#------------------------------------------------------------------------------
#$Date: 2019-11-11 20:25:40 +0200 (Mon, 11 Nov 2019) $
#$Revision: 227260 $
#$URL: file:///home/coder/svn-repositories/cod/cif/4/03/58/4035847.cif $
#------------------------------------------------------------------------------
#
# This file is available in the Crystallography Open Database (COD),
# http://www.crystallography.net/
#
# All data on this site have been placed in the public domain by the
# contributors.
#
data_4035847
loop_
_publ_author_name
'Skalenko, Yevhen A.'
'Druzhenko, Tetiana V.'
'Denisenko, Aleksandr V.'
'Samoilenko, Maryna V.'
'Dacenko, Oleksandr P.'
'Trofymchuk, Serhii A.'
'Grygorenko, Oleksandr O.'
'Tolmachev, Andrey A.'
'Mykhailiuk, Pavel K.'
_publ_section_title
;
 [2+2]-Photocycloaddition of N-Benzylmaleimide to Alkenes As an Approach
 to Functional 3-Azabicyclo[3.2.0]heptanes.
;
_journal_issue                   12
_journal_name_full               'The Journal of organic chemistry'
_journal_page_first              6275
_journal_page_last               6289
_journal_paper_doi               10.1021/acs.joc.8b00077
_journal_volume                  83
_journal_year                    2018
_chemical_formula_sum            'C15 H19 N O2 S'
_chemical_formula_weight         277.37
_space_group_crystal_system      triclinic
_space_group_IT_number           2
_space_group_name_Hall           '-P 1'
_space_group_name_H-M_alt        'P -1'
_atom_sites_solution_hydrogens   difmap
_audit_creation_method           SHELXL-2014/7
_cell_angle_alpha                87.397(8)
_cell_angle_beta                 77.332(8)
_cell_angle_gamma                76.803(9)
_cell_formula_units_Z            2
_cell_length_a                   6.2978(7)
_cell_length_b                   8.5419(9)
_cell_length_c                   13.3191(12)
_cell_measurement_reflns_used    1463
_cell_measurement_temperature    293(2)
_cell_measurement_theta_max      30.4
_cell_measurement_theta_min      4.0
_cell_volume                     680.59(13)
_computing_structure_refinement  'SHELXL-2014/7 (Sheldrick, 2014)'
_diffrn_ambient_temperature      293(2)
_diffrn_detector_area_resol_mean 16.1827
_diffrn_measured_fraction_theta_full 0.974
_diffrn_measured_fraction_theta_max 0.979
_diffrn_measurement_device_type  'Xcalibur, Sapphire3'
_diffrn_radiation_type           MoK\a
_diffrn_radiation_wavelength     0.71073
_diffrn_reflns_av_R_equivalents  0.0276
_diffrn_reflns_av_unetI/netI     0.0432
_diffrn_reflns_Laue_measured_fraction_full 0.974
_diffrn_reflns_Laue_measured_fraction_max 0.979
_diffrn_reflns_limit_h_max       7
_diffrn_reflns_limit_h_min       -8
_diffrn_reflns_limit_k_max       11
_diffrn_reflns_limit_k_min       -12
_diffrn_reflns_limit_l_max       18
_diffrn_reflns_limit_l_min       -18
_diffrn_reflns_number            6490
_diffrn_reflns_point_group_measured_fraction_full 0.974
_diffrn_reflns_point_group_measured_fraction_max 0.979
_diffrn_reflns_theta_full        25.242
_diffrn_reflns_theta_max         29.995
_diffrn_reflns_theta_min         3.402
_diffrn_source                   'Enhance (Mo) X-ray Source'
_exptl_absorpt_coefficient_mu    0.235
_exptl_absorpt_correction_T_max  1.000
_exptl_absorpt_correction_T_min  0.727
_exptl_absorpt_correction_type   multi-scan
_exptl_absorpt_process_details
;
CrysAlisPro, Agilent Technologies,
Version 1.171.36.32 (release 02-08-2013 CrysAlis171 .NET)
(compiled Aug  2 2013,16:46:58)
Empirical absorption correction using spherical harmonics,
 implemented in SCALE3 ABSPACK scaling algorithm.
;
_exptl_crystal_colour            colorless
_exptl_crystal_density_diffrn    1.353
_exptl_crystal_description       plate
_exptl_crystal_F_000             296
_exptl_crystal_size_max          0.200
_exptl_crystal_size_mid          0.150
_exptl_crystal_size_min          0.030
_refine_diff_density_max         0.278
_refine_diff_density_min         -0.344
_refine_diff_density_rms         0.045
_refine_ls_extinction_method     none
_refine_ls_goodness_of_fit_ref   0.998
_refine_ls_hydrogen_treatment    refall
_refine_ls_matrix_type           full
_refine_ls_number_parameters     248
_refine_ls_number_reflns         3878
_refine_ls_number_restraints     0
_refine_ls_restrained_S_all      0.998
_refine_ls_R_factor_all          0.0571
_refine_ls_R_factor_gt           0.0426
_refine_ls_shift/su_max          0.000
_refine_ls_shift/su_mean         0.000
_refine_ls_structure_factor_coef Fsqd
_refine_ls_weighting_details
'w=1/[\s^2^(Fo^2^)+(0.0612P)^2^] where P=(Fo^2^+2Fc^2^)/3'
_refine_ls_weighting_scheme      calc
_refine_ls_wR_factor_gt          0.1057
_refine_ls_wR_factor_ref         0.1146
_reflns_Friedel_coverage         0.000
_reflns_number_gt                3031
_reflns_number_total             3878
_reflns_threshold_expression     'I > 2\s(I)'
_cod_data_source_file            jo8b00077_si_002.cif
_cod_data_source_block           43
_cod_database_code               4035847
_shelx_shelxl_version_number     2014/7
_shelx_space_group_comment
;
The symmetry employed for this shelxl refinement is uniquely defined
by the following loop, which should always be used as a source of
symmetry information in preference to the above space-group names.
They are only intended as comments.
;
_shelx_estimated_absorpt_t_min   0.954
_shelx_estimated_absorpt_t_max   0.993
_shelx_hkl_file
;
   0   0   2 6528.65 233.656   6
   0   0   3 112870. 3065.42   6
   0   0   4 56536.7 1621.43   6
   0   0   5 78565.4 2236.66   6
   0   0   6 42184.3 1304.46   6
   0   0   7 259.974 81.1847   6
   0   0   8 826.387 133.495   6
   0   0   9 296.734 89.4020   6
   0   0  10 1535.80 187.455   6
   0   0  10 1673.78 199.486   5
   0   0  11 7647.39 460.894   5
   0   0  12 219.874 88.3193   5
   0   0  13 2710.61 291.621   5
   0   0  14 464.754 127.133   5
   0   0  15 37.4499 80.7232   5
   0   0  16 7076.19 544.091   5
   0   0  17 260.380 123.290   5
   0   0  18 3504.58 405.961   5
   0  -1  18 156.494 118.037   5
   0  -1  17 3138.42 373.192   5
   0  -1  16 514.072 159.713   5
   0  -1  15 704.125 165.523   5
   0  -1  14 2292.84 280.417   5
   0  -1  13 4216.18 364.983   5
   0  -1  13 3596.54 340.076   6
   0  -1  12 17262.4 817.771   6
   0  -1  11 1774.30 226.748   6
   0  -1  10 37979.6 1328.61   6
   0  -1   9 7279.31 422.168   6
   0  -1   8 33702.0 1148.32   6
   0  -1   7 55192.5 1687.96   6
   0  -1   6 24754.7 843.023   6
   0   1  -5 352.598 35.6382   2
   0  -1   5 327.751 74.0794   6
   0  -1   4 8258.27 277.236   2
   0  -1   4 9112.62 344.708   6
   0   1  -4 9291.36 284.053   2
   0   1  -3 16687.7 477.286   2
   0  -1   3 14869.1 473.816   2
   0  -1   3 17883.4 523.363   6
   0  -1   2 68555.5 1776.97   6
   0   1  -2 65689.2 1758.67   2
   0   1  -2 67263.3 1778.13   6
   0  -1  -2 27801.4 825.696   2
   0   1   2 31343.6 854.911   5
   0  -1  -2 29720.7 861.857   5
   0   1   3 29689.6 839.918   2
   0  -1  -3 29834.8 849.823   2
   0   1   3 31298.5 900.682   5
   0  -1  -4 34124.0 945.782   2
   0   1   4 33930.4 939.651   2
   0   1   4 32525.6 1022.48   5
   0   1   5 87993.9 2378.43   2
   0   1   5 88919.5 2503.06   5
   0   1   6 153604. 4244.30   5
   0   1   7 994.012 124.792   5
   0   1   8 25938.7 929.336   5
   0   1   9 26601.5 975.296   5
   0   1  10 31730.4 1147.19   5
   0   1  11 704.237 148.829   5
   0   1  12 33506.8 1259.96   5
   0   1  13 3131.25 317.156   5
   0   1  14 762.811 171.121   5
   0   1  15 913.578 176.793   5
   0   1  16-28.7098 87.0949   5
   0   1  17 2514.93 335.929   5
   0   1  18 440.397 168.797   5
   0  -2  18 3558.03 425.278   5
   0  -2  17 179.394 108.015   5
   0  -2  16 803.737 188.842   5
   0  -2  15 2966.51 340.325   6
   0  -2  15 3344.78 355.779   5
   0  -2  14 242.210 134.803   6
   0  -2  13 5344.04 421.029   6
   0  -2  12 177.849 110.105   6
   0  -2  11 3423.96 308.565   6
   0  -2  10 15314.9 707.695   6
   0  -2   9 4645.01 334.758   6
   0  -2   8 6374.47 362.066   6
   0  -2   7 6241.51 332.570   6
   0   2  -7 6463.96 256.931   2
   0  -2   6 31.3332 69.4707   6
   0   2  -6 65.5640 27.2725   2
   0   2  -5 42539.6 1227.33   2
   0  -2   5 42370.0 1287.49   6
   0  -2   4 212056. 5628.26   6
   0   2  -4 205998. 5586.73   2
   0   2  -3 111794. 3017.99   4
   0   2  -3 108268. 3014.22   2
   0  -2   3 112314. 3025.58   6
   0   2  -2 334920. 9101.15   2
   0  -2   2 338711. 9091.16   6
   0   2  -2 353137. 9084.93   4
   0   2  -1 254828. 6682.29   2
   0  -2   1 252704. 6655.07   4
   0  -2   1 247904. 6612.44   3
   0   2  -1 258422. 6688.04   7
   0  -2   1 252377. 6659.41   6
   0  -2   1 242211. 6660.88   5
   0   2   0 575425. 15216.6   5
   0  -2   0 585623. 15231.2   5
   0   2   0 576000. 15243.3   7
   0   2   0 569618. 15238.5   2
   0   2   1 470659. 12199.6   2
   0   2   1 467251. 12163.1   1
   0   2   1 487153. 12193.5   5
   0   2   2 5183.98 226.540   5
   0   2   2 4702.52 212.441   2
   0   2   2 4834.92 193.489   1
   0   2   3 42.2913 27.5361   2
   0   2   3 85.6294 43.5786   5
   0   2   4 658.740 67.4349   2
   0   2   4 747.770 93.7966   5
   0   2   5 83390.9 2400.79   5
   0   2   5 84449.1 2315.96   2
   0   2   6 36.0582 25.6213   2
   0   2   6 28.3636 46.1111   5
   0   2   7 18678.4 706.742   5
   0   2   7 18648.1 583.693   2
   0   2   8 907.802 137.171   5
   0   2   9 2495.88 229.458   5
   0   2  10 26230.9 997.914   5
   0   2  11 8021.19 477.032   5
   0   2  12 367.344 106.150   5
   0   2  13-37.1737 86.5747   5
   0   2  14 595.247 147.065   5
   0   2  15 680.383 168.782   5
   0   2  16 4003.14 406.606   5
   0   2  17 2348.34 327.697   5
   0   2  18 1028.16 238.919   5
   0  -3  18 175.095 111.718   5
   0  -3  17 373.982 145.273   5
   0  -3  16 571.190 181.937   6
   0  -3  16 711.991 190.614   5
   0  -3  15 237.789 125.618   6
   0  -3  14 7.92547 97.3668   6
   0  -3  13 1653.91 241.629   6
   0  -3  12 16371.8 809.809   6
   0  -3  11 4877.77 389.044   6
   0  -3  10 155.871 117.046   6
   0  -3   9 2163.52 218.718   6
   0  -3   8 17.8480 81.8281   6
   0   3  -8-47.9871 36.8247   2
   0  -3   7 6772.37 366.749   6
   0   3  -7 6727.72 310.531   2
   0   3  -6 66155.4 1918.86   2
   0  -3   6 67378.3 1984.09   6
   0  -3   5 10949.8 445.362   6
   0   3  -5 10886.3 432.375   4
   0   3  -5 10445.2 419.727   2
   0   3  -4 30956.7 974.260   2
   0  -3   4 31497.9 981.503   6
   0   3  -4 31147.5 965.460   4
   0  -3   3 43579.7 1277.94   6
   0   3  -3 43450.0 1260.02   4
   0   3  -3 42036.7 1285.42   2
   0  -3   2 9433.34 338.261   3
   0   3  -2 10688.0 418.922   7
   0  -3   2 11070.5 392.057   6
   0   3  -2 11290.8 413.558   2
   0   3  -1 82839.5 2280.49   5
   0   3  -1 83963.4 2327.59   7
   0   3  -1 82849.0 2318.68   2
   0   3   0 21019.9 692.391   2
   0   3   0 21115.4 666.681   5
   0   3   0 20583.5 694.357   7
   0   3   1 604.849 72.7121   5
   0   3   1 528.482 75.2546   2
   0   3   2 1033.49 100.905   5
   0   3   2 870.453 95.4792   2
   0   3   2 1060.08 86.0711   1
   0   3   3 3338.17 174.705   1
   0   3   3 3484.80 207.432   5
   0   3   3 3293.51 191.663   2
   0   3   4 10.7877 35.3709   1
   0   3   4 66.6754 50.5555   5
   0   3   4-14.3356 41.3692   2
   0   3   5 7124.40 353.464   5
   0   3   5 7352.60 318.944   1
   0   3   5 6978.94 313.084   2
   0   3   6 84947.8 2492.01   5
   0   3   6 85858.8 2407.41   2
   0   3   7 22614.4 742.375   2
   0   3   7 22595.5 838.786   5
   0   3   8 6863.09 302.200   2
   0   3   8 6996.91 395.363   5
   0   3   9 173.190 82.7281   5
   0   3  10 31179.2 1163.68   5
   0   3  11 9175.34 528.595   5
   0   3  12 2196.35 262.177   5
   0   3  13 2986.99 312.160   5
   0   3  14 2193.89 274.912   5
   0   3  15 5732.72 475.476   5
   0   3  16 272.418 107.449   5
   0   3  17 4245.27 444.045   5
   0  -4  18 4.08999 82.9397   5
   0  -4  17 407.981 176.686   5
   0  -4  17-196.397 116.228   6
   0  -4  16 196.923 122.684   6
   0  -4  15 1759.80 272.155   6
   0  -4  14 1651.48 265.422   6
   0  -4  13 4358.10 393.142   6
   0  -4  12 3144.81 326.627   6
   0  -4  11-19.0312 87.0912   6
   0  -4  10 777.827 169.816   6
   0   4  -9 9607.96 434.059   2
   0  -4   9 10800.8 542.293   6
   0   4  -8 5921.52 316.834   2
   0  -4   8 5967.26 369.987   6
   0   4  -8 5903.85 349.087   4
   0  -4   7 2644.09 224.904   6
   0   4  -7 2456.83 191.887   2
   0   4  -7 2752.03 210.220   4
   0   4  -6 456.275 83.1063   2
   0   4  -6 502.404 95.8042   4
   0  -4   6 672.897 112.759   6
   0  -4   5 21679.0 769.683   6
   0   4  -5 21503.6 768.794   2
   0   4  -5 21465.5 744.808   4
   0   4  -4 833.110 96.1203   4
   0   4  -4 795.009 106.542   2
   0   4  -4 754.049 111.205   7
   0  -4   4 609.342 86.8186   6
   0   4  -3 6456.91 328.466   2
   0   4  -3 6373.11 335.858   7
   0  -4   3 7063.07 325.279   6
   0   4  -2 28775.2 911.754   7
   0  -4   2 28498.3 859.237   6
   0   4  -2 28981.0 895.045   2
   0   4  -1 2863.41 204.356   7
   0   4  -1 2710.41 171.538   5
   0   4  -1 2866.16 196.588   2
   0   4   0 3687.31 205.667   5
   0   4   0 3610.30 231.664   7
   0   4   0 3405.74 219.744   2
   0   4   1-16.4356 32.7815   5
   0   4   1-27.4679 37.0645   2
   0   4   2 3322.83 198.785   5
   0   4   2 2372.90 102.514   3
   0   4   2 2998.20 195.188   2
   0   4   3 262.265 61.7552   5
   0   4   3 425.558 75.7975   2
   0   4   3 285.703 49.7785   1
   0   4   4 1678.16 155.839   5
   0   4   4 1551.25 125.625   1
   0   4   4 1399.21 142.141   2
   0   4   5 14744.3 604.025   5
   0   4   5 14176.0 531.755   1
   0   4   5 14739.3 566.864   2
   0   4   6 58331.6 1801.70   5
   0   4   6 57010.8 1709.25   1
   0   4   6 57953.3 1727.51   2
   0   4   7 7945.73 439.348   5
   0   4   7 7984.18 373.168   2
   0   4   7 8048.66 383.749   1
   0   4   8 2930.59 208.908   2
   0   4   8 2895.95 260.120   5
   0   4   8 3115.19 221.653   1
   0   4   9 5002.77 356.527   5
   0   4   9 4802.92 270.458   2
   0   4  10 2535.90 258.645   5
   0   4  11 21755.6 947.471   5
   0   4  12 178.553 119.054   5
   0   4  13-82.1718 76.7999   5
   0   4  14 871.491 174.585   5
   0   4  15 156.764 109.174   5
   0   4  16 217.761 103.349   5
   0   4  17 87.1861 92.5289   5
   0  -5  17 79.5379 105.270   6
   0   5 -16 103.665 65.8364   4
   0  -5  16 86.8334 110.847   6
   0  -5  15 22.3231 94.8421   6
   0   5 -15 189.026 92.6996   4
   0   5 -14 2039.36 262.754   4
   0  -5  14 1760.46 258.049   6
   0  -5  13 3301.61 341.309   6
   0   5 -13 3198.73 316.218   4
   0   5 -12 2163.47 247.100   4
   0  -5  12 2283.50 283.631   6
   0   5 -11 281.921 94.5247   4
   0  -5  11 181.617 107.304   6
   0  -5  10 3351.47 304.658   6
   0   5 -10 3271.19 277.024   4
   0   5  -9-2.10844 39.4315   2
   0   5  -9-16.6436 42.5923   4
   0  -5   9 29.9216 93.4347   6
   0   5  -8 8961.75 456.983   4
   0   5  -8 8632.48 441.025   2
   0  -5   8 9762.35 511.063   6
   0   5  -7 94.6179 50.8302   2
   0  -5   7 78.8405 93.3838   6
   0   5  -7 9.32917 50.3728   4
   0   5  -6 12021.8 583.332   7
   0   5  -6 11933.0 517.022   4
   0  -5   6 13047.8 559.828   6
   0   5  -6 12269.7 546.325   2
   0  -5   5 4204.20 275.640   6
   0   5  -5 4140.67 277.877   2
   0   5  -5 4101.39 250.907   4
   0   5  -5 4434.82 301.666   7
   0   5  -4 10022.1 500.757   7
   0   5  -4 10749.3 494.145   2
   0  -5   4 11164.1 480.475   6
   0  -5   3 68755.7 1998.26   6
   0   5  -3 64233.8 2034.10   7
   0   5  -3 67448.2 2024.03   2
   0   5  -2 539.125 98.3159   7
   0   5  -2 517.482 105.934   2
   0  -5   2 329.539 37.4514   3
   0  -5   2 544.465 88.6113   6
   0   5  -1 34232.5 1111.46   2
   0   5  -1 32201.6 1047.67   5
   0   5  -1 32277.4 1112.24   7
   0   5   0 135.718 55.4936   5
   0   5   0 155.901 59.5018   2
   0   5   1 773.604 101.611   5
   0   5   1 736.945 112.559   2
   0   5   2 837.159 112.978   5
   0   5   2 963.534 129.932   2
   0   5   3 1839.11 170.336   5
   0   5   3 1921.02 180.079   2
   0   5   3 1154.38 73.9746   3
   0   5   4 27779.7 893.611   1
   0   5   4 26467.7 953.136   5
   0   5   4 27368.6 960.969   2
   0   5   5 10925.4 455.612   1
   0   5   5 11309.9 525.221   5
   0   5   5 11482.6 511.420   2
   0   5   6 6140.15 374.215   5
   0   5   6 6236.69 350.415   2
   0   5   6 5911.52 313.157   1
   0   5   7-9.59975 63.0189   5
   0   5   7-27.3798 49.0991   2
   0   5   7 58.5998 50.5890   1
   0   5   8 1386.57 151.551   1
   0   5   8 1296.64 146.149   2
   0   5   8 1517.89 188.424   5
   0   5   9 45982.9 1560.45   5
   0   5   9 42205.6 1395.03   2
   0   5   9 43511.2 1416.22   1
   0   5  10 11224.2 536.069   1
   0   5  10 11750.0 637.301   5
   0   5  11 1346.63 209.309   5
   0   5  11 1074.21 148.278   1
   0   5  12-1.46605 62.9285   5
   0   5  12 63.8390 68.5408   1
   0   5  13 231.367 72.0714   1
   0   5  13 143.322 96.3313   5
   0   5  14 267.809 92.9794   5
   0   5  15 9938.37 695.204   5
   0   5  16 738.442 195.273   5
   0  -6  15 77.7886 85.2209   6
   0  -6  14 478.214 146.076   6
   0  -6  13 1146.42 218.233   6
   0   6 -13 1062.46 177.821   4
   0  -6  12 201.510 139.671   6
   0   6 -12 94.8498 71.9600   4
   0  -6  11 6571.07 476.843   6
   0   6 -11 6472.77 432.932   4
   0   6 -10 209.700 83.3465   2
   0   6 -10 263.140 92.8266   4
   0  -6  10 225.146 105.578   6
   0  -6   9 6306.46 426.984   6
   0   6  -9 5806.62 379.355   2
   0   6  -9 5913.71 377.411   4
   0   6  -9 6176.55 453.467   7
   0   6  -8 14118.5 645.566   2
   0   6  -8 13528.4 615.354   4
   0  -6   8 14924.4 687.335   6
   0   6  -8 13654.3 701.015   7
   0   6  -7 2955.45 257.685   2
   0  -6   7 3247.65 273.254   6
   0   6  -7 2953.44 280.365   7
   0   6  -7 2731.54 226.881   4
   0  -6   6 294.219 103.832   6
   0   6  -6 254.608 79.2195   2
   0   6  -6 384.154 118.896   7
   0   6  -5 8540.41 461.164   2
   0   6  -5 7855.16 474.733   7
   0  -6   5 9263.40 460.431   6
   0   6  -4 49686.4 1610.92   2
   0   6  -4 46436.9 1625.41   7
   0  -6   4 51249.8 1588.20   6
   0  -6   3 2831.59 224.409   6
   0   6  -3 3154.58 251.852   2
   0   6  -3 2833.12 249.415   7
   0   6  -2 36.9147 63.8370   7
   0   6  -2-63.8765 49.8011   2
   0  -6   2-64.9743 52.1121   6
   0   6  -1 9583.22 484.684   2
   0   6  -1 9176.75 491.874   7
   0   6   0 4492.92 280.193   5
   0   6   0 4783.10 322.276   2
   0   6   1 2849.00 242.758   2
   0   6   1 2443.11 202.437   5
   0   6   2 22.2377 61.1989   2
   0   6   2 82.5754 45.1494   5
   0   6   3 5264.17 337.782   2
   0   6   3 4873.19 311.091   5
   0   6   4 3244.98 264.318   2
   0   6   4 3048.65 251.680   5
   0   6   5 15.3052 45.4889   2
   0   6   5 100.342 64.1006   5
   0   6   5-46.3378 42.7263   1
   0   6   6 2195.27 211.422   2
   0   6   6 1968.96 171.948   1
   0   6   6 2117.47 218.000   5
   0   6   7 11331.9 586.815   5
   0   6   7 11649.8 556.266   2
   0   6   7 11232.0 501.778   1
   0   6   8 3809.21 323.214   5
   0   6   8 3444.59 251.092   1
   0   6   8 3775.71 285.698   2
   0   6   9 10826.2 518.300   1
   0   6   9 11285.9 623.675   5
   0   6   9 11060.1 540.815   2
   0   6  10 68.7761 89.4204   5
   0   6  10 156.482 59.8873   1
   0   6  11 10083.4 624.332   5
   0   6  12 3341.85 349.748   5
   0   6  13-8.74403 99.7314   5
   0   6  14 3375.03 385.753   5
   0   6  15 1193.38 238.426   5
   0   7 -14 891.561 220.983   7
   0   7 -13 2570.69 343.374   7
   0  -7  13 2565.74 329.065   6
   0   7 -12 489.085 161.513   7
   0  -7  12 187.066 99.0443   6
   0  -7  11 925.306 188.292   6
   0   7 -11 1101.72 204.716   7
   0   7 -10-30.3700 39.5206   4
   0   7 -10 20.9390 42.2413   2
   0  -7  10 25.5730 98.0543   6
   0   7 -10-86.7021 94.2592   7
   0  -7   9 1723.23 234.060   6
   0   7  -9 1625.00 203.413   2
   0   7  -9 1500.94 187.537   4
   0   7  -9 1606.51 242.974   7
   0   7  -8 2366.50 248.700   2
   0   7  -8 2365.72 280.015   7
   0  -7   8 2454.16 268.768   6
   0   7  -7 3282.45 321.863   7
   0   7  -7 3660.37 309.552   2
   0  -7   7 3975.54 324.250   6
   0   7  -6 3395.92 317.664   7
   0  -7   6 3459.12 293.331   6
   0   7  -6 3052.44 277.486   2
   0   7  -5 289.629 97.4335   7
   0  -7   5 393.735 100.676   6
   0   7  -5 418.549 102.807   2
   0   7  -4 1939.10 230.389   7
   0   7  -4 2119.43 227.079   2
   0  -7   4 2485.64 232.348   6
   0   7  -3 18865.7 860.797   7
   0   7  -3 21168.7 862.324   2
   0  -7   3 20910.2 830.333   6
   0   7  -2 1596.46 192.210   2
   0   7  -2 1634.01 206.537   7
   0  -7   2 1608.94 185.136   6
   0  -7   1 3659.33 281.127   6
   0   7  -1 3564.10 300.189   2
   0   7   0 2133.79 201.027   5
   0   7   0 2076.21 218.635   2
   0   7   1 4956.95 350.649   2
   0   7   1 4419.29 303.310   5
   0   7   2 21642.9 852.016   5
   0   7   2 22702.6 910.044   2
   0   7   3 953.576 156.739   2
   0   7   3 819.850 129.136   5
   0   7   4 11013.3 571.544   2
   0   7   4 10508.2 535.896   5
   0   7   5 17734.7 772.471   2
   0   7   5 16478.4 749.094   5
   0   7   6 3561.99 298.406   2
   0   7   6 3537.97 296.893   5
   0   7   7 14117.1 638.233   1
   0   7   7 16082.8 746.569   5
   0   7   7 16252.2 731.720   2
   0   7   8 308.067 107.551   2
   0   7   8 132.347 63.5233   5
   0   7   9 8841.66 511.815   2
   0   7   9 9716.39 584.291   5
   0   7  10 863.451 179.564   5
   0   7  11 2129.65 278.363   5
   0   7  12 1497.53 244.509   5
   0   7  13 1075.38 217.981   5
   0   7  14 443.185 153.150   5
   0   8 -13 1878.59 303.400   7
   0   8 -12 464.423 154.083   7
   0   8 -11 1078.19 230.852   7
   0  -8  10 2845.29 317.374   6
   0   8 -10 2904.64 350.288   7
   0   8  -9 2180.56 296.076   7
   0  -8   9 2005.83 265.478   6
   0   8  -9 1832.39 234.227   2
   0   8  -8 9155.05 562.928   2
   0   8  -8 9053.56 614.634   7
   0  -8   8 9057.56 565.015   6
   0   8  -7 5690.16 427.259   2
   0  -8   7 6049.51 432.820   6
   0   8  -7 5939.79 477.337   7
   0  -8   6 1411.97 201.039   6
   0   8  -6 1553.16 216.751   2
   0   8  -6 1574.45 236.722   7
   0   8  -5 130.311 90.5947   7
   0  -8   5 96.6306 84.0542   6
   0   8  -5-41.6895 60.2977   2
   0   8  -4 9782.44 595.316   7
   0   8  -4 9685.74 567.021   2
   0  -8   4 10234.8 559.907   6
   0   8  -3 11784.8 635.280   2
   0   8  -3 11637.1 656.221   7
   0  -8   3 12473.5 628.718   6
   0   8  -2 3821.44 329.247   2
   0  -8   2 3816.99 311.488   6
   0  -8   1 2756.43 268.023   6
   0   8  -1 2535.16 264.967   2
   0   8   0 551.991 124.159   2
   0   8   1 1627.44 212.749   2
   0   8   1 1512.81 187.684   5
   0   8   2 549.701 116.647   5
   0   8   2 657.913 132.494   2
   0   8   3 346.829 111.814   2
   0   8   3 318.627 101.278   5
   0   8   4 1433.02 206.571   2
   0   8   4 1118.61 165.741   5
   0   8   5 724.268 142.104   5
   0   8   5 549.827 127.642   2
   0   8   6 508.460 121.160   5
   0   8   6 742.264 150.238   2
   0   8   7 158.053 84.4363   2
   0   8   7 235.531 87.1186   5
   0   8   8 247.598 97.7369   2
   0   8   8 255.806 106.446   5
   0   8   9 7916.90 506.862   2
   0   8   9 7610.40 531.035   5
   0   8  10 552.227 152.670   5
   0   8  11 1670.92 249.707   5
   0   8  12 4966.77 458.951   5
   0   8  13 889.450 197.077   5
   0   9 -11 966.064 223.712   7
   0   9 -10 306.716 106.152   7
   0   9  -9-9.00616 77.1461   7
   0   9  -9 48.1197 76.4524   2
   0   9  -8 209.149 97.8530   2
   0   9  -8 295.643 135.703   7
   0   9  -7 59.6398 80.5685   2
   0   9  -7-55.4396 72.9626   7
   0   9  -6 607.132 150.536   2
   0  -9   6 789.683 187.411   6
   0   9  -6 461.386 156.138   7
   0   9  -5 868.953 179.485   7
   0  -9   5 837.522 165.887   6
   0   9  -5 809.165 173.615   2
   0   9  -4 521.562 130.318   7
   0   9  -4 498.404 133.144   2
   0  -9   4 486.571 126.526   6
   0   9  -3 368.191 117.361   2
   0  -9   3 255.214 83.5662   6
   0  -9   2 2026.33 249.016   6
   0   9  -2 2464.84 277.824   2
   0  -9   1 2262.69 261.125   6
   0   9  -1 2232.56 255.257   2
   0   9   0 669.550 143.148   2
   0  -9   0 460.532 123.300   6
   0   9   1 256.718 86.4804   5
   0   9   1 140.322 107.107   2
   0   9   2 17701.3 854.841   2
   0   9   2 16351.3 761.677   5
   0   9   3 8070.69 526.502   2
   0   9   3 6478.29 440.436   5
   0   9   4 138.244 92.1272   2
   0   9   4 27.8111 58.1934   5
   0   9   5 5702.76 423.808   5
   0   9   5 6339.77 469.274   2
   0   9   6 847.066 179.189   2
   0   9   6 815.253 155.961   5
   0   9   7 910.859 177.894   5
   0   9   7 1252.47 209.398   2
   0   9   8 1315.08 216.058   2
   0   9   8 1277.79 216.467   5
   0   9   9 234.740 118.108   5
   0   9  10 131.311 84.7289   5
   0   9  11 258.088 102.898   5
   0   9  12 91.9886 77.1286   5
   0  10  -9 203.729 100.623   7
   0  10  -8 992.588 201.462   2
   0  10  -8 1246.87 251.879   7
   0  10  -7 521.103 147.376   2
   0  10  -7 531.845 161.085   7
   0  10  -6 203.492 104.764   7
   0  10  -6 231.870 100.149   2
   0  10  -5 276.228 108.254   7
   0  10  -5 335.427 133.754   2
   0  10  -4 208.238 122.754   2
   0 -10   3 2619.05 305.942   6
   0  10  -3 3006.58 339.253   2
   0  10  -2 53.1417 70.5145   2
   0 -10   2 197.044 111.442   6
   0 -10   1 269.121 108.631   6
   0  10  -1 329.283 126.255   2
   0  10   0 103.926 96.0413   2
   0 -10   0 203.444 88.6699   6
   0  10   1 3736.92 380.607   2
   0 -10  -1 3552.03 360.950   6
   0  10   2 2733.02 281.585   5
   0  10   2 3477.03 363.985   2
   0  10   3 118.749 74.4515   5
   0  10   3 320.633 118.310   2
   0  10   4 131.569 86.2546   5
   0  10   4-26.9029 91.6997   2
   0  10   5 99.6349 78.3376   5
   0  10   5 79.7321 64.1265   2
   0  10   6 387.225 133.283   5
   0  10   6 373.611 132.209   2
   0  10   7 391.697 132.607   2
   0  10   7 320.649 116.025   5
   0  10   8-49.1789 78.2399   5
   0  10   8-16.0640 75.4350   2
   0  10   9 1044.22 204.893   5
   0  10  10 142.109 80.6371   5
   0  11  -7 785.041 193.016   2
   0  11  -6 121.556 88.9592   2
   0  11  -6-118.982 120.234   7
   0  11  -5 99.4455 100.004   2
   0  11  -4 162.831 115.581   2
   0  11  -3 36.6634 76.7848   2
   0  11  -2 505.453 149.905   2
   0  11  -1 1551.56 263.018   2
   0  11   0 72.9107 84.9256   2
   0  11   1 884.892 192.031   2
   0 -11  -2 77.4440 95.6497   6
   0  11   2 375.501 143.301   2
   0  11   3 2448.88 329.782   2
   0  11   4 68.3768 92.0551   2
   0  11   4-64.4171 73.3792   5
   0  11   5-44.2209 62.4354   5
   0  11   5-60.1229 78.3636   2
   0  11   6 1066.69 203.920   5
   0  11   6 1380.84 254.507   2
   0  11   7 387.759 123.194   5
   0  11   8 269.381 119.348   5
  -1  11   5 217.653 119.790   2
  -1  11   4 55.0946 85.1833   2
  -1  11   3 38.7596 80.8700   2
  -1  11   2 126.416 101.399   2
  -1  11   1-77.0955 101.958   2
  -1  11   0 534.123 165.517   2
  -1  11  -1 271.230 128.976   2
  -1  11  -2 172.199 121.389   2
  -1  11  -3 916.393 204.039   2
  -1  11  -4 88.1926 88.7545   2
  -1  11  -5 1093.87 222.597   2
  -1  11  -6 2.27019 64.1131   2
  -1  11  -7 2.05931 66.3519   2
  -1  10   8 92.9745 103.223   2
  -1  10   7 85.2519 59.2163   2
  -1  10   6 69.4495 64.5732   2
  -1  10   5 1377.28 241.552   2
  -1  10   4 2646.27 324.825   2
  -1  10   3 517.236 162.517   2
  -1  10   2 460.836 152.877   2
  -1  10   1 5271.19 457.576   2
  -1  10   0 2980.17 339.330   2
  -1  10  -1 191.434 100.857   2
  -1  10  -2 1034.93 200.605   2
  -1  10  -3 1368.22 242.160   2
  -1  10  -4-115.407 111.973   2
  -1  10  -5 216.767 106.390   2
  -1  10  -5 225.747 115.548   7
  -1  10  -6 70.1487 66.4894   7
  -1  10  -6 278.068 123.534   2
  -1  10  -7 118.315 65.4435   2
  -1  10  -7 179.528 99.6058   7
  -1  10  -8 89.8217 73.3870   7
  -1  10  -8 118.016 75.1789   2
  -1  10  -9 81.0385 103.876   7
  -1  10  -9-3.38480 70.7482   2
  -1   9  11 1289.18 231.045   5
  -1   9  10 107.009 86.2243   5
  -1   9   9 335.213 129.424   5
  -1   9   9 514.404 139.804   2
  -1   9   8 5802.54 464.101   2
  -1   9   8 4891.25 418.369   5
  -1   9   7 857.274 176.233   2
  -1   9   7 936.778 175.457   5
  -1   9   6 428.640 116.086   5
  -1   9   6 613.528 148.600   2
  -1   9   5 340.787 122.473   2
  -1   9   5 394.037 104.025   5
  -1   9   4 833.128 180.250   2
  -1   9   4 501.738 114.672   5
  -1   9   3 1417.14 218.440   2
  -1   9   3 1113.90 164.015   5
  -1   9   2 708.405 132.996   5
  -1   9   2 588.584 140.414   2
  -1   9   1 201.292 76.2663   2
  -1   9   1 212.068 63.9029   5
  -1   9   0 1416.81 216.287   2
   1  -9   0 1405.97 196.710   6
  -1   9  -1 3013.03 318.846   2
  -1   9  -2 418.703 118.422   2
  -1   9  -3 92.5504 71.2034   2
  -1   9  -4 609.175 154.099   7
  -1   9  -4 873.593 182.368   2
  -1   9  -5 2652.47 320.044   7
  -1   9  -5 3355.73 342.344   2
  -1   9  -6 836.744 185.941   7
  -1   9  -6 928.968 177.609   2
  -1   9  -7 103.090 65.9563   2
  -1   9  -7 182.337 93.9101   7
  -1   9  -8 1402.11 226.875   2
  -1   9  -8 1167.89 225.282   7
  -1   9  -9 863.393 179.244   2
  -1   9  -9 923.705 211.038   7
  -1   9 -10 18.2690 72.2263   2
  -1   9 -10 49.4814 87.3426   7
  -1   9 -11 615.830 189.634   7
  -1   8  13 849.751 190.128   5
  -1   8  12 367.357 125.854   5
  -1   8  11 381.080 137.864   5
  -1   8  10 1492.26 233.351   5
  -1   8   9 44.5241 63.2175   5
  -1   8   9 118.149 61.0563   2
  -1   8   8 377.455 116.700   2
  -1   8   8 239.535 106.711   5
  -1   8   7 410.717 119.563   5
  -1   8   7 184.370 74.8940   2
  -1   8   6 4204.64 362.119   2
  -1   8   6 2974.57 285.809   5
  -1   8   5 30.5113 44.1148   5
  -1   8   5 29.4403 60.1002   2
  -1   8   4 2005.84 216.034   5
  -1   8   4 2107.71 243.430   2
  -1   8   3 12009.5 641.194   2
  -1   8   3 10431.6 545.338   5
  -1   8   2 2020.00 207.175   5
  -1   8   2 2166.17 245.743   2
  -1   8   1 9957.85 507.889   5
  -1   8   1 11739.2 623.138   2
  -1   8   0 9560.77 552.398   2
  -1   8   0 8611.05 453.177   5
  -1   8  -1 2408.15 270.793   2
   1  -8   1 2292.98 231.184   6
  -1   8  -2 130.410 59.4931   2
   1  -8   2 155.345 73.5389   6
   1  -8   3 52.3468 68.7743   6
  -1   8  -3 123.276 91.5434   7
  -1   8  -3 106.850 74.1018   2
   1  -8   4 6759.20 411.661   6
  -1   8  -4 6295.95 469.960   7
  -1   8  -4 6914.35 471.427   2
  -1   8  -5 247.467 92.4678   2
  -1   8  -5 89.0617 60.0473   7
  -1   8  -6 1248.14 187.094   2
  -1   8  -6 1214.07 209.265   7
  -1   8  -7 71.0355 57.0105   2
  -1   8  -7 139.851 105.782   7
  -1   8  -8 1031.57 194.559   7
  -1   8  -8 687.257 154.999   2
  -1   8  -9 1301.81 236.613   7
  -1   8  -9 1232.49 204.856   2
  -1   8 -10-5.28642 55.9581   2
  -1   8 -10 20.5191 79.6374   7
  -1   8 -11-48.1748 73.3200   7
  -1   8 -12-41.3184 71.8308   7
  -1   8 -13 72.3455 72.9027   7
  -1   7  14 32.6284 62.5188   5
  -1   7  13 547.126 162.006   5
  -1   7  12 27.7953 70.1156   5
  -1   7  11 1105.10 208.374   5
  -1   7  10 8352.25 570.405   5
  -1   7   9 371.181 124.420   5
  -1   7   9 447.541 108.406   2
  -1   7   9 504.565 121.218   1
  -1   7   8 2073.31 215.884   1
  -1   7   8 2034.38 240.155   5
  -1   7   8 2047.03 237.818   2
  -1   7   7 11680.2 626.941   5
  -1   7   7 11907.4 588.170   1
  -1   7   7 12554.9 636.268   2
  -1   7   6 6201.89 404.006   1
  -1   7   6 6410.29 417.833   5
  -1   7   6 6862.20 442.391   2
  -1   7   5-31.7215 43.6982   5
  -1   7   5-29.8603 78.4905   2
  -1   7   4 4705.87 355.792   2
  -1   7   4 4566.02 322.947   5
  -1   7   3 6024.21 368.975   5
  -1   7   3 6673.02 425.019   2
  -1   7   2 4760.05 314.404   5
  -1   7   2 5398.35 378.530   2
  -1   7   1 6782.56 427.910   2
  -1   7   1 6340.89 362.856   5
  -1   7   0-43.2364 78.0510   2
  -1   7   0-26.5527 32.8905   5
  -1   7  -1 7710.08 469.464   2
   1  -7   2 1922.43 184.645   6
  -1   7  -2 1818.07 221.087   7
  -1   7  -2 1920.56 221.706   2
   1  -7   3 83.8141 60.0314   6
  -1   7  -3 25.2477 72.0434   2
  -1   7  -3 61.1534 59.8802   7
  -1   7  -4 15.7059 76.3485   7
   1  -7   4 40.4121 49.7376   6
  -1   7  -4 90.7119 65.6029   2
  -1   7  -5 10004.1 577.543   7
  -1   7  -5 10388.1 559.206   2
   1  -7   5 9790.73 490.846   6
   1  -7   6 5090.74 332.620   6
  -1   7  -6 4923.24 374.380   2
  -1   7  -6 4884.50 391.762   7
  -1   7  -7 1353.44 191.557   2
   1  -7   7 1189.63 163.836   6
  -1   7  -7 1215.08 206.324   7
  -1   7  -8 660.313 139.691   2
  -1   7  -8 706.383 160.511   7
   1  -7   8 926.628 163.277   6
  -1   7  -9 7132.32 465.264   2
  -1   7  -9 7024.27 511.846   7
  -1   7 -10 1630.69 216.977   4
  -1   7 -10 1746.32 262.331   7
  -1   7 -10 1417.76 197.032   2
  -1   7 -11 28.4994 85.0069   7
  -1   7 -11 16.8493 47.1967   4
  -1   7 -12 5381.79 484.464   7
  -1   7 -12 4728.08 399.799   4
  -1   7 -13 44.8430 49.7775   4
  -1   7 -13 104.361 68.3972   7
  -1   7 -14 875.405 209.456   7
  -1   6  15-148.443 104.257   5
  -1   6  14 3408.60 392.129   5
  -1   6  13 1164.67 218.736   5
  -1   6  12 2356.69 299.424   5
  -1   6  12 2431.99 261.004   1
  -1   6  11 147.526 92.6379   5
  -1   6  11-6.77531 56.9676   1
  -1   6  10 318.926 89.1033   1
  -1   6  10 491.771 131.439   5
  -1   6   9 10102.1 529.545   2
  -1   6   9 10386.3 553.051   1
  -1   6   9 11296.2 621.541   5
  -1   6   8 1350.05 193.293   5
  -1   6   8 1205.70 165.456   2
  -1   6   8 1188.78 168.938   1
  -1   6   7 271.577 87.5396   2
  -1   6   7 270.193 79.6359   5
  -1   6   7 258.824 63.2276   1
  -1   6   6 7366.02 436.897   2
  -1   6   6 7423.81 412.318   1
  -1   6   6 7592.88 444.081   5
  -1   6   5 5383.55 358.324   2
  -1   6   5 5283.28 329.908   1
  -1   6   5 5026.61 343.416   5
  -1   6   4 2257.59 205.031   5
  -1   6   4 1998.59 220.451   1
  -1   6   4 2285.17 226.190   2
  -1   6   3 6997.55 418.115   2
  -1   6   3 6944.43 377.914   5
  -1   6   2 41.5667 42.4024   5
  -1   6   2-12.1037 59.6725   2
  -1   6   2 50.9312 16.1876   3
  -1   6   1 16186.3 632.526   5
  -1   6   1 16549.3 707.592   2
  -1   6   0 1021.99 149.756   2
  -1   6   0 760.918 100.253   5
  -1   6  -1 2394.57 226.429   2
  -1   6  -2 46683.5 1520.68   2
   1  -6   2 45771.4 1426.86   6
  -1   6  -2 43694.4 1506.56   7
   1  -6   3 2366.06 195.083   6
  -1   6  -3 2345.63 223.504   2
  -1   6  -3 2056.99 223.657   7
  -1   6  -4 14923.1 692.768   7
   1  -6   4 15302.4 610.641   6
  -1   6  -4 15053.7 673.693   2
   1  -6   5 3524.87 246.355   6
  -1   6  -5 3560.24 299.537   7
  -1   6  -5 3317.05 276.573   2
  -1   6  -6 43.4602 52.0252   2
   1  -6   6 164.508 78.4640   6
  -1   6  -6-12.5654 52.1268   7
   1  -6   7 1696.01 180.229   6
  -1   6  -7 1810.82 222.540   7
  -1   6  -7 1712.25 201.482   2
   1  -6   8 1228.09 167.970   6
  -1   6  -8 1163.36 163.032   4
  -1   6  -8 1077.90 159.726   2
  -1   6  -8 1259.87 194.553   7
  -1   6  -9 12522.5 624.925   2
  -1   6  -9 13827.8 718.186   7
   1  -6   9 13198.2 628.770   6
  -1   6  -9 13546.5 653.096   4
   1  -6  10 498.940 118.662   6
  -1   6 -10 319.620 80.7241   2
  -1   6 -10 661.829 138.188   4
  -1   6 -11 9.59707 48.6832   4
   1  -6  11-20.4432 91.0975   6
  -1   6 -12 152.006 73.4240   4
  -1   6 -13-36.1360 59.3120   4
  -1   6 -14 93.0791 54.3799   4
  -1   6 -15 1480.53 238.235   4
  -1   6 -16 107.875 101.156   4
  -1   5  15 603.216 171.651   5
  -1   5  14 182.962 112.766   5
  -1   5  14 392.877 126.423   1
  -1   5  13 2.99197 83.3329   5
  -1   5  13 4.95619 64.6658   1
  -1   5  12 36.0981 55.8985   1
  -1   5  12-94.2043 87.5168   5
  -1   5  11 3840.21 318.915   1
  -1   5  11 3402.79 337.662   5
  -1   5  10 5000.63 356.107   1
  -1   5  10 4723.29 383.199   5
  -1   5   9 3060.83 296.836   5
  -1   5   9 3228.05 271.305   1
  -1   5   9 3227.72 249.234   2
  -1   5   8 6553.65 387.620   1
  -1   5   8 6601.89 426.903   5
  -1   5   8 6042.12 360.436   2
  -1   5   7 6688.47 413.716   5
  -1   5   7 5991.47 355.400   2
  -1   5   7 6580.30 379.557   1
  -1   5   6 32958.7 1153.03   2
  -1   5   6 33808.6 1154.15   1
  -1   5   6 34682.3 1201.53   5
  -1   5   5 8203.84 412.106   1
  -1   5   5 8505.59 441.222   5
  -1   5   5 8120.03 426.814   2
  -1   5   4 9728.53 474.441   2
  -1   5   4 9923.94 454.242   1
  -1   5   4 9568.40 464.422   5
  -1   5   3 2389.56 208.096   2
  -1   5   3 2183.34 188.156   1
  -1   5   3 2395.79 195.996   5
  -1   5   2 208.071 67.7576   2
  -1   5   2 258.385 65.5518   5
  -1   5   1 2727.38 186.036   5
  -1   5   1 2240.21 109.331   3
  -1   5   1 2897.57 221.409   2
  -1   5   0 3028.08 129.052   3
  -1   5   0 3590.15 212.842   5
  -1   5   0 3804.01 259.103   2
  -1   5  -1 1446.24 83.9506   3
  -1   5  -1 1446.53 125.855   5
  -1   5  -1 1783.92 180.604   2
  -1   5  -1 1624.43 169.664   7
   1  -5   2 3670.40 219.192   6
  -1   5  -2 3606.88 263.588   7
  -1   5  -2 3868.38 270.790   2
  -1   5  -3 725.262 122.123   7
   1  -5   3 673.978 92.1891   6
  -1   5  -3 565.971 112.026   2
  -1   5  -4 10531.2 502.199   2
  -1   5  -4 10277.1 509.911   7
   1  -5   4 11037.0 448.700   6
   1  -5   5 619.168 100.470   6
  -1   5  -5 536.326 111.105   7
  -1   5  -5 526.030 106.203   2
  -1   5  -6 6677.65 380.390   4
  -1   5  -6 6753.42 409.418   7
  -1   5  -6 7016.28 391.236   2
   1  -5   6 7189.02 366.427   6
  -1   5  -7 99.4609 57.3585   2
  -1   5  -7 168.079 82.0599   4
  -1   5  -8 19818.2 806.041   4
   1  -5   8 19673.8 783.720   6
  -1   5  -8 19511.4 781.395   2
  -1   5  -9 1153.35 149.744   2
  -1   5  -9 1355.13 181.420   4
   1  -5   9 1096.68 152.398   6
   1  -5  10 8804.40 491.875   6
  -1   5 -10 9765.70 531.556   4
  -1   5 -10 8118.91 447.267   2
   1  -5  11 455.728 136.930   6
  -1   5 -11 425.892 114.316   4
   1  -5  12 2892.40 294.167   6
  -1   5 -12 3120.63 306.208   4
   1  -5  13 572.849 151.335   6
  -1   5 -13 524.871 141.674   4
  -1   5 -14 4038.70 378.207   4
   1  -5  14 3161.50 339.637   6
  -1   5 -15 2025.12 278.072   4
  -1   5 -16 947.334 198.011   4
   1  -5  17 103.497 111.536   5
  -1   5 -17 228.782 120.714   4
  -1   4  16 8374.64 599.118   1
  -1   4  16 8130.15 629.692   5
  -1   4  15-141.185 105.541   5
  -1   4  15 80.8415 87.0512   1
  -1   4  14 1239.65 222.333   5
  -1   4  13 2089.13 268.932   5
  -1   4  13 1997.40 258.013   1
  -1   4  12 738.595 145.917   1
  -1   4  12 512.565 133.892   5
  -1   4  11 2778.13 289.147   5
  -1   4  11 3024.10 279.860   1
  -1   4  10 1128.05 161.448   1
  -1   4  10 1201.84 182.272   5
  -1   4   9 15235.6 708.326   5
  -1   4   9 16083.4 688.267   1
  -1   4   9 14406.2 586.966   2
  -1   4   8 11393.4 499.302   2
  -1   4   8 12718.5 565.193   1
  -1   4   8 12048.6 586.509   5
  -1   4   7 2317.19 188.258   2
  -1   4   7 2524.95 227.849   5
  -1   4   7 2309.36 201.495   1
  -1   4   6 9704.02 452.935   1
  -1   4   6 9794.82 444.729   2
  -1   4   6 9792.05 476.030   5
  -1   4   5 52.2909 62.7118   5
  -1   4   5 71.0411 43.0291   2
  -1   4   5 80.7542 60.0953   1
  -1   4   4 20031.7 741.329   2
  -1   4   4 20159.3 745.865   5
  -1   4   4 20317.3 732.064   1
  -1   4   3 1886.82 173.172   2
  -1   4   3 2046.84 164.961   5
  -1   4   3 1764.39 157.520   1
  -1   4   2 8074.40 387.666   2
  -1   4   2 7633.72 360.966   1
  -1   4   2 8108.14 355.429   5
  -1   4   1 1090.24 130.287   2
  -1   4   1 1107.99 106.585   5
  -1   4   0 79317.6 2280.68   2
  -1   4   0 76409.2 2117.86   3
  -1   4   0 80074.8 2191.53   5
  -1   4  -1 176196. 4747.42   5
  -1   4  -1 177512. 4854.51   2
  -1   4  -1 171559. 4836.99   7
  -1   4  -1 168692. 4688.53   3
   1  -4   2 30347.0 927.236   6
  -1   4  -2 29681.0 881.514   3
  -1   4  -2 31268.0 1018.86   2
  -1   4  -2 29771.0 1005.05   7
   1  -4   3 14526.3 506.353   6
  -1   4  -3 13669.9 567.219   2
  -1   4  -3 13664.5 563.375   7
  -1   4  -4 6475.65 360.045   7
  -1   4  -4 7228.29 356.490   4
   1  -4   4 7168.55 312.106   6
  -1   4  -4 7652.04 374.102   2
  -1   4  -5 25159.0 903.489   4
  -1   4  -5 26701.7 920.749   2
   1  -4   5 27123.0 865.832   6
  -1   4  -6 401.016 80.4759   2
   1  -4   6 520.317 98.0215   6
  -1   4  -6 500.533 93.3351   4
   1  -4   7 2040.67 187.439   6
  -1   4  -7 1871.57 170.753   2
  -1   4  -7 1964.82 186.261   4
  -1   4  -8 440.151 84.2996   2
   1  -4   8 588.895 124.778   6
  -1   4  -8 560.113 113.685   4
   1  -4   9 9993.62 484.961   6
  -1   4  -9 9987.45 507.734   4
  -1   4  -9 8921.42 436.161   2
  -1   4 -10 11114.1 561.223   4
   1  -4  10 10718.1 548.949   6
  -1   4 -10 10197.8 472.763   2
   1  -4  11 42.0544 81.3571   6
  -1   4 -11-62.9486 55.1122   4
   1  -4  12 899.983 170.632   6
  -1   4 -12 1116.59 183.483   4
  -1   4 -13 4011.14 361.941   4
   1  -4  13 3693.73 348.909   6
   1  -4  14 5497.03 453.218   6
  -1   4 -14 6786.39 494.991   4
  -1   4 -15 83.8529 99.7207   4
   1  -4  15 33.6089 68.4830   6
   1  -4  16 1166.11 225.299   5
  -1   4 -16 1262.51 229.988   4
   1  -4  17 686.468 206.932   5
  -1   4 -17 680.658 180.465   4
   1  -4  18 82.7988 110.521   5
  -1   4 -18 18.6357 61.4751   4
  -1   3  16 10453.2 711.442   5
  -1   3  15 2527.97 320.256   5
  -1   3  14 92.5300 87.0557   5
  -1   3  13 366.279 114.604   5
  -1   3  12 61.1680 81.7871   5
  -1   3  11 2177.57 245.077   5
  -1   3  10 2004.20 231.890   5
  -1   3   9 750.658 139.171   5
  -1   3   9 642.476 84.1505   2
  -1   3   8 9066.18 468.237   5
  -1   3   8 8503.84 370.844   2
  -1   3   7 3054.68 238.278   5
  -1   3   7 2866.11 188.687   2
  -1   3   6 568.451 92.2860   1
  -1   3   6 579.558 97.8793   5
  -1   3   6 428.729 68.9212   2
  -1   3   5 99.1974 53.2959   1
  -1   3   5 252.916 64.4871   5
  -1   3   5 209.765 57.3703   2
  -1   3   4 49878.2 1486.28   2
  -1   3   4 49831.1 1497.14   5
  -1   3   4 48435.5 1488.78   1
  -1   3   3 12304.5 482.445   2
  -1   3   3 12466.5 475.604   5
  -1   3   3 12155.7 475.525   1
  -1   3   2 2043.10 152.917   1
  -1   3   2 2175.22 162.891   2
  -1   3   2 2228.74 150.231   5
  -1   3   1 25900.8 850.546   1
  -1   3   1 27557.2 827.460   5
  -1   3   1 26500.6 871.688   2
  -1   3   0 11793.7 455.141   2
  -1   3   0 11032.4 365.296   3
  -1   3   0 11398.3 438.033   7
  -1   3   0 11765.5 396.084   5
  -1   3  -1 100044. 2720.93   3
  -1   3  -1 101012. 2809.91   7
  -1   3  -1 99979.6 2732.88   5
  -1   3  -1 102193. 2827.63   2
  -1   3  -2 1244.31 123.772   2
  -1   3  -2 1186.58 88.0554   3
  -1   3  -3 47258.2 1407.98   2
  -1   3  -3 46048.1 1337.27   3
  -1   3  -3 45682.4 1396.54   4
   1  -3   3 47451.8 1325.07   6
  -1   3  -3 45384.4 1398.79   7
  -1   3  -4 95503.0 2699.09   2
   1  -3   4 99644.7 2630.86   6
  -1   3  -4 94608.5 2696.20   4
  -1   3  -5 95048.2 2710.67   4
  -1   3  -5 94959.9 2691.09   2
   1  -3   5 94799.9 2653.75   6
   1  -3   6 23452.7 772.534   6
  -1   3  -6 22642.4 782.740   2
  -1   3  -6 22188.8 808.407   4
   1  -3   7 224.995 73.6960   6
  -1   3  -7 183.474 59.8391   4
  -1   3  -7 215.518 58.8255   2
  -1   3  -8 3452.41 218.208   2
   1  -3   8 3949.21 264.390   6
  -1   3  -8 3762.99 277.981   4
  -1   3  -9 1786.01 151.038   2
   1  -3   9 1922.54 197.237   6
  -1   3 -10 0.95747 32.6471   2
   1  -3  10-62.3132 76.4241   6
   1  -3  11 3718.44 307.634   6
   1  -3  12 9107.20 538.647   6
   1  -3  13 2722.54 295.030   6
   1  -3  14 3223.25 329.584   6
   1  -3  15 2615.00 318.757   5
   1  -3  16 2459.06 319.227   5
   1  -3  17 353.403 140.707   5
   1  -3  18 50.9714 80.3789   5
   1  -3  19 174.808 128.465   5
  -1   2  17 4465.85 466.576   5
  -1   2  16 654.344 186.645   5
  -1   2  15 741.357 184.821   5
  -1   2  14 103.192 93.7140   5
  -1   2  13 2199.31 261.303   5
  -1   2  12 2466.68 261.607   5
  -1   2  11 20028.4 869.811   5
  -1   2  10 19616.4 833.959   5
  -1   2   9 10612.4 384.976   2
  -1   2   9 12224.6 565.606   5
  -1   2   8 26233.6 817.051   2
  -1   2   8 27403.7 981.478   5
  -1   2   7 37478.8 1104.21   2
  -1   2   7 35569.4 1214.98   5
  -1   2   6 40251.9 1189.77   2
  -1   2   6 39647.2 1279.68   5
  -1   2   5 32073.2 969.042   2
  -1   2   5 31012.7 1024.37   5
  -1   2   4 57872.0 1708.42   5
  -1   2   4 58948.8 1674.30   2
  -1   2   3 3759.47 211.177   1
  -1   2   3 3521.72 194.108   5
  -1   2   3 3667.76 193.335   2
  -1   2   2 6903.49 295.619   2
  -1   2   2 7230.26 286.354   5
  -1   2   2 6834.20 298.140   1
  -1   2   1 80645.6 2123.52   5
  -1   2   1 76754.4 2160.45   1
  -1   2   0 310296. 8555.66   7
  -1   2   0 329587. 8585.40   1
  -1   2   0 321882. 8515.29   5
   1  -2   0 326124. 8525.22   5
  -1   2  -1 33980.6 970.442   3
  -1   2  -1 33898.7 941.414   5
  -1   2  -1 33555.7 1000.31   7
   1  -2   1 34290.0 952.283   5
   1  -2   2 117961. 3139.70   5
  -1   2  -2 121069. 3221.91   4
   1  -2   2 123189. 3134.28   6
  -1   2  -2 116400. 3169.63   3
  -1   2  -3 719.171 80.8501   4
  -1   2  -3 551.243 77.9191   2
  -1   2  -3 501.707 61.7688   3
   1  -2   3 681.239 59.5213   6
  -1   2  -3 591.516 50.2975   6
  -1   2  -4 2006.25 149.004   4
  -1   2  -4 1844.06 132.820   2
   1  -2   4 2001.00 118.049   6
  -1   2  -5 380.783 62.8013   2
  -1   2  -5 388.923 72.0430   4
   1  -2   5 550.467 80.4220   6
  -1   2  -6 5210.21 251.610   2
   1  -2   6 5323.80 266.282   6
   1  -2   7 3674.69 235.599   6
  -1   2  -7 3610.37 200.624   2
  -1   2  -8 22167.0 732.393   2
   1  -2   8 23572.1 831.723   6
  -1   2  -9 21587.0 712.399   2
   1  -2   9 23755.0 857.295   6
  -1   2 -10 28527.2 888.792   2
   1  -2  10 31656.9 1087.76   6
   1  -2  11 12473.8 616.704   6
   1  -2  12-94.1120 102.143   6
   1  -2  13 9087.04 557.541   5
   1  -2  14 14355.8 760.529   5
   1  -2  15 5935.97 477.831   5
   1  -2  16 447.110 149.768   5
   1  -2  17-102.629 112.755   5
   1  -2  18 1125.64 239.034   5
   1  -2  19 36.0034 104.697   5
  -1   1  17 485.904 155.896   5
  -1   1  16 2979.29 350.148   5
  -1   1  15 8913.26 608.293   5
  -1   1  14 2320.58 282.705   5
  -1   1  13 183.799 121.859   5
  -1   1  12 3487.14 324.709   5
  -1   1  11 14205.4 697.682   5
  -1   1  10 17.2192 86.4883   5
  -1   1   9 518.382 37.6517   2
  -1   1   9 871.003 153.272   5
  -1   1   8 889.151 143.877   5
  -1   1   8 625.993 116.247   6
  -1   1   8 698.383 55.9616   2
  -1   1   7 383.240 44.3238   2
  -1   1   7 449.148 101.400   6
  -1   1   7 384.003 100.197   5
  -1   1   6 8508.41 406.140   6
  -1   1   6 7967.86 293.790   2
  -1   1   5 220879. 6013.04   6
  -1   1   4 55850.4 1642.53   6
  -1   1   3 89081.5 2481.70   6
  -1   1   2 137412. 3760.21   1
  -1   1   2 139428. 3746.98   6
   1  -1  -1 47512.7 1367.82   6
  -1   1   1 48878.1 1360.46   6
  -1   1   1 49310.6 1384.63   1
  -1   1   1 49545.3 1350.91   5
   1  -1   0 17459.6 514.909   6
  -1   1   0 17122.1 519.785   7
   1  -1   0 18424.8 526.037   7
  -1   1   0 18289.7 561.430   1
  -1   1   0 18156.5 504.005   5
  -1   1  -1 999999. 25631.2   3
   1  -1   1 942854. 25646.4   3
  -1   1  -2 177049. 4734.08   3
  -1   1  -2 177088. 4753.45   4
  -1   1  -3 37436.3 1129.36   4
   1  -1   3 39233.6 1077.95   6
  -1   1  -3 38590.1 1119.25   3
  -1   1  -3 38544.1 1076.22   6
   1  -1   4 38375.9 1100.70   6
  -1   1  -4 37998.9 1139.76   3
   1  -1   5 82914.9 2311.94   6
   1  -1   6 82070.1 2327.61   6
   1  -1   7 25836.4 852.952   6
  -1   1  -7 24666.4 754.194   2
   1  -1   8 24800.4 858.197   6
  -1   1  -8 23404.2 714.460   2
  -1   1  -9 3275.18 151.868   2
   1  -1   9 4057.31 272.902   6
   1  -1  10 1454.79 191.539   5
  -1   1 -10 872.366 56.1091   2
   1  -1  10 1145.78 160.283   6
   1  -1  11 18000.2 773.369   5
   1  -1  12 28870.0 1123.12   5
   1  -1  13 1334.81 209.400   5
   1  -1  14 145.010 90.5011   5
   1  -1  15 112.145 105.368   5
   1  -1  16 120.471 91.9237   5
   1  -1  17 2264.35 318.824   5
   1  -1  18 134.914 115.198   5
   1  -1  19 719.198 207.158   5
  -1   0  17 1463.46 264.128   5
  -1   0  16 45.4471 92.6502   5
  -1   0  15 121.370 127.043   5
  -1   0  14 2049.00 268.379   5
  -1   0  13 1553.56 224.206   5
  -1   0  12 4686.21 384.612   6
  -1   0  12 4496.00 375.062   5
  -1   0  11 14977.2 733.772   6
  -1   0  10 49436.1 1674.68   6
  -1   0   9 73475.6 2275.93   6
  -1   0   8 4744.07 318.645   6
  -1   0   7 8786.06 437.851   6
  -1   0   6 10713.7 481.640   6
  -1   0   5 5771.55 306.947   6
  -1   0   4 7050.05 317.909   6
  -1   0   3 11352.2 413.718   6
  -1   0   2 14336.6 469.760   6
   1   0  -1 197541. 5419.32   6
  -1   0   1 209727. 5420.88   6
   1   0   0 93737.9 2623.95   6
  -1   0   0 106102. 2656.28   1
   1   0   1 133881. 3746.10   3
  -1   0  -1 126375. 3727.84   4
   1   0   2 3300.29 167.865   3
  -1   0  -2 4396.40 170.028   3
   1   0   2 3608.97 138.636   5
  -1   0  -2 3484.34 136.698   5
   1   0   3 16900.9 532.150   5
  -1   0  -3 16389.5 536.653   5
  -1   0  -4 3149.68 174.532   3
   1   0   4 2847.20 156.564   5
   1   0   5 19874.9 654.313   5
   1   0   6 43023.0 1303.84   5
   1   0   7 14807.3 569.039   5
   1   0   8 26149.0 916.588   5
   1   0   9 47990.4 1532.14   5
   1   0  10 35603.4 1233.84   5
   1   0  11 70548.5 2211.30   5
   1   0  12-18.6201 84.7431   5
   1   0  13 2858.32 293.904   5
   1   0  14 4433.34 380.100   5
   1   0  15 2224.56 286.502   5
   1   0  16 594.885 164.526   5
   1   0  17 451.729 156.980   5
   1   0  18 163.922 82.2403   5
   1   0  19 2811.74 382.286   5
  -1  -1  17 1642.79 286.741   5
  -1  -1  16 1455.87 263.731   5
  -1  -1  15 2651.98 312.698   5
  -1  -1  14 8410.48 584.187   5
  -1  -1  14 8423.92 582.067   6
  -1  -1  13 390.531 152.838   6
  -1  -1  12 1027.64 192.855   6
  -1  -1  11 31363.2 1232.66   6
  -1  -1  10 17537.1 783.273   6
  -1  -1   9 1309.51 182.528   6
  -1  -1   8 948.238 146.986   6
  -1  -1   7 17403.8 528.765   2
  -1  -1   7 22828.0 756.241   6
  -1  -1   6 97666.4 2542.79   6
  -1  -1   6 84512.3 2359.76   2
  -1  -1   5 9351.26 425.180   6
  -1  -1   4 17560.1 614.301   6
  -1  -1   3 106738. 2946.71   6
  -1  -1   2 101.098 47.8835   6
  -1  -1   1 381213. 10095.5   6
  -1  -1   0 182638. 5036.54   7
  -1  -1   0 185697. 5054.31   5
  -1  -1  -1 178705. 4728.72   5
  -1  -1  -1 181123. 4714.75   3
   1   1   1 184272. 4725.39   5
   1   1   2 692584. 18265.5   5
  -1  -1  -2 663025. 18272.0   5
   1   1   2 645179. 18263.7   3
   1   1   3 50512.5 1517.98   5
  -1  -1  -3 57203.0 1521.43   3
  -1  -1  -4 2586.07 160.114   3
   1   1   4 2265.61 146.776   5
   1   1   5 797.687 95.9254   5
   1   1   6 48504.2 1458.99   5
  -1  -1  -7 7473.63 272.854   2
   1   1   7 9125.61 392.860   5
   1   1   8 15706.0 570.745   5
  -1  -1  -8 11799.9 387.071   2
   1   1   9 23556.2 748.749   5
  -1  -1  -9 15562.1 470.453   2
   1   1  10 10694.0 525.232   5
   1   1  11 53328.2 1756.29   5
   1   1  12 462.030 120.514   5
   1   1  13 695.251 150.286   5
   1   1  14-113.713 91.1210   5
   1   1  15 1148.64 212.552   5
   1   1  16 1519.14 253.064   5
   1   1  17 1518.28 261.712   5
   1   1  18 62.4897 106.463   5
  -1  -2  17 3582.64 426.229   5
  -1  -2  16 1334.84 234.619   6
  -1  -2  16 1796.20 298.098   5
  -1  -2  15-88.0083 95.3807   6
  -1  -2  14 2179.80 299.754   6
  -1  -2  13 1108.33 213.830   6
  -1  -2  12 248.840 148.308   6
  -1  -2  11 6942.52 466.306   6
  -1  -2  10 532.757 154.850   6
  -1  -2   9 16841.1 753.654   6
  -1  -2   8 3049.82 258.296   6
  -1  -2   7 1931.19 191.206   6
  -1  -2   6 134.929 89.2110   6
  -1  -2   5 61778.2 1838.24   6
  -1  -2   4 27124.7 886.915   6
  -1  -2   3 22814.7 744.248   6
  -1  -2   2 29053.0 893.933   6
  -1  -2   1 150656. 4242.67   6
   1   2  -1 163954. 4246.30   7
   1   2   0 8926.60 328.349   7
   1   2   0 9040.78 326.873   5
  -1  -2  -1 528149. 14065.2   3
   1   2   1 543843. 14118.4   5
   1   2   2 14668.9 506.432   3
  -1  -2  -2 18245.9 515.319   3
   1   2   2 16936.1 547.556   5
   1   2   3 20406.2 676.882   5
  -1  -2  -3 20881.6 644.652   3
   1   2   4 18711.2 648.340   5
   1   2   5 8427.56 371.933   5
   1   2   6 24019.4 828.628   5
   1   2   7 65826.8 1972.50   5
   1   2   8 20624.4 787.356   5
   1   2   9 846.197 129.629   5
   1   2  10 12451.2 595.557   5
   1   2  11 36632.9 1320.90   5
   1   2  12 202.795 104.656   5
   1   2  13 372.896 126.750   5
   1   2  14 2078.47 268.029   5
   1   2  15 432.690 112.252   5
   1   2  16 1528.29 245.004   5
   1   2  17 1369.40 252.075   5
   1   2  18 78.5112 87.4206   5
  -1  -3  17 228.697 158.866   5
  -1  -3  17-31.5172 102.468   6
  -1  -3  16 953.381 213.773   6
  -1  -3  15 1808.66 287.516   6
  -1  -3  14 7494.41 573.028   6
  -1  -3  13 5491.50 456.426   6
  -1  -3  12 62.3980 105.656   6
  -1  -3  11 6839.23 471.687   6
  -1  -3  10 1328.52 201.701   6
  -1  -3   9 3695.87 308.894   6
  -1  -3   8 3503.08 293.487   6
  -1  -3   7 12575.2 574.872   6
  -1  -3   6-47.6669 80.8286   6
  -1  -3   5 148.229 81.3375   6
  -1  -3   4-24.6069 55.0477   6
   1   3  -3 39827.2 1206.28   7
   1   3  -3 38705.2 1110.92   4
  -1  -3   3 38367.0 1198.63   6
   1   3  -2 43460.6 1295.50   7
  -1  -3   2 42217.9 1291.28   6
   1   3  -2 42714.9 1185.49   4
   1   3  -1 635.932 84.4145   7
  -1  -3   1 386.427 63.9108   6
   1   3   0 41380.8 1228.98   7
   1   3   0 40008.0 1205.91   5
  -1  -3  -1 37679.9 1039.64   3
   1   3   1 35629.1 1112.34   5
   1   3   2 2028.66 110.603   3
  -1  -3  -2 2482.50 103.566   1
  -1  -3  -2 2876.59 125.667   3
   1   3   2 2980.50 180.674   5
  -1  -3  -3 3652.58 171.300   3
   1   3   3 3234.97 202.616   5
   1   3   3 3414.44 132.155   1
   1   3   4 32262.0 924.021   1
   1   3   4 32912.1 1049.39   5
   1   3   5 6002.54 318.182   5
   1   3   6 4690.51 288.879   5
   1   3   7 86982.5 2564.06   5
   1   3   8 1896.58 193.083   5
   1   3   9 9536.10 501.741   5
   1   3  10 229.940 79.6684   5
   1   3  11 4882.54 365.123   5
   1   3  12 11485.4 627.004   5
   1   3  13 1475.21 219.879   5
   1   3  14 376.279 136.496   5
   1   3  15 354.864 133.185   5
   1   3  16 313.429 130.468   5
   1   3  17 414.074 143.432   5
   1   3  18 43.6540 84.6589   5
  -1  -4  17 3495.70 425.103   6
  -1  -4  16 52.7309 86.1727   6
  -1  -4  15 180.023 98.7793   6
  -1  -4  14 538.556 182.151   6
  -1  -4  13 227.342 143.817   6
  -1  -4  12 7035.13 520.818   6
  -1  -4  11 1604.78 233.829   6
  -1  -4  10-8.03641 109.388   6
  -1  -4   9 2383.87 268.813   6
  -1  -4   8 1155.34 186.694   6
  -1  -4   7 480.342 129.091   6
  -1  -4   6 2492.75 220.153   6
   1   4  -5 8247.46 347.519   4
  -1  -4   5 8596.69 419.437   6
   1   4  -4 53114.0 1509.71   4
  -1  -4   4 52122.7 1614.66   6
   1   4  -4 51224.1 1621.94   7
   1   4  -3 1864.70 166.593   7
  -1  -4   3 1958.79 168.179   6
   1   4  -3 1701.47 157.854   2
   1   4  -3 1772.61 111.636   4
   1   4  -2 177.803 56.4638   7
   1   4  -2 211.253 65.0390   2
  -1  -4   2 155.297 58.3659   6
   1   4  -1 75377.5 2138.05   7
   1   4  -1 76007.4 2126.59   2
  -1  -4   1 72870.4 2116.23   6
  -1  -4   1 70629.3 1996.11   4
   1   4   0 153.463 56.1852   5
   1   4   0 132.454 55.9536   2
   1   4   0 132.467 44.9536   7
  -1  -4   0 111.684 23.0249   3
   1   4   1 8489.56 373.559   2
  -1  -4  -1 7702.23 253.040   3
   1   4   1 7870.23 357.226   5
   1   4   2 20232.7 681.724   2
   1   4   2 20455.0 679.383   5
  -1  -4  -2 17019.4 563.676   1
   1   4   3 3134.31 214.522   2
   1   4   3 3321.17 222.625   5
   1   4   4 8330.91 299.632   1
   1   4   4 8718.40 406.869   5
   1   4   4 8881.97 393.528   2
   1   4   5 30490.5 910.777   1
   1   4   5 30917.3 1048.66   5
   1   4   6 26164.9 928.931   5
   1   4   6 25058.3 795.562   1
   1   4   7 2473.26 224.243   5
   1   4   8 2223.46 223.567   5
   1   4   9 3285.92 283.269   5
   1   4  10 66077.9 2136.17   5
   1   4  11 558.011 127.581   5
   1   4  12 845.151 163.262   5
   1   4  13-4.36052 97.9944   5
   1   4  14 317.739 120.790   5
   1   4  15-22.0656 75.0577   5
   1   4  16 2079.69 307.011   5
   1   4  17 3906.60 432.417   5
  -1  -5  17 1136.10 264.490   6
  -1  -5  16 115.622 120.372   6
  -1  -5  15 87.6923 123.257   6
  -1  -5  14 624.005 195.969   6
  -1  -5  13 4721.69 447.006   6
  -1  -5  12 124.906 108.909   6
  -1  -5  11 1075.39 184.635   6
   1   5 -10 391.406 91.1230   4
  -1  -5  10 429.443 141.632   6
  -1  -5   9 517.504 164.709   6
   1   5  -9 54.9177 51.3007   4
   1   5  -8 1454.66 154.125   4
  -1  -5   8 1582.05 218.313   6
  -1  -5   7 5205.66 358.587   6
   1   5  -7 4629.17 278.243   4
   1   5  -6 7536.03 435.147   7
  -1  -5   6 8099.07 441.358   6
   1   5  -6 7032.93 342.988   4
   1   5  -5 22865.3 776.400   4
  -1  -5   5 24394.0 891.497   6
   1   5  -5 24072.2 906.182   7
   1   5  -4 35355.6 1231.08   7
  -1  -5   4 35865.4 1215.78   6
   1   5  -4 36968.6 1207.58   2
   1   5  -4 36269.1 1098.44   4
  -1  -5   3 36318.8 1186.31   6
   1   5  -3 34403.5 1162.45   2
   1   5  -3 33839.5 1178.57   7
   1   5  -2 28061.6 1003.22   7
  -1  -5   2 28034.1 980.273   6
   1   5  -2 29141.5 991.044   2
   1   5  -1 8597.38 427.643   7
  -1  -5   1 8908.20 422.337   6
   1   5  -1 9108.05 435.836   2
   1   5   0 45755.1 1401.02   2
   1   5   0 41802.2 1355.88   5
   1   5   1 171.537 55.8370   5
   1   5   1 104.073 61.9598   2
   1   5   2 185.618 63.5984   5
   1   5   2 258.080 73.3101   2
   1   5   3 1130.17 134.845   2
   1   5   3 1044.95 124.383   5
   1   5   3 746.191 61.2939   3
   1   5   4 242.277 83.3040   5
   1   5   4 118.368 58.4987   2
   1   5   5 18509.9 598.225   1
   1   5   5 18041.9 709.301   2
   1   5   5 18394.6 732.731   5
   1   5   6 302.797 96.8018   5
   1   5   6 303.789 55.5186   1
   1   5   7 11832.4 454.208   1
   1   5   7 12056.5 586.972   5
   1   5   8 24752.5 958.393   5
   1   5   8 22830.6 790.557   1
   1   5   9 14.6934 63.7807   5
   1   5   9 12.0100 33.5951   1
   1   5  10 251.477 106.260   5
   1   5  10 16.2101 52.5092   1
   1   5  11 1949.73 183.902   1
   1   5  11 2003.06 241.912   5
   1   5  12 2220.83 268.941   5
   1   5  13 3794.64 374.626   5
   1   5  14 800.644 183.690   5
   1   5  15 4332.03 435.583   5
   1   5  16 2941.96 362.722   5
   1   5  17 1992.26 320.084   5
  -1  -6  16 304.644 152.189   6
  -1  -6  15-2.30697 93.3604   6
  -1  -6  14 3370.74 398.271   6
  -1  -6  13 11.4285 108.888   6
  -1  -6  12 3612.22 382.617   6
  -1  -6  11 2149.17 285.005   6
  -1  -6  10 521.701 150.263   6
   1   6 -10 521.658 109.475   4
  -1  -6   9-48.4336 104.567   6
   1   6  -9-63.2778 80.6445   7
   1   6  -9 1.78008 32.5249   4
  -1  -6   8 3572.09 328.393   6
   1   6  -8 2781.14 224.098   4
   1   6  -8 3306.34 311.270   7
   1   6  -7 332.569 115.631   7
  -1  -6   7 374.544 134.671   6
   1   6  -7 300.243 70.4348   4
  -1  -6   6 1773.04 223.351   6
   1   6  -6 1750.97 154.782   4
   1   6  -6 1959.76 226.401   7
  -1  -6   5 70.0890 99.9236   6
   1   6  -5 143.552 80.6873   2
   1   6  -5 79.0883 82.9060   7
  -1  -6   4 560.082 142.543   6
   1   6  -4 528.799 114.013   7
   1   6  -4 423.079 91.7301   2
  -1  -6   3 112.876 82.0026   6
   1   6  -3 94.8227 67.0046   7
   1   6  -3 103.079 73.7916   2
   1   6  -2 83.7204 63.7604   7
   1   6  -2-15.7232 67.7719   2
  -1  -6   2 72.9705 57.0232   6
   1   6  -1 12075.7 564.319   2
  -1  -6   1 12757.7 569.660   6
   1   6  -1 11721.2 566.653   7
   1   6   0 21788.3 827.373   2
   1   6   0 20599.2 785.930   5
   1   6   1 7797.29 416.752   2
   1   6   1 7448.19 394.946   5
   1   6   2 3065.53 238.313   5
   1   6   2 2906.62 244.590   2
   1   6   3 27078.9 988.493   5
   1   6   3 28192.0 1011.19   2
   1   6   4 3031.20 252.899   2
   1   6   4 3204.04 260.890   5
   1   6   5 15752.1 689.619   5
   1   6   5 15895.9 682.111   2
   1   6   6 27909.0 972.193   1
   1   6   6 35269.5 1157.67   5
   1   6   7 19734.7 687.523   1
   1   6   7 21171.1 865.861   5
   1   6   8 19306.2 824.121   5
   1   6   8 17246.5 641.669   1
   1   6   9 3324.67 313.451   5
   1   6  10 9839.92 589.534   5
   1   6  11 5352.35 432.454   5
   1   6  12 14.1240 70.4146   5
   1   6  13 927.517 181.560   5
   1   6  14 1113.09 211.709   5
   1   6  15 2097.00 312.154   5
   1   6  16 218.334 131.395   5
  -1  -7  16 26.9221 76.7729   6
  -1  -7  15 590.246 203.354   6
  -1  -7  14 197.183 151.305   6
   1   7 -14 242.303 104.616   7
  -1  -7  13 50.9366 114.502   6
   1   7 -13 31.9722 117.719   7
   1   7 -12 994.046 198.202   7
  -1  -7  12 1285.97 244.200   6
  -1  -7  11 39.1172 125.011   6
   1   7 -11 203.419 111.545   7
  -1  -7  10 1406.91 238.105   6
   1   7 -10 1359.81 231.791   7
  -1  -7   9 407.518 163.838   6
   1   7  -9 171.142 90.2063   7
   1   7  -8 2208.15 270.274   7
  -1  -7   8 2769.75 300.698   6
   1   7  -7 22219.9 1001.86   7
  -1  -7   7 24230.1 1010.64   6
   1   7  -6 2023.53 244.383   7
  -1  -7   6 2265.47 260.702   6
  -1  -7   5 14421.2 699.482   6
   1   7  -5 14129.1 674.317   2
   1   7  -5 14481.2 714.748   7
  -1  -7   4 5704.26 395.252   6
   1   7  -4 5366.39 391.446   7
   1   7  -4 5416.10 372.131   2
  -1  -7   3 19662.0 821.683   6
   1   7  -3 17956.8 787.419   2
   1   7  -3 17665.6 805.195   7
  -1  -7   2 55099.8 1770.09   6
   1   7  -2 51446.6 1776.29   7
   1   7  -2 54187.2 1769.28   2
   1   7  -1 548.747 131.031   2
  -1  -7   1 536.690 117.020   6
   1   7   0 14947.0 662.506   5
   1   7   0 15971.2 707.039   2
   1   7   1 405.054 117.932   2
   1   7   1 310.837 103.558   5
   1   7   2 612.574 122.287   2
   1   7   2 530.520 111.732   5
   1   7   3 47.4850 56.8526   5
   1   7   3 34.1568 58.7772   2
   1   7   4 2603.14 247.770   5
   1   7   4 3008.39 267.225   2
   1   7   5 139.454 75.2209   5
   1   7   5 179.988 78.4938   2
   1   7   6 274.385 77.3482   5
   1   7   7 5613.08 403.421   5
   1   7   8 1542.26 211.389   5
   1   7   9 1908.00 245.273   5
   1   7  10 55.2446 68.9842   5
   1   7  11 4165.00 384.840   5
   1   7  12 3711.80 381.813   5
   1   7  13 6006.98 511.615   5
   1   7  14 251.288 120.548   5
   1   7  15 890.813 211.365   5
  -1  -8  14 480.576 193.813   6
  -1  -8  13 359.561 153.707   6
   1   8 -13 478.409 182.633   7
  -1  -8  12 269.727 154.283   6
   1   8 -12 169.730 122.313   7
   1   8 -11 133.775 107.177   7
  -1  -8  11-219.293 136.199   6
   1   8 -10 4049.89 418.029   7
  -1  -8  10 4068.99 416.484   6
   1   8  -9 2280.30 290.639   7
  -1  -8   9 2398.65 318.643   6
   1   8  -8 936.496 192.711   7
  -1  -8   8 753.825 163.409   6
   1   8  -7 363.492 139.983   7
  -1  -8   7 479.973 155.861   6
   1   8  -6 3272.44 332.260   7
  -1  -8   6 3586.59 343.259   6
  -1  -8   5-53.1200 76.3277   6
   1   8  -5 52.4599 80.9154   7
   1   8  -4 614.448 155.693   7
   1   8  -4 733.908 149.210   2
  -1  -8   4 856.993 162.606   6
  -1  -8   3 2206.55 253.674   6
   1   8  -3 1753.01 221.126   2
   1   8  -3 1873.06 237.272   7
   1   8  -2 141.346 90.3871   2
   1   8  -2 104.229 100.477   7
  -1  -8   2-64.7520 74.8145   6
  -1  -8   1 3240.14 296.755   6
   1   8  -1 2845.68 283.325   2
   1   8   0 5893.76 419.530   2
  -1  -8   0 6214.40 434.059   6
   1   8   1 10716.4 579.308   2
   1   8   1 9958.67 535.946   5
   1   8   2 2298.39 244.758   2
   1   8   2 1971.76 220.452   5
   1   8   3 11147.6 598.073   2
   1   8   3 10325.8 561.833   5
   1   8   4 7881.00 490.316   2
   1   8   4 7164.57 459.015   5
   1   8   5 1664.78 215.820   5
   1   8   5 2039.59 245.332   2
   1   8   6 4387.72 361.758   5
   1   8   7 536.642 137.720   5
   1   8   8 5367.09 424.544   5
   1   8   9 536.211 144.567   5
   1   8  10 2669.29 312.798   5
   1   8  11 959.182 204.007   5
   1   8  12 1574.97 261.233   5
   1   8  13 1140.55 229.185   5
   1   8  14 613.531 167.901   5
  -1  -9  11 208.531 149.442   6
   1   9 -11 51.1502 98.0092   7
   1   9 -10 153.265 106.799   7
  -1  -9  10 59.8525 110.237   6
   1   9  -9 456.551 150.831   7
  -1  -9   9 126.629 105.949   6
  -1  -9   8 90.5335 112.055   6
   1   9  -8 86.3076 109.520   7
   1   9  -7 9914.68 665.236   7
  -1  -9   7 9912.30 644.103   6
   1   9  -6 2317.52 294.810   7
  -1  -9   6 2429.41 297.952   6
   1   9  -5 1262.23 222.321   7
  -1  -9   5 1374.78 220.920   6
   1   9  -4 2452.41 279.065   2
  -1  -9   4 2430.93 294.965   6
   1   9  -4 2140.72 281.564   7
   1   9  -3 1192.15 200.106   7
   1   9  -3 1083.79 187.694   2
  -1  -9   3 1495.35 237.529   6
   1   9  -2 18670.5 887.730   2
  -1  -9   2 19218.2 909.247   6
   1   9  -1 822.628 157.594   2
  -1  -9   1 1033.41 189.316   6
   1   9   0 78.0968 78.9773   2
  -1  -9   0-50.3414 84.2807   6
   1   9   1 579.239 132.951   5
   1   9   1 710.677 156.774   2
   1   9   2 2297.62 267.760   2
   1   9   2 2001.19 231.884   5
   1   9   3 3983.51 341.947   5
   1   9   3 4249.43 371.045   2
   1   9   4 496.608 114.780   5
   1   9   4 502.728 153.966   2
   1   9   5 342.944 131.030   5
   1   9   6 25.3240 80.4446   5
   1   9   7 224.232 92.8439   5
   1   9   8 961.558 191.412   5
   1   9   9 150.532 80.2114   5
   1   9  10 158.900 100.771   5
   1   9  11 257.306 119.740   5
   1   9  12 304.347 141.037   5
   1  10  -9 3379.55 424.692   7
  -1 -10   8 2759.67 356.204   6
   1  10  -8 3336.76 400.002   7
  -1 -10   7 157.980 121.504   6
   1  10  -7 209.849 130.256   7
   1  10  -6 880.535 207.922   7
  -1 -10   6 842.460 205.627   6
  -1 -10   5 1457.88 254.634   6
   1  10  -5 1440.86 253.446   7
  -1 -10   4-73.0729 106.212   6
  -1 -10   3 236.837 117.382   6
   1  10  -2-22.5505 70.4697   2
  -1 -10   2-85.7208 99.4618   6
   1  10  -1 354.131 131.922   2
  -1 -10   1 244.449 106.824   6
  -1 -10   0 468.215 135.697   6
   1  10   0 750.625 170.102   2
   1  10   1 212.526 132.108   2
  -1 -10  -1 61.6670 64.6515   6
   1  10   2 308.805 128.172   2
   1  10   2 136.012 65.8188   5
   1  10   3-99.8905 88.0332   5
   1  10   4 1843.10 248.583   5
   1  10   5 449.044 131.322   5
   1  10   6-14.0191 55.8784   5
   1  10   7 32.8359 62.7685   5
   1  10   8 402.070 147.011   5
   1  10   9 74.4786 63.5773   5
   1  10  10 1781.04 276.176   5
   1  10  11 221.480 136.023   5
   1  11  -6 794.977 191.840   7
  -1 -11   4 721.576 192.027   6
  -1 -11   3-35.6505 74.9414   6
  -1 -11   2 707.505 187.726   6
  -1 -11   1 1156.91 229.455   6
  -1 -11   0 204.001 110.264   6
  -1 -11  -1-70.8425 76.6247   6
  -1 -11  -2 9.29025 65.2838   6
   1  11   3 2389.21 292.077   5
   1  11   4 2930.47 325.393   5
   1  11   5 11.2623 78.5791   5
   1  11   6 101.389 91.9846   5
   1  11   7 350.917 129.884   5
   1  11   8 241.140 108.468   5
  -1 -12   0 209.852 114.941   6
  -1 -12  -1-40.7196 88.5655   6
  -1 -12  -2 778.189 198.784   6
  -1 -12  -3 202.099 126.229   6
   1  12   4 157.380 92.0572   5
   1  12   5 114.912 89.3038   5
  -2  10   7 1487.10 250.266   2
  -2  10   6 124.406 82.7126   2
  -2  10   5 206.357 101.269   2
  -2  10   4 1193.79 231.366   2
  -2  10   3 526.127 164.197   2
  -2  10   2 712.698 189.226   2
  -2  10   1-9.12145 81.4752   2
  -2  10   0 948.765 208.380   2
  -2  10  -1 468.002 164.233   2
  -2  10  -2 453.462 167.636   2
  -2  10  -3 1198.25 230.940   2
  -2  10  -4 1126.13 226.851   2
  -2  10  -5-112.693 104.201   2
  -2  10  -6 61.8198 77.0050   7
  -2  10  -6 195.620 83.6796   2
  -2  10  -7 545.917 170.505   7
  -2  10  -7 959.907 213.506   2
  -2  10  -8 574.396 156.599   2
  -2  10  -8 218.474 119.598   7
  -2  10  -9 438.691 148.175   7
  -2  10  -9 493.844 154.375   2
  -2   9   8 355.836 124.028   2
  -2   9   7 95.9498 75.3749   2
  -2   9   6 355.355 109.139   2
  -2   9   5 181.004 126.704   2
  -2   9   4 256.060 132.957   2
  -2   9   3 307.305 124.067   2
  -2   9   2 1826.45 272.115   2
  -2   9   1 1789.05 258.490   2
  -2   9   0 833.577 177.384   2
  -2   9  -1 326.570 118.487   2
  -2   9  -2 1949.30 264.008   2
  -2   9  -3 1270.84 208.370   2
  -2   9  -4 1488.37 231.567   2
  -2   9  -5 652.977 156.315   2
  -2   9  -5 922.819 194.818   7
  -2   9  -6 345.628 121.105   2
  -2   9  -6 188.964 109.325   7
  -2   9  -7 2469.57 303.805   2
  -2   9  -7 2228.57 313.651   7
  -2   9  -8 954.327 197.153   2
  -2   9  -8 807.087 195.631   7
  -2   9  -9 229.505 91.7479   2
  -2   9  -9 329.284 116.275   7
  -2   9 -10-112.136 86.4007   2
  -2   9 -10-4.27760 88.7810   7
  -2   9 -11 204.542 139.533   7
  -2   8  12 53.2125 66.6134   5
  -2   8  11 307.096 118.346   5
  -2   8  10 1155.22 202.173   5
  -2   8   9 2308.33 280.268   5
  -2   8   8 457.318 124.353   5
  -2   8   8 483.895 130.687   2
  -2   8   8 222.571 98.9948   1
  -2   8   7 46.5253 63.0670   5
  -2   8   7 164.064 76.2377   2
  -2   8   6 3380.87 341.379   2
  -2   8   5 1322.00 204.759   2
  -2   8   4 2254.14 266.694   2
  -2   8   3 782.695 153.891   2
  -2   8   2 7299.70 500.447   2
  -2   8   1 828.740 176.128   2
  -2   8   0 1821.97 236.600   2
  -2   8  -1 10796.6 620.771   2
  -2   8  -2 5650.80 429.312   2
  -2   8  -3 33.6674 67.1604   2
  -2   8  -4 587.321 132.480   2
  -2   8  -4 430.357 117.266   7
  -2   8  -5 117.122 85.1894   7
  -2   8  -5-46.2599 83.3499   2
  -2   8  -6 258.232 111.073   2
  -2   8  -6 177.935 93.6283   7
  -2   8  -7 1480.85 218.534   2
  -2   8  -7 1128.76 207.240   7
  -2   8  -8 1196.91 205.615   2
  -2   8  -8 1222.31 224.334   7
  -2   8  -9 313.687 117.458   2
  -2   8  -9 235.545 95.6005   7
  -2   8 -10 411.301 109.973   2
  -2   8 -10 607.781 180.304   7
  -2   8 -11-46.0485 70.4957   7
  -2   8 -12 82.3543 80.7386   7
  -2   8 -13 53.3328 81.4540   7
  -2   7  13 618.839 178.551   5
  -2   7  12 909.346 197.571   5
  -2   7  11 4632.33 428.036   5
  -2   7  10 79.4776 60.5702   5
  -2   7  10 101.178 75.3770   1
  -2   7   9 1078.86 171.524   1
  -2   7   9 1033.43 179.940   5
  -2   7   8 16.3881 48.0595   2
  -2   7   8 113.326 70.8468   5
  -2   7   8-30.9243 51.8000   1
  -2   7   7 863.855 159.611   2
  -2   7   7 793.889 153.483   5
  -2   7   7 906.242 168.034   1
  -2   7   6 313.106 89.0519   2
  -2   7   6 417.902 106.975   5
  -2   7   6 530.016 123.533   1
  -2   7   5 1383.31 193.448   2
  -2   7   5 1072.39 157.023   5
  -2   7   5 558.455 167.267   1
  -2   7   4 3188.58 260.387   5
  -2   7   4 3575.52 322.476   2
  -2   7   3 6928.01 457.775   2
  -2   7   3 6070.80 362.386   5
  -2   7   2 368.893 113.255   2
  -2   7   2 236.922 64.6984   5
  -2   7   1 57.3582 32.8969   5
  -2   7   1-19.3346 102.606   2
  -2   7   0 10732.7 571.749   2
  -2   7   0 8652.58 412.161   5
  -2   7  -1 1951.50 227.124   2
  -2   7  -2-15.6255 77.9672   2
  -2   7  -3 9953.57 572.351   7
  -2   7  -3 10821.6 592.076   2
  -2   7  -4 555.848 130.699   7
  -2   7  -4 482.967 118.175   2
  -2   7  -5 5537.66 409.255   2
  -2   7  -5 5702.81 424.934   7
  -2   7  -6 1054.94 180.908   7
  -2   7  -6 1047.35 182.836   2
  -2   7  -7 879.559 177.288   7
  -2   7  -7 943.235 167.903   2
  -2   7  -8 3319.71 312.240   2
  -2   7  -8 3796.06 353.459   7
  -2   7  -9 31.1840 70.0163   2
  -2   7  -9-24.3923 70.0237   7
  -2   7 -10 1388.39 210.122   2
  -2   7 -10 1315.27 224.500   7
  -2   7 -11-80.3061 69.0824   2
  -2   7 -11 69.9430 69.4630   7
  -2   7 -12 81.9271 90.8672   7
  -2   7 -12 7.73238 57.0257   4
  -2   7 -13 949.831 220.272   7
  -2   7 -13 603.772 163.115   4
  -2   7 -14 195.607 125.086   7
  -2   7 -14 198.387 101.190   4
  -2   7 -15 431.053 141.514   4
  -2   6  14-35.8660 83.6841   5
  -2   6  13 97.8994 78.6030   5
  -2   6  13-9.49342 66.5593   1
  -2   6  12 357.089 135.749   1
  -2   6  12 239.647 119.880   5
  -2   6  11-14.8312 63.7210   1
  -2   6  11 1.50345 70.3789   5
  -2   6  10 151.087 82.8648   5
  -2   6  10 11.3859 62.0557   1
  -2   6   9 868.044 143.881   2
  -2   6   9 837.160 158.882   5
  -2   6   9 1012.88 175.905   1
  -2   6   8 1079.39 160.861   2
  -2   6   8 1021.89 171.404   5
  -2   6   8 838.693 156.925   1
  -2   6   7 817.630 146.036   2
  -2   6   7 599.653 134.004   1
  -2   6   7 631.433 122.323   5
  -2   6   6 2032.18 221.014   1
  -2   6   6 2088.37 222.751   5
  -2   6   6 2058.19 231.337   2
  -2   6   5 12967.5 613.494   1
  -2   6   5 11823.6 582.346   5
  -2   6   5 13323.2 645.205   2
  -2   6   4 2939.30 269.535   2
  -2   6   4 2275.48 210.716   5
  -2   6   4 2255.98 232.604   1
  -2   6   3 38.5217 38.6509   5
  -2   6   3 30.5047 50.8158   2
  -2   6   2 10869.0 549.707   2
  -2   6   2 9012.12 429.818   5
  -2   6   1 11709.4 569.529   2
  -2   6   1 10145.5 435.742   5
  -2   6   1 9468.16 370.780   3
  -2   6   0 37.1425 24.8733   3
  -2   6   0-45.1875 101.259   2
  -2   6   0-19.7143 26.2408   5
  -2   6  -1 19594.7 782.510   2
  -2   6  -1 16352.4 558.181   3
  -2   6  -2 831.664 83.7352   3
  -2   6  -2 982.575 149.894   7
   2  -6   2 846.383 105.683   6
  -2   6  -2 1081.30 165.262   2
  -2   6  -3 3477.52 286.877   7
  -2   6  -3 3436.50 294.022   2
   2  -6   3 3168.83 210.569   6
  -2   6  -4 197.288 69.2671   7
   2  -6   4 40.0693 39.6803   6
  -2   6  -4 43.6892 68.5804   2
  -2   6  -5 1834.05 214.911   7
  -2   6  -5 1683.19 213.409   2
  -2   6  -6 40.1262 58.2385   7
  -2   6  -6 33.1234 84.1867   2
  -2   6  -7 180.023 73.4118   2
  -2   6  -7 213.215 94.8602   7
  -2   6  -8 1743.79 227.195   7
  -2   6  -8 1672.56 209.592   2
  -2   6  -9 1685.34 240.168   7
  -2   6  -9 1466.19 187.750   2
  -2   6  -9 1534.46 209.341   4
  -2   6 -10 669.722 137.352   2
  -2   6 -10 969.855 192.808   7
  -2   6 -10 694.015 152.822   4
  -2   6 -11 248.594 79.4721   2
  -2   6 -11 360.082 115.546   4
  -2   6 -12 173.705 105.693   4
  -2   6 -13 1776.01 257.946   4
  -2   6 -14 256.144 122.552   4
  -2   6 -15 21.0462 95.4396   4
  -2   6 -16 87.0588 77.1674   4
  -2   5  15 2642.19 324.993   1
  -2   5  14 27.7400 65.0313   5
  -2   5  14 238.799 87.4794   1
  -2   5  13-89.0403 89.9755   5
  -2   5  13 107.545 99.3333   1
  -2   5  12 415.254 122.902   1
  -2   5  12 442.347 145.548   5
  -2   5  11 819.662 159.591   5
  -2   5  11 806.550 167.966   1
  -2   5  10 1133.65 191.163   5
  -2   5  10 870.398 157.396   1
  -2   5   9-20.2594 46.0438   2
  -2   5   9 83.8930 61.4779   1
  -2   5   9 139.990 90.2736   5
  -2   5   8 2252.80 217.442   2
  -2   5   8 2470.13 254.783   5
  -2   5   8 2450.48 248.022   1
  -2   5   7 3203.57 279.389   1
  -2   5   7 3142.90 261.361   2
  -2   5   7 2772.31 259.785   5
  -2   5   6 10134.1 526.026   1
  -2   5   6 9837.26 510.104   2
  -2   5   6 9814.55 510.962   5
  -2   5   5 22660.4 884.499   2
  -2   5   5 22419.1 857.469   5
  -2   5   5 21594.1 871.710   1
  -2   5   4 16379.3 697.890   1
  -2   5   4 16751.1 716.028   2
  -2   5   4 16421.0 667.738   5
  -2   5   3 13107.6 609.793   2
  -2   5   3 14132.5 603.993   1
  -2   5   3 13073.4 548.360   5
  -2   5   2 10571.8 528.210   1
  -2   5   2 10664.0 454.103   5
  -2   5   2 11661.8 541.998   2
  -2   5   1 15674.4 568.287   5
  -2   5   1 16715.1 684.035   2
  -2   5   1 14925.5 534.970   3
  -2   5   0-31.6840 28.4128   5
  -2   5   0 42.1529 73.8696   2
  -2   5   0-63.7009 34.1480   3
  -2   5  -1 63187.7 1900.60   2
  -2   5  -1 58665.7 1710.83   3
  -2   5  -1 60174.5 1714.58   5
   2  -5   2 13172.4 481.869   6
  -2   5  -2 13448.9 605.293   2
  -2   5  -2 12666.3 471.053   3
  -2   5  -2 13428.0 580.151   7
  -2   5  -3 3972.45 285.911   7
  -2   5  -3 4207.95 300.815   2
  -2   5  -3 3641.83 206.475   3
   2  -5   3 4209.47 212.992   6
  -2   5  -4 11668.1 550.870   2
  -2   5  -4 10797.8 529.181   7
   2  -5   4 10658.6 405.147   6
  -2   5  -4 10877.6 441.689   3
  -2   5  -5 5948.75 372.102   7
  -2   5  -5 6067.35 378.279   2
   2  -5   5 5969.67 280.491   6
   2  -5   6 4331.30 244.585   6
  -2   5  -6 4717.68 333.326   2
  -2   5  -6 4865.58 335.838   7
   2  -5   7 148.996 65.7866   6
  -2   5  -7 68.2560 58.2219   4
  -2   5  -7 79.9642 63.4365   7
  -2   5  -7 113.944 68.9291   2
  -2   5  -8 612.671 117.240   2
   2  -5   8 437.162 86.0704   6
  -2   5  -8 639.918 125.557   4
  -2   5  -9 3200.46 266.764   2
  -2   5  -9 3032.48 285.856   4
  -2   5 -10 4876.67 345.731   2
  -2   5 -10 5585.30 405.783   4
  -2   5 -11 7097.59 432.686   2
  -2   5 -11 8499.59 527.803   4
  -2   5 -12 2355.39 268.182   4
  -2   5 -13 5863.84 463.706   4
  -2   5 -14 144.457 101.863   4
  -2   5 -15 2107.79 291.277   4
  -2   5 -16 433.757 148.970   4
  -2   5 -17-95.2459 97.7542   4
  -2   4  16 117.770 98.8743   1
  -2   4  15 3837.31 416.693   5
  -2   4  15 4116.16 412.555   1
  -2   4  14 257.415 114.545   1
  -2   4  14 411.274 139.399   5
  -2   4  13 154.838 93.5829   5
  -2   4  13 258.688 89.1643   1
  -2   4  12 54.7103 90.4391   1
  -2   4  12-58.8722 68.0772   5
  -2   4  11 1688.52 221.051   1
  -2   4  11 1712.43 238.626   5
  -2   4  10 129.336 85.4567   1
  -2   4  10 288.509 108.902   5
  -2   4   9-50.9578 69.6048   5
  -2   4   9-68.2556 78.4450   1
  -2   4   9-8.01115 29.6010   2
  -2   4   8 4316.71 287.510   2
  -2   4   8 4648.66 335.566   1
  -2   4   8 4250.19 327.570   5
  -2   4   7 1708.24 191.183   5
  -2   4   7 1603.57 187.500   1
  -2   4   7 1922.78 185.682   2
  -2   4   6 402.346 89.4221   5
  -2   4   6 371.292 87.3166   2
  -2   4   6 382.566 102.431   1
  -2   4   5 4999.03 310.907   2
  -2   4   5 4528.27 293.139   5
  -2   4   5 5227.92 327.847   1
  -2   4   4 2519.64 205.736   5
  -2   4   4 2767.68 224.112   1
  -2   4   4 2288.04 207.329   2
  -2   4   3 136.391 54.1786   5
  -2   4   3 75.9428 52.6963   2
  -2   4   3 110.120 63.1439   1
  -2   4   2 1618.42 164.104   1
  -2   4   2 1472.57 162.424   2
  -2   4   2 1817.23 145.803   5
  -2   4   1 10681.3 475.098   1
  -2   4   1 10084.4 474.317   2
  -2   4   1 9904.79 392.263   5
  -2   4   0 2533.09 146.851   5
  -2   4   0 2435.82 152.100   3
  -2   4   0 2592.42 214.656   2
  -2   4  -1 3532.96 255.301   2
  -2   4  -1 3511.36 167.483   5
  -2   4  -1 3578.22 194.776   3
  -2   4  -1 3472.06 229.838   7
  -2   4  -2 14437.5 591.519   2
  -2   4  -2 13377.6 488.413   3
   2  -4   2 13565.4 456.463   6
  -2   4  -2 14494.8 564.858   7
  -2   4  -3 28935.2 984.200   7
  -2   4  -3 29317.7 1010.20   2
   2  -4   3 28799.8 849.571   6
  -2   4  -3 28719.3 916.219   3
   2  -4   4 7984.65 295.653   6
  -2   4  -4 8487.44 419.917   2
  -2   4  -4 8197.81 404.403   7
  -2   4  -4 7529.24 344.029   3
   2  -4   5 11360.5 407.419   6
  -2   4  -5 11150.7 522.751   2
  -2   4  -5 11381.7 520.044   7
  -2   4  -5 11616.8 474.277   3
  -2   4  -5 11728.3 534.455   4
  -2   4  -6 1626.46 176.829   4
  -2   4  -6 1773.91 181.029   2
   2  -4   6 1321.86 117.567   6
  -2   4  -7 9247.78 467.966   2
   2  -4   7 9058.00 396.500   6
  -2   4  -7 10275.7 501.000   4
  -2   4  -8-3.18767 51.0674   2
   2  -4   8 32.6689 55.9771   6
  -2   4  -8 67.1204 63.3021   4
  -2   4  -9 1013.21 160.074   4
   2  -4   9 907.342 133.180   6
  -2   4  -9 715.804 115.769   2
  -2   4 -10 5955.11 406.243   4
   2  -4  10 4927.54 324.167   6
  -2   4 -10 5013.97 327.096   2
   2  -4  11 953.081 144.635   6
  -2   4 -11 1245.39 196.120   4
  -2   4 -11 1221.60 150.949   2
  -2   4 -12 1615.80 225.552   4
   2  -4  12 1291.34 178.951   6
   2  -4  13 2814.41 290.384   5
  -2   4 -13 3026.97 318.247   4
  -2   4 -14 16.5562 59.5306   4
   2  -4  14-3.55081 68.7721   5
   2  -4  15 64.7389 85.2694   5
  -2   4 -15-1.09773 79.4337   4
  -2   4 -16 554.016 167.357   4
  -2   4 -17 514.964 157.039   4
  -2   3  16 936.614 213.497   5
  -2   3  15-57.1671 88.2522   5
  -2   3  14 1732.13 266.695   5
  -2   3  13 37.9681 76.2696   5
  -2   3  12 239.787 112.720   5
  -2   3  11 1099.56 171.045   5
  -2   3  10 1310.62 191.479   1
  -2   3  10 1186.75 177.685   5
  -2   3   9 3908.86 311.111   5
  -2   3   9 3758.47 242.268   2
  -2   3   9 4376.08 347.367   1
  -2   3   8 12977.7 605.594   1
  -2   3   8 12215.5 515.002   2
  -2   3   8 11776.9 581.889   5
  -2   3   7 30860.9 1045.38   2
  -2   3   7 33256.7 1146.09   1
  -2   3   7 30791.4 1107.80   5
  -2   3   6 8827.01 412.889   2
  -2   3   6 9109.49 459.270   1
  -2   3   6 8725.87 442.669   5
  -2   3   5 171011. 4704.00   2
  -2   3   5 169480. 4751.60   1
  -2   3   5 168890. 4706.41   5
  -2   3   4 3412.59 227.667   5
  -2   3   4 3083.27 226.326   1
  -2   3   4 3421.01 228.815   2
  -2   3   3 3847.38 251.988   2
  -2   3   3 3840.84 250.702   1
  -2   3   3 3953.83 226.815   5
  -2   3   2 22900.5 741.190   5
  -2   3   2 21962.5 797.367   1
  -2   3   1 225.234 46.5156   5
  -2   3   1 116.891 54.2575   1
  -2   3   0 70031.7 2086.66   1
  -2   3   0 71760.9 1964.43   5
  -2   3  -1 86943.4 2503.11   3
   2  -3   1 89978.5 2463.64   6
  -2   3  -1 94487.3 2546.52   7
  -2   3  -1 95272.6 2439.07   5
   2  -3   1 90500.6 2449.31   5
  -2   3  -2 600.261 74.5869   3
  -2   3  -2 644.770 81.1622   7
   2  -3   2 619.761 46.5098   6
   2  -3   2 602.380 47.4167   5
   2  -3   3 45674.6 1240.04   6
   2  -3   3 44586.9 1255.77   5
  -2   3  -3 45993.1 1346.22   3
  -2   3  -3 46469.5 1383.50   7
   2  -3   4 1351.35 77.7921   6
  -2   3  -4 1421.90 143.151   4
  -2   3  -4 1377.19 124.125   3
   2  -3   4 1240.56 83.2626   5
  -2   3  -5 1042.45 119.809   3
   2  -3   5 1139.32 87.3348   6
  -2   3  -5 1249.82 137.982   4
   2  -3   6 5657.76 256.804   6
  -2   3  -6 5823.37 338.516   4
  -2   3  -6 5805.99 320.818   2
  -2   3  -6 5930.29 315.988   3
  -2   3  -7 8.02252 58.5466   4
  -2   3  -7-28.3565 43.4075   2
   2  -3   7-1.29270 36.3821   6
  -2   3  -8 1056.63 146.890   4
   2  -3   8 746.242 109.615   6
  -2   3  -8 1007.08 127.362   2
   2  -3   9 1430.63 151.127   6
  -2   3  -9 1291.66 145.043   2
  -2   3  -9 1426.95 178.895   4
   2  -3  10 551.203 102.868   6
  -2   3 -10 705.797 106.628   2
  -2   3 -10 587.775 123.500   4
  -2   3 -11 44441.5 1507.89   4
  -2   3 -11 39668.0 1317.78   2
   2  -3  12 1241.37 184.827   5
  -2   3 -12 1283.89 193.566   4
   2  -3  13 1071.55 183.244   5
  -2   3 -13 1131.92 194.016   4
  -2   3 -14 4629.41 410.487   4
   2  -3  14 4234.70 372.486   5
  -2   3 -15 7789.12 560.202   4
   2  -3  15 6468.69 492.888   5
  -2   3 -16 8984.84 632.519   4
   2  -3  16 6976.20 536.162   5
  -2   3 -17-0.11678 79.4265   4
   2  -3  17 61.2318 99.5955   5
  -2   3 -18 5.72749 87.1343   4
   2  -3  18-34.1491 65.5345   5
  -2   2  16 493.529 154.334   5
  -2   2  15 5966.33 510.539   5
  -2   2  14 5152.44 447.409   5
  -2   2  13 3467.60 350.414   5
  -2   2  12 85.5203 88.7209   5
  -2   2  11 1428.47 193.161   5
  -2   2  10 15135.4 718.433   5
  -2   2   9 242.775 52.7961   2
  -2   2   9 205.226 68.6383   5
  -2   2   8 7945.27 357.339   2
  -2   2   8 8209.83 456.558   5
  -2   2   7 18834.1 746.140   5
  -2   2   7 18353.0 657.063   2
  -2   2   6 11621.1 516.965   5
  -2   2   5 190.391 74.1534   5
  -2   2   5 166.847 77.8014   1
  -2   2   4 1291.26 130.774   5
  -2   2   4 1447.64 149.831   1
  -2   2   3 848.780 95.3098   5
  -2   2   3 886.387 115.879   1
  -2   2   2 45746.4 1385.13   1
  -2   2   2 44565.9 1310.29   5
  -2   2   1 70264.2 2052.88   1
  -2   2   1 71055.0 1958.79   5
  -2   2   0 67679.9 1917.96   1
   2  -2   0 64872.5 1825.38   6
  -2   2   0 71451.5 1808.84   5
  -2   2  -1 87186.8 2354.30   7
   2  -2   1 87348.3 2291.10   6
  -2   2  -1 84755.1 2375.81   3
  -2   2  -2 626.030 72.5257   7
  -2   2  -2 712.626 85.7068   3
  -2   2  -3 30057.1 977.450   4
  -2   2  -3 30011.2 934.201   3
  -2   2  -4 89864.2 2552.62   6
  -2   2  -4 97295.0 2734.13   4
  -2   2  -4 96665.8 2695.37   3
  -2   2  -5 74268.3 2136.23   4
  -2   2  -5 66706.7 1977.11   6
  -2   2  -5 72056.0 2091.83   3
  -2   2  -6 33.8705 42.0273   3
  -2   2  -6 59.5455 51.4977   4
  -2   2  -7 18921.6 731.270   4
  -2   2  -8 5473.42 340.866   4
   2  -2   8 5310.32 299.856   5
  -2   2  -9 9683.85 493.688   4
  -2   2  -9 8997.24 409.445   2
   2  -2   9 9320.10 444.866   5
   2  -2  10 1579.64 177.521   5
  -2   2 -10 1625.13 146.428   2
   2  -2  11 787.141 134.717   5
  -2   2 -11 621.039 85.4542   2
   2  -2  12 23184.4 942.389   5
   2  -2  13 362.700 114.623   5
   2  -2  14 260.717 117.075   5
   2  -2  15 1461.01 223.821   5
   2  -2  16-40.2743 84.8363   5
   2  -2  17 1131.65 212.300   5
   2  -2  18 553.743 165.270   5
   2  -2  19 148.160 101.616   5
  -2   1  16 689.755 199.934   5
  -2   1  15 2696.11 339.524   5
  -2   1  14 95.3651 90.3428   5
  -2   1  13 1417.32 230.695   5
  -2   1  12 112.492 80.0093   5
  -2   1  11 5437.01 411.984   5
  -2   1  10 4401.20 362.603   6
  -2   1  10 4446.54 348.478   5
  -2   1   9 19660.7 660.310   2
  -2   1   9 21967.7 884.699   6
  -2   1   9 22157.3 884.412   5
  -2   1   8 27510.7 1033.80   6
  -2   1   7 31578.1 1123.49   6
  -2   1   6 219.952 88.3572   6
  -2   1   5 85991.2 2514.59   6
  -2   1   4 54660.4 1647.97   6
  -2   1   3 18802.7 659.967   6
  -2   1   3 18902.4 673.394   1
  -2   1   2 60669.4 1747.96   1
  -2   1   2 58873.1 1714.06   6
   2  -1  -1 11006.4 355.249   7
  -2   1   1 11165.5 392.100   6
  -2   1   1 11611.3 436.638   1
  -2   1   0 33525.9 936.105   6
   2  -1   0 31407.1 935.291   6
  -2   1   0 33494.3 1015.00   1
  -2   1  -1 2992.54 177.540   1
  -2   1  -1 2610.06 116.487   7
  -2   1  -1 2723.55 108.371   6
   2  -1   1 2718.21 108.900   6
  -2   1  -1 2798.80 165.029   3
  -2   1  -2 15330.3 552.832   4
  -2   1  -2 15702.4 530.005   3
   2  -1   3 13357.6 391.965   5
  -2   1  -3 13738.4 489.095   3
  -2   1  -3 12999.5 493.672   4
  -2   1  -4 66270.1 1820.50   6
  -2   1  -4 67899.9 1948.25   4
  -2   1  -4 67126.0 1924.41   3
   2  -1   4 67386.1 1838.13   5
  -2   1  -5 7134.30 339.909   4
  -2   1  -5 7010.85 328.114   3
   2  -1   5 7270.25 283.000   5
  -2   1  -6 2620.74 198.727   4
  -2   1  -6 2555.53 188.619   3
   2  -1   6 2644.23 165.956   5
  -2   1  -7 6017.66 330.996   3
   2  -1   7 5726.24 289.143   5
   2  -1   8 378.016 83.7933   5
   2  -1   9 11373.7 509.528   5
   2  -1  10 2025.49 200.785   5
  -2   1 -11 14971.8 538.374   2
   2  -1  11 17034.3 701.803   5
   2  -1  12 27876.7 1068.45   5
   2  -1  13 1441.68 193.617   5
   2  -1  14-66.4961 89.8131   5
   2  -1  15 2153.04 271.527   5
   2  -1  16 6711.98 511.754   5
   2  -1  17 4664.37 447.630   5
   2  -1  18 459.641 157.328   5
   2  -1  19-57.8124 86.5467   5
  -2   0  16 1953.13 302.326   5
  -2   0  15 306.780 98.6752   5
  -2   0  14 3249.44 352.074   5
  -2   0  13 10185.5 643.588   6
  -2   0  13 9832.97 623.463   5
  -2   0  12 4691.21 407.160   6
  -2   0  11 476.335 135.581   6
  -2   0  10 40143.4 1449.67   6
  -2   0   9 51889.3 1734.51   6
  -2   0   8 6001.75 388.241   6
  -2   0   7 609.677 109.389   6
  -2   0   6 46392.0 1483.33   6
  -2   0   5 10658.4 471.222   6
  -2   0   4 2941.31 204.495   6
  -2   0   3 964.285 114.628   6
  -2   0   2 78944.1 2227.60   6
  -2   0   1 204573. 5621.00   6
  -2   0   1 215895. 5654.26   1
  -2   0   0 54567.9 1563.94   6
   2   0   0 51731.2 1571.06   6
  -2   0  -1 125549. 3431.29   6
  -2   0  -1 120620. 3422.46   5
  -2   0  -2 46681.4 1406.23   4
   2   0   2 48685.7 1339.61   5
  -2   0  -2 47158.0 1344.50   5
  -2   0  -3 1152.63 112.802   3
  -2   0  -3 939.196 89.6497   4
   2   0   3 872.578 67.3955   5
  -2   0  -3 875.135 69.5110   5
  -2   0  -4 655.553 84.5696   3
   2   0   4 990.933 79.5299   5
  -2   0  -4 561.932 80.7283   4
  -2   0  -5 84976.8 2440.17   3
   2   0   5 86802.8 2397.10   5
  -2   0  -6 23349.3 807.641   3
   2   0   6 23603.9 779.236   5
  -2   0  -7 10199.7 449.220   3
   2   0   7 9195.21 407.231   5
   2   0   8 5030.87 287.485   5
   2   0   9 34341.1 1150.87   5
   2   0  10 73938.2 2246.48   5
   2   0  11 8194.37 457.139   5
   2   0  12 17210.3 773.889   5
   2   0  13 5123.02 382.287   5
   2   0  14 173.189 94.1371   5
   2   0  15 502.203 147.024   5
   2   0  16 128.932 99.7480   5
   2   0  17 479.253 150.378   5
   2   0  18 1405.55 255.215   5
   2   0  19-1.68173 73.2819   5
  -2  -1  16 2871.82 369.710   5
  -2  -1  15 35.1921 80.4879   6
  -2  -1  15 266.683 139.274   5
  -2  -1  14 1967.80 284.471   6
  -2  -1  13 594.909 162.730   6
  -2  -1  12 467.511 165.121   6
  -2  -1  11 25.3342 88.6547   6
  -2  -1  10 56.9268 94.0457   6
  -2  -1   9 246.852 125.943   6
  -2  -1   8 45370.5 1524.92   6
  -2  -1   7 19904.5 801.661   6
  -2  -1   6 5985.65 344.369   6
  -2  -1   5 20575.6 764.630   6
  -2  -1   4 8048.98 379.917   6
  -2  -1   3 57684.8 1704.90   6
  -2  -1   2 121.640 53.2415   6
   2   1  -1 50307.5 1417.58   7
  -2  -1   1 53965.2 1487.70   6
  -2  -1   0 134411. 3604.82   7
   2   1   0 126519. 3645.70   4
  -2  -1   0 129075. 3659.79   1
  -2  -1  -1 326.747 51.8472   1
   2   1   1 404.885 55.6623   5
  -2  -1  -1 406.338 54.2962   4
  -2  -1  -1 376.489 53.8897   6
  -2  -1  -2 94923.4 2630.92   1
  -2  -1  -2 99573.6 2652.43   4
  -2  -1  -2 100241. 2669.27   3
   2   1   2 95881.3 2644.52   5
  -2  -1  -3 644.118 78.7999   3
   2   1   3 661.894 73.6302   5
  -2  -1  -4 140.168 47.7341   3
   2   1   4 265.084 52.4364   5
   2   1   5 50991.1 1495.60   5
  -2  -1  -5 49736.4 1501.61   3
   2   1   6 40824.1 1259.40   5
  -2  -1  -6 40698.1 1276.25   3
   2   1   7 711.574 96.1734   5
  -2  -1  -7 719.246 101.846   3
   2   1   8 4570.69 285.037   5
   2   1   9 1534.00 168.802   5
   2   1  10 3109.52 255.121   5
   2   1  11 12.7591 87.8352   5
   2   1  12 2447.07 255.091   5
   2   1  13 9748.20 574.300   5
   2   1  14 0.80994 70.3892   5
   2   1  15 318.018 124.207   5
   2   1  16-169.681 122.157   5
   2   1  17 3530.23 388.408   5
   2   1  18 901.239 205.209   5
   2   1  19 170.194 129.850   5
  -2  -2  16 151.028 145.298   5
  -2  -2  16 134.688 152.355   6
  -2  -2  15-131.956 93.1713   6
  -2  -2  14 1623.96 278.181   6
  -2  -2  13 4537.44 416.764   6
  -2  -2  12 10230.0 643.700   6
  -2  -2  11 741.264 172.725   6
  -2  -2  10 3729.38 336.874   6
  -2  -2   9 25512.8 1009.12   6
  -2  -2   8 54573.3 1779.17   6
  -2  -2   7 16338.7 703.816   6
  -2  -2   6 57.0631 108.878   6
  -2  -2   5 1642.58 177.544   6
  -2  -2   4-46.1346 63.7312   6
  -2  -2   3 3730.54 230.777   6
   2   2  -2 28110.0 859.321   7
  -2  -2   2 27078.6 893.027   6
   2   2  -1 101.119 29.9216   7
  -2  -2   1 191.891 55.0556   6
   2   2   0 54439.0 1442.34   4
  -2  -2   0 52632.7 1538.01   6
  -2  -2  -1 35540.8 1026.27   1
  -2  -2  -1 37078.3 1016.02   4
   2   2   1 35826.1 1087.11   5
  -2  -2  -2 27460.4 769.703   1
  -2  -2  -2 26798.5 840.405   3
   2   2   2 27532.9 856.498   5
   2   2   3 3442.46 190.446   5
  -2  -2  -3 3287.46 185.139   3
   2   2   3 2838.17 120.076   1
  -2  -2  -4 25883.8 839.050   3
   2   2   4 26370.7 850.909   5
  -2  -2  -5 45348.3 1390.04   3
   2   2   5 47342.5 1416.97   5
   2   2   6 1503.14 150.181   5
  -2  -2  -6 1662.63 150.368   3
   2   2   7 2326.99 196.190   5
   2   2   8 26872.3 960.849   5
   2   2   9 1267.78 160.906   5
   2   2  10 81892.9 2503.42   5
   2   2  11 914.840 151.679   5
   2   2  12 4315.96 351.781   5
   2   2  13 4573.24 375.094   5
   2   2  14 393.321 114.109   5
   2   2  15 679.030 161.135   5
   2   2  16 123.071 101.673   5
   2   2  17-66.0141 108.075   5
   2   2  18-15.9259 87.8122   5
   2   2  19 169.095 77.8260   5
  -2  -3  16 6831.97 596.801   6
  -2  -3  15 920.096 219.944   6
  -2  -3  14 453.239 164.194   6
  -2  -3  13 742.146 185.303   6
  -2  -3  12 437.120 163.073   6
  -2  -3  11 6792.03 494.479   6
  -2  -3  10 2245.06 264.206   6
  -2  -3   9 16297.5 763.053   6
  -2  -3   8 459.775 153.786   6
  -2  -3   7 15703.1 696.460   6
  -2  -3   6 12237.4 569.118   6
  -2  -3   5 3500.26 263.440   6
  -2  -3   4 1081.47 141.263   6
   2   3  -3 97330.4 2696.97   7
  -2  -3   3 91956.2 2711.87   6
   2   3  -2 4422.68 244.819   7
  -2  -3   2 4310.02 253.450   6
  -2  -3   1 154650. 4430.40   6
   2   3  -1 168027. 4424.48   7
   2   3   0 88941.7 2433.56   7
  -2  -3   0 82887.1 2438.43   6
  -2  -3  -1 1412.58 112.281   3
   2   3   1 1326.40 119.553   5
  -2  -3  -2 5062.35 236.861   3
   2   3   2 5051.98 263.264   5
  -2  -3  -3 15600.4 546.209   3
   2   3   3 15986.4 586.591   5
  -2  -3  -4 44911.1 1347.36   3
   2   3   4 44943.7 1385.59   5
  -2  -3  -5 22138.4 756.356   3
   2   3   5 22488.0 796.480   5
  -2  -3  -6 12845.0 524.934   3
   2   3   6 12978.1 553.912   5
   2   3   7 53955.4 1701.59   5
   2   3   8 1986.09 203.030   5
   2   3   9 7617.62 440.365   5
   2   3  10 3754.94 307.657   5
   2   3  11 3181.18 299.058   5
   2   3  12 11210.4 621.941   5
   2   3  13 719.560 162.176   5
   2   3  14 463.377 147.199   5
   2   3  15 1989.41 284.672   5
   2   3  16 253.939 126.307   5
   2   3  17 42.4774 84.0677   5
   2   3  18 1113.59 252.362   5
  -2  -4  16 221.608 147.101   6
  -2  -4  15 142.547 147.738   6
  -2  -4  14 396.492 143.737   6
  -2  -4  13 264.012 122.625   6
  -2  -4  12 4171.15 402.405   6
  -2  -4  11 644.017 166.298   6
  -2  -4  10 1456.67 231.487   6
  -2  -4   9-2.27678 127.065   6
  -2  -4   8 7450.33 475.731   6
  -2  -4   7 2326.52 252.486   6
  -2  -4   6 4806.54 343.189   6
   2   4  -5 273.891 81.6611   7
  -2  -4   5 150.404 87.8256   6
   2   4  -4 38765.6 1251.41   7
  -2  -4   4 36888.9 1253.73   6
   2   4  -3 64253.7 1899.82   7
  -2  -4   3 61860.9 1908.19   6
   2   4  -3 61097.8 1708.82   4
   2   4  -2 3023.56 219.789   7
  -2  -4   2 3047.40 233.251   6
   2   4  -1 9432.31 418.653   7
  -2  -4   1 8561.95 413.084   6
  -2  -4   0 56276.4 1703.33   6
  -2  -4  -1 80932.8 2268.55   3
   2   4   1 82455.4 2353.28   5
  -2  -4  -2 52609.0 1495.39   3
   2   4   2 49609.1 1561.21   5
  -2  -4  -3 4330.49 217.673   3
   2   4   3 4272.83 263.301   5
  -2  -4  -4 4040.26 224.533   3
   2   4   4 4635.54 277.930   5
   2   4   5 411.609 91.8797   5
  -2  -4  -5 370.244 64.2030   3
   2   4   6 9514.71 310.906   1
   2   4   6 10036.8 483.167   5
   2   4   7 530.119 117.117   5
   2   4   8 11001.1 557.866   5
   2   4   9 4550.61 339.217   5
   2   4  10 6422.27 430.469   5
   2   4  11 582.830 124.599   5
   2   4  12 3384.17 335.377   5
   2   4  13 3989.31 368.218   5
   2   4  14 1011.83 197.849   5
   2   4  15 1944.19 284.559   5
   2   4  16 4003.74 430.057   5
   2   4  17 197.057 152.387   5
   2   4  18 1337.11 277.129   5
  -2  -5  16 1200.23 269.084   6
  -2  -5  15 4416.01 489.546   6
  -2  -5  14 1915.60 319.886   6
  -2  -5  13 7441.60 595.460   6
  -2  -5  12 1400.14 244.590   6
  -2  -5  11 3534.88 363.686   6
  -2  -5  10 2642.15 305.746   6
  -2  -5   9 3751.60 352.573   6
  -2  -5   8 3913.57 356.711   6
   2   5  -7 6084.67 409.357   7
   2   5  -7 5999.37 306.017   4
  -2  -5   7 6555.26 431.532   6
  -2  -5   6 9085.04 504.676   6
   2   5  -6 8924.12 367.776   4
   2   5  -6 8997.67 497.263   7
  -2  -5   5 6747.67 412.120   6
   2   5  -5 7056.93 406.370   7
   2   5  -5 6509.61 275.887   4
   2   5  -4 4011.40 290.464   7
   2   5  -4 3450.64 162.360   4
  -2  -5   4 3628.72 280.370   6
   2   5  -3 99.8903 64.9216   7
  -2  -5   3-55.7203 93.5836   6
   2   5  -2 46679.7 1496.87   7
  -2  -5   2 46001.3 1498.65   6
   2   5  -1 59216.5 1817.07   7
  -2  -5   1 58073.8 1812.96   6
  -2  -5   0 2378.38 100.520   4
  -2  -5   0 3013.53 231.497   6
  -2  -5  -1 4407.35 210.206   3
   2   5   1 4527.28 278.631   5
  -2  -5  -2 9371.19 328.721   3
   2   5   2 9754.90 432.427   5
  -2  -5  -2 7194.34 263.436   1
  -2  -5  -3 4823.39 232.616   3
   2   5   3 4972.12 301.808   5
   2   5   4 46971.7 1520.52   5
  -2  -5  -4 47684.1 1410.07   3
   2   5   5 22883.3 868.332   5
   2   5   6 25519.0 956.854   5
   2   5   7 52633.2 1621.69   5
   2   5   7 47367.8 1347.61   1
   2   5   8 29081.6 895.146   1
   2   5   8 33041.9 1151.49   5
   2   5   9 9473.48 382.833   1
   2   5   9 10641.0 563.402   5
   2   5  10 261.220 105.097   5
   2   5  11 669.273 138.081   5
   2   5  12 4004.71 366.644   5
   2   5  13 1134.37 202.664   5
   2   5  14-83.1622 79.3456   5
   2   5  15 603.078 160.513   5
   2   5  16 53.8236 80.5481   5
   2   5  17 108.365 88.7932   5
  -2  -6  15-147.425 154.495   6
  -2  -6  14 458.806 191.976   6
  -2  -6  13 1067.91 238.378   6
  -2  -6  12 272.100 160.936   6
   2   6 -11 947.696 208.010   7
  -2  -6  11 717.649 205.482   6
   2   6 -10 1059.44 191.948   7
  -2  -6  10 949.070 208.222   6
   2   6  -9 3603.39 354.205   7
  -2  -6   9 3787.42 371.322   6
   2   6  -8 310.107 102.314   7
  -2  -6   8 243.672 133.053   6
   2   6  -7 197.332 83.6739   7
  -2  -6   7 169.798 138.274   6
  -2  -6   6 31755.2 1224.30   6
   2   6  -6 32542.6 1222.91   7
   2   6  -5 1685.57 208.834   7
  -2  -6   5 1808.54 232.273   6
  -2  -6   4 11302.4 582.721   6
   2   6  -4 11769.0 591.221   7
   2   6  -3 41436.6 1440.37   7
  -2  -6   3 42834.2 1456.57   6
   2   6  -2 24170.1 939.326   7
  -2  -6   2 24487.8 950.496   6
   2   6  -1 20703.9 826.059   7
  -2  -6   1 19487.2 804.458   6
  -2  -6   0 3655.29 169.167   4
  -2  -6   0 5198.50 329.295   6
  -2  -6   0 4238.00 193.541   3
  -2  -6  -1 24220.9 745.849   3
   2   6   1 25007.1 917.866   5
  -2  -6  -2 6759.91 272.546   3
   2   6   2 7015.43 397.378   5
   2   6   3 2462.99 228.326   5
  -2  -6  -3 2314.43 144.336   3
   2   6   4 2538.52 236.211   5
   2   6   5 6199.48 389.632   5
   2   6   6 3995.49 315.658   5
   2   6   7 225.874 96.7159   5
   2   6   8 674.386 143.349   5
   2   6   9 899.654 159.407   5
   2   6  10 14290.5 737.642   5
   2   6  11 2654.70 285.041   5
   2   6  12 287.435 120.434   5
   2   6  13 3860.82 398.989   5
   2   6  14 5215.60 470.473   5
   2   6  15-7.80204 83.4909   5
   2   6  16 2097.46 318.021   5
   2   7 -14-43.4993 70.7465   7
  -2  -7  14 45.2706 114.989   6
   2   7 -13 1897.27 305.279   7
  -2  -7  13 1735.85 295.445   6
  -2  -7  12 4592.70 472.810   6
   2   7 -12 4274.99 439.866   7
   2   7 -11 914.788 196.451   7
  -2  -7  11 1015.40 234.488   6
   2   7 -10 324.546 119.606   7
  -2  -7  10 446.518 167.411   6
   2   7  -9 1217.58 207.895   7
  -2  -7   9 1886.49 290.599   6
   2   7  -8 5801.75 459.614   7
  -2  -7   8 6118.13 474.012   6
   2   7  -7 106.514 84.6208   7
  -2  -7   7 69.5426 116.280   6
   2   7  -6 171.535 94.1915   7
  -2  -7   6 428.660 147.654   6
  -2  -7   5 11421.0 620.080   6
   2   7  -5 10689.9 606.581   7
   2   7  -4 5503.81 403.542   7
  -2  -7   4 5680.33 418.468   6
  -2  -7   3 10732.7 579.834   6
   2   7  -3 9134.43 542.551   7
  -2  -7   2 362.065 101.429   6
   2   7  -2 196.339 89.1791   7
  -2  -7   1 105.315 78.8673   6
  -2  -7   1-18.2047 15.7833   3
  -2  -7   0 814.524 152.651   6
   2   7   1 440.412 99.2623   5
   2   7   2 22696.8 900.444   5
   2   7   3 15657.6 705.637   5
   2   7   4 9748.84 528.319   5
   2   7   5 1130.32 170.772   5
   2   7   6 14493.6 701.337   5
   2   7   7 14242.1 706.599   5
   2   7   8 5093.89 399.087   5
   2   7   9 8560.26 545.425   5
   2   7  10 133.299 89.7075   5
   2   7  11 481.088 142.209   5
   2   7  12 1006.48 178.780   5
   2   7  13 430.640 136.030   5
   2   7  14 1594.72 263.975   5
   2   7  15 97.5974 127.402   5
  -2  -8  14 64.3645 122.639   6
  -2  -8  13 346.038 175.047   6
  -2  -8  12 1412.34 278.107   6
   2   8 -12 1214.35 246.388   7
   2   8 -11 338.030 145.295   7
  -2  -8  11 361.488 165.090   6
   2   8 -10 46.8256 71.9439   7
  -2  -8  10-19.2566 148.876   6
  -2  -8   9 388.068 193.894   6
   2   8  -9 125.615 111.843   7
   2   8  -8 5396.40 467.224   7
  -2  -8   8 5907.95 504.586   6
   2   8  -7 4893.82 436.702   7
  -2  -8   7 4472.05 410.992   6
   2   8  -6 7933.79 550.583   7
  -2  -8   6 8251.39 565.221   6
   2   8  -5 2911.27 311.861   7
  -2  -8   5 3235.90 332.645   6
   2   8  -4 194.627 105.524   7
  -2  -8   4 83.6118 114.093   6
   2   8  -3 3522.37 338.653   7
  -2  -8   3 4103.50 367.045   6
  -2  -8   2-131.298 82.9349   6
  -2  -8   1 15334.9 765.629   6
  -2  -8   0 4430.10 370.945   6
   2   8   1 9987.75 548.269   5
   2   8   2 7636.35 469.827   5
   2   8   3 426.017 114.001   5
   2   8   4 3529.02 320.826   5
   2   8   5 559.019 145.318   5
   2   8   6 7156.49 477.960   5
   2   8   7 69.3277 51.7940   5
   2   8   8 179.123 80.2674   5
   2   8   9 5033.77 427.936   5
   2   8  10 3063.85 331.239   5
   2   8  11 99.7181 75.1594   5
   2   8  12 57.0429 63.9926   5
   2   8  13 111.116 74.3120   5
   2   8  14 2347.31 335.153   5
  -2  -9  12 671.377 208.597   6
   2   9 -11 1441.90 272.407   7
  -2  -9  11 1147.73 258.326   6
   2   9 -10 118.864 122.249   7
  -2  -9  10-151.058 158.642   6
   2   9  -9-149.226 103.201   7
  -2  -9   9 527.813 196.512   6
   2   9  -8 2509.89 328.512   7
  -2  -9   8 2018.34 303.369   6
   2   9  -7 7054.71 558.187   7
  -2  -9   7 7106.49 562.390   6
  -2  -9   6-49.7989 125.844   6
   2   9  -6 70.4687 68.3900   7
   2   9  -5 314.656 120.097   7
  -2  -9   5 665.044 184.302   6
   2   9  -4 2733.71 315.127   7
  -2  -9   4 2564.27 305.383   6
  -2  -9   3 566.632 156.456   6
   2   9  -3 641.414 147.329   7
  -2  -9   2 775.015 181.901   6
  -2  -9   1 2443.92 291.297   6
  -2  -9   0 113.293 85.0108   6
  -2  -9  -1 136.486 90.8276   6
   2   9   2 36.6070 75.9583   5
   2   9   3 824.295 172.281   5
   2   9   4 7276.81 492.411   5
   2   9   5 456.742 125.032   5
   2   9   6-141.232 81.8014   5
   2   9   7 2310.51 282.436   5
   2   9   8-25.6040 63.4010   5
   2   9   9 661.905 165.550   5
   2   9  10-96.7189 89.7590   5
   2   9  11 781.517 180.195   5
   2   9  12 2221.83 319.601   5
   2   9  13 383.861 141.402   5
  -2 -10  11 211.500 161.510   6
  -2 -10  10 488.886 195.709   6
   2  10  -9 1103.66 235.610   7
  -2 -10   9 1266.29 269.959   6
  -2 -10   8 129.612 130.780   6
   2  10  -8 70.4627 71.0930   7
  -2 -10   7 1980.93 303.780   6
   2  10  -7 1673.08 276.412   7
   2  10  -6-11.4601 67.3007   7
  -2 -10   6-49.9205 109.459   6
   2  10  -5 1297.75 248.088   7
  -2 -10   5 1558.19 275.670   6
  -2 -10   4 966.346 222.943   6
  -2 -10   3 1804.92 294.408   6
  -2 -10   2 376.273 170.770   6
  -2 -10   1 373.167 130.773   6
  -2 -10   0 2223.21 302.697   6
  -2 -10  -1 1386.01 239.319   6
  -2 -10  -2 4168.58 415.652   6
   2  10   3-70.4701 60.1041   5
   2  10   4 1590.17 239.609   5
   2  10   5 2617.31 312.916   5
   2  10   6 165.015 91.7986   5
   2  10   7 831.721 189.454   5
   2  10   8 602.354 152.275   5
   2  10   9 407.933 143.449   5
   2  10  10 466.797 147.001   5
   2  10  11 480.224 152.452   5
  -2 -11   9-40.4823 113.437   6
  -2 -11   8 249.795 150.312   6
  -2 -11   7 1309.26 276.243   6
   2  11  -6 1699.51 294.951   7
  -2 -11   6 2229.04 344.244   6
  -2 -11   5 60.5466 118.020   6
  -2 -11   4 110.637 91.6109   6
  -2 -11   3 1088.93 226.186   6
  -2 -11   2 293.436 135.044   6
  -2 -11   1 1271.82 248.519   6
  -2 -11   0 112.835 90.8215   6
  -2 -11  -1 5.03334 90.9102   6
  -2 -11  -2 139.686 110.388   6
  -2 -11  -3 4167.82 456.163   6
   2  11   4-62.9064 79.2362   5
   2  11   5-38.4135 87.1639   5
   2  11   6 150.309 108.258   5
   2  11   7 85.4705 66.2777   5
   2  11   8 31.7692 71.2559   5
  -2 -12   5 233.859 156.845   6
  -2 -12   4 141.386 131.279   6
  -2 -12   3-60.0853 96.5060   6
  -2 -12   2 68.0452 98.1260   6
  -2 -12   1-56.5831 110.438   6
  -2 -12   0 213.668 119.542   6
  -2 -12  -1 33.3936 96.4859   6
  -2 -12  -2 209.452 137.452   6
  -2 -12  -3 200.213 121.819   6
  -2 -12  -4 115.048 111.566   6
   2  12   5 1000.50 211.091   5
  -3  10   1-25.5109 70.1517   2
  -3  10   0 456.527 155.000   2
  -3  10  -1 654.081 179.568   2
  -3  10  -2 465.898 163.180   2
  -3  10  -3 72.6080 112.814   2
  -3  10  -4 1865.76 294.024   2
  -3  10  -5 1156.04 235.347   2
  -3  10  -8 235.426 116.564   7
  -3   9   7-8.54527 62.8205   2
  -3   9   6 118.331 81.5674   2
  -3   9   5 1686.04 259.538   2
  -3   9   4 56.5377 100.621   2
  -3   9   3 4978.38 465.087   2
  -3   9   2 105.667 108.880   2
  -3   9   1 662.959 162.849   2
  -3   9   0-74.1039 104.849   2
  -3   9  -1 152.154 81.4951   2
  -3   9  -2 4188.03 416.745   2
  -3   9  -3-133.701 68.7739   2
  -3   9  -4 761.798 188.941   2
  -3   9  -5 75.6041 72.4216   2
  -3   9  -6 229.022 113.239   2
  -3   9  -6 81.1095 63.3701   7
  -3   9  -7 441.090 149.012   2
  -3   9  -7 183.200 86.2524   7
  -3   9  -8 12.6727 68.6965   2
  -3   9  -8-81.9999 75.8100   7
  -3   9  -9 10.5473 70.4499   2
  -3   9  -9 2.52204 67.3010   7
  -3   9 -10 1281.76 230.132   2
  -3   9 -10 982.242 222.556   7
  -3   9 -11 47.6015 65.9228   7
  -3   8   9 517.797 166.705   1
  -3   8   8 50.5854 57.0929   1
  -3   8   7 547.025 151.451   2
  -3   8   6 912.463 182.524   2
  -3   8   5 294.420 131.270   2
  -3   8   4-64.2329 95.4298   2
  -3   8   3 107.367 84.7166   2
  -3   8   2 44.9035 55.5883   2
  -3   8   1 8.22384 66.5305   2
  -3   8   0 150.870 98.7070   2
  -3   8  -1 1179.09 204.154   2
  -3   8  -2 73.5170 66.1784   2
  -3   8  -3 660.893 168.201   2
  -3   8  -4 103.303 89.5438   2
  -3   8  -5 1144.99 198.750   7
  -3   8  -5 1624.11 244.464   2
  -3   8  -6 808.881 173.752   2
  -3   8  -6 669.671 161.570   7
  -3   8  -7 374.825 121.186   7
  -3   8  -7 625.261 161.655   2
  -3   8  -8 108.990 71.6382   7
  -3   8  -8 161.264 98.9090   2
  -3   8  -9 3679.47 395.553   7
  -3   8  -9 3906.70 384.936   2
  -3   8 -10 653.932 153.799   2
  -3   8 -10 542.830 166.396   7
  -3   8 -11-41.7212 68.3315   7
  -3   8 -12-72.7571 76.6520   7
  -3   7  11 15.3725 56.7075   1
  -3   7  10 265.590 105.120   1
  -3   7   9 421.910 120.667   1
  -3   7   8 2528.88 287.951   2
  -3   7   8 2522.18 293.086   1
  -3   7   7 245.947 95.6472   1
  -3   7   7 221.080 100.641   2
  -3   7   6 71.1457 63.1892   1
  -3   7   6 260.631 103.144   2
  -3   7   5 2523.93 347.233   1
  -3   7   5 4383.45 376.504   2
  -3   7   4 37.9520 72.9719   2
  -3   7   3 3309.80 326.592   2
  -3   7   2 142.209 79.7049   2
  -3   7   1 1291.60 195.771   2
  -3   7   0 6527.18 461.636   2
  -3   7  -1 1130.73 180.005   2
  -3   7  -2 2008.45 239.753   2
  -3   7  -3 4593.49 384.063   2
  -3   7  -4 52.8809 52.0883   7
  -3   7  -4 84.9151 93.4731   2
  -3   7  -5 333.793 102.588   2
  -3   7  -5 254.806 92.9493   7
  -3   7  -6 908.883 169.567   7
  -3   7  -6 978.114 176.959   2
  -3   7  -7 778.106 167.077   7
  -3   7  -7 844.098 173.534   2
  -3   7  -8 1872.18 258.308   7
  -3   7  -8 1839.10 248.418   2
  -3   7  -9 218.010 94.1670   7
  -3   7  -9 476.004 131.067   2
  -3   7 -10 702.846 169.196   7
  -3   7 -10 482.897 117.989   2
  -3   7 -11 2120.71 265.354   2
  -3   7 -11 2256.33 306.397   7
  -3   7 -12 808.423 197.407   7
  -3   7 -13-8.16391 73.4065   7
  -3   7 -14 690.470 198.079   7
  -3   6  13-29.1715 62.2966   5
  -3   6  13-18.3916 59.7932   1
  -3   6  12 13.5956 54.2951   5
  -3   6  12 114.230 98.0851   1
  -3   6  11 1299.72 220.078   5
  -3   6  11 1818.61 258.606   1
  -3   6  10 913.917 185.476   5
  -3   6  10 1142.54 201.633   1
  -3   6   9 1341.43 208.296   5
  -3   6   9 1348.31 209.066   1
  -3   6   8 1602.27 211.889   5
  -3   6   8 1627.90 226.540   1
  -3   6   8 1827.76 225.530   2
  -3   6   7-38.1886 48.8555   5
  -3   6   7-16.8419 57.8139   2
  -3   6   7 36.2942 87.9241   1
  -3   6   6 124.194 67.2020   5
  -3   6   6 197.432 84.2725   1
  -3   6   6-25.5572 55.9223   2
  -3   6   5 2157.57 214.522   5
  -3   6   5 2317.20 257.183   1
  -3   6   5 2256.01 257.101   2
  -3   6   4 11166.3 610.546   1
  -3   6   4 10846.6 608.636   2
  -3   6   3 662.346 178.357   1
  -3   6   3 1104.95 175.307   2
  -3   6   2 324.242 105.501   2
  -3   6   1 7269.25 462.623   2
  -3   6   0 10463.7 580.741   2
  -3   6  -1 33.3605 70.7067   2
  -3   6  -2 2694.74 272.875   2
  -3   6  -3 9.54864 37.5425   7
  -3   6  -3-64.1953 73.8103   2
  -3   6  -4 487.872 111.082   7
  -3   6  -4 826.432 157.686   2
  -3   6  -5 227.017 90.3082   2
  -3   6  -5 122.476 77.2504   7
  -3   6  -6 219.902 95.9243   7
  -3   6  -6 210.468 113.036   2
  -3   6  -7 5122.90 398.067   2
  -3   6  -7 5169.65 393.641   7
  -3   6  -8 261.361 108.478   7
  -3   6  -8 269.139 96.9819   2
  -3   6  -9 4535.93 376.019   2
  -3   6  -9 4363.81 379.132   7
  -3   6 -10 164.506 87.2188   7
  -3   6 -10 169.861 83.3307   2
  -3   6 -11 878.428 188.688   7
  -3   6 -11 1270.86 217.551   4
  -3   6 -11 828.104 159.457   2
  -3   6 -12 1903.67 269.193   4
  -3   6 -12 1588.51 259.079   7
  -3   6 -13 1192.53 219.866   4
  -3   6 -14 1098.25 220.805   4
  -3   6 -15 6.10047 76.8348   4
  -3   5  14 243.444 122.001   5
  -3   5  14 421.982 148.927   1
  -3   5  13 285.599 127.980   5
  -3   5  13 417.437 156.213   1
  -3   5  12 1878.41 270.141   5
  -3   5  12 2494.66 305.663   1
  -3   5  11-38.3441 51.8012   5
  -3   5  11 62.9212 64.4021   1
  -3   5  10 2337.66 277.482   5
  -3   5  10 3068.23 320.553   1
  -3   5   9 115.242 80.6516   1
  -3   5   9 85.3963 64.1150   5
  -3   5   8 1374.96 188.246   5
  -3   5   8 1739.05 236.135   1
  -3   5   8 1770.20 212.731   2
  -3   5   7 85.6085 70.0991   5
  -3   5   7 96.2147 84.3844   2
  -3   5   7 97.0675 71.4495   1
  -3   5   6 327.852 102.199   1
  -3   5   6 290.879 93.1789   5
  -3   5   6 204.429 81.7532   2
  -3   5   5 822.768 148.907   2
  -3   5   5 797.488 125.463   5
  -3   5   5 749.200 133.462   1
  -3   5   4 91.1562 35.6412   5
  -3   5   4 28.1109 75.5167   1
  -3   5   4 161.794 105.713   2
  -3   5   3 1723.46 205.672   2
  -3   5   3 1218.67 134.797   5
  -3   5   3 1552.34 189.777   1
  -3   5   2 1462.68 196.620   1
  -3   5   2 1983.22 217.414   2
  -3   5   2 1550.93 139.382   5
  -3   5   1 5096.41 350.354   2
  -3   5   1 4187.17 251.793   3
  -3   5   1 4064.18 222.502   5
  -3   5   0 3924.67 307.094   2
  -3   5   0 3341.86 212.195   3
  -3   5  -1 10832.5 549.150   2
  -3   5  -1 10362.5 451.819   3
  -3   5  -2 1204.94 124.432   3
  -3   5  -2 1408.61 183.420   2
  -3   5  -3 5382.82 342.214   7
  -3   5  -3 5965.40 391.001   2
  -3   5  -3 5922.01 308.270   3
  -3   5  -4 14889.0 657.455   7
  -3   5  -4 16178.6 711.832   2
  -3   5  -4 15024.6 598.302   3
  -3   5  -5 3036.58 258.959   7
  -3   5  -5 3067.75 276.495   2
  -3   5  -5 2830.16 215.143   3
  -3   5  -6 7270.42 437.390   7
  -3   5  -6 7895.74 468.077   2
  -3   5  -6 7451.33 400.761   3
  -3   5  -7-53.1829 65.7208   7
  -3   5  -7-37.9627 58.4298   2
  -3   5  -8 4665.11 357.517   7
  -3   5  -8 4668.26 359.401   2
  -3   5  -9 3165.18 303.541   4
  -3   5  -9 2650.72 266.948   2
  -3   5 -10 419.515 116.290   4
  -3   5 -10 238.847 85.8568   2
  -3   5 -11 291.712 69.9925   4
  -3   5 -11 245.687 85.1544   2
  -3   5 -12 42.8249 79.4084   4
  -3   5 -13 2106.75 278.698   4
  -3   5 -14 254.003 113.270   4
  -3   5 -15 1256.97 235.193   4
  -3   5 -16-7.17747 78.4640   4
  -3   4  14 91.1918 87.1361   1
  -3   4  14 150.723 103.914   5
  -3   4  13 73.6810 93.0470   1
  -3   4  13 49.6396 75.2194   5
  -3   4  12 857.065 191.787   1
  -3   4  12 713.509 170.420   5
  -3   4  11-107.845 88.0569   5
  -3   4  11 112.193 84.8800   1
  -3   4  10 1924.50 248.718   5
  -3   4  10 2131.17 262.863   1
  -3   4   9 2100.32 240.813   5
  -3   4   9 2046.45 235.832   1
  -3   4   8 734.576 125.610   2
  -3   4   8 679.508 128.278   1
  -3   4   8 634.602 131.430   5
  -3   4   7 4757.25 336.391   2
  -3   4   7 5364.31 389.354   1
  -3   4   7 4696.54 342.288   5
  -3   4   6 16291.1 702.399   2
  -3   4   6 16176.7 737.259   1
  -3   4   6 15278.9 674.316   5
  -3   4   5-4.60300 43.7772   5
  -3   4   5-72.5545 73.0883   1
  -3   4   5 31.5458 65.7180   2
  -3   4   4 50705.1 1619.40   2
  -3   4   4 47695.1 1527.12   5
  -3   4   4 49257.6 1630.97   1
  -3   4   3 4977.27 336.134   1
  -3   4   3 4881.96 335.762   2
  -3   4   3 4798.34 275.955   5
  -3   4   2 1400.22 127.395   5
  -3   4   2 1602.13 191.279   2
  -3   4   2 1601.91 178.591   1
  -3   4   1 5570.17 349.444   1
  -3   4   1 5285.24 249.479   5
  -3   4   0 28056.4 902.809   3
  -3   4   0 26020.6 796.045   5
  -3   4  -1 20358.8 714.105   3
  -3   4  -2 463.856 81.8006   7
   3  -4   2 331.502 31.6666   6
  -3   4  -2 480.202 84.3619   3
  -3   4  -3 580.433 92.0988   3
  -3   4  -3 482.926 89.4022   7
  -3   4  -4 1439.84 141.178   3
  -3   4  -4 1416.50 151.944   7
  -3   4  -5 23.9453 39.4395   3
  -3   4  -5 49.6200 43.6907   7
  -3   4  -6 2430.22 234.414   2
  -3   4  -6 2196.71 205.686   7
  -3   4  -6 2097.64 188.682   3
  -3   4  -7 11874.9 586.670   2
  -3   4  -7 12645.8 622.255   4
  -3   4  -7 12599.4 565.477   3
  -3   4  -8 816.314 148.895   4
  -3   4  -8 730.018 133.669   2
  -3   4  -9 2082.86 230.924   4
  -3   4  -9 1975.33 216.554   2
  -3   4 -10 264.760 91.0543   4
  -3   4 -10 352.900 101.084   2
  -3   4 -11 4959.56 399.981   4
  -3   4 -11 4282.50 330.383   2
  -3   4 -12 17514.2 869.790   4
  -3   4 -13 85.0963 58.6581   4
  -3   4 -14 470.818 149.727   4
  -3   4 -15 1229.73 221.588   4
  -3   4 -16 458.640 149.430   4
  -3   4 -17 459.150 165.915   4
  -3   3  15 103.231 111.722   5
  -3   3  15 316.234 145.676   1
  -3   3  14 5137.43 476.033   1
  -3   3  14 4285.90 428.883   5
  -3   3  13 282.733 121.750   5
  -3   3  13 445.720 136.295   1
  -3   3  12 4527.85 407.307   1
  -3   3  12 3811.87 378.367   5
  -3   3  11 141.228 80.6977   5
  -3   3  11-50.8808 75.3155   1
  -3   3  10 332.811 120.866   5
  -3   3  10 199.234 89.1903   1
  -3   3   9 6718.19 452.106   1
  -3   3   9 6121.01 421.324   5
  -3   3   8-49.6722 59.4900   5
  -3   3   8-85.6528 62.0521   1
  -3   3   8 22.3186 63.5228   2
  -3   3   7 7331.09 453.594   1
  -3   3   7 7709.82 408.938   2
  -3   3   7 7144.92 415.750   5
  -3   3   6 13897.0 603.973   2
  -3   3   6 13882.2 644.474   1
  -3   3   6 13352.0 598.690   5
  -3   3   5 3064.40 258.387   1
  -3   3   5 2607.65 208.497   5
  -3   3   4 8721.63 453.343   1
  -3   3   4 7883.99 386.924   5
  -3   3   3 3206.61 249.971   1
  -3   3   3 3148.99 206.983   5
  -3   3   2 1302.87 157.188   1
  -3   3   2 1517.76 127.746   5
  -3   3   1 13.1883 24.5642   5
  -3   3   1-46.6041 63.7474   1
  -3   3   0 353.760 42.9393   5
  -3   3   0 333.913 90.4590   1
   3  -3   1 8043.84 289.131   6
  -3   3  -1 9048.61 385.709   3
  -3   3  -2 74255.4 2138.87   7
  -3   3  -2 75154.2 2168.05   3
  -3   3  -3 1464.59 133.918   7
  -3   3  -3 1754.53 154.842   3
  -3   3  -4 14164.6 547.941   7
  -3   3  -4 13564.6 544.865   3
  -3   3  -5 29025.0 990.976   3
  -3   3  -6 71762.6 2066.95   4
  -3   3  -6 69850.9 1989.39   3
  -3   3  -7 92.8128 68.5349   3
   3  -3   7 33.4051 36.4627   5
  -3   3  -7 10.5343 77.8626   4
  -3   3  -8 152.234 55.2894   3
   3  -3   8 88.5153 48.5128   5
  -3   3  -8 158.917 75.4662   4
  -3   3  -9 3182.09 255.865   2
  -3   3  -9 2912.89 274.126   4
   3  -3   9 2597.15 194.067   5
   3  -3  10 352.764 74.0066   5
  -3   3 -10 724.172 153.190   4
  -3   3 -10 332.105 89.1267   2
  -3   3 -11 2060.86 254.829   4
  -3   3 -11 1402.59 165.957   2
   3  -3  11 1495.28 165.209   5
   3  -3  12-47.2013 50.8281   5
  -3   3 -12 25.0085 102.737   4
  -3   3 -13 2007.18 260.052   4
  -3   3 -14 3971.47 382.181   4
  -3   3 -15-6.71594 65.4553   4
  -3   3 -16-31.8504 91.7771   4
  -3   3 -17-118.641 90.0281   4
  -3   2  15 63.7305 92.8677   5
  -3   2  14 225.472 126.951   5
  -3   2  13-99.8665 89.8653   5
  -3   2  12 365.111 120.411   5
  -3   2  11 367.908 111.096   5
  -3   2  10 1481.63 226.041   1
  -3   2  10 1416.47 217.990   5
  -3   2   9 4896.83 380.613   1
  -3   2   9 4160.04 340.754   5
  -3   2   8 3724.95 323.845   1
  -3   2   8 3589.15 293.485   5
  -3   2   7 456.060 124.768   1
  -3   2   7 601.886 127.356   5
  -3   2   6 26125.3 976.646   1
  -3   2   6 24437.0 919.145   5
  -3   2   5 316.787 78.6340   5
  -3   2   5 542.930 125.014   1
  -3   2   4 25551.8 927.724   1
  -3   2   4 24687.7 862.008   5
  -3   2   3 43824.3 1426.99   1
  -3   2   3 44441.7 1348.20   5
  -3   2   2 2588.36 203.661   1
  -3   2   2 2630.98 167.322   5
  -3   2   1 2743.75 153.611   5
  -3   2   1 2719.53 210.906   1
  -3   2   0 36338.7 1181.47   1
  -3   2   0 36538.7 1037.75   5
  -3   2  -1 60786.4 1745.02   1
   3  -2   1 54930.7 1567.43   6
  -3   2  -1 60196.3 1708.84   3
  -3   2  -2 9553.02 358.087   7
  -3   2  -2 9494.49 401.937   3
  -3   2  -3 369.302 59.5752   7
  -3   2  -3 372.874 76.6642   3
  -3   2  -4 26808.2 913.878   3
  -3   2  -4 27251.9 954.526   4
  -3   2  -5 10593.3 443.836   3
  -3   2  -5 10328.0 468.208   4
   3  -2   5 8679.00 275.612   5
  -3   2  -6 19655.0 736.053   4
  -3   2  -6 20055.9 701.275   3
   3  -2   6 19556.1 558.572   5
  -3   2  -7 6732.13 395.449   4
  -3   2  -7 6814.58 368.437   3
   3  -2   7 6416.21 284.762   5
  -3   2  -8 4609.34 327.806   4
  -3   2  -8 5034.51 322.579   3
   3  -2   8 4100.94 239.421   5
   3  -2   9 32.4285 49.5216   5
  -3   2  -9 79.9985 74.1338   4
  -3   2 -10 9971.18 539.149   4
   3  -2  10 8710.50 436.855   5
  -3   2 -11 4389.50 351.997   4
   3  -2  11 3761.62 277.018   5
   3  -2  12 826.983 137.325   5
  -3   2 -12 1658.31 233.149   4
  -3   2 -13 4927.58 408.108   4
   3  -2  13 4590.54 351.802   5
   3  -2  14 79.4605 51.0407   5
  -3   2 -14 185.184 101.067   4
   3  -2  15 332.840 115.283   5
  -3   2 -15 195.790 100.467   4
   3  -2  16 288.730 118.988   5
  -3   2 -16 191.231 120.551   4
  -3   2 -17 724.152 186.124   4
  -3   2 -18 2527.53 354.607   4
  -3   1  15 862.831 195.538   5
  -3   1  14 167.851 92.6852   5
  -3   1  13 1907.27 275.697   5
  -3   1  12 9241.13 607.956   5
  -3   1  11 6003.61 448.024   5
  -3   1  10-29.2865 77.9738   5
  -3   1  10 14.0593 79.7191   6
  -3   1   9 11839.0 631.298   6
  -3   1   9 11488.8 620.977   5
  -3   1   8 6326.32 414.653   6
  -3   1   7 9814.57 516.803   6
  -3   1   6 28451.1 1048.49   6
  -3   1   5 3389.08 262.746   6
  -3   1   5 3536.61 268.454   1
  -3   1   4 36543.4 1232.36   6
  -3   1   4 39593.3 1274.24   1
  -3   1   3 41.9540 58.5954   6
  -3   1   3-23.2320 56.3931   1
  -3   1   2 132.786 46.7147   6
  -3   1   2 130.377 55.8691   1
  -3   1   1 3153.43 213.382   1
   3  -1  -1 2737.64 107.790   7
  -3   1   1 2928.26 177.010   6
  -3   1   0 61218.2 1752.45   6
  -3   1   0 64050.6 1855.86   1
  -3   1  -1 97.0265 33.8077   6
  -3   1  -1 22.3895 49.6047   1
  -3   1  -1-10.2385 53.0051   3
   3  -1   1-12.8738 15.6388   6
  -3   1  -1 44.6412 14.1690   5
  -3   1  -2 76193.9 2120.20   7
  -3   1  -2 77561.9 2236.96   3
  -3   1  -2 80542.7 2101.63   6
  -3   1  -3 43908.0 1353.53   3
  -3   1  -4 1145.36 130.574   3
  -3   1  -4 1110.92 130.111   4
   3  -1   4 1018.56 60.7330   5
  -3   1  -5 18180.4 679.402   4
  -3   1  -5 16267.0 517.027   6
  -3   1  -5 18021.4 656.636   3
   3  -1   5 18322.3 544.788   5
  -3   1  -6 118875. 3345.22   3
  -3   1  -6 116645. 3362.28   4
   3  -1   6 117202. 3221.75   5
  -3   1  -7 11599.3 530.411   4
  -3   1  -7 11315.6 513.412   3
   3  -1   7 11216.3 445.492   5
   3  -1   8 1047.40 113.985   5
  -3   1  -8 870.767 128.634   3
  -3   1  -8 1052.90 155.494   4
   3  -1   9 1455.15 150.649   5
  -3   1  -9 1637.16 190.043   4
  -3   1  -9 1299.01 162.375   3
  -3   1 -10 5494.29 376.606   4
   3  -1  10 4903.11 315.847   5
  -3   1 -11 12021.4 624.133   4
   3  -1  11 11499.7 559.290   5
   3  -1  12 1455.56 184.877   5
   3  -1  13 681.402 142.202   5
   3  -1  14 3995.79 351.148   5
   3  -1  15 2450.11 289.759   5
   3  -1  16 2424.36 298.201   5
   3  -1  17 211.867 93.1142   5
   3  -1  18 42.9793 62.1133   5
  -3   0  15 1139.83 236.732   5
  -3   0  14-27.5360 119.351   5
  -3   0  13 1693.02 277.432   5
  -3   0  13 1185.68 226.199   6
  -3   0  12-64.1118 100.624   6
  -3   0  11 326.528 114.426   6
  -3   0  10-45.9327 83.9593   6
  -3   0   9 333.932 102.481   6
  -3   0   8 694.955 153.622   6
  -3   0   7 188.363 117.334   6
  -3   0   6 1172.43 162.214   6
  -3   0   5 8295.73 437.887   6
  -3   0   4 8526.89 411.611   6
  -3   0   3 13846.3 564.426   6
  -3   0   3 14542.2 598.355   1
  -3   0   2 51763.7 1601.18   6
  -3   0   2 56695.6 1652.56   1
  -3   0   1 14543.9 538.711   6
  -3   0   1 15810.9 585.880   1
  -3   0   0 104608. 3386.49   6
  -3   0   0 126655. 3471.28   1
  -3   0  -1 109584. 3369.32   6
  -3   0  -1 126360. 3462.37   1
  -3   0  -2 30295.4 914.950   1
  -3   0  -2 29001.9 827.676   6
  -3   0  -2 28883.5 922.827   3
  -3   0  -2 25288.3 811.257   5
  -3   0  -3 2731.78 190.963   4
  -3   0  -3 2860.02 199.202   3
  -3   0  -3 2904.18 140.660   6
   3   0   3 2941.61 140.568   5
  -3   0  -3 2657.89 142.295   5
  -3   0  -4 984.177 115.822   3
  -3   0  -4 925.153 114.479   4
   3   0   4 1026.17 81.2245   5
  -3   0  -5 3077.47 216.593   4
  -3   0  -5 2669.40 196.225   3
   3   0   5 2841.40 162.156   5
  -3   0  -6 6486.35 349.537   4
  -3   0  -6 6934.38 356.947   3
   3   0   6 6468.01 301.075   5
   3   0   7-12.6626 37.4343   5
  -3   0  -7 105.465 55.4627   3
  -3   0  -7 19.0861 60.0926   4
  -3   0  -8 3641.91 278.930   4
  -3   0  -8 3664.70 264.653   3
   3   0   8 3590.97 236.488   5
   3   0   9 259.874 77.0896   5
  -3   0  -9 161.346 66.0313   3
   3   0  10 1208.90 153.567   5
   3   0  11 3.26544 64.7540   5
   3   0  12 788.152 139.837   5
   3   0  13 254.843 101.389   5
   3   0  14 73.7374 93.7251   5
   3   0  15 89.6464 65.7490   5
   3   0  16 486.266 155.053   5
   3   0  17 466.292 129.301   5
   3   0  18 3621.71 401.625   5
   3   0  19 907.820 212.580   5
  -3  -1  15 458.458 176.392   5
  -3  -1  15 404.279 160.423   6
  -3  -1  14 302.964 146.470   6
  -3  -1  13 74.5980 124.619   6
  -3  -1  12 2834.72 324.358   6
  -3  -1  11 8076.05 545.059   6
  -3  -1  10 3191.43 323.666   6
  -3  -1   9 2795.76 293.521   6
  -3  -1   8 7625.77 469.912   6
  -3  -1   7 12760.1 607.977   6
  -3  -1   6 12929.5 599.892   6
  -3  -1   5 6058.19 361.647   6
  -3  -1   4 3473.59 262.093   6
  -3  -1   3 3142.55 223.823   6
   3   1  -2 2188.96 120.886   7
  -3  -1   2 2392.99 180.742   6
   3   1  -1 45360.4 1260.63   7
  -3  -1   1 43204.1 1376.19   1
  -3  -1   0 7351.59 330.012   1
  -3  -1   0 7543.27 327.146   6
  -3  -1  -1 3300.61 139.730   7
  -3  -1  -1 4213.97 210.454   6
  -3  -1  -1 4105.52 213.722   1
  -3  -1  -2 8124.50 330.171   1
  -3  -1  -2 7857.81 341.748   4
  -3  -1  -2 7599.48 316.378   6
  -3  -1  -2 8196.55 362.285   3
   3   1   3 6.54509 25.8485   5
  -3  -1  -3 14.1218 39.5041   4
  -3  -1  -3 9.15401 41.7588   3
  -3  -1  -4 29705.7 951.825   4
  -3  -1  -4 29810.9 972.510   3
   3   1   4 28372.8 908.457   5
  -3  -1  -5 85559.3 2426.64   4
  -3  -1  -5 79444.5 2411.27   3
   3   1   5 86258.4 2381.79   5
  -3  -1  -6 11094.8 485.154   3
   3   1   6 10880.2 454.541   5
  -3  -1  -7 7926.33 404.374   3
   3   1   7 8496.63 396.826   5
   3   1   8 569.172 97.4346   5
  -3  -1  -8 569.284 104.210   3
   3   1   9 168.927 56.1902   5
  -3  -1  -9 143.315 60.6309   3
   3   1  10 1095.70 158.798   5
   3   1  11 28413.6 1075.51   5
   3   1  12 8577.64 504.313   5
   3   1  13 1008.01 173.960   5
   3   1  14 354.600 107.531   5
   3   1  15 565.341 139.616   5
   3   1  16 3488.56 366.311   5
   3   1  17 480.398 160.191   5
   3   1  18 468.924 151.832   5
   3   1  19-9.88442 74.3335   5
  -3  -2  15 1954.80 312.178   6
  -3  -2  14 341.524 159.793   6
  -3  -2  13 1271.39 236.333   6
  -3  -2  12 1663.69 262.823   6
  -3  -2  11 766.004 181.258   6
  -3  -2  10 7125.18 499.639   6
  -3  -2   9 5771.82 418.135   6
  -3  -2   8 34043.4 1271.29   6
  -3  -2   7 3871.59 312.852   6
  -3  -2   6 43547.0 1484.73   6
  -3  -2   5 27342.5 1005.85   6
  -3  -2   4 1056.60 147.450   6
   3   2  -3 643.128 80.1605   7
  -3  -2   3 729.731 119.504   6
  -3  -2   2 37938.4 1225.93   6
   3   2  -2 38359.2 1143.42   7
   3   2  -1 13517.1 462.874   7
  -3  -2   1 12911.6 523.957   6
  -3  -2   0 4552.88 255.719   6
  -3  -2   0 4416.71 228.075   1
  -3  -2  -1 33977.6 1070.43   6
  -3  -2  -1 33919.5 1024.69   1
  -3  -2  -2 609.774 72.9267   4
  -3  -2  -2 708.525 74.5112   1
  -3  -2  -2 554.512 77.5760   6
  -3  -2  -2 724.731 89.8627   3
   3   2   2 605.729 80.2735   5
  -3  -2  -3 8936.11 357.807   4
  -3  -2  -3 8223.95 376.341   3
   3   2   3 8469.55 369.439   5
  -3  -2  -4 1522.91 146.632   3
  -3  -2  -4 1397.97 125.220   4
   3   2   4 1393.51 132.722   5
  -3  -2  -5 606.648 90.2935   3
   3   2   5 567.472 95.0312   5
  -3  -2  -6 2032.82 182.792   3
   3   2   6 1872.31 165.743   5
   3   2   7 1251.77 139.823   5
  -3  -2  -7 1205.48 142.713   3
  -3  -2  -8 25751.4 944.205   3
   3   2   8 25748.8 943.895   5
   3   2   9 1927.11 198.605   5
  -3  -2  -9 1898.41 206.654   3
   3   2  10 11540.1 580.537   5
   3   2  11 52124.4 1760.44   5
   3   2  12 38.5718 70.0871   5
   3   2  13 1212.83 194.574   5
   3   2  14 566.634 151.366   5
   3   2  15 2091.94 279.472   5
   3   2  16 3773.14 403.935   5
   3   2  17-15.9119 94.7867   5
   3   2  18 32.8020 72.3237   5
   3   2  19 1286.17 264.175   5
  -3  -3  15-150.496 140.084   6
  -3  -3  14-29.2310 103.226   6
  -3  -3  13-69.6680 110.290   6
  -3  -3  12 57.6201 104.885   6
  -3  -3  11 917.381 216.473   6
  -3  -3  10 5.18647 114.954   6
  -3  -3   9 259.571 144.279   6
  -3  -3   8 112.460 116.799   6
  -3  -3   7 2734.20 272.177   6
  -3  -3   6 20618.2 855.564   6
  -3  -3   5 6301.28 391.999   6
   3   3  -4 199.305 62.6583   7
  -3  -3   4 83.1364 90.6621   6
   3   3  -3 25440.6 844.428   7
  -3  -3   3 22957.7 880.150   6
  -3  -3   2 31242.8 1094.69   6
   3   3  -2 34303.9 1061.27   7
   3   3  -1 35930.9 1033.54   7
  -3  -3   1 33726.6 1079.73   6
  -3  -3   0 20499.4 745.775   6
  -3  -3  -1 22186.0 779.345   6
  -3  -3  -1 22020.9 697.895   1
  -3  -3  -2 23440.2 695.415   4
   3   3   2 22509.8 783.825   5
  -3  -3  -2 22286.0 682.136   1
  -3  -3  -2 20997.4 760.325   3
  -3  -3  -3 47488.3 1379.01   4
  -3  -3  -3 47333.1 1448.63   3
   3   3   3 47322.9 1459.91   5
   3   3   4 1949.80 167.574   5
  -3  -3  -4 1740.90 157.790   3
  -3  -3  -5 19394.9 649.565   3
   3   3   5 19097.4 665.600   5
  -3  -3  -6 1666.58 167.929   3
   3   3   6 1971.09 183.171   5
   3   3   7 155.744 70.0194   5
  -3  -3  -7 104.356 66.7832   3
   3   3   8 879.737 130.004   5
  -3  -3  -8 789.703 135.618   3
   3   3   9 471.581 119.456   5
   3   3  10 4121.48 329.172   5
   3   3  11 2836.66 277.870   5
   3   3  12 4551.55 377.158   5
   3   3  13 1711.92 234.964   5
   3   3  14 2976.93 335.758   5
   3   3  15 441.199 135.958   5
   3   3  16 2879.59 354.929   5
   3   3  17 2690.01 350.076   5
   3   3  18 210.395 123.155   5
  -3  -4  15-11.9371 102.658   6
  -3  -4  14 3290.24 399.749   6
  -3  -4  13 2613.15 336.253   6
  -3  -4  12 6424.02 528.715   6
  -3  -4  11 381.347 136.764   6
  -3  -4  10 8536.60 568.697   6
  -3  -4   9 4378.67 385.871   6
  -3  -4   8 8970.29 547.552   6
  -3  -4   7 72187.4 2318.54   6
   3   4  -6 25996.1 960.737   7
  -3  -4   6 23500.7 978.358   6
   3   4  -5 5952.27 351.838   7
  -3  -4   5 5609.68 371.035   6
  -3  -4   4 7702.22 436.157   6
   3   4  -4 7524.95 400.751   7
   3   4  -3 6855.65 367.364   7
  -3  -4   3 6974.00 394.737   6
   3   4  -2 3787.03 248.396   7
  -3  -4   2 3317.25 260.458   6
   3   4  -1 43282.9 1366.77   7
  -3  -4   1 43353.9 1412.27   6
  -3  -4   0 25529.3 912.907   6
  -3  -4  -1 26266.3 940.669   6
  -3  -4  -1 27226.7 903.787   3
  -3  -4  -2 3575.67 157.572   4
  -3  -4  -2 3222.94 205.980   3
  -3  -4  -2 3233.03 141.015   1
   3   4   2 3644.78 243.120   5
  -3  -4  -3 7644.39 366.271   3
   3   4   3 7559.74 391.778   5
  -3  -4  -4 14205.0 555.079   3
   3   4   4 13766.7 586.126   5
  -3  -4  -5 2660.31 206.322   3
   3   4   5 2782.62 224.498   5
  -3  -4  -6 32231.7 1094.62   3
   3   4   6 33551.9 1151.89   5
  -3  -4  -7 7773.02 372.041   3
   3   4   7 7343.23 390.992   5
  -3  -4  -8 28579.0 1037.16   3
   3   4   8 28340.8 1064.93   5
   3   4   9 35754.5 1295.21   5
   3   4  10 277.708 110.833   5
   3   4  11 36110.0 1371.91   5
   3   4  12 8367.57 543.030   5
   3   4  13 1003.36 179.564   5
   3   4  14 123.284 86.1819   5
   3   4  15 3724.54 394.267   5
   3   4  16 75.4576 85.7941   5
   3   4  17 1194.54 242.534   5
   3   4  18-88.3794 109.796   5
  -3  -5  14 1600.20 300.928   6
  -3  -5  13 457.035 155.158   6
  -3  -5  12 300.649 143.326   6
  -3  -5  11 1561.92 258.637   6
  -3  -5  10 2009.80 282.414   6
   3   5  -9 266.852 110.290   7
  -3  -5   9 261.434 160.856   6
   3   5  -8 1906.64 235.685   7
  -3  -5   8 1703.05 246.937   6
   3   5  -7 1300.62 186.687   7
  -3  -5   7 1596.35 234.996   6
   3   5  -6 440.707 114.107   7
  -3  -5   6 506.561 128.159   6
   3   5  -5 30376.9 1098.33   7
  -3  -5   5 27825.8 1111.47   6
   3   5  -4 18470.9 761.445   7
  -3  -5   4 17359.5 767.733   6
   3   5  -3 12132.8 563.523   7
  -3  -5   3 11633.1 579.289   6
   3   5  -2 44263.2 1437.42   7
  -3  -5   2 42767.4 1462.51   6
  -3  -5   1 31271.5 1128.88   6
   3   5  -1 32458.2 1115.23   7
  -3  -5   0 478.759 117.661   6
  -3  -5  -1 7387.66 411.395   6
  -3  -5  -1 6824.78 333.228   3
  -3  -5  -2 20318.9 603.855   1
  -3  -5  -2 23313.3 754.634   3
   3   5   2 24129.4 838.820   5
  -3  -5  -3 24957.0 845.378   3
   3   5   3 24072.2 908.982   5
   3   5   4 1070.65 148.794   5
  -3  -5  -4 1200.48 127.504   3
  -3  -5  -5 36883.3 1184.04   3
   3   5   5 35632.7 1251.50   5
   3   5   6 2144.71 215.187   5
  -3  -5  -6 1791.39 173.950   3
   3   5   7 5133.91 361.989   5
  -3  -5  -7 5391.10 332.707   3
   3   5   8 4487.83 340.507   5
   3   5   9 80.2372 71.1089   5
   3   5  10 2456.75 266.066   5
   3   5  11 649.989 149.592   5
   3   5  12 487.322 145.289   5
   3   5  13 135.812 99.1382   5
   3   5  14 2227.15 295.137   5
   3   5  15 4214.80 435.496   5
   3   5  16 812.722 188.530   5
   3   5  17 4166.68 464.123   5
   3   6 -14 1050.38 229.714   7
  -3  -6  14 1204.74 267.618   6
   3   6 -13 519.956 174.495   7
  -3  -6  13 705.675 219.802   6
  -3  -6  12 4660.53 486.342   6
   3   6 -12 4483.53 446.150   7
   3   6 -11 3437.83 374.344   7
  -3  -6  11 3495.06 408.615   6
   3   6 -10 1531.05 238.982   7
  -3  -6  10 1429.01 256.726   6
   3   6  -9 8301.14 566.329   7
  -3  -6   9 8401.50 594.681   6
   3   6  -8 315.111 115.795   7
  -3  -6   8-47.6238 131.038   6
   3   6  -7 33003.1 1285.29   7
  -3  -6   7 33364.9 1321.87   6
   3   6  -6 1179.32 184.132   7
  -3  -6   6 1126.58 195.394   6
   3   6  -5 498.141 117.468   7
  -3  -6   5 515.194 145.111   6
   3   6  -4 15337.0 713.271   7
  -3  -6   4 15003.8 724.025   6
  -3  -6   3 4729.85 362.290   6
   3   6  -3 5371.08 368.990   7
  -3  -6   2 28303.6 1088.30   6
   3   6  -2 26686.2 1030.37   7
  -3  -6   1 2162.31 230.466   6
  -3  -6   0 6312.40 405.448   6
  -3  -6   0 6359.98 322.927   3
  -3  -6  -1 3665.58 305.611   6
  -3  -6  -1 3245.29 205.610   3
  -3  -6  -2 6009.64 305.595   3
   3   6   2 5620.74 367.128   5
   3   6   3 474.724 111.767   5
  -3  -6  -3 484.668 77.3284   3
  -3  -6  -4 22441.1 788.571   3
   3   6   4 22340.8 895.070   5
  -3  -6  -5 9992.09 446.258   3
   3   6   5 9920.56 528.600   5
   3   6   6 818.436 154.363   5
  -3  -6  -6 865.207 125.482   3
   3   6   7 12945.2 650.607   5
   3   6   8 11541.0 618.363   5
   3   6   9 22122.4 969.976   5
   3   6  10 2671.29 287.185   5
   3   6  11 761.197 181.373   5
   3   6  12 1491.01 228.640   5
   3   6  13 2324.88 298.631   5
   3   6  14 426.154 137.940   5
   3   6  15 1466.64 258.621   5
   3   6  16 612.102 164.552   5
   3   7 -13 1214.15 252.410   7
  -3  -7  13 1499.64 300.211   6
   3   7 -12 253.253 135.293   7
  -3  -7  12 227.638 165.264   6
   3   7 -11 961.452 208.831   7
  -3  -7  11 1089.10 257.494   6
   3   7 -10 447.567 140.478   7
  -3  -7  10 29.9466 153.240   6
   3   7  -9-34.4846 90.0951   7
  -3  -7   9 225.584 157.388   6
   3   7  -8 500.566 145.175   7
  -3  -7   8 333.158 130.341   6
   3   7  -7 10638.1 647.658   7
  -3  -7   7 11488.2 692.399   6
   3   7  -6 350.629 115.009   7
  -3  -7   6 601.406 160.156   6
   3   7  -5 622.634 144.578   7
  -3  -7   5 369.363 129.707   6
   3   7  -4 4686.03 379.195   7
  -3  -7   4 4886.47 397.120   6
   3   7  -3 1469.29 198.197   7
  -3  -7   3 1257.15 211.758   6
   3   7  -2 2349.06 250.369   7
  -3  -7   2 2587.79 285.524   6
  -3  -7   1 11872.1 625.540   6
  -3  -7   1 10736.3 467.966   3
  -3  -7   0 2150.27 161.893   3
  -3  -7   0 2393.70 254.378   6
  -3  -7  -1 415.988 122.934   6
  -3  -7  -1 361.467 70.1454   3
  -3  -7  -2 6593.12 315.256   3
   3   7   2 7804.76 452.049   5
  -3  -7  -3 27227.2 909.240   3
   3   7   3 28977.0 1083.35   5
   3   7   4 396.207 115.736   5
  -3  -7  -4 388.820 71.5205   3
   3   7   5 11314.8 602.314   5
  -3  -7  -5 11121.1 480.844   3
   3   7   6 5333.49 391.857   5
   3   7   7 12725.0 665.251   5
   3   7   8 9146.43 558.534   5
   3   7   9 275.742 101.441   5
   3   7  10 1894.16 246.088   5
   3   7  11 845.061 178.155   5
   3   7  12 682.684 170.447   5
   3   7  13 123.950 99.1845   5
   3   7  14 203.898 88.3666   5
   3   7  15 968.461 208.196   5
   3   8 -12 195.655 118.317   7
  -3  -8  12-45.1394 143.012   6
   3   8 -11 1690.14 284.539   7
  -3  -8  11 1725.49 329.407   6
   3   8 -10 1514.17 259.490   7
  -3  -8  10 1493.47 272.980   6
   3   8  -9 2261.31 310.904   7
  -3  -8   9 2412.62 349.261   6
   3   8  -8 194.574 84.7143   7
  -3  -8   8 305.249 173.280   6
   3   8  -7 2924.51 341.222   7
  -3  -8   7 3300.18 374.831   6
   3   8  -6 2313.45 291.762   7
  -3  -8   6 2171.22 297.761   6
   3   8  -5 476.842 128.848   7
  -3  -8   5 446.616 162.571   6
   3   8  -4 1589.24 226.914   7
  -3  -8   4 1496.30 238.722   6
   3   8  -3 964.456 188.785   7
  -3  -8   3 933.912 175.676   6
  -3  -8   2 2876.30 317.829   6
  -3  -8   1 5357.29 429.703   6
  -3  -8   0 50.4195 63.9770   6
  -3  -8  -1 415.249 130.478   6
   3   8   2 1085.85 177.070   5
   3   8   3 837.244 166.079   5
   3   8   4 64.7736 68.3023   5
   3   8   5 13933.3 718.161   5
   3   8   6 2446.14 272.322   5
   3   8   7 3590.73 338.801   5
   3   8   8 2005.52 259.913   5
   3   8   9 2469.84 298.777   5
   3   8  10 1922.48 268.257   5
   3   8  11 942.799 190.785   5
   3   8  12 142.657 100.424   5
   3   8  13 1219.21 237.173   5
   3   8  14 506.249 149.882   5
  -3  -9  11 630.802 225.085   6
   3   9 -10 1219.84 249.704   7
  -3  -9  10 1184.33 276.875   6
   3   9  -9 298.707 128.789   7
  -3  -9   9 135.537 130.818   6
   3   9  -8 896.709 211.401   7
  -3  -9   8 1072.82 243.745   6
   3   9  -7 733.706 181.763   7
  -3  -9   7 907.760 240.482   6
   3   9  -6-76.8066 88.5029   7
  -3  -9   6-262.457 161.975   6
   3   9  -5 348.193 120.605   7
  -3  -9   5 825.096 198.403   6
   3   9  -4-20.1761 69.4718   7
  -3  -9   4-28.7110 113.003   6
  -3  -9   3 847.384 216.085   6
  -3  -9   2 68.5186 92.0691   6
  -3  -9   1 396.907 154.309   6
  -3  -9   0 413.193 145.290   6
  -3  -9  -1 346.453 133.287   6
  -3  -9  -2 77.3379 65.5300   6
   3   9   3 20683.6 946.305   5
   3   9   4 822.013 166.764   5
   3   9   5 420.226 129.628   5
   3   9   6 135.526 92.9134   5
   3   9   7 698.558 167.025   5
   3   9   8 9989.24 645.142   5
   3   9   9 77.9177 89.2401   5
   3   9  10 92.8619 97.3949   5
   3   9  11 208.056 123.756   5
   3   9  12 537.651 158.899   5
   3   9  13 224.963 105.076   5
  -3 -10   9 71.0280 176.352   6
   3  10  -8-40.7540 95.5722   7
  -3 -10   8 0.97468 111.637   6
  -3 -10   7 27.6371 127.421   6
   3  10  -7 108.700 99.2045   7
   3  10  -6 200.335 108.315   7
  -3 -10   6 132.804 149.834   6
   3  10  -5 798.750 174.709   7
  -3 -10   5 904.069 218.266   6
  -3 -10   4 390.362 188.272   6
  -3 -10   3 118.388 161.864   6
  -3 -10   2-45.3318 82.1414   6
  -3 -10   1 424.244 164.794   6
  -3 -10   0 3706.81 406.642   6
  -3 -10  -1 1431.56 254.050   6
  -3 -10  -2 2655.60 347.875   6
  -3 -10  -3-141.866 101.864   6
   3  10   3 230.644 98.0387   5
   3  10   4 8220.83 571.853   5
   3  10   5 22.7185 93.1894   5
   3  10   6 665.087 162.956   5
   3  10   7 3809.32 397.017   5
   3  10   8-30.8131 84.1954   5
   3  10   9 375.624 134.517   5
   3  10  10 103.272 103.559   5
   3  10  11 6.44821 79.9538   5
  -3 -11   7-84.2585 138.126   6
  -3 -11   6 1148.37 263.160   6
  -3 -11   5 1218.39 266.598   6
  -3 -11   4-32.3978 131.595   6
  -3 -11   3 925.003 239.835   6
  -3 -11   2 643.669 221.242   6
  -3 -11   1-123.120 155.068   6
  -3 -11   0 769.651 211.760   6
  -3 -11  -1-6.94791 101.900   6
  -3 -11  -2 851.747 217.571   6
  -3 -11  -3 635.705 173.345   6
  -3 -11  -4 742.356 194.289   6
   3  11   4 671.373 156.880   5
   3  11   5 317.646 150.708   5
   3  11   6 366.336 135.082   5
   3  11   7-125.545 94.7298   5
   3  11   8 1591.00 270.084   5
  -3 -12   4 507.484 204.071   6
  -3 -12   3 37.0222 101.384   6
  -3 -12   2 73.3839 144.357   6
  -3 -12   1 490.013 203.242   6
  -3 -12   0 2073.59 353.106   6
  -3 -12  -1 633.348 203.190   6
  -3 -12  -2 1790.87 324.793   6
  -3 -12  -3 58.9555 88.1996   6
  -3 -12  -4 990.818 247.851   6
  -3 -12  -5 1896.09 352.030   6
  -4   9   2 264.752 119.635   2
  -4   9   1 90.3553 86.8116   2
  -4   9   0 196.621 116.687   2
  -4   9  -1 154.411 98.8396   2
  -4   9  -2 23.0623 97.1814   2
  -4   9  -3 251.697 99.1209   2
  -4   9  -4 249.354 131.723   2
  -4   9  -5 250.940 135.757   2
  -4   9  -6 1996.91 303.953   2
  -4   9  -7 91.2736 102.316   2
  -4   8   7 84.3773 88.7168   2
  -4   8   6 85.8705 94.5831   2
  -4   8   5 177.300 86.7157   2
  -4   8   4 3394.74 379.303   2
  -4   8   3-63.4455 109.819   2
  -4   8   2 975.570 197.378   2
  -4   8   1 2969.23 350.153   2
  -4   8   0 1161.40 214.858   2
  -4   8  -1 242.771 119.400   2
  -4   8  -2 521.800 163.317   2
  -4   8  -3 241.769 98.4768   2
  -4   8  -4 117.750 99.2491   2
  -4   8  -5 601.756 168.832   2
  -4   8  -6 1420.11 238.435   2
  -4   8  -7 749.844 186.595   2
  -4   8  -8 430.771 140.598   2
  -4   8  -9 162.662 117.722   2
  -4   8  -9 152.682 90.0225   7
  -4   8 -10 797.781 185.432   7
  -4   8 -10 1191.30 218.396   2
  -4   8 -11 90.6662 75.5536   2
  -4   8 -11-19.5406 68.9735   7
  -4   8 -12 1083.06 235.185   7
  -4   7   9 470.591 144.202   1
  -4   7   8-8.86867 67.3763   1
  -4   7   7 1461.92 242.642   1
  -4   7   7 1458.06 232.960   2
  -4   7   6 202.324 98.8211   1
  -4   7   6 250.483 87.9255   2
  -4   7   5 2.08780 69.6715   2
  -4   7   4 1906.81 262.469   2
  -4   7   3 1083.19 211.052   2
  -4   7   2 2661.51 308.469   2
  -4   7   1 240.331 116.903   2
  -4   7   0 191.268 117.071   2
  -4   7  -1 10.7896 86.5999   2
  -4   7  -2-37.6236 89.0913   2
  -4   7  -3 262.032 117.437   2
  -4   7  -4 32.8218 71.3723   2
  -4   7  -5-26.4247 40.3734   7
  -4   7  -5-49.2596 91.5946   2
  -4   7  -6 68.0458 74.5696   7
  -4   7  -6 329.289 123.778   2
  -4   7  -7 137.707 75.0669   7
  -4   7  -7 397.634 121.743   2
  -4   7  -8 365.257 116.234   7
  -4   7  -8 396.978 135.467   2
  -4   7  -9-46.5043 63.0721   7
  -4   7  -9 41.3014 71.0926   2
  -4   7 -10 247.898 115.020   7
  -4   7 -10 134.197 74.3554   2
  -4   7 -11 699.549 178.596   7
  -4   7 -11 717.391 173.572   2
  -4   7 -12 177.427 95.0395   7
  -4   7 -13-18.1882 61.5410   7
  -4   6  10 882.786 192.880   1
  -4   6   9 112.523 61.5017   1
  -4   6   8 1154.47 223.258   1
  -4   6   7-166.273 104.879   1
  -4   6   7 109.453 81.1378   2
  -4   6   6 2506.24 293.408   1
  -4   6   6 2207.75 274.913   2
  -4   6   5 989.609 176.984   1
  -4   6   5 722.365 167.302   2
  -4   6   4 135.850 87.6384   1
  -4   6   4 116.902 68.5639   2
  -4   6   3-137.984 89.7219   2
  -4   6   2 63.9012 60.5077   2
  -4   6   1 224.380 97.6574   2
  -4   6   0 924.858 171.107   2
  -4   6  -1 17.4694 84.5274   2
  -4   6  -2 409.930 108.375   2
  -4   6  -3 16.1294 84.5998   2
  -4   6  -4 190.962 78.7393   7
  -4   6  -4 494.351 137.345   2
  -4   6  -5 303.040 95.3323   7
  -4   6  -5 286.398 81.9831   2
  -4   6  -6 2109.57 262.557   2
  -4   6  -6 1463.21 197.149   7
  -4   6  -7 420.768 113.919   7
  -4   6  -7 399.144 126.280   2
  -4   6  -8 909.092 172.474   7
  -4   6  -8 1294.34 213.871   2
  -4   6  -9 1273.90 204.396   7
  -4   6  -9 1548.17 227.046   2
  -4   6 -10 1941.56 263.665   7
  -4   6 -10 1937.71 262.627   2
  -4   6 -11 3535.33 366.413   7
  -4   6 -11 3608.87 356.146   2
  -4   6 -12 593.063 155.575   7
  -4   6 -13 904.697 197.232   7
  -4   6 -14 1253.55 242.264   7
  -4   6 -14 1110.05 235.708   4
  -4   6 -15 261.928 135.298   7
  -4   5  11 2281.29 319.828   1
  -4   5  10-81.3757 113.652   1
  -4   5   9 2730.30 324.130   1
  -4   5   8 1140.96 215.195   1
  -4   5   7 2320.36 265.766   2
  -4   5   7 2457.96 296.780   1
  -4   5   6 3477.57 344.055   1
  -4   5   6 4062.22 344.824   2
  -4   5   5 921.058 169.090   1
  -4   5   5 1031.44 170.970   2
  -4   5   4 2099.44 247.840   1
  -4   5   4 2303.78 262.455   2
  -4   5   3 2400.34 264.950   1
  -4   5   3 2696.54 278.981   2
  -4   5   2 5165.95 404.314   1
  -4   5   2 5690.22 413.557   2
  -4   5   2 5108.26 336.490   3
  -4   5   1 155.218 97.4624   2
  -4   5   1 74.0268 51.2981   3
  -4   5   0 178.608 93.8335   2
  -4   5   0 150.847 52.4472   3
  -4   5  -1 7707.52 488.371   2
  -4   5  -1 7693.38 407.453   3
  -4   5  -2 1153.21 140.241   3
  -4   5  -2 1303.31 180.600   2
  -4   5  -3-17.2113 40.9975   3
  -4   5  -3 83.0392 75.1443   2
  -4   5  -4 2659.93 232.747   7
  -4   5  -4 3037.83 290.418   2
  -4   5  -4 2450.43 215.956   3
  -4   5  -5 472.807 105.363   3
  -4   5  -5 426.048 103.521   7
  -4   5  -5 514.050 125.483   2
  -4   5  -6 1285.53 162.527   3
  -4   5  -6 1450.84 181.121   7
  -4   5  -6 1524.06 209.339   2
  -4   5  -7 9512.20 535.645   7
  -4   5  -7 10370.6 592.187   2
  -4   5  -7 10517.8 535.290   3
  -4   5  -8 54.7742 50.2807   3
  -4   5  -8 91.4860 71.2482   7
  -4   5  -8 42.5274 67.3529   2
  -4   5  -9 315.447 110.800   7
  -4   5  -9 351.323 115.790   2
  -4   5 -10-1.58994 72.1432   7
  -4   5 -10 99.5704 79.7608   2
  -4   5 -11 893.367 184.223   4
  -4   5 -11 904.980 174.748   2
  -4   5 -12 475.315 140.307   4
  -4   5 -13 1491.20 250.625   4
  -4   5 -14-13.5783 68.7069   4
  -4   5 -15 620.620 181.347   4
  -4   4  13 1208.14 225.846   5
  -4   4  12 81.9411 79.1105   5
  -4   4  12 240.869 123.055   1
  -4   4  11 1101.01 199.362   5
  -4   4  11 1021.49 200.175   1
  -4   4  10 5038.39 429.171   1
  -4   4  10 3751.36 354.472   5
  -4   4   9 1034.58 173.247   5
  -4   4   9 944.978 193.192   1
  -4   4   8 2824.71 303.825   1
  -4   4   8 2693.85 267.629   2
  -4   4   8 2562.41 263.841   5
  -4   4   7 1178.67 193.626   1
  -4   4   7 1388.93 182.023   5
  -4   4   7 1303.77 186.291   2
  -4   4   6 1346.65 169.590   5
  -4   4   6 1729.80 231.313   1
  -4   4   6 1545.18 197.593   2
  -4   4   5 1749.22 224.229   1
  -4   4   5 2180.32 242.181   2
  -4   4   5 2037.35 197.041   5
  -4   4   4 114.259 88.3542   2
  -4   4   4 65.7981 84.1875   1
  -4   4   3 3103.44 279.242   1
  -4   4   2 136.572 86.9010   1
  -4   4   1 2256.97 207.970   3
  -4   4   1 2103.58 229.322   1
  -4   4   0 304.875 71.6728   3
  -4   4  -1 3228.07 233.129   3
  -4   4  -2-100.609 67.9368   3
  -4   4  -3 9758.16 452.897   7
  -4   4  -3 11280.2 509.456   3
  -4   4  -4 1115.70 141.508   3
  -4   4  -4 1127.39 134.086   7
  -4   4  -5 3975.17 277.640   7
  -4   4  -5 4163.44 290.702   3
  -4   4  -6 2104.38 207.562   3
  -4   4  -6 1870.04 191.629   7
  -4   4  -7 5086.41 349.028   7
  -4   4  -7 5901.48 366.905   3
  -4   4  -8 2145.53 229.963   3
  -4   4  -8 2520.81 267.903   2
  -4   4  -9 390.595 111.148   3
  -4   4  -9 422.964 124.557   4
  -4   4  -9 262.124 97.0978   2
  -4   4 -10 3576.74 317.469   2
  -4   4 -10 3928.29 362.217   4
  -4   4 -11 2411.20 262.726   2
  -4   4 -11 2701.74 301.552   4
  -4   4 -12 2509.00 300.225   4
  -4   4 -12 1954.45 235.148   2
  -4   4 -13 80.0188 90.2174   4
  -4   4 -14 45.0492 79.0519   4
  -4   4 -15 1340.61 238.261   4
  -4   4 -16 70.8797 91.5475   4
  -4   3  13 13.6586 69.2537   5
  -4   3  13 63.1636 84.1181   1
  -4   3  12 490.491 147.119   5
  -4   3  12 423.031 130.625   1
  -4   3  11 724.441 157.130   5
  -4   3  11 822.243 189.728   1
  -4   3  10 158.389 64.2683   5
  -4   3  10 395.655 154.738   1
  -4   3   9 280.452 93.7594   5
  -4   3   9 304.110 139.266   1
  -4   3   8 3027.90 266.897   2
  -4   3   8 3791.48 340.392   1
  -4   3   8 3016.09 282.674   5
  -4   3   7 4134.82 316.442   2
  -4   3   7 4075.74 340.404   1
  -4   3   7 3799.87 307.118   5
  -4   3   6 650.509 115.399   5
  -4   3   6 781.746 169.215   1
  -4   3   5 3170.42 282.157   1
  -4   3   5 2751.33 228.476   5
  -4   3   4 7516.04 448.849   1
  -4   3   4 7058.83 367.354   5
  -4   3   3 3662.02 232.964   5
  -4   3   3 3447.73 292.099   1
  -4   3   2 4776.14 340.989   1
  -4   3   2 4650.97 248.160   5
  -4   3   1 1404.14 171.031   1
  -4   3   1 1261.10 102.825   5
  -4   3   0 3180.84 253.826   1
  -4   3   0 2875.40 234.061   3
  -4   3  -1 3886.74 262.811   3
  -4   3  -2 36577.8 1207.03   3
  -4   3  -3 5423.26 283.215   7
  -4   3  -3 6600.36 362.239   3
  -4   3  -4 3265.51 215.216   7
  -4   3  -4 3586.83 258.493   3
  -4   3  -5 33171.2 1099.89   3
  -4   3  -5 29806.3 1031.76   7
  -4   3  -6 741.291 122.315   3
  -4   3  -7 11485.4 610.993   4
  -4   3  -7 12349.7 579.940   3
  -4   3  -8 174.796 68.7530   3
  -4   3  -8 79.9690 65.9738   4
  -4   3  -9-27.0731 68.7526   3
  -4   3  -9 94.4019 55.5972   4
  -4   3 -10 142.508 79.2845   3
  -4   3 -10 187.636 100.364   4
  -4   3 -11 1780.86 220.310   2
  -4   3 -11 1634.28 225.104   4
  -4   3 -12-174.647 116.726   4
  -4   3 -12-89.5742 69.9365   2
  -4   3 -13 782.729 176.382   4
  -4   3 -14 508.823 157.110   4
  -4   3 -15 204.950 121.719   4
  -4   3 -16 1311.91 253.311   4
  -4   2  14 16.9539 67.5101   5
  -4   2  13 1290.65 230.330   5
  -4   2  13 1971.14 304.133   1
  -4   2  12 584.239 166.594   5
  -4   2  12 732.721 173.823   1
  -4   2  11 504.328 137.732   5
  -4   2  11 376.097 126.284   1
  -4   2  10 9378.77 604.711   1
  -4   2  10 8923.07 560.629   5
  -4   2   9 2041.16 245.235   5
  -4   2   9 2121.91 250.851   1
  -4   2   8 9646.87 571.684   1
  -4   2   8 9194.81 530.756   5
  -4   2   7 204.626 83.6293   5
  -4   2   7 196.531 89.3762   1
  -4   2   6 2277.09 219.697   5
  -4   2   6 2325.21 248.196   1
  -4   2   5 53342.9 1757.04   1
  -4   2   5 51506.9 1652.60   5
  -4   2   4 510.870 94.2563   5
  -4   2   4 603.306 109.181   6
  -4   2   4 596.930 120.840   1
  -4   2   3 5946.85 332.079   6
  -4   2   3 5728.93 369.497   1
  -4   2   3 5534.95 299.811   5
  -4   2   2 1359.72 122.926   5
  -4   2   2 1122.36 126.979   6
  -4   2   2 1238.97 163.583   1
  -4   2   1 523.179 68.1038   5
  -4   2   1 580.117 109.988   1
  -4   2   0 202.224 36.5201   5
  -4   2   0 325.208 88.0340   1
  -4   2  -1 3757.95 259.130   1
  -4   2  -1 3116.27 230.152   3
  -4   2  -1 2323.78 96.7465   5
  -4   2  -2 11240.6 500.509   3
  -4   2  -3 4162.02 210.269   7
  -4   2  -3 4683.24 292.496   3
  -4   2  -4 998.811 131.410   3
  -4   2  -4 840.198 92.6780   7
  -4   2  -5 1131.08 140.073   3
  -4   2  -6 105.332 46.9797   3
  -4   2  -6 266.249 111.971   4
  -4   2  -7 6417.84 415.095   4
  -4   2  -7 7160.07 409.289   3
  -4   2  -8 28163.5 1080.65   4
  -4   2  -8 27440.3 1032.70   3
  -4   2  -9-23.1586 70.1503   3
  -4   2  -9 74.5444 92.1158   4
  -4   2 -10 1332.64 185.832   3
  -4   2 -10 1270.46 183.720   4
  -4   2 -11 4209.88 367.589   4
  -4   2 -12 69.2825 66.9701   4
  -4   2 -13 5016.60 433.735   4
  -4   2 -14 363.785 125.742   4
  -4   2 -15 665.353 160.604   4
  -4   2 -16 51.9528 64.7433   4
  -4   2 -17 1809.24 296.523   4
  -4   1  14 2336.05 331.674   5
  -4   1  14 2745.66 362.117   1
  -4   1  13 1602.01 264.019   5
  -4   1  13 2109.24 303.646   1
  -4   1  12 89.5444 69.0885   5
  -4   1  12-4.47150 91.2363   1
  -4   1  11 242.024 120.163   5
  -4   1  11 364.204 120.789   1
  -4   1  10 239.670 113.271   1
  -4   1  10 275.195 104.659   5
  -4   1  10 294.662 109.991   6
  -4   1   9 32.0886 80.7878   1
  -4   1   9 279.911 117.582   5
  -4   1   9 110.560 94.4418   6
  -4   1   8-77.1713 84.2780   1
  -4   1   8-2.69352 84.0328   6
  -4   1   7 1038.19 170.575   1
  -4   1   7 931.191 171.956   6
  -4   1   6 3.10295 102.627   1
  -4   1   6-26.5030 82.2014   6
  -4   1   5 2898.66 245.327   6
  -4   1   5 3295.41 270.738   1
  -4   1   4 190.779 79.9187   6
  -4   1   4 25.7792 66.2876   1
  -4   1   3 5592.34 326.365   6
  -4   1   3 5771.65 360.070   1
  -4   1   2 4652.41 278.708   6
  -4   1   2 4784.14 317.668   1
  -4   1   1 12436.6 496.052   6
  -4   1   1 12639.8 581.790   1
  -4   1   0 2875.03 182.871   6
  -4   1   0 2975.89 239.124   1
  -4   1  -1 542.504 72.5590   6
  -4   1  -1 430.156 81.7643   1
  -4   1  -1 528.383 100.099   3
  -4   1  -2 28250.1 898.941   1
  -4   1  -2 26575.6 712.379   6
  -4   1  -2 25935.6 863.127   3
  -4   1  -3 35410.6 1034.66   7
  -4   1  -3 36086.6 1006.98   6
  -4   1  -3 37107.9 1193.27   3
  -4   1  -4 370.990 88.0639   3
  -4   1  -5 13968.8 624.235   4
  -4   1  -5 14038.8 602.042   3
  -4   1  -6 1328.84 152.259   3
  -4   1  -6 973.022 62.2696   6
  -4   1  -6 1260.90 168.373   4
   4  -1   6 1085.98 79.6642   5
  -4   1  -7 24553.0 931.578   4
  -4   1  -7 25753.0 922.530   3
   4  -1   7 22486.8 739.451   5
  -4   1  -8 2129.98 216.656   3
  -4   1  -8 2171.68 223.117   4
   4  -1   8 1952.04 152.863   5
  -4   1  -9 3603.13 307.029   4
  -4   1  -9 3576.07 291.528   3
   4  -1   9 3260.71 220.267   5
   4  -1  10 261.790 71.9034   5
  -4   1 -10 134.177 59.6208   3
  -4   1 -10 511.074 140.684   4
   4  -1  11-1.63229 37.4243   5
  -4   1 -11 151.528 79.7468   4
   4  -1  12 245.013 88.1543   5
  -4   1 -12-33.5127 82.6855   4
  -4   1 -13-42.3274 65.9978   4
  -4   1 -14 40.8924 67.3976   4
  -4   1 -15 705.252 173.156   4
  -4   1 -16-56.3000 92.4995   4
  -4   1 -17 366.590 149.344   4
  -4   0  14 157.455 132.858   5
  -4   0  13-41.5540 138.938   5
  -4   0  13 68.8209 118.204   6
  -4   0  12 1839.65 296.668   5
  -4   0  12 1622.43 260.682   6
  -4   0  11 256.013 122.038   6
  -4   0  10 12468.6 712.324   6
  -4   0   9 3472.95 331.730   6
  -4   0   8 8051.28 503.473   6
  -4   0   7 3002.51 294.069   6
  -4   0   6 26828.5 1049.25   6
  -4   0   6 28232.9 1073.28   1
  -4   0   5 36770.5 1361.55   6
  -4   0   5 42844.0 1401.00   1
  -4   0   4 1834.96 199.822   1
  -4   0   4 1352.52 164.761   6
  -4   0   3 151.042 64.8100   1
  -4   0   3 147.108 91.0946   6
  -4   0   2 77.1517 70.8273   6
  -4   0   2-13.6116 60.0062   1
  -4   0   1 1282.13 134.426   6
  -4   0   1 1221.46 151.398   1
  -4   0   0 34097.8 1119.64   6
  -4   0   0 39110.5 1216.06   1
  -4   0  -1 1530.65 125.796   6
  -4   0  -1 1248.30 140.502   1
  -4   0  -2 964.356 128.107   1
  -4   0  -2 1212.72 102.826   6
  -4   0  -2 719.330 119.296   3
  -4   0  -3 2503.83 143.500   6
  -4   0  -3 2199.23 189.842   3
  -4   0  -4 594.527 107.115   4
  -4   0  -4 636.495 68.1086   6
  -4   0  -4 596.231 109.744   3
  -4   0  -5 165.297 62.1230   3
  -4   0  -5 181.912 63.9818   4
  -4   0  -5 105.222 36.6171   6
   4   0   5 136.235 40.2309   5
  -4   0  -6 7910.96 418.443   4
  -4   0  -6 8114.76 408.658   3
   4   0   6 7102.46 318.066   5
  -4   0  -7 3401.91 271.465   4
  -4   0  -7 3587.29 268.145   3
   4   0   7 3183.26 207.868   5
  -4   0  -8 28201.0 1042.22   4
  -4   0  -8 27845.5 1018.62   3
   4   0   8 26451.0 913.723   5
  -4   0  -9 13711.7 654.825   4
  -4   0  -9 13260.1 629.078   3
   4   0   9 13340.7 568.394   5
   4   0  10 1082.51 140.985   5
  -4   0 -10 1261.87 181.741   3
  -4   0 -10 1309.01 188.965   4
  -4   0 -11 5573.49 409.508   4
  -4   0 -11 5976.08 413.633   3
   4   0  11 5089.35 348.738   5
   4   0  12 1383.02 187.596   5
  -4   0 -12 1818.47 245.014   4
   4   0  13 1038.49 168.444   5
  -4   0 -13 1080.27 200.940   4
   4   0  14 517.174 131.909   5
  -4   0 -14 724.436 162.940   4
   4   0  15 212.668 94.9533   5
  -4   0 -15 216.196 114.702   4
   4   0  16 376.964 144.345   5
  -4   0 -16 693.880 205.100   4
  -4   0 -17 3009.30 378.094   4
  -4   0 -18 454.066 148.038   4
  -4  -1  14 180.534 134.054   6
  -4  -1  13 1544.35 260.921   6
  -4  -1  12 689.278 188.843   6
  -4  -1  11 6091.38 492.925   6
  -4  -1  10 1009.71 206.827   6
  -4  -1   9 1049.91 195.094   6
  -4  -1   8 1063.65 196.559   6
  -4  -1   7 6375.40 440.776   6
  -4  -1   6 2024.03 225.412   6
  -4  -1   5 1935.26 219.799   6
  -4  -1   4 14201.7 648.965   6
  -4  -1   4 16365.0 686.680   1
   4   1  -3 722.319 67.7933   7
  -4  -1   3 853.489 134.944   1
  -4  -1   3 890.775 140.285   6
  -4  -1   2 34.9908 53.2806   1
  -4  -1   2 108.427 89.7802   6
  -4  -1   1 148.794 69.7896   6
  -4  -1   1 224.108 71.8510   1
  -4  -1   0 2515.84 186.440   6
  -4  -1   0 2345.11 195.094   1
  -4  -1  -1 2023.28 156.108   6
  -4  -1  -1 1896.90 178.880   1
  -4  -1  -2 15751.2 558.208   1
  -4  -1  -2 17084.1 539.051   6
  -4  -1  -2 15728.1 597.370   3
  -4  -1  -3 2824.69 180.034   6
  -4  -1  -3 2402.05 197.739   3
  -4  -1  -4 3507.46 244.685   4
  -4  -1  -4 3781.97 214.243   6
  -4  -1  -4 3544.97 251.731   3
   4   1   4 3563.24 209.353   5
  -4  -1  -5 5549.72 322.250   4
  -4  -1  -5 5587.74 327.286   3
   4   1   5 5321.41 274.827   5
  -4  -1  -6 15982.8 659.576   4
  -4  -1  -6 15698.8 643.915   3
   4   1   6 15406.0 586.032   5
  -4  -1  -7 19446.8 771.813   4
  -4  -1  -7 19249.5 769.187   3
   4   1   7 19027.4 708.255   5
  -4  -1  -8 10815.9 530.245   4
  -4  -1  -8 10576.8 521.424   3
   4   1   8 9988.87 469.579   5
  -4  -1  -9 3827.66 301.370   4
  -4  -1  -9 3851.72 295.541   3
   4   1   9 3804.88 275.812   5
   4   1  10 250.639 79.1584   5
  -4  -1 -10 160.783 87.1025   3
  -4  -1 -10 509.134 132.487   4
   4   1  11 2046.32 215.656   5
  -4  -1 -11 2298.38 249.488   3
   4   1  12 13987.3 686.395   5
   4   1  13 909.701 157.998   5
   4   1  14 106.697 78.0393   5
   4   1  15 64.6801 54.4431   5
   4   1  16 5350.91 466.290   5
   4   1  17 78.7123 95.9767   5
   4   1  18 6.76594 52.0456   5
  -4  -2  14 398.205 174.274   6
  -4  -2  13-253.745 129.461   6
  -4  -2  12 249.948 125.075   6
  -4  -2  11 257.317 139.674   6
  -4  -2  10 231.486 132.649   6
  -4  -2   9-126.053 147.962   6
  -4  -2   8 5.61333 90.4612   6
  -4  -2   7 9193.97 540.235   6
  -4  -2   6 16121.7 768.738   6
  -4  -2   5 1298.06 199.127   6
   4   2  -4 9468.57 400.826   7
  -4  -2   4 9745.66 520.186   6
   4   2  -3 1112.27 106.261   7
  -4  -2   3 1261.51 174.122   6
   4   2  -2 6731.89 282.257   7
  -4  -2   2 6186.88 349.872   1
  -4  -2   2 6884.07 383.178   6
  -4  -2   1 11379.7 508.175   6
  -4  -2   1 11303.9 493.219   1
  -4  -2   0 32802.9 1073.29   6
  -4  -2   0 31465.5 1049.65   1
  -4  -2  -1 108400. 3086.64   6
  -4  -2  -1 108685. 3064.37   1
  -4  -2  -2 21888.9 752.603   1
  -4  -2  -2 22556.9 783.291   6
  -4  -2  -2 21541.5 804.354   3
  -4  -2  -3 1584.99 136.506   1
  -4  -2  -3 1582.37 147.629   4
  -4  -2  -3 1533.41 144.010   6
  -4  -2  -3 1568.34 157.293   3
  -4  -2  -4 8072.39 384.732   4
  -4  -2  -4 8279.17 419.711   3
   4   2   4 8183.91 380.171   5
  -4  -2  -5 6.36957 50.5880   3
   4   2   5 63.0467 41.5951   5
  -4  -2  -5 83.5400 49.6220   4
  -4  -2  -6 3797.61 260.749   4
  -4  -2  -6 3815.38 272.020   3
   4   2   6 3715.11 248.300   5
   4   2   7 1171.91 141.664   5
  -4  -2  -7 1413.56 167.809   3
  -4  -2  -7 1356.44 153.926   4
   4   2   8 129.834 69.2087   5
  -4  -2  -8 86.8344 53.4522   3
  -4  -2  -8 139.953 77.6231   4
  -4  -2  -9 5029.21 350.127   3
   4   2   9 5155.42 339.762   5
   4   2  10 309.573 92.0474   5
  -4  -2 -10 530.930 120.812   3
  -4  -2 -11 4813.17 367.904   3
   4   2  11 3974.76 331.383   5
   4   2  12 570.053 138.302   5
   4   2  13 1927.67 246.456   5
   4   2  14 104.228 69.8577   5
   4   2  15 270.858 111.028   5
   4   2  16 1268.19 229.092   5
   4   2  17 1889.91 286.853   5
   4   2  18 728.440 187.434   5
   4   2  19 855.854 206.936   5
  -4  -3  14 328.314 160.857   6
  -4  -3  13 2005.69 322.184   6
  -4  -3  12 206.862 160.754   6
  -4  -3  11 8003.47 590.324   6
  -4  -3  10 494.704 157.036   6
  -4  -3   9 5273.84 433.434   6
  -4  -3   8 4449.46 386.445   6
  -4  -3   7 1491.63 226.784   6
   4   3  -6 59315.1 1840.31   7
  -4  -3   6 57778.1 1956.03   6
   4   3  -5 585.767 99.2196   7
  -4  -3   5 726.111 179.821   6
   4   3  -4 512.825 86.6610   7
  -4  -3   4 453.762 138.660   6
   4   3  -3 9239.62 412.628   7
  -4  -3   3 9050.50 474.736   6
   4   3  -2 16020.2 585.667   7
  -4  -3   2 14875.0 657.250   6
  -4  -3   1 11305.7 506.826   6
  -4  -3   1 9853.26 453.320   1
  -4  -3   0 1314.61 131.953   1
  -4  -3   0 1425.68 163.490   6
  -4  -3  -1 9721.45 454.277   6
  -4  -3  -1 9028.00 387.149   1
  -4  -3  -2 1757.90 169.552   6
  -4  -3  -2 1644.88 167.706   3
  -4  -3  -2 1694.18 131.576   1
  -4  -3  -3 266.704 60.3519   4
  -4  -3  -3 276.405 75.9482   6
  -4  -3  -3 225.863 50.6325   1
  -4  -3  -3 386.318 89.2959   3
   4   3   3 405.879 94.4233   5
  -4  -3  -4 3211.94 209.770   4
  -4  -3  -4 3092.55 244.869   3
   4   3   4 3096.05 226.685   5
  -4  -3  -5 73743.4 2133.93   4
  -4  -3  -5 72280.2 2187.19   3
   4   3   5 70795.1 2172.28   5
  -4  -3  -6 4447.72 279.742   4
  -4  -3  -6 4304.53 290.658   3
   4   3   6 4536.37 297.734   5
  -4  -3  -7 9269.71 477.763   3
   4   3   7 9030.85 465.902   5
  -4  -3  -8 6131.91 377.412   3
   4   3   8 5801.61 378.295   5
  -4  -3  -9 11130.1 559.465   3
   4   3   9 10518.2 550.914   5
  -4  -3 -10 12082.9 616.226   3
   4   3  10 11430.0 603.031   5
   4   3  11 31.8339 72.3730   5
   4   3  12 16381.0 803.675   5
   4   3  13 11416.9 671.410   5
   4   3  14 1182.64 207.461   5
   4   3  15 1636.35 249.046   5
   4   3  16 2530.03 325.615   5
   4   3  17 1873.05 291.450   5
   4   3  18 39.9333 66.3045   5
   4   3  19 131.600 102.991   5
  -4  -4  13 1694.34 295.494   6
  -4  -4  12 879.059 217.820   6
  -4  -4  11 330.174 175.716   6
  -4  -4  10 2992.28 342.983   6
  -4  -4   9 6930.11 525.539   6
   4   4  -8 4029.54 333.515   7
  -4  -4   8 3669.73 352.400   6
   4   4  -7 1545.25 195.675   7
  -4  -4   7 1416.09 222.860   6
   4   4  -6 39.4826 63.5701   7
  -4  -4   6-38.6968 134.291   6
   4   4  -5 956.075 135.695   7
  -4  -4   5 772.363 165.126   6
   4   4  -4 10819.7 511.495   7
  -4  -4   4 10835.6 569.871   6
   4   4  -3 14706.6 611.243   7
  -4  -4   3 14304.5 665.085   6
   4   4  -2 7641.28 386.253   7
  -4  -4   2 7355.04 435.712   6
  -4  -4   1 35410.6 1238.57   6
  -4  -4   0 13559.1 608.740   6
  -4  -4   0 12242.1 497.734   1
  -4  -4  -1 15134.2 642.279   6
  -4  -4  -1 14953.0 624.705   3
  -4  -4  -1 14235.1 529.023   1
  -4  -4  -2 26132.1 930.349   6
  -4  -4  -2 24587.2 886.531   3
  -4  -4  -2 24493.5 781.185   1
  -4  -4  -3 11528.3 416.908   4
  -4  -4  -3 12116.7 531.490   6
  -4  -4  -3 11942.6 506.498   3
   4   4   3 12508.7 534.114   5
  -4  -4  -4 20109.8 706.515   4
  -4  -4  -4 20700.6 797.526   3
   4   4   4 20774.9 802.851   5
   4   4   5 1233.63 154.814   5
  -4  -4  -5 1099.64 141.446   3
  -4  -4  -5 1251.55 128.430   4
  -4  -4  -6 19428.4 767.977   3
   4   4   6 18974.2 781.274   5
  -4  -4  -7 3190.14 262.383   3
   4   4   7 2877.98 254.355   5
   4   4   8 408.236 103.052   5
  -4  -4  -8 408.177 93.9210   3
  -4  -4  -9 3991.21 314.182   3
   4   4   9 4057.86 327.481   5
   4   4  10 750.131 146.001   5
  -4  -4 -10 835.591 158.545   3
   4   4  11 5862.92 437.526   5
   4   4  12 6213.94 471.902   5
   4   4  13 483.491 141.019   5
   4   4  14 1227.97 209.525   5
   4   4  15 1948.49 290.252   5
   4   4  16 347.734 138.244   5
   4   4  17 1530.65 270.036   5
   4   4  18 1824.01 310.426   5
   4   5 -13 1532.87 260.755   7
  -4  -5  13 1774.57 305.915   6
   4   5 -12-45.2547 77.1252   7
  -4  -5  12 68.8936 108.196   6
   4   5 -11 4738.76 431.027   7
  -4  -5  11 5313.67 493.574   6
   4   5 -10 288.340 107.606   7
  -4  -5  10 340.869 164.632   6
   4   5  -9 314.594 113.302   7
  -4  -5   9 310.226 181.619   6
   4   5  -8 14325.2 730.049   7
  -4  -5   8 14960.2 801.989   6
   4   5  -7-4.79085 48.2353   7
  -4  -5   7-18.1986 107.508   6
   4   5  -6 30150.0 1162.34   7
  -4  -5   6 31102.5 1237.87   6
   4   5  -5 15739.0 711.534   7
  -4  -5   5 15257.4 755.783   6
   4   5  -4 5807.94 375.680   7
  -4  -5   4 5284.70 402.108   6
   4   5  -3 10946.1 537.049   7
  -4  -5   3 10779.7 579.798   6
   4   5  -2 10313.6 506.693   7
  -4  -5   2 9555.92 539.978   6
  -4  -5   1 21408.9 887.302   6
  -4  -5   0 1434.70 189.094   6
  -4  -5  -1-16.7221 27.4786   1
  -4  -5  -1 75.5322 67.8259   6
  -4  -5  -1 55.2223 61.4194   3
  -4  -5  -2 267.679 43.0480   1
  -4  -5  -2 296.182 95.0922   6
  -4  -5  -2 233.857 65.5445   3
  -4  -5  -3 1042.32 90.3075   4
  -4  -5  -3 1293.79 156.039   3
   4   5   3 1174.32 154.818   5
  -4  -5  -4 15654.2 569.660   4
  -4  -5  -4 16918.2 677.404   3
   4   5   4 16674.8 712.178   5
  -4  -5  -5 32277.4 1125.71   3
   4   5   5 33938.3 1203.34   5
  -4  -5  -6 9902.70 495.683   3
   4   5   6 9641.36 527.049   5
  -4  -5  -7 2378.67 219.765   3
   4   5   7 2473.66 252.831   5
  -4  -5  -8 5643.07 367.134   3
   4   5   8 5401.88 389.328   5
   4   5   9-55.7229 82.4039   5
  -4  -5  -9 48.5237 69.0290   3
   4   5  10 11679.4 650.240   5
   4   5  11 231.042 91.4037   5
   4   5  12 149.701 74.0623   5
   4   5  13 3453.68 363.927   5
   4   5  14 5313.95 467.235   5
   4   5  15 538.771 164.421   5
   4   5  16 514.199 161.389   5
   4   5  17 2222.05 335.985   5
   4   6 -13 1307.94 250.013   7
   4   6 -12 3945.53 421.023   7
  -4  -6  12 4682.95 498.143   6
   4   6 -11 24.5468 69.0707   7
  -4  -6  11 44.7873 127.032   6
   4   6 -10 335.405 121.241   7
  -4  -6  10 141.002 161.090   6
   4   6  -9 2919.21 318.148   7
  -4  -6   9 3752.34 420.415   6
   4   6  -8 3860.99 361.714   7
  -4  -6   8 3921.28 401.340   6
   4   6  -7 143.262 100.110   7
  -4  -6   7 144.897 129.320   6
   4   6  -6 170.967 96.7121   7
  -4  -6   6 96.6568 93.8388   6
   4   6  -5 1066.43 173.887   7
  -4  -6   5 712.695 169.192   6
   4   6  -4 74.5584 63.4019   7
  -4  -6   4 89.0339 99.8378   6
   4   6  -3 4093.51 321.061   7
  -4  -6   3 3542.84 329.860   6
  -4  -6   2 2720.50 275.571   6
  -4  -6   1 8033.19 508.840   6
  -4  -6   0 13735.4 668.318   6
  -4  -6   0 12593.5 577.792   3
  -4  -6  -1 1829.96 174.198   3
  -4  -6  -1 2106.61 234.796   6
  -4  -6  -2 98.9616 80.5966   6
  -4  -6  -2 3.31647 41.2648   3
   4   6   3-12.9785 66.5778   5
  -4  -6  -3 60.9598 66.0170   3
  -4  -6  -4 43957.6 1341.48   4
  -4  -6  -4 46654.4 1474.98   3
   4   6   4 48939.2 1588.32   5
   4   6   5 76.2329 72.1547   5
  -4  -6  -5 116.427 74.5924   3
  -4  -6  -6 5553.88 348.349   3
   4   6   6 6003.56 413.879   5
  -4  -6  -7 15475.5 679.677   3
   4   6   7 15913.9 758.320   5
   4   6   8 2488.40 270.382   5
  -4  -6  -8 2774.95 256.114   3
   4   6   9 4438.34 374.504   5
   4   6  10 954.013 178.168   5
   4   6  11 119.700 84.6550   5
   4   6  12 1148.36 191.058   5
   4   6  13 663.864 172.406   5
   4   6  14-63.1538 96.3614   5
   4   6  15 1592.45 273.033   5
   4   6  16 153.637 101.076   5
   4   7 -13 79.0676 93.2020   7
   4   7 -12 117.522 97.3794   7
  -4  -7  12-178.339 184.083   6
   4   7 -11 171.694 98.9352   7
  -4  -7  11 50.5285 134.424   6
   4   7 -10 2113.45 296.127   7
  -4  -7  10 3137.57 401.101   6
   4   7  -9 436.182 138.600   7
  -4  -7   9 689.445 227.512   6
   4   7  -8 2600.36 317.501   7
  -4  -7   8 3193.47 378.751   6
   4   7  -7 1907.72 260.509   7
  -4  -7   7 2120.99 299.730   6
   4   7  -6 4807.04 408.646   7
  -4  -7   6 5208.49 462.161   6
   4   7  -5 2975.12 308.129   7
  -4  -7   5 3076.54 340.887   6
   4   7  -4 2399.59 269.377   7
  -4  -7   4 2678.38 308.555   6
   4   7  -3 10324.8 592.841   7
  -4  -7   3 9841.27 612.000   6
  -4  -7   2 3208.22 330.559   6
  -4  -7   1 1525.69 234.157   6
  -4  -7   0 6037.91 437.158   6
  -4  -7   0 5425.00 330.426   3
  -4  -7  -1 1814.02 234.009   6
  -4  -7  -1 1357.54 145.679   3
  -4  -7  -2 435.478 140.590   6
  -4  -7  -2 582.824 101.375   3
  -4  -7  -3 906.272 125.616   3
  -4  -7  -3 1121.24 184.085   6
   4   7   3 1122.72 173.028   5
  -4  -7  -4 5051.37 315.746   3
   4   7   4 5634.97 403.735   5
   4   7   5 1337.22 197.194   5
  -4  -7  -5 1349.11 156.601   3
   4   7   6 3096.00 301.378   5
  -4  -7  -6 2813.16 234.429   3
   4   7   7 309.263 118.109   5
  -4  -7  -7 254.852 74.7538   3
   4   7   8 297.887 108.308   5
   4   7   9 437.502 129.257   5
   4   7  10 657.583 156.431   5
   4   7  11 1767.75 254.609   5
   4   7  12 331.813 136.817   5
   4   7  13 302.183 135.591   5
   4   7  14 731.785 189.174   5
   4   7  15 349.066 153.079   5
   4   8 -11 553.311 172.611   7
  -4  -8  11 781.691 225.208   6
   4   8 -10 115.010 91.3916   7
  -4  -8  10-153.267 157.474   6
   4   8  -9 436.999 167.444   7
  -4  -8   9 235.807 142.797   6
   4   8  -8 2162.05 298.403   7
  -4  -8   8 2354.63 335.341   6
   4   8  -7 268.818 111.512   7
  -4  -8   7 196.783 121.626   6
   4   8  -6-34.4837 73.9468   7
  -4  -8   6-64.8263 116.510   6
   4   8  -5-1.99693 58.9661   7
  -4  -8   5-144.113 128.926   6
   4   8  -4 400.788 127.649   7
  -4  -8   4 490.726 156.155   6
  -4  -8   3 1621.62 251.126   6
  -4  -8   2 542.999 159.363   6
  -4  -8   1 525.261 146.680   6
  -4  -8   0 529.792 155.374   6
  -4  -8  -1 2105.86 273.042   6
  -4  -8  -2 1667.34 249.802   6
  -4  -8  -3 7682.92 537.189   6
   4   8   3 7254.93 487.541   5
   4   8   4 12420.3 678.134   5
   4   8   5 2929.14 302.492   5
   4   8   6-16.9996 64.0732   5
   4   8   7 102.945 73.2419   5
   4   8   8 850.639 172.661   5
   4   8   9 6279.20 492.790   5
   4   8  10 1973.76 276.349   5
   4   8  11-33.7400 76.8766   5
   4   8  12 35.1749 71.9643   5
   4   8  13 360.729 124.484   5
   4   8  14 1769.97 301.643   5
   4   9 -10-27.7467 54.4576   7
   4   9  -9-113.289 114.015   7
  -4  -9   9 22.1870 142.522   6
   4   9  -8 140.731 105.545   7
  -4  -9   8 728.081 244.953   6
   4   9  -7 68.9859 85.3556   7
  -4  -9   7-132.196 166.357   6
   4   9  -6 2546.55 328.305   7
  -4  -9   6 3468.06 413.828   6
   4   9  -5 350.801 134.962   7
  -4  -9   5 22.0765 136.440   6
  -4  -9   4 169.972 131.813   6
  -4  -9   3 199.362 139.479   6
  -4  -9   2 4274.56 435.696   6
  -4  -9   1 109.606 113.767   6
  -4  -9   0 680.319 171.323   6
  -4  -9  -1 2221.70 300.195   6
  -4  -9  -2 271.415 127.943   6
  -4  -9  -3 1259.78 226.595   6
   4   9   4 937.370 186.722   5
   4   9   5 4854.51 422.341   5
   4   9   6 871.200 167.729   5
   4   9   7-40.1793 98.6706   5
   4   9   8 4349.77 421.112   5
   4   9   9 2018.05 293.147   5
   4   9  10 2.67122 69.7306   5
   4   9  11 197.503 108.999   5
   4   9  12 167.463 85.1223   5
   4  10  -8 1022.91 219.827   7
   4  10  -7 691.120 194.032   7
  -4 -10   7 567.238 209.257   6
   4  10  -6 349.176 140.657   7
  -4 -10   6 662.013 231.973   6
  -4 -10   5 255.247 160.839   6
  -4 -10   4 523.139 208.038   6
  -4 -10   3 76.2443 96.7647   6
  -4 -10   2 2781.91 372.950   6
  -4 -10   1 258.082 158.903   6
  -4 -10   0 69.3863 103.868   6
  -4 -10  -1 1990.37 299.432   6
  -4 -10  -2 135.917 94.5940   6
  -4 -10  -3 2143.23 310.706   6
  -4 -10  -4 238.298 125.449   6
   4  10   4 7.20865 67.9349   5
   4  10   5 312.799 135.893   5
   4  10   6 364.024 150.840   5
   4  10   7 2.40725 93.8102   5
   4  10   8 1156.32 233.124   5
   4  10   9 1162.91 234.255   5
   4  10  10 3182.38 389.609   5
  -4 -11   5 10.5391 143.252   6
  -4 -11   4-110.583 124.395   6
  -4 -11   3 77.6911 97.4445   6
  -4 -11   2 668.132 198.971   6
  -4 -11   1 441.080 197.121   6
  -4 -11   0 144.049 92.5549   6
  -4 -11  -1 990.227 230.894   6
  -4 -11  -2 704.488 181.651   6
  -4 -11  -3 2279.46 348.847   6
  -4 -11  -4 1811.80 319.577   6
  -4 -11  -5 570.301 181.866   6
   4  11   5 627.703 186.774   5
   4  11   6 2035.17 310.439   5
   4  11   7-32.2559 78.5164   5
  -5   8   1 1606.60 272.853   2
  -5   8   0 125.563 89.6998   2
  -5   8  -1 722.348 179.998   2
  -5   8  -2 171.276 102.369   2
  -5   8  -3 144.182 105.998   2
  -5   8  -4 1018.89 203.930   2
  -5   8  -5 60.1863 77.0744   2
  -5   8  -6-117.859 80.3818   2
  -5   7   6 508.788 142.300   2
  -5   7   5 213.202 117.061   2
  -5   7   4 150.893 82.1876   2
  -5   7   3 78.5157 90.1338   2
  -5   7   2 9.67868 82.9102   2
  -5   7   1 298.504 99.3158   2
  -5   7   0 88.3538 98.4616   2
  -5   7  -1 2553.60 322.787   2
  -5   7  -2 1217.45 221.062   2
  -5   7  -3 1296.34 229.086   2
  -5   7  -4 119.393 104.554   2
  -5   7  -5 1538.30 256.212   2
  -5   7  -6 245.541 108.440   2
  -5   7  -7 2165.19 300.952   2
  -5   7  -8 78.3260 86.7801   2
  -5   7  -9-31.5641 90.6797   2
  -5   7 -10 5.03414 65.2343   2
  -5   7 -11-4.40420 55.8872   2
  -5   6   7-144.335 104.861   1
  -5   6   6-7.14798 88.0617   1
  -5   6   6 175.277 100.368   2
  -5   6   5 1188.74 222.545   1
  -5   6   5 1137.17 216.546   2
  -5   6   4 36.8114 89.3228   1
  -5   6   4 190.733 83.5599   2
  -5   6   3 3647.72 379.166   2
  -5   6   2 178.021 91.5669   2
  -5   6   1 3862.60 378.819   2
  -5   6   0 1854.94 256.389   2
  -5   6  -1 2173.76 286.106   2
  -5   6  -2 471.700 127.081   2
  -5   6  -3 954.589 190.497   2
  -5   6  -4 253.671 105.326   2
  -5   6  -5 1078.15 199.214   2
  -5   6  -6 5.11748 89.8816   2
  -5   6  -7 130.243 91.1400   2
  -5   6  -8 85.4356 83.5488   2
  -5   6  -9 728.711 164.400   2
  -5   6 -10 95.6179 99.4188   2
  -5   6 -11 88.2911 86.5638   2
  -5   5   9 2436.06 320.577   1
  -5   5   8 1364.21 237.817   1
  -5   5   7 59.2460 73.5182   2
  -5   5   7 259.477 121.525   1
  -5   5   6 501.388 151.947   1
  -5   5   6 574.792 150.308   2
  -5   5   5 3101.58 345.005   1
  -5   5   5 3071.24 334.266   2
  -5   5   4 635.499 167.935   1
  -5   5   4 433.962 126.254   2
  -5   5   3 176.549 65.2617   1
  -5   5   3 139.944 71.1840   3
  -5   5   3 163.974 115.831   2
  -5   5   2 2031.47 260.435   2
  -5   5   2 1484.88 239.684   1
  -5   5   2 1726.86 203.213   3
  -5   5   1 788.356 185.430   2
  -5   5   1 554.825 119.855   3
  -5   5   0 2967.76 312.488   2
  -5   5   0 2488.07 231.447   3
  -5   5  -1 550.874 144.426   2
  -5   5  -1 430.513 100.200   3
  -5   5  -2 4648.50 341.778   3
  -5   5  -3-68.3597 51.7019   3
  -5   5  -4-63.4613 60.3536   3
  -5   5  -4 38.0687 84.2476   2
  -5   5  -5 1339.68 177.268   3
  -5   5  -5 1813.22 249.081   2
  -5   5  -6 118.083 63.3520   3
  -5   5  -6 283.913 132.662   2
  -5   5  -7 496.929 116.519   3
  -5   5  -7 397.249 129.616   2
  -5   5  -8 55.1627 49.8738   3
  -5   5  -8 273.656 116.255   2
  -5   5  -9 2.43573 67.1891   3
  -5   5  -9 117.605 102.805   2
  -5   5 -10 349.764 113.841   2
  -5   5 -11 833.181 170.714   2
  -5   5 -12 507.578 142.834   2
  -5   4  10 122.699 94.6785   1
  -5   4   9 3765.10 406.559   1
  -5   4   8-4.93232 81.6546   1
  -5   4   7 657.027 167.691   1
  -5   4   7 338.040 117.061   2
  -5   4   6 190.204 102.906   1
  -5   4   6-20.1921 59.2014   2
  -5   4   5 8026.82 545.599   1
  -5   4   5 8557.42 543.878   2
  -5   4   4 137.871 107.300   1
  -5   4   3 1043.32 172.031   1
  -5   4   2 1528.52 217.526   1
  -5   4   1 1201.71 164.635   3
  -5   4   1 901.552 160.163   1
  -5   4   0 2099.80 213.885   3
  -5   4  -1 1528.66 180.274   3
  -5   4  -2 1297.80 171.143   3
  -5   4  -3 4730.17 345.421   3
  -5   4  -4 557.044 114.490   3
  -5   4  -5 769.240 130.277   3
  -5   4  -6 4334.57 334.152   3
  -5   4  -7 124.417 61.4946   3
  -5   4  -8-51.8681 48.1473   3
  -5   4  -9 3634.01 328.391   3
  -5   4 -10 2637.50 275.005   7
  -5   4 -10 3361.54 333.349   2
  -5   4 -10 3232.52 325.423   3
  -5   4 -11-85.4598 101.094   4
  -5   4 -11 131.697 99.8902   2
  -5   4 -12 323.828 119.620   4
  -5   4 -12 232.497 100.250   2
  -5   4 -13 21.0556 69.2880   4
  -5   4 -14 1397.17 252.213   4
  -5   3  11 610.828 177.934   1
  -5   3  10 1379.99 233.752   1
  -5   3   9 1588.83 245.828   1
  -5   3   8 5501.27 447.637   1
  -5   3   7 10762.1 655.593   1
  -5   3   6 278.867 97.5323   1
  -5   3   5 2146.55 255.368   1
  -5   3   4 22426.7 979.806   1
  -5   3   3 163.700 116.444   1
  -5   3   2 732.511 140.812   1
  -5   3   1 490.109 125.229   1
  -5   3   0 2157.18 242.105   1
  -5   3   0 2118.01 220.509   3
  -5   3  -1 697.172 131.312   3
  -5   3  -2 1494.42 175.009   3
  -5   3  -3 1044.04 156.678   3
  -5   3  -4 562.633 115.874   3
  -5   3  -5 60.4911 65.1924   3
  -5   3  -6 71.2628 65.1100   3
  -5   3  -7 3795.83 274.703   7
  -5   3  -7 5227.98 367.195   3
  -5   3  -8 1609.38 205.974   3
  -5   3  -9 129.650 80.0422   3
  -5   3  -9 58.4337 62.2329   4
  -5   3 -10 307.683 102.220   3
  -5   3 -10 339.948 117.573   4
  -5   3 -11 2433.84 284.850   3
  -5   3 -11 2148.57 277.733   4
  -5   3 -12 1739.88 262.854   4
  -5   3 -13 684.394 166.798   4
  -5   3 -14 2274.64 325.509   4
  -5   3 -15 316.632 137.473   4
  -5   2  12 847.426 179.912   5
  -5   2  11 169.156 108.759   5
  -5   2  11 218.175 122.998   1
  -5   2  10-7.06810 91.5525   5
  -5   2  10 9.09415 110.742   1
  -5   2   9 1312.23 200.570   5
  -5   2   9 1599.54 237.123   1
  -5   2   8 2009.13 233.501   5
  -5   2   8 1968.94 247.593   1
  -5   2   7 109.140 70.4881   5
  -5   2   7 181.916 95.8191   1
  -5   2   6 2112.97 219.002   5
  -5   2   6 2064.80 257.082   1
  -5   2   5 1369.30 202.003   1
  -5   2   5 1113.35 153.134   5
  -5   2   4 105.431 91.6593   1
  -5   2   3 12.2161 64.6931   1
  -5   2   2 4360.14 338.458   1
  -5   2   1 3477.90 298.476   1
  -5   2   0 155.393 53.6644   3
  -5   2   0 311.721 105.946   1
  -5   2  -1 6306.78 405.282   1
  -5   2  -1 6351.75 387.082   3
  -5   2  -2 817.925 134.891   3
  -5   2  -3 1665.10 191.377   3
  -5   2  -4 14024.2 656.241   3
  -5   2  -5 1051.92 164.012   3
  -5   2  -6 9824.35 519.147   3
  -5   2  -7 105.735 56.3814   3
  -5   2  -8 1041.56 162.528   3
  -5   2  -8 791.015 156.010   4
  -5   2  -9 664.556 130.923   3
  -5   2  -9 558.341 141.647   4
  -5   2 -10 2983.81 314.139   4
  -5   2 -10 2897.34 293.742   3
  -5   2 -11 473.995 139.272   3
  -5   2 -11 229.607 95.2576   4
  -5   2 -12 173.650 86.3314   4
  -5   2 -13 2175.75 290.484   4
  -5   2 -14-72.7698 115.314   4
  -5   2 -15-81.1362 120.294   4
  -5   2 -16 528.174 178.081   4
  -5   1  13-35.0990 84.8581   5
  -5   1  12 109.594 77.4919   5
  -5   1  12-55.9209 86.5282   1
  -5   1  11 5736.65 497.310   1
  -5   1  11 4339.60 425.415   5
  -5   1  10 709.673 174.371   5
  -5   1  10 845.866 180.151   6
  -5   1  10 1118.54 212.414   1
  -5   1   9 904.731 165.775   5
  -5   1   9 1124.53 203.672   6
  -5   1   9 1117.21 214.219   1
  -5   1   8 901.804 178.116   5
  -5   1   8 833.091 174.790   6
  -5   1   8 943.755 193.043   1
  -5   1   7 9050.60 550.009   6
  -5   1   7 9953.75 591.214   1
  -5   1   6 9025.03 536.011   6
  -5   1   6 9944.73 569.237   1
  -5   1   5 11906.5 607.006   6
  -5   1   5 13288.1 660.929   1
  -5   1   4 14586.1 679.449   6
  -5   1   4 17363.0 776.821   1
  -5   1   3 13452.7 620.856   6
  -5   1   3 16172.9 728.869   1
  -5   1   2 2720.14 216.069   6
  -5   1   2 2556.95 258.870   1
  -5   1   1 1423.11 151.593   6
  -5   1   1 1171.36 174.504   1
  -5   1   0 1093.95 165.058   1
  -5   1   0 1078.33 116.475   6
  -5   1  -1 4933.08 344.079   1
  -5   1  -1 5482.37 264.540   6
  -5   1  -1 5061.27 349.283   3
  -5   1  -2 300.586 101.491   1
  -5   1  -2 428.016 107.481   3
  -5   1  -3 8019.62 433.816   3
  -5   1  -4 3424.29 278.592   3
  -5   1  -5 413.980 91.9196   3
  -5   1  -6 23669.9 932.854   3
  -5   1  -7 1403.75 179.088   3
  -5   1  -7 1220.22 183.396   4
  -5   1  -8 1540.24 197.606   3
  -5   1  -8 1495.44 204.196   4
  -5   1  -9 2129.63 235.606   3
  -5   1  -9 1599.61 220.104   4
  -5   1 -10 1808.46 226.909   3
  -5   1 -10 1518.79 221.950   4
  -5   1 -11 72.6858 64.7417   3
  -5   1 -11 82.2386 97.6397   4
  -5   1 -12 3538.80 351.177   4
  -5   1 -12 3633.04 347.828   3
  -5   1 -13 298.459 108.371   4
  -5   1 -14 302.312 120.852   4
  -5   1 -15 232.722 114.991   4
  -5   1 -16 2575.45 347.312   4
  -5   0  13-32.7306 82.8883   5
  -5   0  12 1878.11 290.727   1
  -5   0  12 1612.03 272.654   5
  -5   0  12 1641.46 260.908   6
  -5   0  11 1058.69 212.150   1
  -5   0  11 804.789 188.482   6
  -5   0  10 2596.90 325.486   1
  -5   0  10 2823.71 318.245   6
  -5   0   9 2516.38 312.241   1
  -5   0   9 2165.41 275.296   6
  -5   0   8 2462.94 292.492   1
  -5   0   8 2610.97 296.633   6
  -5   0   7 238.571 102.557   1
  -5   0   7 373.309 117.435   6
  -5   0   6 3031.70 301.808   6
  -5   0   6 3211.33 309.635   1
  -5   0   5 602.282 144.356   6
  -5   0   5 830.030 155.929   1
  -5   0   4 1395.26 192.151   6
  -5   0   4 1598.20 199.592   1
  -5   0   3 3873.58 289.410   6
  -5   0   3 3882.85 312.840   1
  -5   0   2 195.426 94.0812   1
  -5   0   2 67.5663 62.5598   6
  -5   0   1 9132.56 444.502   6
  -5   0   1 11102.0 540.569   1
  -5   0   0 868.466 116.514   6
  -5   0   0 939.570 147.960   1
  -5   0  -1 2360.66 216.520   1
  -5   0  -1 2149.59 168.441   6
  -5   0  -1 2374.93 233.127   3
  -5   0  -2 762.109 129.320   1
  -5   0  -2 763.204 95.9230   6
  -5   0  -2 661.379 124.333   3
  -5   0  -3 847.762 92.5110   6
  -5   0  -3 719.718 125.054   3
  -5   0  -4 10.7883 30.9354   6
  -5   0  -4 40.8484 69.8783   3
  -5   0  -5 280.141 94.9599   3
  -5   0  -5 225.241 47.4041   6
  -5   0  -6 8692.05 499.786   4
  -5   0  -6 9473.80 501.054   3
  -5   0  -7 1011.48 153.750   3
  -5   0  -7 798.172 149.246   4
  -5   0  -8 3128.70 285.464   4
  -5   0  -8 3401.71 296.425   3
  -5   0  -9 10343.3 587.654   4
  -5   0  -9 11087.3 582.739   3
  -5   0 -10 4965.05 392.799   4
  -5   0 -10 4834.58 368.716   3
  -5   0 -11 997.078 182.206   3
  -5   0 -11 992.824 183.878   4
  -5   0 -12 194.212 94.9951   3
  -5   0 -12 147.387 90.6057   4
  -5   0 -13 1041.32 202.688   4
  -5   0 -14 1973.86 276.498   4
  -5   0 -15 135.739 106.182   4
  -5   0 -16 401.544 162.358   4
  -5   0 -17-200.467 135.924   4
  -5  -1  13 216.549 134.963   6
  -5  -1  12 3644.42 407.149   6
  -5  -1  11 2433.72 327.036   6
  -5  -1  10 744.571 185.095   6
  -5  -1   9 147.843 109.638   1
  -5  -1   9-21.8983 129.953   6
  -5  -1   8 755.305 173.339   6
  -5  -1   8 795.013 179.123   1
  -5  -1   7 851.867 171.797   1
  -5  -1   7 711.125 162.039   6
  -5  -1   6 17916.7 833.484   6
  -5  -1   6 18736.9 852.628   1
  -5  -1   5 7108.69 447.187   6
  -5  -1   5 7441.37 469.390   1
  -5  -1   4 7763.90 459.202   6
  -5  -1   4 8472.38 490.370   1
  -5  -1   3 5950.12 380.028   6
  -5  -1   3 5825.61 393.027   1
  -5  -1   2 14970.2 674.237   6
  -5  -1   2 16354.5 695.689   1
  -5  -1   1 3322.90 253.125   6
  -5  -1   1 3045.85 264.045   1
  -5  -1   0-29.6709 67.3401   1
  -5  -1   0 48.3210 69.3341   6
  -5  -1  -1 9227.52 426.579   6
  -5  -1  -1 9555.72 506.727   3
  -5  -1  -1 9220.54 466.324   1
  -5  -1  -2 17998.9 726.638   1
  -5  -1  -2 19394.6 689.839   6
  -5  -1  -2 18567.4 764.037   3
  -5  -1  -3 8448.49 443.259   1
  -5  -1  -3 9414.59 399.341   6
  -5  -1  -3 8289.87 445.154   3
  -5  -1  -4 17412.7 627.255   6
  -5  -1  -4 16158.9 701.744   3
  -5  -1  -5 3430.53 276.975   4
  -5  -1  -5 3564.08 219.918   6
  -5  -1  -5 3650.19 291.428   3
  -5  -1  -6 13517.4 615.038   4
  -5  -1  -6 12178.0 494.784   6
  -5  -1  -6 12783.9 603.483   3
   5   1   6 12291.4 502.479   5
  -5  -1  -7 8572.56 473.027   4
  -5  -1  -7 7860.29 448.152   3
   5   1   7 7417.73 372.740   5
  -5  -1  -8 3269.28 286.502   4
  -5  -1  -8 2866.30 270.801   3
   5   1   8 2678.85 212.637   5
  -5  -1  -9 2400.59 248.425   3
  -5  -1  -9 2406.05 256.968   4
   5   1   9 2163.58 199.642   5
  -5  -1 -10 5582.09 417.791   4
  -5  -1 -10 5525.42 391.627   3
   5   1  10 5109.91 337.260   5
   5   1  11 102.313 64.4929   5
  -5  -1 -11-92.3441 82.8577   3
  -5  -1 -11 65.7086 59.3167   4
   5   1  12 539.194 113.201   5
  -5  -1 -12 941.151 173.026   3
  -5  -1 -12 854.100 163.269   4
   5   1  13 434.049 107.443   5
  -5  -1 -13 593.905 157.422   4
  -5  -1 -14 387.520 136.121   4
  -5  -1 -15 128.468 111.115   4
  -5  -1 -16 328.920 128.888   4
  -5  -1 -17 11.9380 66.1687   4
  -5  -2  12 2154.69 333.247   6
  -5  -2  11-16.1626 103.382   6
  -5  -2  10 5046.34 470.744   6
  -5  -2   9 7170.99 544.217   6
  -5  -2   8 4090.59 373.704   6
  -5  -2   7 1271.28 201.312   6
  -5  -2   6 1920.81 243.056   6
  -5  -2   5 1503.98 200.209   1
  -5  -2   5 1603.30 214.089   6
  -5  -2   4 1361.79 188.816   1
  -5  -2   4 1186.40 187.251   6
  -5  -2   3 4462.84 347.108   6
  -5  -2   3 4276.79 316.646   1
  -5  -2   2 8432.42 471.339   6
  -5  -2   2 8111.82 455.295   1
  -5  -2   1 80.5612 73.0396   6
  -5  -2   1 12.8497 60.7561   1
  -5  -2   0 10975.1 515.655   6
  -5  -2   0 11165.9 521.739   1
  -5  -2  -1 12527.0 540.792   6
  -5  -2  -1 13002.2 608.467   3
  -5  -2  -1 11479.0 531.143   1
  -5  -2  -2 11751.5 519.607   1
  -5  -2  -2 12774.3 534.670   6
  -5  -2  -2 11794.1 568.603   3
  -5  -2  -3 1140.22 138.909   1
  -5  -2  -3 1628.76 165.533   6
  -5  -2  -3 1504.54 174.739   3
  -5  -2  -4 1510.14 157.154   6
  -5  -2  -4 1847.28 188.696   3
  -5  -2  -5 24291.5 920.727   4
  -5  -2  -5 24194.3 871.868   6
  -5  -2  -5 26627.1 986.888   3
   5   2   5 24544.5 878.744   5
  -5  -2  -6 14269.0 634.473   4
  -5  -2  -6 14182.8 652.426   3
   5   2   6 13805.8 585.413   5
   5   2   7 615.917 104.586   5
  -5  -2  -7 614.512 111.112   3
  -5  -2  -7 767.983 131.972   4
   5   2   8 444.837 84.4177   5
  -5  -2  -8 514.319 134.917   3
  -5  -2  -8 350.568 97.4862   4
  -5  -2  -9 6562.13 430.140   4
  -5  -2  -9 6421.15 423.174   3
   5   2   9 5953.81 375.325   5
  -5  -2 -10 16256.1 774.840   4
  -5  -2 -10 16111.1 760.016   3
   5   2  10 15488.5 708.377   5
  -5  -2 -11 4389.66 372.265   4
  -5  -2 -11 4728.17 379.807   3
   5   2  11 4106.97 331.713   5
   5   2  12 630.290 131.060   5
  -5  -2 -12 1105.74 186.577   3
  -5  -2 -12 1075.99 195.664   4
   5   2  13 1861.18 236.040   5
  -5  -2 -13 2470.71 295.933   4
   5   2  14 548.456 134.229   5
  -5  -2 -14 704.447 180.737   4
   5   2  15 292.793 110.135   5
  -5  -2 -15 452.605 154.922   4
   5   2  16 78.3438 83.8503   5
  -5  -2 -16 114.090 116.769   4
  -5  -2 -17 374.200 158.515   4
  -5  -3  12 5644.87 541.759   6
  -5  -3  11 726.449 199.995   6
  -5  -3  10 617.080 203.041   6
  -5  -3   9 4101.08 396.579   6
  -5  -3   8 714.674 187.529   6
  -5  -3   7 2549.92 302.438   6
  -5  -3   6 1095.15 201.184   6
  -5  -3   5 955.588 196.536   6
  -5  -3   4 149.194 117.703   6
  -5  -3   3 46.2338 79.9025   1
  -5  -3   3 142.136 102.520   6
  -5  -3   2 5897.42 386.606   6
  -5  -3   2 5775.85 365.364   1
  -5  -3   1 1674.56 176.750   1
  -5  -3   1 1898.81 205.262   6
  -5  -3   0 8858.31 459.451   6
  -5  -3   0 7454.61 394.918   1
  -5  -3  -1 567.213 102.649   1
  -5  -3  -1 551.945 120.048   3
  -5  -3  -1 644.836 116.169   6
  -5  -3  -2 14783.5 603.646   1
  -5  -3  -2 17905.7 703.954   6
  -5  -3  -2 15589.8 680.639   3
  -5  -3  -3 22639.8 828.501   1
  -5  -3  -3 25868.2 915.415   6
  -5  -3  -3 25084.6 924.083   3
  -5  -3  -4 19814.8 785.938   6
  -5  -3  -4 21201.7 840.326   3
  -5  -3  -5 1558.84 191.944   3
  -5  -3  -5 1377.78 156.988   4
  -5  -3  -5 1401.94 169.056   6
   5   3   5 1386.59 165.392   5
   5   3   6 64.0860 62.0718   5
  -5  -3  -6 13.2916 64.2915   3
  -5  -3  -6 103.796 58.7936   4
  -5  -3  -7 13387.1 611.575   4
  -5  -3  -7 12635.1 619.127   3
   5   3   7 12768.4 600.704   5
  -5  -3  -8 6800.53 416.997   4
  -5  -3  -8 6983.90 445.046   3
   5   3   8 6559.93 408.556   5
  -5  -3  -9 4192.19 333.577   4
  -5  -3  -9 4046.61 333.990   3
   5   3   9 3899.94 311.941   5
  -5  -3 -10 3207.29 296.908   4
  -5  -3 -10 3090.77 292.280   3
   5   3  10 2760.57 272.166   5
   5   3  11 377.058 95.8579   5
  -5  -3 -11 490.956 116.091   3
  -5  -3 -11 486.979 135.916   4
  -5  -3 -12 2792.58 306.658   4
   5   3  12 2744.08 287.200   5
  -5  -3 -12 3374.84 331.522   3
   5   3  13 1609.77 235.502   5
   5   3  14 90.8961 90.2919   5
   5   3  15 185.155 93.2708   5
   5   3  16 2635.61 332.059   5
   5   3  17 1711.73 277.091   5
   5   3  18 93.6624 79.4685   5
  -5  -4  12 1413.91 280.049   6
  -5  -4  11 135.938 171.441   6
  -5  -4  10 1306.56 245.543   6
  -5  -4   9 1685.08 281.300   6
  -5  -4   8 974.969 215.247   6
  -5  -4   7 2355.57 305.026   6
  -5  -4   6 4217.70 387.455   6
  -5  -4   5 5493.75 435.016   6
   5   4  -4 5111.58 321.071   7
  -5  -4   4 5361.63 407.129   6
   5   4  -3 7862.87 403.712   7
  -5  -4   3 8358.20 501.155   6
  -5  -4   2 10053.0 549.747   6
  -5  -4   2 9000.52 474.615   1
  -5  -4   1 2297.91 205.701   1
  -5  -4   1 2607.22 261.127   6
  -5  -4   0 22103.4 880.355   6
  -5  -4   0 20384.1 775.278   1
  -5  -4  -1 7486.97 434.333   6
  -5  -4  -1 6848.28 416.023   3
  -5  -4  -1 6281.67 336.394   1
  -5  -4  -2 23673.6 892.042   6
  -5  -4  -2 20638.0 845.364   3
  -5  -4  -2 20472.3 738.838   1
  -5  -4  -3 8489.14 380.476   1
  -5  -4  -3 10561.6 515.395   6
  -5  -4  -3 9974.06 493.889   3
  -5  -4  -4 29597.6 1026.66   4
  -5  -4  -4 32109.5 1140.49   6
  -5  -4  -4 31941.4 1147.05   3
   5   4   4 32090.3 1139.15   5
  -5  -4  -5 11484.6 517.691   4
  -5  -4  -5 13089.0 612.441   3
   5   4   5 12550.6 596.345   5
   5   4   6 1330.25 179.937   5
  -5  -4  -6 1084.78 168.452   3
  -5  -4  -6 1453.19 157.246   4
  -5  -4  -7 7368.30 415.816   4
  -5  -4  -7 7402.74 442.751   3
   5   4   7 8057.58 467.054   5
  -5  -4  -8 4762.01 333.735   4
  -5  -4  -8 5075.34 369.151   3
   5   4   8 4477.51 350.930   5
   5   4   9 1581.84 206.307   5
  -5  -4  -9 1753.57 220.680   3
  -5  -4  -9 1698.23 202.222   4
   5   4  10 363.252 114.070   5
  -5  -4 -10 253.451 92.9685   3
  -5  -4 -10 358.239 107.816   4
   5   4  11 1991.27 251.398   5
  -5  -4 -11 2319.56 272.951   3
   5   4  12 162.584 95.7736   5
   5   4  13 1593.59 239.489   5
   5   4  14 1381.64 232.159   5
   5   4  15 337.490 125.335   5
   5   4  16 726.708 179.927   5
   5   4  17 139.458 96.7022   5
   5   4  18 699.814 190.385   5
  -5  -5  11 2889.64 390.518   6
  -5  -5  10 399.183 181.058   6
  -5  -5   9 408.261 165.668   6
  -5  -5   8 1980.42 301.306   6
  -5  -5   7 4540.37 426.630   6
  -5  -5   6 127.382 101.674   6
   5   5  -5 861.949 145.138   7
  -5  -5   5 1180.08 223.486   6
   5   5  -4 674.301 117.957   7
  -5  -5   4 1068.19 212.120   6
  -5  -5   3-159.895 97.0624   6
  -5  -5   2 2878.11 296.560   6
  -5  -5   1 1291.65 151.637   1
  -5  -5   1 1449.13 214.608   6
  -5  -5   0 4795.62 368.473   6
  -5  -5   0 4283.37 270.556   1
  -5  -5  -1 1725.20 206.226   6
  -5  -5  -1 1235.27 126.631   1
  -5  -5  -1 1249.86 168.774   3
  -5  -5  -2-6.88587 26.1203   1
  -5  -5  -2 20.2203 65.0150   6
  -5  -5  -2 28.1352 52.1442   3
  -5  -5  -3 9130.07 517.997   6
  -5  -5  -3 8726.25 479.356   3
  -5  -5  -4 5106.66 281.496   4
  -5  -5  -4 6002.26 400.417   6
  -5  -5  -4 6081.05 391.549   3
   5   5   4 6227.14 404.457   5
  -5  -5  -5 15356.6 620.700   4
  -5  -5  -5 17319.4 740.993   3
   5   5   5 17340.5 768.959   5
  -5  -5  -6 3421.28 249.195   4
  -5  -5  -6 4030.08 302.930   3
   5   5   6 4333.19 339.943   5
   5   5   7 2367.41 256.544   5
  -5  -5  -7 2163.58 231.797   3
  -5  -5  -7 2538.65 223.280   4
  -5  -5  -8 13970.2 640.143   4
  -5  -5  -8 13518.9 677.901   3
   5   5   8 13960.1 704.187   5
   5   5   9 560.937 134.826   5
  -5  -5  -9 635.268 134.169   3
   5   5  10 1612.41 232.743   5
  -5  -5 -10 1640.32 217.640   3
   5   5  11 500.254 132.646   5
  -5  -5 -11 493.992 135.042   3
   5   5  12-9.71968 67.5472   5
   5   5  13 983.263 195.938   5
   5   5  14 194.523 109.719   5
   5   5  15 1876.13 284.354   5
   5   5  16 5569.94 514.060   5
   5   5  17 136.351 89.4259   5
  -5  -6  11-14.0485 150.712   6
  -5  -6  10 493.783 204.842   6
  -5  -6   9 1794.93 302.227   6
  -5  -6   8 103.579 162.263   6
  -5  -6   7 60.0699 123.376   6
   5   6  -6 2046.30 243.281   7
  -5  -6   6 2257.97 305.831   6
   5   6  -5 4728.22 372.245   7
  -5  -6   5 5462.66 468.815   6
   5   6  -4 2156.21 241.354   7
  -5  -6   4 2211.96 287.777   6
  -5  -6   3 1918.43 256.454   6
  -5  -6   2 13356.0 722.170   6
  -5  -6   1 1121.72 184.344   6
  -5  -6   0 3454.78 338.470   6
  -5  -6   0 2882.26 272.791   3
  -5  -6  -1 3681.78 343.540   6
  -5  -6  -1 3455.56 284.105   3
  -5  -6  -2 5.31709 69.8170   6
  -5  -6  -2-47.7880 62.9760   3
  -5  -6  -3 13053.6 683.386   6
  -5  -6  -3 13155.7 626.214   3
  -5  -6  -4 4453.29 368.479   6
  -5  -6  -4 4372.85 328.635   3
   5   6   4 4329.48 355.198   5
  -5  -6  -5 1036.05 157.209   3
   5   6   5 1061.81 179.931   5
   5   6   6 1328.01 207.048   5
  -5  -6  -6 1329.56 180.652   3
   5   6   7 128.306 96.6085   5
  -5  -6  -7-24.4403 48.7769   3
   5   6   8 221.562 89.2088   5
  -5  -6  -8 57.1966 74.7635   3
  -5  -6  -8 63.0753 46.4468   4
   5   6   9 2597.89 296.992   5
  -5  -6  -9 2696.20 273.760   3
   5   6  10-18.9963 61.8274   5
  -5  -6 -10 84.0915 73.6513   3
   5   6  11 897.371 178.022   5
   5   6  12-94.9969 78.0127   5
   5   6  13-107.286 98.7578   5
   5   6  14 1007.80 210.253   5
   5   6  15-44.5282 80.7470   5
   5   6  16 207.059 115.683   5
  -5  -7  10 2299.29 372.184   6
  -5  -7   9-97.7445 131.323   6
  -5  -7   8 1917.56 321.136   6
   5   7  -7 6101.48 484.695   7
  -5  -7   7 6467.33 561.960   6
   5   7  -6 290.155 108.894   7
  -5  -7   6 37.6561 112.070   6
   5   7  -5 1502.63 218.879   7
  -5  -7   5 1424.09 268.805   6
   5   7  -4 206.936 89.2655   7
  -5  -7   4 274.281 128.654   6
  -5  -7   3 2880.51 336.840   6
  -5  -7   2 245.624 123.136   6
  -5  -7   1 2667.32 261.954   3
  -5  -7   1 3173.69 351.302   6
  -5  -7   0 25.2890 103.983   6
  -5  -7   0-2.17070 41.2985   3
  -5  -7  -1 2585.11 240.478   3
  -5  -7  -1 2688.06 309.627   6
  -5  -7  -2 170.879 78.4783   6
  -5  -7  -2 39.1659 47.9464   3
  -5  -7  -3 1564.02 231.704   6
  -5  -7  -3 1407.08 182.645   3
  -5  -7  -4 173.184 77.3573   3
  -5  -7  -4 25.5320 62.9620   6
   5   7   4 217.238 115.270   5
  -5  -7  -5 509.606 109.274   3
   5   7   5 420.897 113.104   5
  -5  -7  -6 5562.45 387.769   3
   5   7   6 6201.45 459.813   5
   5   7   7 94.5358 75.9178   5
  -5  -7  -7 216.492 65.6483   3
   5   7   8 1861.19 257.500   5
  -5  -7  -8 2034.50 230.720   3
   5   7   9 946.114 190.908   5
  -5  -7  -9 920.388 156.567   3
   5   7  10 37.6395 72.1430   5
   5   7  11 629.757 170.516   5
   5   7  12 299.890 130.618   5
   5   7  13 272.637 129.244   5
   5   7  14 191.749 122.432   5
   5   7  15 5007.14 506.535   5
  -5  -8   9 199.780 192.712   6
   5   8  -8-12.8722 52.3523   7
  -5  -8   8 169.327 123.983   6
   5   8  -7 773.936 180.064   7
  -5  -8   7 775.340 228.799   6
   5   8  -6 364.440 127.721   7
  -5  -8   6 209.023 168.488   6
   5   8  -5 1159.21 207.942   7
  -5  -8   5 1579.95 295.080   6
  -5  -8   4 360.470 154.858   6
  -5  -8   3 1197.72 237.566   6
  -5  -8   2 222.741 107.303   6
  -5  -8   1 4546.45 432.113   6
  -5  -8   0 291.906 118.760   6
  -5  -8  -1 1722.68 276.994   6
  -5  -8  -2 388.520 138.518   6
  -5  -8  -3 1621.19 256.903   6
  -5  -8  -4 166.384 105.112   6
  -5  -8  -5 2788.08 332.388   6
   5   8   5 2492.03 297.435   5
   5   8   6 1862.47 258.284   5
   5   8   7 1103.30 202.203   5
   5   8   8 1941.76 272.630   5
   5   8   9 1242.22 218.129   5
   5   8  10-120.064 116.600   5
   5   8  11 762.933 191.891   5
   5   8  12 16.4099 75.0587   5
   5   8  13 16.6384 82.7428   5
   5   8  14-175.754 130.927   5
   5   9  -8 233.309 112.223   7
   5   9  -7 772.009 189.917   7
  -5  -9   7 1166.14 284.104   6
   5   9  -6 1928.93 284.392   7
  -5  -9   6 2188.75 366.796   6
  -5  -9   5 1484.38 271.716   6
  -5  -9   4 65.2972 116.143   6
  -5  -9   3 684.529 209.013   6
  -5  -9   2 1758.76 295.328   6
  -5  -9   1 5915.87 527.798   6
  -5  -9   0 768.342 209.657   6
  -5  -9  -1 78.6918 87.4351   6
  -5  -9  -2 328.815 153.302   6
  -5  -9  -3 20.7181 88.0727   6
  -5  -9  -4 20.8415 92.8457   6
  -5  -9  -5 300.148 132.048   6
   5   9   5 293.346 108.435   5
   5   9   6 46.7042 100.489   5
   5   9   7 21.5337 72.6626   5
   5   9   8-18.7239 76.8320   5
   5   9   9 238.367 112.530   5
   5   9  10-42.3213 74.6778   5
   5   9  11 1221.25 252.605   5
   5   9  12 586.288 179.232   5
  -5 -10   5 54.1205 122.269   6
  -5 -10   4-23.3267 109.586   6
  -5 -10   3-89.5695 114.524   6
  -5 -10   2 1105.26 265.676   6
  -5 -10   1 163.692 163.465   6
  -5 -10   0 2966.71 404.174   6
  -5 -10  -1 14.6244 93.8470   6
  -5 -10  -2 361.300 145.663   6
  -5 -10  -3 2444.37 349.560   6
  -5 -10  -4 162.943 125.705   6
  -5 -10  -5 2878.21 381.884   6
  -5 -10  -6 727.111 201.591   6
   5  10   6 1126.41 223.482   5
   5  10   7 996.437 220.304   5
   5  10   8 27.3718 60.5574   5
   5  10   9 1782.22 290.427   5
  -5 -11   1 2592.65 392.825   6
  -5 -11   0 2053.49 357.361   6
  -5 -11  -1 36.4507 106.023   6
  -5 -11  -2 464.642 159.595   6
  -5 -11  -3 652.165 208.627   6
  -5 -11  -4 1757.63 306.998   6
  -5 -11  -5-266.757 167.292   6
  -6   6   5 96.6374 89.3786   2
  -6   6   4 795.511 188.344   2
  -6   6   3 1334.20 242.354   2
  -6   6   2 31.6124 95.5626   2
  -6   6   1 218.479 123.428   2
  -6   6   0 1165.26 224.118   2
  -6   6  -1 404.245 145.983   2
  -6   6  -2 1001.00 197.450   2
  -6   6  -3 2613.42 328.415   2
  -6   6  -4 107.985 88.3172   2
  -6   6  -5 1713.63 257.152   2
  -6   6  -6 173.255 122.124   2
  -6   6  -7 199.924 104.775   2
  -6   6  -8 928.509 204.497   2
  -6   6  -9 183.096 111.384   2
  -6   6 -10 156.596 111.006   2
  -6   6 -11 26.3020 70.1263   2
  -6   5   6 70.3000 83.0096   2
  -6   5   5 877.946 210.626   1
  -6   5   5 870.779 192.797   2
  -6   5   4 1948.39 292.099   1
  -6   5   4 1691.10 263.498   2
  -6   5   3 413.032 151.912   2
  -6   5   3 69.7615 80.5679   1
  -6   5   2-55.2563 90.4540   2
  -6   5   1 214.402 134.981   2
  -6   5   0 289.394 104.838   2
  -6   5  -6 4230.94 423.126   2
  -6   5  -7 20.4559 97.5908   2
  -6   5  -8 389.178 135.252   2
  -6   5  -9 265.720 128.699   2
  -6   5 -10 577.824 161.743   2
  -6   5 -11 354.093 134.909   2
  -6   5 -12 172.119 95.2654   2
  -6   4   7 670.997 182.687   1
  -6   4   6 3100.27 363.147   1
  -6   4   6 2867.78 327.152   2
  -6   4   5 189.647 127.644   2
  -6   4   5-87.4953 71.9364   1
  -6   4   4 512.652 146.089   1
  -6   4   3 3389.27 360.452   1
  -6   4   3 3144.17 317.431   3
  -6   4   2 317.010 110.431   1
  -6   4   2 648.380 147.325   3
  -6   4   1 385.504 115.428   3
  -6   4   0 2115.46 238.171   3
  -6   4  -1 250.657 85.1616   3
  -6   4  -2 4137.71 354.806   3
  -6   4  -3 48.3901 74.2995   3
  -6   4  -4 1620.93 215.432   3
  -6   4  -5 55.9108 66.4567   3
  -6   4  -6 246.007 92.4077   3
  -6   4  -7 537.819 148.903   3
  -6   4  -8 2220.15 267.696   3
  -6   4  -9 26.6597 62.8972   3
  -6   4 -10 342.515 116.708   3
  -6   4 -11 170.139 90.3356   3
  -6   4 -11 452.175 152.369   2
  -6   4 -12 365.881 113.604   2
  -6   3   8 636.290 170.499   1
  -6   3   7 2040.85 294.054   1
  -6   3   6-28.5258 86.3428   1
  -6   3   5 2464.44 314.536   1
  -6   3   4-0.96715 86.1009   1
  -6   3   3 393.497 118.907   1
  -6   3   2 220.150 109.056   1
  -6   3   2 239.822 106.058   3
  -6   3   1 526.258 146.856   1
  -6   3   1 678.525 146.023   3
  -6   3   0-77.4955 102.896   1
  -6   3   0-57.0223 72.9222   3
  -6   3  -1 181.538 90.2397   3
  -6   3  -2 2019.77 232.720   3
  -6   3  -3 4247.25 356.572   3
  -6   3  -4 2951.78 293.729   3
  -6   3  -5 159.496 83.7007   3
  -6   3  -6 3836.15 333.818   3
  -6   3  -7 1687.96 230.431   3
  -6   3  -8-10.2451 74.3790   3
  -6   3  -9 397.548 129.064   3
  -6   3 -10 741.045 159.712   3
  -6   3 -11 3003.71 337.538   3
  -6   3 -12 2134.80 300.116   3
  -6   3 -13 706.851 198.277   4
  -6   3 -14 568.991 174.851   4
  -6   2   9 195.257 121.456   1
  -6   2   8 538.304 174.013   1
  -6   2   7-43.8989 111.745   1
  -6   2   6 3836.27 374.914   1
  -6   2   5 3137.14 333.527   1
  -6   2   4 339.113 136.181   1
  -6   2   3 2179.75 271.895   1
  -6   2   2 2660.44 282.723   1
  -6   2   1 946.760 168.303   3
  -6   2   1 1062.35 179.070   1
  -6   2   0 1475.21 207.436   1
  -6   2   0 1326.99 188.481   3
  -6   2  -1 258.895 87.9130   1
  -6   2  -1 142.735 66.4379   3
  -6   2  -2 5675.22 393.634   3
  -6   2  -3-10.2804 77.3409   3
  -6   2  -4 3033.31 303.866   3
  -6   2  -5 1449.05 205.088   3
  -6   2  -6 2634.12 270.401   3
  -6   2  -7 7128.65 472.343   3
  -6   2  -8 529.391 131.092   3
  -6   2  -9 655.699 155.037   3
  -6   2 -10-54.5893 58.7144   3
  -6   2 -11 3218.44 362.218   4
  -6   2 -11 3424.78 353.868   3
  -6   2 -12 0.79824 67.3929   3
  -6   2 -12 161.327 107.828   4
  -6   2 -13 1005.60 232.592   4
  -6   2 -14-71.1552 102.621   4
  -6   1   9 196.922 95.4732   1
  -6   1   8-48.2331 93.1306   6
  -6   1   8 184.477 117.505   1
  -6   1   7 2815.61 305.603   6
  -6   1   7 3309.89 343.940   1
  -6   1   6 2552.40 316.095   1
  -6   1   6 2313.76 267.162   6
  -6   1   5 1989.89 268.755   1
  -6   1   5 1407.21 199.508   6
  -6   1   4 2709.27 298.519   1
  -6   1   3 1803.05 238.057   1
  -6   1   2 186.117 113.923   1
  -6   1   1 709.876 138.872   1
  -6   1   0 5250.56 390.892   1
  -6   1   0 5364.05 396.604   3
  -6   1  -1 877.562 160.244   1
  -6   1  -1 949.072 161.147   3
  -6   1  -2 224.263 86.5973   3
  -6   1  -3 632.072 133.525   3
  -6   1  -4 244.204 114.432   3
  -6   1  -5 507.689 113.813   3
  -6   1  -6 77.8779 58.2827   3
  -6   1  -7 4923.82 376.964   3
  -6   1  -8 572.493 135.172   3
  -6   1  -9-109.961 78.9319   3
  -6   1  -9 23.9075 69.0075   4
  -6   1 -10 105.425 77.6586   3
  -6   1 -10 131.256 97.9790   4
  -6   1 -11 177.171 98.7161   3
  -6   1 -11 160.951 93.9568   4
  -6   1 -12 8867.94 625.793   4
  -6   1 -12 9552.88 629.483   3
  -6   1 -13 168.616 84.4469   3
  -6   1 -13 135.629 101.718   4
  -6   1 -14-173.296 116.748   4
  -6   1 -15 1314.43 261.648   4
  -6   0  11 1355.30 244.992   5
  -6   0  11 1559.26 269.026   6
  -6   0  10 238.595 132.861   5
  -6   0  10 538.667 172.883   6
  -6   0  10 478.214 164.402   1
  -6   0   9 92.1211 103.529   6
  -6   0   9 71.3502 95.6131   1
  -6   0   8 846.214 179.912   6
  -6   0   8 1178.09 222.054   1
  -6   0   7 836.871 185.041   6
  -6   0   7 966.705 196.615   1
  -6   0   6 308.553 105.351   6
  -6   0   6 591.387 154.875   1
  -6   0   5 1553.47 214.808   6
  -6   0   5 2298.66 264.385   1
  -6   0   4 243.296 84.3033   1
  -6   0   4 116.150 93.4501   6
  -6   0   3 355.667 118.433   1
  -6   0   3 308.433 85.5674   6
  -6   0   2 1319.01 197.692   1
  -6   0   2 1096.78 156.303   6
  -6   0   1 5183.11 330.768   6
  -6   0   1 6043.36 412.659   1
  -6   0   0 14730.8 717.231   1
  -6   0   0 16551.3 775.987   3
  -6   0  -1 1247.72 174.812   3
  -6   0  -1 1319.28 179.820   1
  -6   0  -2 3240.65 291.475   1
  -6   0  -2 3493.87 299.421   3
  -6   0  -3 865.778 146.324   3
  -6   0  -4-81.2083 93.6005   3
  -6   0  -5 27516.1 1102.80   3
  -6   0  -6 3124.53 290.647   3
  -6   0  -7 2750.15 271.952   3
  -6   0  -8 3812.02 356.141   4
  -6   0  -8 4110.12 348.011   3
  -6   0  -9 343.087 119.184   3
  -6   0  -9 417.727 117.537   4
  -6   0 -10-3.09375 65.9744   3
  -6   0 -10-42.5690 79.3515   4
  -6   0 -11 442.336 136.146   3
  -6   0 -11 274.925 116.432   4
  -6   0 -12 1375.86 231.628   3
  -6   0 -12 1273.04 221.802   4
  -6   0 -13-252.803 137.496   3
  -6   0 -13 59.4623 75.8181   4
  -6   0 -14-203.102 113.663   4
  -6   0 -15 136.556 114.061   4
  -6   0 -16-133.827 117.611   4
  -6  -1  11 59.2631 93.2800   6
  -6  -1  10 256.998 142.848   1
  -6  -1  10 360.399 144.883   6
  -6  -1   9 801.705 202.249   1
  -6  -1   9 689.440 191.392   6
  -6  -1   8 3477.72 365.619   6
  -6  -1   8 4184.35 404.362   1
  -6  -1   7 1471.01 229.984   6
  -6  -1   7 1413.06 224.158   1
  -6  -1   6 1723.76 245.631   6
  -6  -1   6 1545.80 228.252   1
  -6  -1   5 4652.91 382.593   6
  -6  -1   5 5008.29 402.533   1
  -6  -1   4 67.8165 79.9967   6
  -6  -1   4 16.0311 82.9607   1
  -6  -1   3 3913.13 326.910   6
  -6  -1   3 4483.80 357.753   1
  -6  -1   2 4976.79 356.990   6
  -6  -1   2 5525.42 401.015   1
  -6  -1   1 14956.2 687.674   6
  -6  -1   1 17507.6 765.067   1
  -6  -1   0 3355.63 268.058   6
  -6  -1   0 3889.39 304.008   1
  -6  -1  -1 168.613 91.8711   1
  -6  -1  -1 127.644 67.1206   6
  -6  -1  -1 272.356 104.168   3
  -6  -1  -2 4119.88 313.521   1
  -6  -1  -2 4272.58 272.820   6
  -6  -1  -2 4029.45 325.989   3
  -6  -1  -3 1012.87 121.744   6
  -6  -1  -3 971.301 158.640   3
  -6  -1  -4 57.2007 83.1793   3
  -6  -1  -5-12.1124 81.5307   3
  -6  -1  -6 8581.45 513.479   3
  -6  -1  -7 469.691 122.338   3
  -6  -1  -7 380.779 113.001   4
  -6  -1  -8 2297.22 257.286   3
  -6  -1  -8 1905.62 244.739   4
  -6  -1  -9 57.6430 70.8368   3
  -6  -1  -9 151.887 95.4554   4
  -6  -1 -10 1669.79 222.520   3
  -6  -1 -10 1807.31 250.911   4
  -6  -1 -11 133.537 88.2486   3
  -6  -1 -11 202.662 110.870   4
  -6  -1 -12 2994.05 337.604   4
  -6  -1 -12 3017.58 330.857   3
  -6  -1 -13 2301.21 292.753   3
  -6  -1 -13 1737.09 267.789   4
  -6  -1 -14 538.470 159.813   4
  -6  -1 -15 580.109 187.227   4
  -6  -1 -16 304.951 148.307   4
  -6  -2  11 2856.54 375.442   6
  -6  -2  10 1621.13 269.500   1
  -6  -2  10 1144.68 235.803   6
  -6  -2   9 665.123 159.845   1
  -6  -2   9 1077.86 231.087   6
  -6  -2   8 3619.84 382.288   6
  -6  -2   8 3966.06 392.721   1
  -6  -2   7 1825.02 261.559   1
  -6  -2   7 1521.67 243.122   6
  -6  -2   6 104.694 69.2712   1
  -6  -2   6 187.407 121.478   6
  -6  -2   5 20.4294 85.0598   1
  -6  -2   5 139.615 115.592   6
  -6  -2   4 104.199 92.7124   6
  -6  -2   4 30.3994 74.9499   1
  -6  -2   3 134.791 104.737   6
  -6  -2   3 85.2243 55.9376   1
  -6  -2   2 126.072 89.5404   6
  -6  -2   2 40.4175 60.1764   1
  -6  -2   1 277.235 104.652   1
  -6  -2   1 209.157 86.4687   6
  -6  -2   0 17989.5 760.866   6
  -6  -2   0 17406.0 764.965   1
  -6  -2  -1 1829.42 195.067   6
  -6  -2  -1 1982.10 236.058   3
  -6  -2  -1 1906.99 202.123   1
  -6  -2  -2 147.855 75.1054   6
  -6  -2  -2 245.258 92.5447   1
  -6  -2  -2 129.317 76.5801   3
  -6  -2  -3 6207.51 382.611   1
  -6  -2  -3 7383.27 390.274   6
  -6  -2  -3 6671.86 426.151   3
  -6  -2  -4 11.7543 47.5656   6
  -6  -2  -4 16.6190 72.4441   3
  -6  -2  -5 10030.9 490.571   6
  -6  -2  -5 10836.0 586.149   3
  -6  -2  -6 249.762 90.7739   3
  -6  -2  -6 36.5079 32.4319   6
  -6  -2  -7-107.609 65.8703   3
  -6  -2  -7 17.6131 60.0434   4
  -6  -2  -7 95.1525 47.8353   6
  -6  -2  -8 6590.34 442.249   4
  -6  -2  -8 6294.75 432.216   3
   6   2   8 5612.91 355.695   5
  -6  -2  -9 6975.06 479.357   4
  -6  -2  -9 7835.03 503.554   3
  -6  -2 -10 3488.41 337.360   4
  -6  -2 -10 3573.92 333.652   3
  -6  -2 -11 4218.65 389.337   4
  -6  -2 -11 4195.79 373.059   3
  -6  -2 -12 180.041 133.512   3
  -6  -2 -12 62.5486 92.3703   4
  -6  -2 -13 723.928 165.295   3
  -6  -2 -13 530.053 154.116   4
  -6  -2 -14 90.2249 97.1121   4
  -6  -2 -15 566.391 175.895   4
  -6  -2 -16-11.6044 73.1669   4
  -6  -3  11 61.7891 89.7231   1
  -6  -3  10 170.646 106.982   1
  -6  -3  10 107.291 127.463   6
  -6  -3   9-179.022 132.266   1
  -6  -3   9 54.1017 126.702   6
  -6  -3   8 1328.03 215.941   1
  -6  -3   8 1549.56 270.934   6
  -6  -3   7 6906.38 524.964   6
  -6  -3   7 6351.73 494.711   1
  -6  -3   6 19.1385 62.6431   1
  -6  -3   6 16.9008 111.858   6
  -6  -3   5 4767.20 416.689   6
  -6  -3   5 4726.00 385.810   1
  -6  -3   4 1697.35 231.722   1
  -6  -3   4 2101.13 267.020   6
  -6  -3   3 712.297 140.028   1
  -6  -3   3 863.190 158.816   6
  -6  -3   2 1130.53 195.656   6
  -6  -3   2 1168.77 174.335   1
  -6  -3   1 27139.7 1062.47   6
  -6  -3   1 25967.5 1013.36   1
  -6  -3   0 823.182 128.460   1
  -6  -3   0 1045.94 171.795   6
  -6  -3  -1 1144.40 154.160   1
  -6  -3  -1 1017.10 162.400   6
  -6  -3  -1 1220.98 180.652   3
  -6  -3  -2 4606.96 309.995   1
  -6  -3  -2 5443.39 362.077   6
  -6  -3  -2 5113.78 371.312   3
  -6  -3  -3 7893.91 428.594   1
  -6  -3  -3 9639.07 494.573   6
  -6  -3  -3 8517.32 497.444   3
  -6  -3  -4 7861.88 450.458   6
  -6  -3  -4 7503.30 464.410   3
  -6  -3  -5 5278.58 353.669   6
  -6  -3  -5 5492.19 404.847   3
  -6  -3  -6 136.986 92.6049   3
  -6  -3  -6 57.6664 52.5280   4
  -6  -3  -6 86.1149 64.5395   6
  -6  -3  -7 5873.84 393.717   4
  -6  -3  -7 5589.69 373.000   6
  -6  -3  -7 6086.52 420.834   3
   6   3   7 6141.54 390.547   5
  -6  -3  -8 498.182 133.832   3
  -6  -3  -8 344.800 99.7938   4
   6   3   8 401.592 101.796   5
   6   3   9 641.006 128.456   5
  -6  -3  -9 653.077 160.645   3
  -6  -3  -9 762.350 146.456   4
   6   3  10 600.524 124.967   5
  -6  -3 -10 845.927 161.523   3
  -6  -3 -10 826.274 164.746   4
   6   3  11 153.130 77.0851   5
  -6  -3 -11 84.4003 80.7091   3
  -6  -3 -11 168.275 94.2138   4
   6   3  12 1093.75 185.043   5
  -6  -3 -12 1524.85 232.293   3
  -6  -3 -12 1381.96 222.559   4
  -6  -3 -13 200.913 129.417   3
  -6  -3 -13 62.1897 66.1150   4
  -6  -3 -14 1078.40 218.467   4
  -6  -3 -15 3101.09 378.780   4
  -6  -3 -16 1080.38 236.568   4
  -6  -3 -17 1077.02 240.106   4
  -6  -4  10 1549.29 288.011   6
  -6  -4   9 1804.76 295.340   6
  -6  -4   8 960.080 216.315   6
  -6  -4   7 4084.40 409.464   6
  -6  -4   6 474.382 138.456   1
  -6  -4   6 163.053 150.956   6
  -6  -4   5 207.885 106.445   1
  -6  -4   5 180.858 129.387   6
  -6  -4   4 99.3600 91.4265   1
  -6  -4   4 268.231 146.854   6
  -6  -4   3 68.2389 72.4464   1
  -6  -4   3 61.1661 89.8832   6
  -6  -4   2 78.5811 64.3394   1
  -6  -4   2-105.565 88.3483   6
  -6  -4   1-131.248 110.586   6
  -6  -4   1-2.08928 65.8612   1
  -6  -4   0 143.159 59.9224   1
  -6  -4   0 232.142 120.815   6
  -6  -4  -1 1007.70 134.923   1
  -6  -4  -1 1008.31 156.492   6
  -6  -4  -1 929.119 155.524   3
  -6  -4  -2 187.808 71.6737   1
  -6  -4  -2 240.470 110.815   6
  -6  -4  -2 119.215 64.4223   3
  -6  -4  -3 302.519 72.6954   1
  -6  -4  -3 392.874 127.397   6
  -6  -4  -3 190.758 77.0757   3
  -6  -4  -4 2277.83 242.149   6
  -6  -4  -4 2561.37 262.942   3
  -6  -4  -5 10837.9 584.578   6
  -6  -4  -5 12779.9 654.045   3
  -6  -4  -6 1213.56 181.588   3
  -6  -4  -6 1245.78 165.184   4
  -6  -4  -6 1012.30 163.874   6
   6   4   6 1356.54 182.114   5
  -6  -4  -7 98.3410 58.9243   3
  -6  -4  -7 174.456 75.7539   4
  -6  -4  -7 66.7628 62.2062   6
   6   4   7 24.4934 52.0023   5
  -6  -4  -8 1860.42 233.571   3
  -6  -4  -8 1789.03 213.000   4
   6   4   8 1753.09 216.618   5
  -6  -4  -9 10580.0 588.246   4
  -6  -4  -9 11313.2 637.036   3
   6   4   9 10237.1 590.240   5
   6   4  10 206.277 79.8672   5
  -6  -4 -10 323.739 116.698   3
  -6  -4 -10 294.096 103.294   4
  -6  -4 -11 6857.78 487.202   4
   6   4  11 6498.12 474.080   5
  -6  -4 -11 7096.15 506.527   3
   6   4  12 392.990 123.048   5
  -6  -4 -12 524.420 146.747   3
  -6  -4 -12 588.751 144.268   4
   6   4  13 608.753 152.248   5
  -6  -4 -13 808.252 187.816   3
  -6  -4 -13 652.062 160.740   4
   6   4  14 408.212 134.052   5
  -6  -4 -14 352.928 126.763   4
   6   4  15 73.0013 86.5183   5
  -6  -4 -15 107.075 91.9265   4
  -6  -4 -16 858.219 207.700   4
  -6  -4 -17 533.354 186.951   4
  -6  -5   9-384.300 177.710   6
  -6  -5   8 237.256 173.506   6
  -6  -5   7 2500.58 346.728   6
  -6  -5   6-2.24062 103.949   6
  -6  -5   5 511.451 179.442   6
  -6  -5   4 3591.90 322.599   1
  -6  -5   4 4194.53 400.958   6
  -6  -5   3 4425.74 406.348   6
  -6  -5   3 3424.78 304.224   1
  -6  -5   2 115.101 54.7736   1
  -6  -5   2 108.255 93.2591   6
  -6  -5   1 10850.8 616.670   6
  -6  -5   1 9065.32 488.674   1
  -6  -5   0-3.60146 82.0746   6
  -6  -5   0 26.0631 58.0467   3
  -6  -5   0 91.5351 63.4782   1
  -6  -5  -1 660.394 159.668   6
  -6  -5  -1 369.092 109.016   3
  -6  -5  -2 1464.55 232.647   6
  -6  -5  -2 1110.01 164.136   3
  -6  -5  -3 556.110 156.202   6
  -6  -5  -3 855.180 151.627   3
  -6  -5  -4 14921.1 745.025   6
  -6  -5  -4 15321.0 747.978   3
  -6  -5  -5 597.665 134.832   3
  -6  -5  -5 651.698 146.639   6
  -6  -5  -6 1146.12 179.524   3
  -6  -5  -6 922.881 173.690   6
   6   5   6 1160.47 190.469   5
  -6  -5  -7 86.8547 68.1338   3
   6   5   7 6.88675 79.0132   5
  -6  -5  -8 4362.14 332.339   4
  -6  -5  -8 5351.02 404.729   3
   6   5   8 4632.30 383.237   5
   6   5   9 1028.48 184.439   5
  -6  -5  -9 1035.29 178.852   3
  -6  -5  -9 959.913 158.689   4
   6   5  10 1112.71 195.420   5
  -6  -5 -10 1248.81 210.940   3
  -6  -5 -10 1405.68 203.037   4
   6   5  11-100.258 88.1867   5
  -6  -5 -11-15.4978 64.4170   3
  -6  -5 -11-39.5707 60.0059   4
   6   5  12 54.4174 49.7772   5
  -6  -5 -12-20.8471 77.2641   4
   6   5  13 45.4167 71.1901   5
  -6  -5 -13 232.144 107.599   4
   6   5  14 67.6871 73.0138   5
  -6  -5 -14 107.923 89.8285   4
   6   5  15 3141.07 372.151   5
  -6  -5 -15 3529.36 396.126   4
   6   5  16-149.035 101.384   5
  -6  -5 -16 149.573 107.219   4
   6   5  17 8.38655 54.3594   5
  -6  -6   9 1108.23 261.751   6
  -6  -6   8 97.6387 141.340   6
  -6  -6   7 226.093 191.244   6
  -6  -6   6 3450.95 400.802   6
  -6  -6   5 193.431 127.207   6
  -6  -6   4 995.095 225.795   6
  -6  -6   3 351.299 158.630   6
  -6  -6   2 941.171 204.476   6
  -6  -6   1 149.906 124.007   6
  -6  -6   0 323.230 136.831   6
  -6  -6   0 360.263 112.124   3
  -6  -6  -1 2378.77 256.487   3
  -6  -6  -1 2939.60 322.114   6
  -6  -6  -2 431.941 127.608   6
  -6  -6  -2 384.197 91.5312   3
  -6  -6  -3 1384.47 218.560   6
  -6  -6  -3 1483.28 210.874   3
  -6  -6  -4 2639.81 276.304   3
  -6  -6  -4 2534.27 291.355   6
  -6  -6  -5 7155.96 502.071   6
  -6  -6  -5 6726.98 458.882   3
  -6  -6  -6 530.851 117.897   3
  -6  -6  -6 492.571 136.417   6
   6   6   6 350.036 114.237   5
  -6  -6  -7 452.728 116.843   3
   6   6   7 253.372 90.8788   5
  -6  -6  -8-49.7659 57.6656   3
   6   6   8 76.8839 82.9155   5
   6   6   9 8162.01 564.870   5
  -6  -6  -9 8472.32 542.301   3
   6   6  10 197.316 106.279   5
  -6  -6 -10 142.759 85.1284   3
   6   6  11 154.269 101.562   5
  -6  -6 -11 57.1637 60.2297   3
   6   6  12 17.5588 67.1158   5
  -6  -6 -12-47.0587 98.9546   3
   6   6  13 56.1206 80.2739   5
   6   6  14 2195.26 311.664   5
   6   6  15 181.472 115.632   5
   6   6  16 824.867 204.903   5
  -6  -7   8-27.0299 162.751   6
  -6  -7   7 262.491 153.697   6
  -6  -7   6 84.2429 177.901   6
  -6  -7   5 631.381 225.894   6
  -6  -7   4 7.28500 107.984   6
  -6  -7   3 1494.69 258.951   6
  -6  -7   2 1017.62 208.699   6
  -6  -7   1 1227.79 209.382   6
  -6  -7   1 963.386 169.510   3
  -6  -7   0 36.5588 103.834   6
  -6  -7   0 13.1188 65.0138   3
  -6  -7  -1-110.767 107.183   6
  -6  -7  -1-96.2755 71.6677   3
  -6  -7  -2 747.304 173.282   6
  -6  -7  -2 441.475 118.014   3
  -6  -7  -3-58.6516 78.7340   6
  -6  -7  -3 9.67507 64.1489   3
  -6  -7  -4 2911.23 334.771   6
  -6  -7  -4 2884.04 288.828   3
  -6  -7  -5 1808.55 223.338   3
  -6  -7  -5 1606.08 249.603   6
  -6  -7  -6 3084.06 347.251   6
  -6  -7  -6 2499.01 268.010   3
   6   7   6 2998.42 329.927   5
  -6  -7  -7 603.531 142.057   3
   6   7   7 632.669 164.041   5
  -6  -7  -8 1080.29 187.538   3
   6   7   8 965.198 196.265   5
   6   7   9 4871.52 443.742   5
  -6  -7  -9 4584.35 389.934   3
   6   7  10 407.471 114.114   5
  -6  -7 -10 398.878 116.132   3
   6   7  11 1231.33 231.448   5
  -6  -7 -11 1249.01 217.834   3
   6   7  12 166.312 118.544   5
   6   7  13 357.814 131.859   5
   6   7  14 583.828 170.804   5
  -6  -8   6 146.059 139.224   6
  -6  -8   5 565.667 209.366   6
  -6  -8   4 2200.27 321.298   6
  -6  -8   3 420.638 154.531   6
  -6  -8   2 244.023 141.306   6
  -6  -8   1 2559.53 340.121   6
  -6  -8   0 1103.35 227.190   6
  -6  -8  -1 2837.33 360.667   6
  -6  -8  -2 532.879 173.025   6
  -6  -8  -3 256.915 124.682   6
  -6  -8  -4 5240.27 477.533   6
  -6  -8  -5 283.232 129.902   6
  -6  -8  -6 187.381 110.893   6
  -6  -8  -7-60.3265 74.1297   6
   6   8   7-24.4555 65.6441   5
   6   8   8 847.944 198.912   5
   6   8   9 416.661 155.128   5
   6   8  10 624.406 170.650   5
   6   8  11 100.944 87.8492   5
   6   8  12-43.4677 85.8834   5
   6   8  13 75.8480 92.6228   5
  -6  -9   4 1046.78 257.949   6
  -6  -9   3-157.843 153.223   6
  -6  -9   2 1356.92 261.722   6
  -6  -9   1 373.804 161.537   6
  -6  -9   0 91.4560 90.4306   6
  -6  -9  -1 60.9118 129.725   6
  -6  -9  -2 1224.36 243.622   6
  -6  -9  -3 168.970 111.602   6
  -6  -9  -4 1687.64 302.688   6
  -6  -9  -5 285.492 153.616   6
  -6  -9  -6 798.675 212.405   6
  -6  -9  -7 1984.38 323.622   6
   6   9   7 1657.37 273.108   5
   6   9   8 786.156 203.887   5
   6   9   9 316.731 143.946   5
   6   9  10 2618.97 355.144   5
   6   9  11 45.7735 71.8228   5
  -6 -10   1 89.1946 120.911   6
  -6 -10   0 3864.42 470.989   6
  -6 -10  -1 2504.15 375.622   6
  -6 -10  -2 1434.97 299.001   6
  -6 -10  -3 27.0228 96.2953   6
  -6 -10  -4 1026.55 261.319   6
  -6 -10  -5 1091.79 256.986   6
  -6 -10  -6 127.599 99.7525   6
  -6 -10  -7 128.897 110.827   6
  -7   4   5 71.9457 95.1042   2
  -7   4   4 813.997 179.731   3
  -7   4   3 49.1458 56.3893   3
  -7   4   2 53.1992 47.5292   3
  -7   4   1 53.5180 69.5954   3
  -7   4   0 54.6404 63.3251   3
  -7   4  -1 1394.76 219.283   3
  -7   4  -2 806.485 165.054   3
  -7   4  -3 16.5959 59.7030   3
  -7   4  -4 840.956 170.325   3
  -7   4  -5 2174.67 268.768   3
  -7   4  -6 2016.39 263.435   3
  -7   4  -7 538.275 143.066   3
  -7   4  -8 1358.60 223.908   3
  -7   4  -9 298.891 113.784   3
  -7   4 -10-1.23329 63.6361   3
  -7   4 -11 109.278 78.1852   3
  -7   3   4 185.003 105.166   1
  -7   3   3 74.4713 68.1899   1
  -7   3   3 218.315 88.7691   3
  -7   3   2-25.0925 78.0578   1
  -7   3   2 75.5389 71.0816   3
  -7   3   1 311.280 124.651   1
  -7   3   1 106.697 74.9983   3
  -7   3   0 500.088 124.612   3
  -7   3  -1 2953.52 306.088   3
  -7   3  -2 524.855 138.884   3
  -7   3  -3 1080.06 208.953   3
  -7   3  -4 623.547 149.068   3
  -7   3  -5 817.261 175.401   3
  -7   3  -6 127.697 81.1768   3
  -7   3  -7-11.2516 61.3159   3
  -7   3  -8 1162.43 217.822   3
  -7   3  -9 148.713 99.1823   3
  -7   3 -10 265.800 111.001   3
  -7   3 -11 285.880 127.711   3
  -7   3 -12 57.2855 79.3236   3
  -7   2   6 68.9409 76.1849   1
  -7   2   5 1184.00 231.060   1
  -7   2   4 414.144 144.801   1
  -7   2   3 310.707 119.669   1
  -7   2   2 218.494 74.9907   3
  -7   2   2 373.481 126.282   1
  -7   2   1 9.84439 89.7697   1
  -7   2   1-40.1041 71.8697   3
  -7   2   0-118.917 89.6799   1
  -7   2   0 106.618 87.3448   3
  -7   2  -1 2327.64 272.032   3
  -7   2  -2 711.182 159.389   3
  -7   2  -3-40.0114 65.3477   3
  -7   2  -4 75.8754 61.6667   3
  -7   2  -5 3474.83 351.025   3
  -7   2  -6 83.1346 86.8409   3
  -7   2  -7 481.229 138.043   3
  -7   2  -8 1854.06 262.638   3
  -7   2  -9 1014.00 200.371   3
  -7   2 -10-179.688 107.986   3
  -7   2 -11 84.9982 72.9964   3
  -7   2 -12 732.324 178.361   3
  -7   2 -13 2709.48 352.879   3
  -7   1   7 155.427 96.1983   1
  -7   1   6 1295.21 245.157   1
  -7   1   5 137.697 89.2137   1
  -7   1   4 120.632 113.755   1
  -7   1   3-49.6962 94.1206   1
  -7   1   2 253.555 110.377   1
  -7   1   1 978.775 190.051   1
  -7   1   1 1179.80 202.041   3
  -7   1   0 2170.72 274.712   1
  -7   1   0 2041.86 261.081   3
  -7   1  -1 2993.49 308.150   3
  -7   1  -1 2489.64 299.922   1
  -7   1  -2 148.031 77.4877   3
  -7   1  -3 2018.78 253.438   3
  -7   1  -4 1049.90 195.309   3
  -7   1  -5 499.140 155.104   3
  -7   1  -6 5558.34 442.701   3
  -7   1  -7 150.384 60.6789   3
  -7   1  -8-57.1921 91.8875   3
  -7   1  -9 136.448 117.145   3
  -7   1 -10-13.4395 83.7543   3
  -7   1 -11 142.310 100.411   3
  -7   1 -12 234.188 121.361   3
  -7   1 -13 3002.91 387.235   4
  -7   1 -13 3636.76 407.313   3
  -7   0   7 1284.54 240.539   1
  -7   0   6 103.053 78.7344   1
  -7   0   5 976.075 220.593   1
  -7   0   4 3890.40 388.658   1
  -7   0   3 146.184 76.6014   1
  -7   0   2 2284.58 275.124   1
  -7   0   1 1010.13 189.800   1
  -7   0   1 1200.37 208.096   3
  -7   0   0 2029.22 252.910   1
  -7   0   0 2374.29 284.180   3
  -7   0  -1 95.9199 74.6368   3
  -7   0  -1-57.9976 93.9359   1
  -7   0  -2 485.106 127.083   3
  -7   0  -3 1810.19 239.854   3
  -7   0  -4 610.678 150.797   3
  -7   0  -5 571.381 153.001   3
  -7   0  -6-23.6734 62.1819   3
  -7   0  -7 372.045 135.384   3
  -7   0  -8 79.0098 91.7758   3
  -7   0  -9 1919.48 263.588   3
  -7   0 -10-11.5988 74.0421   3
  -7   0 -11 2280.58 293.212   3
  -7   0 -11 2240.22 318.764   4
  -7   0 -12 3009.37 373.435   4
  -7   0 -12 3183.19 354.577   3
  -7   0 -13 133.395 104.242   3
  -7   0 -13-30.8113 65.5866   4
  -7   0 -14 1915.52 298.920   3
  -7   0 -14 1451.59 281.497   4
  -7  -1   9 253.009 127.549   6
  -7  -1   8 699.810 183.965   6
  -7  -1   8 789.200 201.991   1
  -7  -1   7 243.253 138.583   6
  -7  -1   7 371.765 145.896   1
  -7  -1   6 2268.60 289.741   6
  -7  -1   6 2706.86 323.808   1
  -7  -1   5 1307.90 220.352   1
  -7  -1   5 1453.54 230.899   6
  -7  -1   4 118.393 91.9119   1
  -7  -1   3 1305.39 207.150   1
  -7  -1   2 1583.23 219.455   1
  -7  -1   1 2959.07 299.674   1
  -7  -1   0 1842.03 230.044   1
  -7  -1   0 1831.73 249.485   3
  -7  -1  -1 4886.15 384.449   1
  -7  -1  -1 5620.01 419.621   3
  -7  -1  -2 1479.30 208.440   1
  -7  -1  -2 1829.44 233.274   3
  -7  -1  -3 122.454 97.9356   3
  -7  -1  -4 2333.06 269.903   3
  -7  -1  -5 179.827 89.6655   3
  -7  -1  -6 1390.84 212.680   3
  -7  -1  -7 1873.22 248.072   3
  -7  -1  -8 994.970 185.454   3
  -7  -1  -9 459.341 140.920   3
  -7  -1 -10 658.184 171.477   3
  -7  -1 -10 308.833 123.700   4
  -7  -1 -11 500.400 145.573   3
  -7  -1 -11 398.295 146.053   4
  -7  -1 -12-72.5024 102.839   3
  -7  -1 -12-33.0468 59.3366   4
  -7  -1 -13 1837.73 277.797   3
  -7  -1 -13 1554.57 275.347   4
  -7  -1 -14 1196.77 225.844   3
  -7  -1 -14 950.291 225.484   4
  -7  -1 -15 223.653 131.063   4
  -7  -2   9-4.72985 94.1545   6
  -7  -2   8 741.649 198.755   6
  -7  -2   8 763.947 193.054   1
  -7  -2   7 644.818 180.055   6
  -7  -2   7 420.661 135.681   1
  -7  -2   6 1146.07 230.243   6
  -7  -2   6 1628.63 248.243   1
  -7  -2   5 179.286 93.3501   6
  -7  -2   5 312.135 111.394   1
  -7  -2   4 1471.84 239.775   6
  -7  -2   4 1327.32 215.374   1
  -7  -2   3 544.565 135.464   1
  -7  -2   3 303.615 124.226   6
  -7  -2   2 2642.76 279.352   1
  -7  -2   2 2791.13 290.022   6
  -7  -2   1 1135.81 191.204   1
  -7  -2   1 858.777 154.549   6
  -7  -2   0 10397.3 589.484   1
  -7  -2   0 10422.9 571.650   6
  -7  -2   0 11568.0 657.899   3
  -7  -2  -1 6455.90 442.307   1
  -7  -2  -1 7852.37 511.856   3
  -7  -2  -2 15.4864 50.6732   1
  -7  -2  -2-26.7254 75.4599   3
  -7  -2  -3 2072.31 245.030   3
  -7  -2  -4 1637.83 227.950   3
  -7  -2  -5 7.04739 62.2749   3
  -7  -2  -6 966.390 186.742   3
  -7  -2  -7 184.391 111.839   3
  -7  -2  -8 566.424 146.535   3
  -7  -2  -9 247.465 98.7664   3
  -7  -2  -9-15.3868 54.2859   4
  -7  -2 -10 1378.82 233.934   3
  -7  -2 -10 970.984 201.149   4
  -7  -2 -11 2589.59 311.239   3
  -7  -2 -11 1839.73 272.380   4
  -7  -2 -12 132.325 98.9142   3
  -7  -2 -12 26.3132 79.2127   4
  -7  -2 -13 415.761 132.021   3
  -7  -2 -13 159.797 94.9522   4
  -7  -2 -14 51.5152 88.0964   3
  -7  -2 -14 38.4235 95.3411   4
  -7  -2 -15-49.2494 69.6862   4
  -7  -3   8 680.779 171.168   1
  -7  -3   8 479.892 165.600   6
  -7  -3   7 728.068 188.137   6
  -7  -3   7 988.695 198.914   1
  -7  -3   6 2812.19 346.100   6
  -7  -3   6 2457.85 305.924   1
  -7  -3   5 779.642 182.445   6
  -7  -3   5 674.642 159.706   1
  -7  -3   4 252.777 137.184   6
  -7  -3   4-42.8644 61.0654   1
  -7  -3   3 377.582 151.078   6
  -7  -3   3 22.6038 53.2899   1
  -7  -3   2 3676.29 347.674   6
  -7  -3   2 3523.78 331.019   1
  -7  -3   1 423.429 115.667   1
  -7  -3   1 539.976 151.037   6
  -7  -3   0 2785.32 291.553   6
  -7  -3   0 2046.80 231.718   1
  -7  -3   0 2352.41 272.173   3
  -7  -3  -1-31.9817 59.6705   1
  -7  -3  -1 204.697 94.9178   6
  -7  -3  -1 208.148 86.0419   3
  -7  -3  -2 2444.96 242.233   1
  -7  -3  -2 2792.39 271.502   6
  -7  -3  -2 2630.05 282.960   3
  -7  -3  -3 78.8376 68.9278   6
  -7  -3  -3 64.2254 86.1460   3
  -7  -3  -4-34.4436 82.2799   3
  -7  -3  -5 177.452 87.7078   3
  -7  -3  -6 1794.89 240.906   3
  -7  -3  -7 74.3298 74.8781   3
  -7  -3  -8 2.46219 83.3877   3
  -7  -3  -9 522.083 150.116   3
  -7  -3  -9 367.358 116.008   4
  -7  -3 -10 2588.20 316.906   3
  -7  -3 -10 1588.93 239.361   4
  -7  -3 -11 294.614 111.797   3
  -7  -3 -11 475.269 137.422   4
  -7  -3 -12 1312.89 230.549   3
  -7  -3 -12 1387.55 239.642   4
  -7  -3 -13 368.340 136.761   3
  -7  -3 -13 291.239 121.147   4
  -7  -3 -14 1156.13 228.050   3
  -7  -3 -14 948.347 219.300   4
  -7  -3 -15 77.1800 100.510   4
  -7  -4   8 143.362 111.329   1
  -7  -4   8 349.863 150.405   6
  -7  -4   7 963.603 208.964   1
  -7  -4   7 1087.16 226.946   6
  -7  -4   6 1286.71 218.844   1
  -7  -4   6 1179.81 240.355   6
  -7  -4   5 1295.21 253.496   6
  -7  -4   5 1374.92 212.809   1
  -7  -4   4 239.828 146.837   6
  -7  -4   4 334.461 119.272   1
  -7  -4   3 55.1556 97.2885   6
  -7  -4   3 40.7344 62.0651   1
  -7  -4   2 2223.32 292.831   6
  -7  -4   2 1886.10 230.054   1
  -7  -4   1 484.090 117.337   1
  -7  -4   1 865.806 176.193   6
  -7  -4   0 1157.84 164.417   1
  -7  -4   0 1402.75 213.250   6
  -7  -4   0 1560.49 239.587   3
  -7  -4  -1 5439.96 423.612   6
  -7  -4  -1 5561.68 430.432   3
  -7  -4  -2 712.906 162.291   6
  -7  -4  -2 580.667 144.747   3
  -7  -4  -3 77.2213 81.3184   6
  -7  -4  -3-40.6491 62.2687   3
  -7  -4  -4 3657.28 329.770   6
  -7  -4  -4 3677.68 348.986   3
  -7  -4  -5 138.950 86.7337   6
  -7  -4  -5 105.253 69.2696   3
  -7  -4  -6 839.656 176.762   3
  -7  -4  -6 692.357 146.001   6
  -7  -4  -7-38.6393 67.6960   3
  -7  -4  -7 45.6165 51.2568   6
  -7  -4  -8 49.5423 80.6954   3
  -7  -4  -9 676.592 166.087   3
  -7  -4  -9 514.113 129.933   4
  -7  -4 -10 4689.91 401.979   4
  -7  -4 -10 6135.62 484.899   3
  -7  -4 -11 42.2258 81.3324   3
  -7  -4 -11 72.1226 73.0712   4
  -7  -4 -12 66.3370 104.182   3
  -7  -4 -12 138.289 97.6380   4
  -7  -4 -13 318.571 133.485   3
  -7  -4 -13 81.2842 64.1466   4
  -7  -4 -14-45.8962 80.3852   3
  -7  -4 -14 29.8706 78.2108   4
  -7  -4 -15 300.360 138.502   4
  -7  -5   8 195.939 112.635   1
  -7  -5   7 1.60078 65.4383   1
  -7  -5   7-29.0424 129.322   6
  -7  -5   6 1149.52 206.669   1
  -7  -5   6 1637.11 273.045   6
  -7  -5   5 1683.83 249.178   1
  -7  -5   5 2337.41 326.410   6
  -7  -5   4 252.371 160.585   6
  -7  -5   3 299.675 133.016   6
  -7  -5   2 2261.41 304.607   6
  -7  -5   1-24.1146 81.3089   3
  -7  -5   1-95.8876 117.549   6
  -7  -5   0 1168.35 221.831   6
  -7  -5   0 1135.77 197.875   3
  -7  -5  -1 136.990 95.0893   6
  -7  -5  -1 39.1321 70.7029   3
  -7  -5  -2 539.132 153.132   6
  -7  -5  -2 511.653 129.499   3
  -7  -5  -3-66.7531 82.8473   6
  -7  -5  -3 80.2384 95.9483   3
  -7  -5  -4 103.410 80.9619   6
  -7  -5  -4 83.2595 67.4289   3
  -7  -5  -5 1274.09 206.745   3
  -7  -5  -5 1197.01 205.329   6
  -7  -5  -6 2638.88 297.220   3
  -7  -5  -6 1709.55 243.574   6
  -7  -5  -7 1393.79 213.808   3
  -7  -5  -7 1141.80 195.016   6
  -7  -5  -8 48.5250 68.1918   3
  -7  -5  -8 44.1754 56.0187   6
  -7  -5  -9 2446.18 301.954   3
  -7  -5  -9 1572.66 235.079   6
   7   5   9 1804.99 246.222   5
  -7  -5 -10 2884.07 324.131   3
  -7  -5 -10 1924.24 258.711   6
   7   5  10 2278.82 283.018   5
  -7  -5 -11-20.7900 57.3951   3
   7   5  11-74.5990 90.8560   5
  -7  -5 -12 232.352 107.773   3
  -7  -5 -13 940.558 205.131   3
  -7  -6   6 716.129 217.858   6
  -7  -6   5 45.3772 116.005   6
  -7  -6   4 442.520 185.424   6
  -7  -6   3 237.856 119.242   6
  -7  -6   2 60.5210 121.938   6
  -7  -6   1-146.400 114.581   6
  -7  -6   1 64.6825 74.5831   3
  -7  -6   0 725.711 180.262   6
  -7  -6   0 1059.64 190.376   3
  -7  -6  -1 84.3705 75.2827   6
  -7  -6  -1 146.432 86.7723   3
  -7  -6  -2 12.1146 94.8316   6
  -7  -6  -2 94.9445 63.7607   3
  -7  -6  -3 202.903 117.390   6
  -7  -6  -3 288.480 108.443   3
  -7  -6  -4 620.006 179.215   6
  -7  -6  -4 622.235 164.925   3
  -7  -6  -5 1149.34 188.863   3
  -7  -6  -5 1409.39 232.914   6
  -7  -6  -6 866.211 170.207   3
  -7  -6  -6 897.139 189.721   6
  -7  -6  -7 1198.47 204.472   3
  -7  -6  -7 958.890 196.331   6
  -7  -6  -8 144.007 111.298   3
  -7  -6  -8 151.187 99.4233   6
  -7  -6  -9 126.997 109.335   3
  -7  -6  -9-2.78617 65.3645   6
   7   6   9 32.3880 80.6001   5
   7   6  10 4534.61 433.042   5
  -7  -6 -10 5462.03 457.329   3
  -7  -6 -11 626.203 158.873   3
   7   6  11 330.428 123.047   5
   7   6  12-48.0266 61.4451   5
  -7  -6 -12 112.818 120.101   3
   7   6  13 18.9369 65.5404   5
  -7  -6 -13 245.141 121.192   3
  -7  -7   5 697.104 211.377   6
  -7  -7   4 44.0888 106.101   6
  -7  -7   3 69.8852 108.835   6
  -7  -7   2 3294.78 362.820   3
  -7  -7   2 4034.98 434.762   6
  -7  -7   1-50.4969 86.0792   6
  -7  -7   1 61.5893 64.0784   3
  -7  -7   0 2108.76 305.717   6
  -7  -7   0 1492.09 221.372   3
  -7  -7  -1 74.9457 107.880   6
  -7  -7  -1 37.1926 53.0853   3
  -7  -7  -2 507.982 156.692   6
  -7  -7  -2 326.458 119.032   3
  -7  -7  -3 1793.10 274.667   6
  -7  -7  -3 2261.37 277.920   3
  -7  -7  -4 38.3888 65.2359   3
  -7  -7  -4-257.229 132.682   6
  -7  -7  -5 3270.67 365.282   6
  -7  -7  -5 3028.33 326.293   3
  -7  -7  -6 811.334 165.654   3
  -7  -7  -6 750.837 188.752   6
  -7  -7  -7-124.425 97.9065   3
  -7  -7  -7-42.0962 65.8591   6
  -7  -7  -8 315.598 118.438   3
  -7  -7  -8 397.813 134.346   6
  -7  -7  -9 2718.27 347.058   6
  -7  -7  -9 3115.87 339.672   3
   7   7   9 2772.97 340.665   5
  -7  -7 -10 57.6644 60.0878   3
   7   7  10-26.0951 69.5946   5
  -7  -7 -11 822.974 183.890   3
   7   7  11 668.721 175.802   5
   7   7  12 99.0705 92.1653   5
  -7  -7 -12-110.496 99.5762   3
   7   7  13-43.6961 71.9928   5
  -7  -8   3 862.566 216.133   6
  -7  -8   2 150.291 147.531   6
  -7  -8   1 2312.44 340.540   6
  -7  -8   0 420.256 166.536   6
  -7  -8  -1-17.1256 100.033   6
  -7  -8  -2 393.595 151.459   6
  -7  -8  -3 161.357 141.162   6
  -7  -8  -4-84.7833 87.6087   6
  -7  -8  -5 253.552 138.841   6
  -7  -8  -6 213.581 123.126   6
  -7  -8  -7 408.860 163.682   6
  -7  -8  -8 1194.28 238.315   6
  -7  -8  -9-150.538 116.199   6
   7   8   9 43.2139 95.4800   5
  -7  -8 -10 1031.07 220.541   6
   7   8  10 985.143 221.740   5
   7   8  11 824.347 204.520   5
   7   8  12 80.0494 96.7604   5
  -7  -9   0 246.235 149.662   6
  -7  -9  -1 1183.62 253.662   6
  -7  -9  -2 239.790 114.002   6
  -7  -9  -3 3086.31 428.041   6
  -7  -9  -4-97.2332 121.631   6
  -7  -9  -5 629.115 197.384   6
  -7  -9  -6 855.591 224.858   6
  -7  -9  -7 1277.81 262.850   6
  -7  -9  -8-3.92316 88.2851   6
   7   9   9 144.652 121.009   5
  -8   3   0 297.476 99.9477   3
  -8   3  -1 317.082 123.135   3
  -8   3  -2 1017.34 212.717   3
  -8   3  -3 82.7929 68.1004   3
  -8   3  -4 170.229 116.576   3
  -8   3  -5 39.5451 68.7920   3
  -8   3  -6 14.1596 61.0324   3
  -8   3  -7-10.6219 80.3540   3
  -8   3  -8 299.403 122.089   3
  -8   2   2 52.4477 76.1192   3
  -8   2   1-46.6553 86.6054   3
  -8   2   0 455.923 136.833   3
  -8   2  -1 1030.88 195.117   3
  -8   2  -2 241.490 111.891   3
  -8   2  -3 1488.48 259.894   3
  -8   2  -4 898.411 199.052   3
  -8   2  -5 196.395 111.734   3
  -8   2  -6 291.974 129.492   3
  -8   2  -7 262.401 110.952   3
  -8   2  -8 80.7406 83.8596   3
  -8   2  -9-87.5120 98.9519   3
  -8   1   3 395.193 153.948   1
  -8   1   2 398.241 152.311   1
  -8   1   2 626.438 180.075   3
  -8   1   1-9.01983 72.5422   1
  -8   1   1 166.501 107.543   3
  -8   1   0 323.553 141.723   1
  -8   1   0 534.551 162.100   3
  -8   1  -1 408.832 133.757   3
  -8   1  -2 359.972 131.900   3
  -8   1  -3 3315.65 371.873   3
  -8   1  -4 852.336 192.844   3
  -8   1  -5-37.0202 62.8564   3
  -8   1  -6 762.458 175.876   3
  -8   1  -7 213.643 98.4122   3
  -8   1  -8-122.705 88.4936   3
  -8   1  -9 152.511 124.085   3
  -8   1 -10 142.189 106.831   3
  -8   0   4 452.349 155.804   1
  -8   0   3 103.290 104.234   1
  -8   0   3 303.424 160.219   3
  -8   0   2-58.8840 72.2467   1
  -8   0   2-149.203 104.292   3
  -8   0   1 455.388 141.336   1
  -8   0   1 543.859 162.808   3
  -8   0   0 557.170 143.792   1
  -8   0   0 1332.28 234.374   3
  -8   0  -1-42.8249 76.7546   3
  -8   0  -2 1136.99 201.313   3
  -8   0  -3-11.3992 87.9429   3
  -8   0  -4 1370.37 236.250   3
  -8   0  -5 31.4991 91.7450   3
  -8   0  -6-135.961 96.2267   3
  -8   0  -7 344.054 123.347   3
  -8   0  -8 310.436 113.609   3
  -8   0  -9 1339.86 243.565   3
  -8   0 -10 772.110 205.622   3
  -8  -1   5 83.9917 84.7211   1
  -8  -1   4 183.375 123.661   1
  -8  -1   3 294.478 120.587   1
  -8  -1   2 408.595 131.210   1
  -8  -1   2 257.806 121.835   3
  -8  -1   1 434.576 131.636   1
  -8  -1   1 420.402 148.183   3
  -8  -1   0 1709.68 246.371   1
  -8  -1   0 2034.75 284.468   3
  -8  -1  -1-40.7620 78.0220   1
  -8  -1  -1 71.6348 80.9492   3
  -8  -1  -2 1067.10 202.068   3
  -8  -1  -3-28.5524 71.6505   3
  -8  -1  -4 3820.31 391.247   3
  -8  -1  -5 470.770 157.005   3
  -8  -1  -6-38.9016 59.6472   3
  -8  -1  -7 1942.75 283.569   3
  -8  -1  -8 680.782 153.467   3
  -8  -1  -9 171.743 79.8880   3
  -8  -1 -10 1993.23 291.918   3
  -8  -1 -11 930.115 200.991   3
  -8  -2   5 26.1290 74.5661   1
  -8  -2   4 635.969 163.778   1
  -8  -2   3 569.709 158.047   1
  -8  -2   2 8.88603 74.8355   3
  -8  -2   2-2.80472 64.2398   1
  -8  -2   1 2122.30 265.528   1
  -8  -2   1 2868.97 338.124   3
  -8  -2   0 116.858 70.0992   1
  -8  -2   0 208.178 117.864   3
  -8  -2  -1 366.829 121.959   1
  -8  -2  -1 279.068 105.873   3
  -8  -2  -2 61.8333 68.0312   3
  -8  -2  -3 272.239 118.332   3
  -8  -2  -4 293.276 115.413   3
  -8  -2  -5-154.269 113.744   3
  -8  -2  -6-120.679 99.3295   3
  -8  -2  -7 114.527 94.2208   3
  -8  -2  -8 71.3764 86.6937   3
  -8  -2  -9 632.123 162.668   3
  -8  -2 -10 3292.46 373.842   3
  -8  -2 -11 107.520 64.5680   3
  -8  -2 -13 88.5949 87.3417   4
  -8  -3   6 573.391 168.057   1
  -8  -3   5 253.871 114.712   1
  -8  -3   4 5.44880 65.4455   1
  -8  -3   3 72.0593 77.1378   1
  -8  -3   2-51.9870 70.0772   1
  -8  -3   2 44.5399 64.9901   3
  -8  -3   1 567.776 154.210   3
  -8  -3   1 328.901 108.180   1
  -8  -3   0 4260.08 411.939   3
  -8  -3  -1-195.991 122.529   3
  -8  -3  -2 2018.43 269.633   3
  -8  -3  -3 664.944 155.327   3
  -8  -3  -4-246.017 139.306   3
  -8  -3  -5 2428.91 309.047   3
  -8  -3  -6-17.1542 86.6598   3
  -8  -3  -7 27.1772 83.4345   3
  -8  -3  -8 401.537 128.163   3
  -8  -3  -9 2843.62 338.985   3
  -8  -3 -10 895.233 200.132   3
  -8  -3 -11 217.925 125.982   3
  -8  -3 -12 274.893 117.504   4
  -8  -3 -13-77.5061 95.7120   4
  -8  -3 -14-0.64044 55.2981   4
  -8  -4   5 306.583 137.803   6
  -8  -4   4 415.723 161.023   6
  -8  -4   3 79.9518 108.881   6
  -8  -4   2-16.8464 101.516   6
  -8  -4   2-42.5573 88.3788   3
  -8  -4   1 3501.37 368.435   6
  -8  -4   1 3876.60 399.991   3
  -8  -4   0 20.7111 90.1510   3
  -8  -4  -1 1854.85 257.148   3
  -8  -4  -2 854.182 185.595   3
  -8  -4  -3 678.291 163.468   3
  -8  -4  -4 1.31384 65.1757   3
  -8  -4  -5-115.725 82.9127   3
  -8  -4  -6 357.278 146.522   3
  -8  -4  -7 115.497 94.7882   3
  -8  -4  -8 190.975 107.272   3
  -8  -4  -9 123.385 94.4501   3
  -8  -4 -10 208.020 107.893   3
  -8  -4 -11-80.7783 60.8687   3
  -8  -5   5 796.443 206.353   6
  -8  -5   4-25.4663 116.889   6
  -8  -5   3 178.356 118.212   6
  -8  -5   2 373.360 144.798   6
  -8  -5   2 502.212 162.573   3
  -8  -5   1 3407.24 381.417   6
  -8  -5   1 3811.73 399.280   3
  -8  -5   0-127.101 86.9245   6
  -8  -5   0 55.3578 87.5394   3
  -8  -5  -1 531.990 164.155   6
  -8  -5  -1 434.346 132.462   3
  -8  -5  -2 126.940 105.227   6
  -8  -5  -2-11.2623 52.5322   3
  -8  -5  -3 474.105 132.531   6
  -8  -5  -3 627.241 164.348   3
  -8  -5  -4 159.908 100.987   3
  -8  -5  -5 544.966 150.296   3
  -8  -5  -6 1153.31 215.928   3
  -8  -5  -7 214.526 109.991   3
  -8  -5  -8 133.669 106.284   3
  -8  -5  -9 1044.66 225.075   3
  -8  -5 -10 57.1023 80.5892   3
  -8  -5 -11 708.796 173.751   3
  -8  -6   3 564.028 194.461   6
  -8  -6   3 473.941 146.186   3
  -8  -6   2 800.351 208.903   6
  -8  -6   2 1113.49 220.433   3
  -8  -6   1 3167.46 389.158   6
  -8  -6   1 3285.15 367.276   3
  -8  -6   0 715.305 198.388   6
  -8  -6   0 131.607 92.5916   3
  -8  -6  -1 675.799 179.505   6
  -8  -6  -1 595.980 157.864   3
  -8  -6  -2 87.6372 89.0812   6
  -8  -6  -2 103.030 95.8062   3
  -8  -6  -3 222.743 125.848   6
  -8  -6  -3 403.760 139.955   3
  -8  -6  -4 709.050 164.024   6
  -8  -6  -4 722.197 168.971   3
  -8  -6  -5 95.1868 105.509   3
  -8  -6  -5 18.7988 79.6458   6
  -8  -6  -6 178.079 103.875   3
  -8  -6  -6-13.2201 66.5029   6
  -8  -6  -7-11.3310 57.9921   3
  -8  -6  -8-111.518 100.872   3
  -8  -6  -9-101.875 99.5546   3
  -8  -6 -10-113.191 78.0525   3
  -8  -6 -11 930.561 204.216   3
  -8  -7   3 151.808 77.7987   3
  -8  -7   2-30.8659 116.936   6
  -8  -7   2 31.2248 68.8308   3
  -8  -7   1 286.926 141.364   6
  -8  -7   1 253.032 114.434   3
  -8  -7   0 2238.16 337.041   6
  -8  -7   0 2223.89 301.379   3
  -8  -7  -1 271.597 163.563   6
  -8  -7  -1 227.295 95.6868   3
  -8  -7  -2 267.885 140.533   6
  -8  -7  -2 151.711 78.8971   3
  -8  -7  -3-85.2649 95.9672   6
  -8  -7  -3 131.383 77.8799   3
  -8  -7  -4 243.763 128.543   3
  -8  -7  -4 25.9171 74.7967   6
  -8  -7  -5 113.755 87.1392   3
  -8  -7  -5 106.203 95.8008   6
  -8  -7  -6 387.643 118.835   3
  -8  -7  -6 485.471 167.731   6
  -8  -7  -7 396.107 132.923   3
  -8  -7  -7 253.303 117.405   6
  -8  -7  -8 40.5982 57.1371   3
  -8  -7  -8-19.1358 64.2888   6
  -8  -7  -9 629.206 169.804   3
  -8  -7 -10 435.113 147.348   3
  -8  -7 -11 609.629 160.415   3
  -8  -8  -1 347.910 142.814   6
  -8  -8  -2 349.931 157.709   6
  -8  -8  -3 50.1912 78.9893   6
  -8  -8  -4 174.782 99.8583   6
  -8  -8  -5 823.130 202.785   6
  -8  -8  -6 698.661 207.555   6
  -8  -8  -7 28.3598 75.7154   6
  -8  -8  -8 204.698 114.024   6
  -9  -1   0-156.876 97.8107   1
   0   0   0    0.00    0.00   0
;
_shelx_hkl_checksum              8068
loop_
_space_group_symop_operation_xyz
'x, y, z'
'-x, -y, -z'
loop_
_atom_site_label
_atom_site_type_symbol
_atom_site_fract_x
_atom_site_fract_y
_atom_site_fract_z
_atom_site_U_iso_or_equiv
_atom_site_adp_type
_atom_site_occupancy
_atom_site_site_symmetry_order
_atom_site_calc_flag
S1 S 0.34828(6) 0.29121(4) 0.47525(3) 0.04290(12) Uani 1 1 d
O1 O 0.2366(2) 0.16327(15) 0.47015(10) 0.0639(3) Uani 1 1 d
O2 O 0.3035(2) 0.37224(14) 0.57258(9) 0.0587(3) Uani 1 1 d
N1 N 0.82330(17) 0.25189(13) 0.07773(8) 0.0344(2) Uani 1 1 d
C1 C 0.6394(3) 0.2217(2) 0.42393(12) 0.0455(3) Uani 1 1 d
H1A H 0.690(3) 0.121(2) 0.4502(15) 0.058(5) Uiso 1 1 d
H1B H 0.706(3) 0.298(2) 0.4496(14) 0.048(4) Uiso 1 1 d
C2 C 0.6605(2) 0.22724(15) 0.30729(10) 0.0357(3) Uani 1 1 d
H2 H 0.705(3) 0.1148(19) 0.2775(13) 0.045(4) Uiso 1 1 d
C3 C 0.8065(2) 0.33740(16) 0.24535(10) 0.0362(3) Uani 1 1 d
H3 H 0.872(3) 0.3959(18) 0.2895(13) 0.041(4) Uiso 1 1 d
C4 C 0.9673(2) 0.26361(19) 0.14904(11) 0.0395(3) Uani 1 1 d
H4A H 1.054(3) 0.1588(19) 0.1595(12) 0.041(4) Uiso 1 1 d
H4B H 1.072(3) 0.339(2) 0.1198(14) 0.054(5) Uiso 1 1 d
C5 C 0.6531(2) 0.40309(17) 0.09252(11) 0.0399(3) Uani 1 1 d
H5A H 0.525(3) 0.3950(19) 0.0658(13) 0.047(4) Uiso 1 1 d
H5B H 0.711(3) 0.497(2) 0.0504(13) 0.048(4) Uiso 1 1 d
C6 C 0.6006(2) 0.43782(15) 0.20699(11) 0.0372(3) Uani 1 1 d
H6 H 0.554(3) 0.559(2) 0.2218(13) 0.047(4) Uiso 1 1 d
C7 C 0.4490(2) 0.33939(16) 0.27713(10) 0.0362(3) Uani 1 1 d
H7 H 0.367(2) 0.2796(18) 0.2418(13) 0.040(4) Uiso 1 1 d
C8 C 0.3027(2) 0.42805(18) 0.37368(11) 0.0434(3) Uani 1 1 d
H8A H 0.346(3) 0.529(2) 0.3900(15) 0.059(5) Uiso 1 1 d
H8B H 0.143(3) 0.457(2) 0.3765(15) 0.059(5) Uiso 1 1 d
C9 C 0.9560(2) 0.2264(2) -0.02697(11) 0.0426(3) Uani 1 1 d
H9A H 1.014(3) 0.322(2) -0.0474(14) 0.053(5) Uiso 1 1 d
H9B H 1.081(3) 0.125(2) -0.0277(13) 0.054(5) Uiso 1 1 d
C10 C 0.8376(2) 0.19298(15) -0.10779(10) 0.0352(3) Uani 1 1 d
C11 C 0.6407(2) 0.13821(16) -0.08460(11) 0.0381(3) Uani 1 1 d
H11 H 0.569(3) 0.128(2) -0.0148(16) 0.064(5) Uiso 1 1 d
C12 C 0.5519(2) 0.09342(17) -0.16252(11) 0.0414(3) Uani 1 1 d
H12 H 0.417(3) 0.0548(19) -0.1414(13) 0.046(4) Uiso 1 1 d
C13 C 0.6569(3) 0.10212(18) -0.26446(12) 0.0443(3) Uani 1 1 d
H13 H 0.599(3) 0.070(2) -0.3191(15) 0.060(5) Uiso 1 1 d
C14 C 0.8510(3) 0.15968(18) -0.28877(11) 0.0458(3) Uani 1 1 d
H14 H 0.929(3) 0.171(2) -0.3564(15) 0.055(5) Uiso 1 1 d
C15 C 0.9397(2) 0.20588(17) -0.21144(11) 0.0417(3) Uani 1 1 d
H15 H 1.068(3) 0.246(2) -0.2261(13) 0.051(4) Uiso 1 1 d
loop_
_atom_site_aniso_label
_atom_site_aniso_U_11
_atom_site_aniso_U_22
_atom_site_aniso_U_33
_atom_site_aniso_U_23
_atom_site_aniso_U_13
_atom_site_aniso_U_12
S1 0.0492(2) 0.0458(2) 0.03269(19) -0.00455(13) -0.00054(13) -0.01550(15)
O1 0.0772(8) 0.0626(7) 0.0549(8) -0.0055(5) 0.0047(6) -0.0388(6)
O2 0.0711(7) 0.0670(7) 0.0350(6) -0.0115(5) -0.0008(5) -0.0171(6)
N1 0.0318(5) 0.0421(6) 0.0291(5) -0.0011(4) -0.0060(4) -0.0083(4)
C1 0.0496(8) 0.0491(8) 0.0352(7) 0.0059(6) -0.0096(6) -0.0062(6)
C2 0.0391(6) 0.0318(6) 0.0350(7) -0.0013(5) -0.0074(5) -0.0058(5)
C3 0.0370(6) 0.0407(6) 0.0338(7) -0.0021(5) -0.0106(5) -0.0118(5)
C4 0.0322(6) 0.0513(8) 0.0354(7) -0.0018(5) -0.0078(5) -0.0089(6)
C5 0.0426(7) 0.0414(7) 0.0348(7) 0.0056(5) -0.0116(5) -0.0057(5)
C6 0.0418(7) 0.0320(6) 0.0367(7) -0.0005(5) -0.0077(5) -0.0067(5)
C7 0.0355(6) 0.0413(7) 0.0331(7) -0.0030(5) -0.0090(5) -0.0087(5)
C8 0.0360(7) 0.0490(8) 0.0411(8) -0.0052(6) -0.0045(5) -0.0039(6)
C9 0.0381(7) 0.0577(8) 0.0332(7) -0.0022(6) -0.0017(5) -0.0180(6)
C10 0.0358(6) 0.0369(6) 0.0304(6) 0.0006(5) -0.0028(5) -0.0070(5)
C11 0.0401(6) 0.0422(7) 0.0298(7) -0.0004(5) -0.0010(5) -0.0108(5)
C12 0.0387(7) 0.0438(7) 0.0410(8) -0.0039(5) -0.0064(5) -0.0091(6)
C13 0.0514(8) 0.0464(7) 0.0348(7) -0.0046(5) -0.0121(6) -0.0070(6)
C14 0.0536(8) 0.0504(8) 0.0268(7) 0.0028(5) -0.0007(6) -0.0063(6)
C15 0.0396(7) 0.0479(8) 0.0339(7) 0.0030(5) 0.0009(5) -0.0114(6)
loop_
_atom_type_symbol
_atom_type_description
_atom_type_scat_dispersion_real
_atom_type_scat_dispersion_imag
_atom_type_scat_source
C C 0.0033 0.0016 'International Tables Vol C Tables 4.2.6.8 and 6.1.1.4'
H H 0.0000 0.0000 'International Tables Vol C Tables 4.2.6.8 and 6.1.1.4'
N N 0.0061 0.0033 'International Tables Vol C Tables 4.2.6.8 and 6.1.1.4'
O O 0.0106 0.0060 'International Tables Vol C Tables 4.2.6.8 and 6.1.1.4'
S S 0.1246 0.1234 'International Tables Vol C Tables 4.2.6.8 and 6.1.1.4'
loop_
_geom_angle_atom_site_label_1
_geom_angle_atom_site_label_2
_geom_angle_atom_site_label_3
_geom_angle
O2 S1 O1 117.26(8)
O2 S1 C8 111.97(7)
O1 S1 C8 108.80(8)
O2 S1 C1 112.46(8)
O1 S1 C1 109.17(8)
C8 S1 C1 94.86(7)
C9 N1 C5 114.05(11)
C9 N1 C4 110.00(10)
C5 N1 C4 104.49(11)
C2 C1 S1 104.35(10)
C1 C2 C3 117.14(12)
C1 C2 C7 111.49(11)
C3 C2 C7 89.29(9)
C4 C3 C2 115.52(11)
C4 C3 C6 104.73(11)
C2 C3 C6 90.37(9)
N1 C4 C3 104.27(10)
N1 C5 C6 105.31(10)
C5 C6 C7 116.79(11)
C5 C6 C3 104.54(10)
C7 C6 C3 89.96(10)
C8 C7 C6 114.55(11)
C8 C7 C2 108.28(11)
C6 C7 C2 89.89(10)
C7 C8 S1 104.36(9)
N1 C9 C10 116.54(11)
C11 C10 C15 118.36(13)
C11 C10 C9 123.16(12)
C15 C10 C9 118.29(12)
C12 C11 C10 120.54(13)
C13 C12 C11 120.80(14)
C12 C13 C14 119.26(14)
C15 C14 C13 120.29(14)
C14 C15 C10 120.71(14)
loop_
_geom_bond_atom_site_label_1
_geom_bond_atom_site_label_2
_geom_bond_distance
S1 O2 1.4392(12)
S1 O1 1.4394(12)
S1 C8 1.7754(16)
S1 C1 1.7808(16)
N1 C9 1.4574(17)
N1 C5 1.4678(17)
N1 C4 1.4705(17)
C1 C2 1.529(2)
C2 C3 1.5502(19)
C2 C7 1.5717(18)
C3 C4 1.5102(19)
C3 C6 1.5562(18)
C5 C6 1.5155(19)
C6 C7 1.5475(19)
C7 C8 1.5252(19)
C9 C10 1.5080(19)
C10 C11 1.3914(19)
C10 C15 1.4002(18)
C11 C12 1.387(2)
C12 C13 1.380(2)
C13 C14 1.388(2)
C14 C15 1.385(2)
loop_
_geom_torsion_atom_site_label_1
_geom_torsion_atom_site_label_2
_geom_torsion_atom_site_label_3
_geom_torsion_atom_site_label_4
_geom_torsion
O2 S1 C1 C2 -149.87(10)
O1 S1 C1 C2 78.17(12)
C8 S1 C1 C2 -33.68(11)
S1 C1 C2 C3 119.48(11)
S1 C1 C2 C7 18.71(14)
C1 C2 C3 C4 134.28(12)
C7 C2 C3 C4 -111.81(11)
C1 C2 C3 C6 -119.17(12)
C7 C2 C3 C6 -5.26(10)
C9 N1 C4 C3 163.73(11)
C5 N1 C4 C3 40.91(14)
C2 C3 C4 N1 70.46(14)
C6 C3 C4 N1 -27.17(14)
C9 N1 C5 C6 -158.47(11)
C4 N1 C5 C6 -38.32(13)
N1 C5 C6 C7 -77.04(13)
N1 C5 C6 C3 20.44(13)
C4 C3 C6 C5 4.16(14)
C2 C3 C6 C5 -112.40(11)
C4 C3 C6 C7 121.90(11)
C2 C3 C6 C7 5.34(10)
C5 C6 C7 C8 -148.83(11)
C3 C6 C7 C8 104.85(11)
C5 C6 C7 C2 101.05(12)
C3 C6 C7 C2 -5.27(10)
C1 C2 C7 C8 8.42(16)
C3 C2 C7 C8 -110.62(12)
C1 C2 C7 C6 124.33(12)
C3 C2 C7 C6 5.29(10)
C6 C7 C8 S1 -130.24(10)
C2 C7 C8 S1 -31.69(13)
O2 S1 C8 C7 155.66(10)
O1 S1 C8 C7 -73.10(11)
C1 S1 C8 C7 39.05(11)
C5 N1 C9 C10 -69.72(17)
C4 N1 C9 C10 173.27(12)
N1 C9 C10 C11 -20.1(2)
N1 C9 C10 C15 164.97(12)
C15 C10 C11 C12 1.77(19)
C9 C10 C11 C12 -173.17(13)
C10 C11 C12 C13 0.0(2)
C11 C12 C13 C14 -1.3(2)
C12 C13 C14 C15 0.8(2)
C13 C14 C15 C10 1.0(2)
C11 C10 C15 C14 -2.3(2)
C9 C10 C15 C14 172.89(13)
