#------------------------------------------------------------------------------
#$Date: 2019-11-11 16:20:37 +0200 (Mon, 11 Nov 2019) $
#$Revision: 226526 $
#$URL: file:///home/coder/svn-repositories/cod/cif/4/03/50/4035028.cif $
#------------------------------------------------------------------------------
#
# This file is available in the Crystallography Open Database (COD),
# http://www.crystallography.net/
#
# All data on this site have been placed in the public domain by the
# contributors.
#
data_4035028
loop_
_publ_author_name
'Zhu, Yu'
'Shao, Li-Dong'
'Deng, Zhen-Tao'
'Bao, Ying'
'Shi, Xin'
'Zhao, Qin-Shi'
_publ_section_title
;
 PIDA/I<sub>2</sub>-Mediated \a- and \b-C(sp<sup>3</sup>)-H Bond Dual
 Functionalization of Tertiary Amines.
;
_journal_issue                   17
_journal_name_full               'The Journal of organic chemistry'
_journal_page_first              10166
_journal_page_last               10174
_journal_paper_doi               10.1021/acs.joc.8b01424
_journal_volume                  83
_journal_year                    2018
_chemical_formula_moiety         'C6 H9 I2 N O'
_chemical_formula_sum            'C6 H9 I2 N O'
_chemical_formula_weight         364.94
_space_group_crystal_system      monoclinic
_space_group_IT_number           14
_space_group_name_Hall           '-P 2ybc'
_space_group_name_H-M_alt        'P 1 21/c 1'
_atom_sites_solution_hydrogens   geom
_atom_sites_solution_primary     dual
_audit_creation_date             2017-11-09
_audit_creation_method
;
Olex2 1.2
(compiled 2017.03.28 svn.r3405 for OlexSys, GUI svn.r5337)
;
_cell_angle_alpha                90
_cell_angle_beta                 93.685(3)
_cell_angle_gamma                90
_cell_formula_units_Z            4
_cell_length_a                   8.4152(16)
_cell_length_b                   8.0644(15)
_cell_length_c                   13.713(3)
_cell_measurement_reflns_used    5593
_cell_measurement_temperature    296(2)
_cell_measurement_theta_max      30.65
_cell_measurement_theta_min      2.43
_cell_volume                     928.7(3)
_computing_cell_refinement       'SAINT v7.68A (Bruker, 2009)'
_computing_data_reduction        'SAINT v7.68A (Bruker, 2009)'
_computing_molecular_graphics    'Olex2 (Dolomanov et al., 2009)'
_computing_publication_material  'Olex2 (Dolomanov et al., 2009)'
_computing_structure_refinement  'ShelXL (Sheldrick, 2015)'
_computing_structure_solution    'ShelXT (Sheldrick, 2015)'
_diffrn_ambient_temperature      296.15
_diffrn_measured_fraction_theta_full 0.999
_diffrn_measured_fraction_theta_max 0.990
_diffrn_measurement_device_type  'Bruker APEX-II CCD'
_diffrn_measurement_method       '\f and \w scans'
_diffrn_radiation_monochromator  graphite
_diffrn_radiation_type           MoK\a
_diffrn_radiation_wavelength     0.71073
_diffrn_reflns_av_R_equivalents  0.0279
_diffrn_reflns_av_unetI/netI     0.0268
_diffrn_reflns_Laue_measured_fraction_full 0.999
_diffrn_reflns_Laue_measured_fraction_max 0.990
_diffrn_reflns_limit_h_max       12
_diffrn_reflns_limit_h_min       -10
_diffrn_reflns_limit_k_max       11
_diffrn_reflns_limit_k_min       -11
_diffrn_reflns_limit_l_max       19
_diffrn_reflns_limit_l_min       -16
_diffrn_reflns_number            8796
_diffrn_reflns_point_group_measured_fraction_full 0.999
_diffrn_reflns_point_group_measured_fraction_max 0.990
_diffrn_reflns_theta_full        25.242
_diffrn_reflns_theta_max         30.705
_diffrn_reflns_theta_min         2.425
_diffrn_standards_number         0
_exptl_absorpt_coefficient_mu    6.713
_exptl_absorpt_correction_T_max  0.7461
_exptl_absorpt_correction_T_min  0.5351
_exptl_absorpt_correction_type   multi-scan
_exptl_absorpt_process_details
'SADABS-2008/1 (Bruker,2008) was used for absorption correction. wR2(int) was 0.0746 before and 0.0439 after correction. The Ratio of minimum to maximum transmission is 0.6907. The \l/2 correction factor is 0.0015.'
_exptl_crystal_colour            colourless
_exptl_crystal_colour_primary    colourless
_exptl_crystal_density_diffrn    2.610
_exptl_crystal_description       block
_exptl_crystal_F_000             664
_exptl_crystal_size_max          0.2
_exptl_crystal_size_mid          0.15
_exptl_crystal_size_min          0.12
_refine_diff_density_max         0.706
_refine_diff_density_min         -2.142
_refine_diff_density_rms         0.260
_refine_ls_extinction_method     none
_refine_ls_goodness_of_fit_ref   1.169
_refine_ls_hydrogen_treatment    constr
_refine_ls_matrix_type           full
_refine_ls_number_parameters     92
_refine_ls_number_reflns         2859
_refine_ls_number_restraints     0
_refine_ls_restrained_S_all      1.169
_refine_ls_R_factor_all          0.0398
_refine_ls_R_factor_gt           0.0335
_refine_ls_shift/su_max          0.002
_refine_ls_shift/su_mean         0.000
_refine_ls_structure_factor_coef Fsqd
_refine_ls_weighting_details
'w=1/[\s^2^(Fo^2^)+(0.0374P)^2^+1.7445P] where P=(Fo^2^+2Fc^2^)/3'
_refine_ls_weighting_scheme      calc
_refine_ls_wR_factor_gt          0.0834
_refine_ls_wR_factor_ref         0.0876
_reflns_Friedel_coverage         0.000
_reflns_number_gt                2485
_reflns_number_total             2859
_reflns_threshold_expression     'I > 2\s(I)'
_cod_data_source_file            jo8b01424_si_002.cif
_cod_data_source_block           mo_dm17439_0m
_cod_database_code               4035028
_shelx_shelxl_version_number     2017/1
_shelx_space_group_comment
;
The symmetry employed for this shelxl refinement is uniquely defined
by the following loop, which should always be used as a source of
symmetry information in preference to the above space-group names.
They are only intended as comments.
;
_shelx_estimated_absorpt_t_max   0.500
_shelx_estimated_absorpt_t_min   0.347
_olex2_refinement_description
;
1. Fixed Uiso
 At 1.2 times of:
  All C(H,H) groups
 At 1.5 times of:
  All C(H,H,H) groups
2.a Secondary CH2 refined with riding coordinates:
 C3(H3A,H3B), C4(H4A,H4B), C5(H5A,H5B)
2.b Idealised Me refined as rotating group:
 C6(H6A,H6B,H6C)
;
_shelx_res_file
;
TITL mo_dm17439_0m_a.res in P2(1)/c
    mo_dm17439_0m.res
    created by SHELXL-2017/1 at 08:24:32 on 09-Nov-2017
REM Old TITL mo_dm17439_0m in P2(1)/c
REM SHELXT solution in P2(1)/c
REM R1 0.097, Rweak 0.003, Alpha 0.013, Orientation as input
REM Formula found by SHELXT: C6 N O I2
CELL 0.71073 8.4152 8.0644 13.7134 90 93.685 90
ZERR 4 0.0016 0.0015 0.0025 0 0.003 0
LATT 1
SYMM -X,0.5+Y,0.5-Z
SFAC C H I N O
UNIT 24 36 8 4 4

L.S. 4
PLAN  20
SIZE 0.12 0.15 0.2
TEMP 23
BOND $H
list 4
fmap 2
ACTA
REM <olex2.extras>
REM <HklSrc "%.\\mo_dm17439_0m.hkl">
REM </olex2.extras>

WGHT    0.037400    1.744500
FVAR       0.38643
I1    3    0.468432    0.882994    0.675381    11.00000    0.03049    0.03426 =
         0.03709    0.00088    0.00090   -0.00916
I2    3    0.048512    0.897948    0.686745    11.00000    0.03313    0.03487 =
         0.03719    0.00026    0.00509    0.00986
O1    5    0.235583    0.552728    0.721337    11.00000    0.03732    0.03135 =
         0.03203    0.00915    0.00582    0.00035
N1    4    0.247271    0.495722    0.561016    11.00000    0.03697    0.02485 =
         0.03719   -0.00378    0.00281   -0.00145
C1    1    0.241393    0.601302    0.636063    11.00000    0.01931    0.02356 =
         0.03036    0.00305    0.00136   -0.00029
C2    1    0.241989    0.787028    0.612996    11.00000    0.02673    0.02263 =
         0.02412    0.00278    0.00172    0.00059
C3    1    0.220543    0.830182    0.503905    11.00000    0.04378    0.03801 =
         0.02608    0.00814    0.00031    0.00098
AFIX  23
H3A   2    0.108790    0.822392    0.482208    11.00000   -1.20000
H3B   2    0.255146    0.943261    0.493771    11.00000   -1.20000
AFIX   0
C4    1    0.315695    0.713897    0.445177    11.00000    0.05627    0.05663 =
         0.03028    0.00103    0.01271    0.00162
AFIX  23
H4A   2    0.304181    0.744409    0.376667    11.00000   -1.20000
H4B   2    0.427541    0.721602    0.466664    11.00000   -1.20000
AFIX   0
C5    1    0.258535    0.540140    0.457886    11.00000    0.06313    0.04957 =
         0.03425   -0.00872    0.00187    0.00589
AFIX  23
H5A   2    0.154617    0.527726    0.423782    11.00000   -1.20000
H5B   2    0.331054    0.464233    0.428520    11.00000   -1.20000
AFIX   0
C6    1    0.231318    0.318699    0.582470    11.00000    0.05437    0.02267 =
         0.06636   -0.00596    0.00424   -0.00082
AFIX 137
H6A   2    0.326141    0.280197    0.618086    11.00000   -1.50000
H6B   2    0.215977    0.258006    0.522379    11.00000   -1.50000
H6C   2    0.141384    0.301931    0.620998    11.00000   -1.50000
AFIX   0
HKLF 4




REM  mo_dm17439_0m_a.res in P2(1)/c
REM R1 =  0.0335 for    2485 Fo > 4sig(Fo)  and  0.0398 for all    2859 data
REM     92 parameters refined using      0 restraints

END

WGHT      0.0374      1.7445

REM Highest difference peak  0.706,  deepest hole -2.142,  1-sigma level  0.260
Q1    1   0.2477  0.8941  0.6787  11.00000  0.05    0.71
Q2    1   0.2389  0.9023  0.7454  11.00000  0.05    0.53
Q3    1   0.4821  0.3881  0.3812  11.00000  0.05    0.52
Q4    1   0.2841  0.8808  0.6222  11.00000  0.05    0.51
Q5    1   0.4595  0.5723  0.6589  11.00000  0.05    0.50
Q6    1   0.4413  1.0390  0.5186  11.00000  0.05    0.50
Q7    1   0.0801  0.9158  0.4312  11.00000  0.05    0.48
Q8    1   0.4719  0.6925  0.6646  11.00000  0.05    0.48
Q9    1   0.0865  0.6421  0.7605  11.00000  0.05    0.47
Q10   1   0.1339  0.8795  0.3389  11.00000  0.05    0.45
Q11   1   0.0926  0.4855  0.7215  11.00000  0.05    0.45
Q12   1   0.4469  0.5488  0.7161  11.00000  0.05    0.44
Q13   1   0.4726  0.4535  0.6813  11.00000  0.05    0.44
Q14   1   0.1023  0.5585  0.3455  11.00000  0.05    0.44
Q15   1   0.0209  0.5850  0.7221  11.00000  0.05    0.44
Q16   1  -0.0774  0.7180  0.6402  11.00000  0.05    0.44
Q17   1   0.2750  1.1250  0.3812  11.00000  0.05    0.44
Q18   1   0.4699  0.9075  0.4200  11.00000  0.05    0.43
Q19   1   0.1003  0.4221  0.3848  11.00000  0.05    0.43
Q20   1   0.0122  0.3926  0.3813  11.00000  0.05    0.43
;
_shelx_res_checksum              15873
_shelx_hkl_file
;
   1   0   0    0.50    0.60
   2   0   0 3182.38  101.79
   2   0   0 3054.99  103.09
   3   0   0  330.87   12.20
   3   0   0  365.26   12.30
   4   0   0 5833.12  199.28
   4   0   0 6217.58  198.78
   5   0   0  358.86   14.40
   5   0   0  418.86   14.60
   6   0   0   97.79    5.20
   6   0   0   88.19    5.10
   7   0   0  745.03   27.00
   7   0   0  753.22   27.10
   8   0   0  155.68    8.00
   8   0   0  140.79    7.90
   9   0   0   77.09    6.40
   9   0   0   84.49    6.40
  10   0   0  555.94   22.60
  10   0   0  585.74   23.00
  11   0   0   44.30    5.60
  11   0   0   49.20    5.40
  12   0   0  145.19    9.90
   0   1   0    6.90    0.70
   1  -1   0 1793.82   60.99
   1  -1   0 1920.41   61.49
   1   1   0 1951.90   62.19
   1   1   0 1876.41   61.19
   2  -1   0    9.70    1.20
   2  -1   0   10.10    1.20
   2   1   0    9.00    1.10
   3  -1   0 1403.76   46.50
   3  -1   0 1423.16   46.60
   3   1   0 1427.16   46.70
   3   1   0 1405.56   46.50
   4  -1   0   29.00    2.40
   4  -1   0   29.50    2.40
   4   1   0   21.50    2.50
   5  -1   0 3094.49  101.29
   5  -1   0 3200.58  101.49
   5   1   0 3027.30  101.39
   5   1   0 3051.49  101.29
   6  -1   0    0.60    1.10
   6  -1   0    0.50    1.30
   6   1   0    0.60    1.10
   6   1   0    2.40    1.40
   7  -1   0 1135.89   38.40
   7  -1   0 1130.69   38.70
   7   1   0 1078.99   38.40
   7   1   0 1081.29   38.50
   8  -1   0   75.99    5.70
   8  -1   0   69.59    5.70
   8   1   0   73.79    5.60
   8   1   0   86.79    5.70
   9  -1   0  397.86   16.60
   9  -1   0  392.66   16.20
   9   1   0  383.86   16.40
   9   1   0  378.16   16.30
  10  -1   0   44.40    6.00
  10  -1   0   42.20    5.70
  10   1   0   42.30    5.50
  10   1   0   38.30    5.10
  11  -1   0   24.70    4.20
  11  -1   0   36.20    4.80
  11   1   0   22.70    3.80
  11   1   0   26.60    4.30
  12  -1   0   65.29    7.30
  12   1   0   78.49    7.50
   0  -2   0  807.82   26.90
   0   2   0  867.81   27.00
   0   2   0  783.92   27.30
   1  -2   0  180.48    6.80
   1  -2   0  194.38    7.10
   1   2   0  191.98    7.30
  -1   2   0  181.88    7.10
   2  -2   0  195.48    7.00
   2  -2   0  183.88    6.80
   2  -2   0  181.58    6.60
   2   2   0  196.78    7.30
   2   2   0  163.78    6.70
   3  -2   0    3.20    0.90
   3  -2   0    5.50    1.00
   3   2   0    7.30    1.30
   4  -2   0  120.89    5.50
   4  -2   0  130.49    5.40
   4   2   0  111.39    5.40
   4   2   0  122.39    5.70
   5  -2   0    6.70    1.90
   5   2   0    7.40    1.80
   5   2   0    4.40    1.60
   6  -2   0  106.79    5.70
   6  -2   0  102.29    5.60
   6   2   0  103.19    5.50
   6   2   0  100.69    5.70
   7  -2   0   20.00    3.00
   7  -2   0   15.10    3.00
   7   2   0   25.40    3.50
   7   2   0   10.80    2.70
   8  -2   0   25.50    3.60
   8  -2   0   28.10    4.20
   8   2   0   35.30    4.00
   8   2   0   37.20    4.10
   9  -2   0   12.60    3.10
   9  -2   0   17.20    3.40
   9   2   0   12.80    3.40
   9   2   0    8.30    2.90
  10  -2   0   45.80    6.00
  10  -2   0   48.70    6.00
  10   2   0   55.69    6.00
  10   2   0   57.79    6.10
  11  -2   0   -0.80    2.50
  11  -2   0   -0.40    2.10
  11   2   0    0.30    2.70
  11   2   0    0.90    2.20
   1  -3   0 1302.77   42.00
  -1   3   0 1264.47   42.90
   1   3   0 1289.07   42.20
   1   3   0 1335.27   43.00
   2  -3   0  271.87    9.90
   2  -3   0  285.97   10.40
   2   3   0  286.77   10.00
   2   3   0  296.07   10.70
   3  -3   0 2913.91   90.29
   3  -3   0 2688.83   88.99
   3  -3   0 2730.83   90.49
   3   3   0 2640.64   90.09
   3   3   0 2881.61   90.99
   4  -3   0   85.19    4.50
   4  -3   0   88.29    4.40
   4  -3   0   77.59    4.20
   4   3   0   79.79    4.30
   4   3   0   92.79    5.00
   5  -3   0 4428.46  141.69
   5  -3   0 4428.06  141.59
   5   3   0 4281.07  141.99
   5   3   0 4232.18  141.39
   6  -3   0   24.40    3.30
   6  -3   0   31.60    3.20
   6   3   0   25.80    3.40
   6   3   0   31.40    3.30
   7  -3   0 1406.66   49.99
   7  -3   0 1508.95   50.09
   7   3   0 1476.95   49.99
   7   3   0 1480.15   50.39
   8  -3   0   31.20    4.70
   8  -3   0   41.90    4.50
   8   3   0   52.79    4.50
   8   3   0   43.60    4.60
   9  -3   0  428.76   17.50
   9  -3   0  417.76   17.70
   9   3   0  440.46   17.70
   9   3   0  416.86   17.80
  10  -3   0   77.59    7.10
  10  -3   0   85.49    7.30
  10   3   0   91.29    7.30
  10   3   0   97.89    7.20
  11  -3   0    4.50    3.00
  11   3   0    8.40    2.90
  11   3   0    8.40    3.50
   0  -4   0 6238.78  194.28
   0   4   0 5806.62  198.38
   0   4   0 6176.78  203.78
   1  -4   0   43.60    2.80
  -1   4   0   47.40    2.50
   1   4   0   48.50    2.30
   1   4   0   48.90    3.40
  -1   4   0   43.20    3.20
   2  -4   0 5485.65  190.68
   2   4   0 6105.79  193.58
  -2   4   0 6211.78  191.68
   2   4   0 5832.32  199.18
   3  -4   0  220.88    8.40
   3  -4   0  221.88    9.00
   3   4   0  237.38    9.50
   3   4   0  226.48    8.50
   4  -4   0 1305.27   44.50
   4  -4   0 1354.16   45.60
   4   4   0 1397.76   46.10
   4   4   0 1385.26   45.30
   5  -4   0  201.38    8.50
   5  -4   0  208.68    9.10
   5   4   0  214.98    9.40
   5   4   0  218.18    8.90
   6  -4   0   70.39    5.10
   6   4   0   74.29    5.20
   6   4   0   79.59    4.80
   7  -4   0  229.58   10.50
   7   4   0  232.18   10.40
   7   4   0  230.88   10.70
   8  -4   0  125.89    7.90
   8   4   0  143.49    8.10
   8   4   0  149.29    7.80
   9  -4   0   81.29    6.50
   9   4   0   72.99    6.50
   9   4   0   76.49    6.50
  10  -4   0  193.28   10.90
  10   4   0  201.58   10.90
  10   4   0  215.48   10.90
  11  -4   0    1.80    3.00
  11   4   0    4.80    2.60
  11   4   0    6.20    3.40
   0  -5   0    0.90    1.30
   0   5   0    4.60    1.60
   1  -5   0   30.40    2.80
  -1  -5   0   27.40    3.10
  -1   5   0   33.60    2.40
   1   5   0   34.00    3.30
  -1   5   0   26.80    3.10
   1   5   0   34.00    2.10
   2  -5   0   39.60    3.30
   2   5   0   39.40    2.70
   2   5   0   44.90    4.00
  -2   5   0   47.30    3.70
   3  -5   0  220.38    8.40
   3   5   0  218.78    9.50
   3   5   0  216.98    8.30
  -3   5   0  213.58    9.10
   4  -5   0   78.69    4.70
   4  -5   0   83.29    5.20
   4   5   0   86.69    4.60
   4   5   0   96.19    5.70
  -4   5   0   92.29    5.20
   5  -5   0  101.99    6.10
   5  -5   0  118.09    5.80
   5   5   0  110.29    5.90
   5   5   0  102.39    6.30
   6  -5   0   61.29    5.00
   6   5   0   66.49    5.30
   6   5   0   77.89    4.80
   7  -5   0  262.67   11.90
   7   5   0  276.37   11.80
   7   5   0  271.57   12.10
   8  -5   0   15.50    3.10
   8   5   0   27.80    4.00
   8   5   0   24.00    3.60
   9  -5   0  108.89    7.40
   9   5   0  101.29    7.50
   9   5   0  115.39    7.70
  10  -5   0   10.30    3.40
  10   5   0   25.40    4.20
  10   5   0   16.80    3.30
   0  -6   0 1213.78   41.50
   0   6   0 1282.67   42.60
   1  -6   0  192.98    8.30
  -1  -6   0  192.58    8.70
  -1   6   0  205.28    9.00
   1   6   0  202.78    9.00
  -1   6   0  210.68    7.60
   2  -6   0  861.01   31.30
  -2   6   0  953.30   32.60
  -2   6   0  987.20   31.40
   2   6   0  940.41   32.80
   3  -6   0   63.39    4.30
   3   6   0   73.29    5.40
   3   6   0   72.59    3.80
  -3   6   0   69.49    4.90
   4  -6   0   45.00    3.90
  -4   6   0   53.79    4.30
   4   6   0   42.00    3.60
   4   6   0   45.40    4.50
   5  -6   0   29.40    3.70
   5  -6   0   29.40    3.70
  -5   6   0   18.80    2.80
   5   6   0   18.90    3.10
   5   6   0   28.40    3.40
   6  -6   0   39.30    4.70
   6   6   0   51.99    4.40
   6   6   0   44.90    4.70
   7  -6   0   40.70    4.80
   7   6   0   30.10    4.60
   7   6   0   36.20    4.70
   8  -6   0  180.48    9.70
   8   6   0  190.58    9.80
   9  -6   0   27.80    4.40
   9   6   0   30.90    4.40
  10  -6   0  132.89    8.90
  10   6   0  143.49    9.10
   0  -7   0   -0.70    1.70
   0   7   0    1.20    1.90
  -1  -7   0  155.88    7.70
   1  -7   0  143.09    7.20
  -1   7   0  164.38    8.10
   1   7   0  168.88    8.30
   2  -7   0   19.00    2.40
  -2  -7   0   12.90    2.60
   2   7   0   17.50    3.00
  -2   7   0   14.60    2.70
   3  -7   0  976.40   35.20
  -3   7   0 1088.99   36.80
   3   7   0 1091.89   37.20
   4   7   0   21.10    3.30
  -4   7   0   26.10    3.70
  -5   7   0 1313.47   44.30
   5   7   0 1243.78   44.60
  -6   7   0   -0.20    1.80
   6   7   0   -1.70    2.00
   7   7   0  665.73   25.60
  -7   7   0  686.53   25.40
   8  -7   0    6.00    2.80
  -8   7   0   10.00    2.90
   8   7   0   11.40    3.10
  -9   7   0  222.28   11.30
   9   7   0  218.38   11.40
   0  -8   0  718.33   25.60
   0   8   0  714.93   26.50
  -1  -8   0  131.09    7.60
   1  -8   0  131.39    7.10
   1   8   0  132.49    7.70
  -1   8   0  135.19    7.70
  -2  -8   0  804.42   28.80
   2   8   0  829.32   29.70
  -2   8   0  790.92   29.30
  -3  -8   0   55.29    5.40
   3   8   0   65.49    5.60
  -3   8   0   65.99    5.20
   4   8   0  268.17   12.50
  -4   8   0  277.87   12.20
   5   8   0   48.70    5.30
  -5   8   0   54.39    5.00
   6   8   0   75.49    6.20
  -6   8   0   70.99    5.80
   7   8   0    7.20    2.70
  -7   8   0    7.90    2.70
   8   8   0   -2.30    2.30
  -8   8   0    2.20    2.60
   0  -9   0    0.50    2.40
   0   9   0    2.20    2.40
  -1  -9   0    8.50    2.90
   1   9   0   11.90    3.10
  -1   9   0    7.50    2.80
  -2  -9   0   39.40    5.20
  -2   9   0   38.60    4.70
   2   9   0   34.70    4.90
  -3  -9   0   38.50    5.20
   3   9   0   29.20    4.30
  -3   9   0   33.40    4.50
  -4  -9   0   88.19    6.80
   4   9   0   72.29    6.50
  -4   9   0   84.99    6.30
  -5  -9   0   44.60    5.90
  -5   9   0   31.00    4.60
   5   9   0   26.30    4.20
  -6   9   0   45.30    5.20
   6   9   0   44.50    5.40
   7   9   0    1.60    2.60
  -7   9   0   10.70    3.10
   0  10   0  440.36   18.70
   1  10   0   35.90    5.30
  -1  10   0   32.30    5.00
   2  10   0  188.78   10.50
  -2  10   0  179.98   10.20
  -3 -10   0   12.30    3.60
   3  10   0    8.20    3.40
  -3  10   0   10.00    3.10
  -4 -10   0   70.89    6.70
  -4  10   0   60.89    5.90
   4  10   0   50.99    6.10
  -5 -10   0    2.20    3.40
  -5  10   0   -0.90    2.30
   5  10   0    1.00    2.90
   6  10   0   14.90    3.90
  -6  10   0   18.30    3.70
   0  11   0    1.30    2.80
  -1  11   0   14.90    3.80
   1  11   0   14.60    3.90
  -2  11   0    1.10    2.60
   2  11   0   -3.60    2.50
   3  11   0   77.79    7.30
  -3  11   0   77.79    6.90
  12   0  -1    2.70    3.10
  12   0  -1   -1.90    3.50
  11   0  -1   -0.70    2.00
  11   0  -1    2.00    2.60
  10   0  -1    1.60    3.10
  10   0  -1   -2.10    2.50
   9   0  -1    1.80    2.60
   9   0  -1   -1.30    2.40
   8   0  -1    1.40    1.60
   8   0  -1   -2.90    1.70
   7   0  -1   -3.60    2.00
   7   0  -1    1.60    2.30
   6   0  -1   -0.60    1.00
   6   0  -1    0.30    1.20
   5   0  -1    2.50    1.60
   4   0  -1    3.20    1.00
   3   0  -1   -0.70    0.60
   3   0  -1    1.20    0.80
   2   0  -1    0.30    0.60
   2   0  -1   -0.70    0.50
   1   0  -1   -1.80    0.70
   1   0  -1   -2.50    0.70
   1   0   1   -1.10    0.90
   1   0   1   -0.40    0.70
   1   0   1   -1.80    0.90
   2   0   1   -0.70    0.60
   2   0   1    0.50    0.50
   3   0   1    3.70    0.90
   3   0   1    0.30    0.70
   4   0   1    3.00    1.30
   6   0   1    0.50    1.30
   6   0   1    0.10    1.00
   7   0   1   -3.50    2.00
   7   0   1   -1.90    2.20
   8   0   1    2.10    1.80
   8   0   1   -4.00    1.70
   9   0   1   -0.60    2.20
   9   0   1   -4.40    2.10
  10   0   1    0.10    2.70
  10   0   1    2.00    2.90
  11   0   1    0.50    2.10
  12   0   1    1.70    3.20
  12  -1  -1  150.68   10.40
  12   1  -1  150.78   10.00
  12   1  -1  146.99   10.40
  11  -1  -1   19.50    4.00
  11  -1  -1   14.30    3.30
  11   1  -1   22.10    4.10
  11   1  -1   18.10    3.30
  10  -1  -1  213.98   11.50
  10  -1  -1  225.78   11.70
  10   1  -1  224.08   11.70
  10   1  -1  219.98   11.60
   9  -1  -1  137.59    8.30
   9  -1  -1  134.19    8.20
   9   1  -1  130.99    8.10
   9   1  -1  132.49    8.40
   8  -1  -1  168.78    8.60
   8  -1  -1  154.88    8.60
   8   1  -1  173.38    8.80
   8   1  -1  167.28    8.50
   7  -1  -1 1260.07   43.40
   7  -1  -1 1261.07   43.30
   7   1  -1 1254.67   43.50
   7   1  -1 1254.87   43.40
   6  -1  -1   33.70    3.40
   6  -1  -1   37.60    3.40
   6   1  -1   40.10    3.40
   6   1  -1   46.20    3.50
   5  -1  -1 1895.11   62.29
   5  -1  -1 1927.11   62.39
   5   1  -1 1784.92   62.09
   5   1  -1 1904.11   62.49
   4  -1  -1  510.45   18.20
   4  -1  -1  536.15   18.30
   4   1  -1  517.45   18.30
   4   1  -1  514.15   18.10
   3  -1  -1 3904.21  122.79
   3  -1  -1 3745.83  121.29
   3   1  -1 3660.33  123.49
   3   1  -1 3636.04  124.69
   2  -1  -1 3966.00  121.09
   2  -1  -1 3514.55  120.19
   2   1  -1 3700.73  122.19
   2   1  -1 3625.94  122.19
   1  -1  -1   95.19    3.40
   1  -1  -1   99.29    3.80
   1   1  -1  100.69    3.60
   1   1  -1  107.99    4.00
   0  -1   1  684.43   22.30
   0   1  -1  606.14   22.50
   0   1   1  751.02   22.60
   0   1   1  714.43   22.60
   1  -1   1  145.79    5.10
   1  -1   1  139.89    5.10
   1   1   1  145.69    5.20
   1   1   1  153.68    5.30
   2  -1   1 2074.49   67.29
   2  -1   1 2050.39   67.39
   2  -1   1 2056.09   66.59
   2   1   1 2081.59   67.49
   2   1   1 2110.99   67.49
   3  -1   1 4810.02  157.48
   3  -1   1 4880.01  157.28
   3  -1   1 4919.61  158.88
   3   1   1 4910.01  158.78
   3   1   1 4805.92  159.68
   4  -1   1   52.19    2.90
   4  -1   1   42.60    2.90
   4   1   1   41.00    2.90
   4   1   1   37.50    2.90
   5  -1   1 3133.09   98.99
   5  -1   1 3069.69   99.19
   5   1   1 2945.11   99.09
   5   1   1 2951.40   99.09
   6  -1   1   38.60    3.40
   6  -1   1   36.40    3.40
   6   1   1   39.10    3.30
   6   1   1   45.30    3.50
   7  -1   1 2234.78   74.59
   7  -1   1 2300.37   74.19
   7   1   1 2112.39   74.19
   7   1   1 2254.67   74.39
   8  -1   1   19.80    2.90
   8  -1   1   15.20    2.90
   8   1   1   22.20    3.30
   8   1   1   30.90    3.90
   9  -1   1  378.36   16.20
   9  -1   1  380.86   15.60
   9   1   1  359.96   15.70
   9   1   1  379.46   16.10
  10  -1   1   16.70    3.60
  10  -1   1   18.70    3.70
  10   1   1   20.00    3.60
  10   1   1   20.40    4.00
  11  -1   1   37.70    5.20
  11   1   1   33.10    5.00
  11  -2  -1   53.39    6.20
  11   2  -1   60.39    5.90
  11   2  -1   61.19    6.50
  10  -2  -1  134.89    8.90
  10  -2  -1  137.79    9.00
  10   2  -1  147.89    8.90
  10   2  -1  138.89    8.90
   9  -2  -1  530.85   21.50
   9  -2  -1  534.65   21.50
   9   2  -1  580.64   21.90
   9   2  -1  546.75   21.50
   8  -2  -1  106.99    6.60
   8  -2  -1   98.59    6.70
   8   2  -1  106.79    6.50
   8   2  -1  110.89    6.70
   7  -2  -1 1502.55   51.79
   7  -2  -1 1552.04   51.89
   7   2  -1 1513.55   51.79
   7   2  -1 1516.65   52.09
   6  -2  -1   42.20    3.80
   6  -2  -1   53.49    4.00
   6   2  -1   51.99    3.80
   6   2  -1   55.39    4.10
   5  -2  -1 2715.53   88.09
   5  -2  -1 2789.92   88.19
   5   2  -1 2698.13   88.39
   5   2  -1 2513.75   87.79
   4  -2  -1 1954.10   63.99
   4  -2  -1 1984.20   63.99
   4   2  -1 1884.11   63.79
   4   2  -1 1944.91   64.19
   3  -2  -1 1535.15   48.20
   3  -2  -1 1434.66   48.10
   3   2  -1 1492.75   48.40
   3   2  -1 1368.36   47.80
   2  -2  -1 6348.86  210.98
   2  -2  -1 6632.34  217.88
   2   2  -1 6395.26  215.78
   2   2  -1 6727.83  220.28
   1  -2  -1  371.06   13.00
   1  -2  -1  402.66   13.60
   1   2  -1  412.06   13.80
   0  -2   1 9999.00  309.87
   0   2  -1 8862.31  313.77
   0   2   1 9827.42  314.47
   0   2   1 9336.47  311.67
   1  -2   1  217.58    7.30
   1  -2   1  202.78    7.40
   1   2   1  211.38    7.40
  -1   2  -1  196.48    7.50
   1   2   1  217.68    7.70
   2  -2   1 8477.15  270.67
   2  -2   1 8119.79  268.57
   2  -2   1 8409.66  272.07
   2   2   1 7812.42  271.47
   2   2   1 8250.37  272.47
   3  -2   1  344.17   12.10
   3  -2   1  355.26   12.30
   3  -2   1  345.97   12.20
   3   2   1  353.96   12.60
   3   2   1  335.97   12.30
   4  -2   1 1472.35   49.50
   4  -2   1 1535.65   50.29
   4  -2   1 1513.65   50.09
   4   2   1 1561.44   50.49
   4   2   1 1500.05   50.19
   5  -2   1  133.89    6.70
   5  -2   1  143.49    6.40
   5   2   1  145.89    6.80
   5   2   1  142.19    6.70
   6  -2   1   48.70    3.90
   6  -2   1   50.79    3.90
   6   2   1   55.39    3.90
   6   2   1   50.79    4.00
   7  -2   1   32.50    4.20
   7  -2   1   18.50    3.10
   7   2   1   17.40    2.80
   7   2   1   24.60    3.50
   8  -2   1  510.75   19.40
   8  -2   1  525.05   20.00
   8   2   1  486.05   19.50
   8   2   1  512.55   19.50
   9  -2   1    3.10    2.30
   9  -2   1    1.90    2.40
   9   2   1    2.20    2.50
   9   2   1   -0.20    2.60
  10  -2   1  444.26   18.70
  10  -2   1  447.86   19.30
  10   2   1  458.95   18.90
  10   2   1  468.95   19.10
  11  -2   1   -0.90    2.20
  11   2   1    1.30    2.20
  11  -3  -1   28.70    4.80
  11   3  -1   25.80    4.60
  11   3  -1   32.80    5.00
  10  -3  -1   67.99    6.90
  10   3  -1   87.29    7.00
  10   3  -1   73.39    6.60
   9  -3  -1  177.58    9.60
   9   3  -1  175.48    9.50
   9   3  -1  158.78    9.50
   8  -3  -1   13.90    2.60
   8  -3  -1   11.70    2.90
   8   3  -1   15.20    2.50
   8   3  -1   17.80    3.00
   7  -3  -1  287.57   12.80
   7  -3  -1  334.67   13.10
   7   3  -1  286.97   12.90
   7   3  -1  295.57   12.60
   6  -3  -1   12.80    2.30
   6   3  -1   12.30    1.90
   6   3  -1   14.90    2.50
   5  -3  -1  720.03   25.30
   5   3  -1  732.73   25.60
   5   3  -1  712.43   25.10
   4  -3  -1  247.28    9.40
   4  -3  -1  227.98    8.60
   4   3  -1  225.48    9.00
   4   3  -1  240.28    9.70
   3  -3  -1  129.79    5.80
   3  -3  -1  124.89    5.10
   3   3  -1  148.39    6.30
   3   3  -1  127.49    5.30
   2  -3  -1   93.29    4.10
   2  -3  -1   83.69    3.50
   2   3  -1   82.39    3.50
   1  -3  -1   85.59    3.50
  -1   3   1   86.69    4.10
   1   3  -1   87.59    4.20
  -1   3   1   91.79    3.70
   0  -3  -1 1213.58   40.10
   0  -3   1 1260.07   40.30
   0   3   1 1304.87   41.00
   0   3  -1 1133.19   40.80
   0   3   1 1274.07   40.50
   1  -3   1  414.86   14.80
  -1   3  -1  446.56   15.20
   1   3   1  455.35   15.30
   1   3   1  436.56   14.80
   2  -3   1  182.08    7.20
   2  -3   1  184.08    6.90
   2  -3   1  178.18    7.00
   2   3   1  192.38    7.10
  -2   3  -1  187.88    7.30
   2   3   1  201.98    7.60
   3  -3   1  937.41   31.00
   3  -3   1  907.71   31.10
   3  -3   1  901.31   30.60
   3   3   1  963.30   31.60
   3   3   1  930.81   31.10
   4  -3   1  476.95   16.60
   4  -3   1  449.06   16.20
   4  -3   1  478.05   16.70
   4   3   1  471.75   17.00
   4   3   1  461.45   16.60
   5  -3   1 1104.49   37.00
   5  -3   1 1111.29   37.30
   5  -3   1 1063.89   36.40
   5   3   1 1085.69   37.40
   5   3   1 1098.29   37.10
   6  -3   1   27.00    3.20
   6  -3   1   17.60    2.50
   6   3   1   23.40    2.90
   6   3   1   21.40    2.90
   7  -3   1  662.83   23.70
   7  -3   1  648.14   24.00
   7   3   1  638.44   23.70
   7   3   1  650.43   24.00
   8  -3   1   54.99    5.20
   8  -3   1   48.70    5.00
   8   3   1   65.39    5.20
   8   3   1   73.89    5.20
   9  -3   1  262.67   11.80
   9  -3   1  252.27   12.20
   9   3   1  240.28   11.90
   9   3   1  243.58   11.90
  10  -3   1   -0.70    2.60
  10  -3   1    2.30    3.00
  10   3   1    6.50    2.60
  10   3   1    4.70    2.90
  11  -3   1   41.20    5.50
  11   3   1   44.20    5.50
  11  -4  -1   -3.50    2.70
  11   4  -1   -2.80    2.00
  11   4  -1   -2.50    2.80
  10  -4  -1   32.10    5.00
  10   4  -1   28.20    4.00
  10   4  -1   44.00    5.30
   9  -4  -1   47.70    5.60
   9   4  -1   39.70    5.50
   9   4  -1   35.00    5.30
   8  -4  -1  243.38   12.10
   8   4  -1  269.07   12.30
   8   4  -1  286.07   12.00
   7  -4  -1  214.78   10.20
   7   4  -1  204.68    9.80
   7   4  -1  214.68   10.20
   6  -4  -1   11.80    2.40
   6   4  -1   14.90    2.60
   6   4  -1   11.80    1.90
   5  -4  -1   96.19    5.50
   5   4  -1   73.99    5.00
   5   4  -1  100.19    5.60
   4  -4  -1   80.39    4.30
   4  -4  -1   95.39    5.00
   4   4  -1   80.09    4.40
   4   4  -1  100.59    5.40
   3  -4  -1  164.28    6.80
   3  -4  -1  160.58    6.10
   3   4  -1  141.79    6.10
   3   4  -1  155.98    7.20
   2  -4  -1 1235.58   42.60
   2  -4  -1 1357.26   43.90
  -2   4   1 1348.77   43.90
   2   4  -1 1267.07   42.90
   2   4  -1 1364.66   44.20
  -1  -4   1  490.85   17.60
   1  -4  -1  484.65   17.10
   1   4  -1  515.15   18.00
  -1   4   1  532.65   17.40
  -1   4   1  521.15   18.00
   0  -4   1  490.55   17.10
   0  -4  -1  482.95   16.90
   0   4   1  502.65   16.80
   0   4   1  513.95   17.60
   0   4  -1  501.15   17.60
   1  -4   1   59.49    3.40
  -1   4  -1   54.89    3.60
   1   4   1   60.49    3.70
   1   4   1   59.69    2.90
   2  -4   1 1156.58   39.70
   2   4   1 1196.48   39.90
   2   4   1 1234.18   40.70
  -2   4  -1 1251.57   40.50
   3  -4   1  772.02   26.60
   3  -4   1  768.52   27.10
  -3   4  -1  832.72   27.30
   3   4   1  800.02   27.60
   3   4   1  797.22   26.80
   4  -4   1   73.69    4.10
   4  -4   1   76.09    4.40
   4  -4   1   66.89    4.40
   4   4   1   72.89    4.30
   5  -4   1   12.80    2.00
   5  -4   1    6.70    1.90
   5   4   1    7.50    2.00
   5   4   1    8.20    1.70
   6  -4   1   14.20    2.40
   6  -4   1   22.20    2.90
   6   4   1   17.50    2.30
   6   4   1   22.30    3.00
   7  -4   1   45.40    4.80
   7   4   1   35.90    4.40
   7   4   1   34.70    4.40
   8  -4   1  128.99    7.90
   8  -4   1  146.39    8.10
   8   4   1  151.88    7.90
   8   4   1  149.49    8.20
   9  -4   1   48.70    5.30
   9  -4   1   46.90    5.40
   9   4   1   38.40    5.20
   9   4   1   36.70    5.40
  10  -4   1  100.39    7.90
  10   4   1  113.09    7.80
  10   4   1  118.79    7.90
  11   4   1   -1.70    2.20
  10  -5  -1  185.48   11.10
  10   5  -1  205.18   11.10
  10   5  -1  215.88   11.00
   9  -5  -1  127.79    8.40
   9   5  -1  139.39    8.30
   9   5  -1  123.19    8.30
   8  -5  -1   96.29    6.90
   8   5  -1  103.99    6.50
   8   5  -1   96.39    6.70
   7  -5  -1  862.71   31.10
   7   5  -1  827.02   31.20
   7   5  -1  903.11   30.80
   6  -5  -1    9.70    2.30
   6   5  -1   10.30    2.60
   6   5  -1   14.50    2.10
   5  -5  -1 1436.96   48.60
   5  -5  -1 1486.15   50.19
   5   5  -1 1499.65   49.40
   5   5  -1 1497.85   50.49
   4  -5  -1  485.15   17.80
   4  -5  -1  459.05   16.60
   4   5  -1  498.05   18.30
   4   5  -1  489.35   17.00
   3  -5  -1 1898.81   64.59
   3  -5  -1 1992.00   66.19
   3   5  -1 2005.20   66.59
  -3   5   1 2139.49   66.49
   3   5  -1 1950.40   65.19
   2  -5  -1 1036.10   36.20
  -2   5   1 1170.18   36.80
   2   5  -1 1111.59   37.80
  -2   5   1 1100.49   37.50
   1  -5  -1  200.98    8.20
  -1  -5   1  215.68    8.80
  -1   5   1  217.18    9.10
  -1   5   1  230.08    8.30
   1   5  -1  231.28    9.30
   0  -5  -1 1368.36   46.50
   0  -5   1 1383.96   46.80
   0   5   1 1431.06   46.60
   0   5   1 1453.55   47.70
   0   5  -1 1468.35   47.70
   1  -5   1  306.87   11.90
   1   5   1  340.87   12.70
  -1   5  -1  331.77   12.50
   1   5   1  329.77   11.50
   2  -5   1  247.08    9.90
   2   5   1  257.57    9.50
  -2   5  -1  258.97   10.30
   2   5   1  264.67   10.60
   3  -5   1 2038.40   68.79
  -3   5  -1 2142.99   70.09
   3   5   1 2184.38   69.39
   3   5   1 2096.69   70.39
   4  -5   1   12.70    2.20
   4  -5   1   16.40    2.30
   4   5   1   16.50    2.60
  -4   5  -1   17.10    2.30
   4   5   1   12.20    1.70
   5  -5   1 2527.05   85.09
   5  -5   1 2521.25   83.69
   5   5   1 2601.44   85.69
   5   5   1 2654.23   84.79
   6  -5   1    2.80    1.80
   6  -5   1    1.40    2.10
   6   5   1    3.80    2.10
   6   5   1    5.30    1.80
   7  -5   1 1335.87   47.30
   7   5   1 1430.86   47.20
   7   5   1 1369.86   47.70
   8  -5   1    6.40    2.40
   8   5   1   11.50    2.90
   8   5   1   10.10    2.30
   9  -5   1  290.47   13.50
   9   5   1  312.77   13.70
   9   5   1  306.27   14.00
  10  -5   1    1.40    2.80
  10   5   1    5.80    2.90
  10   5   1    7.60    2.60
  10  -6  -1   11.00    3.70
  10   6  -1   23.10    4.20
   9  -6  -1  115.29    8.10
   9   6  -1  126.29    8.10
   8  -6  -1    1.10    2.60
   8   6  -1    5.50    2.60
   7  -6  -1  461.85   18.40
   7   6  -1  460.25   18.50
   6  -6  -1  150.38    8.00
   6   6  -1  152.68    8.10
   5  -6  -1  445.06   17.50
   5   6  -1  449.36   17.80
  -5   6   1  479.55   17.70
   4  -6  -1  598.04   21.60
  -4   6   1  648.24   23.10
   4   6  -1  660.33   23.60
   3  -6  -1  540.95   20.00
   3   6  -1  592.44   21.70
  -3   6   1  606.94   21.50
  -3   6   1  609.54   20.60
  -2  -6   1 2167.98   71.49
   2  -6  -1 1976.60   70.49
  -2   6   1 2350.86   71.39
  -2   6   1 2191.78   72.49
   2   6  -1 2196.88   72.69
   1  -6  -1  151.38    6.90
  -1  -6   1  158.38    7.60
  -1   6   1  169.08    7.90
  -1   6   1  167.78    6.80
   1   6  -1  164.78    7.90
   0  -6  -1 2344.57   78.59
   0  -6   1 2413.26   78.89
   0   6   1 2489.15   80.39
   0   6   1 2434.66   78.79
   0   6  -1 2420.46   80.29
  -1  -6  -1   25.20    2.80
   1  -6   1   30.50    3.40
   1   6   1   26.00    3.70
  -1   6  -1   29.90    3.60
   2  -6   1 1643.54   56.89
  -2   6  -1 1861.71   56.79
   2   6   1 1771.32   56.89
   2   6   1 1717.33   58.29
  -2   6  -1 1671.83   58.09
   3  -6   1   24.30    3.50
   3   6   1   25.60    3.70
   3   6   1   29.70    2.90
   4  -6   1  558.64   20.50
   4   6   1  602.34   20.50
   4   6   1  597.24   21.80
  -4   6  -1  577.24   21.30
   5  -6   1   32.00    4.10
   5   6   1   19.70    3.20
  -5   6  -1   24.40    3.60
   5   6   1   34.00    3.60
   6  -6   1    6.20    2.50
   6  -6   1    9.80    2.60
   6   6   1   11.10    2.20
  -6   6  -1   10.40    2.50
   6   6   1   13.20    2.90
   7  -6   1   53.99    5.10
  -7   6  -1   55.09    4.80
   7   6   1   55.39    5.00
   7   6   1   48.10    5.10
   8  -6   1   50.79    5.20
   8   6   1   62.39    5.40
   8   6   1   54.99    5.40
   9  -6   1    1.90    2.70
   9   6   1    5.00    2.80
  10   6   1  144.59    9.30
   9  -7  -1   46.70    6.00
   9   7  -1   54.89    5.80
  -9   7   1   50.79    5.70
   8  -7  -1    3.40    2.70
   8   7  -1    4.30    2.50
  -8   7   1    6.30    2.80
   7  -7  -1   48.60    5.30
   7   7  -1   34.80    4.80
  -7   7   1   35.70    4.70
  -6   7   1    0.00    1.90
   6   7  -1   -1.00    2.10
  -5   7   1   17.70    2.90
   5   7  -1    9.60    2.80
  -4   7   1   56.49    4.90
   4   7  -1   55.69    5.20
  -4   7   1   69.39    4.70
  -3  -7   1   48.40    5.00
  -3   7   1   47.80    4.40
   3   7  -1   44.30    4.70
   2  -7  -1    5.20    1.80
  -2  -7   1    5.70    2.30
  -2   7   1    3.40    2.00
   2   7  -1    4.00    2.10
  -1  -7   1   76.49    5.70
   1  -7  -1   81.69    4.90
   1   7  -1   90.09    5.90
  -1   7   1   95.49    5.80
   0  -7  -1   13.30    2.30
   0  -7   1   14.10    2.60
   0   7   1    6.20    2.20
   0   7  -1    5.40    2.20
   1  -7   1   36.00    4.00
  -1  -7  -1   34.80    4.00
   1   7   1   41.90    4.30
  -1   7  -1   32.50    4.20
  -2  -7  -1  126.09    6.90
   2  -7   1  129.19    6.60
  -2   7  -1  122.89    6.90
   2   7   1  125.19    7.20
   3  -7   1    6.70    2.00
   3   7   1    4.80    2.30
  -3   7  -1    7.00    2.20
   4  -7   1  157.08    7.70
   4   7   1  174.88    8.90
  -4   7  -1  176.18    8.40
  -5   7  -1   28.30    4.00
   5   7   1   17.30    3.30
  -6   7  -1  187.18    9.30
   6   7   1  187.48    9.60
  -7   7  -1   34.30    4.50
   7   7   1   33.30    4.80
   8   7   1   31.20    4.50
  -8   7  -1   27.60    3.90
  -9   7  -1   40.90    5.20
   9   7   1   44.60    5.40
  -8   8   1  126.19    8.10
   8   8  -1  122.09    8.10
   7   8  -1  101.09    7.10
  -7   8   1  100.79    7.10
   6   8  -1   39.80    4.90
  -6   8   1   41.80    4.80
  -5   8   1  118.19    7.30
   5   8  -1  111.99    7.40
  -4  -8   1   21.40    3.70
   4   8  -1   13.30    3.20
  -4   8   1   16.80    3.00
  -3  -8   1   16.30    3.30
   3   8  -1   16.10    3.30
  -3   8   1   24.00    3.50
  -2  -8   1  300.27   12.80
  -2   8   1  296.17   13.00
   2   8  -1  305.77   13.40
  -1  -8   1   48.20    5.20
   1   8  -1   59.49    5.30
  -1   8   1   49.10    5.00
   0  -8   1  699.53   25.70
   0  -8  -1  717.03   25.50
   0   8   1  733.83   26.70
   0   8  -1  722.43   26.60
  -1  -8  -1  130.79    7.60
   1  -8   1  138.39    7.40
   1   8   1  147.49    8.20
  -1   8  -1  147.09    7.90
  -2  -8  -1  474.45   18.70
   2  -8   1  494.45   18.40
  -2   8  -1  494.65   19.30
   2   8   1  507.45   19.60
  -3  -8  -1  191.78    9.60
   3   8   1  187.48    9.70
  -3   8  -1  193.28    9.50
   4   8   1   95.39    6.70
  -4   8  -1   92.69    6.30
   5   8   1   56.89    5.60
  -5   8  -1   60.19    5.20
   6   8   1   13.30    3.30
  -6   8  -1   13.00    3.00
   7   8   1    3.20    2.60
  -7   8  -1    4.90    2.40
   8   8   1   89.09    7.10
  -8   8  -1   97.29    7.00
   7   9  -1  208.08   11.20
  -7   9   1  229.98   11.50
  -6  -9   1    3.10    3.20
   6   9  -1    0.40    2.60
  -6   9   1    2.40    2.30
  -5  -9   1  389.46   16.20
   5   9  -1  352.96   15.90
  -5   9   1  347.97   15.60
  -4  -9   1   46.70    5.50
   4   9  -1   38.40    5.10
  -4   9   1   37.80    4.70
  -3  -9   1  192.28   10.00
   3   9  -1  190.18   10.30
  -3   9   1  194.38    9.90
  -2  -9   1  151.58    9.00
  -2   9   1  167.18    9.10
   2   9  -1  177.68    9.60
  -1  -9   1   34.90    5.10
  -1   9   1   43.20    4.90
   1   9  -1   42.80    5.10
   0  -9   1  129.79    7.70
   0   9  -1  130.29    8.00
   0   9   1  131.69    8.00
  -1  -9  -1   80.89    6.30
   1  -9   1   87.19    6.20
   1   9   1   85.59    6.60
  -1   9  -1   89.49    6.60
  -2  -9  -1  117.29    7.40
   2   9   1  115.49    7.70
  -2   9  -1  112.49    7.30
  -3  -9  -1  331.67   14.00
   3   9   1  311.67   14.30
  -3   9  -1  299.77   13.80
  -4   9  -1   28.20    4.20
   4   9   1   22.40    4.00
   5   9   1  483.45   20.30
  -5   9  -1  506.35   20.00
   6   9   1    1.10    2.60
  -6   9  -1    0.80    2.30
   7   9   1  280.47   13.60
  -7   9  -1  291.47   13.50
  -6  10   1   75.79    6.70
   6  10  -1   70.99    6.70
  -5 -10   1   52.49    6.40
  -5  10   1   42.00    5.30
   5  10  -1   32.00    4.90
  -4 -10   1  164.68    9.50
   4  10  -1  132.89    9.00
  -4  10   1  146.89    8.80
  -3 -10   1   77.79    6.90
   3  10  -1   71.39    6.70
  -3  10   1   78.89    6.50
  -2 -10   1  158.48    9.30
   2  10  -1  152.98    9.40
  -2  10   1  143.99    8.90
  -1  10   1   61.99    5.90
   1  10  -1   52.29    5.90
   0  10   1  137.29    8.80
   0  10  -1  144.09    8.90
  -1  10  -1   80.79    6.70
   1  10   1   84.09    6.90
   2  10   1   78.29    6.90
  -2  10  -1   70.59    6.50
   3  10   1    6.80    3.20
  -3  10  -1    7.40    2.90
  -4 -10  -1   64.49    6.60
   4  10   1   50.29    6.20
  -4  10  -1   64.09    6.00
  -5 -10  -1    9.10    3.80
  -5  10  -1    4.80    2.60
   5  10   1   -1.90    2.80
  -3  11   1   84.29    7.00
   3  11  -1   73.89    7.20
  -2  11   1   37.80    5.30
   2  11  -1   31.50    5.00
   1  11  -1   18.00    4.20
  -1  11   1   15.90    3.80
   0  11  -1   -2.40    2.60
   0  11   1    0.30    2.70
   1  11   1    0.50    2.90
  -1  11  -1    2.20    2.90
   2  11   1    9.20    3.60
  -2  11  -1    2.80    2.90
  -3  11  -1   14.00    3.80
   3  11   1   12.40    4.00
  12   0  -2    4.70    3.90
  11   0  -2   62.59    6.00
  11   0  -2   69.29    6.60
  10   0  -2   26.60    4.60
  10   0  -2   20.20    3.70
   9   0  -2 1272.17   45.30
   9   0  -2 1293.27   45.10
   8   0  -2    2.20    2.20
   8   0  -2   -0.80    1.50
   7   0  -2 2520.05   84.79
   7   0  -2 2572.44   84.99
   6   0  -2    2.80    1.20
   6   0  -2   -0.70    1.20
   5   0  -2 6858.61  224.18
   5   0  -2 6713.63  220.28
   4   0  -2 1002.80   34.20
   4   0  -2 1022.70   34.10
   3   0  -2 2170.18   73.79
   3   0  -2 2347.67   73.79
   2   0  -2 4801.22  158.88
   1   0  -2 1755.52   56.99
   0   0   2 3533.95  125.79
   0   0   2 4198.58  128.69
   1   0   2 2839.72   95.29
   1   0   2 3032.80   96.69
   2   0   2 7610.04  255.77
   2   0   2 7934.21  253.47
   2   0   2 7612.54  252.57
   3   0   2 1183.68   39.40
   3   0   2 1193.48   39.00
   4   0   2  640.14   22.60
   4   0   2  667.93   22.30
   5   0   2 3300.37  108.99
   5   0   2 3357.76  108.69
   6   0   2   24.60    3.00
   6   0   2   30.10    3.10
   7   0   2  421.46   15.90
   7   0   2  403.96   16.30
   8   0   2  573.14   21.90
   8   0   2  618.34   22.60
   9   0   2  218.58   10.30
   9   0   2  198.58   10.60
  10   0   2  468.75   19.70
  11   0   2   -0.50    2.20
  12  -1  -2  101.59    9.00
  12   1  -2  109.09    9.20
  11  -1  -2    2.90    2.80
  11   1  -2    1.80    2.20
  11   1  -2    3.20    2.70
  10  -1  -2  249.78   12.80
  10  -1  -2  239.58   12.40
  10   1  -2  243.88   12.40
  10   1  -2  263.97   13.00
   9  -1  -2   63.79    6.10
   9  -1  -2   54.29    5.60
   9   1  -2   60.89    5.80
   9   1  -2   46.50    5.90
   8  -1  -2   51.39    4.60
   8  -1  -2   41.20    4.80
   8   1  -2   45.90    4.60
   8   1  -2   49.60    4.80
   7  -1  -2  130.49    7.10
   7  -1  -2  108.79    6.80
   7   1  -2   95.79    7.00
   7   1  -2  101.99    6.60
   6  -1  -2   14.50    2.30
   6  -1  -2    9.70    1.70
   6   1  -2   10.90    1.80
   6   1  -2   17.60    2.40
   5  -1  -2  583.64   20.60
   5  -1  -2  570.54   20.50
   5   1  -2  575.34   20.70
   5   1  -2  565.34   20.40
   4  -1  -2 1371.66   46.20
   4  -1  -2 1386.86   46.20
   4   1  -2 1371.56   46.30
   4   1  -2 1416.66   46.10
   3  -1  -2  340.77   12.20
   3   1  -2  350.16   12.40
   3   1  -2  338.47   12.20
   2  -1  -2 3473.25  118.49
   2   1  -2 3666.63  118.19
   2   1  -2 3768.62  120.39
   1  -1  -2    2.10    0.50
   1   1  -2    1.10    0.70
   0  -1  -2 4166.08  138.59
   0  -1   2 4044.30  137.19
   0  -1   2 4137.09  136.59
   0   1   2 4363.66  138.69
   1  -1   2  202.18    7.20
  -1   1  -2  186.88    6.90
   1   1   2  213.88    7.10
   1   1   2  216.18    7.30
   2  -1   2 1980.30   64.89
   2  -1   2 1991.70   64.39
   2   1   2 2019.80   65.09
   2   1   2 2012.80   65.29
   3  -1   2 1969.10   64.59
   3  -1   2 1953.00   63.79
   3  -1   2 1989.40   64.19
   3   1   2 1948.01   64.39
   3   1   2 1999.00   64.59
   4  -1   2  793.92   27.00
   4  -1   2  806.12   26.50
   4   1   2  774.12   26.70
   4   1   2  785.52   27.00
   5  -1   2 1647.04   55.19
   5  -1   2 1705.13   54.69
   5   1   2 1649.23   55.09
   5   1   2 1613.64   54.89
   6  -1   2    2.40    1.30
   6   1   2    6.40    1.60
   6   1   2    2.70    1.30
   7  -1   2  965.50   33.60
   7  -1   2  985.00   32.90
   7   1   2  916.41   33.00
   7   1   2  921.61   33.30
   8  -1   2    9.80    2.30
   8   1   2    0.50    2.00
   8   1   2   13.40    2.40
   9  -1   2  260.97   12.50
   9   1   2  262.77   12.00
   9   1   2  260.07   12.50
  10  -1   2   20.60    3.90
  10   1   2   23.50    3.80
  10   1   2   23.00    3.90
  11  -1   2   16.00    3.50
  11   1   2   23.00    3.90
  11  -2  -2   -1.10    2.60
  11   2  -2    3.20    2.40
  11   2  -2    5.70    3.20
  10  -2  -2    1.00    3.10
  10   2  -2    7.40    3.40
  10   2  -2    0.30    2.40
   9  -2  -2   11.50    3.20
   9   2  -2    9.90    3.40
   9   2  -2    2.90    2.50
   8  -2  -2   44.40    4.30
   8  -2  -2   32.80    4.10
   8   2  -2   39.80    4.30
   8   2  -2   40.90    4.30
   7  -2  -2  187.68    8.80
   7  -2  -2  167.68    8.90
   7   2  -2  141.49    8.60
   7   2  -2  183.28    9.10
   6  -2  -2   36.80    3.40
   6  -2  -2   28.70    3.50
   6   2  -2   36.60    3.40
   6   2  -2   38.40    3.70
   5  -2  -2  153.38    6.90
   5   2  -2  125.29    6.80
   5   2  -2  151.28    7.10
   4  -2  -2   21.90    2.40
   4   2  -2   19.80    2.30
   4   2  -2   18.90    2.20
   3  -2  -2  135.89    5.70
   3   2  -2  141.29    6.00
   3   2  -2  131.99    5.60
   2   2  -2   38.80    2.90
   2   2  -2   42.60    2.20
   1  -2  -2    7.10    1.20
  -1  -2   2    6.10    0.90
   1   2  -2    9.00    1.20
  -1   2   2    6.50    0.90
   0  -2   2  700.73   23.20
   0   2   2  719.53   23.50
   0   2  -2  661.73   23.40
   0   2   2  743.13   23.50
   1  -2   2  204.08    7.40
   1  -2   2  207.48    7.10
   1   2   2  219.48    7.50
   1   2   2  211.48    7.40
  -1   2  -2  189.78    7.30
   2  -2   2   95.19    4.20
   2  -2   2   98.69    4.10
   2   2   2   96.59    4.20
   3  -2   2  250.77    9.00
   3  -2   2  239.08    8.80
   3  -2   2  237.28    8.90
   3   2   2  242.08    9.10
   3   2   2  239.18    9.10
   4  -2   2  114.99    5.40
   4  -2   2  120.29    5.10
   4  -2   2  113.99    5.30
   4   2   2  113.69    5.40
   4   2   2  116.79    5.50
   5  -2   2  158.48    7.30
   5  -2   2  166.18    6.90
   5   2   2  145.39    7.10
   5   2   2  157.78    7.10
   6  -2   2    0.10    1.20
   6  -2   2    1.30    1.40
   6   2   2    0.60    1.30
   6   2   2    1.80    1.50
   7  -2   2    6.00    2.60
   7   2   2    4.30    2.40
   7   2   2    8.30    2.50
   8  -2   2   28.00    3.50
   8  -2   2   33.00    4.50
   8   2   2   40.10    4.30
   8   2   2   39.40    4.30
   9  -2   2   -1.50    2.40
   9  -2   2    1.50    2.10
   9   2   2   -1.50    2.50
   9   2   2   -1.70    2.20
  10  -2   2   15.90    3.80
  10   2   2   23.20    4.00
  10   2   2   20.20    3.60
  11  -2   2    6.60    3.00
  11   2   2    7.50    2.90
  11  -3  -2   -0.80    2.80
  11   3  -2   -0.60    2.00
  11   3  -2   -0.60    2.80
  10  -3  -2  325.97   15.50
  10   3  -2  328.87   14.90
  10   3  -2  337.07   15.30
   9  -3  -2   36.60    5.30
   9   3  -2   34.00    4.80
   9   3  -2   34.40    5.00
   8  -3  -2  260.07   12.20
   8   3  -2  258.97   12.00
   8   3  -2  263.97   11.60
   7  -3  -2  205.18    9.70
   7   3  -2  180.38    9.10
   7   3  -2  186.48    9.50
   6  -3  -2   64.39    4.60
   6   3  -2   52.79    4.00
   6   3  -2   40.80    4.10
   5  -3  -2  928.71   31.30
   5   3  -2  894.71   31.40
   5   3  -2  878.61   30.80
   4  -3  -2 1639.44   53.99
   4   3  -2 1592.84   53.59
   4   3  -2 1634.14   54.29
   3  -3  -2  918.91   31.50
   3  -3  -2  982.00   32.80
   3   3  -2 1013.00   33.10
   3   3  -2  968.40   32.20
   2  -3  -2 3942.61  126.69
   2  -3  -2 3659.73  124.89
   2   3  -2 3948.00  127.69
   2   3  -2 4039.00  126.99
   1  -3  -2  535.85   18.60
   1  -3  -2  574.64   19.50
  -1  -3   2  572.14   19.30
   1   3  -2  564.44   19.70
  -1   3   2  582.04   19.60
  -1   3   2  599.44   19.40
   0  -3   2 6082.89  202.98
   0   3   2 6404.16  202.68
   0   3   2 6098.99  202.68
   0   3  -2 6040.50  205.18
   1  -3   2  603.84   20.40
   1  -3   2  602.04   20.00
   1   3   2  617.64   20.40
   1   3   2  640.34   20.80
  -1   3  -2  577.84   20.60
   2  -3   2 2046.40   67.89
   2  -3   2 2145.29   68.29
   2   3   2 2157.38   68.59
  -2   3  -2 1963.00   68.69
   2   3   2 2193.38   68.99
   3  -3   2 1653.73   55.09
   3  -3   2 1642.04   54.49
   3  -3   2 1690.83   54.99
   3   3   2 1677.53   55.19
   3   3   2 1709.23   55.49
   4  -3   2  364.16   12.50
   4  -3   2  335.87   12.60
   4  -3   2  331.77   12.40
   4   3   2  334.27   12.70
   4   3   2  342.57   13.00
   5  -3   2 2696.13   86.99
   5  -3   2 2704.43   88.09
   5  -3   2 2660.53   87.79
   5   3   2 2669.33   88.29
   5   3   2 2657.13   87.99
   6  -3   2   33.30    3.30
   6  -3   2   25.50    3.20
   6   3   2   30.80    3.30
   6   3   2   25.10    3.30
   7  -3   2 1342.47   46.20
   7  -3   2 1379.06   47.00
   7   3   2 1372.56   46.60
   7   3   2 1349.36   46.70
   8  -3   2   65.69    5.50
   8  -3   2   73.19    5.80
   8   3   2   82.09    5.50
   8   3   2   82.29    5.70
   9  -3   2  309.27   13.30
   9  -3   2  299.87   14.00
   9   3   2  291.37   13.50
   9   3   2  309.47   13.60
  10  -3   2   74.09    7.20
  10   3   2   85.99    6.90
  10   3   2   79.49    6.40
  11  -3   2   11.10    3.40
  11   3   2    9.80    3.10
  11  -4  -2   88.39    7.90
  11   4  -2   91.89    7.20
  11   4  -2   87.39    7.70
  10  -4  -2    7.00    3.40
  10   4  -2    9.50    3.10
  10   4  -2    9.20    2.90
   9  -4  -2  567.04   23.00
   9   4  -2  591.14   22.60
   9   4  -2  581.54   23.10
   8  -4  -2   -3.30    2.30
   8   4  -2    1.20    2.00
   8   4  -2    2.10    1.70
   7  -4  -2 1679.53   57.69
   7   4  -2 1665.63   57.79
   7   4  -2 1722.83   57.19
   6  -4  -2   49.80    4.60
   6   4  -2   53.09    4.00
   6   4  -2   39.50    4.30
   5  -4  -2 2531.75   83.79
   5   4  -2 2498.95   83.09
   5   4  -2 2557.24   83.99
   4  -4  -2  646.94   22.50
   4  -4  -2  693.83   24.00
   4   4  -2  709.33   24.30
   4   4  -2  668.33   23.30
   3  -4  -2 1793.32   58.29
   3  -4  -2 1707.23   56.49
   3   4  -2 1788.12   58.59
   3   4  -2 1728.43   57.39
   2  -4  -2 1853.41   59.29
   2  -4  -2 1668.23   57.59
   2   4  -2 1858.91   59.59
  -1  -4   2  312.77   11.50
   1  -4  -2  290.27   10.70
  -1   4   2  330.77   11.30
   1   4  -2  311.37   11.80
  -1   4   2  315.47   11.60
   0  -4   2 4006.80  126.19
   0  -4  -2 3877.01  125.69
   0   4   2 3862.01  129.09
   0   4  -2 3853.91  127.69
   0   4   2 4022.30  127.79
   1  -4   2  185.08    7.50
   1   4   2  206.88    7.30
   1   4   2  197.88    7.80
  -1   4  -2  171.78    7.50
   2  -4   2 1780.32   59.69
   2   4   2 1836.32   60.09
  -2   4  -2 1837.42   60.49
   2   4   2 1878.61   60.69
   3  -4   2 1215.98   40.60
   3  -4   2 1235.38   40.70
  -3   4  -2 1155.38   41.00
   3   4   2 1293.27   41.60
   3   4   2 1242.28   41.00
   4  -4   2  690.13   24.20
   4  -4   2  687.63   24.00
   4  -4   2  691.03   24.10
   4   4   2  725.33   24.80
   4   4   2  705.73   24.30
   5  -4   2  881.01   30.70
   5  -4   2  886.21   30.80
   5  -4   2  913.81   30.50
   5   4   2  894.71   30.80
   5   4   2  894.71   31.20
   6  -4   2   13.90    2.20
   6  -4   2   12.10    2.40
   7  -4   2  544.05   20.50
   7  -4   2  516.95   19.90
   7   4   2  518.65   20.40
   7   4   2  574.74   20.40
   8  -4   2  178.28    9.30
   8  -4   2  185.38    9.60
   8   4   2  208.68    9.50
   8   4   2  190.48    9.60
   9  -4   2  108.99    7.20
   9  -4   2  116.89    7.60
   9   4   2  109.09    7.40
   9   4   2  101.49    7.50
  10  -4   2  287.17   14.40
  10   4   2  304.57   14.00
  10   4   2  317.97   14.20
  11  -4   2   14.40    3.50
  11   4   2   13.90    3.40
  10  -5  -2    3.20    3.30
  10   5  -2    5.50    2.70
  10   5  -2   14.70    3.50
   9  -5  -2   27.20    4.50
   9   5  -2   28.10    4.50
   9   5  -2   25.10    3.50
   8  -5  -2   -3.40    2.40
   8   5  -2    3.10    1.90
   8   5  -2    3.10    2.30
   7  -5  -2   75.99    6.10
   7   5  -2   71.69    5.70
   7   5  -2   74.69    5.70
   6  -5  -2   18.80    3.00
   6   5  -2   14.30    2.10
   6   5  -2   13.40    2.80
   5  -5  -2   11.30    2.40
   5   5  -2    8.20    1.60
   5   5  -2   11.80    2.40
   4  -5  -2   99.19    4.60
   4  -5  -2  105.59    5.80
   4   5  -2   99.69    6.00
   4   5  -2  100.69    4.90
   3  -5  -2    7.60    1.80
   3   5  -2    8.00    2.10
  -3   5   2    6.50    1.90
  -2  -5   2  203.08    8.60
   2  -5  -2  184.78    7.40
  -2   5   2  203.78    8.10
   2   5  -2  203.58    8.90
  -2   5   2  205.08    8.60
  -1  -5   2  276.47   11.10
   1  -5  -2  271.77   10.30
   1   5  -2  294.57   11.50
  -1   5   2  294.47   11.40
  -1   5   2  319.37   10.90
   0  -5  -2  337.87   12.50
   0  -5   2  342.57   12.90
   0   5   2  358.86   12.50
   0   5   2  361.06   13.30
   0   5  -2  345.97   13.20
   1  -5   2  194.88    8.40
  -1   5  -2  196.68    8.70
   1   5   2  226.18    9.00
   1   5   2  220.18    8.00
   2  -5   2  638.24   22.70
  -2   5  -2  676.43   23.20
   2   5   2  658.33   23.20
   2   5   2  654.73   22.40
   3  -5   2  264.27   10.60
   3   5   2  273.67   11.10
   3   5   2  285.07   10.50
  -3   5  -2  266.77   10.90
   4  -5   2  235.58   10.10
   4   5   2  258.47   10.90
   4   5   2  262.17   10.20
  -4   5  -2  264.87   10.40
   5  -5   2  191.98    8.40
   5  -5   2  168.28    8.00
   5  -5   2  182.78    8.30
  -5   5  -2  186.68    8.40
   5   5   2  184.68    8.30
   5   5   2  184.08    8.80
   6  -5   2  250.97   11.00
   6  -5   2  254.37   10.90
   6  -5   2  266.57   11.00
   6   5   2  268.37   11.60
   6   5   2  276.17   11.10
   7  -5   2  113.69    7.10
   7  -5   2  121.09    7.10
   7   5   2  130.79    7.40
   7   5   2  117.29    7.10
   8  -5   2    9.30    2.70
   8  -5   2   14.10    2.90
   8   5   2   19.00    3.50
   8   5   2   17.70    2.70
   9  -5   2   68.09    6.00
   9   5   2   66.49    6.30
   9   5   2   60.59    6.00
  10   5   2   10.50    2.80
  10  -6  -2   31.60    5.10
  10   6  -2   42.00    5.60
   9  -6  -2   51.29    6.10
   9   6  -2   41.80    5.30
   8  -6  -2   59.29    5.90
   8   6  -2   59.19    5.40
   7  -6  -2  347.37   14.80
   7   6  -2  336.37   14.60
   6  -6  -2  159.48    8.50
   6   6  -2  163.18    8.50
   5  -6  -2  390.86   15.40
   5   6  -2  376.16   15.50
   4  -6  -2    6.40    2.10
  -4   6   2    7.90    2.10
   4   6  -2    3.70    2.10
  -3  -6   2  288.17   12.30
   3  -6  -2  302.37   10.90
   3   6  -2  294.97   12.60
  -3   6   2  322.67   11.90
  -3   6   2  316.17   12.50
   2  -6  -2   40.60    3.30
  -2  -6   2   46.00    4.30
   2   6  -2   40.50    4.40
  -2   6   2   36.70    4.00
  -2   6   2   44.10    3.70
  -1  -6   2   35.00    3.80
   1  -6  -2   19.50    2.80
   1   6  -2   28.60    3.70
  -1   6   2   22.10    2.90
  -1   6   2   24.20    3.10
   0  -6  -2  958.80   32.80
   0  -6   2  971.20   33.30
   0   6   2 1013.60   32.80
   0   6  -2  953.90   33.90
   0   6   2 1002.90   34.00
  -1  -6  -2  348.17   13.70
   1  -6   2  366.76   13.90
   1   6   2  380.06   14.60
  -1   6  -2  377.76   14.40
   1   6   2  377.76   13.20
   2  -6   2  355.06   13.70
   2   6   2  367.06   13.10
  -2   6  -2  364.66   14.10
   2   6   2  356.26   14.20
   3  -6   2  516.55   19.30
   3   6   2  549.35   20.30
   3   6   2  569.94   19.20
  -3   6  -2  536.45   19.90
   4  -6   2  297.37   11.70
  -4   6  -2  284.57   11.90
   4   6   2  283.27   12.40
   4   6   2  310.87   11.60
   5  -6   2  368.16   14.60
  -5   6  -2  404.16   15.20
   5   6   2  374.46   15.50
   5   6   2  394.26   14.70
   6  -6   2    6.60    2.60
   6   6   2   12.30    2.40
   6   6   2    7.60    2.70
  -6   6  -2   13.60    2.50
   7  -6   2   40.90    4.50
   7  -6   2   33.10    4.60
  -7   6  -2   35.10    4.20
   7   6   2   33.10    4.50
   7   6   2   33.90    4.70
   8  -6   2   42.40    5.10
  -8   6  -2   53.59    5.20
   8   6   2   62.29    5.30
   8   6   2   60.49    5.50
   9  -6   2    1.90    2.60
   9   6   2    3.70    2.70
  -9   6  -2    3.10    2.30
   9   6   2   -0.70    2.30
   9  -7  -2   24.90    4.60
   9   7  -2   27.80    4.30
   8  -7  -2   42.60    5.60
   8   7  -2   44.70    5.10
   7  -7  -2  124.59    7.90
  -7   7   2  123.99    7.70
   7   7  -2  126.19    7.80
   6  -7  -2   -3.70    2.20
  -6   7   2    0.40    2.10
   6   7  -2    0.20    2.30
  -5   7   2  324.37   13.40
   5   7  -2  304.97   13.50
  -4  -7   2  579.54   22.10
  -4   7   2  583.24   22.10
  -4   7   2  625.54   21.50
   4   7  -2  579.04   22.50
  -3  -7   2  269.87   11.90
  -3   7   2  284.67   12.00
   3   7  -2  262.87   12.00
  -3   7   2  284.97   11.10
  -2  -7   2 1096.89   38.60
   2   7  -2 1080.99   39.30
  -2   7   2 1101.09   39.20
  -2   7   2 1232.68   38.20
  -1  -7   2   52.69    5.00
   1  -7  -2   51.59    3.90
   1   7  -2   57.89    4.90
  -1   7   2   60.09    4.80
   0  -7   2 1848.52   61.29
   0  -7  -2 1808.72   60.69
   0   7   2 1887.41   62.39
   0   7  -2 1839.62   62.29
  -1  -7  -2   92.09    5.70
   1  -7   2   92.69    5.80
  -1   7  -2   93.29    5.90
   1   7   2   97.19    6.10
   2  -7   2  624.04   22.50
   2   7   2  649.24   23.40
  -2   7  -2  610.24   23.00
   3  -7   2  567.44   21.40
  -3   7  -2  607.54   22.20
   3   7   2  622.24   22.60
   4  -7   2  187.58    9.10
   4   7   2  211.08   10.00
  -4   7  -2  218.48    9.70
   5  -7   2  725.03   26.10
   5   7   2  758.72   27.50
  -5   7  -2  744.83   27.00
   6   7   2    6.20    2.60
  -6   7  -2    8.00    2.40
   7   7   2  516.25   20.70
  -7   7  -2  537.05   20.40
   8   7   2   25.10    3.90
  -8   7  -2   24.20    3.60
   9   7   2  121.99    8.20
   8   8  -2    9.90    3.10
  -8   8   2    8.40    3.00
  -7   8   2  236.08   11.50
   7   8  -2  221.98   11.40
   6   8  -2  111.29    7.40
  -6   8   2  123.49    7.50
  -5  -8   2  319.97   13.70
  -5   8   2  294.57   13.20
   5   8  -2  285.27   13.30
  -4  -8   2  209.48   10.10
   4   8  -2  186.78   10.00
  -4   8   2  195.68    9.80
  -3  -8   2  220.78   10.70
  -3   8   2  237.98   10.90
   3   8  -2  224.48   10.90
  -2  -8   2  394.86   16.10
  -2   8   2  396.86   16.30
   2   8  -2  412.26   16.60
  -1  -8   2   84.79    6.20
   1   8  -2   86.49    6.20
  -1   8   2   84.59    6.10
   0  -8   2  289.67   12.50
   0   8   2  303.47   13.10
   0   8  -2  293.27   13.00
  -1  -8  -2    0.40    2.20
   1  -8   2    4.10    2.50
  -1   8  -2    7.20    2.50
   1   8   2    7.10    2.60
  -2  -8  -2  167.48    8.80
   2  -8   2  182.48    8.90
  -2   8  -2  177.08    9.00
   2   8   2  177.58    9.30
   3  -8   2   40.10    4.90
  -3   8  -2   44.20    4.70
   3   8   2   56.49    5.40
  -4   8  -2   34.10    4.20
   4   8   2   34.80    4.60
   5   8   2  126.79    8.10
  -5   8  -2  130.69    7.60
   6   8   2    0.00    2.40
  -6   8  -2   -1.40    2.00
   7   8   2  121.49    8.10
  -7   8  -2  137.49    8.00
  -8   8  -2   18.80    3.60
   8   8   2   27.20    4.30
  -7  -9   2    4.30    3.70
  -7   9   2    4.00    2.70
   7   9  -2    1.40    2.50
  -6  -9   2   11.00    3.80
   6   9  -2    7.50    3.10
  -6   9   2    7.10    2.90
  -5  -9   2   44.80    5.90
   5   9  -2   34.00    5.10
  -5   9   2   39.00    4.90
  -4  -9   2    4.90    3.10
  -4   9   2   10.80    2.90
   4   9  -2    8.80    3.10
  -3  -9   2   99.19    7.30
   3   9  -2  102.99    7.30
  -3   9   2  110.49    7.10
  -2  -9   2    9.70    3.20
   2   9  -2   10.60    3.20
  -2   9   2   12.20    3.00
  -1  -9   2  134.89    8.50
  -1   9   2  147.09    8.50
   1   9  -2  157.58    8.90
   0  -9   2   10.30    3.00
   0   9  -2    7.40    2.90
   0   9   2    6.00    2.70
   1  -9   2   56.49    5.40
   1   9   2   51.89    5.40
  -1   9  -2   52.79    5.50
   2  -9   2   37.30    5.10
  -2  -9  -2   35.30    5.00
  -2   9  -2   34.20    4.80
   2   9   2   36.10    5.00
  -3  -9  -2    6.40    3.00
  -3   9  -2    3.20    2.40
   3   9   2    6.30    2.90
  -4  -9  -2   93.19    6.90
  -4   9  -2   75.89    6.10
   4   9   2   77.59    6.70
   5   9   2    7.50    3.20
  -5   9  -2    6.00    2.60
  -6   9  -2  130.59    8.20
   6   9   2  127.29    8.40
  -7   9  -2    9.80    3.10
   7   9   2   -1.10    2.50
  -5 -10   2  225.38   11.70
  -5  10   2  199.38   10.90
   5  10  -2  187.28   11.00
  -4 -10   2    8.10    3.50
   4  10  -2   -0.20    2.80
  -4  10   2    3.60    2.60
  -3 -10   2   28.60    4.60
   3  10  -2   24.70    4.20
  -3  10   2   24.60    4.10
  -2 -10   2   70.79    6.70
  -2  10   2   69.69    6.20
   2  10  -2   70.19    6.60
  -1 -10   2    4.80    3.20
  -1  10   2    5.50    2.90
   1  10  -2    4.10    2.90
   0  10  -2  120.79    8.10
   0  10   2  111.09    7.90
   1  10   2  127.89    8.40
  -1  10  -2  131.49    8.50
  -2  10  -2  186.98   10.30
   2  10   2  182.08   10.50
  -3  10  -2  104.59    7.60
   3  10   2  113.09    8.20
   4  10   2   24.60    4.40
  -4  10  -2   24.50    4.00
  -5 -10  -2  210.68   11.20
  -5  10  -2  175.88   10.10
   5  10   2  157.98   10.40
  -3 -11   2   11.30    4.20
  -3  11   2   14.40    3.60
   3  11  -2   10.10    3.70
   2  11  -2   98.29    8.00
  -2  11   2   94.89    7.70
  -1  11   2    3.50    2.90
   1  11  -2    1.70    3.00
   0  11  -2  168.08   10.40
   0  11   2  164.58   10.10
   1  11   2   19.50    4.20
  -1  11  -2   17.30    4.10
   2  11   2   87.79    7.70
  -2  11  -2   96.29    7.70
  -3  11  -2   77.69    7.00
   3  11   2   71.49    7.30
  12   0  -3   -1.90    3.50
  11   0  -3   -1.70    2.60
  10   0  -3   -1.20    2.90
   9   0  -3    1.50    2.60
   8   0  -3   -3.40    1.80
   8   0  -3   -0.10    1.50
   7   0  -3   -2.00    2.20
   7   0  -3    8.70    2.70
   6   0  -3    4.70    1.30
   6   0  -3   -0.50    1.20
   4   0  -3    0.60    0.90
   3   0  -3    0.80    0.80
   2   0  -3   -0.40    0.80
   1   0  -3   -3.90    1.10
  -1   0   3   -3.30    1.10
   0   0   3   -3.20    0.70
   0   0  -3   -1.20    0.70
   1   0   3   -3.00    0.70
   1   0   3   -3.20    0.70
   2   0   3   -0.50    0.70
   2   0   3    0.00    0.40
   3   0   3    3.00    1.00
   3   0   3    2.10    0.70
   4   0   3    0.80    0.80
   4   0   3    0.40    1.10
   5   0   3    4.70    1.80
   6   0   3   -0.10    1.10
   6   0   3   -1.00    1.20
   7   0   3    1.80    1.90
   7   0   3    2.60    2.40
   8   0   3   -1.80    1.80
   8   0   3    2.00    1.80
   9   0   3   -2.20    2.40
   9   0   3    2.70    2.10
  10   0   3    7.10    3.00
  11   0   3   -1.60    2.20
  11  -1  -3    4.30    3.00
  11   1  -3   23.00    4.10
  10  -1  -3  284.07   14.00
  10   1  -3  280.07   13.70
  10   1  -3  296.27   14.20
   9  -1  -3   46.00    5.70
   9   1  -3   46.30    5.70
   9   1  -3   40.20    5.20
   8  -1  -3  194.68    9.90
   8   1  -3  200.68    9.60
   8   1  -3  207.78   10.10
   7  -1  -3   17.60    3.20
   7   1  -3   19.40    3.30
   7   1  -3   12.60    2.60
   6  -1  -3   84.09    5.30
   6   1  -3   87.89    5.10
   6   1  -3   94.69    5.30
   5  -1  -3    7.20    1.90
   5   1  -3    8.40    1.90
   5   1  -3   13.60    1.90
   4  -1  -3 1847.02   62.19
   4   1  -3 1922.71   62.09
   4   1  -3 1880.31   62.39
   3  -1  -3  183.38    7.20
   3   1  -3  181.58    7.20
   2  -1  -3 6735.03  226.58
   2   1  -3 6960.80  226.68
   1  -1  -3    3.80    0.60
  -1   1   3    1.80    0.70
   1   1  -3    4.50    0.80
   0  -1   3 7555.64  244.68
   0  -1   3 7533.55  244.28
   0  -1  -3 7879.61  245.88
   0   1  -3 6369.46  244.78
   0   1   3 7503.25  240.68
   0   1   3 7876.71  247.18
   1  -1   3   49.80    2.60
   1  -1   3   51.19    2.40
   1   1   3   51.69    2.10
  -1   1  -3   46.50    2.00
   1   1   3   53.69    2.60
   2  -1   3 4577.84  148.59
   2  -1   3 4617.64  149.29
   2   1   3 4633.34  148.79
   2   1   3 4441.06  149.79
   3  -1   3  527.15   17.90
   3  -1   3  524.75   17.50
   3  -1   3  520.15   18.10
   3   1   3  536.05   18.30
   3   1   3  509.25   17.70
   4  -1   3  634.54   21.10
   4  -1   3  620.44   20.80
   4  -1   3  611.34   21.50
   4   1   3  620.84   21.50
   4   1   3  591.24   21.00
   5  -1   3 1158.08   39.10
   5  -1   3 1168.68   38.30
   5   1   3 1096.69   38.60
   5   1   3 1176.58   39.00
   6  -1   3    5.60    1.60
   6  -1   3    3.70    1.30
   6   1   3    5.60    1.60
   7  -1   3  456.75   18.00
   7  -1   3  484.35   17.10
   7   1   3  462.45   17.80
   7   1   3  432.16   17.20
   8  -1   3  216.98   10.00
   8  -1   3  233.08   10.80
   8   1   3  238.78   10.70
   8   1   3  233.98   10.40
   9  -1   3  194.28   10.30
   9  -1   3  200.38    9.40
   9   1   3  192.68   10.10
   9   1   3  185.08    9.50
  10  -1   3  157.18    9.70
  10   1   3  163.18    9.40
  11  -1   3   -1.60    2.20
  11   1   3   -1.80    2.10
  11  -2  -3  110.09    8.50
  11   2  -3  117.79    8.60
  10  -2  -3   44.90    6.20
  10   2  -3   58.29    6.30
  10   2  -3   55.29    6.00
   9  -2  -3  908.81   33.80
   9   2  -3  896.21   33.30
   9   2  -3  953.40   34.10
   8  -2  -3   -2.90    2.10
   8   2  -3    6.80    2.30
   8   2  -3    6.40    2.00
   7  -2  -3 3095.29  102.89
   7   2  -3 3088.59  102.49
   7   2  -3 3119.69  103.09
   6  -2  -3   38.70    3.80
   6   2  -3   34.40    3.40
   6   2  -3   36.10    3.70
   5  -2  -3 4551.64  149.29
   5   2  -3 4530.45  149.49
   5   2  -3 4643.24  148.99
   4  -2  -3   23.30    2.50
   4   2  -3   22.70    2.40
   4   2  -3   21.50    2.30
   3  -2  -3 4252.97  143.79
   3   2  -3 4645.74  146.59
   3   2  -3 4388.86  143.99
   2  -2  -3 1056.19   36.30
   2   2  -3 1127.49   36.60
  -1  -2   3  100.19    3.70
  -1  -2   3   93.99    4.20
   1  -2  -3   90.09    4.20
   1   2  -3   94.59    4.50
  -1   2   3  104.69    4.30
   0  -2   3  353.86   12.30
   0  -2   3  337.97   11.90
   0   2   3  357.56   12.30
   0   2  -3  311.07   12.30
   0   2   3  399.16   12.60
   1  -2   3  874.61   29.60
   1  -2   3  899.31   29.80
  -1   2  -3  848.92   29.70
   1   2   3  944.11   29.80
   1   2   3  939.71   30.00
   2  -2   3 1425.16   46.40
   2  -2   3 1412.86   46.60
   2   2   3 1440.56   46.80
  -2   2  -3 1364.46   46.50
   2   2   3 1467.75   46.90
   3  -2   3 4989.20  156.38
   3  -2   3 4904.31  158.18
   3  -2   3 4874.51  157.88
   3   2   3 4638.34  157.08
   3   2   3 4835.52  159.58
   4  -2   3  228.98    8.40
   4  -2   3  201.38    7.80
   4  -2   3  190.38    8.20
   4   2   3  205.38    8.50
   4   2   3  204.58    8.20
   5  -2   3 3173.38  103.09
   5  -2   3 3088.09  102.39
   5  -2   3 3205.38  103.69
   5   2   3 3064.99  103.49
   5   2   3 3277.37  103.79
   6  -2   3   12.10    1.80
   6  -2   3   16.40    2.30
   6   2   3   21.40    2.90
   6   2   3   16.10    2.30
   7  -2   3 1851.51   61.69
   7  -2   3 1879.21   62.69
   7   2   3 1752.22   61.99
   7   2   3 1918.81   62.49
   8  -2   3  183.68    8.90
   8  -2   3  201.18    9.80
   8   2   3  184.38    9.20
   8   2   3  208.98    9.60
   9  -2   3  284.57   13.20
   9   2   3  257.97   12.20
   9   2   3  281.27   12.70
  10  -2   3  308.47   14.80
  10   2   3  311.07   14.20
  11  -2   3   37.60    5.30
  11   2   3   29.60    4.40
  11  -3  -3    0.70    3.00
  11   3  -3   -2.40    2.90
  10  -3  -3   42.40    6.10
  10   3  -3   26.90    4.00
   9  -3  -3    2.00    2.80
   9   3  -3   -2.20    2.70
   9   3  -3    3.40    2.20
   8  -3  -3    1.80    2.40
   8   3  -3   11.20    2.70
   8   3  -3    5.10    2.00
   7  -3  -3    7.00    2.60
   7   3  -3    5.30    2.50
   7   3  -3    1.70    2.00
   6  -3  -3  195.98    9.30
   6   3  -3  204.48    8.90
   6   3  -3  209.98    9.40
   5  -3  -3   30.20    3.60
   5   3  -3   31.50    3.40
   5   3  -3   28.20    3.50
   4  -3  -3  543.15   19.90
   4   3  -3  572.34   19.50
   4   3  -3  562.34   20.20
   3  -3  -3   29.10    2.90
   3   3  -3   38.10    3.10
   3   3  -3   28.20    2.30
   2  -3  -3 2648.83   85.29
   2   3  -3 2570.24   85.59
  -1  -3   3  162.58    6.80
   1  -3  -3  169.18    6.70
  -1   3   3  176.68    6.80
   1   3  -3  172.58    7.10
   0  -3   3 2057.99   65.89
   0   3   3 2120.29   66.59
   0   3  -3 1886.51   66.49
   0   3   3 2065.39   66.49
   1  -3   3  394.26   13.80
   1  -3   3  405.66   14.50
   1   3   3  434.06   14.50
   1   3   3  440.36   14.60
  -1   3  -3  408.56   14.50
   2  -3   3 1701.93   57.99
   2  -3   3 1792.12   57.99
   2   3   3 1866.21   58.59
   2   3   3 1841.62   58.59
  -2   3  -3 1708.43   58.39
   3  -3   3  284.27   10.50
   3  -3   3  292.07   10.80
  -3   3  -3  262.87   10.40
   3   3   3  303.57   11.00
   3   3   3  297.37   10.90
   4  -3   3  538.75   18.80
   4  -3   3  535.45   18.80
   4  -3   3  529.05   18.50
   4   3   3  519.05   18.90
   4   3   3  544.55   19.10
   5  -3   3  372.06   14.10
   5  -3   3  380.76   14.40
   5  -3   3  363.56   13.80
   5   3   3  389.16   14.40
   5   3   3  371.86   14.30
   6  -3   3   60.19    4.40
   6  -3   3   75.29    4.80
   6   3   3   69.39    4.60
   6   3   3   65.39    4.70
   7  -3   3  131.59    6.60
   7  -3   3  110.59    7.40
   7   3   3  118.89    7.00
   7   3   3  121.99    7.10
   8  -3   3    3.10    2.40
   8  -3   3    3.10    2.10
   8   3   3    7.40    2.30
   8   3   3    6.70    2.20
   9  -3   3   41.70    5.60
   9   3   3   44.10    5.30
   9   3   3   41.50    5.30
  10  -3   3   22.50    4.20
  10   3   3   35.50    5.20
  11  -3   3    0.80    2.60
  11   3   3    3.10    2.70
  11  -4  -3    0.70    3.20
  11   4  -3   -1.70    3.00
  10  -4  -3   -0.80    3.10
  10   4  -3    6.60    2.80
  10   4  -3   -1.70    2.20
   9  -4  -3   24.40    4.40
   9   4  -3   27.60    4.40
   8  -4  -3   16.50    3.50
   8   4  -3   20.70    2.90
   8   4  -3   27.70    3.90
   7  -4  -3  358.16   14.70
   7   4  -3  344.47   14.50
   7   4  -3  320.67   14.00
   6  -4  -3   73.29    5.40
   6   4  -3   80.59    4.90
   6   4  -3   78.29    5.50
   5  -4  -3  614.24   21.70
   5   4  -3  600.54   21.70
   5   4  -3  552.34   20.80
   4  -4  -3   90.89    5.30
   4   4  -3   88.29    5.40
   4   4  -3   89.79    4.60
   3  -4  -3  516.65   18.50
   3  -4  -3  482.15   17.00
   3   4  -3  542.45   17.70
   3   4  -3  528.85   18.90
   2  -4  -3   22.10    2.70
  -2  -4   3   21.80    3.00
  -2   4   3   19.70    2.50
   2   4  -3   21.10    3.10
   1  -4  -3    3.10    0.70
  -1  -4   3    3.10    1.30
   1   4  -3    3.90    1.50
  -1   4   3    1.60    1.10
  -1   4   3    2.10    1.20
   0  -4   3  222.58    8.90
   0   4   3  232.78    8.70
   0   4  -3  220.78    8.90
   0   4   3  231.48    9.00
   1  -4   3  205.48    8.30
  -1   4  -3  206.58    8.40
   1   4   3  220.98    8.60
   1   4   3  217.18    8.20
   2  -4   3  278.87   10.20
   2  -4   3  286.47   11.00
   2   4   3  289.67   10.80
   2   4   3  300.37   11.20
  -2   4  -3  296.17   11.00
   3  -4   3  881.91   31.00
   3  -4   3  926.31   30.90
   3   4   3  934.91   31.60
   3   4   3  952.80   31.30
  -3   4  -3  915.61   31.30
   4  -4   3  136.59    6.90
   4  -4   3  144.29    6.50
   4   4   3  151.78    7.20
  -4   4  -3  144.79    6.50
   4   4   3  147.99    6.80
   5  -4   3  448.26   16.20
   5  -4   3  429.86   16.20
   5  -4   3  421.06   15.90
   5   4   3  427.06   16.30
   5   4   3  450.95   16.60
   6  -4   3    9.80    2.00
   6  -4   3    9.30    1.90
   6  -4   3    6.80    2.40
   6   4   3   12.40    2.50
   6   4   3   12.70    2.30
   7  -4   3  103.89    7.00
   7  -4   3  112.69    6.40
   7   4   3  114.99    6.90
   7   4   3  112.69    6.80
   8  -4   3    4.40    2.20
   8  -4   3   13.20    2.90
   8   4   3   11.40    2.80
   8   4   3   10.10    2.40
   9  -4   3    1.10    2.60
   9   4   3    0.10    2.60
   9   4   3   -2.50    2.10
  10  -4   3   26.20    4.30
  11  -4   3    4.90    2.90
  11   4   3    1.70    2.70
  10  -5  -3  203.88   12.10
  10   5  -3  229.38   11.80
   9  -5  -3   22.40    4.40
   9   5  -3   22.20    3.30
   9   5  -3   26.00    4.30
   8  -5  -3  201.08   10.90
   8   5  -3  216.18   10.00
   8   5  -3  205.68   10.40
   7  -5  -3    5.60    2.70
   7   5  -3    3.60    1.90
   7   5  -3    9.10    2.60
   6  -5  -3   44.90    4.80
   6   5  -3   46.00    4.00
   6   5  -3   48.50    4.60
   5  -5  -3   10.00    2.40
   5   5  -3    6.20    1.50
   4  -5  -3 1094.89   38.10
   4   5  -3 1090.99   38.30
   4   5  -3 1137.09   37.00
   3  -5  -3   85.09    3.70
   3  -5  -3   82.29    5.00
  -3   5   3   78.89    4.90
   3   5  -3   90.19    5.60
  -2  -5   3 4350.66  135.29
   2  -5  -3 3590.74  133.79
   2   5  -3 4167.68  136.89
  -2   5   3 4343.67  136.79
  -2   5   3 4483.75  136.29
  -1  -5   3   63.09    4.50
   1  -5  -3   60.79    3.40
  -1   5   3   72.69    4.60
  -1   5   3   63.39    4.30
   1   5  -3   77.79    4.80
   0  -5   3 4430.96  137.19
   0  -5  -3 4197.98  136.39
   0   5   3 4510.95  138.99
   0   5   3 4196.48  138.09
   0   5  -3 3935.61  138.69
   1  -5   3    5.30    1.70
  -1   5  -3    6.30    1.70
   1   5   3   10.90    1.60
   1   5   3    7.60    1.80
   2  -5   3 3220.38  104.09
   2   5   3 3253.27  105.39
   2   5   3 3311.17  104.69
  -2   5  -3 3059.49  105.09
   3  -5   3  341.67   13.50
   3   5   3  362.96   14.00
   3   5   3  376.06   13.40
  -3   5  -3  354.36   13.60
   4  -5   3  227.48    9.00
   4  -5   3  225.28    9.70
  -4   5  -3  218.58    9.50
   4   5   3  248.78   10.20
   4   5   3  236.58    9.60
   5  -5   3  495.85   18.60
   5  -5   3  489.05   18.40
   5   5   3  535.85   18.80
  -5   5  -3  512.55   18.70
   5   5   3  521.55   19.30
   6  -5   3   -1.50    1.70
   6  -5   3    4.20    2.40
   6  -5   3    3.00    1.70
  -6   5  -3    1.10    1.70
   6   5   3    8.20    2.10
   6   5   3    0.40    2.00
   7  -5   3  385.76   15.50
   7  -5   3  392.26   15.80
   7  -5   3  384.26   15.60
   7   5   3  408.26   15.90
   7   5   3  413.26   16.20
   8  -5   3  247.38   11.30
   8  -5   3  234.18   11.60
   8   5   3  270.07   12.00
   8   5   3  272.87   11.80
   9  -5   3  107.09    7.40
   9   5   3  109.89    7.50
   9   5   3  115.69    7.80
  10   5   3  163.28    9.50
  10  -6  -3    2.10    3.40
  10   6  -3    5.20    3.00
   9  -6  -3  289.07   14.00
   9   6  -3  278.67   13.50
   8  -6  -3   36.00    5.10
   8   6  -3   37.30    4.70
   7  -6  -3  941.01   33.90
   7   6  -3  918.21   33.60
   6  -6  -3    8.10    2.80
   6   6  -3    4.20    2.20
   5  -6  -3  989.40   34.70
   5   6  -3  977.00   34.80
   4  -6  -3  239.38   10.70
  -4   6   3  247.68   10.70
  -4   6   3  255.27   10.40
   4   6  -3  240.68   10.90
  -3  -6   3  785.22   28.40
   3   6  -3  808.32   29.00
  -3   6   3  825.32   28.20
  -3   6   3  827.02   28.80
  -2  -6   3   11.00    2.40
  -2   6   3    9.10    1.80
  -2   6   3    9.40    2.20
   2   6  -3   17.60    2.80
   1  -6  -3   38.20    3.00
  -1  -6   3   40.40    4.30
   1   6  -3   40.60    4.20
  -1   6   3   39.30    3.70
  -1   6   3   42.40    4.10
   0  -6  -3  495.25   18.20
   0  -6   3  528.65   19.10
   0   6   3  529.25   19.40
   0   6   3  540.55   18.60
   0   6  -3  534.35   19.50
   1  -6   3  121.69    6.50
   1   6   3  127.29    6.80
  -1   6  -3  123.39    6.60
   1   6   3  129.79    5.90
  -2   6  -3    4.70    1.80
   2   6   3    5.10    1.60
   2   6   3    6.90    2.10
   3  -6   3  847.32   29.60
  -3   6  -3  836.12   30.10
   3   6   3  907.61   29.60
   3   6   3  847.12   30.40
   4  -6   3   45.90    4.60
   4   6   3   53.29    4.30
   4   6   3   55.79    4.90
  -4   6  -3   57.89    4.40
   5  -6   3  897.41   32.10
   5   6   3  939.81   33.20
  -5   6  -3  912.91   32.60
   5   6   3  981.50   32.50
   6  -6   3   39.20    4.80
  -6   6  -3   45.90    4.30
   6   6   3   43.50    4.50
   6   6   3   51.49    5.00
   7  -6   3  547.55   21.20
   7   6   3  549.74   22.00
   7   6   3  595.14   21.70
  -7   6  -3  600.14   21.50
   8   6   3   33.00    4.70
  -8   6  -3   33.60    4.30
   8   6   3   38.60    4.80
   9   6   3  232.78   11.90
   9   6   3  244.58   11.80
  10   6   3  129.49    8.50
   9   7  -3   14.10    3.40
   8  -7  -3   41.40    5.60
   8   7  -3   38.30    4.80
   7  -7  -3    9.00    3.10
   7   7  -3    2.90    2.40
   6  -7  -3   61.99    5.90
   6   7  -3   60.19    5.40
  -6   7   3   67.49    5.60
  -5   7   3    7.20    2.20
   5   7  -3    5.00    2.40
  -5   7   3    9.10    2.60
  -4  -7   3   81.19    6.00
   4   7  -3   66.19    5.50
  -4   7   3   68.19    5.50
  -4   7   3   72.99    5.30
  -3  -7   3  269.47   12.10
  -3   7   3  282.17   12.00
   3   7  -3  284.67   12.30
  -3   7   3  282.57   11.50
  -2  -7   3   21.20    3.20
  -2   7   3   30.40    3.90
   2   7  -3   17.80    3.10
  -2   7   3   17.60    2.90
  -1  -7   3  119.99    7.10
  -1   7   3  127.99    6.30
  -1   7   3  123.59    7.00
   1   7  -3  125.39    7.10
   0  -7   3   49.70    4.90
   0  -7  -3   48.40    4.50
   0   7  -3   45.70    4.70
   0   7   3   44.50    4.60
   0   7   3   48.00    4.00
  -1  -7  -3  388.76   15.20
   1  -7   3  393.36   15.60
  -1   7  -3  388.96   16.00
   1   7   3  436.56   14.90
   1   7   3  423.46   16.30
   2  -7   3  101.49    6.30
  -2   7  -3   94.99    6.10
   2   7   3  100.69    5.50
   2   7   3  102.79    6.50
   3  -7   3   21.70    3.10
   3   7   3   30.10    4.10
  -3   7  -3   21.70    3.20
   4  -7   3  163.78    8.20
   4   7   3  167.78    8.90
  -4   7  -3  170.38    8.40
   5  -7   3   38.80    4.70
  -5   7  -3   38.10    4.20
   5   7   3   38.20    4.90
   6  -7   3  102.89    6.90
   6   7   3  110.09    7.20
  -6   7  -3  123.99    6.90
   7   7   3    4.40    2.60
  -7   7  -3    5.00    2.30
   8   7   3   68.19    6.00
  -8   8   3    8.00    3.10
   8   8  -3    6.00    2.90
   7   8  -3  254.27   12.40
  -7   8   3  261.77   12.50
  -6  -8   3   68.59    6.50
   6   8  -3   69.69    5.90
  -6   8   3   68.99    6.00
  -5  -8   3  418.36   16.70
   5   8  -3  369.06   16.30
  -5   8   3  391.56   16.40
  -4  -8   3   12.90    3.30
   4   8  -3   14.50    3.20
  -4   8   3   14.80    3.00
  -3  -8   3  272.17   12.40
  -3   8   3  292.17   12.60
   3   8  -3  278.47   12.70
  -2  -8   3   -1.10    2.40
  -2   8   3    2.00    2.10
   2   8  -3    1.60    2.30
  -1  -8   3   11.70    3.00
   1   8  -3   14.90    3.20
  -1   8   3   11.50    2.80
   0  -8   3   92.39    6.30
   0   8   3   85.19    6.10
   0   8  -3   87.99    6.30
   1  -8   3  195.68    9.60
   1   8   3  210.08   10.10
  -1   8  -3  206.28    9.90
  -2  -8  -3  118.29    7.10
   2  -8   3  122.99    7.50
   2   8   3  124.59    7.60
  -2   8  -3  121.79    7.30
   3  -8   3  381.56   15.80
  -3   8  -3  411.46   16.40
   3   8   3  411.26   16.80
   4  -8   3   98.79    6.50
   4   8   3  101.09    7.10
  -4   8  -3  101.59    6.50
   5   8   3  390.16   16.90
  -5   8  -3  411.26   16.50
  -6   8  -3    5.10    2.40
   6   8   3    5.80    2.90
  -7   8  -3  121.19    7.60
   7   8   3  112.99    7.80
   8   8   3    4.10    2.90
  -7  -9   3    4.10    3.50
  -7   9   3    0.70    2.60
   7   9  -3    3.10    2.60
  -6  -9   3   18.30    4.20
  -6   9   3   13.10    3.30
   6   9  -3   16.60    3.60
  -5  -9   3   16.10    3.90
  -5   9   3   16.40    3.40
   5   9  -3   16.30    3.50
  -4  -9   3  264.27   12.60
  -4   9   3  266.27   12.50
   4   9  -3  252.37   12.50
  -3  -9   3    2.00    2.80
   3   9  -3    0.40    2.50
  -3   9   3    5.40    2.50
  -2  -9   3  573.24   22.10
  -2   9   3  558.04   22.30
   2   9  -3  584.84   22.70
  -1  -9   3   -1.40    2.70
  -1   9   3    0.80    2.30
   1   9  -3    3.70    2.70
   0  -9   3  892.11   32.50
   0   9   3  918.01   33.50
   0   9  -3  919.91   33.40
   1  -9   3   22.60    3.60
   1   9   3   26.20    4.00
  -1   9  -3   26.30    4.00
   2  -9   3  401.56   16.50
   2   9   3  402.56   17.20
  -2   9  -3  412.46   17.10
  -3   9  -3   39.30    4.80
   3   9   3   53.79    5.60
   4   9   3  155.18    9.30
  -4   9  -3  154.98    8.80
  -5   9  -3  109.99    7.20
   5   9   3   90.29    7.40
  -6   9  -3    3.90    2.50
   6   9   3    1.10    2.70
  -7   9  -3   57.19    5.60
   7   9   3   48.00    5.90
  -5 -10   3   71.89    7.20
   5  10  -3   63.69    6.40
  -5  10   3   68.09    6.30
  -4 -10   3   62.69    6.80
  -4  10   3   62.29    6.00
   4  10  -3   62.09    6.30
  -3 -10   3   20.30    4.20
   3  10  -3   24.10    4.30
  -3  10   3   23.30    3.90
  -2 -10   3   31.00    4.70
  -2  10   3   27.70    4.30
   2  10  -3   33.20    4.80
  -1 -10   3   10.50    3.80
   1  10  -3   12.40    3.50
  -1  10   3   15.50    3.50
   0 -10   3    6.90    3.40
   0  10   3    4.00    2.70
   0  10  -3    2.20    2.80
   1  10   3    1.50    2.70
  -1  10  -3    3.90    2.80
   2  10   3    1.00    2.80
  -2  10  -3   -0.10    2.40
   3  10   3   10.20    3.60
  -3  10  -3    8.40    3.00
   4  10   3   13.90    3.90
  -4  10  -3   11.20    3.30
  -5  10  -3   89.99    7.00
   5  10   3   73.99    7.30
  -3 -11   3   12.10    4.40
   3  11  -3   16.40    4.10
  -3  11   3   19.40    4.10
  -2 -11   3   25.20    4.70
   2  11  -3   23.90    4.50
  -2  11   3   23.40    4.30
  -1  11   3  134.29    9.10
   1  11  -3  149.39    9.70
   0  11  -3   10.30    3.70
   0  11   3   15.30    3.90
   1  11   3    9.60    3.70
  -1  11  -3    8.80    3.50
  -2  11  -3    1.80    3.00
   2  11   3    1.00    3.10
   3  11   3   33.20    5.30
  -3  11  -3   31.80    4.90
  11   0  -4   74.69    7.20
  10   0  -4  231.88   12.30
   9   0  -4  637.54   24.70
   8   0  -4   32.80    4.50
   7   0  -4 2892.91   96.39
   6   0  -4   16.00    2.40
   5   0  -4 4175.08  136.49
   4   0  -4  813.02   28.00
   3   0  -4 3695.63  120.29
   2   0  -4  786.02   26.40
  -1   0   4  437.86   14.50
  -1   0   4  395.06   13.90
   1   0  -4  402.66   14.20
   0   0   4  355.36   11.80
   0   0   4  312.57   11.40
   0   0  -4  318.37   11.20
   1   0   4 2689.03   88.09
   1   0   4 2795.52   89.19
   2   0   4  155.28    6.20
   2   0   4  160.98    6.30
   3   0   4 5846.21  184.58
   3   0   4 5606.34  186.48
   3   0   4 5772.52  189.88
   4   0   4   13.50    1.90
   4   0   4   16.10    1.80
   5   0   4 5149.79  167.08
   5   0   4 5109.69  166.18
   6   0   4   12.80    1.80
   6   0   4   10.60    2.00
   7   0   4 2448.56   80.29
   7   0   4 2422.66   81.29
   8   0   4   93.69    6.00
   8   0   4   69.89    5.30
   9   0   4  505.15   20.30
  10   0   4   69.79    6.40
  11   0   4   34.20    5.30
  11  -1  -4   20.60    4.40
  11   1  -4   22.10    4.30
  10  -1  -4   70.19    7.20
  10   1  -4   80.69    7.30
   9  -1  -4  176.98   10.00
   9   1  -4  177.48   10.00
   8  -1  -4   32.20    4.20
   8   1  -4   43.50    4.70
   7  -1  -4  330.17   13.90
   7   1  -4  323.57   14.00
   6  -1  -4  125.09    6.70
   6   1  -4  130.99    6.70
   5  -1  -4  539.45   19.50
   5   1  -4  527.35   19.50
   4  -1  -4 1621.14   53.79
   4   1  -4 1617.14   53.89
   3  -1  -4  162.68    6.60
   3   1  -4  155.38    6.60
   2  -1  -4 3349.17  116.39
  -2  -1   4 3745.63  114.69
   2   1  -4 3509.75  116.49
  -2   1   4 3696.83  114.99
  -1  -1   4   24.10    1.80
   1  -1  -4   28.40    1.80
  -1  -1   4   22.20    1.90
   1   1  -4   31.10    1.90
  -1   1   4   22.80    2.00
  -1   1   4   28.80    1.50
   0  -1  -4 7108.49  244.18
   0  -1   4 7437.96  243.68
   0  -1   4 7254.07  242.58
   0   1   4 7229.18  239.48
   0   1   4 8012.80  246.98
   1  -1   4   42.90    2.60
   1  -1   4   37.40    2.20
   1   1   4   38.30    2.50
   1   1   4   35.30    1.70
  -1   1  -4   36.30    1.80
   1   1   4   41.80    2.30
   2  -1   4 2245.88   72.79
   2  -1   4 2273.97   72.09
   2   1   4 2376.56   72.99
  -2   1  -4 2150.98   72.49
   2   1   4 2102.99   72.29
   3  -1   4    6.30    1.30
   3  -1   4   10.30    1.60
   3   1   4   14.70    2.20
   3   1   4   10.60    1.60
   4  -1   4  805.22   26.50
   4  -1   4  804.22   27.50
   4  -1   4  814.72   27.10
   4   1   4  813.32   27.60
   4   1   4  755.62   26.70
   5  -1   4   35.00    3.70
   5  -1   4   37.00    3.00
   5   1   4   44.00    3.80
   6  -1   4    8.40    1.90
   6  -1   4    2.90    1.30
   6   1   4    6.10    1.80
   7  -1   4   58.29    4.40
   7  -1   4   47.50    5.10
   7   1   4   53.99    5.10
   8  -1   4  156.68    8.40
   8   1   4  162.58    8.30
   8   1   4  147.79    7.80
   9  -1   4    0.90    2.70
   9   1   4   -3.50    2.40
  10  -1   4  176.28   10.40
  10   1   4  186.78   10.20
  11  -1   4    1.00    2.60
  11   1   4   -0.50    2.50
  11  -2  -4    0.20    3.00
  11   2  -4    2.00    3.20
  10  -2  -4   -1.90    2.90
  10   2  -4    0.30    2.80
   9  -2  -4   13.80    3.50
   9   2  -4    9.00    3.50
   8  -2  -4    3.90    2.70
   8   2  -4    8.60    2.10
   8   2  -4   12.70    2.80
   7   2  -4   60.59    5.70
   7   2  -4   41.50    5.30
   6  -2  -4  100.49    6.00
   6   2  -4  104.59    6.00
   6   2  -4  105.89    5.80
   5  -2  -4  345.07   13.40
   5   2  -4  339.37   13.50
   4  -2  -4    1.50    1.10
   4   2  -4   -0.60    1.10
   3  -2  -4  161.28    6.90
   3   2  -4  169.38    7.10
   2  -2  -4  487.45   17.30
  -2  -2   4  498.65   17.20
   2   2  -4  512.85   17.60
  -1  -2   4  101.89    4.60
  -1  -2   4  106.29    4.20
   1   2  -4   99.09    4.80
  -1   2   4  107.89    4.80
   0  -2  -4   48.10    2.60
   0  -2   4   47.60    2.40
   0  -2   4   47.30    2.90
   0   2  -4   49.30    2.90
   1  -2   4  150.18    6.10
   1  -2   4  149.39    5.70
   1   2   4  156.38    5.70
  -1   2  -4  142.29    5.70
   1   2   4  147.79    6.10
   2  -2   4    0.10    1.00
   2  -2   4    2.40    1.00
   2   2   4   -0.10    1.00
   3  -2   4  172.38    7.20
   3  -2   4  181.58    7.30
   3   2   4  175.48    7.00
   3   2   4  174.18    7.30
   4  -2   4   88.29    4.00
   4  -2   4   86.09    5.00
   4  -2   4   88.69    4.70
   4   2   4   86.39    4.40
   4   2   4   83.59    4.80
   5  -2   4  312.67   12.50
   5  -2   4  319.97   12.40
   5  -2   4  314.27   11.50
   5   2   4  316.27   12.40
   5   2   4  302.67   11.90
   6  -2   4    5.90    1.50
   6   2   4    7.20    1.70
   6   2   4    4.40    1.90
   7  -2   4   14.80    3.30
   7   2   4   22.70    3.20
   7   2   4   27.30    4.10
   8  -2   4    6.80    2.40
   8   2   4    4.00    2.00
   8   2   4    4.50    2.00
   9  -2   4   -0.80    2.80
   9   2   4   -1.10    2.40
  10  -2   4    4.90    3.10
  10   2   4    7.10    2.60
  11  -2   4    4.30    2.90
  11   2   4    2.20    2.70
  11  -3  -4   31.00    5.20
  11   3  -4   36.70    5.50
  10  -3  -4  234.58   12.90
  10   3  -4  252.67   12.70
   9  -3  -4  197.38   11.10
   9   3  -4  206.48   10.90
   8  -3  -4   95.19    7.00
   8   3  -4   99.69    6.50
   8   3  -4  106.29    6.80
   7  -3  -4  596.44   22.90
   7   3  -4  597.04   22.90
   7   3  -4  610.94   22.40
   6  -3  -4    2.00    1.90
   6   3  -4    3.40    1.30
   6   3  -4    1.80    1.70
   5  -3  -4  323.77   13.00
   5   3  -4  333.27   12.60
   5   3  -4  322.07   13.10
   4  -3  -4 1916.71   64.09
   4   3  -4 1939.01   64.29
   3  -3  -4  294.57   11.40
   3   3  -4  302.37   11.60
   2  -3  -4 4910.81  157.88
  -2  -3   4 4965.70  156.78
  -2   3   4 4835.72  161.88
   2   3  -4 4740.33  158.08
   1  -3  -4  118.79    5.20
  -1  -3   4  114.29    5.40
   1   3  -4  126.39    5.60
  -1   3   4  116.79    5.50
   0  -3   4 7766.72  249.78
   0   3  -4 6893.51  253.87
   0   3   4 8035.10  252.77
   0   3   4 7684.33  254.27
   1  -3   4   56.09    3.40
   1  -3   4   59.79    2.70
  -1   3  -4   53.99    3.30
   1   3   4   62.59    3.30
   1   3   4   57.39    3.40
   2  -3   4 3527.85  109.89
   2  -3   4 3336.77  110.39
   2   3   4 3479.45  110.89
   2   3   4 3461.45  110.89
  -2   3  -4 3227.98  111.89
   3  -3   4   25.80    3.00
   3  -3   4   32.10    2.50
   3   3   4   23.70    2.70
   3   3   4   29.40    2.90
  -3   3  -4   20.40    2.30
   4  -3   4  906.91   30.60
   4  -3   4  900.51   31.00
   4  -3   4  920.91   30.90
  -4   3  -4  899.21   30.60
   4   3   4  904.71   31.20
   4   3   4  926.51   31.10
   5  -3   4   31.40    3.80
   5  -3   4   30.10    3.20
   5  -3   4   38.50    4.40
   5   3   4   36.50    3.70
   5   3   4   38.50    3.90
   6  -3   4  119.09    6.30
   6  -3   4  113.69    6.60
   6  -3   4  114.69    5.70
   6   3   4  106.99    6.20
   6   3   4  106.39    6.00
   7  -3   4   49.99    5.40
   7  -3   4   62.69    4.70
   7   3   4   61.29    5.20
   7   3   4   53.59    5.00
   8  -3   4  319.77   13.70
   8   3   4  310.07   13.20
   8   3   4  292.77   12.90
   9  -3   4   18.80    3.80
   9   3   4   17.10    3.30
  10  -3   4  369.66   16.90
  10   3   4  363.66   16.00
  11  -3   4    1.80    2.80
  11   3   4   -4.40    2.20
  11  -4  -4   68.89    7.60
  11   4  -4   60.79    7.00
  10  -4  -4   95.49    8.40
  10   4  -4  120.79    8.10
   9  -4  -4  506.05   21.20
   9   4  -4  515.65   21.10
   8  -4  -4   18.60    3.70
   8   4  -4   29.50    4.10
   8   4  -4   23.50    3.20
   7  -4  -4 1212.68   42.70
   7   4  -4 1240.08   42.00
   7   4  -4 1187.88   42.60
   6  -4  -4    2.00    2.00
   6   4  -4    0.10    1.80
   6   4  -4    3.70    1.40
   5  -4  -4 2281.87   75.69
   5   4  -4 2254.17   75.79
   4  -4  -4  164.58    7.60
   4   4  -4  159.28    7.70
  -3  -4   4 1202.38   40.50
   3  -4  -4 1186.98   40.90
   3   4  -4 1242.38   41.20
  -2  -4   4  299.87   11.70
   2  -4  -4  304.07   11.70
  -2   4   4  315.97   11.70
   2   4  -4  311.27   12.10
  -1  -4   4   69.79    4.10
  -1   4   4   65.09    4.00
  -1   4   4   67.09    4.00
   1   4  -4   55.39    4.00
   0   4   4  279.27   10.30
   0   4   4  277.17   10.30
   0   4  -4  246.78   10.20
   1  -4   4 1007.50   34.70
   1   4   4 1054.19   34.80
  -1   4  -4 1020.30   34.90
   1   4   4 1068.09   35.00
   2  -4   4   40.40    3.60
   2  -4   4   34.50    2.30
  -2   4  -4   35.40    2.90
   2   4   4   42.00    3.40
   2   4   4   36.20    3.10
   3  -4   4 2453.55   81.49
   3  -4   4 2464.95   81.29
  -3   4  -4 2552.84   81.89
   3   4   4 2502.55   82.19
   3   4   4 2513.85   81.99
   4  -4   4   43.80    4.30
   4  -4   4   44.50    3.50
  -4   4  -4   43.20    3.40
   4   4   4   46.60    4.10
   5  -4   4 2960.00   99.19
   5  -4   4 2964.50   99.49
   5  -4   4 2993.80   98.59
  -5   4  -4 3280.77   99.39
   5   4   4 2974.00   99.79
   5   4   4 3004.80   99.69
   6  -4   4   15.40    2.90
   6  -4   4   13.60    2.30
   6   4   4   13.80    2.60
   7  -4   4 1206.18   41.90
   7  -4   4 1253.17   42.90
   7  -4   4 1198.08   41.80
   7   4   4 1245.38   42.50
   7   4   4 1232.08   42.50
   8  -4   4   54.79    5.40
   8   4   4   60.19    5.30
   8   4   4   55.89    5.10
   9  -4   4  395.26   17.30
   9   4   4  411.66   16.90
  10  -4   4   31.40    4.80
  10   4   4   45.00    5.50
  10  -5  -4    3.70    3.60
  10   5  -4    4.50    2.90
   9  -5  -4   19.80    4.30
   9   5  -4   13.70    3.50
   8  -5  -4   32.60    4.70
   8   5  -4   33.90    4.50
   7  -5  -4   36.90    5.30
   7   5  -4   34.40    4.40
   6  -5  -4  223.98   10.60
   6   5  -4  223.58   10.40
   5  -5  -4   85.39    5.90
   5   5  -4   98.49    6.10
   4  -5  -4  278.97   11.70
   4   5  -4  285.97   11.90
   3  -5  -4  182.68    8.10
  -3  -5   4  161.98    8.10
  -3   5   4  176.68    8.00
   3   5  -4  181.38    8.40
  -2  -5   4  738.43   25.80
  -2   5   4  723.33   25.90
  -2   5   4  770.12   25.80
   2   5  -4  725.73   26.20
  -1  -5   4  308.17   11.90
   1  -5  -4  266.47   10.30
  -1   5   4  307.87   11.90
   1   5  -4  307.87   12.00
  -1   5   4  321.27   11.70
   0  -5   4  301.17   11.70
   0   5  -4  269.67   11.60
   0   5   4  326.17   11.50
   0   5   4  299.97   11.80
   1  -5   4  187.78    8.30
   1   5   4  194.78    8.10
   1   5   4  198.08    8.50
  -1   5  -4  185.78    8.30
   2  -5   4  455.55   17.00
  -2   5  -4  452.85   16.90
   2   5   4  477.25   16.80
   2   5   4  464.95   17.10
   3  -5   4   94.59    5.80
   3  -5   4   91.79    4.60
   3   5   4  107.59    5.40
  -3   5  -4   93.89    5.50
   3   5   4  108.19    5.90
   4  -5   4  132.49    7.20
   4  -5   4  144.29    6.40
  -4   5  -4  137.99    6.70
   4   5   4  149.39    7.40
   4   5   4  146.49    7.10
   5  -5   4    7.00    2.40
   5  -5   4    2.00    1.70
  -5   5  -4    8.10    1.90
   5   5   4    5.70    1.90
   5   5   4    8.20    2.40
   6  -5   4   45.70    5.00
   6   5   4   58.09    4.80
   6   5   4   52.09    4.80
  -6   5  -4   66.39    4.60
   7  -5   4    3.00    2.00
   7  -5   4   -1.40    2.10
   7  -5   4    3.80    2.80
   7   5   4    3.10    2.30
  -7   5  -4    2.10    1.80
   7   5   4    3.20    2.10
   8  -5   4   -2.40    2.20
   8   5   4    2.60    2.20
   8   5   4    7.70    2.70
   9  -5   4   -0.50    2.30
   9   5   4   -0.10    2.30
  10  -5   4    2.60    3.10
  10   5   4    9.10    2.90
  10  -6  -4    8.40    3.90
  10   6  -4   13.80    3.70
   9  -6  -4   52.29    6.50
   9   6  -4   52.29    5.70
   8  -6  -4   -0.40    2.60
   8   6  -4   -1.70    2.00
   7  -6  -4  186.78    9.90
   7   6  -4  172.28    9.30
   6  -6  -4   40.20    4.90
   6   6  -4   41.50    4.60
   5  -6  -4  826.32   29.10
   5   6  -4  780.12   29.00
   4  -6  -4  189.98    9.00
  -4  -6   4  174.68    9.00
   4   6  -4  187.28    9.00
  -4   6   4  191.08    8.70
  -3  -6   4  346.57   14.10
   3   6  -4  346.17   14.30
  -3   6   4  369.06   14.20
  -3   6   4  349.96   13.70
  -2  -6   4  107.39    6.40
  -2   6   4  120.29    6.20
  -2   6   4  110.99    6.30
   2   6  -4  111.29    6.60
  -1  -6   4  213.28    9.70
   1   6  -4  222.08    9.90
  -1   6   4  219.08    9.70
  -1   6   4  225.08    9.30
   0  -6  -4   32.00    3.30
   0  -6   4   28.00    4.10
   0   6   4   32.60    3.70
   0   6   4   28.70    3.70
   0   6  -4   31.60    3.90
   1  -6   4  306.67   12.70
   1   6   4  331.77   12.30
   1   6   4  326.57   13.00
  -1   6  -4  327.27   13.00
   2  -6   4   78.09    5.60
  -2   6  -4   76.89    5.20
   2   6   4   82.49    5.50
   2   6   4   87.99    5.20
   3  -6   4  466.45   17.30
   3   6   4  491.05   17.10
  -3   6  -4  425.66   17.10
   3   6   4  461.35   17.60
   4  -6   4   54.49    5.10
   4   6   4   63.99    4.80
   4   6   4   57.39    5.10
  -4   6  -4   61.09    4.60
   5  -6   4  689.63   24.80
   5   6   4  707.23   24.90
   5   6   4  695.13   25.50
  -5   6  -4  673.03   24.80
   6  -6   4   79.99    5.30
   6  -6   4   73.29    5.90
  -6   6  -4   81.59    5.50
   6   6   4   82.99    5.80
   6   6   4   78.09    6.00
   7  -6   4  157.98    8.70
   7   6   4  163.68    8.60
  -7   6  -4  168.68    8.30
   7   6   4  166.58    9.00
   8  -6   4   -0.90    2.20
   8   6   4    0.30    2.10
   8   6   4    0.90    2.40
   9   6   4    7.60    2.80
   9  -7  -4   98.39    8.30
   9   7  -4  103.09    7.40
   8  -7  -4   39.70    5.80
   8   7  -4   39.50    4.90
   7  -7  -4   97.29    7.10
   7   7  -4   81.89    6.40
   6  -7  -4   16.60    3.40
  -6   7   4   19.40    3.50
   6   7  -4   19.50    3.30
  -6   7   4   22.70    3.30
   5  -7  -4  225.38   10.80
  -5  -7   4  228.68   11.00
   5   7  -4  213.08   10.60
  -5   7   4  221.68   10.70
  -5   7   4  247.38   10.60
  -4  -7   4  486.25   19.30
  -4   7   4  519.35   19.00
  -4   7   4  499.85   19.40
   4   7  -4  501.85   19.60
  -3  -7   4    3.00    2.50
   3   7  -4    1.70    2.20
  -3   7   4    1.20    1.90
  -3   7   4   -0.20    1.80
  -2  -7   4 1896.41   62.49
  -2   7   4 1976.70   62.49
  -2   7   4 1775.12   63.09
   2   7  -4 1831.22   63.29
  -1  -7   4   27.70    3.60
  -1   7   4   33.70    4.20
  -1   7   4   25.20    2.90
   1   7  -4   31.30    4.20
   0  -7   4 1963.90   65.09
   0   7   4 1974.60   65.99
   0   7   4 1964.60   64.79
   0   7  -4 1921.91   65.89
   1  -7   4   73.39    5.60
  -1  -7  -4   72.39    5.20
  -1   7  -4   86.59    5.70
   1   7   4   75.09    5.10
   1   7   4   78.49    5.50
   2  -7   4 1612.94   53.89
   2   7   4 1692.93   53.69
   2   7   4 1553.84   54.59
  -2   7  -4 1550.94   54.49
   3  -7   4    5.90    2.70
   3   7   4    5.00    2.50
  -3   7  -4    5.40    2.20
   3   7   4    6.70    2.00
   4  -7   4  118.19    7.30
  -4   7  -4  136.69    7.30
   4   7   4  145.99    7.20
   4   7   4  133.39    7.80
   5  -7   4    3.80    2.70
   5   7   4    3.60    2.60
  -5   7  -4    4.90    2.20
   5   7   4    4.50    2.00
   6  -7   4   -2.80    2.60
   6   7   4    0.50    1.90
  -6   7  -4    1.80    2.00
   6   7   4   -2.00    2.20
   7  -7   4   19.10    3.60
   7   7   4   20.90    3.60
  -7   7  -4   20.60    3.30
   8   7   4  199.58   10.40
   8  -8  -4    3.10    3.20
  -8  -8   4    5.70    3.80
  -8   8   4    7.80    3.10
   8   8  -4    9.50    3.10
  -7  -8   4  262.87   12.60
   7   8  -4  220.38   11.50
  -7   8   4  227.58   11.80
  -6  -8   4   11.80    3.50
   6   8  -4    5.30    2.60
  -6   8   4    8.90    2.90
  -5  -8   4  204.88   10.40
   5   8  -4  172.98    9.70
  -5   8   4  196.68   10.00
  -4  -8   4    0.00    2.60
   4   8  -4    0.60    2.20
  -4   8   4    2.50    2.20
  -3  -8   4   93.79    6.70
   3   8  -4   84.59    6.40
  -3   8   4   93.69    6.30
  -2  -8   4    1.00    2.60
  -2   8   4    2.00    2.10
   2   8  -4    2.90    2.50
  -1  -8   4    1.80    2.60
   1   8  -4    3.60    2.50
  -1   8   4    1.80    2.20
   0  -8   4   43.80    5.20
   0   8   4   57.89    5.20
   0   8  -4   51.69    5.10
   1  -8   4   57.79    5.40
  -1   8  -4   69.29    5.60
   1   8   4   61.99    5.40
   2  -8   4   42.10    5.30
   2   8   4   41.80    4.90
  -2   8  -4   49.10    5.00
   3  -8   4  316.57   13.60
   3   8   4  329.87   14.30
  -3   8  -4  323.47   13.90
   4  -8   4   78.99    6.20
  -4   8  -4   89.49    6.30
   4   8   4   86.89    6.60
   5  -8   4  285.27   12.90
  -5   8  -4  311.17   13.20
   5   8   4  301.57   13.80
   6   8   4   26.30    4.10
  -6   8  -4   36.40    4.50
   7   8   4  291.57   13.60
  -7  -9   4    1.30    3.50
  -7   9   4    3.40    2.80
   7   9  -4    0.90    2.50
  -6  -9   4   76.59    7.10
   6   9  -4   61.49    5.90
  -6   9   4   66.29    6.10
  -5  -9   4    3.60    3.20
   5   9  -4    3.00    2.70
  -5   9   4    3.50    2.60
  -4  -9   4   36.30    5.30
  -4   9   4   31.70    4.60
   4   9  -4   27.30    4.30
  -3  -9   4   66.69    6.50
   3   9  -4   71.99    6.20
  -3   9   4   71.89    6.00
  -2  -9   4    5.20    3.10
  -2   9   4    0.70    2.30
   2   9  -4    3.30    2.80
  -1  -9   4  107.59    7.50
  -1   9   4  106.29    7.30
   1   9  -4  112.99    7.60
   0  -9   4    9.80    3.30
   0   9  -4   10.60    3.20
   0   9   4   10.90    3.00
   1  -9   4  155.68    8.80
  -1   9  -4  162.68    9.20
   1   9   4  163.78    9.20
   2  -9   4    5.00    3.10
   2   9   4    1.20    2.50
  -2   9  -4    1.70    2.30
   3  -9   4   29.90    4.20
   3   9   4   34.10    4.70
  -4   9  -4   14.90    3.20
   4   9   4   12.30    3.60
   5   9   4    7.30    3.30
  -5   9  -4    9.90    2.90
   6   9   4   32.00    4.70
  -6   9  -4   40.60    5.10
  -5 -10   4  196.28   11.00
  -5  10   4  178.28   10.20
   5  10  -4  165.58   10.10
  -4 -10   4   70.09    7.20
  -4  10   4   71.19    6.40
   4  10  -4   68.89    6.60
  -3 -10   4  162.38   10.00
  -3  10   4  167.68    9.70
   3  10  -4  170.18   10.00
  -2 -10   4    3.00    3.50
   2  10  -4    1.90    2.90
  -2  10   4    5.00    2.70
  -1 -10   4    2.00    3.40
  -1  10   4    5.30    2.80
   1  10  -4    1.90    2.80
   0 -10   4   23.50    4.30
   0  10   4   30.20    4.50
   0  10  -4   25.90    4.40
   1 -10   4   15.10    3.70
   1  10   4   20.10    4.00
  -1  10  -4   15.20    3.60
   2  10   4   20.40    4.20
  -2  10  -4   20.10    3.90
  -3  10  -4  253.87   12.50
   3  10   4  238.38   12.60
   4  10   4    0.80    3.00
  -4  10  -4    2.10    2.70
   5  10   4  139.29    9.60
  -5  10  -4  143.29    8.90
   3  11  -4    0.30    3.10
  -3  11   4    7.80    3.20
  -2 -11   4  171.98   10.50
   2  11  -4  159.58   10.20
  -2  11   4  161.78    9.90
  -1 -11   4   20.20    4.60
  -1  11   4   21.00    4.20
   1  11  -4   27.20    4.90
   0  11   4  212.28   12.00
   0  11  -4  226.88   12.30
  -1  11  -4   -1.50    2.80
   1  11   4    0.00    2.90
   2  11   4  126.29    9.50
  -2  11  -4  163.38    9.90
  11   0  -5   -0.80    2.80
  10   0  -5    1.90    3.20
   9   0  -5    1.70    2.80
   8   0  -5   -0.10    2.00
   7   0  -5    2.70    2.50
   6   0  -5   -0.50    1.30
   4   0  -5    1.30    1.10
   3   0  -5    0.80    0.90
   2   0  -5    4.70    1.00
  -2   0   5    2.80    0.80
  -2   0   5    6.90    1.20
  -1   0   5    2.00    1.00
  -1   0   5    1.60    0.70
   1   0  -5    1.30    0.60
   0   0  -5    0.50    0.40
   0   0   5    0.20    0.70
   0   0   5    1.30    0.90
   1   0   5    2.00    0.90
   1   0   5    0.50    0.80
   2   0   5    3.20    1.10
   2   0   5    5.70    1.30
   3   0   5    3.80    1.30
   3   0   5    8.20    1.50
   4   0   5    0.40    1.40
   5   0   5    4.40    1.90
   6   0   5   -0.40    1.00
   6   0   5   -1.50    1.40
   7   0   5   -3.10    2.20
   8   0   5    5.10    2.20
   9   0   5   -3.00    2.40
  10   0   5    3.00    2.50
  11   0   5   -1.50    2.40
  11  -1  -5   78.99    7.50
  11   1  -5   84.09    7.40
  10  -1  -5   49.50    6.50
  10   1  -5   51.79    6.40
   9  -1  -5  506.35   20.50
   9   1  -5  484.25   20.40
   8  -1  -5   31.40    4.50
   8   1  -5   32.00    4.30
   7  -1  -5 1192.28   41.90
   7   1  -5 1205.58   42.00
   6  -1  -5   14.20    2.40
   5  -1  -5 1822.32   61.19
   5   1  -5 1840.92   61.29
   4  -1  -5 1003.40   34.20
   4   1  -5 1008.40   34.30
   3  -1  -5  663.13   22.80
   3   1  -5  663.93   22.90
   2  -1  -5 3117.89  104.89
  -2  -1   5 3368.66  103.69
  -2   1   5 3357.36  105.19
   2   1  -5 3184.08  104.99
  -2   1   5 3114.79  103.39
  -1  -1   5    9.60    1.20
  -1  -1   5    7.80    1.20
   1  -1  -5   12.20    1.30
  -1   1   5   13.00    1.30
   1   1  -5   10.20    1.50
  -1   1   5    8.90    1.40
   0  -1   5 5343.67  173.08
   0  -1   5 5033.20  171.18
   0  -1  -5 5112.39  173.58
   0   1   5 5517.95  175.68
   0   1   5 5158.98  169.58
   1  -1   5  562.24   19.10
   1  -1   5  571.74   19.20
   1   1   5  623.94   18.80
   1   1   5  533.15   18.50
   1   1   5  560.04   19.40
  -1   1  -5  528.25   18.40
   2  -1   5 3059.89   96.29
   2  -1   5 3029.40   97.29
   2   1   5 3157.88   97.49
   2   1   5 2593.64   96.49
   2   1   5 3092.29   96.09
   3  -1   5  552.64   18.90
   3  -1   5  539.95   19.20
   3   1   5  539.25   19.20
   4  -1   5  379.56   14.30
   4  -1   5  382.96   12.90
   4  -1   5  380.26   14.00
   4   1   5  373.96   14.20
   5  -1   5  393.26   15.00
   5  -1   5  383.76   13.80
   5  -1   5  419.56   14.90
   5   1   5  380.86   14.00
   5   1   5  398.36   15.10
   6  -1   5   24.30    3.30
   6  -1   5   23.10    2.60
   6   1   5   26.90    2.80
   6   1   5   18.60    2.60
   7  -1   5   54.39    5.30
   7   1   5   50.49    4.90
   8  -1   5  376.16   15.70
   8   1   5  378.36   15.60
   9  -1   5    6.30    3.00
   9   1   5    5.10    2.90
  10  -1   5  301.37   14.40
  10   1   5  297.47   14.00
  11  -1   5   -1.40    2.50
  11   1   5   -2.30    2.40
  11   2  -5   34.60    5.30
  10  -2  -5  250.17   13.40
  10   2  -5  270.27   13.40
   9  -2  -5  174.88   10.20
   9   2  -5  178.58   10.20
   8  -2  -5   88.59    6.70
   8   2  -5  103.69    6.80
   7  -2  -5  961.50   34.30
   7   2  -5  959.10   34.40
   6  -2  -5  173.58    8.40
   6   2  -5  175.58    8.50
   5  -2  -5 1539.85   52.99
   5   2  -5 1609.24   53.19
   4  -2  -5 1410.16   47.50
   4   2  -5 1423.86   47.70
   3  -2  -5 1395.96   47.50
   3   2  -5 1462.35   47.70
  -2  -2   5 4490.25  138.49
   2  -2  -5 4177.38  139.89
  -2   2   5 4429.46  142.89
   2   2  -5 4151.78  140.09
  -1  -2   5   18.90    2.00
   1  -2  -5   20.80    1.90
   1   2  -5   19.10    2.30
  -1   2   5   21.00    2.50
   0  -2   5 2840.32   89.79
   0  -2  -5 2850.61   92.39
   0  -2   5 2779.12   90.29
   0   2  -5 2557.34   90.99
   0   2   5 2893.91   90.99
   1  -2   5 1165.88   39.80
   1  -2   5 1218.48   39.80
   1   2   5 1242.18   39.70
   1   2   5 1244.58   40.30
  -1   2  -5 1169.98   39.70
   2  -2   5 1657.03   55.69
   2  -2   5 1751.72   55.39
   2   2   5 1750.82   55.99
  -2   2  -5 1672.63   55.09
   2   2   5 1633.04   55.29
   3  -2   5 4250.57  133.09
   3  -2   5 4155.38  134.39
   3   2   5 4213.38  134.59
  -3   2  -5 4051.39  135.19
   3   2   5 3983.70  133.99
   4  -2   5  118.89    6.10
   4  -2   5  115.19    5.80
   4  -2   5  121.99    4.90
   4   2   5  117.99    6.00
   4   2   5  112.49    5.20
   5  -2   5 3554.24  112.09
   5  -2   5 3544.25  113.29
   5  -2   5 3416.36  112.09
   5   2   5 3536.25  113.29
   5   2   5 3203.28  112.49
   6  -2   5    2.80    1.30
   6  -2   5    3.70    1.80
   6  -2   5    3.10    2.50
   6   2   5    7.10    2.10
   6   2   5    5.00    1.60
   7  -2   5 1791.72   58.99
   7   2   5 1792.22   58.79
   7   2   5 1608.04   57.69
   8  -2   5    6.80    2.40
   8   2   5    8.10    2.30
   9  -2   5  348.17   15.70
   9   2   5  354.76   15.30
  10  -2   5    1.40    2.90
  11  -2   5    9.60    3.30
  11   2   5   16.50    3.70
  11  -3  -5   61.69    7.30
  11   3  -5   63.79    7.00
  10  -3  -5   -3.00    2.90
  10   3  -5    6.90    3.10
   9  -3  -5  134.09    8.80
   9   3  -5  122.99    8.50
   8  -3  -5    4.20    2.80
   8   3  -5   12.20    2.90
   7  -3  -5  483.05   19.10
   7   3  -5  474.75   19.00
   6  -3  -5  130.69    7.30
   6   3  -5  135.19    7.30
   5  -3  -5  358.36   14.50
   5   3  -5  379.16   14.60
   4  -3  -5  796.52   27.80
   4   3  -5  794.92   27.90
  -3  -3   5  637.54   22.20
   3  -3  -5  628.64   22.40
   3   3  -5  652.53   22.60
  -2  -3   5  821.62   27.60
  -2  -3   5  819.42   27.10
   2  -3  -5  795.32   27.80
   2   3  -5  835.42   28.10
  -2   3   5  805.22   27.90
   1  -3  -5   21.00    2.10
  -1  -3   5   24.70    2.70
  -1  -3   5   25.20    1.90
  -1   3   5   17.40    2.10
   0  -3   5 1752.52   60.29
   0  -3   5 1911.11   60.59
   0   3   5 1921.11   61.09
   0   3  -5 1778.62   61.09
   0   3   5 1927.31   61.29
   1  -3   5   15.20    1.80
   1  -3   5   13.30    1.90
   1   3   5   13.40    1.80
  -1   3  -5   11.70    1.50
   1   3   5   18.40    2.20
   2  -3   5  517.05   18.00
   2  -3   5  532.95   18.50
  -2   3  -5  505.05   17.90
   2   3   5  531.15   18.20
   2   3   5  527.65   18.50
   3  -3   5   63.99    4.40
   3  -3   5   63.89    3.80
  -3   3  -5   58.39    3.50
   3   3   5   66.49    4.00
   3   3   5   68.79    4.20
   4  -3   5  209.38    9.10
   4  -3   5  215.78    8.80
  -4   3  -5  200.38    8.10
   4   3   5  209.18    9.00
   4   3   5  212.08    8.70
   5  -3   5  113.09    6.50
   5  -3   5  102.59    5.90
   5  -3   5   99.69    5.20
   5   3   5  103.89    5.90
   5   3   5   97.09    5.60
   6  -3   5   -0.20    1.20
   6  -3   5   -1.60    2.20
   6  -3   5    1.20    1.60
   6   3   5   -1.10    1.70
   6   3   5    3.20    1.70
   7  -3   5   35.40    4.90
   7   3   5   43.40    4.60
   7   3   5   32.50    4.30
   8  -3   5   54.69    5.30
   8   3   5   45.40    4.90
   9  -3   5   22.40    4.00
   9   3   5   23.80    3.70
  10  -3   5   75.69    7.60
  10   3   5   97.29    7.20
  11  -3   5    6.10    3.20
  11   3   5    1.90    2.80
  11  -4  -5    6.70    3.80
  11   4  -5    8.40    3.90
  10  -4  -5   45.30    6.70
  10   4  -5   48.60    5.60
   9  -4  -5   14.00    3.90
   9   4  -5    9.70    3.40
   8  -4  -5   25.50    4.30
   8   4  -5   29.20    4.10
   7  -4  -5   72.29    6.30
   7   4  -5   67.59    5.80
   6  -4  -5   18.30    3.10
   6   4  -5   21.80    3.20
   5  -4  -5  386.16   15.10
   5   4  -5  371.56   15.00
   4  -4  -5  243.08   10.20
   4   4  -5  231.58   10.20
   3  -4  -5  581.94   20.40
  -3  -4   5  555.74   20.30
  -3   4   5  562.04   20.40
   3   4  -5  574.14   20.60
  -2  -4   5  394.36   14.80
   2  -4  -5  400.36   14.80
   2   4  -5  405.76   15.10
  -2   4   5  408.46   14.90
  -1  -4   5   99.39    5.50
  -1   4   5  110.19    5.60
   1   4  -5  101.29    5.50
  -1   4   5  108.99    5.30
   0  -4   5  306.17   11.70
   0   4  -5  286.77   11.60
   0   4   5  322.27   11.70
   0   4   5  308.07   11.70
   1  -4   5   21.70    1.70
   1  -4   5   24.70    3.00
   1   4   5   27.10    3.00
  -1   4  -5   19.40    2.90
   1   4   5   22.90    2.80
   2  -4   5    8.30    1.20
   2  -4   5    4.60    1.80
   2   4   5    8.30    1.70
  -2   4  -5    6.10    1.40
   2   4   5    2.70    1.60
   3  -4   5  372.86   13.80
   3  -4   5  351.86   13.00
  -3   4  -5  355.36   13.30
   3   4   5  364.36   13.70
   3   4   5  368.46   13.70
   4  -4   5   77.29    4.60
   4  -4   5   80.29    5.30
  -4   4  -5   70.39    4.30
   4   4   5   77.39    5.20
   4   4   5   74.39    5.00
   5  -4   5  357.76   14.50
   5  -4   5  386.26   14.80
   5   4   5  380.46   14.80
  -5   4  -5  383.66   14.10
   5   4   5  381.06   14.60
   6  -4   5   55.69    5.00
   6  -4   5   57.29    4.60
   6   4   5   56.29    4.60
  -6   4  -5   59.89    4.20
   6   4   5   51.29    4.80
   7  -4   5  152.88    8.20
   7  -4   5  127.19    8.30
   7   4   5  150.18    8.00
   7   4   5  145.19    7.80
   8  -4   5   58.59    5.60
   8   4   5   59.09    5.30
   9  -4   5    6.60    3.20
   9   4   5   10.30    3.00
  10  -4   5    1.00    3.00
  10   4   5    6.50    2.60
  10  -5  -5   61.19    7.40
  10   5  -5   74.69    6.70
   9  -5  -5  248.68   12.90
   9   5  -5  244.48   12.40
   8  -5  -5   42.20    5.60
   8   5  -5   46.40    5.00
   7  -5  -5 1031.10   36.60
   7   5  -5  984.60   36.20
   6  -5  -5   11.10    3.00
   6   5  -5    7.60    2.50
   5  -5  -5  771.72   27.90
   5   5  -5  775.52   28.00
   4  -5  -5  451.15   17.10
  -4  -5   5  444.76   17.10
  -4   5   5  471.95   17.10
   4   5  -5  433.96   17.20
   3  -5  -5  609.04   21.90
  -3  -5   5  600.54   21.80
  -3   5   5  599.34   21.80
   3   5  -5  616.24   22.20
  -2  -5   5 2309.07   75.59
   2  -5  -5 2248.48   76.19
  -2   5   5 2369.36   76.19
   2   5  -5 2297.77   76.49
  -2   5   5 2294.57   76.39
  -1  -5   5   12.60    2.40
  -1   5   5   11.60    2.30
   1   5  -5   20.20    2.70
  -1   5   5   20.40    2.60
   0  -5   5 2928.51   93.79
   0   5   5 2882.81   94.39
   0   5  -5 2709.63   94.69
   0   5   5 3001.50   94.79
   1  -5   5  183.18    8.30
   1   5   5  199.48    8.40
   1   5   5  184.78    8.20
  -1   5  -5  179.68    8.10
   2  -5   5 1789.22   57.99
   2  -5   5 1630.64   56.99
   2   5   5 1781.32   58.19
  -2   5  -5 1760.02   58.29
   2   5   5 1795.42   58.49
   3  -5   5  712.33   25.50
   3  -5   5  761.22   26.60
   3   5   5  764.02   26.50
  -3   5  -5  764.62   26.40
   3   5   5  785.22   26.80
   4  -5   5  378.86   14.10
   4  -5   5  373.16   14.90
   4   5   5  393.06   15.00
  -4   5  -5  382.26   14.50
   4   5   5  387.96   14.80
   5  -5   5  142.79    7.20
   5  -5   5  155.08    7.90
   5   5   5  145.59    7.70
   5   5   5  147.19    7.50
  -5   5  -5  145.29    7.10
   6  -5   5   49.00    5.40
   6  -5   5   58.39    4.70
   6   5   5   53.59    5.10
   6   5   5   53.79    5.00
  -6   5  -5   57.99    4.50
   7  -5   5  138.29    8.10
   7  -5   5  124.69    7.70
   7   5   5  136.89    7.60
   7   5   5  138.09    7.60
   8  -5   5  216.28   10.70
   8   5   5  211.28   10.40
   9  -5   5   -0.40    2.60
   9   5   5    0.20    2.40
  10   5   5  340.27   15.30
  10  -6  -5   36.60    5.70
  10   6  -5   35.80    5.40
   9  -6  -5  153.68    9.90
   9   6  -5  145.49    9.10
   8  -6  -5   32.90    4.80
   8   6  -5   32.30    4.60
   7  -6  -5  224.68   11.30
   7   6  -5  216.38   10.80
   6  -6  -5   64.69    5.70
   6   6  -5   66.79    5.40
   5  -6  -5  399.66   16.30
  -5  -6   5  401.76   16.40
  -5   6   5  416.66   16.10
   5   6  -5  398.86   16.20
   4  -6  -5  206.48    9.50
  -4  -6   5  182.58    9.40
   4   6  -5  207.08    9.60
  -4   6   5  189.38    9.20
  -3  -6   5   60.49    5.30
  -3   6   5   61.89    5.00
   3   6  -5   69.89    5.30
  -3   6   5   67.59    5.10
  -2  -6   5  751.42   26.20
  -2   6   5  750.62   26.10
  -2   6   5  715.83   26.30
   2   6  -5  725.53   26.50
  -1  -6   5    2.50    2.10
  -1   6   5    3.10    1.90
   1   6  -5    3.70    2.10
  -1   6   5    0.60    1.70
   0  -6   5  825.12   28.60
   0   6  -5  791.32   28.70
   0   6   5  823.02   28.80
   0   6   5  817.52   28.30
   1  -6   5  680.63   25.00
   1   6   5  708.83   25.30
   1   6   5  724.93   24.80
  -1   6  -5  705.93   25.20
   2  -6   5  532.25   20.00
   2   6   5  534.75   20.00
  -2   6  -5  542.95   20.00
   2   6   5  551.44   19.60
   3  -6   5  588.74   21.70
  -3   6  -5  585.34   21.60
   3   6   5  608.24   21.50
   3   6   5  593.54   21.90
   4  -6   5  183.58    9.00
   4   6   5  183.98    9.10
  -4   6  -5  190.68    8.70
   4   6   5  193.18    9.00
   5  -6   5 1254.17   44.00
  -5   6  -5 1285.97   44.20
   5   6   5 1296.17   44.80
   5   6   5 1331.67   44.40
   6  -6   5   33.60    4.90
   6   6   5   35.10    4.70
  -6   6  -5   39.10    4.20
   6   6   5   41.90    4.80
   7  -6   5  374.86   16.00
   7   6   5  393.66   16.00
   7   6   5  411.26   16.40
   8  -6   5    1.20    3.00
   8   6   5    3.40    2.30
   9   6   5  223.78   11.40
   9  -7  -5    9.10    3.70
   9   7  -5    3.70    2.80
   8  -7  -5   98.39    7.90
   8   7  -5   96.29    7.10
  -7  -7   5   20.10    4.00
   7  -7  -5   26.80    4.20
   7   7  -5   13.50    3.10
  -7   7   5   15.20    3.20
   6  -7  -5  127.39    8.00
  -6  -7   5  127.39    8.20
   6   7  -5  126.69    7.70
  -6   7   5  140.99    8.00
   5  -7  -5   10.70    3.00
  -5  -7   5    9.90    3.20
   5   7  -5    9.30    2.70
  -5   7   5   10.70    2.80
  -5   7   5   10.90    2.60
  -4  -7   5  171.88    9.10
  -4   7   5  179.98    8.80
  -4   7   5  168.78    8.80
   4   7  -5  178.88    9.10
  -3  -7   5   46.20    5.20
  -3   7   5   55.39    5.10
  -3   7   5   56.39    4.90
   3   7  -5   60.09    5.30
  -2  -7   5   46.70    5.20
  -2   7   5   38.90    4.40
  -2   7   5   41.80    4.60
   2   7  -5   38.10    4.60
  -1  -7   5  160.78    8.40
   1   7  -5  160.68    8.30
  -1   7   5  158.78    7.80
  -1   7   5  153.28    8.10
   0  -7   5   36.10    4.60
   0   7   5   23.80    2.90
   0   7   5   28.80    4.20
   1  -7   5   98.29    6.30
  -1   7  -5   98.29    6.20
   1   7   5   92.99    6.30
   1   7   5   96.79    5.90
   2  -7   5   19.30    3.30
   2   7   5   13.70    2.90
   2   7   5   20.80    2.80
  -2   7  -5   14.30    2.80
   3  -7   5   70.19    6.00
   3   7   5   68.29    5.70
   3   7   5   78.49    5.40
  -3   7  -5   63.39    5.20
   4  -7   5   28.90    4.20
  -4   7  -5   26.60    4.00
   4   7   5   21.90    3.50
   4   7   5   23.50    3.10
   5  -7   5    8.80    3.00
  -5   7  -5    5.60    2.10
   5   7   5    5.10    2.20
   5   7   5    2.30    2.60
   6   7   5   -0.30    2.40
   6   7   5    0.10    2.00
  -6   7  -5    1.20    2.00
   7  -7   5   19.00    3.60
   7   7   5   13.80    2.90
   7   7   5   16.20    3.40
  -8  -8   5   10.20    4.00
   8  -8  -5    6.70    3.50
  -8   8   5   11.10    3.50
   8   8  -5   10.10    3.10
  -7  -8   5  122.09    8.40
   7   8  -5   94.19    7.00
  -7   8   5   93.29    7.40
  -6  -8   5   13.20    3.70
   6   8  -5    5.70    2.70
  -6   8   5    6.40    2.80
  -5  -8   5  281.67   12.90
  -5   8   5  281.37   12.80
   5   8  -5  248.88   12.30
  -4  -8   5  139.19    8.60
  -4   8   5  155.28    8.50
   4   8  -5  151.58    8.60
  -3  -8   5  260.37   12.10
   3   8  -5  268.97   12.30
  -3   8   5  254.67   11.90
  -2  -8   5  230.98   11.10
  -2   8   5  221.88   10.90
   2   8  -5  241.98   11.10
  -1  -8   5   74.69    6.10
  -1   8   5   74.99    5.80
   1   8  -5   74.39    6.00
   0  -8   5  141.29    8.30
   0   8   5  155.98    8.40
   0   8  -5  145.89    8.30
   1  -8   5   20.60    3.50
   1   8   5   17.60    3.30
  -1   8  -5   20.60    3.50
   2  -8   5   10.70    3.40
   2   8   5   14.90    3.20
  -2   8  -5   16.60    3.20
   3  -8   5  250.17   11.60
   3   8   5  254.37   11.80
  -3   8  -5  236.28   11.40
   4  -8   5   19.20    3.80
   4   8   5   18.70    3.60
  -4   8  -5   17.90    3.20
   5  -8   5  261.17   12.20
   5   8   5  275.27   12.90
  -5   8  -5  271.57   12.30
   6  -8   5   42.50    5.70
   6   8   5   48.70    5.50
  -7  -9   5  157.48   10.00
  -7   9   5  140.29    9.10
   7   9  -5  132.99    8.70
  -6  -9   5   24.00    4.60
  -6   9   5   18.40    3.80
   6   9  -5   18.70    3.70
  -5  -9   5  190.18   10.50
  -5   9   5  181.98   10.00
   5   9  -5  169.58    9.80
  -4  -9   5  143.39    9.00
   4   9  -5  142.79    8.70
  -4   9   5  140.59    8.50
  -3  -9   5   79.59    6.80
   3   9  -5   72.39    6.40
  -3   9   5   78.89    6.30
  -2  -9   5  399.76   16.60
  -2   9   5  376.06   16.40
   2   9  -5  385.76   16.60
  -1  -9   5    6.40    3.40
  -1   9   5    1.80    2.40
   1   9  -5    2.20    2.60
   0  -9   5  451.25   18.20
   0   9   5  432.36   18.30
   0   9  -5  440.66   18.40
   1  -9   5   13.10    3.50
  -1   9  -5   12.90    3.30
   1   9   5   16.50    3.50
   2  -9   5  306.77   13.90
   2   9   5  303.77   14.10
  -2   9  -5  315.97   14.10
   3  -9   5   84.69    7.00
  -3   9  -5   86.39    6.60
   3   9   5   78.29    6.70
   4  -9   5   47.90    5.90
   4   9   5   53.39    6.10
  -4   9  -5   64.49    5.90
  -5   9  -5   61.59    5.80
   5   9   5   61.79    6.40
   6   9   5    1.90    3.00
  -5 -10   5    6.90    3.90
   5  10  -5    5.10    3.10
  -5  10   5    7.00    3.00
  -4 -10   5    6.80    3.60
  -4  10   5   11.00    3.30
   4  10  -5    4.50    3.10
  -3 -10   5   -1.50    3.40
   3  10  -5    4.50    3.30
  -3  10   5    1.60    2.60
  -2 -10   5   22.40    4.30
  -2  10   5   17.10    3.70
   2  10  -5   18.50    3.90
  -1 -10   5   29.50    4.80
  -1  10   5   32.70    4.90
   1  10  -5   33.30    4.90
   0 -10   5   48.60    6.10
   0  10   5   48.70    5.70
   0  10  -5   57.59    6.10
   1 -10   5   36.80    5.00
   1  10   5   34.60    5.30
  -1  10  -5   34.80    5.40
   2 -10   5   95.69    7.70
   2  10   5   96.39    7.80
  -2  10  -5  107.89    7.80
  -3  10  -5   86.79    7.30
   3  10   5   80.19    7.20
  -4  10  -5   80.49    7.00
   4  10   5   80.39    7.30
  -2 -11   5    1.40    3.70
  -2  11   5    3.00    2.80
   2  11  -5   -1.10    3.00
  -1 -11   5   21.30    4.60
  -1  11   5   19.50    4.10
   1  11  -5   25.60    4.80
   0 -11   5   59.19    6.80
   0  11  -5   47.10    6.30
   0  11   5   51.59    6.20
   1  11   5   67.29    6.90
  -1  11  -5   60.29    6.80
  11   0  -6   -3.20    2.80
  10   0  -6  326.17   15.50
   9   0  -6    3.90    3.10
   8   0  -6  135.19    8.00
   7   0  -6   84.99    6.60
   6   0  -6  483.75   18.40
   5   0  -6  354.56   13.90
   4   0  -6 2437.46   80.29
  -3   0   6  351.96   12.30
   3   0  -6  349.37   12.80
   2   0  -6 8476.25  291.97
  -2   0   6 8922.31  286.67
  -2   0   6 9160.58  295.27
   1   0  -6    7.80    1.40
  -1   0   6    6.00    1.10
   0   0   6 5935.01  199.08
   0   0   6 6778.92  205.78
   0   0  -6 5642.94  199.88
   1   0   6  420.86   14.90
   1   0   6  443.66   15.40
   2   0   6 4030.80  127.09
   2   0   6 3774.32  125.39
   3   0   6 2469.25   81.09
   3   0   6 2532.15   82.29
   4   0   6  405.36   13.60
   4   0   6  412.66   15.40
   4   0   6  409.66   15.00
   5   0   6 2235.98   71.89
   5   0   6 2077.19   70.09
   6   0   6   10.50    2.40
   7   0   6 1106.59   38.90
   8   0   6  193.68    9.80
   9   0   6  205.18   10.70
  10   0   6   86.39    7.00
  11   0   6    2.50    2.90
  11  -1  -6   72.69    7.50
  11   1  -6   76.49    7.30
  10  -1  -6    1.70    3.20
  10   1  -6   -0.60    3.00
   9  -1  -6  480.45   20.30
   9   1  -6  500.35   20.50
   8  -1  -6   -0.90    2.20
   8   1  -6   -0.90    1.90
   7  -1  -6 1061.59   37.50
   7   1  -6 1053.79   37.50
   6  -1  -6   15.00    2.50
   6   1  -6   18.20    2.70
   5  -1  -6 1561.64   52.19
   5   1  -6 1529.75   52.09
   4  -1  -6  197.58    8.40
   4   1  -6  196.58    8.40
   3  -1  -6  803.82   28.30
  -3  -1   6  857.21   27.90
  -3   1   6  838.12   27.20
   3   1  -6  828.72   28.40
  -2  -1   6  964.10   31.60
   2  -1  -6  923.11   31.50
  -2  -1   6  974.30   31.20
  -2   1   6  993.50   32.00
   2   1  -6  897.01   31.50
  -2   1   6  904.61   30.50
   1  -1  -6   42.40    2.50
  -1  -1   6   46.40    2.90
  -1  -1   6   48.90    3.10
  -1   1   6   48.00    3.30
   0  -1   6  570.94   19.70
   0  -1   6  606.84   20.00
   0  -1  -6  566.74   19.40
   0   1   6  598.24   20.20
   0   1   6  561.84   19.30
   1  -1   6  738.03   24.80
   1  -1   6  720.13   24.60
   1   1   6  719.03   25.00
   1   1   6  734.83   24.20
   1   1   6  737.43   24.00
   2  -1   6 1110.69   38.90
   2  -1   6 1171.58   38.50
   2   1   6 1178.08   39.00
   2   1   6 1192.78   38.30
   3  -1   6  856.91   29.20
   3  -1   6  851.21   28.80
   3   1   6  841.62   29.20
   4  -1   6   15.80    2.30
   4  -1   6   16.40    1.50
   4  -1   6   17.30    2.40
   4   1   6   10.90    2.10
   4   1   6   15.40    1.80
   5  -1   6  971.00   32.70
   5  -1   6  996.80   33.90
   5  -1   6 1002.70   34.40
   5   1   6  995.30   34.40
   6  -1   6    0.50    1.70
   6   1   6   -1.30    1.80
   7  -1   6  286.47   12.70
   7   1   6  291.87   12.50
   8  -1   6  217.28   10.60
   8   1   6  214.58   10.50
   9  -1   6   45.60    5.70
   9   1   6   52.29    5.70
  10  -1   6  129.29    8.60
  10   1   6  123.19    8.20
  11  -1   6    6.10    3.20
  11   1   6    3.90    3.00
  11  -2  -6    5.00    3.50
  11   2  -6    9.00    3.80
  10  -2  -6   18.30    4.40
  10   2  -6   17.20    4.00
   9  -2  -6    1.70    3.00
   9   2  -6   -1.90    3.00
   8  -2  -6   38.90    5.00
   8   2  -6   52.99    5.10
   7  -2  -6    7.90    2.80
   7   2  -6   -0.80    2.30
   6  -2  -6    7.30    2.10
   6   2  -6    5.00    1.90
   5  -2  -6   91.19    5.70
   5   2  -6   92.59    5.70
   4  -2  -6   65.99    4.30
   4   2  -6   65.39    4.60
   3  -2  -6   55.99    3.60
  -3  -2   6   42.50    3.80
  -3   2   6   46.50    4.00
  -2  -2   6  340.57   12.40
  -2  -2   6  340.87   12.20
   2  -2  -6  335.07   12.30
  -2   2   6  343.87   12.70
   2   2  -6  332.17   12.40
  -1  -2   6  337.87   12.30
   1  -2  -6  326.87   12.20
  -1  -2   6  344.17   12.30
   1   2  -6  339.57   12.30
  -1   2   6  362.46   12.90
   0  -2  -6  163.98    6.10
   0  -2   6  144.39    6.10
   0  -2   6  150.98    6.40
   0   2   6  160.68    6.80
   0   2  -6  148.29    6.10
   1  -2   6   81.39    4.40
   1  -2   6   81.09    4.00
   1   2   6   77.89    4.40
  -1   2  -6   78.19    3.70
   1   2   6   80.69    3.60
   2  -2   6   73.59    4.30
   2  -2   6   74.09    4.10
   2   2   6   68.99    4.30
  -2   2  -6   70.19    3.30
   2   2   6   68.49    3.50
   3  -2   6    4.70    1.70
   3  -2   6    7.00    1.70
   3   2   6    3.50    1.50
   3   2   6    5.70    1.30
   4  -2   6   17.20    2.50
   4  -2   6   13.30    2.20
  -4   2  -6   20.00    2.00
   4   2   6   28.30    3.50
   5  -2   6  148.59    7.80
   5  -2   6  163.38    8.00
   5   2   6  161.68    7.80
   6  -2   6   35.50    4.10
   6  -2   6   31.40    4.50
   6   2   6   34.80    4.20
   7  -2   6    8.30    3.00
   7   2   6   15.80    2.90
   8  -2   6   29.40    4.40
   8   2   6   17.50    3.10
   9  -2   6    2.40    3.00
   9   2   6    4.40    2.80
  10  -2   6   18.10    3.90
  10   2   6   16.30    3.30
  11  -2   6    0.00    2.80
  11   2   6   -0.40    2.60
  11  -3  -6   88.59    8.20
  11   3  -6   72.19    7.50
  10  -3  -6   -1.70    3.20
  10   3  -6   10.80    3.40
   9  -3  -6  507.05   21.20
   9   3  -6  507.85   21.00
   8  -3  -6   15.60    3.50
   8   3  -6   20.30    3.40
   7  -3  -6 1648.64   56.89
   7   3  -6 1662.33   56.99
   6  -3  -6   -1.90    1.70
   6   3  -6    3.30    1.90
   5  -3  -6 2149.08   72.19
   5   3  -6 2171.78   72.29
   4  -3  -6   92.49    5.40
  -4  -3   6   95.69    5.60
   4   3  -6   90.69    5.50
   3  -3  -6 1076.49   37.10
  -3  -3   6 1099.09   36.70
   3   3  -6 1101.39   37.30
  -3   3   6 1096.69   37.30
  -2  -3   6  825.42   27.50
   2  -3  -6  782.52   27.60
  -2  -3   6  834.42   27.00
   2   3  -6  789.02   27.70
  -2   3   6  797.12   27.80
  -1  -3   6    8.40    1.20
   1  -3  -6    8.20    1.40
  -1   3   6    4.30    1.60
   0  -3   6 1873.31   63.69
   0  -3   6 1967.60   63.79
   0   3   6 2014.00   64.69
   0   3   6 1980.10   64.19
   0   3  -6 1940.41   64.29
   1  -3   6 1043.30   34.80
   1  -3   6 1047.70   35.20
  -1   3  -6  995.60   34.90
   1   3   6 1059.19   35.50
   1   3   6 1093.19   35.00
   2  -3   6  993.60   34.20
   2  -3   6 1044.20   34.50
   2   3   6 1035.00   34.80
   2   3   6 1024.20   34.10
  -2   3  -6 1009.00   34.00
   3  -3   6 1876.51   60.69
   3  -3   6 1833.92   60.89
   3   3   6 1884.61   61.29
   3   3   6 1788.92   60.69
  -3   3  -6 1821.22   60.29
   4  -3   6  230.28   10.20
   4  -3   6  248.88    9.90
   4   3   6  242.38   10.20
   4   3   6  244.08    9.70
  -4   3  -6  234.78    9.00
   5  -3   6 1324.27   44.40
   5  -3   6 1345.47   44.10
  -5   3  -6 1302.17   43.20
   5   3   6 1286.27   44.40
   5   3   6 1245.58   43.60
   6  -3   6   32.30    3.90
   6  -3   6   33.90    3.90
   6   3   6   36.80    4.20
   6   3   6   24.00    3.30
   7  -3   6  350.56   15.10
   7  -3   6  357.16   14.80
   7   3   6  367.56   14.80
   8  -3   6  241.58   11.70
   8   3   6  242.88   11.40
   9  -3   6   55.19    6.30
   9   3   6   62.09    6.00
  10  -3   6  215.18   12.20
  10   3   6  228.18   11.50
  10  -4  -6  164.48   11.00
  10   4  -6  192.48   10.70
   9  -4  -6    9.80    3.70
   9   4  -6    6.20    3.20
   8  -4  -6    4.60    2.90
   8   4  -6    8.30    2.70
   7  -4  -6   76.59    6.50
   7   4  -6   74.29    6.10
   6  -4  -6  106.69    6.90
   6   4  -6  108.49    6.70
   5  -4  -6   96.49    6.30
   5   4  -6   90.79    6.00
  -4  -4   6 1843.12   61.69
   4  -4  -6 1847.82   62.49
   4   4  -6 1916.01   62.69
  -4   4   6 1848.22   62.49
   3  -4  -6  110.19    5.90
  -3  -4   6  104.99    6.10
  -3  -4   6  107.09    4.80
  -3   4   6  103.09    6.00
   3   4  -6  115.19    6.10
   2  -4  -6 2792.22   91.69
  -2  -4   6 2822.72   90.89
   2   4  -6 2728.43   91.89
  -2   4   6 2817.82   91.79
   1  -4  -6   25.80    2.90
  -1  -4   6   22.10    2.70
  -1   4   6   20.20    2.70
  -1   4   6   24.90    3.10
   1   4  -6   26.00    3.30
   0  -4   6 4320.37  137.39
   0   4  -6 3874.11  138.59
   0   4   6 4418.86  138.69
   0   4   6 4415.76  138.89
   1  -4   6  388.96   14.70
   1  -4   6  395.56   13.60
  -1   4  -6  384.96   14.40
   1   4   6  390.46   14.80
   1   4   6  419.36   14.50
   2  -4   6 1595.84   52.09
   2  -4   6 1519.25   51.49
  -2   4  -6 1537.85   51.99
   2   4   6 1619.14   52.19
   2   4   6 1572.34   52.49
   3  -4   6 1246.78   42.00
   3  -4   6 1243.18   42.30
   3   4   6 1227.28   42.40
   3   4   6 1284.27   42.70
  -3   4  -6 1289.67   42.10
   4  -4   6  431.56   16.00
   4  -4   6  434.16   16.50
   4   4   6  441.06   16.20
   4   4   6  435.86   16.60
  -4   4  -6  429.76   15.70
   5  -4   6  983.60   33.90
   5  -4   6  982.50   33.80
   5   4   6  982.70   34.10
  -5   4  -6  928.21   33.10
   5   4   6 1000.40   33.70
   6  -4   6   -1.60    2.40
   6   4   6   -0.40    1.80
   6   4   6    0.00    2.00
   7  -4   6  674.53   25.00
   7  -4   6  676.33   25.30
   7   4   6  677.03   25.00
   8  -4   6   39.80    5.10
   8   4   6   41.20    4.90
   9  -4   6   85.09    7.30
   9   4   6   93.69    6.90
  10  -4   6   64.59    7.10
  10   4   6   72.79    6.50
  10  -5  -6    0.30    3.40
  10   5  -6    5.90    3.00
   9  -5  -6  120.39    8.80
   9   5  -6  109.49    8.00
   8  -5  -6   54.09    6.00
   8   5  -6   59.59    5.60
   7  -5  -6  104.79    7.40
   7   5  -6   81.29    6.30
   6  -5  -6   97.59    6.80
   6   5  -6   91.29    6.30
   5  -5  -6  213.18    9.60
  -5  -5   6  176.48    9.20
   5   5  -6  186.68    9.20
  -5   5   6  179.78    9.20
  -4  -5   6  230.78   10.30
   4  -5  -6  229.28   10.20
   4   5  -6  229.98   10.30
  -4   5   6  229.18   10.30
   3  -5  -6   19.30    2.70
  -3  -5   6   17.20    2.80
  -3   5   6   15.80    2.40
   3   5  -6   16.70    2.80
   2  -5  -6  112.39    6.10
  -2  -5   6  106.39    6.40
   2   5  -6  110.79    6.30
  -2   5   6  111.29    6.20
  -2   5   6  112.39    6.30
  -1  -5   6  137.59    7.00
  -1   5   6  133.79    6.60
   1   5  -6  130.79    6.70
  -1   5   6  125.79    6.70
   0  -5   6   58.09    4.80
   0   5  -6   54.69    4.60
   0   5   6   60.29    4.50
   0   5   6   73.09    4.90
   1  -5   6    6.40    2.10
   1   5   6   12.60    2.20
  -1   5  -6    7.70    2.00
   1   5   6    8.10    2.10
   2  -5   6    7.50    2.40
   2   5   6    5.70    1.90
  -2   5  -6   11.10    2.10
   2   5   6    6.60    2.00
   3  -5   6    5.60    2.50
  -3   5  -6    5.20    1.70
   3   5   6    5.40    2.00
   4  -5   6    5.30    1.70
   4  -5   6    6.30    2.70
  -4   5  -6    8.90    1.90
   4   5   6    6.80    2.40
   5  -5   6  123.39    6.40
   5  -5   6  118.49    7.10
  -5   5  -6  111.89    6.10
   5   5   6  102.69    6.70
   5   5   6  107.89    6.70
   6  -5   6   -2.30    2.70
   6  -5   6    1.10    1.80
   6   5   6    4.30    2.40
   6   5   6    0.90    2.20
   7  -5   6   95.79    7.10
   7  -5   6   93.99    6.80
   7   5   6   98.49    6.60
   8  -5   6   17.80    3.50
   8   5   6   18.90    3.30
   9  -5   6   61.29    6.40
   9   5   6   64.49    6.10
   9  -6  -6    8.30    3.70
   9   6  -6    5.30    3.00
   8  -6  -6   35.30    4.90
   8   6  -6   38.40    4.80
   7  -6  -6   35.10    5.30
   7   6  -6   36.90    4.60
   6  -6  -6   -1.20    2.40
  -6  -6   6   -0.10    2.50
  -6   6   6   -0.10    2.10
   6   6  -6    1.40    2.00
  -5  -6   6  103.59    6.90
   5  -6  -6   91.89    6.40
   5   6  -6   89.29    6.20
  -5   6   6   96.99    6.70
  -4  -6   6  239.98   11.30
   4  -6  -6  261.57   11.50
   4   6  -6  254.47   11.40
  -4   6   6  255.47   11.20
   3  -6  -6  375.46   14.90
  -3  -6   6  367.86   15.00
  -3   6   6  373.36   14.90
   3   6  -6  380.76   15.10
  -3   6   6  365.76   14.90
  -2  -6   6  606.64   22.20
   2   6  -6  614.14   22.50
  -2   6   6  597.84   22.10
  -2   6   6  604.94   22.30
  -1  -6   6   94.29    6.30
  -1   6   6   93.99    5.90
  -1   6   6   96.69    5.90
   1   6  -6  101.39    6.10
   0  -6   6  637.14   22.50
   0   6   6  654.43   22.60
   0   6   6  606.44   22.20
   0   6  -6  567.14   22.30
   1  -6   6   19.50    3.00
   1   6   6   20.10    2.90
   1   6   6   19.20    2.70
  -1   6  -6   19.50    2.90
   2  -6   6  101.49    6.50
   2   6   6  100.59    6.10
   2   6   6  100.89    6.00
  -2   6  -6  102.59    6.00
   3  -6   6  149.99    8.20
   3   6   6  163.08    7.80
  -3   6  -6  146.89    7.50
   3   6   6  145.39    7.70
   4  -6   6    6.80    2.90
  -4   6  -6    8.40    2.20
   4   6   6    8.40    2.60
   4   6   6   10.80    2.80
   5  -6   6  164.08    8.80
  -5   6  -6  148.69    7.70
   5   6   6  164.38    8.60
   5   6   6  155.78    8.30
   6  -6   6  115.79    7.50
   6   6   6  125.39    7.40
   6   6   6  116.89    7.20
   7  -6   6  120.49    8.00
   7   6   6  133.49    7.80
   8  -6   6   90.49    6.90
   8   6   6   85.99    6.60
   9   6   6    6.20    2.80
   9  -7  -6  271.77   14.40
  -9  -7   6  300.37   14.30
   9   7  -6  256.47   13.30
  -8  -7   6   14.70    4.20
   8  -7  -6    1.70    3.20
   8   7  -6   11.50    3.20
  -8   7   6    7.20    3.10
  -7  -7   6  564.84   22.00
   7  -7  -6  532.65   21.90
   7   7  -6  505.65   21.40
  -7   7   6  572.74   21.70
   6  -7  -6    6.20    3.00
  -6  -7   6    5.60    3.20
   6   7  -6    7.90    2.70
  -6   7   6    6.50    2.60
   5  -7  -6  727.93   26.70
  -5  -7   6  679.13   26.30
   5   7  -6  681.23   26.30
  -5   7   6  741.63   26.40
  -5   7   6  716.83   26.60
  -4  -7   6   35.70    4.90
   4   7  -6   40.20    4.60
  -4   7   6   39.80    4.80
  -4   7   6   36.00    4.50
  -3  -7   6  364.06   14.90
   3   7  -6  350.06   14.80
  -3   7   6  350.76   14.80
  -3   7   6  362.06   14.50
  -2  -7   6  366.16   14.90
  -2   7   6  349.37   14.80
   2   7  -6  364.76   15.00
  -2   7   6  367.46   14.50
  -1  -7   6   -0.10    2.30
  -1   7   6    1.30    1.90
   1   7  -6    6.20    2.50
  -1   7   6   -3.30    1.70
   0  -7   6  413.76   16.30
   0   7  -6  389.76   16.20
   0   7   6  417.76   16.40
   0   7   6  414.46   15.80
   1  -7   6  178.88    9.30
  -1   7  -6  195.08    9.30
   1   7   6  201.68    9.10
   1   7   6  202.08    9.50
   2  -7   6  403.86   15.50
   2   7   6  360.06   15.20
   2   7   6  366.06   14.80
  -2   7  -6  365.46   15.10
   3  -7   6  722.33   26.20
   3   7   6  731.83   25.80
   3   7   6  687.13   26.30
  -3   7  -6  721.53   26.10
   4  -7   6   50.89    5.50
   4   7   6   52.49    5.30
   4   7   6   52.39    5.20
  -4   7  -6   50.29    4.70
   5  -7   6  412.46   17.30
   5   7   6  451.35   17.30
   5   7   6  430.76   17.70
  -5   7  -6  444.36   17.20
   6  -7   6    4.30    3.40
   6   7   6    9.00    2.70
   6   7   6   10.00    3.10
   7  -7   6  216.98   11.20
   7   7   6  235.08   11.10
   8  -7   6   78.49    7.00
   8   7   6   89.59    6.80
  -8  -8   6    0.00    3.60
   8  -8  -6    2.60    3.30
   8   8  -6    3.80    2.60
  -8   8   6    4.30    3.10
  -8   8   6    2.40    2.70
  -7  -8   6   17.80    4.30
   7  -8  -6   19.30    4.10
   7   8  -6   13.10    3.20
  -7   8   6   13.30    3.30
  -7   8   6   14.50    3.50
  -6  -8   6   37.60    5.50
   6   8  -6   28.10    4.20
  -6   8   6   44.20    5.30
  -6   8   6   31.80    4.90
  -5  -8   6   10.60    3.50
  -5   8   6   10.00    2.90
  -5   8   6    7.10    2.60
   5   8  -6    5.40    2.70
  -4  -8   6  203.28   10.90
   4   8  -6  211.68   10.70
  -4   8   6  217.08   10.80
  -4   8   6  238.28   10.80
  -3  -8   6    9.20    3.30
   3   8  -6   15.30    3.30
  -3   8   6   11.40    2.90
  -3   8   6   10.10    2.90
  -2  -8   6  330.47   14.20
  -2   8   6  300.47   13.70
  -2   8   6  310.27   13.20
   2   8  -6  327.67   14.00
  -1  -8   6   59.59    5.80
  -1   8   6   59.69    5.30
   1   8  -6   65.39    5.70
  -1   8   6   56.59    5.30
   0  -8   6  485.45   18.80
   0   8  -6  465.45   18.80
   0   8   6  467.45   18.80
   1  -8   6  153.78    8.60
   1   8   6  150.58    8.50
  -1   8  -6  156.58    8.60
   2  -8   6  334.07   14.40
   2   8   6  322.17   14.30
  -2   8  -6  337.47   14.30
   3  -8   6  174.98    9.50
  -3   8  -6  166.38    9.00
   3   8   6  163.38    9.20
   4  -8   6  161.18    9.30
   4   8   6  163.18    9.30
  -4   8  -6  170.68    9.10
   5  -8   6  134.89    8.50
   5   8   6  143.69    8.80
   6  -8   6   18.10    4.10
   6   8   6   31.60    4.50
  -6  -9   6   72.79    7.10
   6   9  -6   71.59    6.30
  -6   9   6   65.09    6.30
  -5  -9   6   15.10    4.00
   5   9  -6   11.70    3.30
  -5   9   6    9.80    3.20
  -4  -9   6   49.10    6.20
  -4   9   6   48.30    5.30
   4   9  -6   52.19    5.60
  -3  -9   6    2.00    3.30
   3   9  -6    0.40    2.50
  -3   9   6    0.10    2.30
  -2  -9   6    9.90    3.40
  -2   9   6    2.30    2.40
   2   9  -6    1.90    2.90
  -1  -9   6   13.50    3.80
   1   9  -6   11.30    3.60
  -1   9   6   10.50    3.10
   0  -9   6   13.70    3.70
   0   9  -6    8.40    3.30
   0   9   6    7.10    2.80
   1  -9   6   53.39    6.10
  -1   9  -6   60.59    5.90
   1   9   6   51.39    5.60
   2  -9   6   52.89    6.20
   2   9   6   51.89    5.70
  -2   9  -6   49.20    5.60
   3  -9   6   41.00    5.90
  -3   9  -6   41.00    5.40
   3   9   6   35.80    5.40
   4  -9   6    8.00    3.70
  -4   9  -6   12.90    3.30
   4   9   6    7.80    3.30
   5  -9   6    5.80    3.40
   5   9   6    0.70    3.00
   5  10  -6   31.10    4.70
  -5  10   6   34.80    5.10
  -4 -10   6   75.29    7.40
  -4  10   6   72.89    6.70
   4  10  -6   72.39    6.70
  -3 -10   6   90.19    7.80
   3  10  -6   78.69    7.00
  -3  10   6   79.99    6.80
  -2 -10   6  184.38   10.70
   2  10  -6  185.38   10.50
  -2  10   6  173.08   10.10
  -1 -10   6    9.10    3.90
   1  10  -6   13.20    4.10
  -1  10   6   11.90    3.30
   0 -10   6  151.58    9.40
   0  10  -6  151.68    9.50
   0  10   6  146.49    9.20
   1 -10   6    3.30    3.70
  -1  10  -6    6.30    3.50
   1  10   6    1.80    2.90
   2 -10   6   56.99    6.80
   2  10   6   59.99    6.40
  -2  10  -6   55.79    6.20
   3 -10   6   41.00    6.30
   3  10   6   51.79    6.20
  -3  10  -6   44.60    5.90
  -4  10  -6    2.90    2.90
   4  10   6   -0.60    3.00
  11   0  -7    3.10    3.30
  10   0  -7    5.40    3.50
   9   0  -7    1.80    3.00
   8   0  -7   -1.60    2.00
   7   0  -7   -1.00    2.30
   6   0  -7   -0.10    1.50
   5   0  -7    3.10    1.90
  -4   0   7    4.10    1.50
   4   0  -7    4.00    1.40
   3   0  -7   -0.30    1.00
  -3   0   7   -3.00    1.20
  -1   0   7   -1.70    1.10
   1   0  -7   -1.60    0.60
  -1   0   7   -1.40    0.90
   1   0   7    1.10    1.20
   1   0   7   -0.20    1.20
   2   0   7    3.80    1.50
   2   0   7    2.10    1.40
   3   0   7    2.70    1.50
   3   0   7    5.50    1.80
   4   0   7   -0.50    1.60
   4   0   7   -1.20    1.80
   5   0   7    7.20    2.20
   6   0   7   -2.10    1.60
   7   0   7    1.70    2.30
   8   0   7    0.40    2.20
   9   0   7   -4.50    2.40
  10   0   7    3.50    2.70
  11  -1  -7   51.19    6.80
  11   1  -7   50.69    6.50
  10  -1  -7   20.30    4.50
  10   1  -7   22.60    4.50
   9  -1  -7  528.75   21.60
   9   1  -7  527.25   21.80
   8  -1  -7   -1.10    2.20
   8   1  -7    1.20    2.00
   7  -1  -7 1238.78   43.40
   7   1  -7 1240.48   43.50
   6  -1  -7    6.60    2.10
   6   1  -7    7.10    2.10
   5  -1  -7 2330.37   77.29
   5   1  -7 2320.77   77.29
  -4  -1   7  185.98    7.90
   4  -1  -7  189.88    8.20
   4   1  -7  185.98    8.20
  -4   1   7  194.48    7.30
  -3  -1   7  865.11   28.70
  -3  -1   7  882.81   29.30
   3  -1  -7  854.61   29.20
  -3   1   7  865.81   29.50
  -3   1   7  831.92   28.00
   3   1  -7  837.12   29.20
   2  -1  -7  125.09    5.50
  -2  -1   7  136.39    5.90
  -2  -1   7  122.69    5.60
  -2   1   7  124.99    6.00
  -2   1   7  123.19    4.90
   2   1  -7  122.09    5.50
   1  -1  -7   44.10    2.60
  -1  -1   7   42.10    3.30
   1   1  -7   38.10    2.50
  -1   1   7   48.70    3.60
   0  -1  -7   35.10    2.20
   0  -1   7   32.50    3.10
   0   1   7   43.20    3.40
   0   1   7   35.60    2.70
   1  -1   7 1404.96   47.20
   1  -1   7 1412.36   47.80
   1   1   7 1439.26   46.90
   1   1   7 1483.55   48.10
   1   1   7 1456.65   46.80
   2  -1   7  437.66   16.30
   2  -1   7  444.86   16.10
   2   1   7  456.05   15.90
   2   1   7  464.75   16.50
   3  -1   7 2361.96   77.39
   3  -1   7 2386.06   78.39
   3   1   7 2368.86   78.39
   4  -1   7    1.10    1.80
   4   1   7    1.50    1.80
   5  -1   7 1873.91   61.99
   5  -1   7 1898.41   62.89
   5   1   7 1840.82   62.79
   6  -1   7    0.50    1.90
   6   1   7   -0.50    2.00
   7  -1   7  720.73   26.30
   7   1   7  693.43   26.10
   8  -1   7  119.39    7.70
   8   1   7  115.59    7.30
   9  -1   7   89.29    7.20
   9   1   7   86.89    6.90
  10  -1   7   84.79    7.20
  10   1   7   91.99    7.20
  11  -2  -7   37.60    5.70
  11   2  -7   41.30    6.30
  10  -2  -7  192.08   11.50
  10   2  -7  207.78   11.40
   9  -2  -7   86.29    7.40
   9   2  -7   83.39    7.40
   8  -2  -7   33.80    4.90
   8   2  -7   39.70    4.70
   7  -2  -7  186.78    9.70
   7   2  -7  171.38    9.40
   6  -2  -7  276.07   11.90
   6   2  -7  279.47   12.00
   5  -2  -7   72.59    5.30
   5   2  -7   79.29    5.40
   4  -2  -7 2818.02   95.09
  -4  -2   7 2954.20   93.89
  -4   2   7 2924.61   92.59
   4   2  -7 2866.71   95.19
   3  -2  -7    1.80    1.20
  -3  -2   7   -0.40    1.50
  -3  -2   7    0.20    1.20
  -3   2   7   -1.90    1.30
   2  -2  -7 5589.34  192.58
  -2  -2   7 6229.08  188.48
  -2  -2   7 5789.02  186.68
   2   2  -7 5609.14  191.68
  -2   2   7 5725.93  188.08
   1  -2  -7   27.80    2.40
  -1  -2   7   23.80    2.40
  -1  -2   7   20.60    2.30
  -1   2   7   17.90    2.40
   0  -2   7 7012.40  225.38
   0  -2  -7 7010.30  230.38
   0  -2   7 7245.27  227.88
   0   2  -7 6363.76  229.78
   0   2   7 7285.27  233.48
   1  -2   7   39.20    2.90
   1  -2   7   36.10    3.50
  -1   2  -7   37.70    2.50
   1   2   7   35.70    3.50
   2  -2   7 3211.68   99.09
   2  -2   7 3078.79   99.89
   2   2   7 3143.39  100.29
  -2   2  -7 3031.60   99.09
   2   2   7 2813.52   99.09
   3  -2   7  308.37   12.20
   3  -2   7  318.77   12.20
   3   2   7  336.47   12.50
  -3   2  -7  306.87   10.70
   3   2   7  295.17   11.10
   4  -2   7  448.96   18.10
   4  -2   7  561.54   18.50
   4   2   7  475.65   18.40
   5  -2   7  447.36   17.00
   5  -2   7  432.86   16.80
   5   2   7  449.16   17.10
   6  -2   7   36.70    4.90
   6  -2   7   38.80    4.30
   6   2   7   43.90    4.50
   7  -2   7  199.18   10.10
   7   2   7  197.48    9.80
   8  -2   7  286.87   13.10
   8   2   7  279.57   12.70
   9  -2   7   52.69    6.00
   9   2   7   51.29    5.70
  10  -2   7  216.78   12.00
  10   2   7  228.78   11.60
  11  -3  -7   63.09    7.50
  11   3  -7   54.29    6.80
  10  -3  -7    3.20    3.50
  10   3  -7    7.40    3.30
   9  -3  -7  204.98   11.30
   9   3  -7  195.48   11.10
   8  -3  -7   28.70    4.30
   8   3  -7   35.90    4.40
   7  -3  -7  418.86   17.40
   7   3  -7  425.86   17.40
   6  -3  -7    1.70    2.00
   6   3  -7   -1.40    1.70
   5  -3  -7  390.26   16.10
  -5  -3   7  419.66   15.90
   5   3  -7  432.96   16.30
   4  -3  -7   31.00    3.70
  -4  -3   7   28.80    4.00
   4   3  -7   24.60    3.70
  -4   3   7   29.30    3.90
   3  -3  -7  178.08    8.30
  -3  -3   7  194.18    7.90
  -3  -3   7  205.48    8.60
   3   3  -7  201.98    8.50
  -3   3   7  189.08    8.70
  -2  -3   7    7.40    1.80
   2  -3  -7    4.60    1.40
  -2   3   7   10.60    2.00
   2   3  -7    2.20    1.50
  -1  -3   7    0.50    1.40
   1  -3  -7    5.50    1.30
  -1  -3   7    0.80    1.00
   1   3  -7    2.10    1.40
  -1   3   7    2.20    1.50
   0  -3   7   11.50    2.00
   0  -3   7    6.90    1.30
   0   3   7    5.70    1.40
   0   3  -7    9.20    1.70
   0   3   7    7.60    1.80
   1  -3   7  244.98   10.10
   1  -3   7  244.38    9.50
   1   3   7  261.37    9.50
   1   3   7  255.77   10.30
  -1   3  -7  244.38    9.40
   2  -3   7    7.00    1.70
   2  -3   7   10.30    2.30
   2   3   7    9.50    2.10
  -2   3  -7   11.70    1.60
   2   3   7   11.60    1.70
   3  -3   7  612.74   21.30
   3  -3   7  601.44   21.00
   3   3   7  563.24   20.50
  -3   3  -7  578.24   20.10
   3   3   7  598.04   21.40
   4  -3   7    2.30    1.80
   4  -3   7    3.30    2.40
   4   3   7    4.70    1.70
   4   3   7    2.40    2.10
   5  -3   7  505.55   19.20
   5  -3   7  519.25   19.30
   5   3   7  507.65   19.40
   6  -3   7   53.79    4.80
   6  -3   7   49.90    5.30
   6   3   7   44.10    4.90
   7  -3   7  335.17   14.90
   7  -3   7  351.26   14.70
   7   3   7  361.86   14.80
   8  -3   7   23.90    3.80
   8   3   7   22.40    3.40
   9  -3   7   68.09    6.80
   9   3   7   67.19    6.10
  10  -3   7   44.80    6.30
  10   3   7   50.79    6.00
  10  -4  -7  101.29    8.80
  10   4  -7  115.59    8.30
   9  -4  -7   19.50    4.40
   9   4  -7   15.00    3.80
   8  -4  -7   35.50    4.70
   8   4  -7   40.90    4.90
   7  -4  -7   12.10    3.30
   7   4  -7   10.00    2.90
   6  -4  -7   37.90    4.70
   6   4  -7   28.50    4.10
   5  -4  -7    8.70    2.40
   5   4  -7    7.50    2.30
  -4  -4   7  317.07   12.90
   4  -4  -7  319.87   12.80
   4   4  -7  306.77   12.80
  -4   4   7  315.17   13.10
  -3  -4   7   77.39    5.70
  -3  -4   7   87.49    4.60
   3  -4  -7   90.99    5.40
   3   4  -7   99.09    5.60
  -3   4   7   90.09    5.90
  -2  -4   7  368.56   14.20
   2  -4  -7  363.66   14.00
  -2  -4   7  371.56   13.20
   2   4  -7  362.66   14.20
  -2   4   7  386.16   14.60
  -1  -4   7  184.88    8.30
   1  -4  -7  191.48    7.90
  -1  -4   7  160.48    6.90
  -1   4   7  178.78    8.00
  -1   4   7  180.88    8.40
   1   4  -7  197.18    8.20
   0  -4   7  961.30   32.60
   0  -4   7  993.90   33.50
   0   4  -7  978.40   33.50
   0   4   7  988.10   33.90
   0   4   7  998.40   33.50
   1  -4   7   86.09    4.30
   1  -4   7   91.99    5.60
  -1   4  -7   80.49    4.90
   1   4   7   94.49    4.90
   1   4   7   87.79    5.50
   2  -4   7  130.09    6.70
   2  -4   7  108.99    5.40
   2   4   7  120.69    6.40
  -2   4  -7  110.99    5.60
   2   4   7  116.49    5.80
   3  -4   7    3.30    1.60
   3  -4   7    8.20    2.40
   3   4   7    5.10    1.80
   3   4   7    6.30    2.10
  -3   4  -7    4.90    1.60
   4  -4   7    3.30    1.80
   4   4   7    6.00    2.10
   4   4   7    5.40    2.20
  -4   4  -7    6.80    1.60
   5  -4   7   15.70    2.70
   5   4   7   25.90    3.70
   5   4   7   18.40    2.90
   6  -4   7  144.79    8.40
   6  -4   7  148.19    7.70
   6   4   7  142.99    8.00
   7  -4   7   44.50    5.50
   7  -4   7   63.09    6.20
   7   4   7   55.59    5.60
   8  -4   7   68.99    6.20
   8   4   7   67.19    5.80
   9  -4   7   -0.80    3.00
   9   4   7    2.90    2.60
  10  -4   7   58.69    7.10
  10   4   7   67.29    6.50
  10  -5  -7    2.60    3.60
  10   5  -7    8.00    3.10
   9  -5  -7  322.17   15.80
   9   5  -7  334.57   15.40
   8  -5  -7   -1.60    2.60
   8   5  -7    2.00    2.50
   7  -5  -7  924.41   34.10
  -7  -5   7  947.21   33.50
   7   5  -7  912.31   33.80
   6  -5  -7   72.49    6.00
  -6  -5   7   56.69    5.80
   6   5  -7   72.29    5.60
  -6   5   7   64.99    5.90
   5  -5  -7 1503.25   50.49
  -5  -5   7 1485.35   49.90
   5   5  -7 1444.36   50.29
  -5   5   7 1430.36   50.29
  -4  -5   7    3.00    2.30
   4  -5  -7    3.80    2.00
  -4   5   7    5.60    2.10
   4   5  -7    0.40    2.00
   3  -5  -7  624.44   22.80
  -3  -5   7  646.54   22.90
  -3   5   7  615.04   22.90
   3   5  -7  630.94   23.00
  -2  -5   7   77.89    5.60
   2  -5  -7   73.99    5.00
  -2   5   7   73.69    5.10
  -2   5   7   75.39    5.50
   2   5  -7   75.49    5.20
  -1  -5   7    7.30    2.40
  -1   5   7    7.30    2.20
   1   5  -7    7.20    2.30
   0  -5   7  233.98   10.30
   0   5   7  236.68   10.40
   0   5  -7  234.18   10.10
   0   5   7  247.48   10.10
   1  -5   7  850.31   30.00
   1   5   7  861.21   30.20
   1   5   7  890.91   30.00
  -1   5  -7  845.82   29.90
   2  -5   7   12.80    2.70
   2   5   7   15.10    2.60
  -2   5  -7   16.20    2.40
   2   5   7   17.30    2.60
   3  -5   7 1421.26   49.10
   3  -5   7 1520.95   50.09
   3   5   7 1480.65   50.39
   3   5   7 1507.75   50.09
  -3   5  -7 1488.15   49.70
   4  -5   7   84.69    5.00
   4  -5   7   89.49    6.20
  -4   5  -7   81.49    5.10
   4   5   7   88.19    5.70
   4   5   7   82.29    5.80
   5  -5   7 1606.24   54.29
   5  -5   7 1554.74   53.99
   5   5   7 1669.43   54.49
   5   5   7 1596.84   54.79
   6  -5   7   12.40    3.60
   6  -5   7   15.00    2.70
   6   5   7   17.30    3.10
   7  -5   7  375.46   15.90
   7  -5   7  365.36   15.60
   7   5   7  377.46   15.70
   8  -5   7   25.20    4.20
   8  -5   7   37.30    5.20
   8   5   7   36.10    4.90
   9  -5   7  129.19    8.80
   9   5   7  127.59    8.30
  -9  -6   7   12.90    3.90
   9  -6  -7    8.30    3.80
   9   6  -7    4.10    2.90
  -8  -6   7   -1.30    3.10
   8  -6  -7    0.60    3.00
   8   6  -7   -1.20    2.30
  -7  -6   7   48.80    6.00
   7  -6  -7   46.00    5.60
   7   6  -7   57.49    5.30
  -7   6   7   48.30    5.70
  -6  -6   7  135.99    8.40
   6  -6  -7  151.78    8.60
  -6   6   7  141.29    8.40
   6   6  -7  140.29    8.10
  -5  -6   7    6.70    2.90
   5  -6  -7    7.70    2.80
  -5   6   7    7.10    2.50
   5   6  -7    7.50    2.50
  -4  -6   7  788.82   28.30
   4  -6  -7  799.42   28.50
  -4   6   7  763.92   28.30
   4   6  -7  785.32   28.50
   3  -6  -7  120.49    6.90
  -3  -6   7  118.19    7.30
  -3   6   7  120.09    6.90
  -3   6   7  109.39    7.10
   3   6  -7  122.69    6.90
  -2  -6   7 1495.75   49.99
  -2   6   7 1511.45   50.29
  -2   6   7 1435.06   50.29
   2   6  -7 1458.65   50.39
  -1  -6   7    8.60    2.70
  -1   6   7    8.30    2.30
  -1   6   7    6.10    2.30
   1   6  -7   11.70    2.60
   0  -6   7 1678.83   55.69
   0   6   7 1652.83   55.89
   0   6   7 1644.34   56.09
   1  -6   7  175.68    9.00
   1   6   7  183.58    8.70
  -1   6  -7  188.38    8.80
   1   6   7  185.78    8.90
   2  -6   7  902.61   31.50
  -2   6  -7  894.51   31.20
   2   6   7  885.21   31.30
   2   6   7  882.41   31.30
   3  -6   7   81.49    6.20
   3   6   7   78.19    5.70
   3   6   7   78.69    5.70
  -3   6  -7   67.59    5.20
   4  -6   7  227.48   11.20
  -4   6  -7  255.57   10.60
   4   6   7  234.18   10.90
   4   6   7  249.28   11.10
   5  -6   7   97.29    7.10
   5   6   7  110.89    7.00
   5   6   7  109.39    7.00
   6  -6   7    4.00    3.30
   6   6   7    0.60    2.40
   7  -6   7   44.40    5.70
   7   6   7   40.20    5.10
   8  -6   7   19.80    4.10
   8   6   7   24.60    3.70
   9   6   7    9.70    3.20
  -8  -7   7   15.20    4.20
   8  -7  -7    8.30    3.60
  -8   7   7   11.00    3.30
   8   7  -7   18.50    3.70
  -7  -7   7   12.60    3.90
   7  -7  -7    6.40    3.20
   7   7  -7    6.90    2.80
  -7   7   7    5.60    2.80
   6  -7  -7   49.50    5.70
  -6  -7   7   49.60    5.90
   6   7  -7   49.30    5.10
  -6   7   7   54.09    5.70
  -5  -7   7    8.80    3.30
   5  -7  -7    5.00    2.70
  -5   7   7    5.30    2.60
  -5   7   7    6.70    2.50
   5   7  -7    7.90    2.60
  -4  -7   7   52.09    5.70
  -4   7   7   62.89    5.70
  -4   7   7   59.29    5.30
   4   7  -7   56.89    5.20
  -3  -7   7    9.20    3.00
  -3   7   7    9.70    2.60
   3   7  -7   10.60    2.80
  -3   7   7   10.40    2.60
  -2  -7   7    5.30    2.80
  -2   7   7    5.10    2.30
  -2   7   7    9.70    2.40
   2   7  -7    7.80    2.80
  -1  -7   7    1.80    2.60
  -1   7   7    0.90    2.00
  -1   7   7   -0.20    1.90
   1   7  -7    0.70    2.30
   0  -7   7    9.60    3.00
   0   7  -7    9.50    2.60
   0   7   7    6.60    2.30
   0   7   7    6.70    2.30
   1  -7   7    2.40    2.70
  -1   7  -7    6.40    2.60
   1   7   7    6.20    2.40
   1   7   7    6.00    2.60
   2  -7   7   60.09    5.80
  -2   7  -7   50.29    5.00
   2   7   7   57.59    5.40
   2   7   7   51.39    5.10
   3  -7   7    6.20    3.20
   3   7   7    8.10    2.70
  -3   7  -7    3.20    2.30
   3   7   7    4.40    2.60
   4  -7   7   83.99    6.70
  -4   7  -7   80.29    5.90
   4   7   7   85.59    6.40
   4   7   7   84.29    6.50
   5  -7   7   17.00    3.60
   5   7   7   12.10    3.30
   5   7   7   12.60    2.90
   6  -7   7   18.60    4.10
   6   7   7   16.80    3.30
   7  -7   7   30.50    4.50
   7   7   7   37.40    5.30
   8  -7   7    8.70    3.90
   8   7   7    6.90    2.90
  -7  -8   7   13.40    3.90
   7  -8  -7   15.50    4.00
  -7   8   7    6.00    3.20
  -7   8   7    5.60    2.90
   7   8  -7    8.60    3.00
  -6  -8   7    5.50    3.40
  -6   8   7    1.70    2.60
  -6   8   7    4.40    2.60
   6   8  -7    3.50    2.60
  -5  -8   7   11.60    3.70
   5   8  -7    7.10    2.80
  -5   8   7   10.80    3.00
  -5   8   7   13.10    3.20
  -4  -8   7   70.99    6.50
  -4   8   7   71.09    6.30
  -4   8   7   67.29    5.80
   4   8  -7   64.39    5.80
  -3  -8   7   26.30    4.50
  -3   8   7   38.40    4.60
   3   8  -7   39.10    4.90
  -3   8   7   30.00    3.90
  -2  -8   7  493.45   19.80
   2   8  -7  523.45   20.00
  -2   8   7  491.55   19.10
  -2   8   7  475.05   19.60
  -1  -8   7   96.99    7.10
   1   8  -7   94.69    6.70
  -1   8   7   85.99    6.30
  -1   8   7   90.69    6.50
   0  -8   7  393.26   16.30
   0   8  -7  391.56   16.30
   0   8   7  366.96   16.00
   0   8   7  392.36   15.60
   1  -8   7   15.10    3.80
   1   8   7   20.50    3.50
  -1   8  -7   17.50    3.70
   1   8   7   15.50    3.00
   2  -8   7  196.68   10.30
   2   8   7  196.28   10.00
  -2   8  -7  182.58    9.70
   2   8   7  190.18    9.60
   3  -8   7    4.60    3.30
  -3   8  -7    4.80    2.70
   3   8   7    4.40    2.70
   4  -8   7    3.30    3.30
   4   8   7    1.10    2.70
   5  -8   7   39.10    5.80
   5   8   7   37.30    5.60
   6  -8   7   39.70    5.70
   7  -8   7   14.00    3.90
  -6  -9   7   -0.50    3.40
   6   9  -7    0.70    2.60
  -6   9   7   -0.10    2.60
  -5  -9   7  156.88    9.90
  -5   9   7  161.18    9.50
   5   9  -7  151.88    9.10
  -4  -9   7    3.80    3.40
   4   9  -7    4.50    2.80
  -4   9   7    1.60    2.50
  -3  -9   7  183.58   10.50
   3   9  -7  184.08   10.10
  -3   9   7  183.38   10.00
  -2  -9   7   -0.50    3.20
   2   9  -7    2.90    3.10
  -2   9   7    1.00    2.30
  -1  -9   7    5.00    3.40
   1   9  -7    5.30    3.20
   0  -9   7   18.80    4.00
   0   9  -7   18.50    3.80
   0   9   7   15.90    3.40
   1  -9   7   77.59    7.10
   1   9   7   74.09    6.40
  -1   9  -7   72.19    6.30
   2  -9   7   -2.20    3.20
  -2   9  -7    3.50    3.00
   2   9   7    3.80    2.80
   3  -9   7  310.77   14.70
  -3   9  -7  323.87   14.50
   3   9   7  324.97   14.80
   4  -9   7    8.20    4.00
   4   9   7    7.10    3.30
   5  -9   7  282.87   13.60
  -4 -10   7   66.19    7.30
   4  10  -7   66.89    6.50
  -4  10   7   62.79    6.40
  -3 -10   7   30.20    5.00
   3  10  -7   33.20    4.90
  -3  10   7   28.80    4.60
  -2 -10   7  117.09    8.60
   2  10  -7  106.09    8.10
  -2  10   7  104.19    7.80
  -1 -10   7   60.09    6.80
   1  10  -7   65.09    6.50
  -1  10   7   54.49    5.90
   0 -10   7   89.09    7.60
   0  10   7   85.29    7.20
   0  10  -7   93.79    7.70
   1 -10   7   53.09    6.90
  -1  10  -7   43.40    5.90
   1  10   7   50.49    6.10
   2 -10   7   86.19    7.80
   2  10   7   83.79    7.30
  -2  10  -7   79.69    7.20
   3 -10   7   13.30    4.50
   3  10   7   14.60    4.00
  -3  10  -7   18.20    4.30
  11   0  -8  111.39    9.00
  10   0  -8   67.39    7.10
   9   0  -8  462.55   19.60
   8   0  -8   55.99    5.40
   7   0  -8  952.40   34.20
   6   0  -8  327.17   13.50
  -5   0   8  806.82   27.40
   5   0  -8  804.32   28.50
  -4   0   8 1950.20   65.09
  -4   0   8 1961.10   63.49
   4   0  -8 1941.21   64.89
  -3   0   8  380.86   14.50
  -3   0   8  386.36   13.60
   3   0  -8  383.96   14.10
   2   0  -8 5417.96  177.48
  -2   0   8 5695.83  178.08
  -2   0   8 5315.67  175.18
  -1   0   8   89.59    5.40
   1   0  -8   98.99    4.10
  -1   0   8   88.59    4.70
   0   0   8 5851.31  191.48
   0   0  -8 5529.45  193.58
   0   0   8 6377.36  192.28
   1   0   8    7.70    1.60
   1   0   8    6.10    1.80
   2   0   8 3102.79   99.99
   2   0   8 3076.09  101.39
   3   0   8  400.06   14.70
   3   0   8  383.06   14.90
   4   0   8  257.27   10.60
   4   0   8  240.58   10.70
   5   0   8   11.50    2.40
   6   0   8   79.99    5.80
   7   0   8   17.70    3.30
   8   0   8  452.05   18.50
   9   0   8    2.10    2.70
  10   0   8  364.16   16.50
  11  -1  -8   44.80    6.60
  11   1  -8   49.50    6.60
  10  -1  -8   56.69    6.80
  10   1  -8   51.39    6.40
   9  -1  -8  138.19    9.00
   9   1  -8  138.19    9.20
   8  -1  -8    1.80    2.50
   8   1  -8    0.30    2.10
   7  -1  -8  693.53   25.70
   7   1  -8  676.13   25.60
   6  -1  -8   15.90    2.80
   6   1  -8   18.10    2.90
   5  -1  -8  502.85   19.30
  -5  -1   8  537.25   18.80
   5   1  -8  496.85   19.40
  -5   1   8  550.04   18.20
  -4  -1   8  417.96   15.20
   4  -1  -8  413.96   15.60
  -4   1   8  413.16   14.50
  -4   1   8  424.56   16.10
   4   1  -8  417.16   15.70
  -3  -1   8  539.15   18.60
   3  -1  -8  523.15   18.80
  -3  -1   8  549.54   19.10
  -3   1   8  529.45   19.40
   3   1  -8  532.55   18.80
  -3   1   8  507.05   17.80
   2  -1  -8  382.26   13.90
  -2  -1   8  400.96   14.00
  -2  -1   8  410.36   14.50
  -2   1   8  380.86   13.40
   2   1  -8  355.66   13.80
  -2   1   8  405.26   14.80
  -1  -1   8   76.39    4.20
   1  -1  -8   72.99    3.70
  -1  -1   8   76.09    4.50
  -1   1   8   69.39    3.70
  -1   1   8   74.39    4.70
   1   1  -8   70.39    3.50
   0  -1   8  231.38    9.30
   0  -1   8  257.77    9.70
   0  -1  -8  217.38    8.50
   0   1   8  247.48    9.90
   0   1   8  244.08    8.90
   1  -1   8  390.16   14.70
   1  -1   8  398.96   14.50
   1   1   8  392.86   13.40
   1   1   8  420.46   15.10
   1   1   8  394.16   14.10
   2  -1   8  232.28    9.60
   2  -1   8  220.98    9.40
   2   1   8  232.88    9.10
   2   1   8  224.48    9.70
   3  -1   8 1962.90   66.09
   3  -1   8 2036.00   67.09
   3   1   8 2042.00   67.19
   4  -1   8    0.00    2.10
   4  -1   8   -2.00    1.70
   4   1   8   -1.30    1.80
   5  -1   8  871.21   30.60
   5  -1   8  876.41   31.00
   5   1   8  869.21   31.00
   6  -1   8   29.30    4.20
   6   1   8   27.80    4.30
   7  -1   8  674.23   25.20
   7   1   8  660.13   25.00
   8  -1   8    1.40    2.60
   8   1   8    2.30    2.40
   9  -1   8   60.69    6.40
   9   1   8   63.09    6.00
  10  -1   8   18.70    3.80
  10   1   8   22.60    3.80
  11  -2  -8    0.00    3.30
  11   2  -8    0.60    3.30
  10  -2  -8   33.30    5.30
  10   2  -8   32.20    5.00
   9  -2  -8   17.40    4.00
   9   2  -8   14.30    3.90
   8  -2  -8    4.30    2.80
   8   2  -8    5.90    2.60
   7  -2  -8   59.89    5.90
   7   2  -8   50.99    5.60
   6  -2  -8   35.50    4.20
  -6  -2   8   27.60    4.20
   6   2  -8   36.30    4.20
   5  -2  -8    0.40    1.80
  -5  -2   8    5.50    2.30
   5   2  -8    1.90    1.80
  -4  -2   8   80.79    5.20
   4  -2  -8   78.39    5.00
  -4   2   8   75.49    5.40
   4   2  -8   63.59    4.70
   3  -2  -8    7.50    1.60
  -3  -2   8    4.00    1.60
  -3  -2   8    3.80    1.90
  -3   2   8    5.60    1.90
   3   2  -8    7.70    1.70
  -2  -2   8   81.79    4.80
   2  -2  -8   76.99    4.40
  -2  -2   8   78.29    4.90
  -2   2   8   76.19    5.20
  -2   2   8   86.49    3.60
   2   2  -8   75.19    4.50
   1  -2  -8   94.59    4.60
  -1  -2   8   97.39    5.10
  -1  -2   8   92.79    5.10
  -1   2   8   93.49    4.10
   1   2  -8   99.39    4.60
  -1   2   8   90.89    5.60
   0  -2  -8  458.45   15.80
   0  -2   8  452.95   16.40
   0  -2   8  453.95   16.50
   0   2   8  456.25   17.00
   0   2   8  465.05   15.70
   1  -2   8   57.29    4.40
   1  -2   8   61.69    4.10
   1   2   8   61.59    4.60
   1   2   8   63.19    3.20
  -1   2  -8   63.59    3.00
   2  -2   8   15.30    2.50
   2   2   8   18.00    2.50
   3  -2   8   29.00    4.00
   3  -2   8   23.20    3.50
   3   2   8   21.20    2.40
   3   2   8   24.80    3.70
   4  -2   8   25.80    3.30
   4  -2   8   23.80    3.00
   4   2   8   28.20    3.90
   5  -2   8   10.90    2.80
   5  -2   8    4.40    2.20
   5   2   8    6.40    2.30
   6  -2   8   56.89    5.70
   6  -2   8   65.39    5.20
   6   2   8   52.69    5.10
   7  -2   8    1.60    2.50
   7   2   8    3.50    2.40
   8  -2   8   13.40    3.20
   8   2   8   14.50    3.00
   9  -2   8   -1.80    2.70
   9   2   8    1.50    2.50
  10  -2   8   25.90    4.40
  10   2   8   38.00    5.50
  10  -3  -8  105.99    8.70
  10   3  -8  108.99    8.30
   9  -3  -8  223.58   12.00
   9   3  -8  207.98   11.70
   8  -3  -8    3.70    2.80
   8   3  -8   16.30    3.30
   7  -3  -8  771.02   28.80
   7   3  -8  779.42   28.90
   6  -3  -8  116.69    7.10
  -6  -3   8  106.39    7.00
   6   3  -8  123.89    7.10
   5  -3  -8 1240.88   43.20
  -5  -3   8 1262.67   42.60
  -5   3   8 1229.88   43.50
   5   3  -8 1280.77   43.40
  -4  -3   8  397.36   15.10
   4  -3  -8  419.86   15.70
  -4  -3   8  406.26   15.60
  -4   3   8  408.16   16.10
   4   3  -8  413.46   15.80
  -3  -3   8  827.12   28.80
  -3  -3   8  850.21   29.10
   3  -3  -8  847.22   29.40
   3   3  -8  877.01   29.50
  -3   3   8  821.42   29.70
  -2  -3   8  866.41   30.00
  -2  -3   8  899.51   29.90
   2  -3  -8  866.61   30.10
   2   3  -8  862.71   30.10
  -2   3   8  894.11   30.80
  -1  -3   8    1.00    1.30
  -1  -3   8    5.70    1.80
   1   3  -8    1.40    1.40
  -1   3   8   -0.20    1.60
   0  -3   8  293.17   11.30
   0  -3   8  302.37   11.80
   0   3   8  308.57   12.30
   0   3   8  315.77   11.40
   0   3  -8  300.97   11.30
   1  -3   8  857.31   29.20
   1  -3   8  823.72   28.80
   1   3   8  850.21   28.60
  -1   3  -8  850.11   28.50
   1   3   8  848.62   29.60
   2  -3   8   61.89    4.90
   2  -3   8   47.40    4.00
   2   3   8   49.50    3.50
  -2   3  -8   51.49    3.40
   2   3   8   51.99    4.50
   3  -3   8 2122.99   71.29
   3  -3   8 2251.17   70.99
   3   3   8 2180.48   71.79
   3   3   8 2046.50   70.49
   4  -3   8   -2.40    1.70
   4  -3   8    9.10    2.90
   4   3   8    1.60    2.10
   5  -3   8 1766.12   60.69
   5  -3   8 1794.12   60.29
   5   3   8 1840.62   61.09
   6  -3   8   -2.40    2.60
   6  -3   8   -1.00    2.10
   6   3   8   -2.20    2.10
   7  -3   8  631.74   23.80
   7  -3   8  624.94   24.10
   7   3   8  634.04   24.00
   8  -3   8    1.30    2.40
   8   3   8    0.40    2.30
   9  -3   8   84.39    7.50
   9   3   8   94.39    7.00
  10  -3   8   10.30    3.50
  10   3   8    8.00    3.10
  10  -4  -8   34.90    5.60
  10   4  -8   48.30    5.80
   9  -4  -8  285.87   14.20
   9   4  -8  271.47   13.60
   8  -4  -8   -1.40    2.60
   8   4  -8    7.50    2.80
  -7  -4   8  326.67   14.60
   7  -4  -8  353.66   15.20
   7   4  -8  340.57   14.90
   6  -4  -8  215.38   10.50
  -6  -4   8  202.38   10.10
  -6   4   8  207.68   10.60
   6   4  -8  214.98   10.30
   5  -4  -8  535.05   20.20
  -5  -4   8  518.95   19.90
  -5   4   8  500.15   20.20
   5   4  -8  556.24   20.30
  -4  -4   8 1015.60   34.50
   4  -4  -8 1007.60   34.90
  -4  -4   8  994.80   33.80
   4   4  -8 1016.40   35.00
  -4   4   8  952.80   35.00
  -3  -4   8  113.19    6.60
   3  -4  -8  113.69    6.20
  -3  -4   8  114.29    5.60
   3   4  -8  121.19    6.40
  -3   4   8  106.19    6.70
  -2  -4   8 3228.98  102.99
   2  -4  -8 3151.08  103.79
  -2  -4   8 3119.69  102.89
   2   4  -8 3157.28  103.89
  -2   4   8 3152.68  104.29
   1  -4  -8   53.49    3.90
  -1  -4   8   49.40    4.70
  -1  -4   8   39.20    3.50
  -1   4   8   42.50    4.70
   1   4  -8   50.89    4.00
  -1   4   8   55.19    4.10
   0  -4   8 2238.28   75.79
   0  -4   8 2407.86   76.29
   0   4   8 2374.16   77.09
   0   4  -8 2217.48   76.39
   0   4   8 2368.96   76.49
   1  -4   8   63.09    4.00
   1  -4   8   60.29    5.20
  -1   4  -8   60.29    4.30
   1   4   8   64.69    5.00
   1   4   8   63.29    4.20
   2  -4   8 1778.22   58.09
   2  -4   8 1730.43   57.69
   2   4   8 1797.82   57.89
   2   4   8 1688.73   58.59
  -2   4  -8 1719.33   57.69
   3  -4   8    9.30    2.60
   3  -4   8    9.90    2.00
   3   4   8   14.40    2.70
   3   4   8   12.90    2.20
   4  -4   8  116.99    7.20
   4  -4   8  119.89    6.50
   4   4   8  115.39    6.90
   5  -4   8   51.39    5.40
   5  -4   8   34.10    4.30
   5   4   8   45.70    4.90
   6  -4   8   12.20    2.80
   6  -4   8   11.10    3.50
   6   4   8   13.20    3.20
   7  -4   8   -1.70    2.40
   7  -4   8    2.00    3.30
   7   4   8    3.10    2.60
   8  -4   8  269.27   12.80
   8   4   8  257.37   12.40
   9  -4   8   -2.00    3.00
   9   4   8    0.70    2.50
  10  -5  -8    3.60    3.70
  10   5  -8    7.80    3.20
   9  -5  -8   90.49    8.00
  -9  -5   8  100.69    8.10
   9   5  -8   78.79    7.20
   8  -5  -8   -0.40    2.70
  -8  -5   8    1.80    3.10
   8   5  -8   -3.00    2.10
   7  -5  -8   43.70    5.60
  -7  -5   8   28.40    4.50
   7   5  -8   30.40    4.60
  -7   5   8   38.60    5.60
  -6  -5   8   11.40    3.40
   6  -5  -8   11.60    3.10
  -6   5   8    8.70    2.80
   6   5  -8   13.80    3.00
   5  -5  -8   17.80    3.30
   5   5  -8   26.70    4.10
  -4  -5   8   31.00    4.70
   4  -5  -8   31.20    4.10
   4   5  -8   29.00    4.10
  -4   5   8   23.30    3.30
  -3  -5   8    1.30    2.30
   3  -5  -8    9.00    2.20
  -3   5   8    5.00    2.20
   3   5  -8    2.40    2.10
   2  -5  -8    6.20    2.00
  -2   5   8    2.70    1.90
  -2   5   8    5.10    2.10
   2   5  -8    3.80    2.10
  -1  -5   8   69.79    5.50
   1   5  -8   76.69    5.10
  -1   5   8   63.79    5.30
  -1   5   8   71.89    5.00
   0  -5   8  223.88   10.20
   0   5   8  224.78   10.20
   0   5  -8  225.78    9.70
   0   5   8  229.98    9.70
   1  -5   8   61.09    5.40
   1   5   8   60.19    5.10
   1   5   8   56.29    4.40
  -1   5  -8   55.79    4.70
   2  -5   8   45.40    4.90
   2   5   8   35.60    4.70
   2   5   8   42.60    4.20
  -2   5  -8   43.60    4.10
   3  -5   8  161.98    8.60
   3   5   8  168.68    8.00
   3   5   8  160.68    8.50
  -3   5  -8  165.78    7.60
   4  -5   8  201.98    9.90
   4   5   8  204.18    9.30
   4   5   8  190.98    9.60
   5  -5   8   93.29    6.60
   5  -5   8  121.19    7.50
   5   5   8  112.29    7.30
   6  -5   8   31.00    4.30
   6  -5   8   22.00    4.20
   6   5   8   26.10    3.70
   7  -5   8  103.09    7.50
   7  -5   8  117.89    8.10
   7   5   8  122.29    7.70
   8  -5   8   14.80    4.00
   8   5   8   20.00    3.50
   9   5   8   49.10    5.80
   9  -6  -8   47.60    6.60
  -9  -6   8   63.89    7.10
   9   6  -8   46.30    5.70
  -9   6   8   52.39    6.60
   8  -6  -8  102.09    8.10
  -8  -6   8  117.29    8.60
  -8   6   8  103.89    8.10
   8   6  -8  111.59    7.70
  -7  -6   8   73.19    6.80
   7   6  -8   67.39    5.90
  -7   6   8   72.99    6.70
   6  -6  -8    3.70    2.80
  -6  -6   8   -1.30    2.80
   6   6  -8    3.80    2.50
  -6   6   8    2.40    2.40
   5  -6  -8   39.00    4.80
  -5  -6   8   35.80    5.10
  -5   6   8   42.70    5.10
   5   6  -8   36.80    4.50
   4  -6  -8   33.10    4.60
  -4  -6   8   40.30    5.20
  -4   6   8   40.10    5.10
   4   6  -8   33.40    4.40
   3  -6  -8    2.70    2.30
  -3  -6   8    4.50    2.70
  -3   6   8    3.90    2.40
   3   6  -8    5.60    2.50
  -3   6   8    4.40    2.30
  -2  -6   8  545.15   20.00
   2   6  -8  517.55   19.70
  -2   6   8  505.05   19.60
  -2   6   8  510.85   19.80
  -1  -6   8   94.79    6.50
  -1   6   8   91.19    6.20
  -1   6   8   90.69    5.90
   1   6  -8  108.29    6.30
   0  -6   8  489.05   18.50
   0   6  -8  458.45   18.10
   0   6   8  489.35   18.50
   0   6   8  479.25   18.20
   1  -6   8  149.88    8.40
  -1   6  -8  148.59    7.70
   1   6   8  148.79    8.10
   1   6   8  154.78    7.80
   2  -6   8  369.46   15.00
  -2   6  -8  354.16   14.30
   2   6   8  361.26   14.70
   2   6   8  359.86   14.40
   3  -6   8   61.49    5.80
  -3   6  -8   62.89    5.00
   3   6   8   60.39    5.50
   3   6   8   64.89    5.30
   4  -6   8   -2.50    2.80
   4   6   8    1.70    2.50
   4   6   8    1.10    2.30
   5  -6   8    8.00    3.50
   5   6   8    5.70    2.80
   6  -6   8   23.50    4.40
   6   6   8   22.10    3.60
   7  -6   8    5.00    3.50
   7   6   8    6.10    2.70
   8  -6   8  130.99    8.90
   8   6   8  128.39    8.30
  -8  -7   8    3.40    3.70
   8  -7  -8   -0.40    3.10
  -8   7   8   -1.10    2.50
   8   7  -8    1.50    2.50
  -7  -7   8  347.47   15.70
   7  -7  -8  337.47   15.70
   7   7  -8  325.27   15.10
  -7   7   8  355.46   15.70
  -6  -7   8   12.30    3.90
   6  -7  -8   20.10    3.90
  -6   7   8   19.20    3.60
   6   7  -8   21.00    3.60
   5  -7  -8  417.66   17.30
  -5  -7   8  416.66   17.40
  -5   7   8  404.66   17.30
  -5   7   8  429.56   17.40
   5   7  -8  411.46   17.20
  -4  -7   8  139.09    8.60
  -4   7   8  151.18    8.50
   4   7  -8  145.69    8.20
  -4   7   8  141.49    8.20
  -3  -7   8  207.78   10.40
  -3   7   8  195.28   10.10
  -3   7   8  209.18   10.10
   3   7  -8  206.68   10.00
  -2  -7   8  153.08    8.50
  -2   7   8  137.09    7.90
   2   7  -8  147.39    8.10
  -2   7   8  147.79    8.10
  -1  -7   8    6.00    3.00
  -1   7   8    1.10    2.00
  -1   7   8   -2.70    2.00
   1   7  -8   -0.80    2.30
   0  -7   8  164.58    8.90
   0   7  -8  154.88    8.30
   0   7   8  161.58    8.50
   0   7   8  156.58    8.30
   1  -7   8  305.67   13.50
   1   7   8  310.67   13.00
   1   7   8  295.67   12.90
   2  -7   8    8.10    3.30
   2   7   8   11.00    2.80
  -2   7  -8   13.30    3.00
   2   7   8   10.90    3.00
   3  -7   8  697.63   26.20
  -3   7  -8  699.03   25.70
   3   7   8  697.83   26.00
   3   7   8  716.83   26.10
   4  -7   8    6.10    3.50
   4   7   8    9.00    2.90
   4   7   8    8.10    3.10
   5  -7   8  639.04   24.70
   5   7   8  660.23   24.70
   6  -7   8    1.30    3.40
   6   7   8    3.90    2.90
   7  -7   8  289.37   14.10
   7   7   8  310.07   14.00
  -7  -8   8   47.20    6.40
   7  -8  -8   41.00    6.00
  -7   8   8   36.90    5.50
  -7   8   8   49.20    6.20
   7   8  -8   40.50    5.10
  -6  -8   8   63.19    6.80
  -6   8   8   71.19    6.50
  -6   8   8   82.99    7.00
   6   8  -8   76.69    6.20
  -5  -8   8   88.69    7.30
   5   8  -8   86.69    6.60
  -5   8   8   91.69    6.90
  -5   8   8   94.49    7.20
  -4  -8   8  297.07   13.70
   4   8  -8  290.17   13.30
  -4   8   8  276.87   13.30
  -4   8   8  304.37   13.40
  -3  -8   8   42.60    5.70
  -3   8   8   31.80    4.00
  -3   8   8   33.90    4.50
   3   8  -8   36.80    4.80
  -2  -8   8  289.07   13.20
  -2   8   8  264.57   12.60
   2   8  -8  286.17   12.90
  -2   8   8  278.97   12.50
  -1  -8   8   95.29    7.20
  -1   8   8   87.09    6.40
  -1   8   8   87.59    6.70
   1   8  -8   97.09    6.80
   0  -8   8  361.16   15.60
   0   8   8  352.26   15.40
   0   8   8  362.86   15.10
   0   8  -8  373.46   15.50
   1  -8   8    0.80    3.20
  -1   8  -8   -0.80    2.60
   1   8   8    2.80    2.40
   1   8   8    0.00    2.60
   2  -8   8  156.28    9.20
   2   8   8  151.98    8.70
  -2   8  -8  143.79    8.60
   2   8   8  146.79    8.60
   3  -8   8    7.80    3.80
   3   8   8   10.90    2.90
   3   8   8    9.90    3.20
   4  -8   8   55.69    6.40
   4   8   8   44.40    5.80
   4   8   8   45.70    5.70
   5  -8   8   19.90    4.20
   6  -8   8   -2.30    3.60
   6   9  -8    3.60    2.90
  -6   9   8    4.50    2.90
  -5  -9   8   33.20    5.20
  -5   9   8   27.20    4.40
   5   9  -8   17.30    3.70
  -4  -9   8   24.50    4.60
   4   9  -8   26.70    4.20
  -4   9   8   32.20    4.80
  -3  -9   8   80.89    7.20
  -3   9   8   68.59    6.30
   3   9  -8   74.49    6.50
  -2  -9   8    0.30    3.30
   2   9  -8    0.00    3.00
  -2   9   8    2.10    2.50
  -1  -9   8    8.90    3.80
   1   9  -8    9.20    3.60
  -1   9   8    9.50    3.00
   0  -9   8    2.50    3.40
   0   9  -8    3.70    3.10
   0   9   8    1.00    2.40
   1  -9   8    3.00    3.60
  -1   9  -8    5.70    3.30
   1   9   8    3.50    2.70
   2  -9   8   49.70    6.50
   2   9   8   54.09    5.80
  -2   9  -8   46.10    5.70
   3  -9   8   14.60    4.10
   3   9   8   16.40    3.90
   4  -9   8   52.39    6.60
   5  -9   8    5.60    3.90
  -3 -10   8   -0.30    3.70
  -3  10   8    2.50    2.80
   3  10  -8    0.50    3.20
  -2 -10   8  140.79    9.50
  -2  10   8  129.09    8.80
   2  10  -8  140.69    9.20
  -1 -10   8    8.40    4.00
   1  10  -8    7.20    3.70
  -1  10   8    9.20    3.20
   0 -10   8  173.98   10.50
   0  10  -8  171.18   10.10
   0  10   8  164.08   10.00
   1 -10   8   40.20    5.80
  -1  10  -8   41.90    6.00
   1  10   8   44.10    5.90
   2 -10   8   99.79    8.40
   2  10   8   90.29    7.60
   3  10   8   14.60    4.00
  11   0  -9    6.30    3.70
  10   0  -9   -3.00    3.00
   9   0  -9    5.40    3.30
   8   0  -9   -1.80    2.10
  -7   0   9    6.90    2.70
   7   0  -9    5.90    2.80
   6   0  -9    1.40    1.80
  -6   0   9   -2.20    1.80
   5   0  -9   -2.40    1.60
  -5   0   9    0.70    1.70
  -4   0   9    2.50    1.60
   4   0  -9    0.80    1.50
  -4   0   9    0.70    1.80
  -3   0   9    0.20    1.70
   3   0  -9    0.00    1.10
  -3   0   9   -1.90    1.30
  -2   0   9    2.30    1.40
   2   0  -9    0.30    1.00
  -2   0   9    2.60    1.60
   1   0  -9    1.70    0.80
  -1   0   9   -0.90    1.40
  -1   0   9    5.40    1.60
   0   0   9    2.80    1.50
   0   0  -9    1.30    0.60
   0   0   9    4.60    1.80
   1   0   9    0.20    1.60
   1   0   9    0.20    1.60
   2   0   9    1.00    1.70
   3   0   9    2.50    2.10
   3   0   9    4.30    2.00
   4   0   9   -0.20    2.10
   4   0   9    1.30    2.00
   5   0   9    7.40    2.50
   6   0   9    0.00    2.30
   7   0   9    1.40    2.50
   8   0   9   -1.50    2.40
   9   0   9   -3.50    2.40
  10   0   9    4.70    3.10
  11  -1  -9    2.60    3.50
  11   1  -9    2.40    3.40
  10  -1  -9   93.39    8.00
  10   1  -9   94.29    7.80
   9  -1  -9   53.19    6.40
   9   1  -9   47.00    6.20
   8  -1  -9    9.10    3.10
   8   1  -9   14.40    3.20
  -7  -1   9  200.88    9.60
   7  -1  -9  193.38   10.20
   7   1  -9  188.58   10.00
   6  -1  -9  190.78    9.30
  -6  -1   9  183.38    8.90
   6   1  -9  196.78    9.30
   5  -1  -9  409.86   16.40
  -5  -1   9  444.96   16.00
   5   1  -9  418.16   16.40
  -5   1   9  434.86   17.00
   4  -1  -9  962.00   32.50
  -4  -1   9  939.51   32.70
  -4  -1   9  960.30   31.90
  -4   1   9  920.81   31.10
   4   1  -9  940.01   32.50
  -4   1   9  915.61   32.90
  -3  -1   9  288.57   11.70
  -3  -1   9  279.87   11.10
   3  -1  -9  302.57   11.30
  -3   1   9  287.97   12.00
  -3   1   9  275.07   10.40
   3   1  -9  296.67   11.20
  -2  -1   9 2206.68   70.69
   2  -1  -9 2118.69   71.29
  -2  -1   9 2307.47   71.99
   2   1  -9 2063.29   71.19
  -2   1   9 2225.98   72.29
  -2   1   9 2106.29   70.09
  -1  -1   9    5.80    1.70
   1  -1  -9    5.70    1.10
  -1  -1   9    5.40    1.80
  -1   1   9    1.90    1.70
  -1   1   9    6.80    1.50
   1   1  -9    8.00    1.20
   0  -1   9 1183.38   40.00
   0  -1  -9 1160.18   39.60
   0  -1   9 1307.47   40.90
   0   1   9 1240.68   41.00
   0   1   9 1206.78   39.60
   0   1  -9 1117.29   39.40
   1  -1   9  441.66   16.40
   1  -1   9  428.36   16.00
   1   1   9  443.36   15.60
   1   1   9  450.85   16.60
   1   1   9  431.46   14.80
   2  -1   9  599.24   21.20
   2  -1   9  607.44   21.60
   2   1   9  600.64   20.90
   2   1   9  572.64   21.60
   3  -1   9 1433.56   48.90
   3  -1   9 1466.75   48.30
   3   1   9 1426.56   49.10
   3   1   9 1443.06   48.00
   4  -1   9   12.20    2.70
   4  -1   9    8.40    2.40
   4   1   9    9.30    2.50
   5  -1   9 1075.39   37.20
   5  -1   9 1031.80   36.60
   5   1   9 1063.59   37.30
   6  -1   9    3.60    2.50
   6   1   9    5.20    2.60
   7  -1   9  451.65   18.30
   7   1   9  443.26   18.20
   8  -1   9   21.70    3.60
   8   1   9   21.70    3.50
   9  -1   9   60.49    6.50
   9   1   9   68.49    6.20
  10  -1   9   14.10    3.50
  10   1   9   12.50    3.40
  10  -2  -9   13.90    4.20
  10   2  -9   17.10    4.30
   9  -2  -9  583.34   23.40
   9   2  -9  564.24   23.30
   8  -2  -9   -3.10    2.30
   8   2  -9   -2.00    2.00
  -7  -2   9 1238.38   43.60
   7  -2  -9 1287.47   44.60
   7   2  -9 1285.47   44.80
   6  -2  -9   38.70    4.30
  -6  -2   9   32.30    3.80
   6   2  -9   42.20    4.60
   5  -2  -9 1250.67   42.90
  -5  -2   9 1279.37   42.20
   5   2  -9 1267.37   43.00
  -5   2   9 1189.78   43.20
   4  -2  -9  860.31   30.00
  -4  -2   9  858.41   29.90
  -4  -2   9  894.21   29.70
   4   2  -9  837.62   30.00
  -4   2   9  835.72   30.50
  -3  -2   9  572.14   19.60
  -3  -2   9  547.95   19.70
   3  -2  -9  541.35   19.60
   3   2  -9  530.35   19.50
  -3   2   9  540.35   20.30
  -2  -2   9 1758.32   56.59
  -2  -2   9 1746.93   57.19
   2  -2  -9 1688.53   56.89
  -2   2   9 1723.13   55.39
  -2   2   9 1698.63   57.79
   2   2  -9 1687.83   56.79
   1  -2  -9   36.10    2.90
  -1  -2   9   23.40    3.70
  -1  -2   9   28.30    3.70
   1   2  -9   34.00    2.80
  -1   2   9   21.20    3.00
   0  -2   9 2741.73   86.39
   0  -2  -9 2570.34   85.59
   0  -2   9 2597.04   85.59
   0   2   9 2594.34   86.79
   0   2   9 2629.74   84.69
   1  -2   9  448.56   16.70
   1  -2   9  447.86   16.70
   1   2   9  441.76   15.60
   1   2   9  477.15   17.30
   2  -2   9 1050.99   34.70
   2  -2   9 1017.80   34.90
   2   2   9 1052.19   35.30
   2   2   9  935.21   33.40
   3  -2   9  853.01   29.50
   3  -2   9  827.92   29.70
   3   2   9  851.61   30.00
   4  -2   9  128.39    7.50
   4  -2   9  148.99    7.60
   4   2   9  144.59    7.70
   5  -2   9  548.35   20.30
   5  -2   9  533.75   20.40
   5   2   9  525.85   20.50
   6  -2   9  136.39    7.80
   6  -2   9  128.89    7.90
   6   2   9  122.49    7.60
   7  -2   9  130.59    8.10
   7   2   9  134.79    8.10
   8  -2   9  253.47   12.70
   8   2   9  270.87   12.50
   9  -2   9   31.30    4.70
   9   2   9   38.60    5.20
  10  -2   9  302.87   15.10
  10  -3  -9   10.40    4.10
  10   3  -9   18.80    4.10
  -9  -3   9   25.20    4.30
   9  -3  -9   23.50    4.60
   9   3  -9   20.10    4.40
  -8  -3   9   -3.80    2.60
   8  -3  -9    1.30    2.70
   8   3  -9    3.40    2.50
  -7  -3   9   64.09    6.30
   7  -3  -9   70.89    6.30
   7   3  -9   63.59    5.90
  -6  -3   9   41.20    5.00
   6  -3  -9   48.70    5.00
  -6   3   9   41.60    5.30
   6   3  -9   43.40    4.80
  -5  -3   9   63.19    5.50
   5  -3  -9   40.20    4.70
  -5  -3   9   58.89    4.90
  -5   3   9   61.79    5.80
   5   3  -9   42.20    4.50
   4  -3  -9  256.77   10.80
  -4  -3   9  249.48   10.80
  -4  -3   9  245.18   10.40
   4   3  -9  258.27   10.90
  -4   3   9  247.58   11.30
  -3  -3   9    0.60    2.10
   3  -3  -9   -0.90    1.40
  -3  -3   9    0.50    1.60
  -3   3   9   -2.40    1.80
   3   3  -9    4.60    1.70
  -2  -3   9  618.54   21.40
   2  -3  -9  585.74   21.20
  -2  -3   9  600.94   21.10
   2   3  -9  595.04   21.20
  -2   3   9  582.54   22.00
   1  -3  -9   58.89    3.80
  -1  -3   9   57.29    4.20
  -1  -3   9   58.19    4.60
   1   3  -9   61.49    3.90
  -1   3   9   55.69    5.00
   0  -3   9  357.96   14.10
   0  -3   9  386.16   14.60
   0   3  -9  403.36   13.90
   0   3   9  391.26   15.00
   0   3   9  373.96   13.90
   1  -3   9  288.17   11.60
   1  -3   9  297.37   12.10
   1   3   9  299.77   11.10
  -1   3  -9  300.97   10.90
   1   3   9  302.07   12.40
   2  -3   9  389.76   15.30
   2  -3   9  424.06   15.60
   2   3   9  385.46   14.40
   2   3   9  411.76   15.90
   3  -3   9  352.06   14.30
   3  -3   9  380.16   14.60
   3   3   9  361.76   14.80
   4  -3   9   80.39    6.00
   4  -3   9   64.89    5.50
   4   3   9   69.89    5.70
   5  -3   9  385.46   15.90
   5  -3   9  406.56   16.20
   5   3   9  394.46   16.20
   6  -3   9   17.70    3.20
   6  -3   9   20.00    3.80
   6   3   9   16.40    3.30
   7  -3   9   99.89    7.40
   7  -3   9  114.79    7.80
   7   3   9  106.49    7.30
   8  -3   9    1.10    2.70
   8   3   9    1.40    2.60
   9  -3   9   55.69    6.60
   9   3   9   59.99    6.00
  10  -4  -9   43.70    6.70
 -10  -4   9   39.00    5.60
  10   4  -9   54.69    6.20
  -9  -4   9   62.29    7.10
   9  -4  -9   76.59    7.40
   9   4  -9   57.89    6.50
  -8  -4   9   13.10    3.90
   8  -4  -9   22.60    4.20
   8   4  -9   24.00    3.90
  -7  -4   9  106.39    7.80
   7  -4  -9  118.39    7.90
  -7   4   9  109.69    8.00
   7   4  -9  112.19    7.60
  -6  -4   9   47.20    5.50
   6  -4  -9   46.80    5.20
  -6   4   9   42.40    5.50
   6   4  -9   42.10    4.90
  -5  -4   9  182.68    8.70
  -5  -4   9  182.38    9.50
   5  -4  -9  197.48    9.50
  -5   4   9  181.98    9.70
   5   4  -9  202.08    9.40
  -4  -4   9    7.00    2.70
   4  -4  -9   11.90    2.50
  -4  -4   9   10.60    2.10
  -4   4   9    9.10    2.50
   4   4  -9    7.70    2.40
   3  -4  -9    4.30    1.80
  -3  -4   9    0.30    1.50
  -3  -4   9   -1.50    2.10
   3   4  -9    5.20    2.00
  -3   4   9   -1.10    1.90
  -2  -4   9  167.38    8.20
   2  -4  -9  165.78    7.70
  -2  -4   9  160.98    7.20
  -2   4   9  158.78    8.40
   2   4  -9  169.18    7.90
   1  -4  -9    0.00    1.40
  -1  -4   9    3.00    2.20
  -1  -4   9   -1.20    1.40
   1   4  -9   -0.80    1.60
  -1   4   9   -0.70    1.50
  -1   4   9   -0.70    1.80
   0  -4   9  292.17   11.80
   0  -4   9  336.47   12.80
   0   4   9  306.27   13.00
   0   4   9  309.67   12.10
   0   4  -9  316.77   12.10
   1  -4   9  431.36   15.80
   1  -4   9  432.06   16.60
   1   4   9  435.26   16.80
   1   4   9  427.76   15.80
  -1   4  -9  434.26   15.70
   2  -4   9  232.68    9.70
   2  -4   9  236.68   10.60
   2   4   9  217.58   10.50
   2   4   9  236.78    9.50
   3  -4   9   82.39    6.10
   3  -4   9   78.49    5.20
   3   4   9   78.09    5.90
   4  -4   9    6.80    3.10
   4  -4   9    2.80    2.10
   4   4   9    9.50    2.70
   5  -4   9  107.79    7.20
   5  -4   9   97.29    6.50
   5   4   9  102.19    7.00
   6  -4   9    1.40    2.30
   6  -4   9    0.00    3.30
   6   4   9    1.80    2.70
   7  -4   9    0.80    2.60
   7  -4   9    2.30    3.40
   7   4   9    4.90    2.90
   8  -4   9   73.69    6.80
   8   4   9   69.19    6.30
   9  -4   9   -4.50    2.80
   9   4   9   -1.60    2.50
   9  -5  -9   82.99    7.80
  -9  -5   9   86.99    7.90
   9   5  -9   83.89    7.30
  -9   5   9   82.79    7.80
   8  -5  -9    3.80    3.10
  -8  -5   9    8.40    3.60
  -8   5   9    5.60    3.10
   8   5  -9    4.30    2.80
   7  -5  -9  102.49    7.70
  -7  -5   9  107.49    7.80
   7   5  -9  105.79    7.40
  -7   5   9  119.89    8.10
   6  -5  -9   79.29    6.20
  -6  -5   9   62.09    6.10
  -6   5   9   72.89    6.50
   6   5  -9   75.29    5.80
   5  -5  -9  456.15   18.20
  -5  -5   9  469.85   18.20
   5   5  -9  457.15   18.10
  -5   5   9  433.56   18.30
   4  -5  -9  807.22   29.00
  -4  -5   9  811.52   29.00
   4   5  -9  812.52   29.10
  -4   5   9  796.12   29.40
  -3  -5   9  119.49    7.30
   3  -5  -9  131.79    6.90
  -3   5   9  123.39    7.60
   3   5  -9  129.79    7.10
  -2  -5   9  835.52   29.60
   2  -5  -9  843.62   29.50
   2   5  -9  840.42   29.50
  -2   5   9  823.52   29.50
  -2   5   9  837.92   30.10
  -1  -5   9   26.70    3.60
  -1   5   9   29.70    3.90
   1   5  -9   26.70    3.20
   0  -5   9 1344.27   45.50
   0   5   9 1308.07   46.00
   0   5  -9 1345.37   45.40
   0   5   9 1357.06   45.40
   1  -5   9  495.65   18.70
   1   5   9  483.05   17.90
  -1   5  -9  482.65   17.90
   1   5   9  479.25   18.70
   2  -5   9  130.39    7.60
   2   5   9  146.89    7.80
  -2   5  -9  112.79    6.40
   2   5   9  130.49    6.70
   3  -5   9  638.64   23.60
   3   5   9  644.94   24.00
   3   5   9  633.84   23.00
   4  -5   9   54.19    5.70
   4   5   9   48.80    5.40
   5  -5   9  938.91   33.50
   5   5   9  925.21   33.70
   6  -5   9   49.99    6.10
   6   5   9   54.39    5.60
   7  -5   9  289.37   13.80
   7   5   9  290.07   13.40
   8  -5   9   10.40    4.10
   8   5   9   10.00    3.10
   9   5   9   47.70    5.80
   9  -6  -9  181.48   11.20
  -9   6   9  177.28   11.10
   9   6  -9  178.88   10.60
   8  -6  -9   16.90    4.00
  -8  -6   9    7.60    3.90
  -8   6   9    8.70    3.40
   8   6  -9    7.70    3.10
  -7  -6   9  295.17   14.20
   7  -6  -9  309.37   14.50
   7   6  -9  304.77   14.10
  -7   6   9  322.67   14.70
  -6  -6   9   69.19    6.60
   6  -6  -9   82.59    6.50
  -6   6   9   78.89    6.80
   6   6  -9   77.89    6.20
   5  -6  -9  306.17   13.60
  -5  -6   9  305.17   13.70
  -5   6   9  309.57   13.90
   5   6  -9  308.37   13.50
  -4  -6   9  291.47   13.00
   4  -6  -9  292.67   12.70
  -4   6   9  287.67   13.10
   4   6  -9  280.87   12.70
  -3  -6   9  120.79    7.40
   3  -6  -9  104.09    6.80
   3   6  -9  110.59    6.70
  -3   6   9  115.29    6.80
  -3   6   9  107.49    7.30
  -2  -6   9  505.65   19.20
  -2   6   9  488.75   18.90
   2   6  -9  484.25   18.80
  -2   6   9  487.75   19.20
  -1  -6   9   19.90    3.50
  -1   6   9   15.80    2.90
   1   6  -9   28.20    3.50
  -1   6   9   15.70    3.00
   0  -6   9  543.45   20.50
   0   6  -9  540.65   20.20
   0   6   9  548.05   20.60
   0   6   9  520.95   20.10
   1  -6   9   76.99    6.40
   1   6   9   75.59    6.00
   1   6   9   80.09    5.60
  -1   6  -9   76.39    5.50
   2  -6   9  161.78    9.10
   2   6   9  161.18    8.80
  -2   6  -9  164.78    8.10
   2   6   9  157.18    8.10
   3  -6   9  139.09    8.30
   3   6   9  126.79    8.00
   3   6   9  148.49    7.80
   4  -6   9   32.60    4.60
   4   6   9   35.10    5.00
   5  -6   9  169.78    9.70
   5   6   9  176.88    9.70
   6  -6   9   27.90    4.60
   6   6   9   25.40    3.90
   7  -6   9   85.99    7.50
   7   6   9   86.39    7.10
   8  -6   9   65.79    7.20
   8   6   9   67.69    6.60
  -8  -7   9   -1.10    3.40
   8  -7  -9    2.70    3.30
   8   7  -9    2.00    2.60
  -8   7   9    1.20    2.80
   7  -7  -9    4.80    3.20
  -7  -7   9    5.20    3.70
  -7   7   9    0.00    2.60
   7   7  -9    3.50    2.70
   6  -7  -9    7.10    3.10
  -6  -7   9    4.00    3.40
   6   7  -9    3.10    2.60
  -6   7   9    7.50    2.90
   5  -7  -9   53.69    5.60
  -5  -7   9   53.39    6.20
  -5   7   9   56.59    6.20
  -5   7   9   46.20    5.40
   5   7  -9   49.30    5.30
  -4  -7   9    0.20    2.90
   4   7  -9   -0.20    2.40
  -4   7   9    2.30    2.30
  -4   7   9    3.90    2.60
  -3  -7   9   46.60    5.70
  -3   7   9   46.00    4.90
   3   7  -9   45.40    4.80
  -3   7   9   46.30    5.50
  -2  -7   9    2.90    3.00
  -2   7   9    4.60    2.30
   2   7  -9    3.90    2.70
  -2   7   9    4.40    2.40
  -1  -7   9  124.89    7.80
  -1   7   9  120.39    7.50
  -1   7   9  116.19    7.10
   1   7  -9  122.49    7.20
   0  -7   9   18.30    3.60
   0   7   9   19.10    3.20
   0   7   9   15.50    3.00
   0   7  -9   21.90    3.40
   1  -7   9   39.80    5.60
  -1   7  -9   35.90    4.70
   1   7   9   40.40    4.50
   1   7   9   37.10    5.00
   2  -7   9   82.59    7.00
   2   7   9   91.89    6.40
   2   7   9   87.19    6.60
   3  -7   9   13.20    3.70
   3   7   9    9.70    2.90
   3   7   9   13.00    3.00
   4  -7   9   76.59    6.80
   4   7   9   70.89    6.50
   5  -7   9   10.80    4.00
   5   7   9   11.50    3.20
   6  -7   9   65.59    6.80
   6   7   9   65.59    6.50
   7  -7   9    8.80    4.10
   7   7   9    7.90    3.50
   7  -8  -9  119.99    8.70
  -7   8   9  127.79    8.80
  -7   8   9  102.89    8.10
   7   8  -9  108.19    7.80
  -6  -8   9   18.20    4.50
  -6   8   9   15.90    3.70
  -6   8   9   17.60    3.60
   6   8  -9   20.20    3.70
  -5  -8   9   78.79    7.10
  -5   8   9   77.69    6.90
   5   8  -9   69.89    6.20
  -5   8   9   70.39    6.40
  -4  -8   9   24.60    4.40
  -4   8   9   23.50    3.90
  -4   8   9   24.00    3.70
   4   8  -9   26.60    4.00
  -3  -8   9   18.40    4.10
   3   8  -9   18.50    3.70
  -3   8   9   19.80    3.50
  -3   8   9   19.30    3.40
  -2  -8   9   77.19    6.80
  -2   8   9   77.89    6.50
   2   8  -9   79.29    6.30
  -2   8   9   70.49    6.00
  -1  -8   9   40.80    5.60
  -1   8   9   33.70    4.20
  -1   8   9   43.70    4.90
   1   8  -9   43.70    5.00
   0  -8   9  273.77   12.80
   0   8  -9  283.27   12.50
   0   8   9  265.77   12.30
   0   8   9  250.87   12.30
   1  -8   9   87.49    7.50
  -1   8  -9   97.39    6.90
   1   8   9   95.39    7.00
   1   8   9   93.49    6.70
   2  -8   9   99.29    7.90
   2   8   9  114.29    7.80
   2   8   9  119.19    7.50
   3  -8   9  149.19    9.40
   3   8   9  141.39    8.70
   3   8   9  157.08    9.00
   4  -8   9   22.20    4.40
   4   8   9   17.40    3.70
   5  -8   9   56.49    6.70
   5   8   9   48.10    6.00
   6  -8   9   10.80    4.50
  -5  -9   9   70.59    7.30
   5   9  -9   72.49    6.50
  -5   9   9   66.59    6.50
  -4  -9   9   71.69    7.20
   4   9  -9   71.59    6.30
  -4   9   9   66.39    6.30
  -3  -9   9    6.30    3.80
  -3   9   9   11.80    3.30
   3   9  -9    7.60    3.40
  -2  -9   9  274.67   13.00
  -2   9   9  225.78   12.00
   2   9  -9  253.27   12.30
  -1  -9   9   -0.10    3.40
   1   9  -9   -1.40    2.90
  -1   9   9   -0.60    2.30
   0  -9   9  136.59    8.90
   0   9  -9  133.49    8.30
   0   9   9  119.19    8.00
   1  -9   9   94.79    7.90
  -1   9  -9   83.79    7.00
   1   9   9   88.09    6.90
   2  -9   9  130.89    9.10
   2   9   9  115.59    8.10
   3  -9   9  133.59    9.30
   4  -9   9    5.30    4.10
  -2 -10   9   48.60    6.70
   2  10  -9   42.60    5.90
  -2  10   9   45.00    5.70
  -1 -10   9    6.30    4.00
  -1  10   9    6.70    3.10
   1  10  -9    8.40    3.80
   0 -10   9   13.10    4.60
   0  10   9   12.40    3.60
   0  10  -9   10.00    3.90
   1 -10   9    6.10    4.20
   1  10   9    4.10    3.20
   2  10   9    9.10    3.60
  10   0 -10    7.30    3.90
   9   0 -10  564.34   23.00
   8   0 -10    6.00    2.80
   7   0 -10 1711.13   58.69
  -5   0  10 1332.27   42.00
   5   0 -10 1231.98   43.00
  -5   0  10 1206.98   43.50
  -4   0  10   38.90    4.50
  -4   0  10   38.20    4.00
   4   0 -10   33.80    3.80
   3   0 -10  951.80   32.90
  -3   0  10  989.60   33.80
  -3   0  10  959.90   32.30
   2   0 -10  418.86   15.20
  -2   0  10  419.16   15.20
  -2   0  10  430.86   16.30
   1   0 -10  185.18    7.00
  -1   0  10  171.58    7.60
  -1   0  10  172.88    8.40
   0   0  10  534.35   18.70
   0   0 -10  466.35   16.70
   0   0  10  486.05   17.60
   1   0  10 1088.19   37.40
   1   0  10 1144.19   38.60
   2   0  10  358.86   14.40
   2   0  10  368.16   14.00
   3   0  10 1973.60   66.79
   3   0  10 1998.60   65.59
   4   0  10   21.30    3.20
   4   0  10   23.10    3.30
   5   0  10 1364.66   47.40
   6   0  10  107.29    7.30
   7   0  10  425.86   17.80
   8   0  10  174.78    9.80
   9   0  10   68.79    6.60
  10  -1 -10   25.50    4.90
  10   1 -10   22.80    4.60
   9  -1 -10    8.00    3.60
   9   1 -10    2.30    3.30
   8  -1 -10    3.70    2.70
   8   1 -10    7.90    2.80
  -7  -1  10    3.60    2.60
   7  -1 -10    2.30    2.60
   7   1 -10   -2.30    2.60
   6  -1 -10  292.97   12.50
  -6  -1  10  295.17   12.10
  -6   1  10  266.17   13.00
   6   1 -10  292.77   12.40
  -5  -1  10   24.70    3.30
  -5  -1  10   22.30    3.30
  -5   1  10   18.50    3.20
  -4  -1  10  497.85   18.70
   4  -1 -10  497.65   18.20
  -4  -1  10  514.05   18.00
   4   1 -10  495.15   18.30
  -4   1  10  468.25   18.90
   3  -1 -10    4.30    1.50
  -3  -1  10   -0.10    1.90
  -3  -1  10    0.80    2.00
   3   1 -10    3.10    1.50
  -3   1  10    0.00    2.10
  -3   1  10   -1.60    1.40
   2  -1 -10 2251.07   73.79
  -2  -1  10 2317.67   74.69
  -2  -1  10 2318.57   73.29
   2   1 -10 2192.38   73.69
  -2   1  10 2250.37   72.59
  -2   1  10 2141.39   74.79
   1  -1 -10   20.10    2.40
  -1  -1  10   14.60    2.50
  -1  -1  10   15.10    2.50
  -1   1  10   16.30    2.70
  -1   1  10   19.50    2.20
   1   1 -10   17.00    2.30
   0  -1 -10 1032.40   36.10
   0  -1  10 1075.59   36.80
   0  -1  10 1169.68   37.70
   0   1  10 1130.19   37.90
   0   1  10 1114.79   36.30
   0   1 -10 1042.70   36.00
   1  -1  10  154.38    7.70
   1  -1  10  161.98    8.00
   1   1  10  159.18    7.40
   1   1  10  169.48    8.30
   2  -1  10  745.63   27.20
   2  -1  10  764.42   26.70
   2   1  10  766.82   26.30
   2   1  10  772.72   27.50
   3  -1  10  250.27   11.10
   3  -1  10  247.58   10.90
   3   1  10  265.47   11.40
   3   1  10  262.07   10.80
   4  -1  10   37.50    4.80
   4  -1  10   37.90    4.80
   4   1  10   32.80    4.60
   5  -1  10  373.06   15.40
   5  -1  10  380.26   15.60
   5   1  10  364.96   15.60
   6  -1  10    2.00    2.60
   6  -1  10   -1.30    3.10
   6   1  10    1.60    2.60
   7  -1  10   77.39    6.70
   7   1  10   80.39    6.50
   8  -1  10   58.39    6.00
   8   1  10   56.99    5.80
   9  -1  10   25.30    4.30
   9   1  10   21.40    3.90
  10  -2 -10   -2.80    3.00
  10   2 -10    1.50    3.10
  -9  -2  10   30.60    4.70
   9  -2 -10   40.00    6.00
   9   2 -10   21.10    4.40
   8  -2 -10   33.90    5.20
  -8  -2  10   27.30    4.30
   8   2 -10   36.90    4.70
   7  -2 -10   56.19    5.70
  -7  -2  10   50.19    6.00
   7   2 -10   41.70    5.50
   6  -2 -10    1.00    2.00
  -6  -2  10   -4.40    2.30
  -6   2  10   -3.90    2.20
   6   2 -10    1.50    2.10
  -5  -2  10  131.99    7.40
  -5  -2  10  120.89    7.20
   5  -2 -10  121.99    7.00
  -5   2  10  124.39    7.80
   5   2 -10  126.49    7.10
  -4  -2  10   66.89    5.10
   4  -2 -10   61.49    4.70
  -4  -2  10   65.29    5.20
  -4   2  10   58.29    5.50
   4   2 -10   60.79    4.70
  -3  -2  10    3.50    2.10
   3  -2 -10    3.60    1.60
  -3  -2  10    4.00    1.90
   3   2 -10    5.30    1.60
  -3   2  10    3.60    2.10
  -2  -2  10   61.99    4.90
   2  -2 -10   61.89    4.10
  -2  -2  10   60.99    4.70
   2   2 -10   56.59    4.00
  -2   2  10   60.49    5.20
  -1  -2  10    1.40    1.70
  -1  -2  10   -1.20    1.80
   1  -2 -10    2.70    1.10
  -1   2  10    2.30    1.40
  -1   2  10   -0.60    1.70
   1   2 -10    0.90    1.00
   0  -2  10    8.90    2.30
   0  -2 -10    6.70    1.30
   0  -2  10    4.80    2.20
   0   2  10   10.10    2.40
   0   2  10   11.30    1.80
   1  -2  10   66.29    5.00
   1  -2  10   67.09    5.40
   1   2  10   64.99    4.50
   1   2  10   70.39    3.70
   1   2  10   71.49    5.60
   2  -2  10  120.09    6.70
   2  -2  10  112.19    6.60
   2   2  10  106.79    6.80
   3  -2  10  123.99    7.00
   3  -2  10  114.59    6.80
   3   2  10  110.29    7.00
   4  -2  10   -3.30    2.10
   4   2  10    0.00    2.20
   5  -2  10   24.70    3.60
   5   2  10   35.00    5.00
   6  -2  10    2.30    3.10
   6  -2  10    0.10    2.40
   6   2  10    2.30    2.60
   7  -2  10    5.80    2.90
   7   2  10    3.90    2.70
   8  -2  10   14.00    3.50
   8   2  10   13.70    3.30
   9  -2  10    0.30    3.10
   9   2  10    2.00    2.90
  10  -3 -10   90.39    8.20
 -10  -3  10   81.09    7.90
  10   3 -10   96.69    7.80
   9  -3 -10   23.30    4.60
  -9  -3  10   22.30    4.40
   9   3 -10   18.80    4.40
  -8  -3  10   25.80    4.30
   8  -3 -10   17.00    3.80
   8   3 -10   23.70    4.00
   7  -3 -10   24.60    3.90
  -7  -3  10   25.90    4.20
   7   3 -10   20.50    3.80
  -7   3  10   16.20    3.50
   6  -3 -10  180.28    9.10
  -6  -3  10  163.68    8.70
  -6  -3  10  179.38    9.20
   6   3 -10  179.98    9.20
  -6   3  10  170.38    9.70
  -5  -3  10   17.50    2.80
   5  -3 -10    9.10    2.60
  -5  -3  10   15.50    3.20
   5   3 -10   12.10    2.70
  -5   3  10   11.10    2.90
  -4  -3  10 1051.69   37.20
  -4  -3  10 1096.79   37.20
   4  -3 -10 1110.09   37.60
   4   3 -10 1105.89   37.70
  -4   3  10 1056.29   38.20
  -3  -3  10  132.39    7.10
   3  -3 -10  139.49    7.00
  -3  -3  10  138.49    7.60
  -3   3  10  127.89    7.90
   3   3 -10  155.18    7.10
   2  -3 -10 2352.76   77.29
  -2  -3  10 2375.06   77.29
  -2  -3  10 2372.06   76.89
   2   3 -10 2378.66   77.19
  -2   3  10 2220.28   78.09
  -1  -3  10   -3.40    1.70
  -1  -3  10    2.60    2.30
   1  -3 -10    1.90    1.30
   1   3 -10    2.20    1.40
  -1   3  10   -3.60    1.80
   0  -3  10 1769.62   58.99
   0  -3  10 1851.81   58.89
   0   3  10 1787.72   59.79
   0   3 -10 1709.03   58.19
   0   3  10 1732.13   58.49
   1  -3  10   68.19    5.50
   1  -3  10   68.09    5.10
   1   3  10   71.29    5.70
   1   3  10   81.99    4.30
   2  -3  10  792.82   28.60
   2  -3  10  837.52   28.60
   2   3  10  801.82   29.20
   3  -3  10  450.85   16.90
   3  -3  10  412.76   16.60
   3   3  10  423.36   17.20
   4  -3  10   -1.10    2.10
   4  -3  10    1.60    2.90
   4   3  10    5.20    2.60
   5  -3  10  362.16   15.20
   5  -3  10  357.36   15.00
   5   3  10  356.26   15.30
   6  -3  10   36.50    5.00
   6  -3  10   36.10    4.80
   6   3  10   33.80    5.00
   7  -3  10  199.18   11.10
   7  -3  10  257.57   11.80
   7   3  10  210.98   11.10
   8  -3  10  137.49    9.10
   8   3  10  142.09    8.80
   9  -3  10   11.10    3.70
   9   3  10   19.60    3.90
   9  -4 -10  359.66   16.70
  -9  -4  10  337.27   16.00
   9   4 -10  341.27   16.30
  -9   4  10  364.76   17.00
  -8  -4  10   -5.50    2.90
   8  -4 -10    0.00    2.80
   8   4 -10   -1.30    2.20
  -8   4  10   -0.60    2.70
  -7  -4  10  757.32   28.20
   7  -4 -10  776.12   28.90
  -7   4  10  733.23   29.10
   7   4 -10  778.92   28.90
  -6  -4  10   11.30    3.40
   6  -4 -10    9.00    2.90
  -6   4  10    8.70    3.00
   6   4 -10   12.50    3.10
  -5  -4  10  740.83   26.50
   5  -4 -10  709.63   26.60
  -5   4  10  705.53   27.10
   5   4 -10  738.53   26.70
  -4  -4  10   64.19    5.60
   4  -4 -10   58.49    5.00
  -4   4  10   56.09    5.60
   4   4 -10   58.59    4.90
  -3  -4  10  284.37   12.00
   3  -4 -10  272.07   11.50
  -3   4  10  264.87   12.30
   3   4 -10  285.97   11.60
  -2  -4  10  160.68    8.20
   2  -4 -10  148.99    7.40
   2   4 -10  167.98    7.70
  -2   4  10  156.98    8.50
  -1  -4  10   20.70    3.20
  -1  -4  10   22.00    2.60
   1  -4 -10   22.80    2.70
   1   4 -10   25.90    3.60
  -1   4  10   18.40    3.00
  -1   4  10   21.30    2.80
   0  -4  10  264.87   11.20
   0  -4  10  298.27   12.20
   0   4 -10  290.37   11.00
   0   4  10  279.67   12.30
   0   4  10  271.97   11.10
   1  -4  10  438.76   16.10
   1  -4  10  441.56   16.90
   1   4  10  428.26   15.80
   1   4  10  422.26   17.10
   2  -4  10   82.49    5.50
   2  -4  10   88.39    6.50
   2   4  10   89.49    6.40
   3  -4  10 1053.59   36.70
   3  -4  10 1095.69   37.20
   3   4  10 1037.90   37.60
   4  -4  10    1.10    2.90
   4  -4  10   -1.10    2.10
   4   4  10    0.60    2.40
   5  -4  10  650.53   23.70
   5  -4  10  607.74   23.20
   5   4  10  602.94   23.80
   6  -4  10   37.90    5.80
   6  -4  10   40.30    5.10
   6   4  10   38.60    5.20
   7  -4  10  309.67   14.50
   7  -4  10  329.47   14.90
   7   4  10  332.57   14.80
   8  -4  10  119.79    8.40
   8   4  10  114.49    8.10
   9  -4  10   40.60    6.30
   9   4  10   55.69    6.20
  -9  -5  10    5.60    4.00
   9  -5 -10    6.20    3.60
  -9   5  10    3.30    3.40
   9   5 -10    2.20    3.10
  -8  -5  10   20.10    4.30
   8  -5 -10   17.80    4.00
  -8   5  10   17.30    3.90
   8   5 -10   22.30    4.10
   7  -5 -10    1.30    2.80
  -7  -5  10    2.00    3.10
  -7   5  10    1.30    2.60
   7   5 -10    1.90    2.40
  -6  -5  10   33.30    4.80
   6  -5 -10   44.30    5.20
   6   5 -10   35.60    4.80
  -6   5  10   42.40    5.60
   5  -5 -10   15.90    3.20
  -5  -5  10   28.70    4.30
  -5   5  10   20.60    3.50
   5   5 -10   17.60    3.20
   4  -5 -10  139.49    7.70
  -4  -5  10  146.29    8.30
   4   5 -10  133.49    7.70
  -4   5  10  129.99    8.40
  -3  -5  10   79.89    6.30
   3  -5 -10   77.09    5.40
   3   5 -10   78.29    5.50
  -3   5  10   68.89    6.20
   2  -5 -10  112.09    6.30
  -2  -5  10  116.09    7.10
  -2   5  10  109.19    7.20
  -2   5  10  103.89    6.30
   2   5 -10  115.19    6.60
  -1  -5  10   77.49    6.10
  -1   5  10   78.29    5.40
   1   5 -10   90.99    5.50
  -1   5  10   80.59    6.20
   0  -5  10  202.88    9.70
   0   5 -10  191.98    8.70
   0   5  10  186.48    8.80
   0   5  10  195.48    9.80
   1  -5  10  126.79    7.70
   1   5  10  123.99    6.60
  -1   5 -10  126.99    6.60
   1   5  10  124.69    7.60
   2  -5  10  118.79    7.70
   2   5  10  125.19    7.70
   2   5  10  129.49    6.70
   3  -5  10   50.89    5.70
   3   5  10   51.79    5.60
   4  -5  10   88.99    7.10
   4   5  10   89.59    6.90
   5  -5  10   28.60    4.40
   5   5  10   24.70    3.90
   6  -5  10   13.40    4.10
   6   5  10   16.00    3.50
   7  -5  10   16.90    4.30
   7   5  10   12.50    3.40
   8  -5  10    2.60    3.80
   8   5  10    1.00    3.00
  -8  -6  10   21.10    4.80
   8  -6 -10   18.00    4.20
  -8   6  10   20.40    4.10
   8   6 -10   24.00    4.30
  -7  -6  10  187.78   11.00
   7  -6 -10  210.88   11.20
  -7   6  10  208.38   11.50
   7   6 -10  197.18   10.70
  -6  -6  10   20.30    4.20
   6  -6 -10   22.90    3.90
  -6   6  10   21.10    3.80
   6   6 -10   22.90    3.80
  -5  -6  10  161.18    9.50
   5  -6 -10  173.48    9.20
   5   6 -10  174.38    9.10
  -5   6  10  157.68    9.50
  -4  -6  10   13.20    3.40
   4  -6 -10   10.40    2.90
   4   6 -10   13.90    3.10
  -4   6  10   12.10    3.00
  -3  -6  10  113.19    7.50
   3  -6 -10  114.49    7.00
  -3   6  10  112.29    6.90
  -3   6  10  103.39    7.40
   3   6 -10  111.59    6.90
  -2  -6  10   42.70    5.30
  -2   6  10   39.50    4.50
  -2   6  10   35.50    4.90
   2   6 -10   35.80    4.40
  -1  -6  10   41.30    5.10
  -1   6  10   40.90    5.00
  -1   6  10   38.60    4.30
   1   6 -10   39.90    4.30
   0  -6  10   88.39    6.50
   0   6 -10   84.69    5.70
   0   6  10   78.09    5.60
   0   6  10   83.59    6.50
   1  -6  10  105.59    7.50
   1   6  10  107.99    7.20
  -1   6 -10  107.59    6.50
   1   6  10  110.49    6.50
   2  -6  10  132.69    8.30
   2   6  10  143.29    7.40
   2   6  10  122.59    8.00
   3  -6  10  377.06   16.00
   3   6  10  379.06   16.10
   4  -6  10   26.90    4.50
   4   6  10   22.00    3.80
   5  -6  10   79.39    7.10
   5   6  10   75.19    6.80
   6  -6  10   -5.90    3.30
   6   6  10   -3.90    2.70
   7  -6  10   46.40    6.40
   7   6  10   48.20    6.20
  -7  -7  10   11.40    4.10
   7  -7 -10    3.80    3.30
  -7   7  10    6.90    3.10
   7   7 -10    4.40    2.80
   6  -7 -10   44.90    5.70
  -6  -7  10   35.50    5.30
   6   7 -10   48.20    5.40
  -6   7  10   51.09    6.20
  -5  -7  10   22.70    4.40
   5  -7 -10   16.40    3.50
  -5   7  10   15.80    3.50
   5   7 -10   20.50    3.70
  -5   7  10   12.40    3.40
  -4  -7  10  427.16   18.00
  -4   7  10  413.86   17.70
  -4   7  10  440.16   18.10
   4   7 -10  442.66   17.80
  -3  -7  10   16.00    3.90
  -3   7  10   18.80    3.30
  -3   7  10   13.30    3.30
   3   7 -10   21.70    3.50
  -2  -7  10  656.53   24.50
  -2   7  10  613.24   24.10
   2   7 -10  667.13   24.20
  -2   7  10  629.94   24.20
  -1  -7  10    3.40    3.20
  -1   7  10   -1.80    2.30
   1   7 -10    0.30    2.50
  -1   7  10   -1.80    1.90
   0  -7  10  701.33   26.40
   0   7  10  688.83   26.00
   0   7 -10  726.03   26.00
   0   7  10  702.53   26.30
   1  -7  10   24.60    4.50
   1   7  10   19.70    3.30
   1   7  10   19.10    3.50
   2  -7  10  254.37   12.40
   2   7  10  258.57   11.60
   2   7  10  243.08   11.80
   3  -7  10  157.28    9.50
   3   7  10  164.18    9.30
   4  -7  10   14.10    4.30
   4   7  10   15.20    3.40
   5  -7  10   99.39    8.00
   5   7  10  100.59    7.90
   6  -7  10   16.40    4.60
   6   7  10   14.40    3.60
   7   7  10   80.99    7.40
  -6  -8  10   30.50    5.10
  -6   8  10   30.90    4.70
  -6   8  10   42.60    6.10
   6   8 -10   34.70    5.00
  -5  -8  10  100.49    8.10
  -5   8  10  111.09    8.00
   5   8 -10  105.29    7.40
  -5   8  10  103.69    7.60
  -4  -8  10   23.40    4.50
  -4   8  10   23.30    3.90
   4   8 -10   21.40    3.80
  -4   8  10   17.90    3.60
  -3  -8  10   12.70    3.90
  -3   8  10   10.60    3.10
  -3   8  10    8.90    2.90
   3   8 -10   10.60    3.20
  -2  -8  10   59.29    6.30
  -2   8  10   59.29    5.60
  -2   8  10   61.89    6.00
   2   8 -10   55.09    5.70
  -1  -8  10    4.10    3.50
   1   8 -10    2.00    2.80
  -1   8  10    2.70    2.40
  -1   8  10   -0.70    2.40
   0  -8  10    5.40    3.50
   0   8  10   -1.00    2.90
   0   8  10    3.80    2.40
   0   8 -10    3.50    3.00
   1  -8  10   46.80    6.20
   1   8  10   40.20    5.60
   1   8  10   43.90    5.20
   2  -8  10    1.40    3.50
   2   8  10    1.50    3.20
   3  -8  10   87.09    7.70
   3   8  10   87.09    7.20
   4  -8  10    6.10    4.00
   4   8  10   11.30    3.90
   5  -8  10  117.79    8.90
   5   8  10  124.79    8.70
  -4  -9  10    2.10    3.70
  -4   9  10   -1.60    2.40
   4   9 -10    3.20    3.10
  -3  -9  10   57.39    6.80
  -3   9  10   59.69    6.10
   3   9 -10   63.29    6.10
  -2  -9  10    8.40    4.00
  -2   9  10   10.50    3.10
   2   9 -10   13.80    3.50
  -1  -9  10   60.49    6.70
   1   9 -10   58.99    6.20
  -1   9  10   52.69    5.80
   0  -9  10    7.10    4.00
   0   9 -10   -2.70    2.80
   0   9  10    3.00    2.50
   1  -9  10   20.70    4.80
   1   9  10   27.70    4.30
   2  -9  10    3.00    4.10
   3  -9  10    3.40    4.10
  10   0 -11   -3.40    3.00
   9   0 -11    4.10    3.30
   8   0 -11   -3.00    2.10
   7   0 -11    3.50    2.80
  -7   0  11    3.70    2.90
  -6   0  11   -1.40    2.30
   6   0 -11    1.20    1.90
  -5   0  11   21.60    3.50
  -4   0  11    0.80    2.00
  -4   0  11    3.50    1.90
   4   0 -11   -2.00    1.40
  -3   0  11   -0.70    1.60
  -3   0  11    1.10    1.90
   1   0 -11    1.50    0.90
  -1   0  11   -3.50    1.80
  -1   0  11    0.00    1.80
   0   0  11    1.20    2.00
   0   0  11    0.90    2.00
   1   0  11    1.90    2.10
   1   0  11    1.10    2.10
   2   0  11   -1.50    2.10
   2   0  11   -3.30    2.10
   3   0  11    5.70    2.50
   3   0  11    0.80    2.20
   4   0  11   -0.30    2.60
   5   0  11    8.70    3.10
   5   0  11    4.30    2.80
   7   0  11    1.20    2.70
   8   0  11    2.10    2.80
   9   0  11   -2.10    2.80
  10  -1 -11   79.89    7.70
  10   1 -11   75.49    7.50
   9  -1 -11   53.29    6.60
   9   1 -11   53.59    6.40
   8  -1 -11    2.90    2.70
   8   1 -11    3.30    2.50
  -7  -1  11  160.38    9.60
   7  -1 -11  173.08    9.40
   7   1 -11  155.78    9.30
  -7   1  11  165.58    9.80
  -6  -1  11   49.80    5.60
  -6  -1  11   66.59    5.60
   6  -1 -11   61.59    5.30
  -6   1  11   55.89    6.00
   6   1 -11   62.59    5.20
  -5  -1  11   25.60    3.40
   5  -1 -11   14.90    2.80
  -5  -1  11   20.60    3.30
   5   1 -11   18.70    2.90
  -5   1  11   20.30    3.50
  -4  -1  11 1277.07   44.00
  -4  -1  11 1302.87   42.80
   4  -1 -11 1296.27   43.50
   4   1 -11 1257.57   43.40
  -4   1  11 1247.68   44.30
  -3  -1  11    9.80    2.50
  -3  -1  11    7.50    2.30
   3   1 -11    9.70    1.80
  -3   1  11    5.10    2.40
   2  -1 -11 1362.46   44.70
  -2  -1  11 1301.67   44.50
  -2  -1  11 1353.96   45.70
  -2   1  11 1381.06   44.00
  -2   1  11 1329.97   46.00
   2   1 -11 1292.57   44.50
  -1  -1  11   12.90    2.90
  -1  -1  11   22.20    2.90
   1  -1 -11   27.50    2.70
   1   1 -11   23.40    2.50
  -1   1  11   14.30    2.90
  -1   1  11   21.10    2.50
   0  -1 -11 2515.35   87.09
   0  -1  11 2817.52   88.89
   0  -1  11 2604.84   87.29
   0   1  11 2729.93   89.09
   0   1  11 2724.33   86.89
   1  -1  11    1.00    2.20
   1  -1  11    0.70    2.10
   1   1  11    5.70    2.20
   1   1  11    1.40    2.20
   2  -1  11  390.46   14.80
   2  -1  11  366.36   15.20
   2   1  11  377.36   15.40
   2   1  11  369.76   14.30
   3  -1  11   10.50    2.60
   3  -1  11   10.20    2.80
   3   1  11   11.60    2.70
   3   1  11    5.10    2.50
   4  -1  11  102.79    7.20
   4  -1  11  102.49    7.10
   4   1  11  106.49    7.10
   5  -1  11   55.29    5.70
   5  -1  11   56.39    6.20
   5   1  11   58.09    5.80
   6  -1  11  148.19    8.80
   6  -1  11  136.19    8.50
   6   1  11  149.09    8.80
   7  -1  11   22.00    3.90
   7   1  11   19.70    3.70
   8  -1  11  118.09    8.20
   8   1  11  108.99    7.90
   9  -1  11   -2.10    2.80
   9   1  11   -0.90    2.90
  10  -2 -11    4.80    3.60
  10   2 -11   10.30    3.70
   9  -2 -11  423.16   18.90
   9   2 -11  444.66   19.20
  -8  -2  11    1.80    3.00
   8  -2 -11   -1.80    2.40
  -8   2  11    3.30    3.00
   8   2 -11    4.60    2.60
  -7  -2  11  653.63   26.10
  -7  -2  11  724.23   25.70
   7  -2 -11  710.13   26.20
  -7   2  11  653.13   26.70
   7   2 -11  723.63   26.50
   6  -2 -11   76.49    5.80
  -6  -2  11   76.19    6.30
  -6  -2  11   72.09    6.30
   6   2 -11   79.69    5.80
  -6   2  11   65.69    6.60
  -5  -2  11 1191.38   39.80
   5  -2 -11 1194.78   40.30
  -5  -2  11 1125.49   40.30
   5   2 -11 1169.18   40.30
  -5   2  11 1119.19   41.00
  -4  -2  11   79.49    5.80
  -4  -2  11   85.09    6.00
   4  -2 -11   83.49    5.40
  -4   2  11   77.99    6.30
   4   2 -11   72.29    5.40
  -3  -2  11  133.89    7.40
  -3  -2  11  138.89    7.20
   3  -2 -11  142.29    6.80
   3   2 -11  142.79    6.70
  -3   2  11  125.59    7.80
   2  -2 -11   75.39    4.80
  -2  -2  11   84.49    5.80
  -2  -2  11   76.19    5.60
  -2   2  11  100.79    6.50
   2   2 -11   75.49    4.70
  -1  -2  11    0.00    1.90
   1  -2 -11    4.50    1.40
  -1   2  11    0.60    2.00
   1   2 -11    3.70    1.20
   0  -2  11   11.60    2.80
   0  -2  11   17.00    3.10
   0   2  11   14.90    3.10
   1  -2  11 1578.74   52.69
   1  -2  11 1541.05   53.29
   1   2  11 1606.34   53.79
   2  -2  11    2.30    2.50
   2  -2  11    0.90    2.10
   2   2  11    3.00    2.40
   3  -2  11 1318.87   46.40
   3  -2  11 1375.36   45.80
   3   2  11 1336.47   46.70
   4  -2  11    0.70    2.40
   4  -2  11   -0.90    2.90
   4   2  11    2.50    2.50
   5  -2  11 1576.64   52.79
   5  -2  11 1532.85   53.39
   5   2  11 1528.45   53.69
   6  -2  11   16.90    3.80
   6  -2  11   13.70    3.40
   6   2  11   10.60    3.30
   7  -2  11  372.06   16.20
   7   2  11  363.36   16.10
   8  -2  11   71.49    6.70
   8   2  11   74.09    6.70
   9  -2  11   86.29    7.80
   9   2  11   92.89    7.50
   9  -3 -11   18.00    4.30
  -9  -3  11   17.60    4.20
  -9   3  11   14.20    3.90
   9   3 -11   15.90    4.30
   8  -3 -11    1.80    2.80
  -8  -3  11   -1.90    3.00
  -8   3  11   -2.60    2.60
   8   3 -11    5.90    2.80
  -7  -3  11   51.09    6.10
   7  -3 -11   46.60    5.70
  -7  -3  11   48.10    5.60
   7   3 -11   46.30    5.70
  -7   3  11   47.80    6.30
   6  -3 -11  189.68    9.60
  -6  -3  11  192.38    9.80
  -6  -3  11  188.48    9.60
  -6   3  11  177.38   10.40
   6   3 -11  195.18    9.80
   5  -3 -11   34.90    4.50
  -5  -3  11   41.10    5.10
  -5  -3  11   35.00    4.60
   5   3 -11   32.50    4.20
  -5   3  11   34.80    5.30
  -4  -3  11  254.37   11.10
  -4  -3  11  275.87   11.60
   4  -3 -11  247.38   11.00
   4   3 -11  245.08   11.00
  -4   3  11  252.57   12.00
   3  -3 -11   50.79    4.20
  -3  -3  11   34.00    4.70
  -3  -3  11   39.00    4.80
   3   3 -11   46.00    4.10
  -3   3  11   36.50    5.20
  -2  -3  11  656.43   23.50
   2  -3 -11  639.14   23.20
  -2  -3  11  672.33   23.60
  -2   3  11  634.64   24.30
   2   3 -11  665.53   23.10
  -1  -3  11   26.10    3.10
   1  -3 -11   31.10    3.10
  -1  -3  11   27.20    3.40
   1   3 -11   36.90    3.30
  -1   3  11   24.80    3.50
   0  -3  11  478.15   17.50
   0  -3  11  481.25   17.80
   0   3  11  440.06   16.60
   0   3  11  462.15   18.30
   1  -3  11   25.40    3.30
   1  -3  11   37.20    4.90
   1   3  11   36.70    5.00
   2  -3  11  221.28   10.40
   2  -3  11  244.48   10.90
   2   3  11  241.48   11.20
   3  -3  11    5.30    2.50
   3  -3  11   11.50    3.30
   3   3  11   13.30    3.10
   4  -3  11   25.30    3.50
   4  -3  11   27.40    4.20
   4   3  11   29.50    4.00
   5  -3  11    6.90    2.90
   5  -3  11   12.70    3.70
   5   3  11   11.70    3.10
   6  -3  11    1.30    3.20
   6  -3  11    0.50    2.40
   6   3  11   -0.10    2.70
   7  -3  11   10.20    3.90
   7  -3  11    1.60    2.80
   7   3  11    0.60    2.90
   8  -3  11   22.40    4.20
   8   3  11   16.40    3.70
   9  -3  11   -3.60    2.80
   9   3  11   -3.50    2.80
   9  -4 -11   60.19    7.00
  -9  -4  11   36.40    5.60
   9   4 -11   48.80    6.40
  -9   4  11   48.70    7.00
   8  -4 -11   10.70    3.60
  -8  -4  11    7.80    3.80
   8   4 -11   12.10    3.40
  -8   4  11    9.00    3.60
   7  -4 -11   77.59    6.80
  -7  -4  11   73.09    7.00
  -7   4  11   62.19    6.90
   7   4 -11   71.39    6.30
  -6  -4  11   10.40    3.60
   6  -4 -11   18.20    3.40
  -6   4  11   10.70    3.30
   6   4 -11   10.30    3.00
   5  -4 -11  293.67   12.90
  -5  -4  11  292.87   13.10
   5   4 -11  297.07   12.90
  -5   4  11  294.87   13.80
  -4  -4  11   65.59    6.10
   4  -4 -11   68.29    5.40
  -4   4  11   66.39    6.30
   4   4 -11   65.89    5.30
   3  -4 -11   53.59    4.50
  -3  -4  11   47.70    5.30
   3   4 -11   54.79    4.50
  -3   4  11   63.89    5.80
   2  -4 -11    6.10    1.90
  -2  -4  11    3.20    2.60
  -2   4  11    4.70    2.40
   2   4 -11    2.90    1.90
  -1  -4  11   -1.80    2.20
  -1   4  11   -0.50    2.10
  -1   4  11    0.20    1.60
   1   4 -11   -0.30    1.70
   0  -4  11    2.30    2.60
   0   4 -11    3.00    1.70
   0   4  11   -2.40    2.30
   0   4  11    1.50    1.60
   1  -4  11  123.09    7.60
   1   4  11  134.59    7.90
   2  -4  11   47.70    5.10
   2  -4  11   70.89    5.90
   2   4  11   62.59    5.90
   3  -4  11  202.38    9.70
   3  -4  11  203.48   10.30
   3   4  11  204.48   10.50
   4  -4  11    6.20    2.60
   4  -4  11   10.90    3.50
   4   4  11   11.00    3.30
   5  -4  11  148.79    8.50
   5  -4  11  150.48    9.00
   5   4  11  144.39    9.00
   6  -4  11    7.60    3.80
   6  -4  11    8.20    3.00
   6   4  11    8.80    3.40
   7  -4  11   13.80    4.30
   7  -4  11   10.10    3.40
   7   4  11   11.80    3.40
   8  -4  11    1.40    2.90
   8  -4  11    0.40    3.80
   8   4  11    0.90    3.00
   8  -5 -11    1.00    3.10
  -8  -5  11    0.10    3.60
  -8   5  11    2.50    3.10
   8   5 -11   -0.20    2.60
  -7  -5  11   32.50    5.00
   7  -5 -11   44.00    5.70
   7   5 -11   41.10    5.30
  -7   5  11   28.20    4.40
  -6  -5  11   42.60    5.80
   6  -5 -11   44.30    5.40
  -6   5  11   51.29    6.00
   6   5 -11   56.59    5.60
   5  -5 -11   42.40    5.00
  -5  -5  11   48.00    5.90
   5   5 -11   46.50    4.90
  -5   5  11   43.50    5.80
  -4  -5  11  690.33   25.70
   4  -5 -11  691.13   25.40
   4   5 -11  695.33   25.50
  -4   5  11  675.53   26.20
  -3  -5  11    1.60    2.90
   3  -5 -11    7.70    2.30
   3   5 -11    4.90    2.30
  -3   5  11   -0.20    2.80
   2  -5 -11 1212.48   41.50
  -2  -5  11 1252.97   41.80
  -2   5  11 1157.88   42.30
  -2   5  11 1142.39   41.50
   2   5 -11 1264.37   41.60
  -1  -5  11   -3.20    2.50
  -1   5  11    0.60    1.80
  -1   5  11   -4.60    2.30
   1   5 -11    3.70    2.10
   0  -5  11 1232.68   41.50
   0   5  11 1168.88   41.80
   0   5  11 1173.78   40.80
   1  -5  11   18.50    3.80
   1   5  11   21.30    3.50
   2  -5  11  496.55   19.20
   2   5  11  469.65   19.20
   3  -5  11   31.00    4.40
   3   5  11   24.70    4.00
   4  -5  11   21.30    4.10
   4   5  11   17.10    3.50
   5  -5  11    2.70    3.60
   5   5  11    1.20    3.00
   6  -5  11   66.99    7.00
   6   5  11   66.79    6.60
   7  -5  11   32.60    5.20
   7   5  11   29.10    4.40
   8  -5  11  131.19    9.30
   8   5  11  121.89    8.80
   8  -6 -11    0.10    3.00
  -8  -6  11   -3.20    3.40
  -8   6  11   -2.30    2.70
   8   6 -11   -3.20    2.50
  -7  -6  11  224.58   12.10
   7  -6 -11  217.98   11.80
  -7   6  11  225.08   12.40
   7   6 -11  236.58   11.80
   6  -6 -11   -1.00    2.50
  -6  -6  11   -2.60    3.30
  -6   6  11   -0.90    2.50
   6   6 -11   -0.80    2.30
  -5  -6  11  175.98    9.80
   5  -6 -11  182.68    9.30
   5   6 -11  150.18    9.00
  -5   6  11  165.68    9.90
  -4  -6  11    3.60    3.30
   4  -6 -11    4.70    2.50
  -4   6  11    9.30    3.00
   4   6 -11    3.80    2.60
   3  -6 -11   55.09    5.30
  -3  -6  11   60.99    6.00
  -3   6  11   65.39    6.20
   3   6 -11   53.89    5.10
  -3   6  11   52.89    5.20
  -2  -6  11   17.00    3.60
  -2   6  11   10.70    2.70
   2   6 -11   10.80    2.80
  -2   6  11   11.50    2.90
  -1  -6  11   52.29    5.70
  -1   6  11   51.29    4.70
  -1   6  11   50.29    5.50
   1   6 -11   54.89    4.90
   0  -6  11    6.60    3.30
   0   6  11    7.40    3.00
   0   6  11    7.90    2.40
   1  -6  11  154.98    9.20
   1   6  11  154.38    9.10
   1   6  11  170.98    8.30
   2  -6  11   12.80    3.90
   2   6  11   12.70    3.60
   3  -6  11  538.05   20.90
   3   6  11  505.85   20.90
   4  -6  11   25.80    4.50
   4   6  11   18.60    3.70
   5  -6  11  352.06   15.70
   5   6  11  335.77   15.60
   6  -6  11   10.10    4.20
   6   6  11    9.70    3.80
   7  -6  11  187.68   11.10
   7   6  11  191.18   11.00
   7  -7 -11    0.50    3.10
  -7  -7  11   -2.60    3.50
   7   7 -11    3.30    2.70
  -7   7  11    1.80    2.90
   6  -7 -11   40.40    5.60
  -6  -7  11   42.50    6.30
   6   7 -11   47.00    5.40
  -6   7  11   47.80    6.30
   5  -7 -11   12.40    3.30
  -5  -7  11   12.50    4.10
  -5   7  11   11.60    3.40
  -5   7  11   12.40    3.30
   5   7 -11   11.80    3.10
  -4  -7  11   24.20    4.50
  -4   7  11   23.50    4.00
   4   7 -11   32.20    4.70
  -4   7  11   20.20    3.70
  -3  -7  11   66.79    6.70
   3   7 -11   73.19    6.00
  -3   7  11   67.19    6.30
  -3   7  11   64.29    5.80
  -2  -7  11   12.60    3.70
   2   7 -11   14.80    3.10
  -2   7  11    8.60    2.90
  -2   7  11    9.90    2.80
  -1  -7  11   60.29    6.10
  -1   7  11   57.59    5.40
   1   7 -11   65.09    5.40
  -1   7  11   52.19    5.90
   0  -7  11    9.90    3.70
   0   7  11    1.00    2.80
   0   7  11    1.90    2.20
   1  -7  11   56.09    6.40
   1   7  11   54.59    5.20
   1   7  11   59.39    6.10
   2  -7  11   16.10    4.30
   2   7  11   14.00    3.30
   3  -7  11    9.00    3.90
   3   7  11   10.70    3.20
   4  -7  11   13.70    4.40
   4   7  11   13.40    3.50
   5  -7  11    5.20    4.00
   5   7  11    0.00    3.30
   6  -7  11    9.40    4.60
   6   7  11   12.40    4.10
  -5  -8  11  125.19    9.10
  -5   8  11  112.29    8.10
  -5   8  11  122.59    8.80
   5   8 -11  126.79    8.20
  -4  -8  11   14.40    4.20
  -4   8  11   10.40    3.30
  -4   8  11   17.70    3.70
   4   8 -11   17.50    3.60
  -3  -8  11   71.79    7.00
  -3   8  11   65.19    6.40
  -3   8  11   73.99    6.30
   3   8 -11   81.09    6.50
  -2  -8  11    4.30    3.50
  -2   8  11    7.20    2.80
   2   8 -11    9.10    3.10
  -2   8  11    7.20    3.00
  -1  -8  11   -0.40    3.20
  -1   8  11    0.40    2.20
   1   8 -11   -0.50    2.80
  -1   8  11   -1.00    2.90
   0  -8  11    8.50    3.90
   0   8  11    9.40    2.90
   0   8  11   10.00    3.60
   1  -8  11   73.99    7.30
   1   8  11   83.59    7.00
   2  -8  11    6.10    4.00
   2   8  11    4.00    3.60
   3  -8  11  166.58   10.20
   3   8  11  149.99    9.60
   4  -8  11   28.10    5.10
   4   8  11   28.90    4.60
   5   8  11  120.49    9.10
  -3  -9  11    2.40    3.70
   3   9 -11    3.40    3.10
  -3   9  11    4.50    2.90
  -2  -9  11  246.48   12.90
  -2   9  11  231.68   12.10
   2   9 -11  257.27   12.30
  -1  -9  11   -0.10    3.50
  -1   9  11    1.20    2.50
   0  -9  11  242.78   12.80
   0   9  11  212.28   11.40
   1  -9  11    1.90    4.10
   2  -9  11   94.79    8.60
  10   0 -12   27.70    5.10
   9   0 -12  115.09    8.50
  -9   0  12   94.69    8.60
   8   0 -12   -0.70    2.40
  -8   0  12   -4.00    2.50
  -7   0  12  479.05   20.40
   7   0 -12  502.35   19.70
  -6   0  12  188.88   10.30
   6   0 -12  187.58    9.30
  -5   0  12  422.86   17.70
   5   0 -12  445.56   16.90
  -4   0  12  564.34   21.70
   4   0 -12  565.54   20.60
  -3   0  12  184.78    8.40
  -3   0  12  183.98    9.60
   3   0 -12  199.78    8.30
  -2   0  12  950.80   33.50
  -2   0  12  938.21   32.00
   2   0 -12  945.81   32.00
  -1   0  12   90.89    5.60
  -1   0  12   83.79    6.30
   1   0 -12   85.29    4.30
   0   0  12  356.26   14.80
   0   0  12  358.96   13.80
   1   0  12  773.42   26.70
   1   0  12  753.82   27.80
   2   0  12  256.37   11.20
   2   0  12  260.87   11.90
   3   0  12 1882.41   62.09
   3   0  12 1842.42   63.49
   4   0  12   -1.80    2.80
   4   0  12    0.40    2.60
   5   0  12  941.41   34.50
   6   0  12    3.60    2.90
   7   0  12  499.85   20.70
   8   0  12    3.90    3.10
   9   0  12   30.60    4.70
  -9  -1  12   95.79    8.50
   9  -1 -12   97.39    8.00
  -9   1  12   93.29    8.40
   9   1 -12  103.59    8.10
  -8  -1  12   -1.80    2.60
   8  -1 -12   -0.40    2.40
  -8   1  12   -5.10    2.50
   8   1 -12   -1.40    2.20
  -7  -1  12  234.48   12.10
   7  -1 -12  238.38   11.50
  -7   1  12  230.68   12.30
   7   1 -12  231.98   11.50
   6  -1 -12   76.69    5.70
  -6  -1  12   66.89    6.40
   6   1 -12   72.09    5.70
  -6   1  12   76.19    6.90
  -5  -1  12  146.49    8.40
  -5  -1  12  137.79    7.70
   5  -1 -12  136.89    7.50
  -5   1  12  135.19    8.50
   5   1 -12  149.49    7.70
  -4  -1  12  432.46   16.00
  -4  -1  12  430.26   17.00
   4  -1 -12  410.46   16.00
  -4   1  12  416.76   17.30
   4   1 -12  411.66   16.00
  -3  -1  12   47.20    5.20
  -3  -1  12   51.09    4.70
   3  -1 -12   53.19    4.10
  -3   1  12   45.00    5.30
   3   1 -12   58.79    4.10
  -2  -1  12  601.24   21.00
  -2  -1  12  583.04   21.80
   2  -1 -12  582.04   20.60
  -2   1  12  557.34   21.90
  -2   1  12  599.54   20.30
   2   1 -12  578.84   20.50
   1  -1 -12   19.50    2.60
  -1  -1  12   15.00    2.80
  -1  -1  12   13.20    2.90
  -1   1  12   16.10    2.50
   1   1 -12   21.60    2.40
  -1   1  12   11.90    2.90
   0  -1  12  801.02   28.70
   0  -1  12  849.12   29.70
   0   1  12  826.32   29.90
   0   1  12  830.42   28.30
   1  -1  12   12.10    2.80
   1  -1  12   15.30    3.00
   1   1  12   14.80    3.10
   1   1  12   23.90    3.10
   2  -1  12  259.17   11.30
   2  -1  12  255.27   11.80
   2   1  12  257.57   11.90
   2   1  12  254.27   10.90
   3  -1  12  118.69    7.40
   3  -1  12  108.09    7.40
   3   1  12  109.89    7.70
   3   1  12  123.69    7.10
   4  -1  12    4.40    2.90
   4  -1  12    5.20    3.10
   4   1  12    3.10    2.80
   5  -1  12   19.60    4.00
   5  -1  12   10.70    3.30
   5   1  12   15.20    3.50
   6  -1  12   32.50    4.70
   6  -1  12   30.50    4.40
   6   1  12   29.30    4.40
   7  -1  12   13.00    3.60
   7   1  12   13.30    3.60
   8  -1  12   96.19    7.80
   8   1  12   98.49    7.80
   9  -1  12   -1.20    3.10
   9   1  12   -1.20    3.00
   9  -2 -12    4.10    3.40
  -9  -2  12    3.60    3.10
  -9   2  12    4.20    3.40
   9   2 -12    0.10    3.30
  -8  -2  12   -4.10    2.30
   8  -2 -12   -1.00    2.40
  -8   2  12   -2.70    2.70
   8   2 -12   -0.10    2.30
  -7  -2  12   56.69    6.40
  -7  -2  12   57.09    6.30
   7  -2 -12   59.49    6.00
   7   2 -12   56.39    5.80
  -7   2  12   59.19    6.70
  -6  -2  12   15.20    3.40
  -6  -2  12   13.10    3.10
   6  -2 -12   18.80    3.20
  -6   2  12   14.80    3.70
   6   2 -12   16.80    3.20
  -5  -2  12   24.90    3.70
  -5  -2  12   37.80    4.40
  -4  -2  12    5.40    2.70
   4  -2 -12   11.40    2.40
  -4  -2  12    9.60    2.70
  -4   2  12    7.80    3.00
   4   2 -12    9.50    2.40
  -3  -2  12  165.08    8.40
   3  -2 -12  172.08    7.80
  -3  -2  12  166.18    8.60
   3   2 -12  161.58    7.60
  -3   2  12  164.28    9.10
   2  -2 -12   63.79    4.40
  -2  -2  12   63.29    5.20
  -2  -2  12   70.49    5.30
   2   2 -12   61.59    4.20
  -2   2  12   64.59    5.80
   1  -2 -12   26.90    3.00
  -1  -2  12   23.40    3.30
  -1  -2  12   25.40    3.40
  -1   2  12   21.40    3.30
   1   2 -12   30.20    2.90
   0  -2  12    3.50    2.50
   0  -2  12    1.20    2.20
   0   2  12    4.20    2.60
   0   2  12   -0.50    2.00
   1  -2  12    4.60    2.50
   1  -2  12    3.60    2.30
   1   2  12    1.90    2.40
   1   2  12    1.40    2.20
   2  -2  12   -0.30    2.50
   2  -2  12   -5.00    2.20
   2   2  12   -0.10    2.50
   3  -2  12  111.39    7.40
   3  -2  12  128.09    7.70
   3   2  12  114.89    7.80
   4  -2  12   23.80    4.10
   4  -2  12   16.20    3.70
   4   2  12   22.70    4.10
   5  -2  12   23.00    4.00
   5  -2  12   15.50    3.50
   5   2  12   21.30    3.90
   6  -2  12   -1.90    3.20
   6  -2  12   -3.10    2.60
   6   2  12    2.10    3.00
   7  -2  12   13.10    3.60
   7   2  12   16.00    3.60
   8  -2  12    5.70    3.30
   8   2  12    8.50    3.50
   9  -3 -12  188.08   11.20
  -9   3  12  174.18   11.60
   9   3 -12  192.38   11.20
   8  -3 -12   15.50    3.70
  -8  -3  12   11.20    3.90
  -8   3  12   13.10    3.90
   8   3 -12   18.50    3.80
  -7  -3  12  287.37   13.80
  -7  -3  12  311.87   13.90
   7  -3 -12  313.27   14.00
  -7   3  12  285.47   14.60
   7   3 -12  317.07   14.10
  -6  -3  12   81.79    6.50
   6  -3 -12   70.09    5.90
  -6  -3  12   67.19    6.20
   6   3 -12   74.89    6.10
  -6   3  12   66.09    6.70
   5  -3 -12  168.48    8.80
  -5  -3  12  180.48    9.30
  -5  -3  12  166.28    8.90
  -5   3  12  162.58    9.60
   5   3 -12  166.28    8.60
  -4  -3  12  303.27   12.90
  -4  -3  12  308.07   12.90
   4  -3 -12  303.07   12.60
   4   3 -12  297.67   12.50
  -4   3  12  284.77   13.60
  -3  -3  12   33.00    3.80
  -3  -3  12   44.20    5.10
   3  -3 -12   50.59    4.30
  -3   3  12   28.70    4.00
   3   3 -12   43.60    4.00
  -2  -3  12 1366.86   45.20
  -2  -3  12 1335.57   45.40
   2  -3 -12 1353.06   45.00
   2   3 -12 1327.37   44.80
  -2   3  12 1261.17   46.20
   1  -3 -12   54.99    4.00
  -1  -3  12   57.69    5.50
  -1  -3  12   44.10    5.20
  -1   3  12   42.60    5.40
   1   3 -12   63.09    4.00
   0  -3  12  817.42   29.10
   0  -3  12  829.62   29.00
   0   3  12  800.72   29.70
   1  -3  12  117.39    7.40
   1  -3  12  116.29    7.20
   1   3  12  118.89    7.70
   2  -3  12  576.94   21.50
   2  -3  12  575.14   21.50
   2   3  12  551.94   22.00
   3  -3  12  149.29    8.60
   3  -3  12  139.29    8.40
   3   3  12  149.39    8.90
   4  -3  12    4.50    2.80
   4  -3  12   -6.50    3.00
   4   3  12    1.20    2.70
   5  -3  12   19.40    3.60
   5  -3  12   32.30    4.60
   5   3  12   17.30    3.60
   6  -3  12   64.19    6.80
   6  -3  12   62.99    6.40
   6   3  12   64.99    6.50
   7  -3  12    4.70    3.00
   7  -3  12   13.30    4.20
   7   3  12   14.40    3.60
   8  -3  12  179.78   11.00
   8   3  12  193.88   11.00
   9  -4 -12   99.59    8.50
   9   4 -12  106.99    8.50
  -9   4  12  104.59    9.10
   8  -4 -12   -2.20    2.80
  -8  -4  12   -4.00    3.30
   8   4 -12    1.20    2.70
  -8   4  12   -0.80    3.00
  -7  -4  12  197.78   10.80
   7  -4 -12  192.18   10.60
   7   4 -12  198.68   10.60
  -7   4  12  191.98   11.40
   6  -4 -12   74.19    6.10
  -6  -4  12   61.09    6.40
   6   4 -12   67.49    5.90
  -6   4  12   65.69    6.80
  -5  -4  12  224.88   11.10
   5  -4 -12  219.88   10.60
   5   4 -12  236.78   10.90
  -5   4  12  208.38   11.50
   4  -4 -12  298.87   12.70
  -4  -4  12  303.87   13.20
   4   4 -12  303.07   12.80
  -4   4  12  276.97   13.60
  -3  -4  12   48.80    5.40
   3  -4 -12   47.90    4.40
  -3   4  12   38.00    5.50
   3   4 -12   53.09    4.60
  -2  -4  12  330.97   13.80
   2  -4 -12  315.47   12.90
  -2   4  12  324.17   14.20
   2   4 -12  324.47   12.90
  -1  -4  12   55.99    5.70
   1   4 -12   61.49    4.30
  -1   4  12   54.89    4.60
  -1   4  12   45.10    5.50
   0  -4  12  377.06   15.20
   0   4  12  353.06   15.40
   1  -4  12  461.65   17.90
   1   4  12  437.86   18.30
   2  -4  12   70.39    6.40
   2   4  12   65.19    6.20
   3  -4  12  799.92   28.70
   3   4  12  762.02   29.20
   4  -4  12   34.30    4.70
   4   4  12   34.50    5.30
   5  -4  12  595.34   23.20
   5   4  12  593.74   23.70
   6  -4  12    0.00    3.50
   6   4  12    2.30    3.30
   7  -4  12  242.48   12.80
   7   4  12  237.78   12.50
   8  -4  12   -1.10    3.80
   8   4  12    3.90    3.40
  -8  -5  12   29.50    5.40
   8  -5 -12   42.20    6.00
  -8   5  12   30.10    5.00
   8   5 -12   35.80    5.10
  -7  -5  12   16.10    4.20
   7  -5 -12   18.40    3.90
  -7   5  12   11.60    3.60
   7   5 -12   18.70    3.80
  -6  -5  12   59.99    6.50
   6  -5 -12   55.59    5.80
  -6   5  12   52.09    6.40
   6   5 -12   52.09    5.70
  -5  -5  12   33.60    4.70
   5  -5 -12   31.80    4.60
   5   5 -12   33.00    4.50
  -5   5  12   28.10    4.20
  -4  -5  12  107.89    7.70
   4  -5 -12  108.79    6.90
   4   5 -12  113.79    7.10
  -4   5  12  106.89    7.90
  -3  -5  12   12.10    3.50
   3  -5 -12   14.90    2.90
  -3   5  12   16.10    3.50
   3   5 -12   18.20    3.10
  -2  -5  12   58.29    6.00
   2  -5 -12   64.69    5.00
  -2   5  12   56.79    5.00
  -2   5  12   62.39    5.90
   2   5 -12   64.89    5.10
  -1  -5  12   64.79    5.90
  -1   5  12   57.49    5.90
  -1   5  12   65.69    5.00
   0  -5  12   51.59    5.90
   0   5  12   45.40    5.70
   1  -5  12    0.40    3.00
   1   5  12    1.10    2.80
   2  -5  12    9.50    3.50
   2   5  12   10.30    3.20
   3  -5  12   11.70    3.80
   3   5  12    9.10    3.20
   4  -5  12   -2.50    3.30
   4   5  12    7.60    3.40
   5  -5  12   26.50    4.70
   5   5  12   19.20    4.00
   6  -5  12   -5.10    3.60
   6   5  12    3.00    3.40
   7  -5  12    4.80    4.30
   7   5  12    4.00    3.50
  -7  -6  12   91.59    8.10
   7  -6 -12   94.69    7.60
  -7   6  12   87.09    8.10
   7   6 -12   94.39    7.40
   6  -6 -12   30.30    4.30
  -6  -6  12   24.60    4.80
  -6   6  12   18.30    4.10
   6   6 -12   22.30    4.00
   5  -6 -12  116.09    7.60
  -5  -6  12  120.49    8.50
  -5   6  12  117.69    8.50
   5   6 -12  119.29    7.70
  -4  -6  12   59.19    6.40
   4  -6 -12   69.59    5.70
   4   6 -12   62.29    5.50
  -4   6  12   55.09    6.30
  -3  -6  12  105.79    7.70
  -3   6  12  107.19    6.90
   3   6 -12  115.19    7.00
  -3   6  12   99.59    7.60
  -2  -6  12  114.49    7.80
  -2   6  12  101.89    7.30
   2   6 -12  110.09    6.70
  -2   6  12  100.09    6.70
  -1  -6  12    5.60    3.20
  -1   6  12    4.30    3.00
  -1   6  12    2.60    2.20
   0  -6  12    8.60    3.60
   0   6  12    3.80    3.00
   1  -6  12   56.69    6.20
   1   6  12   50.49    5.90
   2  -6  12   -0.90    3.30
   2   6  12   -2.70    2.90
   3  -6  12  139.59    9.00
   3   6  12  130.09    8.80
   4  -6  12   39.60    5.40
   4   6  12   42.20    6.00
   5  -6  12  125.09    8.90
   5   6  12  127.99    9.00
   6  -6  12    8.30    4.30
   6   6  12    7.90    4.10
   6  -7 -12   30.60    4.60
  -6  -7  12   31.20    5.20
  -6   7  12   26.50    4.40
   6   7 -12   29.00    4.50
  -5  -7  12   78.79    7.50
   5  -7 -12   77.39    6.70
  -5   7  12   81.49    7.30
   5   7 -12   80.89    6.60
  -5   7  12   78.49    6.60
  -4  -7  12  163.98    9.80
  -4   7  12  149.09    8.90
   4   7 -12  157.28    8.90
  -4   7  12  146.99    9.50
  -3  -7  12    8.20    3.70
  -3   7  12    2.20    2.70
   3   7 -12    3.50    2.70
  -3   7  12    8.00    2.80
  -2  -7  12  415.06   17.20
  -2   7  12  379.76   16.70
   2   7 -12  409.66   16.30
  -2   7  12  363.96   16.10
  -1  -7  12    2.90    3.30
  -1   7  12    1.80    2.20
  -1   7  12   -1.70    3.00
   0  -7  12  356.66   15.90
   0   7  12  339.87   15.40
   1  -7  12   43.20    6.20
   1   7  12   51.19    6.00
   2  -7  12  158.98    9.90
   2   7  12  160.08    9.60
   3  -7  12   39.10    5.50
   3   7  12   42.20    6.00
   4  -7  12    3.30    4.00
   4   7  12    3.50    3.40
   5  -7  12   21.10    5.10
   5   7  12   22.50    4.40
   5   8 -12    6.60    3.00
  -5   8  12    5.60    3.00
  -5   8  12    7.20    3.30
  -4  -8  12   15.40    4.50
   4   8 -12   14.30    3.60
  -4   8  12   17.10    3.70
  -4   8  12   13.40    3.50
  -3  -8  12   -1.10    3.40
  -3   8  12   -0.50    2.60
  -3   8  12   -0.70    2.30
   3   8 -12    1.30    2.70
  -2  -8  12   47.50    6.40
  -2   8  12   50.99    5.40
   2   8 -12   47.60    5.40
  -2   8  12   38.50    5.90
  -1  -8  12   43.50    6.10
  -1   8  12   40.40    5.00
  -1   8  12   29.40    4.40
   0  -8  12   56.59    6.90
   0   8  12   51.99    6.20
   1  -8  12   56.29    6.90
   1   8  12   54.69    6.40
   2  -8  12   64.49    7.30
   2   8  12   58.29    6.90
   3  -8  12  117.39    8.90
   3   8  12   99.49    8.30
   4  -8  12   24.30    5.30
   4   8  12   23.30    4.40
  -2   9  12    1.40    3.50
  -2   9  12    5.10    2.90
  -1  -9  12   25.70    5.00
  -1   9  12   26.30    4.30
   0  -9  12    9.50    4.40
  -9   0  13    5.00    3.50
   9   0 -13   -0.50    3.30
  -8   0  13   -5.10    2.50
   8   0 -13    1.10    2.50
   7   0 -13    1.70    2.60
  -7   0  13    2.10    3.00
  -6   0  13    0.30    2.60
   6   0 -13    2.00    2.10
  -5   0  13    9.20    3.20
   5   0 -13    0.20    2.00
   4   0 -13    0.50    1.70
  -4   0  13    0.80    2.60
   3   0 -13    3.20    1.50
  -3   0  13    0.70    2.20
  -3   0  13    2.10    2.50
  -2   0  13    4.40    2.40
  -2   0  13    1.70    2.20
   2   0 -13    0.30    1.20
  -1   0  13    0.80    2.30
  -1   0  13   -0.60    2.20
   0   0  13    1.50    2.50
   0   0  13    2.40    2.30
   1   0  13   -1.20    2.40
   1   0  13   -0.90    2.40
   2   0  13   -0.60    2.60
   2   0  13   -5.70    2.40
   3   0  13    2.10    2.70
   3   0  13    7.10    3.00
   4   0  13   -0.60    2.80
   4   0  13    2.60    3.00
   5   0  13    0.30    2.90
   6   0  13   -3.50    2.80
   7   0  13    2.70    3.20
   8   0  13    1.00    3.10
   9  -1 -13  251.57   12.70
  -9  -1  13  226.98   13.10
  -9   1  13  219.58   13.20
   9   1 -13  236.88   12.70
  -8  -1  13   -3.80    2.70
   8  -1 -13   -0.90    2.40
  -8   1  13   -3.90    2.70
   8   1 -13   -2.80    2.20
   7  -1 -13  317.87   13.90
  -7  -1  13  300.37   14.60
  -7   1  13  304.37   14.90
   7   1 -13  309.67   13.90
   6  -1 -13    0.10    2.00
  -6  -1  13    0.00    2.60
  -6   1  13    1.50    2.80
   6   1 -13   -0.10    1.90
   5  -1 -13  403.76   15.80
  -5  -1  13  384.06   16.50
  -5   1  13  388.96   16.90
   5   1 -13  400.36   15.70
   4  -1 -13  148.99    7.50
  -4  -1  13  152.68    8.70
  -4  -1  13  153.98    8.00
   4   1 -13  150.28    7.60
  -4   1  13  146.69    8.90
   3  -1 -13   19.90    2.50
  -3  -1  13   16.60    3.30
  -3  -1  13   14.40    2.80
   3   1 -13   15.20    2.20
  -3   1  13   13.90    3.20
   2  -1 -13  284.57   11.00
  -2  -1  13  280.47   11.70
  -2  -1  13  275.57   12.30
   2   1 -13  275.97   10.70
  -2   1  13  268.67   12.50
  -1  -1  13    4.40    2.70
  -1  -1  13   17.30    3.10
  -1   1  13   10.60    2.50
  -1   1  13    9.50    2.90
   0  -1  13  431.36   17.20
   0  -1  13  403.66   16.20
   0   1  13  426.06   17.30
   0   1  13  435.36   15.90
   1  -1  13  447.76   17.70
   1  -1  13  452.25   18.50
   1   1  13  489.65   17.50
   1   1  13  478.25   18.90
   2  -1  13  181.38    9.70
   2  -1  13  162.08    9.00
   2   1  13  169.38    8.60
   2   1  13  177.18    9.70
   3  -1  13  266.17   11.70
   3  -1  13  234.58   12.00
   3   1  13  245.68   11.20
   3   1  13  247.98   12.20
   4  -1  13   -0.60    2.70
   4  -1  13   -3.80    2.90
   4   1  13   -0.40    2.70
   5  -1  13  294.47   13.60
   5  -1  13  297.77   14.10
   5   1  13  294.67   14.10
   6  -1  13   44.10    5.90
   6   1  13   44.40    6.00
   7  -1  13   27.20    4.50
   7   1  13   22.50    4.30
   8  -1  13  115.09    8.70
   8   1  13  111.79    8.60
   9  -2 -13   23.80    4.60
  -9  -2  13   18.00    4.20
  -9   2  13   20.80    4.60
   9   2 -13   23.80    4.70
   8  -2 -13   15.40    3.60
  -8  -2  13    6.00    3.40
   8   2 -13   11.10    3.30
  -8   2  13    7.70    3.60
  -7  -2  13   44.30    6.20
   7  -2 -13   41.00    5.30
   7   2 -13   32.10    4.50
  -7   2  13   29.30    4.70
  -6  -2  13  144.09    8.70
  -6  -2  13  147.79    8.90
   6  -2 -13  157.18    8.40
  -6   2  13  140.69    9.50
   6   2 -13  157.38    8.40
  -5  -2  13  113.39    7.80
  -5  -2  13  132.29    7.80
   5  -2 -13  122.99    7.30
  -5   2  13  123.19    8.60
   5   2 -13  121.59    7.10
   4  -2 -13  934.71   32.70
  -4  -2  13  947.61   32.70
  -4  -2  13  916.11   33.40
  -4   2  13  910.61   34.10
   4   2 -13  959.00   32.80
  -3  -2  13   13.10    3.10
   3  -2 -13   18.80    2.60
  -3  -2  13   16.70    3.20
   3   2 -13   24.30    3.30
  -3   2  13   12.10    3.40
  -2  -2  13 1080.79   36.10
  -2  -2  13 1031.40   36.60
   2  -2 -13 1036.70   35.60
   2   2 -13 1063.99   35.40
  -2   2  13 1003.90   37.10
  -1  -2  13   28.00    3.80
  -1  -2  13   29.90    3.90
  -1   2  13   25.00    3.70
   0  -2  13 1037.90   36.20
   0  -2  13 1080.79   37.00
   0   2  13 1013.90   37.20
   1  -2  13  285.07   12.40
   1  -2  13  277.07   12.60
   1   2  13  295.17   13.20
   2  -2  13  223.08   10.60
   2  -2  13  204.28   10.70
   2   2  13  230.88   11.30
   3  -2  13  689.53   25.90
   3  -2  13  692.23   26.50
   3   2  13  725.03   27.00
   4  -2  13   20.70    3.90
   4  -2  13   30.40    4.60
   4   2  13   24.60    4.20
   5  -2  13  426.06   18.00
   5  -2  13  427.56   17.60
   5   2  13  411.66   18.10
   6  -2  13   19.20    4.00
   6  -2  13   25.10    4.70
   6   2  13   21.70    4.20
   7  -2  13  180.98   10.80
   7   2  13  183.58   10.80
   8  -2  13   21.60    4.20
   8   2  13   11.80    4.00
   9  -3 -13   78.69    7.60
   9   3 -13   75.39    7.60
   8  -3 -13    9.30    3.40
   8   3 -13    8.10    3.10
  -8   3  13    2.60    3.40
   7  -3 -13   92.69    7.20
  -7  -3  13  100.29    7.70
   7   3 -13  105.39    7.50
  -7   3  13   87.79    8.10
  -6  -3  13   22.70    4.20
   6  -3 -13   22.30    3.60
   6   3 -13   21.50    3.60
  -6   3  13   18.10    3.90
   5  -3 -13   71.39    5.90
  -5  -3  13   79.29    6.50
  -5  -3  13   79.69    6.60
   5   3 -13   87.89    6.10
  -5   3  13   73.89    6.90
  -4  -3  13   96.39    6.80
  -4  -3  13   97.89    6.90
   4  -3 -13   98.99    6.30
  -4   3  13   93.29    7.40
   4   3 -13   92.59    6.20
  -3  -3  13   26.30    3.50
  -3  -3  13   29.10    4.00
   3  -3 -13   29.00    3.90
   3   3 -13   32.20    3.70
  -3   3  13   25.80    4.00
   2  -3 -13   73.99    4.90
  -2  -3  13   78.69    6.10
  -2  -3  13   77.69    6.20
  -2   3  13   64.79    6.20
   2   3 -13   72.49    4.80
  -1  -3  13    7.70    2.70
  -1  -3  13    5.90    3.00
  -1   3  13    4.30    2.80
   0  -3  13   67.39    5.80
   0  -3  13   61.59    5.90
   0   3  13   61.49    6.20
   1  -3  13   14.50    3.30
   1  -3  13   15.00    3.50
   1   3  13   15.20    3.40
   2  -3  13   14.20    3.20
   2  -3  13   14.00    3.60
   2   3  13   15.90    3.50
   3  -3  13  106.79    7.80
   3  -3  13  122.89    8.10
   3   3  13  117.39    8.20
   4  -3  13   -1.90    2.60
   4  -3  13    3.80    3.40
   4   3  13   -0.20    2.80
   5  -3  13   70.89    6.70
   5  -3  13   57.59    6.40
   5   3  13   60.89    6.60
   6  -3  13   14.40    4.30
   6  -3  13   17.00    3.80
   6   3  13   13.40    4.00
   7  -3  13   45.60    6.10
   7  -3  13   53.29    6.90
   7   3  13   49.70    6.50
   8  -3  13   14.10    4.10
   8  -4 -13    7.30    3.50
  -8  -4  13    4.60    3.90
  -8   4  13    4.60    3.40
   8   4 -13    4.30    3.20
  -7  -4  13   15.00    4.10
   7  -4 -13   16.50    3.60
  -7   4  13   14.20    4.10
   7   4 -13   17.50    3.80
   6  -4 -13   20.50    3.60
  -6  -4  13   15.40    4.10
  -6   4  13   18.50    3.90
   6   4 -13   20.40    3.70
  -5  -4  13   52.29    6.20
   5  -4 -13   53.89    5.20
  -5   4  13   44.50    6.30
   5   4 -13   56.99    5.20
   4  -4 -13   75.89    5.70
  -4  -4  13   67.29    6.50
  -4   4  13   69.99    6.80
   4   4 -13   73.89    5.70
   3  -4 -13   70.79    5.20
  -3  -4  13   68.29    6.40
  -3   4  13   58.39    6.30
   3   4 -13   72.19    5.20
  -2  -4  13  122.89    7.50
   2  -4 -13  119.29    6.40
  -2   4  13  102.19    7.50
  -1  -4  13   22.10    3.80
  -1   4  13   16.10    3.40
   0  -4  13   83.19    6.60
   0   4  13   73.49    6.60
   1  -4  13   11.90    3.60
   1   4  13   10.80    3.30
   2  -4  13    0.90    3.10
   2   4  13   -0.60    2.90
   3  -4  13   51.39    6.00
   3   4  13   40.50    5.90
   4  -4  13    4.50    3.60
   4   4  13    2.80    3.40
   5  -4  13   59.49    6.80
   5   4  13   55.29    6.50
   6  -4  13   35.40    5.20
   6   4  13   33.70    5.00
   7  -4  13   11.70    4.60
   7   4  13   12.70    4.10
   7  -5 -13  293.97   14.10
  -7  -5  13  293.17   14.40
   7   5 -13  305.17   14.10
  -7   5  13  279.97   14.90
   6  -5 -13    7.70    3.00
  -6  -5  13    8.30    3.90
   6   5 -13    5.90    2.90
  -6   5  13    6.70    3.30
  -5  -5  13  210.78   11.10
   5  -5 -13  200.08   10.30
   5   5 -13  210.08   10.40
  -5   5  13  203.48   11.40
   4  -5 -13   58.69    5.10
  -4  -5  13   57.29    6.30
   4   5 -13   57.29    5.40
  -4   5  13   51.29    6.20
   3  -5 -13   30.70    4.10
  -3  -5  13   33.00    4.60
  -3   5  13   22.10    3.90
   3   5 -13   31.90    4.30
  -2  -5  13  262.07   12.00
  -2   5  13  237.68   10.90
  -2   5  13  241.38   12.00
  -1  -5  13   26.80    4.40
  -1   5  13   17.70    3.70
   0  -5  13  273.07   12.60
   0   5  13  255.07   12.60
   1  -5  13  231.78   11.60
   1   5  13  228.88   11.70
   2  -5  13  122.69    8.10
   2   5  13  108.79    8.00
   3  -5  13  283.67   13.40
   3   5  13  272.67   13.60
   4  -5  13    1.60    3.50
   4   5  13    4.80    3.40
   5  -5  13  153.28    9.60
   5   5  13  146.09    9.70
   6  -5  13   18.40    4.90
   6   5  13   20.80    4.70
   7  -6 -13   23.40    4.40
   7   6 -13   27.10    4.40
   6  -6 -13   70.89    6.40
  -6  -6  13   61.29    7.30
  -6   6  13   66.69    7.30
   6   6 -13   68.29    6.50
  -5  -6  13    4.80    3.70
   5  -6 -13    3.50    2.70
   5   6 -13    5.90    2.90
  -5   6  13    4.30    3.10
   4  -6 -13  205.38   10.30
  -4  -6  13  208.98   11.30
   4   6 -13  206.48   10.40
  -4   6  13  204.78   11.40
  -3  -6  13    1.90    3.30
  -3   6  13   -1.90    2.40
  -3   6  13    1.50    2.30
   3   6 -13    1.20    2.50
  -2  -6  13  263.47   12.40
  -2   6  13  240.58   12.30
  -2   6  13  247.38   11.40
  -1  -6  13   44.80    6.00
  -1   6  13   39.90    5.70
   0  -6  13  303.57   13.60
   0   6  13  261.77   13.10
   1  -6  13  111.79    8.20
   1   6  13  115.29    8.10
   2  -6  13  120.39    8.40
   2   6  13  111.99    8.30
   3  -6  13  160.78    9.80
   3   6  13  147.29    9.70
   4  -6  13   20.30    4.70
   4   6  13   19.70    4.10
   5  -6  13  123.59    9.10
   5   6  13  112.09    8.90
   6   6  13    1.50    3.70
   5  -7 -13   -1.40    2.70
  -5  -7  13   -1.90    3.40
  -5   7  13    2.80    3.00
  -5   7  13    2.70    2.60
   5   7 -13    1.30    2.60
  -4  -7  13    4.40    3.70
  -4   7  13    4.40    2.90
  -4   7  13    4.20    2.60
   4   7 -13    6.30    3.00
  -3  -7  13   -2.90    3.30
  -3   7  13   -2.50    2.40
   3   7 -13    0.20    2.50
  -3   7  13   -1.50    2.10
  -2  -7  13   12.30    3.80
  -2   7  13    7.50    3.10
  -2   7  13    8.80    2.80
  -1  -7  13   21.00    4.50
  -1   7  13   14.50    3.60
   0  -7  13   15.00    4.10
   0   7  13   11.70    3.40
   1  -7  13    2.40    3.70
   1   7  13    1.10    3.20
   2  -7  13    2.50    3.70
   2   7  13    5.80    3.50
   3  -7  13    2.70    3.90
   3   7  13    4.50    3.70
   4  -7  13    5.20    4.30
   4   7  13    5.70    3.80
   4   8 -13   63.79    6.00
  -4   8  13   63.49    6.30
  -3  -8  13   14.20    4.40
  -3   8  13   14.30    3.60
  -3   8  13   16.00    3.60
  -2  -8  13   93.69    7.90
  -2   8  13   91.79    7.70
  -2   8  13   85.79    6.80
  -1  -8  13   18.40    4.80
  -1   8  13   19.90    3.90
   0  -8  13   50.79    6.80
   0   8  13   50.29    6.30
   1  -8  13   18.20    4.90
   1   8  13   16.10    3.80
   2  -8  13    2.00    4.10
   2   8  13    0.60    3.60
   9   0 -14   17.80    4.40
  -8   0  14    1.00    3.20
   8   0 -14   -2.30    2.50
  -7   0  14    8.40    3.50
   7   0 -14    5.10    2.90
   6   0 -14  274.07   12.00
  -6   0  14  255.07   13.10
  -5   0  14    2.80    2.90
   5   0 -14   -0.10    2.00
  -4   0  14  705.03   27.20
   4   0 -14  740.13   25.90
  -3   0  14    3.70    3.00
  -2   0  14 1716.53   59.99
  -2   0  14 1795.32   58.19
  -1   0  14   11.20    2.90
  -1   0  14    7.40    3.10
   0   0  14  977.10   35.20
   0   0  14  979.10   33.70
   1   0  14   49.90    5.30
   1   0  14   52.39    5.90
   2   0  14  423.26   16.70
   2   0  14  416.06   17.60
   3   0  14  136.39    8.80
   3   0  14  141.59    8.30
   4   0  14    4.70    3.40
   4   0  14    7.30    3.30
   5   0  14  206.18   11.70
   6   0  14   48.00    6.60
   7   0  14   17.90    4.30
  -8  -1  14   -0.10    3.10
   8  -1 -14   -1.90    2.40
  -8   1  14   -4.00    3.00
   8   1 -14   -0.20    2.50
   7  -1 -14  192.08   10.10
  -7  -1  14  182.78   10.90
  -7   1  14  184.88   11.30
   7   1 -14  192.38   10.10
   6  -1 -14    6.10    2.40
  -6  -1  14   -0.10    2.80
   6   1 -14    1.60    2.20
  -6   1  14    0.90    2.90
  -5  -1  14  141.29    8.80
   5  -1 -14  136.69    7.50
  -5   1  14  131.39    9.00
   5   1 -14  143.59    7.60
  -4  -1  14    3.60    2.60
   4  -1 -14    1.60    1.80
   4   1 -14   -0.60    1.70
  -4   1  14    4.50    2.90
   3  -1 -14   50.79    4.20
  -3  -1  14   41.10    5.40
  -3  -1  14   40.30    5.40
   3   1 -14   48.30    4.10
  -3   1  14   37.40    5.50
  -2  -1  14   12.90    3.10
  -2  -1  14   14.40    3.20
  -2   1  14   10.80    3.10
  -1  -1  14   50.69    5.90
  -1  -1  14   49.00    5.30
  -1   1  14   50.09    5.90
   0  -1  14   14.10    3.50
   0  -1  14   18.50    3.30
   0   1  14   14.90    2.90
   0   1  14   14.70    3.40
   1  -1  14  257.07   12.30
   1  -1  14  249.88   11.40
   1   1  14  247.98   12.20
   1   1  14  259.87   11.20
   2  -1  14    4.20    3.20
   2  -1  14    4.20    3.10
   2   1  14    4.80    3.00
   2   1  14    5.00    3.10
   3  -1  14  303.07   14.30
   3  -1  14  307.77   13.60
   3   1  14  321.97   13.30
   3   1  14  304.97   14.40
   4  -1  14   -4.30    2.90
   4  -1  14   -1.50    3.10
   4   1  14    0.20    3.00
   5  -1  14  237.28   12.70
   5  -1  14  245.68   12.10
   5   1  14  242.18   12.80
   6  -1  14   34.40    5.00
   6   1  14   34.20    5.10
   7  -1  14   65.19    7.10
   7   1  14   68.29    7.30
  -8  -2  14    8.10    3.60
   8  -2 -14    8.40    3.30
   8   2 -14    8.60    3.30
  -8   2  14    7.50    3.90
   7  -2 -14    2.60    2.70
  -7  -2  14    2.00    3.00
   7   2 -14    0.70    2.70
  -7   2  14    2.10    3.20
   6  -2 -14    5.00    2.40
  -6  -2  14    7.40    3.10
  -6   2  14    2.70    3.10
   6   2 -14    4.60    2.60
  -5  -2  14    4.50    2.80
  -5  -2  14   10.20    3.40
   5  -2 -14    2.10    2.10
  -5   2  14    6.10    3.20
   5   2 -14    1.90    2.00
  -4  -2  14   17.30    3.50
   4   2 -14   15.90    2.70
  -4   2  14   15.80    3.70
  -3  -2  14   13.50    3.20
   3  -2 -14   15.00    2.40
  -3  -2  14   10.40    2.90
   3   2 -14   11.80    2.10
  -3   2  14   13.10    3.40
  -2  -2  14   66.69    6.00
  -2  -2  14   58.89    6.00
  -2   2  14   58.49    6.10
  -1  -2  14   16.70    3.40
  -1  -2  14   15.00    3.30
  -1   2  14   16.10    3.50
   0  -2  14   18.50    3.50
   0  -2  14   19.20    3.50
   0   2  14   24.40    3.90
   1  -2  14   -1.90    2.70
   1  -2  14   -0.80    2.50
   1   2  14   -1.10    2.70
   2  -2  14   13.10    3.50
   2  -2  14    8.30    3.30
   2   2  14   12.20    3.50
   3  -2  14    6.00    3.10
   3  -2  14    3.50    3.30
   3   2  14    3.20    3.20
   4  -2  14    5.30    3.40
   4  -2  14    7.10    3.80
   4   2  14   10.40    3.80
   5  -2  14    3.00    3.70
   5  -2  14   11.20    3.60
   5   2  14    5.90    3.50
   6  -2  14    6.00    3.80
   6  -2  14    2.10    3.20
   6   2  14   -0.40    3.30
   7  -2  14    5.00    3.40
   7   2  14    4.50    3.60
   8  -3 -14   15.50    3.80
  -8   3  14    7.30    3.90
   8   3 -14   15.40    3.80
   7  -3 -14  383.06   16.20
   7   3 -14  374.26   16.20
  -7   3  14  341.87   17.20
   6  -3 -14    1.20    2.30
  -6  -3  14    1.30    3.30
   6   3 -14   -1.30    2.30
  -6   3  14   -0.50    2.80
   5  -3 -14  266.27   12.00
  -5  -3  14  270.67   12.40
   5   3 -14  275.97   12.00
  -5   3  14  243.38   13.10
   4  -3 -14   10.30    2.50
  -4  -3  14    5.30    3.20
  -4   3  14   10.20    3.20
   4   3 -14    7.00    2.40
   3  -3 -14   68.69    5.10
  -3  -3  14   65.99    6.00
  -3  -3  14   65.09    5.90
  -3   3  14   55.39    6.20
  -2  -3  14   38.60    5.50
  -2  -3  14   36.00    5.40
  -2   3  14   48.70    5.80
  -1  -3  14   88.09    6.80
  -1  -3  14   85.89    6.80
  -1   3  14   76.19    6.90
   0  -3  14   48.20    5.80
   0  -3  14   48.60    5.80
   0   3  14   42.80    5.80
   1  -3  14  299.37   13.40
   1  -3  14  296.57   13.00
   1   3  14  278.37   13.60
   2  -3  14   35.60    4.70
   2  -3  14   39.10    5.70
   2   3  14   31.50    4.60
   3  -3  14  664.13   24.50
   3  -3  14  626.24   24.80
   3   3  14  627.74   25.30
   4  -3  14   -3.60    3.30
   4  -3  14    5.50    3.20
   4   3  14   -0.40    3.00
   5  -3  14  219.88   12.10
   5  -3  14  243.18   12.20
   5   3  14  238.48   12.60
   6  -3  14   17.40    4.50
   6  -3  14    8.90    3.60
   6   3  14    9.60    4.00
   7  -3  14  116.59    8.90
   7  -3  14  114.29    8.90
   7   3  14  114.19    8.90
   7  -4 -14    3.20    2.90
  -7  -4  14    0.70    3.70
   7   4 -14    0.80    2.80
  -7   4  14    4.00    3.30
   6  -4 -14  146.49    8.60
  -6  -4  14  160.18    9.70
  -6   4  14  135.39    9.90
   6   4 -14  153.98    9.10
  -5  -4  14    2.30    3.40
   5  -4 -14    3.20    2.50
  -5   4  14    0.10    3.00
   5   4 -14    9.30    2.60
   4  -4 -14  452.65   17.90
  -4  -4  14  472.85   18.80
  -4   4  14  430.86   19.40
   4   4 -14  473.05   18.10
   3  -4 -14   -1.00    1.80
  -3  -4  14   -0.70    3.00
  -3   4  14   -2.70    2.80
  -2  -4  14  755.32   27.10
  -2   4  14  702.43   27.60
  -1  -4  14   12.80    3.70
  -1   4  14    7.60    3.40
   0  -4  14  505.55   19.50
   0   4  14  471.05   19.90
   1  -4  14   35.60    4.90
   1   4  14   37.60    5.70
   2  -4  14  265.77   12.60
   2   4  14  244.38   12.70
   3  -4  14   94.09    7.60
   3   4  14   82.69    7.60
   4  -4  14    3.80    3.70
   4   4  14    1.70    3.30
   5  -4  14   59.89    6.90
   5   4  14   54.69    6.80
   6  -4  14    6.60    4.10
   6   4  14    3.00    4.00
  -7  -5  14   15.30    4.50
   7  -5 -14   12.00    3.60
   7   5 -14   16.50    3.80
  -7   5  14   11.00    3.80
  -6  -5  14    8.80    4.20
   6  -5 -14    7.20    2.90
   6   5 -14    7.40    3.10
  -6   5  14    9.20    3.60
   5  -5 -14    1.30    2.40
  -5  -5  14    5.70    3.60
  -5   5  14    3.80    3.30
   5   5 -14    5.60    2.60
  -4  -5  14    8.80    3.70
   4  -5 -14   13.20    2.90
   4   5 -14   14.80    3.10
  -4   5  14   10.60    3.30
   3  -5 -14   -1.30    2.00
  -3  -5  14    0.80    3.10
  -3   5  14   -0.90    2.70
  -2  -5  14    1.10    3.20
  -2   5  14    0.00    2.80
  -1  -5  14    4.20    3.60
  -1   5  14    2.30    3.00
   0  -5  14   -1.30    3.20
   0   5  14   -0.10    2.90
   1  -5  14   12.20    4.00
   1   5  14    6.90    3.50
   2   5  14   16.40    3.80
   3  -5  14   46.20    6.30
   3   5  14   40.10    6.20
   4  -5  14    5.20    4.00
   4   5  14    7.10    3.80
   5  -5  14   27.20    4.90
   5   5  14   29.80    5.00
   6  -5  14    8.40    4.40
   6   5  14    7.60    4.20
  -6  -6  14    8.00    4.20
   6  -6 -14    7.50    3.10
   6   6 -14    5.30    3.10
  -6   6  14    3.20    3.30
  -5  -6  14   12.30    4.30
   5  -6 -14   11.80    3.20
  -5   6  14   12.90    3.80
   5   6 -14   12.20    3.30
   4  -6 -14   74.49    6.00
  -4  -6  14   78.49    7.40
  -4   6  14   70.69    6.10
  -4   6  14   78.09    7.40
   4   6 -14   74.49    6.20
  -3  -6  14   30.60    5.00
  -3   6  14   21.00    4.10
  -3   6  14   25.70    3.80
  -2  -6  14  130.69    8.70
  -2   6  14  124.69    8.60
  -1  -6  14   15.30    4.30
  -1   6  14   14.70    3.60
   0  -6  14  121.99    8.50
   0   6  14  111.99    8.20
   1  -6  14    0.20    3.60
   1   6  14    0.60    3.20
   2  -6  14    8.00    3.90
   2   6  14    9.40    3.80
   3  -6  14   10.60    4.30
   3   6  14   10.40    3.70
   4  -6  14   10.40    4.60
   4   6  14    5.20    3.90
   5  -6  14   14.30    4.80
   5   6  14    5.60    4.00
  -4  -7  14    7.00    4.00
  -4   7  14    5.30    2.80
  -4   7  14    0.80    2.80
  -3  -7  14   21.20    4.50
  -3   7  14   17.00    3.80
  -3   7  14   18.90    3.60
  -2  -7  14    7.10    3.80
  -2   7  14    2.20    3.50
  -1  -7  14   20.60    4.80
  -1   7  14   20.20    4.00
   0  -7  14   17.80    4.60
   0   7  14   18.80    3.90
   1  -7  14  124.39    9.30
   1   7  14  134.39    9.20
   2  -7  14    6.90    4.20
   2   7  14    5.10    3.70
   3  -7  14  210.58   11.90
   3   7  14  197.38   11.80
  -1  -8  14    2.00    4.10
  -1   8  14    5.80    3.80
   0  -8  14   87.69    8.00
   0   8  14   83.99    7.70
  -8   0  15   -0.50    3.30
   8   0 -15    0.70    2.60
   7   0 -15   -1.40    2.40
  -7   0  15    2.10    3.20
   6   0 -15    1.10    2.20
  -6   0  15    3.90    3.10
  -5   0  15    0.10    2.80
   5   0 -15   -0.90    2.00
  -4   0  15   -1.00    2.70
   4   0 -15    1.20    1.80
  -3   0  15   -4.30    2.40
  -2   0  15    5.80    2.90
  -1   0  15   -2.40    2.60
  -1   0  15    0.90    2.60
   0   0  15    1.90    2.90
   0   0  15    4.70    2.90
   1   0  15    0.00    2.80
   1   0  15   -0.90    2.80
   2   0  15    4.00    3.20
   2   0  15    1.40    3.00
   3   0  15    5.20    3.40
   3   0  15    2.10    3.10
   4   0  15   -0.60    3.10
   4   0  15    0.70    3.30
   5   0  15   -1.80    3.40
   6   0  15   -2.30    3.20
   7   0  15   -1.70    3.30
   8  -1 -15    0.10    2.60
  -8  -1  15    5.00    3.60
   8   1 -15    4.00    3.00
  -8   1  15    4.10    3.50
  -7  -1  15  147.59   10.10
   7  -1 -15  157.88    9.20
  -7   1  15  154.48   10.60
   7   1 -15  157.98    9.20
  -6  -1  15   26.70    4.50
   6  -1 -15   40.60    4.70
  -6   1  15   25.40    4.70
  -5  -1  15  192.68   10.90
   5  -1 -15  209.08    9.70
   5   1 -15  198.68    9.50
  -5   1  15  188.18   11.20
  -4  -1  15   76.89    6.90
   4  -1 -15   79.89    5.60
  -4   1  15   70.49    7.10
  -3  -1  15    6.40    2.90
  -3   1  15   13.50    3.50
  -2  -1  15   54.69    5.80
  -2  -1  15   43.30    5.90
  -2   1  15   49.30    5.90
  -1  -1  15   15.60    3.60
  -1  -1  15   22.20    3.40
  -1   1  15   17.40    3.80
   0  -1  15   14.30    3.60
   0  -1  15   15.80    3.50
   0   1  15   13.80    3.60
   1  -1  15  427.66   17.80
   1  -1  15  400.96   16.70
   1   1  15  399.86   17.70
   1   1  15  434.06   16.30
   2  -1  15   -4.60    2.90
   2  -1  15    0.30    3.10
   2   1  15   -1.50    3.00
   2   1  15   -3.40    2.80
   3  -1  15  385.06   16.20
   3  -1  15  391.76   17.20
   3   1  15  379.16   17.10
   4  -1  15   -3.10    3.20
   4  -1  15   -4.70    3.00
   4   1  15    2.60    3.50
   5  -1  15  322.87   15.20
   5  -1  15  344.27   16.20
   5   1  15  346.57   16.40
   6  -1  15   -0.60    3.40
   6   1  15    1.70    3.50
   7  -1  15   70.49    7.60
   7   1  15   60.99    7.20
   8  -2 -15    2.30    2.90
   8   2 -15    2.70    2.70
  -8   2  15   -1.20    3.30
   7  -2 -15   81.49    7.00
  -7  -2  15   88.39    8.00
   7   2 -15   92.39    7.30
  -7   2  15   79.69    8.30
   6  -2 -15  116.89    7.40
  -6  -2  15  113.89    8.40
   6   2 -15  118.49    7.60
  -6   2  15  114.09    9.00
   5  -2 -15   42.80    4.80
  -5  -2  15   35.10    4.60
  -5   2  15   33.20    4.80
   5   2 -15   48.00    5.00
   4  -2 -15  520.95   19.30
  -4  -2  15  494.25   20.20
  -4  -2  15  538.65   19.80
  -4   2  15  478.05   20.90
  -3  -2  15    1.40    2.80
  -3  -2  15   -0.40    3.00
  -3   2  15   -4.90    2.60
  -2  -2  15  777.02   26.80
  -2  -2  15  723.43   27.30
  -2   2  15  699.43   27.70
  -1  -2  15    1.10    2.90
  -1  -2  15   -0.90    3.00
  -1   2  15   -2.80    3.00
   0  -2  15  795.02   28.60
   0  -2  15  766.12   27.60
   0   2  15  722.93   28.60
   1  -2  15    4.00    3.10
   1  -2  15    4.10    3.30
   1   2  15    2.90    3.20
   2  -2  15  155.68    9.40
   2  -2  15  146.09    8.90
   2   2  15  148.89    9.40
   3  -2  15   11.00    3.70
   3  -2  15    5.00    3.60
   3   2  15    3.70    3.40
   4  -2  15    0.70    3.50
   4  -2  15    2.30    3.30
   4   2  15    4.10    3.60
   5  -2  15    7.30    4.00
   5  -2  15    6.40    3.40
   5   2  15    5.20    3.80
   6  -2  15   83.99    7.80
   6  -2  15   79.29    7.80
   6   2  15   85.19    8.20
   7  -3 -15   52.59    6.10
  -7   3  15   49.20    7.30
   7   3 -15   46.50    5.70
   6  -3 -15    6.20    2.70
   6   3 -15    1.50    2.40
  -6   3  15    0.80    3.10
   5  -3 -15   15.60    3.10
  -5  -3  15   17.70    4.10
   5   3 -15   15.00    3.00
  -5   3  15   12.90    3.70
   4  -3 -15   13.60    2.70
  -4  -3  15   13.00    3.60
  -4   3  15   15.60    3.80
  -3  -3  15    0.20    2.90
  -3   3  15    2.50    2.90
  -2  -3  15   17.40    3.80
  -2   3  15   10.80    3.30
  -1  -3  15   18.50    3.90
  -1   3  15   17.40    3.70
   0  -3  15   11.70    3.70
   0   3  15   14.50    3.50
   1  -3  15  108.89    7.90
   1  -3  15  119.09    8.20
   1   3  15  109.49    8.20
   2  -3  15   17.90    4.00
   2  -3  15   23.90    4.20
   2   3  15   17.50    4.10
   3  -3  15  111.49    8.20
   3  -3  15   95.29    8.10
   3   3  15  100.49    8.20
   4  -3  15    8.40    3.60
   4  -3  15    2.80    3.70
   4   3  15    7.80    3.90
   5  -3  15  111.39    8.80
   5  -3  15  134.29    9.00
   5   3  15  114.39    9.10
   6  -3  15    7.40    4.40
   6   3  15    1.30    3.80
   7  -4 -15    9.30    3.30
   7   4 -15   10.10    3.40
  -7   4  15   10.20    3.90
  -6  -4  15   -0.20    3.50
   6  -4 -15    3.20    2.70
  -6   4  15   -0.30    3.40
   6   4 -15    0.80    2.70
   5  -4 -15   -0.50    2.30
  -5  -4  15   -0.20    3.50
   5   4 -15    0.70    2.20
  -5   4  15    0.50    3.20
   4  -4 -15   62.79    5.40
  -4  -4  15   67.59    7.20
  -4   4  15   68.09    7.00
  -3  -4  15   -1.40    3.10
  -3   4  15    2.30    3.00
  -2  -4  15   66.99    6.90
  -2   4  15   76.39    6.90
  -1  -4  15   24.60    4.40
  -1   4  15   21.00    3.90
   0  -4  15  111.49    8.00
   0   4  15   98.29    7.70
   1  -4  15   13.20    3.90
   1   4  15   13.80    3.70
   2  -4  15   17.60    4.10
   2   4  15   16.10    3.90
   3  -4  15    1.90    3.50
   3   4  15   -1.20    3.30
   4  -4  15   -1.50    3.70
   4   4  15    9.20    3.90
   5  -4  15    3.80    4.10
   5   4  15    4.00    3.80
   6   4  15   19.70    4.80
   6  -5 -15   32.60    4.90
  -6  -5  15   23.50    5.00
   6   5 -15   23.80    4.10
  -6   5  15   20.70    4.50
  -5  -5  15  150.68    9.80
   5  -5 -15  145.09    8.50
   5   5 -15  162.78    8.90
  -5   5  15  132.29    9.90
  -4  -5  15   56.29    6.90
   4  -5 -15   48.90    5.10
  -4   5  15   45.20    6.40
  -3  -5  15   36.30    5.00
  -3   5  15   22.60    4.10
  -2  -5  15   34.20    5.00
  -2   5  15   30.20    4.50
  -1  -5  15   42.80    6.10
  -1   5  15   25.90    4.30
   0  -5  15    5.90    3.70
   0   5  15    6.00    3.40
   1  -5  15  200.28   10.90
   1   5  15  179.88   10.80
   2  -5  15    0.10    3.60
   2   5  15   -0.30    3.30
   3  -5  15  392.26   17.10
   3   5  15  371.86   17.50
   4  -5  15   -0.90    3.90
   4   5  15    0.00    3.60
   5  -5  15  209.38   11.80
   5   5  15  188.78   11.90
  -5  -6  15   21.60    4.80
   5  -6 -15   25.00    3.90
  -5   6  15   19.90    4.20
   4  -6 -15  134.49    8.20
  -4  -6  15  144.39    9.70
  -4   6  15  122.59    9.10
  -3  -6  15    5.00    3.60
  -3   6  15    4.20    3.60
  -2  -6  15  298.77   14.00
  -2   6  15  256.07   13.70
  -1  -6  15    5.00    3.80
  -1   6  15    5.10    3.60
   0  -6  15  107.29    8.40
   0   6  15  102.69    8.30
   1  -6  15    1.30    3.70
   1   6  15    0.20    3.40
   2  -6  15   98.29    8.30
   2   6  15   88.59    8.00
   3  -6  15    3.50    4.00
   3   6  15   -1.60    3.60
   4   6  15   -0.80    3.60
  -3  -7  15    0.60    3.60
  -3   7  15    0.90    3.40
  -2  -7  15   -1.60    3.60
  -2   7  15    2.80    3.50
  -1  -7  15   22.60    4.90
  -1   7  15   22.30    4.30
   0  -7  15   12.20    4.60
   0   7  15    9.80    3.60
   1  -7  15   -0.90    3.90
   1   7  15   -2.00    3.40
   2   7  15   15.50    4.10
   7   0 -16  191.18   10.20
  -7   0  16  182.58   11.70
   6   0 -16   39.80    4.90
  -6   0  16   32.80    4.90
  -5   0  16   91.09    8.00
  -4   0  16  258.07   12.90
  -3   0  16    5.60    3.10
  -2   0  16  321.37   14.80
  -1   0  16   49.50    6.50
   0   0  16  483.55   20.10
   1   0  16   80.59    7.40
   1   0  16   92.29    7.00
   2   0  16   83.49    7.80
   2   0  16   76.59    6.80
   3   0  16  144.29    8.90
   3   0  16  142.49    9.80
   4   0  16   -0.40    3.50
   4   0  16   -2.40    3.20
   5   0  16   55.89    7.30
   6   0  16   81.89    8.30
  -7  -1  16   25.80    4.60
   7  -1 -16   27.80    4.20
  -7   1  16   27.10    5.00
   7   1 -16   24.90    4.10
  -6  -1  16   30.00    4.80
   6  -1 -16   36.40    4.80
   6   1 -16   38.00    5.00
  -6   1  16   31.30    5.20
  -5  -1  16   31.20    4.80
  -5   1  16   32.50    5.00
  -4  -1  16  122.59    8.50
  -4   1  16  112.99    8.60
  -3  -1  16   -0.60    2.70
  -3   1  16   -0.30    2.80
  -2  -1  16  129.99    8.60
  -2   1  16  125.19    8.60
  -1  -1  16    7.00    3.20
  -1  -1  16    5.70    3.30
  -1   1  16    8.00    3.40
   0  -1  16   74.99    7.00
   0  -1  16   79.09    6.70
   0   1  16   75.99    7.30
   1  -1  16  178.68   10.50
   1  -1  16  175.88    9.70
   1   1  16  169.38   10.30
   2  -1  16   26.00    4.30
   2  -1  16   19.50    4.50
   2   1  16   23.40    4.40
   2   1  16   20.30    4.00
   3  -1  16  165.38    9.80
   3  -1  16  168.48   10.60
   3   1  16  184.68   11.00
   4  -1  16    2.10    3.70
   4  -1  16    1.20    3.60
   4   1  16    0.20    3.70
   5  -1  16  123.79    9.10
   5  -1  16  134.19   10.00
   5   1  16  138.79   10.00
   6  -1  16    0.80    3.50
   6   1  16   -0.40    3.80
   7  -2 -16   11.60    3.30
   7   2 -16    9.90    3.30
  -7   2  16   15.50    4.40
  -6  -2  16    2.20    3.00
   6  -2 -16    2.40    2.50
   6   2 -16   -1.00    2.10
  -6   2  16    1.10    3.40
  -5  -2  16   -0.70    2.70
  -5   2  16    1.60    3.20
  -4  -2  16    3.60    2.80
  -4   2  16   -0.20    3.00
  -3  -2  16   -2.50    2.60
  -3  -2  16   -2.40    2.80
  -3   2  16   -1.40    2.80
  -2  -2  16   40.50    5.90
  -2  -2  16   37.00    4.70
  -2   2  16   29.70    4.40
  -1  -2  16    8.40    3.50
  -1  -2  16    4.40    3.20
  -1   2  16   10.00    3.60
   0  -2  16    6.50    3.50
   0  -2  16   11.60    3.50
   0   2  16    9.60    3.60
   1  -2  16    9.60    3.60
   1  -2  16    6.80    3.60
   1   2  16    7.50    3.60
   2  -2  16   14.20    4.00
   2  -2  16   11.60    3.90
   2   2  16   10.90    3.70
   3  -2  16   11.20    3.80
   3  -2  16   11.70    4.00
   3   2  16    9.10    4.00
   4  -2  16   -2.10    3.30
   4  -2  16   -2.00    3.70
   4   2  16   -3.10    3.30
   5  -2  16    2.50    4.00
   5  -2  16    1.70    3.50
   5   2  16    1.30    3.80
   6  -2  16    3.20    3.70
   6   2  16   -0.20    3.70
   6  -3 -16   97.19    7.10
   6   3 -16   97.89    7.20
  -6   3  16   88.99    8.70
  -5   3  16   59.49    7.30
  -4  -3  16  131.49    8.60
  -4   3  16  110.79    8.80
  -3  -3  16   40.60    5.20
  -3   3  16   34.80    4.80
  -2  -3  16  259.47   12.00
  -2   3  16  217.28   12.10
  -1  -3  16   40.90    6.00
  -1   3  16   28.90    4.50
   0  -3  16   74.09    6.70
   0   3  16   60.09    6.80
   1  -3  16  137.99    8.70
   1   3  16  123.69    8.90
   2  -3  16   21.30    4.50
   2   3  16   31.50    4.80
   3  -3  16  283.97   13.80
   3   3  16  292.27   14.70
   4  -3  16    2.00    4.00
   4   3  16    2.90    3.80
   5  -3  16  165.88   10.50
   5   3  16  177.28   11.40
  -6  -4  16   47.40    6.90
   6  -4 -16   42.60    5.40
  -6   4  16   31.30    5.20
  -5  -4  16   31.50    5.20
  -5   4  16   26.10    4.70
  -4  -4  16  142.09    9.00
  -4   4  16  116.19    9.10
  -3  -4  16   12.50    4.10
  -3   4  16   11.30    3.80
  -2  -4  16  262.07   12.50
  -2   4  16  218.38   12.40
  -1  -4  16   17.70    4.30
  -1   4  16   18.40    4.30
   0  -4  16  197.08   10.50
   0   4  16  161.28   10.40
   1  -4  16   35.40    5.10
   1   4  16   26.30    4.60
   2  -4  16   27.40    5.10
   2   4  16   36.40    5.10
   3  -4  16   73.99    7.60
   3   4  16   73.69    7.70
   4  -4  16   -2.20    3.90
   4   4  16    3.00    3.70
   5   4  16   22.10    4.90
  -5  -5  16    3.20    4.00
  -5   5  16    2.20    3.70
  -4  -5  16    6.00    3.90
  -4   5  16    0.80    3.30
  -3  -5  16   20.20    4.50
  -3   5  16   16.50    4.00
  -2  -5  16   20.40    4.70
  -2   5  16   17.50    4.00
  -1  -5  16    8.30    3.90
  -1   5  16    9.50    3.90
   0  -5  16   17.20    4.60
   0   5  16   14.60    3.90
   1  -5  16   42.60    6.50
   1   5  16   41.30    6.30
   2  -5  16   17.30    4.60
   2   5  16   17.80    4.10
   3  -5  16   11.50    4.40
   3   5  16    4.70    3.90
   4   5  16   18.80    4.60
  -3  -6  16    2.50    3.80
  -3   6  16   -1.80    3.30
  -2  -6  16   73.69    7.70
  -2   6  16   54.59    7.00
  -1  -6  16   12.60    4.50
  -1   6  16   12.50    3.90
   0  -6  16   51.79    7.00
   0   6  16   41.70    6.40
   1  -6  16   37.80    5.60
   1   6  16   25.10    4.70
   2  -6  16   26.40    5.10
   2   6  16   26.80    4.70
  -6   0  17   -4.70    3.00
  -5   0  17    0.30    3.10
  -4   0  17    2.20    3.10
  -3   0  17   -3.10    2.70
  -2   0  17   -2.80    2.90
  -1   0  17    1.30    3.20
   0   0  17    3.00    3.40
   1   0  17   -0.30    3.30
   2   0  17   -1.00    3.10
   2   0  17   -1.80    3.60
   3   0  17    1.30    3.60
   3   0  17    2.30    3.50
   4   0  17   -0.30    3.50
   4   0  17   -2.30    3.60
   5   0  17    0.80    4.00
  -6  -1  17   64.19    7.50
  -6   1  17   64.99    7.90
  -5  -1  17    9.60    3.70
  -5   1  17    8.60    3.90
  -4  -1  17  181.88   10.60
  -4   1  17  183.88   11.00
  -3  -1  17   -0.10    3.00
  -3   1  17    1.50    3.20
  -2  -1  17  247.58   12.70
  -2   1  17  254.87   13.00
  -1  -1  17    3.70    3.40
  -1   1  17    2.30    3.20
   0  -1  17  167.48   10.30
   0  -1  17  184.08    9.90
   0   1  17  166.78   10.30
   1  -1  17   48.20    6.50
   1  -1  17   39.20    6.00
   1   1  17   43.10    6.50
   2  -1  17   18.40    4.30
   2  -1  17   23.50    4.70
   2   1  17   18.50    4.70
   3  -1  17  122.49    8.70
   3  -1  17  131.89    9.70
   3   1  17  113.89    9.30
   4  -1  17   -4.90    3.60
   4  -1  17   -1.30    3.70
   4   1  17   -1.00    3.70
   5  -1  17   53.89    7.00
   5  -1  17   66.39    8.20
   5   1  17   59.79    7.70
  -6   2  17   -0.90    3.60
  -5   2  17  103.29    8.80
  -4   2  17   33.10    4.90
  -3  -2  17   -2.40    2.90
  -3   2  17    4.10    3.30
  -2  -2  17   75.69    7.40
  -2  -2  17   77.69    7.00
  -2   2  17   65.59    7.20
  -1  -2  17   35.50    5.00
  -1  -2  17   37.90    4.80
  -1   2  17   35.50    5.00
   0  -2  17   78.89    7.00
   0  -2  17   74.39    7.50
   0   2  17   64.79    7.30
   1  -2  17  229.98   12.60
   1  -2  17  229.78   11.70
   1   2  17  223.08   12.50
   2  -2  17   18.70    4.40
   2  -2  17   20.90    4.50
   2   2  17   21.30    4.50
   3  -2  17  185.08   10.70
   3  -2  17  185.38   11.60
   3   2  17  177.98   11.40
   4  -2  17    1.70    3.90
   4  -2  17    3.10    3.90
   4   2  17    4.00    3.90
   5  -2  17  155.28   11.10
   5   2  17  166.28   11.30
  -5   3  17   -1.40    3.50
  -4   3  17   88.19    8.10
  -3  -3  17    6.20    3.70
  -3   3  17    4.90    3.50
  -2  -3  17   48.00    6.40
  -2   3  17   48.70    6.70
  -1  -3  17   13.00    4.20
  -1   3  17   11.10    3.60
   0  -3  17   92.69    7.60
   0   3  17   82.69    7.80
   1  -3  17   16.20    4.20
   1   3  17   15.20    4.10
   2  -3  17    4.40    4.00
   2   3  17    6.00    3.80
   3  -3  17   45.70    6.70
   3   3  17   45.10    6.90
   4  -3  17   13.10    4.60
   4   3  17   12.40    4.60
  -4  -4  17    2.70    3.80
  -4   4  17    1.80    3.30
  -3  -4  17    3.80    3.80
  -3   4  17   -2.30    3.20
  -2  -4  17   16.40    4.20
  -2   4  17   13.00    3.90
  -1  -4  17   12.40    4.40
  -1   4  17   12.00    4.00
   0  -4  17   19.00    4.60
   0   4  17   20.10    4.30
   1  -4  17   22.20    4.90
   1   4  17   22.40    4.40
   2  -4  17    6.30    4.10
   2   4  17   12.00    4.20
   3  -4  17   33.80    5.50
   3   4  17   32.50    5.30
  -3  -5  17   12.00    4.70
  -3   5  17    9.00    4.10
  -2  -5  17  205.78   11.60
  -2   5  17  181.18   11.40
  -1  -5  17    0.20    3.90
  -1   5  17   -0.40    3.40
   0  -5  17  108.89    8.70
   0   5  17  104.49    8.60
   1  -5  17   38.40    5.70
   1   5  17   34.60    5.20
   2  -5  17   23.40    4.90
   2   5  17   20.70    4.50
  -5   0  18  111.29    9.00
  -4   0  18   10.60    3.80
  -3   0  18   -0.70    3.30
  -2   0  18    6.60    3.80
  -1   0  18   27.80    4.80
   0   0  18    1.50    3.50
   1   0  18  318.47   15.50
   2   0  18    8.70    4.40
   3   0  18  237.38   12.10
   3   0  18  228.48   13.30
   4   0  18    4.30    4.40
  -5  -1  18    0.30    3.20
  -5   1  18   -2.50    3.30
  -4  -1  18  108.89    8.60
  -4   1  18  118.69    9.00
  -3  -1  18   -4.10    3.00
  -3   1  18   -5.50    3.00
  -2  -1  18  139.09    9.30
  -2   1  18  125.99    9.40
  -1  -1  18    9.60    3.70
  -1   1  18    5.10    3.70
   0  -1  18  119.89    9.00
   0   1  18  118.79    9.00
   1  -1  18    2.70    3.60
   1  -1  18    2.00    3.60
   1   1  18    1.90    3.60
   2  -1  18    8.20    3.90
   2  -1  18    8.10    4.20
   2   1  18   17.40    4.60
   3  -1  18   18.20    4.70
   3  -1  18   23.10    4.50
   3   1  18   21.00    4.90
   4  -1  18   -4.20    3.80
   4   1  18   -1.00    3.80
  -5   2  18    9.40    4.10
  -4   2  18   -1.10    3.30
  -3   2  18   -0.60    3.20
  -2   2  18   -2.40    3.20
  -1   2  18    1.20    3.40
   0  -2  18    5.40    3.80
   0   2  18    6.50    3.90
   1  -2  18   10.60    4.20
   1  -2  18    6.80    4.00
   1   2  18   10.50    4.30
   2  -2  18   -2.30    3.60
   2  -2  18    0.40    3.60
   2   2  18    0.10    3.80
   3  -2  18   13.70    4.40
   3  -2  18    7.30    4.10
   3   2  18    9.40    4.40
  -4   3  18  186.18   11.50
  -3   3  18   -4.30    3.30
  -2  -3  18  215.58   11.40
  -2   3  18  184.68   11.70
  -1  -3  18    0.00    3.50
  -1   3  18    1.80    3.50
   0  -3  18  169.98   10.10
   0   3  18  166.48   10.80
   1  -3  18    9.50    4.30
   1   3  18    4.80    4.00
   2  -3  18   18.20    4.80
   2   3  18   17.90    4.50
   3   3  18    2.00    4.10
  -3   4  18   -2.40    3.40
  -2  -4  18    6.40    4.10
  -2   4  18    5.00    4.10
  -1  -4  18   33.90    5.20
  -1   4  18   26.70    4.70
   0  -4  18    4.00    4.10
   0   4  18    1.60    3.70
   1  -4  18  133.69    9.40
   1   4  18  103.59    9.10
  -3   0  19   -0.70    3.40
  -2   0  19   -3.10    3.20
  -1   0  19    0.00    3.40
   0   0  19   -2.50    3.30
   1   0  19    2.50    3.80
   2   0  19   -1.50    3.90
  -3  -1  19   -4.80    3.20
  -3   1  19   -5.10    3.20
  -2  -1  19  129.09    9.40
  -2   1  19  132.69    9.80
  -1  -1  19   11.40    4.00
  -1   1  19    8.50    4.20
   0  -1  19   82.99    8.00
   0   1  19   85.69    8.20
   1  -1  19    1.80    4.00
   1   1  19    1.50    3.90
   2  -1  19   14.80    4.90
   2   1  19   14.40    4.80
  -2   2  19   20.30    4.90
  -1   2  19   40.30    5.70
   0   2  19   18.50    4.50
   1  -2  19  120.39    8.90
   1   2  19  112.29    9.30
   0   0   0    0.00    0.00

_computing_structure_solution     'SHELXT 2014/5 (Sheldrick, 2014)'
;
_shelx_hkl_checksum              28025
_olex2_submission_special_instructions 'No special instructions were received'
loop_
_space_group_symop_operation_xyz
'x, y, z'
'-x, y+1/2, -z+1/2'
'-x, -y, -z'
'x, -y-1/2, z-1/2'
loop_
_atom_site_label
_atom_site_type_symbol
_atom_site_fract_x
_atom_site_fract_y
_atom_site_fract_z
_atom_site_U_iso_or_equiv
_atom_site_adp_type
_atom_site_occupancy
_atom_site_site_symmetry_order
_atom_site_calc_flag
_atom_site_refinement_flags_posn
I1 I 0.46843(3) 0.88299(3) 0.67538(2) 0.03400(9) Uani 1 1 d .
I2 I 0.04851(3) 0.89795(3) 0.68674(2) 0.03494(9) Uani 1 1 d .
O1 O 0.2356(4) 0.5527(4) 0.7213(2) 0.0334(6) Uani 1 1 d .
N1 N 0.2473(4) 0.4957(4) 0.5610(3) 0.0330(7) Uani 1 1 d .
C1 C 0.2414(4) 0.6013(4) 0.6361(3) 0.0244(6) Uani 1 1 d .
C2 C 0.2420(4) 0.7870(4) 0.6130(3) 0.0245(6) Uani 1 1 d .
C3 C 0.2205(6) 0.8302(6) 0.5039(3) 0.0360(9) Uani 1 1 d .
H3A H 0.108790 0.822392 0.482208 0.043 Uiso 1 1 calc R
H3B H 0.255146 0.943261 0.493771 0.043 Uiso 1 1 calc R
C4 C 0.3157(7) 0.7139(7) 0.4452(3) 0.0473(11) Uani 1 1 d .
H4A H 0.304181 0.744409 0.376667 0.057 Uiso 1 1 calc R
H4B H 0.427541 0.721602 0.466664 0.057 Uiso 1 1 calc R
C5 C 0.2585(7) 0.5401(7) 0.4579(3) 0.0490(12) Uani 1 1 d .
H5A H 0.154617 0.527726 0.423782 0.059 Uiso 1 1 calc R
H5B H 0.331054 0.464233 0.428520 0.059 Uiso 1 1 calc R
C6 C 0.2313(7) 0.3187(5) 0.5825(4) 0.0478(12) Uani 1 1 d .
H6A H 0.326141 0.280197 0.618086 0.072 Uiso 1 1 calc GR
H6B H 0.215977 0.258006 0.522379 0.072 Uiso 1 1 calc GR
H6C H 0.141384 0.301931 0.620998 0.072 Uiso 1 1 calc GR
loop_
_atom_site_aniso_label
_atom_site_aniso_U_11
_atom_site_aniso_U_22
_atom_site_aniso_U_33
_atom_site_aniso_U_23
_atom_site_aniso_U_13
_atom_site_aniso_U_12
I1 0.03049(14) 0.03426(15) 0.03709(15) 0.00088(10) 0.00090(10) -0.00916(9)
I2 0.03313(15) 0.03487(15) 0.03719(16) 0.00026(10) 0.00509(11) 0.00986(10)
O1 0.0373(15) 0.0314(14) 0.0320(14) 0.0091(11) 0.0058(12) 0.0004(12)
N1 0.0370(18) 0.0249(15) 0.0372(18) -0.0038(13) 0.0028(14) -0.0014(13)
C1 0.0193(14) 0.0236(15) 0.0304(17) 0.0030(12) 0.0014(12) -0.0003(12)
C2 0.0267(16) 0.0226(15) 0.0241(16) 0.0028(12) 0.0017(12) 0.0006(12)
C3 0.044(2) 0.038(2) 0.0261(18) 0.0081(16) 0.0003(16) 0.0010(18)
C4 0.056(3) 0.057(3) 0.030(2) 0.0010(19) 0.013(2) 0.002(2)
C5 0.063(3) 0.050(3) 0.034(2) -0.009(2) 0.002(2) 0.006(2)
C6 0.054(3) 0.0227(19) 0.066(3) -0.0060(19) 0.004(2) -0.0008(18)
loop_
_atom_type_symbol
_atom_type_description
_atom_type_scat_dispersion_real
_atom_type_scat_dispersion_imag
_atom_type_scat_source
C C 0.0033 0.0016 'International Tables Vol C Tables 4.2.6.8 and 6.1.1.4'
H H 0.0000 0.0000 'International Tables Vol C Tables 4.2.6.8 and 6.1.1.4'
I I -0.4742 1.8119 'International Tables Vol C Tables 4.2.6.8 and 6.1.1.4'
N N 0.0061 0.0033 'International Tables Vol C Tables 4.2.6.8 and 6.1.1.4'
O O 0.0106 0.0060 'International Tables Vol C Tables 4.2.6.8 and 6.1.1.4'
loop_
_geom_angle_atom_site_label_1
_geom_angle_atom_site_label_2
_geom_angle_atom_site_label_3
_geom_angle
C1 N1 C5 126.4(4)
C1 N1 C6 117.2(4)
C6 N1 C5 116.3(4)
O1 C1 N1 122.1(3)
O1 C1 C2 120.4(3)
N1 C1 C2 117.5(3)
I2 C2 I1 109.55(15)
C1 C2 I1 106.3(2)
C1 C2 I2 107.2(2)
C1 C2 C3 114.9(3)
C3 C2 I1 110.3(3)
C3 C2 I2 108.5(3)
C2 C3 H3A 109.6
C2 C3 H3B 109.6
H3A C3 H3B 108.1
C4 C3 C2 110.4(4)
C4 C3 H3A 109.6
C4 C3 H3B 109.6
C3 C4 H4A 109.7
C3 C4 H4B 109.7
H4A C4 H4B 108.2
C5 C4 C3 109.7(4)
C5 C4 H4A 109.7
C5 C4 H4B 109.7
N1 C5 C4 112.5(4)
N1 C5 H5A 109.1
N1 C5 H5B 109.1
C4 C5 H5A 109.1
C4 C5 H5B 109.1
H5A C5 H5B 107.8
N1 C6 H6A 109.5
N1 C6 H6B 109.5
N1 C6 H6C 109.5
H6A C6 H6B 109.5
H6A C6 H6C 109.5
H6B C6 H6C 109.5
loop_
_geom_bond_atom_site_label_1
_geom_bond_atom_site_label_2
_geom_bond_distance
I1 C2 2.180(4)
I2 C2 2.165(4)
O1 C1 1.237(5)
N1 C1 1.339(5)
N1 C5 1.468(6)
N1 C6 1.465(6)
C1 C2 1.531(5)
C2 C3 1.535(5)
C3 H3A 0.9700
C3 H3B 0.9700
C3 C4 1.501(7)
C4 H4A 0.9700
C4 H4B 0.9700
C4 C5 1.495(8)
C5 H5A 0.9700
C5 H5B 0.9700
C6 H6A 0.9600
C6 H6B 0.9600
C6 H6C 0.9600
