#------------------------------------------------------------------------------
#$Date: 2019-11-11 19:08:53 +0200 (Mon, 11 Nov 2019) $
#$Revision: 227008 $
#$URL: file:///home/coder/svn-repositories/cod/cif/4/03/55/4035560.cif $
#------------------------------------------------------------------------------
#
# This file is available in the Crystallography Open Database (COD),
# http://www.crystallography.net/
#
# All data on this site have been placed in the public domain by the
# contributors.
#
data_4035560
loop_
_publ_author_name
'Rocha, Juliana F.'
'Freitas, David S.'
'Noro, Jennifer'
'Silva Teixeira, Carla S.'
'Sousa, Cristina E. A.'
'Alves, Maria J.'
'Cerqueira, Nuno M. F. S. A.'
_publ_section_title
;
 Total Stereoselective Michael Addition of N- and S- Nucleophiles to a
 d-Erythrosyl 1,5-Lactone Derivative. Experimental and Theoretical Studies
 Devoted to the Synthesis of 2,6-Dideoxy-4-functionalized-d-
 ribono-hexono-1,4-lactone.
;
_journal_issue                   15
_journal_name_full               'The Journal of organic chemistry'
_journal_page_first              8011
_journal_page_last               8019
_journal_paper_doi               10.1021/acs.joc.8b00769
_journal_volume                  83
_journal_year                    2018
_chemical_absolute_configuration rmad
_chemical_formula_moiety         'C13 H18 N O4, Cl'
_chemical_formula_sum            'C13 H18 Cl N O4'
_chemical_formula_weight         287.73
_chemical_name_common            'DF2 - 17ALE001'
_space_group_crystal_system      triclinic
_space_group_IT_number           1
_space_group_name_Hall           'P 1'
_space_group_name_H-M_alt        'P 1'
_atom_sites_solution_hydrogens   difmap
_atom_sites_solution_primary     dual
_atom_sites_solution_secondary   difmap
_cell_angle_alpha                78.393(2)
_cell_angle_beta                 80.255(2)
_cell_angle_gamma                87.923(2)
_cell_formula_units_Z            2
_cell_length_a                   5.4859(2)
_cell_length_b                   7.6978(2)
_cell_length_c                   16.1908(5)
_cell_measurement_reflns_used    3265
_cell_measurement_temperature    100.(2)
_cell_measurement_theta_max      26.2645
_cell_measurement_theta_min      2.6044
_cell_volume                     660.08(4)
_computing_cell_refinement       'SAINT V8.37A (Bruker AXS Inc., 2015)'
_computing_data_collection       'Bruker APEX2 software'
_computing_data_reduction        'SAINT V8.37A (Bruker AXS Inc., 2015)'
_computing_molecular_graphics    'shelXle (C.B. Huebschle, rev 807)'
_computing_structure_refinement  'SHELXL-2016/6 (Sheldrick, 2016)'
_computing_structure_solution    'SHELXT-2014 (Sheldrick, 2014)'
_diffrn_ambient_temperature      100.(2)
_diffrn_detector_area_resol_mean 16.6666
_diffrn_measured_fraction_theta_full 0.999
_diffrn_measured_fraction_theta_max 0.999
_diffrn_measurement_device_type  '\k--geometry diffractometer'
_diffrn_measurement_method       '\f or \w oscillation scans'
_diffrn_radiation_monochromator  graphite
_diffrn_radiation_type           MoK\a
_diffrn_radiation_wavelength     0.71073
_diffrn_reflns_av_unetI/netI     0.0624
_diffrn_reflns_limit_h_max       6
_diffrn_reflns_limit_h_min       -6
_diffrn_reflns_limit_k_max       8
_diffrn_reflns_limit_k_min       -9
_diffrn_reflns_limit_l_max       19
_diffrn_reflns_limit_l_min       -20
_diffrn_reflns_number            7504
_diffrn_reflns_theta_full        26.39
_diffrn_reflns_theta_max         26.39
_diffrn_reflns_theta_min         1.30
_diffrn_source                   'sealed x-ray tube'
_diffrn_source_type              'SIEMENS KFN MO 2K-90'
_exptl_absorpt_coefficient_mu    0.299
_exptl_absorpt_correction_T_max  0.99
_exptl_absorpt_correction_T_min  0.86
_exptl_absorpt_correction_type   multi-scan
_exptl_absorpt_process_details
'TWINABS-2012/1 - Bruker AXS scaling for twinned crystals'
_exptl_crystal_colour            'clear colourless'
_exptl_crystal_density_diffrn    1.448
_exptl_crystal_density_method    'not measured'
_exptl_crystal_description       plate
_exptl_crystal_F_000             304
_exptl_crystal_size_max          0.500
_exptl_crystal_size_mid          0.200
_exptl_crystal_size_min          0.030
_refine_diff_density_max         0.282
_refine_diff_density_min         -0.269
_refine_ls_abs_structure_details
;

Classical Flack method preferred over Parsons because s.u. lower.
;
_refine_ls_abs_structure_Flack   -0.10(5)
_refine_ls_extinction_method     none
_refine_ls_goodness_of_fit_ref   1.036
_refine_ls_hydrogen_treatment    constr
_refine_ls_matrix_type           full
_refine_ls_number_parameters     348
_refine_ls_number_reflns         7504
_refine_ls_number_restraints     3
_refine_ls_restrained_S_all      1.036
_refine_ls_R_factor_all          0.0582
_refine_ls_R_factor_gt           0.0434
_refine_ls_shift/su_max          0.000
_refine_ls_shift/su_mean         0.000
_refine_ls_structure_factor_coef Fsqd
_refine_ls_weighting_details
'w=1/[\s^2^(Fo^2^)+(0.0483P)^2^+0.0276P] where P=(Fo^2^+2Fc^2^)/3'
_refine_ls_weighting_scheme      calc
_refine_ls_wR_factor_gt          0.0903
_refine_ls_wR_factor_ref         0.0969
_reflns_number_gt                6305
_reflns_number_total             7504
_reflns_threshold_expression     'I > 2\s(I)'
_cod_data_source_file            jo8b00769_si_001.cif
_cod_data_source_block           17ALE001
_cod_depositor_comments
;
The following automatic conversions were performed:

data item '_exptl_absorpt_correction_type' value 'Multi-Scan' was
changed to 'multi-scan' in accordance with the
/home/data/users/saulius/crontab/automatic-downloads/current/ACS/lib/dictionaries/cif_core.dic
dictionary named 'cif_core.dic' version 2.4.2 last updated on
2011-04-26.

Automatic conversion script
Id: cif_fix_values 6909 2019-04-08 15:41:33Z antanas 
;
_cod_database_code               4035560
_shelx_res_file
;

TITL 17ALE001_HKLF4_a.res in P1
    17ALE001.res
    created by SHELXL-2016/6 at 13:12:29 on 04-Jul-2017
CELL 0.71073 5.4859 7.6978 16.1908 78.393 80.255 87.923
ZERR 2.00 0.0002 0.0002 0.0005 0.002 0.002 0.002
LATT -1
SFAC C H N O CL
UNIT 26 36 2 8 2
LIST 4 ! automatically inserted. Change 6 to 4 for CHECKCIF!!
TEMP -173.150
SIZE 0.030 0.200 0.500
MERG 0
ACTA
OMIT 0 0 -1
WPDB -2
L.S. 12
FMAP 2
PLAN 30
REM Instructions for potential hydrogen bonds
EQIV $1 x+1, y, z
HTAB N7 Cl1_$1
HTAB N7 Cl1
EQIV $2 x-1, y, z
HTAB O17 O18_$2
EQIV $3 x+1, y+1, z
HTAB O18 Cl1_$3
HTAB N27 Cl2_$2
HTAB N27 Cl2
EQIV $4 x, y-1, z
HTAB O37 O38_$2
HTAB O38 Cl2_$4
BOND $H
CONF
WGHT    0.048300    0.027600
BASF   0.51337
FVAR       1.65613
CL1   5    0.282346    0.418350    0.234114    11.00000    0.01161    0.01473 =
         0.01593   -0.00248   -0.00180    0.00012
CL2   5    0.517896    0.578481    0.768002    11.00000    0.01330    0.01563 =
         0.01492   -0.00177   -0.00358    0.00071
O1    4    1.062639    0.605797    0.405000    11.00000    0.01382    0.01075 =
         0.01807   -0.00107   -0.00750    0.00194
C2    1    0.940656    0.450002    0.428901    11.00000    0.01990    0.01346 =
         0.01247   -0.00723    0.00001   -0.00004
C3    1    0.733200    0.448814    0.379422    11.00000    0.01031    0.01571 =
         0.01411   -0.00530   -0.00076   -0.00197
AFIX  23
H3A   2    0.573084    0.427168    0.418529    11.00000   -1.20000
H3B   2    0.759879    0.355372    0.344790    11.00000   -1.20000
AFIX   0
C4    1    0.736187    0.631820    0.322033    11.00000    0.01547    0.01480 =
         0.00733   -0.00067   -0.00474   -0.00245
AFIX  13
H4    2    0.579971    0.697305    0.337785    11.00000   -1.20000
AFIX   0
C5    1    0.961416    0.727927    0.338493    11.00000    0.01232    0.01075 =
         0.00906    0.00157   -0.00508    0.00034
AFIX  13
H5    2    1.087739    0.750591    0.285242    11.00000   -1.20000
AFIX   0
O6    4    1.003053    0.335245    0.483272    11.00000    0.02549    0.01632 =
         0.01341   -0.00102   -0.00884    0.00355
N7    3    0.767563    0.614232    0.229870    11.00000    0.01023    0.01370 =
         0.01057   -0.00442   -0.00248   -0.00204
AFIX  23
H7A   2    0.915451    0.560825    0.216154    11.00000   -1.20000
H7B   2    0.646632    0.542011    0.223948    11.00000   -1.20000
AFIX   0
C8    1    0.758070    0.786847    0.167624    11.00000    0.02271    0.01094 =
         0.01389    0.00062   -0.00286    0.00194
AFIX  23
H8A   2    0.590772    0.839145    0.177746    11.00000   -1.20000
H8B   2    0.877807    0.870563    0.177505    11.00000   -1.20000
AFIX   0
C9    1    0.817157    0.763116    0.076636    11.00000    0.01351    0.01395 =
         0.01099   -0.00037    0.00083   -0.00480
C10   1    1.039578    0.689168    0.045485    11.00000    0.01789    0.01654 =
         0.01314    0.00276   -0.00422   -0.00601
AFIX  43
H10   2    1.152349    0.644797    0.083276    11.00000   -1.20000
AFIX   0
C11   1    1.099031    0.679278   -0.039776    11.00000    0.01523    0.01911 =
         0.01993   -0.00321    0.00348   -0.00592
AFIX  43
H11   2    1.251440    0.627420   -0.060131    11.00000   -1.20000
AFIX   0
C12   1    0.937540    0.744583   -0.095657    11.00000    0.02716    0.01390 =
         0.01165   -0.00108   -0.00380   -0.00365
AFIX  43
H12   2    0.980783    0.741415   -0.154686    11.00000   -1.20000
AFIX   0
C13   1    0.713814    0.814158   -0.065088    11.00000    0.02511    0.01443 =
         0.01353    0.00128   -0.00850   -0.00644
AFIX  43
H13   2    0.600225    0.855383   -0.102997    11.00000   -1.20000
AFIX   0
C14   1    0.651977    0.824865    0.020553    11.00000    0.01620    0.01307 =
         0.01807    0.00039   -0.00423   -0.00173
AFIX  43
H14   2    0.497536    0.874131    0.040880    11.00000   -1.20000
AFIX   0
C15   1    0.904863    0.901133    0.370738    11.00000    0.01290    0.01284 =
         0.01350   -0.00187   -0.00305    0.00158
AFIX  13
H15   2    0.778922    0.880251    0.424112    11.00000   -1.20000
AFIX   0
C16   1    1.139623    0.976161    0.387376    11.00000    0.02163    0.01364 =
         0.02142   -0.00566   -0.00731    0.00193
AFIX  23
H16A  2    1.099937    1.086699    0.409345    11.00000   -1.20000
H16B  2    1.208756    0.890082    0.431682    11.00000   -1.20000
AFIX   0
O17   4    0.815355    1.028467    0.305928    11.00000    0.01103    0.01206 =
         0.02020    0.00032   -0.00523    0.00082
AFIX 147
H17   2    0.662491    1.014743    0.309413    11.00000   -1.50000
AFIX   0
O18   4    1.320853    1.013192    0.311114    11.00000    0.00997    0.01537 =
         0.02701    0.00160   -0.00359   -0.00262
AFIX 147
H18   2    1.292376    1.113199    0.282347    11.00000   -1.50000
AFIX   0
O21   4    0.479770    0.392398    0.593561    11.00000    0.01189    0.01120 =
         0.01517   -0.00131    0.00203    0.00076
C22   1    0.371256    0.551313    0.571515    11.00000    0.01720    0.01601 =
         0.00940   -0.00675   -0.00346   -0.00220
C23   1    0.115540    0.556563    0.621957    11.00000    0.01690    0.01294 =
         0.00896   -0.00123   -0.00416   -0.00057
AFIX  23
H23A  2   -0.008939    0.581941    0.583385    11.00000   -1.20000
H23B  2    0.103673    0.648910    0.657096    11.00000   -1.20000
AFIX   0
C24   1    0.074916    0.371926    0.678915    11.00000    0.00898    0.01525 =
         0.00982   -0.00441    0.00203   -0.00091
AFIX  13
H24   2   -0.063711    0.310650    0.663549    11.00000   -1.20000
AFIX   0
C25   1    0.320582    0.271353    0.659749    11.00000    0.01188    0.01283 =
         0.01207   -0.00047   -0.00210   -0.00114
AFIX  13
H25   2    0.398561    0.244605    0.712451    11.00000   -1.20000
AFIX   0
O26   4    0.477406    0.666369    0.517641    11.00000    0.02482    0.01608 =
         0.01304    0.00041    0.00217   -0.00377
N27   3    0.019944    0.385481    0.771190    11.00000    0.00932    0.01459 =
         0.01030    0.00008   -0.00092   -0.00061
AFIX  23
H27A  2   -0.110275    0.460591    0.778633    11.00000   -1.20000
H27B  2    0.153027    0.434013    0.784770    11.00000   -1.20000
AFIX   0
C28   1   -0.039385    0.212154    0.831739    11.00000    0.02059    0.01239 =
         0.01149   -0.00044    0.00204   -0.00150
AFIX  23
H28A  2    0.094870    0.126231    0.820611    11.00000   -1.20000
H28B  2   -0.194239    0.164456    0.821392    11.00000   -1.20000
AFIX   0
C29   1   -0.069175    0.231205    0.923529    11.00000    0.01538    0.00951 =
         0.01523   -0.00126   -0.00030   -0.00532
C30   1   -0.281079    0.308840    0.960985    11.00000    0.01427    0.01413 =
         0.01476   -0.00049   -0.00268   -0.00151
AFIX  43
H30   2   -0.403280    0.356099    0.927457    11.00000   -1.20000
AFIX   0
C31   1   -0.315630    0.317893    1.047005    11.00000    0.02095    0.01383 =
         0.01131   -0.00265    0.00288    0.00133
AFIX  43
H31   2   -0.461904    0.369648    1.072380    11.00000   -1.20000
AFIX   0
C32   1   -0.136323    0.251294    1.095556    11.00000    0.03396    0.01741 =
         0.00891   -0.00110    0.00087   -0.00940
AFIX  43
H32   2   -0.158935    0.257914    1.154326    11.00000   -1.20000
AFIX   0
C33   1    0.077197    0.174589    1.058463    11.00000    0.02142    0.01470 =
         0.02176    0.00127   -0.00834   -0.00234
AFIX  43
H33   2    0.200273    0.128312    1.091791    11.00000   -1.20000
AFIX   0
C34   1    0.109230    0.166107    0.972654    11.00000    0.01569    0.01408 =
         0.01848   -0.00435   -0.00107    0.00056
AFIX  43
H34   2    0.255852    0.114835    0.947229    11.00000   -1.20000
AFIX   0
C35   1    0.303511    0.100627    0.627274    11.00000    0.01172    0.00968 =
         0.01348    0.00112   -0.00087   -0.00060
AFIX  13
H35   2    0.227681    0.125568    0.574102    11.00000   -1.20000
AFIX   0
C36   1    0.558366    0.019114    0.609107    11.00000    0.02200    0.01545 =
         0.01785   -0.00389   -0.00332    0.00020
AFIX  23
H36A  2    0.545101   -0.089002    0.585818    11.00000   -1.20000
H36B  2    0.666929    0.104225    0.565639    11.00000   -1.20000
AFIX   0
O37   4    0.156208   -0.023117    0.691341    11.00000    0.00819    0.01904 =
         0.02012   -0.00002   -0.00330   -0.00106
AFIX 147
H37   2    0.010647   -0.019717    0.681288    11.00000   -1.50000
AFIX   0
O38   4    0.665695   -0.025732    0.685855    11.00000    0.01257    0.01792 =
         0.02697    0.00125   -0.00580   -0.00081
AFIX 147
H38   2    0.621354   -0.128327    0.711859    11.00000   -1.50000
AFIX   0
HKLF 5




REM  17ALE001_HKLF4_a.res in P1
REM R1 =  0.0434 for    6305 Fo > 4sig(Fo)  and  0.0582 for all    7504 data
REM    348 parameters refined using      3 restraints

END

WGHT      0.0483      0.0276

REM Highest difference peak  0.282,  deepest hole -0.269,  1-sigma level  0.061
Q1    1   0.7521  0.6257  0.2817  11.00000  0.05    0.28
Q2    1   0.3506  0.2122  0.8593  11.00000  0.05    0.23
Q3    1  -0.3538  0.3924  1.0598  11.00000  0.05    0.23
Q4    1  -0.6018  0.3997  1.0033  11.00000  0.05    0.23
Q5    1   1.1720  0.6277  0.1641  11.00000  0.05    0.22
Q6    1   0.7784  0.7114  0.1994  11.00000  0.05    0.22
Q7    1   0.0392  0.3690  0.7246  11.00000  0.05    0.22
Q8    1   0.9993  0.6639  0.3737  11.00000  0.05    0.22
Q9    1  -0.3533  0.1376  0.9209  11.00000  0.05    0.21
Q10   1   0.9198  0.4040  0.3007  11.00000  0.05    0.21
Q11   1   1.1406  0.5900  0.1132  11.00000  0.05    0.21
Q12   1   0.1881  0.3466  1.0986  11.00000  0.05    0.20
Q13   1   0.7061  0.8903  0.3971  11.00000  0.05    0.20
Q14   1  -0.0958  0.3566  0.6823  11.00000  0.05    0.20
Q15   1   0.4508  0.5030  0.2986  11.00000  0.05    0.20
Q16   1   0.3991  0.7069  0.6224  11.00000  0.05    0.20
Q17   1   0.7350  0.8848 -0.1847  11.00000  0.05    0.20
Q18   1   1.0742  0.1888  0.4752  11.00000  0.05    0.20
Q19   1   0.6007  0.7883 -0.1345  11.00000  0.05    0.19
Q20   1   0.5751  0.5639  0.6962  11.00000  0.05    0.19
Q21   1   0.3192  0.4472  0.2883  11.00000  0.05    0.19
Q22   1   0.4508  0.1996  0.7791  11.00000  0.05    0.19
Q23   1   0.4027  0.2591  0.4404  11.00000  0.05    0.19
Q24   1  -0.1289  0.0043  1.0011  11.00000  0.05    0.19
Q25   1  -0.3536  0.3783  0.7963  11.00000  0.05    0.19
Q26   1  -0.3767  0.5371  0.8809  11.00000  0.05    0.19
Q27   1   0.7980  0.8652  0.2217  11.00000  0.05    0.19
Q28   1   0.7471  1.0548  0.3829  11.00000  0.05    0.19
Q29   1   0.3307  0.2823  0.8020  11.00000  0.05    0.19
Q30   1  -0.4642  0.4163  0.9384  11.00000  0.05    0.19
;
_shelx_res_checksum              12459
_shelx_hkl_file
;
  -1   0   0 1600.37 15.9638   2
  -1   0   0 1525.55 27.1762   1
   1   0   0 1519.29 15.2860   1
   1   0   0 1475.80 24.2042   2
  -2   0   0 207.066 10.4673   2
  -2   0   0 243.694 20.1364   1
   2   0   0 211.866 9.98314   1
   2   0   0 205.240 11.6355   2
  -3   0   0 211.325 12.6986   2
  -3   0   0 180.394 20.9427   1
   3   0   0 206.765 14.3053   2
   3   0   0 191.347 11.5902   1
   4   1   1 674.584 46.7421  -2
  -4   0   0 674.584 46.7421   1
  -4  -1  -1 626.343 25.6882  -2
   4   0   0 626.343 25.6882   1
   5   1   1 839.255 58.7182  -2
  -5   0   0 839.255 58.7182   1
  -5  -1  -1 934.613 38.4748  -2
   5   0   0 934.613 38.4748   1
  -6   0   0 82.2596 19.9123   2
  -6   0   0 120.905 37.6642   1
   6   0   0 58.9421 28.9272   2
   6   0   0 105.607 28.3888   1
  -6  -2  -3 145.284 37.0529  -2
   6  -1   0 145.284 37.0529   1
   6   2   3 51.7960 50.9170  -2
  -6   1   0 51.7960 50.9170   1
  -5  -2  -3 1101.47 60.8176  -2
   5  -1   0 1101.47 60.8176   1
   5  -1   0 217.426 29.4883   1
  -5   1   0 282.823 33.4323   2
   5   2   3 1245.89 80.7123  -2
  -5   1   0 1245.89 80.7123   1
   4  -1   0 588.317 23.1290   1
   4  -1   0 579.772 40.2643   2
  -4   1   0 600.775 29.1189   1
  -4   1   0 578.270 27.3879   2
   3  -1   0 894.020 20.9265   1
   3  -1   0 847.710 24.4768   2
  -3   1   0 888.474 21.1405   2
  -3   1   0 881.336 27.0831   1
   2  -1   0 1839.59 29.1277   2
  -2  -1  -2 2979.69 52.6329  -2
   2  -1   0 2979.69 52.6329   1
   2  -1   0 1804.16 21.8883   1
  -2   1   0 1804.53 23.6980   2
  -2   1   0 1767.09 29.9345   1
  -1  -1  -2 2804.64 21.3729  -2
   1  -1   0 2804.64 21.3729   1
   1   1   2 2924.63 31.2292  -2
  -1   1   0 2924.63 31.2292   1
   0  -1   0 1159.26 6.25552   1
   0  -1   0 1240.40 8.81462   2
   0   1   0 1265.85 10.9525   2
   0   1   0 1190.66 9.32116   1
  -1  -1   0 566.675 7.34425   2
  -1  -1   0 511.052 11.3809   1
   1   1   0 512.933 11.6412   1
   1   1   0 536.737 15.4935   2
  -2  -1   0 268.453 10.5575   2
  -2  -1   0 249.023 12.2714   1
   2   1   0 246.549 10.6807   1
   2   1   0 262.552 18.3973   2
   3   0  -1 248.220 18.1990  -2
  -3  -1   0 248.220 18.1990   1
  -3   0   1 224.491 16.1615  -2
   3   1   0 224.491 16.1615   1
  -4  -1   0 1061.59 34.1897   2
   4   0  -1 1100.85 59.0624  -2
  -4  -1   0 1100.85 59.0624   1
   4   1   0 1030.49 34.6228   1
  -4   0   1 1133.26 54.4205  -2
   4   1   0 1133.26 54.4205   1
  -5  -1   0 59.2427 16.6037   2
  -5  -1   0 93.7029 25.9576   1
   5   1   0 78.7962 16.6755   1
   5   1   0 46.1187 24.3883   2
  -6  -1   0 61.1253 30.8373   1
  -6  -1   0 91.1914 19.7233   2
   6   1   0 113.299 21.8428   1
  -6  -3  -5 126.801 53.2640  -2
   6  -2   0 126.801 53.2640   1
   6  -2   0 100.754 37.4651   1
  -6   2   0 60.6590 28.0685   2
  -6   2   0 91.2351 35.0158   1
   5  -2   0 241.817 22.5445   1
   5  -2   0 200.440 34.1143   2
  -5   2   0 200.972 21.6449   2
  -5   2   0 177.019 34.5654   1
   4  -2   0 253.670 19.8588   1
   4  -2   0 206.393 29.2844   2
  -4   2   0 241.218 19.9292   2
  -4   2   0 228.370 32.6683   1
   3  -2   0 203.979 11.4145   1
  -3  -2  -4 2744.03 61.5600  -2
   3  -2   0 2744.03 61.5600   1
   3   2   4 2688.51 47.0421  -2
  -3   2   0 2688.51 47.0421   1
  -3   2   0 262.449 16.9327   2
  -2  -2  -4 866.964 15.9277  -2
   2  -2   0 866.964 15.9277   1
   2   2   4 823.205 22.6863  -2
  -2   2   0 823.205 22.6863   1
  -2   2   0 126.844 13.0689   2
   1  -2   0 1097.19 12.8562   2
   1  -2   0 1032.38 10.1530   1
  -1   2   0 1173.31 18.0506   2
  -1   2   0 1124.81 17.2689   1
   0  -2   0 40.3080 1.91880   2
   0  -2   0 37.3854 2.26061   1
   0   2   0 41.8170 4.03497   1
   0   2   0 46.6368 4.15756   2
  -1  -2   0 2876.34 31.9211   1
  -1  -2   0 3068.92 21.6374   2
   1   2   0 3111.18 48.2734   1
   1   2   0 3155.50 38.7420   2
   2  -1  -3 1769.70 29.8787  -2
  -2  -2   0 1769.70 29.8787   1
  -2   1   3 1900.85 31.1767  -2
   2   2   0 1900.85 31.1767   1
  -3  -2   0 1219.75 29.7374   1
  -3  -2   0 1418.90 19.0705   2
   3   2   0 1263.52 30.4796   1
   3   2   0 1389.58 43.5342   2
  -4  -2   0 248.366 16.0627   2
  -4  -2   0 201.056 29.2725   1
   4   2   0 257.482 30.0144   1
   4   2   0 306.011 30.5558   2
  -5  -2   0 10.6089 22.0080   1
  -5  -2   0 32.1374 14.2570   2
   5   2   0 9.48382 19.5300   1
   6   0  -2 24.8382 56.7374  -2
  -6  -2   0 24.8382 56.7374   1
  -6   0   2 -2.9292 51.2554  -2
   6   2   0 -2.9292 51.2554   1
   6  -3   0 0.73664 25.1799   2
   6  -3   0 43.8717 14.4966   1
  -6   3   0 51.6006 19.0744   2
  -6   3   0 72.1112 33.5661   1
   5  -3   0 129.215 14.5865   1
   5  -3   0 139.556 32.1739   2
  -5   3   0 131.615 32.2469   1
  -5   3   0 172.247 32.1643   2
  -4  -3  -6 321.606 26.1739  -2
   4  -3   0 321.606 26.1739   1
   4   3   6 284.152 49.0651  -2
  -4   3   0 284.152 49.0651   1
  -3  -3  -6 195.720 15.7812  -2
   3  -3   0 195.720 15.7812   1
   3   3   6 169.460 37.6541  -2
  -3   3   0 169.460 37.6541   1
   2  -3   0 561.390 15.3983   2
   2  -3   0 562.830 10.8737   1
  -2   3   0 569.244 14.3594   2
  -2   3   0 570.010 16.9184   1
   1  -3   0 166.560 6.41865   2
   1  -3   0 160.572 5.04968   1
  -1   3   0 146.749 9.29517   1
  -1   3   0 167.592 8.42219   2
   0  -3   0 1521.51 12.5506   1
   0  -3   0 1663.68 12.1102   2
   0   3   0 1713.32 20.5429   2
   0   3   0 1628.39 21.3036   1
   1  -2  -5 279.172 9.31601  -2
  -1  -3   0 279.172 9.31601   1
  -1   2   5 260.031 9.72536  -2
   1   3   0 260.031 9.72536   1
  -2  -3   0 256.734 14.1676   1
  -2  -3   0 276.415 9.27358   2
   2   3   0 310.616 23.3538   1
   2   3   0 288.796 14.8621   2
  -3  -3   0 556.464 23.2043   1
  -3  -3   0 606.030 19.3916   2
   3   3   0 610.913 25.8341   2
   3   3   0 582.588 34.4911   1
  -4  -3   0 261.706 19.8028   2
  -4  -3   0 204.304 29.8887   1
   4   3   0 219.352 29.9342   1
   4   3   0 228.092 37.5147   2
   5  -1  -4 266.688 55.6253  -2
  -5  -3   0 266.688 55.6253   1
  -5   1   4 204.828 48.0803  -2
   5   3   0 204.828 48.0803   1
   6  -1  -4 706.019 72.5019  -2
  -6  -3   0 706.019 72.5019   1
  -6   1   4 632.650 61.4828  -2
   6   3   0 632.650 61.4828   1
   6  -4   0 467.039 32.7028   1
   6  -4   0 369.449 47.7984   2
  -6   4   0 511.951 58.1046   1
  -5  -4  -8 579.909 50.1631  -2
   5  -4   0 579.909 50.1631   1
   5   4   8 604.878 57.8826  -2
  -5   4   0 604.878 57.8826   1
   4  -4   0 171.999 17.7504   2
  -4  -4  -8 337.913 44.2261  -2
   4  -4   0 337.913 44.2261   1
   4   4   8 347.225 54.4684  -2
  -4   4   0 347.225 54.4684   1
   3  -4   0 106.677 9.64595   1
   3  -4   0 90.3985 13.6921   2
  -3   4   0 85.8873 11.3498   2
  -3   4   0 63.6601 22.8493   1
   2  -4   0 132.487 9.98758   2
   2  -4   0 178.656 7.73390   1
  -2   4   0 165.614 21.3333   1
  -2   4   0 199.240 12.7546   2
   1  -4   0 235.983 6.82832   1
   1  -4   0 251.353 8.44578   2
  -1   4   0 274.106 10.7162   2
  -1   4   0 311.554 18.5592   1
   0  -3  -7 337.124 9.68184  -2
   0  -4   0 337.124 9.68184   1
   0   3   7 373.536 13.8258  -2
   0   4   0 373.536 13.8258   1
  -1  -4   0 1848.14 15.0305   2
  -1  -4   0 1741.06 23.2181   1
   1   4   0 1877.58 23.2992   1
   1   4   0 1938.03 51.9972   2
  -2  -4   0 409.182 18.6993   1
  -2  -4   0 446.624 11.4336   2
   2   4   0 495.128 20.9761   1
   2   4   0 449.786 36.5548   2
  -3  -4   0 159.721 15.7222   1
  -3  -4   0 194.490 14.5682   2
   3   4   0 223.252 19.5670   1
   3   4   0 194.886 32.3408   2
   4  -2  -6 1071.24 58.5026  -2
  -4  -4   0 1071.24 58.5026   1
  -4   2   6 1351.75 61.6354  -2
   4   4   0 1351.75 61.6354   1
   5  -2  -6 343.113 55.5131  -2
  -5  -4   0 343.113 55.5131   1
  -5   2   6 331.121 55.8044  -2
   5   4   0 331.121 55.8044   1
  -6  -4   0 70.7822 32.9732   1
  -6  -4   0 61.1799 23.2507   2
   6   4   0 48.3320 40.7310   2
   6   4   0 70.7978 30.2153   1
   5  -5   0 23.7483 13.5765   1
   5  -5   0 42.1491 23.8565   2
  -5   5   0 44.2302 30.4678   1
   4  -5   0 181.044 19.1066   2
   4  -5   0 179.108 17.3972   1
  -4   5   0 192.160 33.0681   1
   3  -5   0 187.631 14.6906   1
   3  -5   0 191.867 16.9617   2
  -3   5   0 202.275 29.1380   1
  -2  -4  -9 1119.11 18.3784  -2
   2  -5   0 1119.11 18.3784   1
  -1  -4  -9 206.356 9.64520  -2
   1  -5   0 206.356 9.64520   1
   1   4   9 184.995 21.4463  -2
  -1   5   0 184.995 21.4463   1
   0  -5   0 1464.69 16.2708   2
   0  -5   0 1397.47 15.6968   1
   0   5   0 1541.59 41.2030   1
   0   5   0 1648.30 42.0121   2
  -1  -5   0 21.7145 3.82742   2
  -1  -5   0 9.54455 6.95444   1
   1   5   0 26.6985 6.20831   1
   1   5   0 28.2845 17.4043   2
  -2  -5   0 217.805 9.50975   2
  -2  -5   0 224.445 16.8118   1
   2   5   0 260.043 32.4053   2
   2   5   0 231.741 13.9932   1
   3  -3  -8 784.571 30.4759  -2
  -3  -5   0 784.571 30.4759   1
  -3   3   8 815.483 45.9399  -2
   3   5   0 815.483 45.9399   1
  -4  -5   0 254.668 19.5153   2
  -4  -5   0 219.884 34.5052   1
  -4   3   8 376.208 54.5490  -2
   4   5   0 376.208 54.5490   1
   4   5   0 249.963 41.5149   2
   4   5   0 236.136 32.6273   1
  -5  -5   0 41.2783 28.1058   1
  -5  -5   0 77.6080 16.2660   2
   5   5   0 73.0803 28.8245   1
   5   5   0 98.2537 37.3783   2
   5  -6   0 134.907 33.8304   2
   5  -6   0 166.070 19.6834   1
  -5   6   0 87.2553 35.8000   1
   4  -6   0 45.3478 14.7969   2
   4  -6   0 50.6460 12.9417   1
  -4   6   0 36.5414 25.5554   1
  -3  -5 -11 404.345 22.6405  -2
   3  -6   0 404.345 22.6405   1
  -2  -5 -11 336.398 20.2371  -2
   2  -6   0 336.398 20.2371   1
   1  -6   0 200.824 13.1555   2
   1  -6   0 190.675 10.3812   1
  -1   6   0 271.854 24.3512   1
   0  -6   0 87.2715 6.19825   2
   0  -6   0 66.8313 9.23457   1
   0   6   0 87.5064 15.7663   1
   0   6   0 91.3706 16.1796   2
  -1  -6   0 35.6365 4.61382   2
  -1  -6   0 39.4284 9.44029   1
   1   6   0 15.4816 13.9506   1
   1   6   0 -9.7269 15.3461   2
   2  -4 -10 3143.44 52.3652  -2
  -2  -6   0 3143.44 52.3652   1
  -3  -6   0 321.875 18.2055   2
  -3  -6   0 289.794 22.0951   1
   3   6   0 341.107 41.9089   2
  -4  -6   0 407.389 23.8315   2
  -4  -6   0 277.312 38.7789   1
   4   6   0 292.399 45.6775   2
  -5  -6   0 45.1349 15.9656   2
  -5  -6   0 50.4856 28.8930   1
   5   6   0 77.3205 38.1751   2
  -4  -6 -13 -1.8833 20.1966  -2
   4  -7   0 -1.8833 20.1966   1
   3  -7   0 9.36246 12.1076   2
  -3  -6 -13 251.819 34.0690  -2
   3  -7   0 251.819 34.0690   1
   3  -7   0 35.1755 15.3467   1
   2  -7   0 20.8095 10.0959   2
   2  -7   0 29.4396 9.14264   1
   1  -7   0 652.423 21.3181   2
   1  -7   0 624.831 20.5671   1
   0  -5 -12 641.327 25.5783  -2
   0  -7   0 641.327 25.5783   1
   1  -5 -12 477.911 23.6395  -2
  -1  -7   0 477.911 23.6395   1
  -2  -7   0 5.93671 11.0480   1
  -2  -7   0 0.17642 8.20272   2
   2   7   0 22.1935 23.7978   2
  -3  -7   0 132.041 18.3670   1
  -3  -7   0 103.985 16.2435   2
   3   7   0 84.1697 32.9284   2
  -4  -7   0 141.903 16.5768   2
  -4  -7   0 143.098 33.2422   1
   4   7   0 210.791 44.3646   2
   3  -8   0 -2.2941 12.5848   2
   3  -8   0 12.5608 16.5778   1
   2  -8   0 74.8363 13.3080   2
   2  -8   0 82.9642 12.2644   1
  -1  -6 -14 393.053 23.5997  -2
   1  -8   0 393.053 23.5997   1
   0  -6 -14 15.3541 18.0628  -2
   0  -8   0 15.3541 18.0628   1
  -1  -8   0 36.5814 12.1586   1
  -1  -8   0 33.3102 9.98997   2
  -2  -8   0 314.920 18.5350   1
  -2  -8   0 366.825 23.3546   2
  -3  -8   0 30.2200 13.7262   1
  -3  -8   0 37.5923 14.5030   2
   3   8   0 30.4386 32.7005   2
  -1  -7 -16 201.506 37.2057  -2
   1  -9   0 201.506 37.2057   1
   0  -9   0 48.3218 12.6893   1
   0  -9   0 47.7946 14.6716   2
  -1  -9   0 17.5565 11.5499   2
  -1  -9   0 33.0735 14.5461   1
   2  -6 -15 17.0159 53.9469  -2
  -2  -9   0 17.0159 53.9469   1
  -2  -9   0 32.8164 21.9580   1
  -2  -9   0 57.9102 13.5735   2
   1  -6 -16 225.835 31.5888  -2
  -1  -9   1 225.835 31.5888   1
   0  -9   1 142.695 17.4414   1
   0  -9   1 119.066 18.1628   2
   1  -9   1 125.473 20.9674   2
   1  -9   1 103.257 15.2278   1
   3  -5 -14 41.2729 36.4710  -2
  -3  -8   1 41.2729 36.4710   1
  -2  -8   1 443.471 26.3938   2
   2  -5 -14 411.694 52.1681  -2
  -2  -8   1 411.694 52.1681   1
  -2  -8   1 354.050 33.4275   1
  -1  -8   1 288.086 21.1708   1
  -1  -8   1 286.259 21.3348   2
   0  -8   1 19.3752 10.0901   1
   0  -8   1 32.2029 10.8450   2
  -1  -6 -15 234.571 23.7455  -2
   1  -8   1 234.571 23.7455   1
  -2  -6 -15 169.573 21.8525  -2
   2  -8   1 169.573 21.8525   1
   3  -8   1 559.302 31.5497   2
   3  -8   1 469.168 26.7409   1
   4  -4 -12 147.587 40.1481  -2
  -4  -7   1 147.587 40.1481   1
   3   7  -1 104.572 34.9150   2
  -3  -7   1 106.597 12.8023   2
  -3  -7   1 119.587 28.1249   1
   2   7  -1 73.3782 28.2073   2
  -2  -7   1 105.755 12.2110   1
  -2  -7   1 111.799 10.9720   2
  -1  -7   1 490.967 14.7374   2
  -1  -7   1 478.553 22.8531   1
   0  -5 -13 853.174 28.1741  -2
   0  -7   1 853.174 28.1741   1
  -1  -5 -13 248.817 19.8197  -2
   1  -7   1 248.817 19.8197   1
   2  -7   1 52.0728 10.7982   1
   2  -7   1 53.4065 11.8143   2
   3  -7   1 973.244 31.2102   1
   3  -7   1 981.519 35.4325   2
   4  -7   1 6.31912 11.7959   1
   4  -7   1 11.1545 13.9905   2
   5  -3 -10 108.653 48.6067  -2
  -5  -6   1 108.653 48.6067   1
   4   6  -1 30.2478 32.4548   2
  -4  -6   1 106.444 15.0886   2
  -4  -6   1 60.1643 26.4362   1
   3   6  -1 278.956 40.7445   2
  -3  -6   1 285.287 17.6234   2
  -3  -6   1 313.471 23.2964   1
   2   6  -1 69.3206 26.8188   2
  -2  -6   1 113.910 14.8391   1
  -2  -6   1 146.412 9.89955   2
  -1   4  11 1598.58 51.6227  -2
   1   6  -1 1598.58 51.6227   1
   1  -4 -11 1434.09 33.9199  -2
  -1  -6   1 1434.09 33.9199   1
   0   6  -1 4.92613 11.6194   1
   0  -4 -11 31.9470 24.5211  -2
   0  -6   1 31.9470 24.5211   1
   0  -6   1 42.2834 8.67017   2
   0  -6   1 5.48209 11.1443   1
  -1   6  -1 165.238 19.2575   1
   1  -6   1 144.954 11.7787   2
   1  -6   1 148.164 8.57899   1
   2  -6   1 284.206 17.0894   1
   2  -6   1 329.263 19.6464   2
   3  -6   1 69.3700 13.7633   2
   3  -6   1 75.6825 18.0685   1
  -3  -5 -12 134.792 29.6313  -2
   3  -6   1 134.792 29.6313   1
  -4  -5 -12 790.957 32.2752  -2
   4  -6   1 790.957 32.2752   1
  -5   6  -1 24.7104 29.5860   1
   5  -6   1 33.6153 14.9153   1
   5  -6   1 33.0955 27.0822   2
   5   5  -1 7.34535 24.6206   1
   5   5  -1 42.7551 35.4882   2
  -5  -5   1 46.0015 28.3156   1
  -5  -5   1 44.9574 15.1875   2
   4   5  -1 450.394 29.7189   1
   4   5  -1 353.345 47.3242   2
  -4  -5   1 449.185 24.4792   2
  -4  -5   1 444.115 45.0642   1
   3   5  -1 144.901 17.2427   1
   3   5  -1 130.919 31.6685   2
  -3  -5   1 113.586 15.6396   1
  -3  -5   1 117.854 12.7338   2
  -2   3   9 1235.32 47.7141  -2
   2   5  -1 1235.32 47.7141   1
   2  -3  -9 1044.22 29.5005  -2
  -2  -5   1 1044.22 29.5005   1
   1   5  -1 10.6046 5.77366   1
   1   5  -1 18.8025 17.7140   2
  -1  -5   1 9.22195 3.76024   2
  -1  -5   1 10.0046 7.76783   1
   0   5  -1 532.145 25.2157   2
   0   5  -1 543.678 25.7664   1
   0  -5   1 506.675 13.9401   1
   0  -5   1 511.912 11.1140   2
  -1   5  -1 96.5932 13.9725   1
  -1   5  -1 64.8019 13.4419   2
   1  -5   1 85.7818 5.48980   1
   1  -5   1 85.9543 7.76709   2
  -2  -4 -10 1593.05 26.0028  -2
   2  -5   1 1593.05 26.0028   1
  -3  -4 -10 185.370 20.0891  -2
   3  -5   1 185.370 20.0891   1
  -4   5  -1 98.2479 27.4003   1
   4  -5   1 142.478 18.1991   2
   4  -5   1 96.4492 14.3912   1
  -5   5  -1 53.3621 29.4568   1
   5  -5   1 52.7604 25.5420   2
   5  -5   1 69.0644 15.8061   1
   6   4  -1 -10.121 23.3486   1
   6   4  -1 12.6645 36.7831   2
  -6  -4   1 9.21653 24.6574   2
  -6  -4   1 -24.734 29.0172   1
   5   4  -1 279.927 26.5234   1
   5   4  -1 311.554 50.7649   2
  -5  -4   1 316.123 25.5076   2
  -5  -4   1 202.237 36.2511   1
   4   4  -1 328.967 45.1038   2
   4   4  -1 413.137 27.7122   1
  -4  -4   1 407.956 23.4951   2
  -4  -4   1 341.207 37.8261   1
  -3   2   7 240.407 29.6384  -2
   3   4  -1 240.407 29.6384   1
   3  -2  -7 180.058 19.7756  -2
  -3  -4   1 180.058 19.7756   1
   2   4  -1 869.296 25.5448   2
   2   4  -1 921.210 26.9614   1
  -2  -4   1 935.844 16.7647   2
  -2  -4   1 831.456 25.0631   1
   1   4  -1 3963.75 76.5009   2
   1   4  -1 3937.47 35.3994   1
  -1  -4   1 3893.38 25.8621   2
  -1  -4   1 3644.81 36.6943   1
   0   4  -1 19.8103 5.37820   1
   0   4  -1 20.9644 8.94613   2
   0  -4   1 21.6515 3.02107   1
   0  -4   1 19.5940 3.23094   2
   1   3   8 1853.35 26.6367  -2
  -1   4  -1 1853.35 26.6367   1
  -1  -3  -8 1773.22 18.9386  -2
   1  -4   1 1773.22 18.9386   1
  -2  -3  -8 1150.02 17.6558  -2
   2  -4   1 1150.02 17.6558   1
  -3   4  -1 171.288 14.2356   2
  -3   4  -1 163.312 25.5098   1
   3  -4   1 149.286 10.6906   1
   3  -4   1 161.026 15.0098   2
  -4   4  -1 862.331 55.9326   1
  -4   4  -1 886.046 43.5096   2
   4  -4   1 830.625 32.5585   2
   4  -4   1 834.379 29.6991   1
  -5   4  -1 263.806 39.9758   1
   5  -4   1 266.747 36.5638   2
   5  -4   1 216.487 21.0637   1
   6   4   9 33.2500 32.5565  -2
  -6   4  -1 33.2500 32.5565   1
  -6  -4  -9 25.5829 16.0458  -2
   6  -4   1 25.5829 16.0458   1
   6   3  -1 40.6918 37.1244   2
   6   3  -1 8.71518 24.8943   1
  -6  -3   1 14.9947 30.3854   1
  -6  -3   1 29.6515 25.1482   2
  -5   1   5 361.232 53.4313  -2
   5   3  -1 361.232 53.4313   1
   5  -1  -5 349.678 57.9546  -2
  -5  -3   1 349.678 57.9546   1
  -4   1   5 771.910 48.4623  -2
   4   3  -1 771.910 48.4623   1
   4  -1  -5 638.692 49.1392  -2
  -4  -3   1 638.692 49.1392   1
   3   3  -1 238.022 23.9129   2
   3   3  -1 213.806 18.4520   1
  -3  -3   1 196.956 14.7307   2
  -3  -3   1 149.457 14.5054   1
   2   3  -1 1318.67 29.4904   1
   2   3  -1 1392.34 34.4379   2
  -2  -3   1 1236.39 27.1553   1
  -2  -3   1 1365.35 16.5893   2
   1   3  -1 1109.29 23.6541   2
   1   3  -1 1048.07 29.7677   1
  -1  -3   1 1079.10 13.3559   2
  -1  -3   1 983.485 20.2259   1
   0   2   6 34.7910 7.64323  -2
   0   3  -1 34.7910 7.64323   1
   0  -2  -6 23.7885 4.20323  -2
   0  -3   1 23.7885 4.20323   1
  -1   3  -1 77.6545 6.43508   2
  -1   3  -1 77.6311 8.58732   1
   1  -3   1 69.0208 4.78482   2
   1  -3   1 70.3129 4.05414   1
  -2   3  -1 147.735 10.7186   1
  -2   3  -1 177.292 11.4203   2
   2  -3   1 142.273 9.61654   2
   2  -3   1 146.507 6.86507   1
  -3   3  -1 408.377 15.4548   2
  -3   3  -1 429.259 20.9501   1
   3  -3   1 374.803 20.3144   2
   3  -3   1 373.310 16.5307   1
   4   3   7 517.574 52.1162  -2
  -4   3  -1 517.574 52.1162   1
  -4  -3  -7 591.233 43.5374  -2
   4  -3   1 591.233 43.5374   1
   4  -3   1 209.994 26.3995   1
   4  -3   1 189.401 17.3331   2
   5   3   7 106.751 38.9835  -2
  -5   3  -1 106.751 38.9835   1
  -5  -3  -7 89.1990 21.0040  -2
   5  -3   1 89.1990 21.0040   1
  -6   3  -1 25.5834 28.7391   1
  -6   3  -1 32.9016 18.1928   2
   6  -3   1 47.0122 27.6846   2
   6  -3   1 49.7704 13.8229   1
  -6   0   3 487.660 56.7029  -2
   6   2  -1 487.660 56.7029   1
   6   0  -3 406.337 60.4888  -2
  -6  -2   1 406.337 60.4888   1
  -5   0   3 690.089 53.4084  -2
   5   2  -1 690.089 53.4084   1
   5   0  -3 611.251 58.6788  -2
  -5  -2   1 611.251 58.6788   1
   4   2  -1 115.227 23.8213   1
   4   2  -1 79.3574 21.2003   2
  -4  -2   1 78.8811 22.2527   1
  -4  -2   1 59.5627 11.1705   2
   3   2  -1 14.6572 8.97568   1
   3   2  -1 20.5192 8.23167   2
  -3  -2   1 45.7866 9.26059   1
  -3  -2   1 25.4049 6.31215   2
   2   2  -1 1388.89 26.8400   1
   2   2  -1 1432.30 35.5327   2
  -2  -2   1 1352.50 26.2607   1
  -2  -2   1 1441.37 17.3213   2
  -1   1   4 2908.93 34.8969  -2
   1   2  -1 2908.93 34.8969   1
   1  -1  -4 2687.63 31.5759  -2
  -1  -2   1 2687.63 31.5759   1
   0   2  -1 6023.28 45.8487   1
   0   2  -1 6479.83 41.1876   2
   0  -2   1 6095.65 29.4032   2
   0  -2   1 5757.09 27.7208   1
  -1   2  -1 199.403 9.30621   1
  -1   2  -1 210.197 8.58126   2
   1  -2   1 195.113 6.58073   2
   1  -2   1 191.597 5.37907   1
  -2   2  -1 2019.39 21.1024   2
  -2   2  -1 2051.87 32.1981   1
   2  -2   1 1945.29 20.0481   1
   2  -2   1 1923.41 31.1270   2
  -3   2  -1 1386.51 31.5049   2
   3   2   5 1804.61 40.0649  -2
  -3   2  -1 1804.61 40.0649   1
  -3  -2  -5 1770.69 28.9242  -2
   3  -2   1 1770.69 28.9242   1
   3  -2   1 1397.06 45.4362   1
   4   2   5 52.8065 25.9004  -2
  -4   2  -1 52.8065 25.9004   1
  -4  -2  -5 25.9974 24.3302  -2
   4  -2   1 25.9974 24.3302   1
  -5   2  -1 200.814 34.2016   1
  -5   2  -1 294.383 24.5567   2
   5  -2   1 175.065 31.2337   2
   5  -2   1 247.713 22.9393   1
  -6   2  -1 51.2403 29.3117   1
  -6   2  -1 79.3376 28.4452   2
   6  -2   1 85.2593 29.9666   2
   6  -2   1 62.1563 26.7402   1
  -6  -1   1 124.709 36.4286  -2
   6   1  -1 124.709 36.4286   1
   5   1  -1 74.4401 16.5513   1
   5   1  -1 55.6609 24.5665   2
  -5  -1   1 68.8512 25.0144   1
  -5  -1   1 72.8623 17.0727   2
   4   1  -1 286.797 30.9264   2
   4   1  -1 257.729 17.0633   1
  -4  -1   1 260.589 16.6616   2
  -4  -1   1 325.314 33.0362   1
   3   1  -1 248.003 23.4874   2
   3   1  -1 244.460 13.6736   1
  -3  -1   1 253.559 13.1992   2
  -3  -1   1 171.462 12.3882   1
  -2   0   2 2447.01 35.0597  -2
   2   1  -1 2447.01 35.0597   1
   2   0  -2 2371.51 33.8596  -2
  -2  -1   1 2371.51 33.8596   1
   1   1  -1 442.108 9.48781   1
   1   1  -1 472.470 11.2132   2
  -1  -1   1 483.656 7.72245   2
  -1  -1   1 438.778 11.2704   1
   0   1  -1 103.825 3.61106   1
   0   1  -1 112.319 3.85021   2
   0  -1   1 103.912 2.38926   2
   0  -1   1 101.193 2.19588   1
  -1   1  -1 352.169 8.45100   2
  -1   1  -1 330.278 10.5190   1
   1  -1   1 310.822 7.09479   1
   1  -1   1 317.218 9.55880   2
   2   1   3 3853.25 47.1097  -2
  -2   1  -1 3853.25 47.1097   1
  -2   1  -1 1595.31 28.1152   2
  -2  -1  -3 3904.72 44.4861  -2
   2  -1   1 3904.72 44.4861   1
   2  -1   1 1597.52 38.7624   1
  -3   1  -1 250.540 16.7419   2
  -3   1  -1 264.022 18.1350   1
   3  -1   1 232.438 16.2435   1
  -3  -1  -3 1836.96 51.6274  -2
   3  -1   1 1836.96 51.6274   1
   3  -1   1 165.263 15.7043   2
  -4   1  -1 129.584 16.7551   2
  -4   1  -1 104.452 17.1803   1
   4  -1   1 147.123 14.3828   1
   4  -1   1 81.2507 22.5837   2
  -5   1  -1 131.473 31.9512   1
  -5   1  -1 137.541 19.0226   2
   5  -1   1 119.896 29.1355   2
   5  -1   1 141.595 19.1432   1
  -6   1  -1 243.526 26.6867   2
  -6   1  -1 180.940 37.9614   1
   6  -1   1 259.620 37.3744   1
   6  -1   1 231.151 37.9351   2
   6   0  -1 365.072 44.3655   2
   6   0  -1 437.427 46.3140   1
  -6   0   1 405.616 31.1251   2
  -6   0   1 389.363 52.4594   1
   5   0  -1 13.9775 11.7571   1
   5   0  -1 7.74176 20.8889   2
  -5   0   1 22.7797 14.1271   2
  -5   0   1 33.8049 20.7749   1
  -4  -1   0 616.614 37.7235  -2
   4   0  -1 616.614 37.7235   1
   4   0  -1 63.2572 14.0563   1
   4   1   0 1180.45 57.4283  -2
  -4   0   1 1180.45 57.4283   1
  -4   0   1 92.7293 15.3757   2
  -3  -1   0 224.434 15.8371  -2
   3   0  -1 224.434 15.8371   1
   3   1   0 243.564 29.9798  -2
  -3   0   1 243.564 29.9798   1
   2   0  -1 6061.71 47.9126   1
   2   0  -1 5983.80 56.7799   2
  -2   0   1 6142.39 48.6961   2
  -2   0   1 5508.88 77.5665   1
   1   0  -1 2971.16 23.4965   1
   1   0  -1 2941.02 28.5435   2
  -1   0   1 3146.36 24.9504   2
  -1   0   1 2934.69 40.7259   1
   0   0  -1 0.24178 0.35214   1
   0   0  -1 5.27894 1.04727   2
   0   0   1 128.544 3.97516   2
  -1   0  -1 1636.14 20.3175   2
  -1   0  -1 3010.03 40.8148  -2
   1   0   1 3010.03 40.8148   1
   1   0   1 1512.67 19.4485   1
  -2   0  -1 1739.54 26.5439   1
  -2   0  -1 1989.08 25.0328   2
   2   0   1 1904.94 24.4705   1
   2   0   1 1912.39 28.4084   2
  -3   0  -1 68.5135 8.75423   2
  -3   0  -1 65.9275 15.3601   1
   3   0   1 78.2788 10.1926   2
   3   0   1 71.2760 8.94045   1
  -4   0  -1 177.254 25.2882   1
  -4   0  -1 313.122 17.9608   2
   4   0   1 241.753 16.4951   1
   4   0   1 243.133 28.4951   2
   5   1   2 419.971 52.5457  -2
  -5   0  -1 419.971 52.5457   1
  -5   0  -1 133.092 27.5394   2
  -5  -1  -2 158.397 31.8294  -2
   5   0   1 158.397 31.8294   1
   5   0   1 132.942 28.3388   1
   6   1   2 270.110 60.2173  -2
  -6   0  -1 270.110 60.2173   1
  -6  -1  -2 336.378 33.6025  -2
   6   0   1 336.378 33.6025   1
   6  -1  -1 57.2773 28.5257   2
   6  -1  -1 53.6969 24.6813   1
  -6   1   1 27.1651 31.1326   1
  -6   1   1 34.3707 24.0312   2
  -5  -2  -2 22.4935 21.8688  -2
   5  -1  -1 22.4935 21.8688   1
   5   2   2 22.0509 53.3834  -2
  -5   1   1 22.0509 53.3834   1
  -4  -2  -2 173.637 26.0186  -2
   4  -1  -1 173.637 26.0186   1
   4   2   2 158.721 31.9089  -2
  -4   1   1 158.721 31.9089   1
   3  -1  -1 2507.17 28.2431   1
   3  -1  -1 2486.05 41.3750   2
  -3   1   1 2523.10 34.2577   2
  -3   1   1 2320.59 42.1948   1
   2  -1  -1 1840.35 18.9125   1
   2  -1  -1 1897.34 29.6744   2
  -2   1   1 1772.52 30.0110   1
  -2   1   1 1914.85 24.4258   2
   1  -1  -1 1378.97 12.5427   1
   1  -1  -1 1386.23 18.9257   2
  -1   1   1 1472.22 28.7268   2
  -1   1   1 1375.54 18.9521   1
   0  -1  -1 2116.34 16.4244  -2
   0  -1  -1 2116.34 16.4244   1
   0   1   1 2137.63 19.3728  -2
   0   1   1 2137.63 19.3728   1
  -1  -1  -1 784.156 9.49974   2
  -1  -1  -1 759.784 13.7025   1
   1   1   1 772.998 14.3877   2
   1   1   1 777.234 19.8745   1
  -2  -1  -1 1684.90 27.2749   1
  -2  -1  -1 1849.84 23.2569   2
   2   1   1 1698.04 23.1538   1
   2   1   1 1671.55 37.7819   2
  -3  -1  -1 23.9416 8.06881   1
  -3  -1  -1 32.7355 7.44414   2
   3   1   1 32.5027 7.90850   1
   3   1   1 27.9860 12.8504   2
   4   0   0 589.989 48.3252  -2
  -4  -1  -1 589.989 48.3252   1
  -4   0   0 674.304 27.7145  -2
   4   1   1 674.304 27.7145   1
   5   0   0 963.298 59.7477  -2
  -5  -1  -1 963.298 59.7477   1
  -5   0   0 789.434 49.0319  -2
   5   1   1 789.434 49.0319   1
  -6  -1  -1 240.398 26.9200   2
  -6  -1  -1 226.397 37.4341   1
   6   1   1 307.331 28.5035   1
   6   1   1 207.284 41.5875   2
  -6  -3  -4 46.8926 35.2951  -2
   6  -2  -1 46.8926 35.2951   1
   6   3   4 45.3456 49.9290  -2
  -6   2   1 45.3456 49.9290   1
  -5  -3  -4 324.600 34.1273  -2
   5  -2  -1 324.600 34.1273   1
   5   3   4 340.103 61.0951  -2
  -5   2   1 340.103 61.0951   1
   4  -2  -1 358.412 35.2708   2
   4  -2  -1 345.192 21.8796   1
  -4   2   1 364.799 38.8223   1
  -4   2   1 376.493 34.1470   2
   3  -2  -1 1454.17 20.9892   1
   3  -2  -1 1354.89 31.8110   2
  -3   2   1 1389.07 32.0199   1
  -3   2   1 1390.16 32.7353   2
   2  -2  -1 732.595 13.4013   1
   2  -2  -1 759.539 20.0275   2
  -2   2   1 766.458 19.4986   1
  -2   2   1 708.026 27.4559   2
  -1  -2  -3 669.222 7.38894  -2
   1  -2  -1 669.222 7.38894   1
   1   2   3 703.129 29.5809  -2
  -1   2   1 703.129 29.5809   1
   0  -2  -1 3801.58 18.1574   1
   0  -2  -1 4100.38 27.1840   2
   0   2   1 4197.24 30.6967   2
   0   2   1 3948.21 33.9778   1
  -1  -2  -1 9982.83 51.6587   2
  -1  -2  -1 9354.56 57.4939   1
   1   2   1 9790.38 120.451   2
   1   2   1 9846.16 105.451   1
  -2  -2  -1 1237.39 14.8241   2
  -2  -2  -1 1139.11 23.6598   1
   2   2   1 1163.52 23.2307   1
   2   2   1 1252.24 25.2486   2
   3  -1  -2 558.098 23.8871  -2
  -3  -2  -1 558.098 23.8871   1
  -3   1   2 646.831 25.4789  -2
   3   2   1 646.831 25.4789   1
   4  -1  -2 87.2241 43.5005  -2
  -4  -2  -1 87.2241 43.5005   1
  -4  -2  -1 78.8178 23.9738   2
   4   2   1 104.937 22.2034   1
  -4   1   2 97.7938 37.6884  -2
   4   2   1 97.7938 37.6884   1
  -5  -2  -1 20.8429 13.5537   2
  -5  -2  -1 -6.3927 20.5169   1
   5   2   1 35.5579 14.8886   1
   5   2   1 22.9361 28.4525   2
  -6  -2  -1 258.476 39.8474   1
  -6  -2  -1 287.496 37.8962   2
   6   2   1 321.468 51.5824   2
   6   2   1 265.153 37.8905   1
  -6  -4  -6 420.922 56.7916  -2
   6  -3  -1 420.922 56.7916   1
   6  -3  -1 207.947 38.5541   2
   6  -3  -1 240.396 35.5019   1
   6   4   6 666.241 79.4963  -2
  -6   3   1 666.241 79.4963   1
  -6   3   1 282.976 42.3986   2
   5  -3  -1 78.1592 15.6637   1
   5  -3  -1 47.7169 25.7674   2
  -5   3   1 44.8249 24.7910   2
  -5   3   1 47.7997 28.5003   1
   4  -3  -1 -4.3954 10.4069   1
   4  -3  -1 22.2798 11.8510   2
  -4   3   1 5.12933 21.0394   1
  -4   3   1 -0.1956 17.4684   2
  -3  -3  -5 894.222 29.5225  -2
   3  -3  -1 894.222 29.5225   1
   3  -3  -1 228.340 19.3547   1
  -3   3   1 220.102 20.4917   2
   3   3   5 927.192 57.1948  -2
  -3   3   1 927.192 57.1948   1
  -2  -3  -5 225.423 10.0049  -2
   2  -3  -1 225.423 10.0049   1
   2   3   5 248.206 31.8601  -2
  -2   3   1 248.206 31.8601   1
   1  -3  -1 1169.42 13.9167   2
   1  -3  -1 1071.92 9.83692   1
  -1   3   1 1269.05 20.3659   2
  -1   3   1 1219.51 36.2893   1
   0  -3  -1 3334.43 19.3570   1
   0  -3  -1 3569.67 28.4849   2
   0   3   1 3763.91 32.7209   2
   0   3   1 3695.27 53.2234   1
  -1  -3  -1 140.399 7.03573   1
  -1  -3  -1 143.233 6.47190   2
   1   3   1 169.998 18.3603   2
   1   3   1 151.641 9.16976   1
   2  -2  -4 1234.76 26.5728  -2
  -2  -3  -1 1234.76 26.5728   1
  -2   2   4 1359.49 40.5744  -2
   2   3   1 1359.49 40.5744   1
  -3  -3  -1 256.095 17.1699   1
  -3  -3  -1 260.842 15.0974   2
   3   3   1 231.860 17.4948   2
   3   3   1 244.210 24.8635   1
  -4  -3  -1 586.908 42.2228   1
  -4  -3  -1 643.095 27.0884   2
   4   3   1 602.767 41.3624   1
   4   3   1 541.359 50.8339   2
  -5  -3  -1 222.712 21.7020   2
  -5  -3  -1 291.907 38.3595   1
   5   3   1 250.589 34.0069   1
   5   3   1 182.176 38.9739   2
   6  -1  -3 202.569 60.1916  -2
  -6  -3  -1 202.569 60.1916   1
  -6   1   3 257.324 55.1037  -2
   6   3   1 257.324 55.1037   1
   6  -4  -1 60.9348 14.7567   1
   6  -4  -1 47.1404 29.8444   2
  -6   4   1 28.3467 32.0205   1
   5  -4  -1 176.398 16.4044   1
   5  -4  -1 185.882 34.0398   2
  -5   4   1 172.246 35.8420   1
  -4  -4  -7 126.132 22.7206  -2
   4  -4  -1 126.132 22.7206   1
   4   4   7 89.3779 39.5362  -2
  -4   4   1 89.3779 39.5362   1
  -3  -4  -7 275.796 31.7829  -2
   3  -4  -1 275.796 31.7829   1
   3   4   7 278.335 43.0199  -2
  -3   4   1 278.335 43.0199   1
   2  -4  -1 242.021 8.32829   1
   2  -4  -1 231.667 12.1949   2
  -2   4   1 273.175 14.3046   2
  -2   4   1 249.002 26.0099   1
   1  -4  -1 1706.29 18.4775   2
   1  -4  -1 1664.92 15.1547   1
  -1   4   1 1929.13 26.3697   2
  -1   4   1 1958.08 43.3239   1
   0  -4  -1 499.326 6.01683   2
   0  -4  -1 471.356 7.85824   1
   0   4   1 545.402 16.4722   2
   0   4   1 528.129 22.0151   1
   1  -3  -6 786.432 15.1653  -2
  -1  -4  -1 786.432 15.1653   1
  -1   3   6 864.254 14.1627  -2
   1   4   1 864.254 14.1627   1
  -2  -4  -1 472.923 9.16045   2
  -2  -4  -1 416.533 18.5598   1
   2   4   1 448.480 19.1762   1
   2   4   1 461.346 35.3440   2
  -3  -4  -1 484.160 19.8251   2
  -3  -4  -1 435.829 22.4919   1
   3   4   1 449.419 32.1553   1
   3   4   1 420.112 40.5194   2
  -4  -4  -1 876.955 29.4811   2
  -4  -4  -1 701.195 46.3390   1
   4   4   1 734.572 55.7661   2
   4   4   1 784.832 46.8545   1
   5  -2  -5 551.570 58.1437  -2
  -5  -4  -1 551.570 58.1437   1
  -5   2   5 658.560 57.9927  -2
   5   4   1 658.560 57.9927   1
   6  -2  -5 326.049 63.1148  -2
  -6  -4  -1 326.049 63.1148   1
  -6   2   5 215.846 54.8705  -2
   6   4   1 215.846 54.8705   1
  -5  -5  -9 186.497 26.4595  -2
   5  -5  -1 186.497 26.4595   1
   5   5   9 218.092 53.6102  -2
  -5   5   1 218.092 53.6102   1
   4  -5  -1 30.2492 16.0271   2
  -4  -5  -9 73.2471 24.7659  -2
   4  -5  -1 73.2471 24.7659   1
   4   5   9 81.7775 49.9431  -2
  -4   5   1 81.7775 49.9431   1
   3  -5  -1 523.105 20.4768   1
   3  -5  -1 591.757 26.4895   2
  -3   5   1 520.400 41.6575   1
   2  -5  -1 246.882 9.18765   1
   2  -5  -1 240.071 15.1910   2
  -2   5   1 319.440 25.7335   2
  -2   5   1 247.214 28.2506   1
   1  -5  -1 414.624 8.60929   1
   1  -5  -1 441.572 14.8578   2
  -1   5   1 469.500 26.3504   1
  -1   5   1 503.497 27.0079   2
   0  -4  -8 1924.93 20.1078  -2
   0  -5  -1 1924.93 20.1078   1
   0   4   8 2223.32 51.4441  -2
   0   5   1 2223.32 51.4441   1
  -1  -5  -1 115.526 8.31152   1
  -1  -5  -1 128.733 5.19403   2
   1   5   1 143.089 20.9706   2
   1   5   1 119.105 11.4450   1
  -2  -5  -1 1480.34 18.5948   2
  -2  -5  -1 1390.86 32.6489   1
   2   5   1 1557.02 28.4036   1
   2   5   1 1453.84 57.7125   2
  -3  -5  -1 20.4501 9.03735   2
  -3  -5  -1 19.0739 11.8366   1
   3   5   1 26.4615 13.2500   1
   3   5   1 81.4222 27.8568   2
   4  -3  -7 312.858 44.2511  -2
  -4  -5  -1 312.858 44.2511   1
  -4   3   7 390.953 47.4319  -2
   4   5   1 390.953 47.4319   1
   5  -3  -7 305.677 61.2620  -2
  -5  -5  -1 305.677 61.2620   1
   5  -6  -1 156.735 19.8014   1
   5  -6  -1 174.956 35.8385   2
  -5   6   1 276.259 45.9419   1
   4  -6  -1 29.3111 13.5571   2
   4  -6  -1 18.3650 11.2791   1
  -4   6   1 28.8376 24.1125   1
   3  -6  -1 365.631 18.6984   1
   3  -6  -1 370.074 22.8199   2
  -3   6   1 283.355 34.1383   1
  -2  -5 -10 189.202 16.8476  -2
   2  -6  -1 189.202 16.8476   1
  -1  -5 -10 326.898 11.4203  -2
   1  -6  -1 326.898 11.4203   1
   1   5  10 362.260 31.8988  -2
  -1   6   1 362.260 31.8988   1
   0  -6  -1 135.425 8.06662   1
   0  -6  -1 139.004 6.76074   2
   0   6   1 181.711 20.3696   1
  -1  -6  -1 1.92370 3.28211   2
  -1  -6  -1 -3.9360 7.04082   1
   1   6   1 16.5183 12.7056   1
   1   6   1 -9.7767 13.9061   2
  -2  -6  -1 1107.42 15.9380   2
  -2  -6  -1 1000.84 30.5264   1
   2   6   1 1133.98 56.0458   2
   3  -4  -9 242.127 22.0786  -2
  -3  -6  -1 242.127 22.0786   1
  -3   4   9 312.401 33.9652  -2
   3   6   1 312.401 33.9652   1
  -4  -6  -1 9.75586 10.7596   2
   4  -4  -9 71.0353 50.9333  -2
  -4  -6  -1 71.0353 50.9333   1
   4   6   1 7.79328 29.6975   2
   4   6   1 36.3567 27.1059   1
  -5  -6  -1 6.93865 24.2642   1
  -5  -6  -1 24.9875 14.2149   2
   5   6   1 28.0489 35.6535   2
   4  -7  -1 5.36710 13.4046   2
   4  -7  -1 26.7523 19.0734   1
  -4   7   1 75.5488 30.3236   1
  -3  -6 -12 350.745 32.5876  -2
   3  -7  -1 350.745 32.5876   1
  -2  -6 -12 382.517 21.2375  -2
   2  -7  -1 382.517 21.2375   1
   1  -7  -1 81.2316 10.1070   2
   1  -7  -1 90.5643 9.69195   1
   0  -7  -1 303.220 16.3302   1
   0  -7  -1 334.997 10.8802   2
  -1  -7  -1 584.807 23.2506   1
  -1  -7  -1 584.672 13.8697   2
   2  -5 -11 469.062 24.8203  -2
  -2  -7  -1 469.062 24.8203   1
  -3  -7  -1 -2.6830 10.4921   2
  -3  -7  -1 -5.2733 10.8411   1
   3   7   1 -11.056 25.9438   2
  -4  -7  -1 26.5170 15.0670   2
  -4  -7  -1 11.9067 23.6639   1
   4   7   1 -18.726 27.8861   2
  -3  -7 -14 229.750 39.5715  -2
   3  -8  -1 229.750 39.5715   1
   2  -8  -1 200.336 18.0595   2
   2  -8  -1 185.531 21.5824   1
   1  -8  -1 46.9684 9.94355   1
   1  -8  -1 43.6634 13.3777   2
   0  -6 -13 436.780 25.6806  -2
   0  -8  -1 436.780 25.6806   1
   1  -6 -13 90.9696 19.8402  -2
  -1  -8  -1 90.9696 19.8402   1
  -2  -8  -1 32.7351 13.1166   1
  -2  -8  -1 82.5248 13.0261   2
  -3  -8  -1 160.200 19.1261   2
  -3  -8  -1 125.326 19.5248   1
   3   8   1 85.2286 34.3792   2
   2  -9  -1 9.45405 14.9366   1
   2  -9  -1 20.3086 17.3007   2
  -1  -7 -15 16.2520 29.1484  -2
   1  -9  -1 16.2520 29.1484   1
   0  -7 -15 92.0970 22.5180  -2
   0  -9  -1 92.0970 22.5180   1
  -1  -9  -1 49.7572 14.1610   1
  -1  -9  -1 90.3146 13.6665   2
  -2  -9  -1 3.72017 10.5590   1
  -2  -9  -1 3.87561 10.3004   2
  -1  -9   2 14.1232 14.1767   1
  -1  -9   2 11.1774 12.1201   2
   0  -6 -17 170.605 28.6430  -2
   0  -9   2 170.605 28.6430   1
   1  -9   2 184.531 24.8165   2
   1  -9   2 151.974 18.0254   1
  -3  -8   2 491.949 33.9133   2
  -3  -8   2 433.177 47.1616   1
   2  -5 -15 76.5357 25.5255  -2
  -2  -8   2 76.5357 25.5255   1
   1  -5 -15 38.7184 24.7480  -2
  -1  -8   2 38.7184 24.7480   1
   0  -8   2 -8.2508 8.71341   2
   0  -8   2 7.33450 10.0741   1
   1  -8   2 66.0613 11.7331   2
   1  -8   2 59.3055 12.2130   1
  -2  -6 -16 648.670 32.9612  -2
   2  -8   2 648.670 32.9612   1
  -3  -6 -16 51.6529 21.9924  -2
   3  -8   2 51.6529 21.9924   1
   4   7  -2 107.288 42.5704   2
  -4  -7   2 120.739 32.1284   1
  -4  -7   2 65.7427 14.6669   2
   3  -4 -13 541.109 47.9976  -2
  -3  -7   2 541.109 47.9976   1
  -2  -7   2 79.1894 14.5560   1
  -2  -7   2 88.8310 10.8078   2
  -1  -7   2 16.2677 6.22636   2
  -1  -7   2 8.53374 9.53057   1
   0  -7   2 922.952 20.8373   2
   0  -7   2 869.932 27.5720   1
  -1  -5 -14 328.339 23.5722  -2
   1  -7   2 328.339 23.5722   1
  -2  -5 -14 406.706 24.7433  -2
   2  -7   2 406.706 24.7433   1
   3  -7   2 17.1766 12.7352   2
   3  -7   2 37.7146 12.5975   1
   4  -7   2 86.4193 16.5432   1
   4  -7   2 83.9076 18.7953   2
   4  -3 -11 78.7682 34.2239  -2
  -4  -6   2 78.7682 34.2239   1
   3   6  -2 126.464 34.5634   2
  -3  -6   2 45.5739 21.6014   1
  -3  -6   2 72.4510 10.2889   2
   2   6  -2 299.293 36.5452   2
  -2  -6   2 261.812 13.1861   2
  -2  -6   2 193.276 14.4968   1
   1   6  -2 360.968 26.9089   1
   1   6  -2 388.806 35.1564   2
  -1  -6   2 277.175 18.2907   1
  -1  -6   2 293.773 12.4243   2
   0   4  12 592.949 33.2077  -2
   0   6  -2 592.949 33.2077   1
   0  -4 -12 473.478 22.5860  -2
   0  -6   2 473.478 22.5860   1
   1   4  12 616.707 32.1298  -2
  -1   6  -2 616.707 32.1298   1
  -1  -4 -12 517.394 23.2342  -2
   1  -6   2 517.394 23.2342   1
   2  -6   2 1086.05 30.6938   2
   2  -6   2 992.294 27.9946   1
   3  -6   2 167.388 15.9941   1
   3  -6   2 151.955 17.3505   2
  -4   6  -2 432.370 46.8423   1
   4  -6   2 449.765 28.8496   2
   4  -6   2 466.935 26.7182   1
   5   5  13 266.894 48.3866  -2
  -5   6  -2 266.894 48.3866   1
  -5  -5 -13 330.940 28.1739  -2
   5  -6   2 330.940 28.1739   1
  -5   2   9 833.446 65.5769  -2
   5   5  -2 833.446 65.5769   1
   5  -2  -9 652.402 62.0796  -2
  -5  -5   2 652.402 62.0796   1
   4   5  -2 148.555 29.8515   1
   4   5  -2 84.9915 34.5886   2
  -4  -5   2 114.175 27.6995   1
  -4  -5   2 93.4482 14.4399   2
   3   5  -2 92.7447 23.4064   1
   3   5  -2 159.596 34.3993   2
  -3  -5   2 88.4772 16.6849   1
  -3  -5   2 124.845 12.6445   2
   2   5  -2 148.602 29.1001   2
   2   5  -2 116.964 14.3553   1
  -2  -5   2 138.653 9.75944   2
  -2  -5   2 111.058 13.4883   1
  -1   3  10 178.571 26.6544  -2
   1   5  -2 178.571 26.6544   1
   1  -3 -10 203.364 16.9635  -2
  -1  -5   2 203.364 16.9635   1
   0   5  -2 1661.20 41.3390   1
   0   5  -2 1713.59 40.6387   2
   0  -3 -10 1483.79 44.9740  -2
   0  -5   2 1483.79 44.9740   1
   0  -5   2 1618.72 23.3664   2
   0  -5   2 1421.13 39.9067   1
  -1   5  -2 79.2117 14.2172   2
  -1   5  -2 45.0539 11.0311   1
   1  -5   2 36.0568 6.20838   2
   1  -5   2 34.4717 5.04046   1
  -2   5  -2 539.331 28.3083   2
   2  -5   2 534.224 22.0016   2
   2  -5   2 506.303 15.2161   1
  -3   5  -2 72.3297 22.5899   1
   3  -5   2 49.1290 12.2466   2
   3  -5   2 82.5426 12.2721   1
  -4  -4 -11 260.361 23.7686  -2
   4  -5   2 260.361 23.7686   1
  -5   5  -2 102.766 31.3452   1
   5  -5   2 20.8534 24.0711   2
   5  -5   2 37.0862 15.4287   1
   5   4  -2 139.259 23.2199   1
   5   4  -2 133.009 41.3554   2
  -5  -4   2 114.320 18.1396   2
  -5  -4   2 82.1513 30.3379   1
   4   4  -2 196.983 21.4204   1
  -4  -4   2 170.741 30.5173   1
  -4  -4   2 207.212 18.7576   2
   3   4  -2 476.930 25.1114   1
  -3  -4   2 484.695 25.0573   1
  -3  -4   2 536.125 21.6434   2
  -2   2   8 788.380 36.8943  -2
   2   4  -2 788.380 36.8943   1
   2  -2  -8 753.703 24.7136  -2
  -2  -4   2 753.703 24.7136   1
   1   4  -2 15.1989 6.17893   2
   1   4  -2 9.58840 4.43435   1
  -1  -4   2 13.8833 3.44002   2
  -1  -4   2 16.1127 5.35425   1
   0   4  -2 22.3419 5.86014   1
   0   4  -2 23.0779 5.26256   2
   0  -4   2 39.0716 5.16737   1
   0  -4   2 32.3994 3.74543   2
  -1   4  -2 559.126 15.5737   2
  -1   4  -2 509.241 14.3232   1
   1  -4   2 536.672 11.8545   2
   1  -4   2 486.038 10.2806   1
  -2   4  -2 166.297 15.9566   1
  -2  -3  -9 780.020 16.0508  -2
   2  -4   2 780.020 16.0508   1
  -3  -3  -9 1634.19 28.1606  -2
   3  -4   2 1634.19 28.1606   1
  -4   4  -2 103.976 21.7170   2
  -4   4  -2 79.4180 25.4595   1
   4  -4   2 86.1603 14.0839   1
   4  -4   2 69.2686 14.6887   2
  -5   4  -2 177.134 35.1787   1
   5  -4   2 131.696 18.5090   1
   5  -4   2 119.192 29.2834   2
  -6   4  -2 464.948 54.1186   1
   6  -4   2 467.778 33.3828   1
   6  -4   2 345.588 45.7410   2
   6   3  -2 75.6149 30.2433   1
  -6  -3   2 112.069 37.3418   1
  -6  -3   2 127.005 32.5129   2
   5   3  -2 38.2669 22.9539   1
  -5  -3   2 111.393 18.1829   2
  -5  -3   2 157.344 32.7608   1
   4   3  -2 206.644 20.3971   1
  -4  -3   2 203.690 18.4836   2
  -4  -3   2 203.629 30.3906   1
  -3   1   6 684.310 39.2166  -2
   3   3  -2 684.310 39.2166   1
   3  -1  -6 648.266 26.1529  -2
  -3  -3   2 648.266 26.1529   1
   2   3  -2 448.225 16.2224   2
   2   3  -2 435.561 14.4709   1
  -2  -3   2 488.825 10.4670   2
  -2  -3   2 442.530 18.0820   1
   1   3  -2 35.7350 9.79496   1
   1   3  -2 15.8183 6.25661   2
  -1  -3   2 26.2341 3.57136   2
  -1  -3   2 24.1094 4.75294   1
   0   3  -2 71.5954 6.19057   2
   0   3  -2 70.3053 6.16814   1
   0  -3   2 60.6256 3.89860   2
   0  -3   2 63.0874 5.11899   1
   1   2   7 1016.61 18.7466  -2
  -1   3  -2 1016.61 18.7466   1
  -1  -2  -7 932.565 12.7256  -2
   1  -3   2 932.565 12.7256   1
  -2   3  -2 702.106 16.8107   2
  -2   3  -2 738.466 25.7907   1
  -2  -2  -7 2112.44 22.2035  -2
   2  -3   2 2112.44 22.2035   1
  -3   3  -2 185.333 15.5308   1
  -3   3  -2 176.556 11.1505   2
   3  -3   2 201.105 15.3511   1
   3  -3   2 184.334 15.1428   2
  -4   3  -2 356.171 37.4818   1
  -4   3  -2 438.326 16.4139   2
   4  -3   2 377.350 24.1318   2
   4  -3   2 418.260 23.6663   1
  -5   3  -2 291.327 38.0479   1
  -5   3  -2 274.892 19.4839   2
   5  -3   2 240.926 34.8465   2
   5  -3   2 269.145 23.1108   1
   6   3   8 17.6573 25.7343  -2
  -6   3  -2 17.6573 25.7343   1
  -6  -3  -8 29.6274 16.3812  -2
   6  -3   2 29.6274 16.3812   1
   6   2  -2 11.0276 24.5443   1
  -6  -2   2 -16.973 26.4040   1
  -6  -2   2 12.6406 22.8348   2
  -5   0   4 273.307 46.5256  -2
   5   2  -2 273.307 46.5256   1
   5   0  -4 180.602 52.2032  -2
  -5  -2   2 180.602 52.2032   1
  -4   0   4 1787.60 65.0054  -2
   4   2  -2 1787.60 65.0054   1
   4   0  -4 1618.38 65.9059  -2
  -4  -2   2 1618.38 65.9059   1
   3   2  -2 19.7389 7.88832   1
   3   2  -2 13.7873 9.99432   2
  -3  -2   2 27.4730 7.88247   2
  -3  -2   2 27.0216 9.60369   1
   2   2  -2 924.980 18.8050   1
   2   2  -2 952.166 16.7001   2
  -2  -2   2 899.724 22.3086   1
  -2  -2   2 954.553 15.0142   2
   1   2  -2 1511.96 23.5790   1
   1   2  -2 1660.27 31.1388   2
  -1  -2   2 1584.89 17.3730   2
  -1  -2   2 1514.54 24.1673   1
   0   1   5 9533.08 101.319  -2
   0   2  -2 9533.08 101.319   1
   0  -1  -5 9398.71 59.0501  -2
   0  -2   2 9398.71 59.0501   1
  -1   2  -2 2412.61 21.8123   2
  -1   2  -2 2370.58 39.7521   1
   1  -2   2 2259.91 17.7415   1
   1  -2   2 2334.30 20.0128   2
  -2   2  -2 79.5737 9.09478   1
  -2   2  -2 86.7598 6.77392   2
   2  -2   2 97.7058 9.16353   2
   2  -2   2 95.3898 6.69594   1
  -3   2  -2 273.713 12.1661   2
  -3   2  -2 252.231 16.8444   1
   3  -2   2 272.821 10.3171   1
   3  -2   2 244.093 24.1495   2
  -4   2  -2 167.795 25.4975   2
  -4   2  -2 183.309 18.7710   1
  -4  -2  -6 213.099 35.2939  -2
   4  -2   2 213.099 35.2939   1
   4  -2   2 224.001 18.9580   1
   5   2   6 1099.17 64.1427  -2
  -5   2  -2 1099.17 64.1427   1
  -5  -2  -6 982.456 30.1595  -2
   5  -2   2 982.456 30.1595   1
  -6   2  -2 247.522 20.5025   2
  -6   2  -2 290.686 41.9641   1
   6  -2   2 268.399 25.5040   1
   6  -2   2 217.397 36.6936   2
  -6  -1   2 38.2019 35.9513  -2
   6   1  -2 38.2019 35.9513   1
  -5  -1   2 127.067 33.3699  -2
   5   1  -2 127.067 33.3699   1
   5   1  -2 225.880 49.7686  -2
  -5  -1   2 225.880 49.7686   1
   4   1  -2 388.422 17.2840   1
   4   1  -2 408.831 36.4163   2
  -4  -1   2 428.802 17.4449   2
  -4  -1   2 417.831 36.2579   1
   3   1  -2 686.078 33.3143   2
   3   1  -2 665.143 16.7416   1
  -3  -1   2 654.930 22.2318   1
  -3  -1   2 688.409 16.7051   2
   2   1  -2 214.744 10.0684   1
   2   1  -2 204.970 17.0466   2
  -2  -1   2 211.182 8.60492   2
  -2  -1   2 186.032 11.2283   1
  -1   0   3 1333.79 20.4277  -2
   1   1  -2 1333.79 20.4277   1
   1   0  -3 1315.84 16.8124  -2
  -1  -1   2 1315.84 16.8124   1
   0   1  -2 626.982 16.0097   1
   0   1  -2 637.844 8.62943   2
   0  -1   2 630.449 8.49268   2
   0  -1   2 580.623 10.5636   1
  -1   1  -2 539.855 12.9118   1
  -1   1  -2 543.138 9.52666   2
   1  -1   2 517.675 12.2234   1
   1  -1   2 531.634 8.86246   2
  -2   1  -2 42.4497 8.05460   1
  -2   1  -2 32.7000 5.40356   2
   2  -1   2 31.0756 4.89194   1
   2  -1   2 42.6169 7.46068   2
  -3   1  -2 15.9288 9.83001   2
   3   1   4 1261.44 34.8809  -2
  -3   1  -2 1261.44 34.8809   1
   3  -1   2 12.0878 9.05489   2
   3  -1   2 12.7487 9.52292   1
  -3  -1  -4 1552.57 49.4256  -2
   3  -1   2 1552.57 49.4256   1
   4   1   4 1242.10 41.2721  -2
  -4   1  -2 1242.10 41.2721   1
  -4  -1  -4 1292.80 32.9194  -2
   4  -1   2 1292.80 32.9194   1
  -5   1  -2 829.943 37.0098   1
  -5   1  -2 865.657 36.9663   2
   5  -1   2 822.491 29.5869   1
   5  -1   2 786.290 50.5792   2
  -6   1  -2 33.2103 28.8588   1
  -6   1  -2 21.0933 16.0131   2
   6  -1   2 4.73991 21.3894   1
   6  -1   2 37.3609 25.8614   2
   5   0  -2 273.316 19.2005   1
   5   0  -2 288.518 37.0335   2
  -5   0   2 255.207 23.1409   2
  -5   0   2 241.997 36.6379   1
   4   0  -2 107.386 12.3945   1
   4   0  -2 128.570 25.4469   2
  -4   0   2 109.168 13.0339   2
  -4   0   2 158.495 25.3569   1
   3   0  -2 646.255 18.8208   1
   3   0  -2 674.128 22.4500   2
  -3   0   2 728.376 19.6706   2
  -3   0   2 667.896 32.3217   1
  -2  -1   1 2245.70 26.8902  -2
   2   0  -2 2245.70 26.8902   1
   2   1  -1 2289.61 47.3112  -2
  -2   0   2 2289.61 47.3112   1
   1   0  -2 2398.19 21.0366   1
   1   0  -2 2390.88 36.1252   2
  -1   0   2 2472.58 22.6015   2
  -1   0   2 2299.88 25.9445   1
   0   0  -2 162.219 4.55177   2
   0   0  -2 158.800 3.34726   1
   0   0   2 152.366 4.32151   2
   0   0   2 146.422 3.77784   1
  -1   0  -2 2949.77 23.7375   1
  -1   0  -2 3015.05 21.2388   2
   1   0   2 2901.19 20.9298   1
   1   0   2 3039.30 30.6574   2
  -2   0  -2 307.599 15.6193   2
   2   0   2 629.123 19.2806  -2
  -2   0  -2 629.123 19.2806   1
  -2   0  -2 608.333 24.5049  -2
   2   0   2 608.333 24.5049   1
   2   0   2 320.749 23.8053   1
  -3   0  -2 58.3041 10.6398   2
  -3   0  -2 49.3634 10.5159   1
   3   0   2 105.696 30.0557  -2
  -3   0  -2 105.696 30.0557   1
   3   0   2 53.7778 10.7232   2
  -3   0  -2 73.4864 18.2733  -2
   3   0   2 73.4864 18.2733   1
   3   0   2 69.7114 11.7355   1
  -4   0  -2 1135.06 28.5995   2
  -4   0  -2 1146.69 50.5979   1
   4   0   2 1132.13 29.0487   1
   4   0   2 1191.98 50.2225   2
  -5   0  -2 103.697 19.4089   1
  -5   0  -2 131.799 19.5489   2
   5   0   2 123.512 27.9592   2
   5   0   2 86.1910 18.0892   1
  -6   0  -2 176.179 23.8917   2
  -6   0  -2 125.384 35.7147   1
   6   0   2 165.614 23.5073   1
   6   0   2 164.574 37.3951   2
   6  -1  -2 49.0623 24.8747   1
   6  -1  -2 28.3363 27.2799   2
  -6   1   2 33.0530 23.8805   2
  -6   1   2 12.4150 30.7236   1
   5  -1  -2 166.405 31.0907   2
   5  -1  -2 168.076 20.0013   1
  -5   1   2 168.551 30.7434   2
  -5   1   2 163.681 35.9759   1
  -4  -2  -1 97.4153 20.0966  -2
   4  -1  -2 97.4153 20.0966   1
   4   2   1 153.603 38.2141  -2
  -4   1   2 153.603 38.2141   1
  -3  -2  -1 633.924 16.6260  -2
   3  -1  -2 633.924 16.6260   1
   3   2   1 637.278 34.0268  -2
  -3   1   2 637.278 34.0268   1
   2  -1  -2 318.351 8.93371   1
   2  -1  -2 352.069 14.2828   2
  -2   1   2 344.523 14.3764   2
  -2   1   2 332.119 18.8248   1
   1  -1  -2 2617.31 16.2217   1
   1  -1  -2 2676.72 28.6731   2
  -1   1   2 2631.12 28.7948   1
  -1   1   2 2739.67 42.2318   2
   0  -1  -2 196.777 3.90752   1
   0  -1  -2 214.880 2.73044   2
   0   1   2 205.999 4.69263   1
   0   1   2 208.778 3.98657   2
   1  -1   0 2806.99 29.3670  -2
  -1  -1  -2 2806.99 29.3670   1
  -1   1   0 2881.47 42.0728  -2
   1   1   2 2881.47 42.0728   1
  -2  -1  -2 1190.94 18.2566   2
  -2  -1  -2 1123.37 22.8632   1
   2   1   2 1135.31 19.1545   1
   2   1   2 1182.67 24.9421   2
  -3  -1  -2 60.2700 9.55502   1
  -3  -1  -2 66.1060 8.90996   2
   3   1   2 66.7646 9.04685   1
   3   1   2 52.0113 14.3658   2
  -4  -1  -2 1023.39 27.1493   2
  -4  -1  -2 874.182 44.2026   1
   4   1   2 975.717 27.2888   1
   4   1   2 919.681 43.6985   2
   5   0   1 361.261 51.4834  -2
  -5  -1  -2 361.261 51.4834   1
  -5  -1  -2 219.878 22.7184   2
  -5   0  -1 163.717 31.9745  -2
   5   1   2 163.717 31.9745   1
   5   1   2 136.772 27.2330   1
   6   0   1 296.927 50.8683  -2
  -6  -1  -2 296.927 50.8683   1
  -6   0  -1 327.288 42.1033  -2
   6   1   2 327.288 42.1033   1
   6  -2  -2 277.599 27.4358   1
   6  -2  -2 220.296 39.4008   2
  -6   2   2 197.137 35.2403   2
  -6   2   2 294.608 48.9657   1
  -5  -3  -3 736.494 36.2746  -2
   5  -2  -2 736.494 36.2746   1
   5   3   3 615.734 64.0072  -2
  -5   2   2 615.734 64.0072   1
  -4  -3  -3 212.235 25.6589  -2
   4  -2  -2 212.235 25.6589   1
   4   3   3 145.781 51.0606  -2
  -4   2   2 145.781 51.0606   1
   3  -2  -2 230.053 10.6772   1
   3  -2  -2 239.785 16.4608   2
  -3   2   2 274.231 26.2809   2
  -3   2   2 233.231 16.9501   1
   2  -2  -2 1162.72 24.5149   2
   2  -2  -2 1125.26 15.9056   1
  -2   2   2 1150.88 22.8635   1
  -2   2   2 1167.60 34.5191   2
   1  -2  -2 2489.91 24.9807   1
   1  -2  -2 2486.03 23.0278   2
  -1   2   2 2598.17 29.7102   2
  -1   2   2 2504.61 50.7125   1
   0  -2  -2 5032.75 33.4786  -2
   0  -2  -2 5032.75 33.4786   1
   0   2   2 5400.38 44.7656  -2
   0   2   2 5400.38 44.7656   1
  -1  -2  -2 3908.80 30.2734   1
  -1  -2  -2 4156.73 22.5857   2
   1   2   2 4325.24 69.3049   2
   1   2   2 4115.92 38.9376   1
  -2  -2  -2 153.455 7.33002   2
  -2  -2  -2 132.576 9.66889   1
   2   2   2 154.541 15.6086   1
   2   2   2 141.023 10.7491   2
  -3  -2  -2 429.988 13.2649   2
  -3  -2  -2 394.192 18.8924   1
   3   2   2 406.914 20.9032   2
   3   2   2 401.940 15.8028   1
   4  -1  -1 103.407 43.4684  -2
  -4  -2  -2 103.407 43.4684   1
  -4   1   1 230.934 37.4107  -2
   4   2   2 230.934 37.4107   1
   5  -1  -1 80.5156 45.7123  -2
  -5  -2  -2 80.5156 45.7123   1
  -5   1   1 6.66710 35.9591  -2
   5   2   2 6.66710 35.9591   1
  -6  -2  -2 167.876 36.5409   1
  -6  -2  -2 173.592 32.2909   2
   6   2   2 113.665 28.9525   1
   6   2   2 138.945 36.5365   2
  -6  -4  -5 720.902 40.8201  -2
   6  -3  -2 720.902 40.8201   1
   6   4   5 798.429 74.4948  -2
  -6   3   2 798.429 74.4948   1
  -5  -4  -5 76.2508 29.3799  -2
   5  -3  -2 76.2508 29.3799   1
   5   4   5 139.249 58.9789  -2
  -5   3   2 139.249 58.9789   1
   4  -3  -2 312.998 21.0059   1
   4  -3  -2 290.802 21.3638   2
  -4   3   2 338.709 33.3820   2
  -4   3   2 292.969 38.2744   1
   3  -3  -2 252.564 12.2215   1
   3  -3  -2 259.464 17.3414   2
  -3   3   2 280.573 26.3624   2
  -3   3   2 231.227 30.5710   1
   2  -3  -2 1228.35 21.4331   2
   2  -3  -2 1255.87 12.8143   1
  -2   3   2 1242.29 46.0835   1
  -2   3   2 1342.66 26.6778   2
  -1  -3  -4 1283.14 17.9413  -2
   1  -3  -2 1283.14 17.9413   1
   0  -3  -2 188.468 5.17444   2
   0  -3  -2 166.714 3.44553   1
   0   3   2 160.568 13.1557   1
   0   3   2 201.709 9.65550   2
  -1  -3  -2 1494.29 18.1893   1
  -1  -3  -2 1615.34 14.3538   2
   1   3   2 1649.80 19.7302   2
   1   3   2 1585.23 19.8059   1
  -2  -3  -2 414.309 10.1696   2
  -2  -3  -2 390.734 16.1330   1
   2   3   2 382.086 23.2871   1
   2   3   2 404.445 29.7378   2
   3  -2  -3 402.814 23.0512  -2
  -3  -3  -2 402.814 23.0512   1
  -3   2   3 529.475 37.0362  -2
   3   3   2 529.475 37.0362   1
   4  -2  -3 816.021 55.6408  -2
  -4  -3  -2 816.021 55.6408   1
  -4   2   3 823.544 53.2905  -2
   4   3   2 823.544 53.2905   1
  -5  -3  -2 159.313 31.8011   1
  -5  -3  -2 216.115 20.8374   2
   5   3   2 233.394 40.1869   2
   5   3   2 158.875 29.6704   1
  -6  -3  -2 72.6780 29.7697   1
  -6  -3  -2 104.987 29.9574   2
   6   3   2 122.221 38.9076   2
   6   3   2 163.120 32.8476   1
   6  -4  -2 51.3713 15.3236   1
   6  -4  -2 45.5968 32.8489   2
  -6   4   2 10.5448 31.4362   1
   5  -4  -2 32.4450 11.5161   1
   5  -4  -2 31.4516 25.0695   2
  -5   4   2 42.1941 27.8762   1
   4  -4  -2 334.870 21.0704   1
   4  -4  -2 341.544 23.1607   2
  -4   4   2 439.260 39.5561   2
  -4   4   2 282.022 36.7063   1
  -3  -4  -6 609.726 19.0822  -2
   3  -4  -2 609.726 19.0822   1
   3   4   6 588.509 53.6034  -2
  -3   4   2 588.509 53.6034   1
  -2  -4  -6 951.314 14.2049  -2
   2  -4  -2 951.314 14.2049   1
   2   4   6 938.183 46.5281  -2
  -2   4   2 938.183 46.5281   1
   1  -4  -2 242.868 4.85693   1
   1  -4  -2 234.813 7.97804   2
  -1   4   2 254.675 12.4328   2
  -1   4   2 257.086 22.4650   1
   0  -4  -2 193.247 5.10741   1
   0  -4  -2 209.830 5.59068   2
   0   4   2 215.783 16.6948   2
   0   4   2 183.629 15.4312   1
  -1  -4  -2 0.61193 3.80307   1
  -1  -4  -2 6.97625 2.16921   2
   1   4   2 1.96323 5.28898   1
   1   4   2 -1.0319 11.3143   2
   2  -3  -5 1456.98 30.8000  -2
  -2  -4  -2 1456.98 30.8000   1
  -2   3   5 1556.50 45.2928  -2
   2   4   2 1556.50 45.2928   1
  -3  -4  -2 428.221 22.1589   1
  -3  -4  -2 431.290 14.5901   2
  -3   3   5 465.349 42.8486  -2
   3   4   2 465.349 42.8486   1
   3   4   2 367.240 38.5311   2
  -4  -4  -2 255.476 32.2928   1
  -4  -4  -2 275.425 19.2183   2
   4   4   2 323.071 35.2041   1
   4   4   2 261.114 37.8512   2
  -5  -4  -2 352.085 43.2150   1
  -5  -4  -2 296.281 23.1701   2
   5   4   2 254.772 40.8326   2
   5   4   2 304.031 37.2699   1
   6  -2  -4 192.610 62.7701  -2
  -6  -4  -2 192.610 62.7701   1
  -6   2   4 223.235 59.6803  -2
   6   4   2 223.235 59.6803   1
   5  -5  -2 49.0339 15.0861   1
   5  -5  -2 8.28066 24.0968   2
  -5   5   2 2.98351 27.5979   1
  -4  -5  -8 905.457 48.0653  -2
   4  -5  -2 905.457 48.0653   1
   4   5   8 1032.56 67.3962  -2
  -4   5   2 1032.56 67.3962   1
  -3  -5  -8 904.827 27.2231  -2
   3  -5  -2 904.827 27.2231   1
   3   5   8 918.193 57.8443  -2
  -3   5   2 918.193 57.8443   1
   2  -5  -2 251.867 16.1327   2
   2  -5  -2 261.503 9.60782   1
  -2   5   2 271.362 24.9069   2
  -2   5   2 248.648 28.5929   1
   1  -5  -2 18.6889 5.28500   2
   1  -5  -2 19.8275 3.22281   1
  -1   5   2 19.6871 11.8375   1
  -1   5   2 7.80696 10.3222   2
   0  -5  -2 451.836 6.69623   2
   0  -5  -2 404.563 8.54784   1
   0   5   2 470.626 26.4233   2
   0   5   2 515.085 25.9689   1
   1  -4  -7 907.041 17.6828  -2
  -1  -5  -2 907.041 17.6828   1
  -1   4   7 997.167 25.3086  -2
   1   5   2 997.167 25.3086   1
  -2  -5  -2 729.370 12.5086   2
  -2  -5  -2 672.107 23.9750   1
   2   5   2 783.575 25.1836   1
   2   5   2 741.063 45.9282   2
  -3  -5  -2 25.5299 8.88659   2
  -3  -5  -2 14.0061 10.7821   1
   3   5   2 18.0346 18.7603   1
   3   5   2 49.5479 25.1905   2
  -4  -5  -2 115.481 14.8973   2
  -4  -5  -2 99.0605 25.5360   1
   4   5   2 110.640 32.2729   2
   4   5   2 110.220 26.0875   1
   5  -3  -6 130.001 51.5423  -2
  -5  -5  -2 130.001 51.5423   1
  -5  -6 -10 173.729 27.0433  -2
   5  -6  -2 173.729 27.0433   1
   5   6  10 117.804 53.2875  -2
  -5   6   2 117.804 53.2875   1
  -4  -6 -10 278.439 27.2158  -2
   4  -6  -2 278.439 27.2158   1
   4  -6  -2 23.0319 16.1421   2
   3  -6  -2 114.089 14.9513   2
   3  -6  -2 120.915 11.9066   1
  -3   6   2 58.4555 24.5359   1
   2  -6  -2 135.185 13.4534   2
   2  -6  -2 135.505 7.45487   1
  -1  -5  -9 170.325 18.7533  -2
   1  -6  -2 170.325 18.7533   1
   1  -6  -2 54.8554 5.93325   1
   1  -6  -2 54.0919 10.3369   2
  -1   6   2 64.2356 16.6627   1
   0  -5  -9 978.047 15.8932  -2
   0  -6  -2 978.047 15.8932   1
   0   5   9 1114.00 41.7958  -2
   0   6   2 1114.00 41.7958   1
  -1  -6  -2 38.1464 5.67317   2
  -1  -6  -2 26.4020 8.22810   1
   1   6   2 17.5712 13.5354   1
   1   6   2 23.8222 16.9130   2
  -2  -6  -2 121.607 6.38814   2
  -2  -6  -2 139.844 14.6340   1
   2   6   2 138.931 26.4905   2
   2   6   2 121.882 20.2114   1
  -3  -6  -2 168.880 16.8716   1
  -3  -6  -2 154.460 12.7398   2
   3   6   2 207.569 30.6829   1
   3   6   2 143.740 31.1053   2
   4  -4  -8 552.268 53.3163  -2
  -4  -6  -2 552.268 53.3163   1
   5  -4  -8 48.7663 55.2937  -2
  -5  -6  -2 48.7663 55.2937   1
   4  -7  -2 52.9901 15.4653   2
   4  -7  -2 35.6869 19.0424   1
  -4   7   2 54.0050 28.6497   1
   3  -7  -2 30.2168 11.9325   2
   3  -7  -2 -0.9438 11.3774   1
  -2  -6 -11 109.828 22.6056  -2
   2  -7  -2 109.828 22.6056   1
  -1  -6 -11 1127.88 24.7301  -2
   1  -7  -2 1127.88 24.7301   1
   0  -7  -2 33.5329 6.64271   1
   0  -7  -2 31.6357 5.76176   2
  -1  -7  -2 20.2782 4.55532   2
  -1  -7  -2 18.0722 8.98740   1
   1   7   2 46.0177 19.4830   2
  -2  -7  -2 26.8928 5.93096   2
  -2  -7  -2 45.0208 12.1148   1
   2   7   2 26.8615 21.2194   2
   3  -5 -10 617.053 30.5354  -2
  -3  -7  -2 617.053 30.5354   1
   4  -5 -10 253.213 61.4826  -2
  -4  -7  -2 253.213 61.4826   1
   4   7   2 138.500 39.9282   2
  -3  -7 -13 362.551 34.8020  -2
   3  -8  -2 362.551 34.8020   1
  -2  -7 -13 238.179 29.2754  -2
   2  -8  -2 238.179 29.2754   1
   1  -8  -2 483.370 28.4033   2
   1  -8  -2 430.055 26.0084   1
   0  -8  -2 235.818 15.9799   1
   0  -8  -2 243.899 17.7264   2
  -1  -8  -2 53.9284 6.91873   2
  -1  -8  -2 41.5756 14.4792   1
   1  -6 -12 95.2352 36.9538  -2
  -1  -8  -2 95.2352 36.9538   1
   2  -6 -12 232.894 21.9404  -2
  -2  -8  -2 232.894 21.9404   1
  -3  -8  -2 943.927 37.8744   1
  -3  -8  -2 971.882 35.7460   2
   3   8   2 992.516 64.5992   2
   2  -9  -2 15.6128 14.2323   1
   2  -9  -2 27.7104 18.1349   2
   1  -9  -2 94.5553 17.9541   2
   1  -9  -2 90.7494 16.9541   1
   0  -7 -14 31.1012 29.4451  -2
   0  -9  -2 31.1012 29.4451   1
   1  -7 -14 57.2356 21.8044  -2
  -1  -9  -2 57.2356 21.8044   1
  -2  -9  -2 240.861 18.2189   1
  -2  -9  -2 227.200 19.5471   2
   0  -9   3 12.4478 14.7918   2
   0  -9   3 8.66789 13.4701   1
  -2  -8   3 4.15773 11.7752   2
  -2  -8   3 9.69618 15.9950   1
   1  -5 -16 221.532 27.2990  -2
  -1  -8   3 221.532 27.2990   1
   0  -5 -16 172.206 24.7828  -2
   0  -8   3 172.206 24.7828   1
   1  -8   3 6.75541 9.23603   2
   1  -8   3 32.1320 11.6513   1
   2  -8   3 473.366 26.1066   1
   2  -8   3 488.023 26.3841   2
   3  -8   3 17.7806 13.1257   2
   3  -8   3 -0.5430 12.9974   1
   4   7  -3 58.6623 39.2177   2
  -4  -7   3 13.7913 12.8743   2
  -4  -7   3 12.2014 26.8097   1
   3   7  -3 54.8569 33.7816   2
  -3  -7   3 59.9742 12.0801   2
  -3  -7   3 84.5127 27.7664   1
   2  -4 -14 360.992 29.0480  -2
  -2  -7   3 360.992 29.0480   1
   1  -4 -14 129.122 24.0146  -2
  -1  -7   3 129.122 24.0146   1
   0  -7   3 337.980 17.1221   2
   0  -7   3 267.004 18.9416   1
   1  -7   3 24.3337 8.91492   2
   1  -7   3 8.20917 9.03333   1
  -2  -5 -15 320.761 39.2990  -2
   2  -7   3 320.761 39.2990   1
   2  -7   3 175.197 22.9407   2
   2  -7   3 193.505 25.1036   1
  -3  -5 -15 144.474 22.2156  -2
   3  -7   3 144.474 22.2156   1
   4  -7   3 70.7418 16.8236   1
   4  -7   3 76.7047 18.6189   2
   4   6  -3 6.15513 32.7290   2
  -4  -6   3 44.9618 13.8446   2
  -4  -6   3 51.3362 26.7176   1
   3  -3 -12 298.992 37.4598  -2
  -3  -6   3 298.992 37.4598   1
   2   6  -3 613.573 47.7582   2
  -2  -6   3 621.076 18.7725   2
  -2  -6   3 638.911 28.1509   1
   1   6  -3 88.3427 17.2684   1
   1   6  -3 86.9679 23.2826   2
  -1  -6   3 111.435 8.99595   2
  -1  -6   3 99.8937 13.3316   1
   0   6  -3 18.2648 12.0709   1
   0  -6   3 19.6580 6.20698   2
   0  -6   3 16.7908 8.86584   1
  -1  -4 -13 289.882 22.3420  -2
   1  -6   3 289.882 22.3420   1
  -2  -4 -13 718.916 27.9451  -2
   2  -6   3 718.916 27.9451   1
   3  -6   3 453.879 25.6322   2
   3  -6   3 461.644 24.1477   1
   4  -6   3 215.974 20.7037   1
   4  -6   3 215.111 21.9872   2
  -5   6  -3 55.1248 30.3511   1
   5  -6   3 -5.5779 25.9016   2
   5  -6   3 18.0853 15.5006   1
   5   5  -3 56.8442 29.4396   1
   5   5  -3 81.6166 42.5055   2
  -5  -5   3 94.6068 17.7685   2
  -5  -5   3 26.4352 29.1260   1
  -4   2  10 459.936 43.9855  -2
   4   5  -3 459.936 43.9855   1
   4  -2 -10 419.452 43.6716  -2
  -4  -5   3 419.452 43.6716   1
   3   5  -3 344.528 34.7812   1
   3   5  -3 341.437 44.2365   2
  -3  -5   3 346.994 19.2348   2
  -3  -5   3 322.285 35.0005   1
   2   5  -3 490.960 43.3633   2
   2   5  -3 495.036 33.9819   1
  -2  -5   3 426.081 18.4772   1
  -2  -5   3 481.920 16.0675   2
   1   5  -3 149.019 12.7494   1
   1   5  -3 198.380 25.7139   2
  -1  -5   3 184.150 8.85193   2
  -1  -5   3 159.224 13.9995   1
   0   3  11 355.388 25.1599  -2
   0   5  -3 355.388 25.1599   1
   0  -3 -11 303.899 19.5333  -2
   0  -5   3 303.899 19.5333   1
   1   3  11 318.120 21.4776  -2
  -1   5  -3 318.120 21.4776   1
  -1  -3 -11 265.256 19.7510  -2
   1  -5   3 265.256 19.7510   1
  -2   5  -3 755.854 31.5711   2
   2  -5   3 690.638 24.6098   2
   2  -5   3 645.994 22.8576   1
   3  -5   3 34.9219 11.1237   2
   3  -5   3 32.9942 10.6137   1
  -4   5  -3 474.885 43.5553   1
   4  -5   3 412.372 26.5854   2
   4  -5   3 469.383 25.8618   1
   5   4  12 195.966 39.8086  -2
  -5   5  -3 195.966 39.8086   1
  -5  -4 -12 207.425 23.8176  -2
   5  -5   3 207.425 23.8176   1
  -5   1   8 63.4585 40.9962  -2
   5   4  -3 63.4585 40.9962   1
   5  -1  -8 48.7235 41.6919  -2
  -5  -4   3 48.7235 41.6919   1
   4   4  -3 153.286 27.2139   1
  -4  -4   3 168.688 17.0311   2
  -4  -4   3 109.657 27.6321   1
   3   4  -3 -12.697 15.9732   1
  -3  -4   3 9.94161 8.88498   2
  -3  -4   3 -5.3798 14.5933   1
   2   4  -3 176.091 22.7402   1
  -2  -4   3 135.647 10.5648   1
  -2  -4   3 176.266 12.4565   2
  -1   2   9 2035.14 26.3547  -2
   1   4  -3 2035.14 26.3547   1
   1  -2  -9 1818.90 33.4949  -2
  -1  -4   3 1818.90 33.4949   1
   0   4  -3 244.941 12.0912   1
   0   4  -3 273.091 11.9358   2
   0  -4   3 257.391 8.03041   2
   0  -4   3 225.008 10.3140   1
  -1   4  -3 642.658 16.1428   1
  -1   4  -3 707.258 17.9922   2
   1  -4   3 601.999 11.7440   1
   1  -4   3 648.743 13.3972   2
  -2   4  -3 144.863 11.3432   2
  -2   4  -3 138.549 16.1120   1
   2  -4   3 118.184 8.24405   1
   2  -4   3 144.152 13.6077   2
  -3   4  -3 786.377 24.2147   2
  -3   4  -3 680.643 40.5433   1
   3  -4   3 663.370 19.4574   1
   3  -4   3 697.449 26.8185   2
  -4  -3 -10 444.066 26.7285  -2
   4  -4   3 444.066 26.7285   1
  -5   4  -3 27.0757 25.4366   1
  -5   4  -3 50.7056 28.5546   2
   5  -4   3 29.7025 23.6859   2
   5  -4   3 44.1349 15.0643   1
  -6   4  -3 461.819 56.4153   1
   6  -4   3 385.100 31.5515   1
   6  -4   3 342.328 46.9207   2
  -6   0   6 82.3375 54.5389  -2
   6   3  -3 82.3375 54.5389   1
   6   0  -6 8.34168 63.0837  -2
  -6  -3   3 8.34168 63.0837   1
   5   3  -3 497.619 47.0645   1
  -5  -3   3 428.112 29.2395   2
  -5  -3   3 419.286 45.5564   1
   4   3  -3 392.224 27.5428   1
  -4  -3   3 381.291 24.0385   2
  -4  -3   3 362.582 38.4114   1
   3   3  -3 211.875 26.4802   1
   3   3  -3 184.430 22.7707   2
  -3  -3   3 213.492 15.7620   2
  -3  -3   3 149.965 23.5959   1
  -2   1   7 1192.30 28.2220  -2
   2   3  -3 1192.30 28.2220   1
   2  -1  -7 1214.54 28.8215  -2
  -2  -3   3 1214.54 28.8215   1
   1   3  -3 2655.94 45.0477   2
   1   3  -3 2377.81 49.4218   1
  -1  -3   3 2343.17 34.4387   1
  -1  -3   3 2621.14 23.5825   2
   0   3  -3 2.22319 3.75593   1
   0   3  -3 10.3887 4.45594   2
   0  -3   3 3.15093 2.43662   2
   0  -3   3 -2.5183 3.92799   1
  -1   3  -3 87.5476 7.12071   2
  -1   3  -3 100.751 7.12242   1
   1  -3   3 82.7543 5.42369   2
   1  -3   3 83.8612 4.75237   1
  -2   3  -3 1230.65 35.1113   1
  -2   3  -3 1216.32 22.6297   2
  -2  -2  -8 2303.18 51.5363  -2
   2  -3   3 2303.18 51.5363   1
   2  -3   3 1175.66 17.9328   1
   3   2   8 1121.08 33.1516  -2
  -3   3  -3 1121.08 33.1516   1
  -3  -2  -8 1033.84 31.1413  -2
   3  -3   3 1033.84 31.1413   1
  -4   3  -3 247.737 15.0443   2
  -4   3  -3 293.044 35.1976   1
   4  -3   3 215.555 29.2238   2
   4  -3   3 266.690 19.9681   1
  -5   3  -3 386.587 26.3703   2
  -5   3  -3 306.086 40.1132   1
   5  -3   3 271.612 35.0015   2
   5  -3   3 330.670 24.9224   1
  -6   3  -3 10.2092 15.7886   2
  -6   3  -3 5.63334 27.6266   1
   6  -3   3 18.4668 21.1606   1
   6  -3   3 21.0144 24.7795   2
   6   2  -3 164.251 35.4268   1
  -6  -2   3 99.9873 31.0878   2
   5   2  -3 490.650 45.4699   1
  -5  -2   3 408.039 42.4404   1
  -5  -2   3 513.250 41.5485   2
   4   2  -3 283.310 22.2208   1
   4   2  -3 311.356 32.7653   2
  -4  -2   3 278.587 17.2169   2
  -4  -2   3 273.022 33.3534   1
  -3   0   5 602.987 24.7847  -2
   3   2  -3 602.987 24.7847   1
   3   0  -5 587.125 35.3953  -2
  -3  -2   3 587.125 35.3953   1
   2   2  -3 473.546 17.2967   1
   2   2  -3 513.187 13.2925   2
  -2  -2   3 458.185 13.9784   1
  -2  -2   3 463.949 11.7215   2
   1   2  -3 2177.53 18.5873   2
   1   2  -3 2088.24 29.6828   1
  -1  -2   3 2126.31 22.1960   2
  -1  -2   3 1985.16 28.9167   1
   0   2  -3 248.166 14.3669   1
   0   2  -3 258.993 5.90517   2
   0  -2   3 262.179 6.21280   2
   0  -2   3 228.014 9.92420   1
  -1   2  -3 77.2400 11.2851   2
   1   1   6 524.025 22.6291  -2
  -1   2  -3 524.025 22.6291   1
  -1  -1  -6 502.445 10.6960  -2
   1  -2   3 502.445 10.6960   1
   1  -2   3 51.2089 8.99302   1
   2   1   6 869.070 34.9865  -2
  -2   2  -3 869.070 34.9865   1
  -2   2  -3 519.816 15.4689   2
  -2   2  -3 555.694 24.7438   1
   2  -2   3 492.322 24.7888   1
  -2  -1  -6 833.669 30.4908  -2
   2  -2   3 833.669 30.4908   1
  -3   2  -3 420.917 17.4760   2
  -3   2  -3 434.503 21.2740   1
   3  -2   3 384.041 16.5082   1
   3  -2   3 414.649 20.0673   2
  -4   2  -3 1522.62 40.2091   1
  -4   2  -3 1561.36 32.4446   2
   4  -2   3 1514.41 27.8448   1
   4  -2   3 1435.26 56.4210   2
  -5   2  -3 41.7859 12.1797   2
  -5   2  -3 80.6092 26.5106   1
   5  -2   3 31.1581 11.5668   1
   5  -2   3 25.4347 20.8406   2
   6   2   7 15.2050 39.1063  -2
  -6   2  -3 15.2050 39.1063   1
  -6  -2  -7 1.93985 14.0123  -2
   6  -2   3 1.93985 14.0123   1
   6   1  -3 -9.5452 20.5524   1
  -6  -1   3 69.6469 27.6819   2
  -5  -1   3 212.048 46.4494  -2
   5   1  -3 212.048 46.4494   1
   5   1  -3 287.955 53.2854  -2
  -5  -1   3 287.955 53.2854   1
  -4  -1   3 801.262 32.3112  -2
   4   1  -3 801.262 32.3112   1
   4   1  -3 671.315 48.7506  -2
  -4  -1   3 671.315 48.7506   1
   3   1  -3 121.968 10.4255   1
   3   1  -3 145.465 20.4248   2
  -3  -1   3 127.082 9.54389   2
  -3  -1   3 142.732 21.1864   1
   2   1  -3 161.685 11.5260   1
   2   1  -3 185.872 17.7387   2
  -2  -1   3 140.002 8.40545   1
  -2  -1   3 150.517 9.15363   2
   1   1  -3 1646.35 23.9524   1
   1   1  -3 1699.04 33.3560   2
  -1  -1   3 1603.51 19.5753   1
  -1  -1   3 1736.46 23.8359   2
   0   0   4 1390.66 19.7717  -2
   0   1  -3 1390.66 19.7717   1
   0  -1   3 1204.98 24.6788   1
   0   0  -4 1335.85 27.2493  -2
   0  -1   3 1335.85 27.2493   1
  -1   1  -3 820.213 9.27318   2
  -1   1  -3 805.783 15.9192   1
   1  -1   3 845.745 16.8773   1
   1  -1   3 834.355 16.4789   2
  -2   1  -3 227.529 12.8980   2
  -2   1  -3 224.607 12.9747   1
   2  -1   3 193.055 9.69796   1
   2  -1   3 223.121 9.63554   2
  -3   1  -3 217.060 11.0851   2
  -3   1  -3 214.845 16.0103   1
   3  -1   3 208.943 14.6106   2
   3  -1   3 211.472 10.8587   1
  -4   1  -3 200.607 29.4773   2
  -4   1  -3 178.884 18.6669   1
   4  -1   3 202.111 19.7719   1
  -4  -1  -5 259.848 36.6406  -2
   4  -1   3 259.848 36.6406   1
   4  -1   3 206.777 28.0262   2
   5   1   5 578.651 34.5634  -2
  -5   1  -3 578.651 34.5634   1
  -5  -1  -5 539.938 26.4614  -2
   5  -1   3 539.938 26.4614   1
  -6   1  -3 453.341 26.1455   2
  -6   1  -3 444.688 50.6728   1
   6  -1   3 451.473 31.7744   1
   6  -1   3 410.936 32.5061   2
  -6  -2   1 330.395 45.3534  -2
   6   0  -3 330.395 45.3534   1
  -5  -2   1 475.782 41.3212  -2
   5   0  -3 475.782 41.3212   1
   4   0  -3 408.764 20.4285   1
   4   0  -3 425.641 38.4152   2
  -4   0   3 417.103 35.7225   2
  -4   0   3 404.737 35.1478   1
   3   0  -3 842.141 18.0250   1
   3   0  -3 823.559 24.7115   2
  -3   0   3 887.756 26.4534   2
  -3   0   3 834.333 36.1392   1
   2   0  -3 34.5566 6.86050   2
   2   0  -3 37.1218 4.75863   1
  -2   0   3 58.1719 6.53987   2
  -2   0   3 60.3610 11.1295   1
  -1  -1   2 1293.15 19.0636  -2
   1   0  -3 1293.15 19.0636   1
   1   1  -2 1299.24 19.7268  -2
  -1   0   3 1299.24 19.7268   1
   0   0  -3 4042.43 24.7739   2
   0   0  -3 3946.18 26.1787   1
   0   0   3 4176.93 34.6992   2
   0   0   3 3762.78 30.5059   1
  -1   0  -3 2172.14 19.7222   1
  -1   0  -3 2210.12 25.7890   2
   1   0   3 2135.63 19.9474   2
   1   0   3 2203.51 21.9954   1
  -2   0  -3 6509.68 50.3342   1
  -2   0  -3 6899.17 53.7994   2
   2   0   3 6729.04 51.3555   2
   2   0   3 6695.30 45.4059   1
   3   0   3 24.5852 27.7769  -2
  -3   0  -3 24.5852 27.7769   1
  -3   0  -3 25.9709 8.16720   1
  -3   0  -3 28.2077 10.1642   2
   3   0   3 15.7797 7.19832   2
  -3   0  -3 27.7715 17.7150  -2
   3   0   3 27.7715 17.7150   1
   3   0   3 11.4085 9.91582   1
   4   0   3 611.689 34.4199  -2
  -4   0  -3 611.689 34.4199   1
  -4   0  -3 655.959 27.0613  -2
   4   0   3 655.959 27.0613   1
  -5   0  -3 212.359 23.1262   2
  -5   0  -3 227.132 23.1508   1
   5   0   3 301.247 25.4729   1
   5   0   3 270.195 24.8963   2
  -6   0  -3 327.398 45.9130   1
  -6   0  -3 341.498 29.3462   2
   6   0   3 292.238 27.9281   1
   6   0   3 337.358 30.4578   2
  -6  -3  -1 265.098 54.5953  -2
   6  -1  -3 265.098 54.5953   1
   6   3   1 287.116 72.8540  -2
  -6   1   3 287.116 72.8540   1
   5  -1  -3 131.056 18.3843   1
   5  -1  -3 121.134 29.8886   2
  -5   1   3 93.6272 26.2935   2
  -5   1   3 136.980 35.8331   1
   4  -1  -3 290.970 20.7323   1
   4  -1  -3 264.154 32.4640   2
  -4   1   3 320.372 33.2572   2
  -4   1   3 244.646 27.0380   1
   3  -1  -3 166.952 8.55293   1
   3  -1  -3 148.803 12.9855   2
  -3   1   3 169.953 19.9019   1
  -3   1   3 150.703 13.8738   2
  -2  -2   0 1821.16 22.0420  -2
   2  -1  -3 1821.16 22.0420   1
   2   2   0 1806.96 40.2484  -2
  -2   1   3 1806.96 40.2484   1
   1  -1  -3 2501.39 28.7625   2
   1  -1  -3 2390.86 18.7571   1
  -1   1   3 2565.39 42.3965   2
  -1   1   3 2445.27 34.7793   1
   0  -1  -3 2608.92 14.0660   1
   0  -1  -3 2692.24 14.4345   2
   0   1   3 2588.03 20.5611   1
   0   1   3 2728.51 23.6689   2
  -1  -1  -3 2908.49 22.3201   2
  -1  -1  -3 2761.54 29.2043   1
   1   1   3 3047.09 31.5320   2
   1   1   3 2871.01 20.2873   1
  -2  -1  -3 2416.52 47.6481   2
   2  -1   1 3679.39 43.9316  -2
  -2  -1  -3 3679.39 43.9316   1
   2   1   3 2202.63 33.3418   1
  -2   1  -1 3883.17 64.6920  -2
   2   1   3 3883.17 64.6920   1
   3  -1   1 1536.63 53.1205  -2
  -3  -1  -3 1536.63 53.1205   1
  -3  -1  -3 1525.84 33.5550   2
  -3  -1  -3 1473.14 41.6711   1
   3   1   3 1453.78 32.6914   1
  -3   1  -1 1718.62 52.1252  -2
   3   1   3 1718.62 52.1252   1
   3   1   3 1535.38 33.4115   2
  -4  -1  -3 38.3380 11.2192   2
  -4  -1  -3 17.8566 18.6674   1
   4   1   3 57.5797 11.9792   1
   4   1   3 23.5342 13.8008   2
  -5  -1  -3 134.496 16.1410   2
  -5  -1  -3 140.541 29.6803   1
   5   1   3 118.336 19.1125   1
   5   1   3 159.099 21.2639   2
  -6  -1  -3 763.554 62.4060   1
   6   0   2 1037.63 77.7844  -2
  -6  -1  -3 1037.63 77.7844   1
  -6  -1  -3 990.913 44.1468   2
   6   1   3 956.895 42.2195   1
   6   1   3 916.093 65.0469   2
   6  -2  -3 -2.4547 16.0644   1
   6  -2  -3 -10.539 24.8803   2
  -6   2   3 -12.365 23.0674   2
  -6   2   3 12.9709 30.5786   1
   5  -2  -3 67.9925 26.5678   2
   5  -2  -3 37.3033 14.7134   1
  -5   2   3 100.258 34.2021   1
  -5   2   3 69.9355 25.0135   2
  -4  -3  -2 837.571 34.7069  -2
   4  -2  -3 837.571 34.7069   1
   4   3   2 770.002 67.2379  -2
  -4   2   3 770.002 67.2379   1
  -3  -3  -2 463.066 16.6769  -2
   3  -2  -3 463.066 16.6769   1
   3   3   2 501.530 26.5688  -2
  -3   2   3 501.530 26.5688   1
   2  -2  -3 295.889 14.0292   2
   2  -2  -3 275.493 8.95061   1
  -2   2   3 289.613 13.8804   1
  -2   2   3 280.158 20.2875   2
   1  -2  -3 4020.64 31.7892   2
   1  -2  -3 3722.76 40.3184   1
  -1   2   3 4138.32 41.0820   2
  -1   2   3 3941.34 37.2259   1
   0  -2  -3 579.476 8.65310   1
   0  -2  -3 621.221 5.61286   2
   0   2   3 619.408 10.9318   1
   0   2   3 650.757 12.8557   2
   1  -2  -1 661.893 12.2011  -2
  -1  -2  -3 661.893 12.2011   1
  -1   2   1 766.557 22.5351  -2
   1   2   3 766.557 22.5351   1
  -2  -2  -3 1006.03 15.4791   2
  -2  -2  -3 908.829 21.4241   1
   2   2   3 1051.11 22.6776   2
   2   2   3 1017.32 31.6774   1
  -3  -2  -3 122.421 8.57331   2
  -3  -2  -3 102.755 11.3683   1
   3   2   3 134.104 10.6755   1
   3   2   3 104.921 13.0991   2
  -4  -2  -3 132.759 24.7942   1
  -4  -2  -3 152.462 16.5333   2
   4   2   3 130.269 17.7418   2
   4   2   3 107.131 16.3551   1
  -5  -2  -3 916.709 49.5520   2
   5  -1   0 1026.56 67.4238  -2
  -5  -2  -3 1026.56 67.4238   1
  -5   1   0 1110.31 64.9688  -2
   5   2   3 1110.31 64.9688   1
   5   2   3 852.030 50.9510   1
   6  -1   0 52.1730 44.8226  -2
  -6  -2  -3 52.1730 44.8226   1
  -6   1   0 122.637 35.4639  -2
   6   2   3 122.637 35.4639   1
   6  -3  -3 124.667 20.9092   1
   6  -3  -3 78.4791 32.8734   2
  -6   3   3 95.0559 37.2401   1
  -6   3   3 67.3287 30.6903   2
  -5  -4  -4 511.628 33.1389  -2
   5  -3  -3 511.628 33.1389   1
   5   4   4 654.621 68.0172  -2
  -5   3   3 654.621 68.0172   1
  -4  -4  -4 221.184 25.6588  -2
   4  -3  -3 221.184 25.6588   1
   4   4   4 189.382 50.6243  -2
  -4   3   3 189.382 50.6243   1
   3  -3  -3 280.149 18.7988   2
   3  -3  -3 266.152 12.4040   1
  -3   3   3 280.701 33.2312   1
  -3   3   3 308.008 27.5027   2
   2  -3  -3 77.6725 7.78668   2
   2  -3  -3 88.1420 5.47252   1
  -2   3   3 89.8570 9.55722   2
  -2   3   3 107.114 19.8432   1
   1  -3  -3 107.482 4.47257   1
   1  -3  -3 112.330 6.16395   2
  -1   3   3 104.803 7.08830   2
  -1   3   3 83.8412 14.1537   1
   0  -3  -3 5861.50 40.3551  -2
   0  -3  -3 5861.50 40.3551   1
   0   3   3 6152.33 54.9925  -2
   0   3   3 6152.33 54.9925   1
  -1  -3  -3 930.519 13.8849   1
  -1  -3  -3 1007.29 10.7026   2
   1   3   3 996.224 32.7781   2
   1   3   3 1010.70 15.6076   1
  -2  -3  -3 466.981 16.9291   1
  -2  -3  -3 472.407 10.4679   2
   2   3   3 431.353 15.9741   1
   2   3   3 499.826 31.5154   2
  -3  -3  -3 144.326 8.18576   2
  -3  -3  -3 114.788 12.5921   1
   3   3   3 109.596 13.3275   2
   3   3   3 110.975 18.5530   1
   4  -2  -2 238.182 43.9784  -2
  -4  -3  -3 238.182 43.9784   1
  -4   2   2 200.740 36.8851  -2
   4   3   3 200.740 36.8851   1
   5  -2  -2 675.566 57.8576  -2
  -5  -3  -3 675.566 57.8576   1
  -5   2   2 485.141 48.5378  -2
   5   3   3 485.141 48.5378   1
  -6  -3  -3 12.3810 17.9622   2
  -6  -3  -3 51.4836 29.1949   1
   6   3   3 -4.4405 21.9942   1
   6   3   3 40.5880 30.2199   2
  -5  -5  -6 489.526 36.1911  -2
   5  -4  -3 489.526 36.1911   1
   5   5   6 470.184 62.7088  -2
  -5   4   3 470.184 62.7088   1
   4  -4  -3 159.102 18.1842   2
   4  -4  -3 186.439 16.8777   1
  -4   4   3 158.726 30.8953   1
   3  -4  -3 74.6739 8.17667   1
   3  -4  -3 42.5165 11.8823   2
  -3   4   3 94.1214 19.4002   2
  -3   4   3 62.1140 25.0023   1
   2  -4  -3 1227.88 12.8552   1
   2  -4  -3 1225.72 22.9624   2
  -2   4   3 1328.00 28.5595   2
  -2   4   3 1430.95 53.5917   1
  -1  -4  -5 670.289 10.0491  -2
   1  -4  -3 670.289 10.0491   1
   0  -4  -3 169.903 4.24723   1
   0  -4  -3 196.987 6.15185   2
   0   4   3 220.439 16.9158   2
   0   4   3 172.750 15.3071   1
  -1  -4  -3 649.042 13.2000   1
  -1  -4  -3 716.040 7.62492   2
   1   4   3 728.242 31.1768   2
   1   4   3 742.285 17.9685   1
  -2  -4  -3 936.173 12.3745   2
  -2  -4  -3 895.748 19.5994   1
   2   4   3 953.702 44.5753   2
   2   4   3 976.349 24.8261   1
   3  -3  -4 330.589 23.2826  -2
  -3  -4  -3 330.589 23.2826   1
  -3   3   4 303.203 34.5791  -2
   3   4   3 303.203 34.5791   1
   4  -3  -4 486.994 50.6935  -2
  -4  -4  -3 486.994 50.6935   1
  -4   3   4 422.639 46.1216  -2
   4   4   3 422.639 46.1216   1
  -5  -4  -3 172.271 19.1598   2
  -5  -4  -3 122.911 31.5590   1
   5   4   3 137.753 34.5723   2
   5   4   3 148.404 29.5220   1
  -6  -4  -3 422.804 30.7332   2
  -6  -4  -3 339.474 45.6541   1
   6   4   3 357.916 44.2348   1
   6   4   3 377.152 51.5375   2
   5  -5  -3 40.5417 26.8208   2
   5  -5  -3 15.4973 10.6539   1
  -5   5   3 44.0453 33.1645   1
   4  -5  -3 99.1505 11.3137   1
   4  -5  -3 83.8186 16.0187   2
  -4   5   3 82.1966 30.1665   1
  -3  -5  -7 232.373 28.6448  -2
   3  -5  -3 232.373 28.6448   1
   3   5   7 335.996 46.1866  -2
  -3   5   3 335.996 46.1866   1
  -2  -5  -7 251.698 10.3099  -2
   2  -5  -3 251.698 10.3099   1
   1  -5  -3 181.068 5.13653   1
   1  -5  -3 169.424 8.53141   2
  -1   5   3 198.001 20.6237   2
   0  -5  -3 175.125 6.07491   1
   0  -5  -3 166.297 10.7222   2
   0   5   3 173.255 18.1859   1
   0   5   3 162.490 18.4807   2
  -1  -5  -3 24.5340 5.63389   1
  -1  -5  -3 25.6782 11.5026   2
   1   5   3 29.8117 14.8013   2
   1   5   3 32.8864 12.5881   1
   2  -4  -6 711.333 24.6368  -2
  -2  -5  -3 711.333 24.6368   1
  -2   4   6 800.650 36.7004  -2
   2   5   3 800.650 36.7004   1
  -3  -5  -3 234.364 18.4257   1
  -3  -5  -3 292.738 12.8410   2
   3   5   3 261.578 28.9148   1
   3   5   3 259.374 35.6275   2
  -4  -5  -3 125.613 19.4201   1
  -4  -5  -3 106.613 13.9724   2
   4   5   3 147.540 29.3505   1
   4   5   3 142.083 33.0833   2
  -5  -5  -3 91.1553 16.5965   2
  -5  -5  -3 124.923 31.9987   1
   5   5   3 102.887 33.6612   2
   5  -6  -3 -6.3905 19.8967   1
   5  -6  -3 -20.869 23.5927   2
  -5   6   3 28.7503 30.6948   1
  -4  -6  -9 202.627 35.0479  -2
   4  -6  -3 202.627 35.0479   1
  -3  -6  -9 251.313 29.3734  -2
   3  -6  -3 251.313 29.3734   1
   2  -6  -3 374.256 10.0305   1
   2  -6  -3 350.791 19.9713   2
  -2   6   3 412.553 38.4666   1
   1  -6  -3 250.286 6.76206   1
   1  -6  -3 248.235 11.1984   2
   0  -6  -3 466.866 8.23559   2
   0  -6  -3 452.301 10.8143   1
   0   6   3 563.049 31.7289   1
   1  -5  -8 528.764 19.2314  -2
  -1  -6  -3 528.764 19.2314   1
  -1   5   8 572.977 28.9187  -2
   1   6   3 572.977 28.9187   1
  -2  -6  -3 5.41715 4.05849   2
  -2  -6  -3 19.5068 9.38990   1
   2   6   3 -3.7374 12.7713   1
   2   6   3 20.6133 19.2315   2
  -3  -6  -3 50.7311 13.1268   1
  -3  -6  -3 79.9653 10.4912   2
   3   6   3 103.999 28.0154   2
  -4  -6  -3 235.072 18.0250   2
  -4  -6  -3 219.722 32.9804   1
   4   6   3 291.463 41.7887   2
   5  -4  -7 261.451 61.4058  -2
  -5  -6  -3 261.451 61.4058   1
  -4  -7 -11 333.584 43.0027  -2
   4  -7  -3 333.584 43.0027   1
   3  -7  -3 205.147 17.5009   1
   3  -7  -3 154.962 17.7604   2
  -3   7   3 291.012 38.5647   1
   2  -7  -3 39.2082 10.7537   2
   2  -7  -3 17.1460 8.32103   1
  -1  -6 -10 315.543 18.6273  -2
   1  -7  -3 315.543 18.6273   1
   0  -6 -10 10.5095 11.9278  -2
   0  -7  -3 10.5095 11.9278   1
  -1  -7  -3 571.739 21.7135   1
  -1  -7  -3 719.909 41.3578   2
   1   7   3 748.507 43.8084   2
  -2  -7  -3 161.964 8.43883   2
  -2  -7  -3 127.622 14.4674   1
   2   7   3 163.708 23.5432   1
   2   7   3 179.668 28.7452   2
  -3  -7  -3 74.9782 14.9187   1
  -3  -7  -3 61.0655 13.5883   2
   3   7   3 59.7532 28.7429   2
   4  -5  -9 -17.380 38.0317  -2
  -4  -7  -3 -17.380 38.0317   1
   3  -8  -3 55.0610 16.7847   1
   3  -8  -3 16.4682 13.2876   2
  -2  -7 -12 200.878 26.7787  -2
   2  -8  -3 200.878 26.7787   1
  -1  -7 -12 65.2870 20.7823  -2
   1  -8  -3 65.2870 20.7823   1
   0  -8  -3 445.433 15.5903   1
   0  -8  -3 438.053 15.9594   2
  -1  -8  -3 672.916 13.4752   2
  -1  -8  -3 697.236 25.9242   1
  -2  -8  -3 77.4192 14.5729   1
  -2  -8  -3 79.1790 7.26188   2
   2   8   3 109.347 28.3320   2
   3  -6 -11 280.202 26.1732  -2
  -3  -8  -3 280.202 26.1732   1
   2  -9  -3 214.392 23.1724   1
   2  -9  -3 194.722 26.0755   2
   1  -9  -3 11.3081 12.1752   1
   1  -9  -3 23.9220 13.6962   2
   0  -9  -3 191.452 18.0249   2
   0  -9  -3 216.134 23.4569   1
  -1  -9  -3 63.2257 10.1957   2
   1  -7 -13 240.502 45.9275  -2
  -1  -9  -3 240.502 45.9275   1
  -1  -9  -3 97.0110 14.0260   1
   2  -7 -13 161.064 23.1097  -2
  -2  -9  -3 161.064 23.1097   1
  -2  -8   4 39.3138 15.0633   2
  -2  -8   4 22.9953 22.6014   1
  -1  -8   4 17.1040 12.7344   1
  -1  -8   4 31.9168 9.95759   2
   0  -5 -17 107.676 27.4805  -2
   0  -8   4 107.676 27.4805   1
  -1  -5 -17 612.658 31.1425  -2
   1  -8   4 612.658 31.1425   1
   2  -8   4 0.81019 10.9287   2
   2  -8   4 -2.0170 11.4312   1
   3  -8   4 19.7669 19.5662   1
   3  -8   4 -2.6915 20.5098   2
  -3  -7   4 92.6599 27.7452   1
  -3  -7   4 106.813 15.0741   2
  -2  -7   4 163.197 28.8717   1
  -2  -7   4 198.797 16.2146   2
   1  -4 -15 68.9147 23.3783  -2
  -1  -7   4 68.9147 23.3783   1
   0  -4 -15 204.711 24.1150  -2
   0  -7   4 204.711 24.1150   1
   1  -7   4 45.3049 9.87026   2
   1  -7   4 35.8503 10.9906   1
   2  -7   4 189.328 17.5718   2
   2  -7   4 171.777 17.4014   1
   3  -7   4 2.81108 12.0896   1
   3  -7   4 7.72280 11.3851   2
  -4  -5 -16 255.527 27.5653  -2
   4  -7   4 255.527 27.5653   1
   4   6  -4 130.266 41.1210   2
  -4  -6   4 82.6760 15.3629   2
  -4  -6   4 32.1508 27.9599   1
   3   6  -4 43.2181 32.6838   2
  -3  -6   4 3.89607 9.39760   2
  -3  -6   4 14.4945 20.5832   1
   2  -3 -13 340.334 26.9528  -2
  -2  -6   4 340.334 26.9528   1
  -1   3  13 545.621 37.6770  -2
   1   6  -4 545.621 37.6770   1
   1  -3 -13 573.474 28.4936  -2
  -1  -6   4 573.474 28.4936   1
   0  -6   4 554.605 23.8178   1
   0  -6   4 580.542 17.6510   2
   1  -6   4 243.585 16.5058   2
   1  -6   4 222.332 16.2543   1
   2  -6   4 216.727 17.1518   1
   2  -6   4 184.776 21.9022   2
  -3  -4 -14 750.002 30.5736  -2
   3  -6   4 750.002 30.5736   1
   4  -6   4 103.647 16.5185   1
   4  -6   4 125.427 20.1634   2
   5  -6   4 53.4898 17.1095   1
   5  -6   4 26.2369 27.2230   2
   5   5  -4 174.957 50.8482   2
   5   5  -4 87.9562 32.6206   1
  -5  -5   4 83.3559 18.3761   2
  -5  -5   4 111.446 36.7261   1
   4   5  -4 17.0291 35.0477   2
   4   5  -4 18.4566 22.0562   1
  -4  -5   4 60.4130 13.6853   2
  -4  -5   4 39.3962 24.6716   1
  -3   2  11 219.412 34.3408  -2
   3   5  -4 219.412 34.3408   1
   3  -2 -11 212.937 33.2952  -2
  -3  -5   4 212.937 33.2952   1
   2   5  -4 427.677 42.9229   2
   2   5  -4 414.968 34.2990   1
  -2  -5   4 446.399 16.2478   2
  -2  -5   4 412.782 23.5711   1
   1   5  -4 169.933 14.1094   1
   1   5  -4 125.653 24.2543   2
  -1  -5   4 147.690 9.96459   2
  -1  -5   4 139.198 13.4500   1
   0   5  -4 57.4110 9.11043   1
   0  -5   4 65.4117 7.78001   2
   0  -5   4 60.8292 9.87155   1
  -1   5  -4 73.7095 10.9476   1
  -1  -3 -12 378.331 23.5316  -2
   1  -5   4 378.331 23.5316   1
  -2  -3 -12 198.492 20.1253  -2
   2  -5   4 198.492 20.1253   1
  -3   5  -4 208.237 21.3832   2
   3  -5   4 149.633 16.8564   2
   3  -5   4 186.208 16.8277   1
  -4   5  -4 158.005 29.4801   1
   4  -5   4 127.420 19.5133   2
   4  -5   4 126.464 17.1510   1
  -5   5  -4 18.6629 24.7615   1
   5  -5   4 -9.7358 13.0631   1
   5  -5   4 17.5810 24.4195   2
   5   4  -4 51.9871 26.8427   1
  -5  -4   4 50.8186 16.1261   2
  -5  -4   4 88.1039 30.5583   1
  -4   1   9 464.286 42.5402  -2
   4   4  -4 464.286 42.5402   1
   4  -1  -9 385.857 42.9967  -2
  -4  -4   4 385.857 42.9967   1
   3   4  -4 69.3366 21.4346   1
  -3  -4   4 62.5110 20.4781   1
  -3  -4   4 113.153 13.5285   2
   2   4  -4 489.036 31.9090   1
  -2  -4   4 468.648 22.1973   1
  -2  -4   4 495.684 19.1698   2
   1   4  -4 266.079 22.6072   1
   1   4  -4 269.700 17.9646   2
  -1  -4   4 275.413 9.92015   2
  -1  -4   4 209.880 13.8447   1
   0   2  10 238.376 15.1531  -2
   0   4  -4 238.376 15.1531   1
   0  -2 -10 257.157 17.4722  -2
   0  -4   4 257.157 17.4722   1
   1   2  10 2557.31 33.0195  -2
  -1   4  -4 2557.31 33.0195   1
  -1  -2 -10 2333.97 38.7118  -2
   1  -4   4 2333.97 38.7118   1
  -2   4  -4 217.431 20.2009   1
  -2   4  -4 197.969 12.6819   2
   2  -4   4 184.830 9.68250   1
   2  -4   4 197.921 14.9087   2
  -3   4  -4 24.5136 17.2527   1
  -3   4  -4 67.5709 8.19581   2
   3  -4   4 48.6777 10.5895   2
   3  -4   4 47.9146 11.4131   1
  -4   4  -4 1582.68 63.4498   1
  -4   4  -4 1793.69 39.9876   2
   4  -4   4 1585.18 41.3127   1
   4  -4   4 1611.15 64.7754   2
   5   3  11 408.040 44.6993  -2
  -5   4  -4 408.040 44.6993   1
  -5  -3 -11 317.816 26.1395  -2
   5  -4   4 317.816 26.1395   1
  -6   4  -4 328.584 45.9026   1
   6  -4   4 267.608 37.6804   1
   6  -4   4 234.465 40.6079   2
  -5   0   7 89.8877 34.4713  -2
   5   3  -4 89.8877 34.4713   1
   5   0  -7 31.1133 41.4833  -2
  -5  -3   4 31.1133 41.4833   1
   4   3  -4 383.849 37.3676   1
  -4  -3   4 351.442 23.0497   2
  -4  -3   4 312.705 36.2153   1
   3   3  -4 483.627 35.0211   1
   3   3  -4 656.968 36.2096   2
  -3  -3   4 538.778 37.2930   1
  -3  -3   4 547.894 23.1019   2
   2   3  -4 274.860 15.7496   2
   2   3  -4 233.510 16.3347   1
  -2  -3   4 243.390 15.9567   1
  -2  -3   4 266.649 14.8441   2
  -1   1   8 944.532 34.7700  -2
   1   3  -4 944.532 34.7700   1
   1  -1  -8 894.086 23.2200  -2
  -1  -3   4 894.086 23.2200   1
   0   3  -4 211.396 9.69488   1
   0  -3   4 217.945 6.96900   2
   0  -3   4 216.485 11.5476   1
  -1   3  -4 3921.45 31.7988   2
  -1   3  -4 3841.36 37.4122   1
   1  -3   4 3410.27 42.3960   1
   1  -3   4 3698.76 30.3894   2
  -2   3  -4 147.379 8.79356   2
  -2   3  -4 135.980 15.9579   1
   2  -3   4 122.221 11.9461   2
   2  -3   4 127.136 6.60911   1
  -3   3  -4 15.7333 6.83655   2
  -3   3  -4 21.1753 9.80031   1
   3  -3   4 17.3235 10.0147   1
   3  -3   4 17.9863 9.53698   2
   4   2   9 1184.67 56.0661  -2
  -4   3  -4 1184.67 56.0661   1
  -4  -2  -9 1122.42 36.4431  -2
   4  -3   4 1122.42 36.4431   1
  -5   3  -4 567.678 50.7780   1
  -5   3  -4 451.782 28.6353   2
   5  -3   4 515.020 29.9480   1
   5  -3   4 397.484 41.2090   2
  -6   3  -4 -22.724 25.7654   1
  -6   3  -4 24.2155 17.4170   2
   6  -3   4 2.35448 20.6205   1
   6  -3   4 17.8998 26.1868   2
  -6  -1   5 99.6161 38.7063  -2
   6   2  -4 99.6161 38.7063   1
   5   2  -4 70.1774 24.8271   1
  -5  -2   4 37.4618 25.4810   1
  -5  -2   4 65.2703 24.0226   2
   4   2  -4 630.976 43.0103   1
   4   2  -4 673.010 41.5266   2
  -4  -2   4 632.780 45.1576   1
  -4  -2   4 767.854 30.1443   2
   3   2  -4 1862.32 55.0943   2
   3   2  -4 1781.49 39.0185   1
  -3  -2   4 1727.04 57.0945   1
  -3  -2   4 1781.93 37.0214   2
  -2   0   6 678.784 21.1615  -2
   2   2  -4 678.784 21.1615   1
   2   0  -6 668.840 21.1251  -2
  -2  -2   4 668.840 21.1251   1
   1   2  -4 467.743 15.0602   1
   1   2  -4 478.029 13.4089   2
  -1  -2   4 467.385 14.9795   1
  -1  -2   4 476.727 11.7036   2
   0   2  -4 970.160 14.5356   2
   0   2  -4 869.638 17.6562   1
   0  -2   4 860.272 18.1736   1
   0  -2   4 914.762 13.5458   2
  -1   2  -4 430.400 9.96121   2
  -1   2  -4 434.124 20.5039   1
   1  -2   4 461.984 10.1797   2
   1  -2   4 423.163 13.9950   1
  -2   2  -4 1715.81 26.3738   2
  -2   2  -4 1627.10 41.6486   1
   2  -2   4 1669.99 31.1753   2
  -2  -1  -7 1556.03 41.3906  -2
   2  -2   4 1556.03 41.3906   1
   2  -2   4 1556.66 42.5133   1
   3   1   7 398.027 24.3471  -2
  -3   2  -4 398.027 24.3471   1
  -3  -1  -7 391.464 20.5892  -2
   3  -2   4 391.464 20.5892   1
  -4   2  -4 84.7865 15.3016   1
  -4   2  -4 57.8613 13.9338   2
   4  -2   4 84.5370 14.8277   2
   4  -2   4 86.3521 12.7779   1
  -5   2  -4 44.4167 15.6620   2
  -5   2  -4 79.8975 25.2827   1
   5  -2   4 31.7766 14.3443   1
   5  -2   4 43.8752 23.3648   2
  -6   2  -4 1.50057 15.2191   2
  -6   2  -4 53.3203 28.0648   1
   6  -2   4 11.4155 20.3328   1
   6  -2   4 -1.9200 23.2682   2
   6   1  -4 32.7324 27.5899   1
  -6  -1   4 88.6228 29.3479   2
   5   1  -4 162.442 29.2284   1
   5   1  -4 140.596 30.0981   2
  -5  -1   4 102.028 25.4247   2
  -5  -1   4 147.088 31.1059   1
   4   1  -4 155.560 17.4120   1
   4   1  -4 193.306 28.2716   2
  -4  -1   4 159.724 14.5733   2
  -4  -1   4 170.588 26.6708   1
  -3  -1   4 1547.56 34.7473  -2
   3   1  -4 1547.56 34.7473   1
   3   1  -4 1513.20 49.7812  -2
  -3  -1   4 1513.20 49.7812   1
   2   1  -4 924.278 22.5513   1
   2   1  -4 915.451 32.1311   2
  -2  -1   4 948.355 22.7503   2
  -2  -1   4 883.918 21.5205   1
   1   1  -4 217.122 14.0079   2
   1   1  -4 192.156 10.0003   1
  -1  -1   4 178.279 9.59379   2
  -1  -1   4 199.892 10.1373   1
   0   1  -4 1497.95 19.3528   2
   0   1  -4 1476.35 21.6507   1
   0  -1   4 1531.41 16.6519   2
   0  -1   4 1349.40 13.9210   1
  -1   1  -4 1162.19 23.2714   2
   1   0   5 3683.65 40.0738  -2
  -1   1  -4 3683.65 40.0738   1
  -1   0  -5 3680.00 55.7815  -2
   1  -1   4 3680.00 55.7815   1
   1  -1   4 1186.09 31.8493   1
  -2   1  -4 266.214 20.0063   1
  -2   1  -4 284.775 16.5935   2
   2   0   5 380.183 25.0590  -2
  -2   1  -4 380.183 25.0590   1
   2  -1   4 264.188 16.6768   2
  -2   0  -5 342.494 22.9064  -2
   2  -1   4 342.494 22.9064   1
   2  -1   4 251.946 14.6708   1
  -3   1  -4 335.505 15.5219   2
  -3   1  -4 345.647 19.5390   1
   3  -1   4 351.825 14.5645   2
   3  -1   4 372.483 16.5108   1
  -4   1  -4 1220.16 29.1879   2
  -4   1  -4 1214.34 36.5487   1
   4  -1   4 1256.35 26.1451   1
   4  -1   4 1242.88 36.3708   2
  -5   1  -4 29.5720 10.8688   2
  -5   1  -4 30.3255 15.1403   1
   5  -1   4 43.1544 15.8182   2
   5  -1   4 21.2670 11.5575   1
   6   1   6 23.8474 38.1095  -2
  -6   1  -4 23.8474 38.1095   1
  -6  -1  -6 28.8438 15.7714  -2
   6  -1   4 28.8438 15.7714   1
   6   0  -4 244.529 42.5016   2
   6   0  -4 235.703 37.5294   1
  -6   0   4 190.441 35.2125   2
  -5  -2   2 163.125 31.3807  -2
   5   0  -4 163.125 31.3807   1
  -4  -2   2 1706.19 42.3207  -2
   4   0  -4 1706.19 42.3207   1
   4   2  -2 1681.47 62.5944  -2
  -4   0   4 1681.47 62.5944   1
   3   0  -4 98.9649 12.1075   2
   3   0  -4 97.7483 10.3463   1
  -3   0   4 101.376 10.2103   2
  -3   0   4 91.5388 17.5789   1
   2   0  -4 356.005 12.0227   1
   2   0  -4 376.646 15.3664   2
  -2   0   4 419.586 22.3338   1
  -2   0   4 393.295 12.8937   2
   1   0  -4 2227.50 23.9039   2
   1   0  -4 2166.33 27.0677   1
  -1   0   4 2283.05 29.1718   2
  -1   0   4 2040.89 36.3384   1
   0  -1   3 1424.90 15.3194  -2
   0   0  -4 1424.90 15.3194   1
   0   0  -4 22.9098 6.48674   2
   0   1  -3 1454.68 27.5018  -2
   0   0   4 1454.68 27.5018   1
  -1   0  -4 471.561 8.78059   1
  -1   0  -4 485.034 13.0865   2
   1   0   4 462.556 7.71253   1
   1   0   4 493.837 10.1268   2
  -2   0  -4 1518.27 22.7558   2
  -2   0  -4 1469.48 20.9133   1
   2   0   4 1470.18 22.7125   1
   2   0   4 1559.47 21.9970   2
  -3   0  -4 123.671 9.82993   1
  -3   0  -4 138.090 9.54897   2
   3   0   4 126.958 9.37059   1
   3   0   4 131.066 10.2916   2
  -4   0  -4 333.923 23.6280   2
  -4   0  -4 349.890 23.5762   1
   4   0   4 315.155 23.2572   1
   4   0   4 341.053 22.9916   2
  -4   0  -4 599.574 41.8522  -2
   4   0   4 599.574 41.8522   1
   5   0   4 615.522 36.2993  -2
  -5   0  -4 615.522 36.2993   1
  -5   0  -4 591.755 32.8859  -2
   5   0   4 591.755 32.8859   1
  -6   0  -4 150.012 24.0309   1
  -6   0  -4 134.185 17.2142   2
   6   0   4 135.604 23.1491   2
   6   0   4 127.916 17.6236   1
  -6  -3   0 550.747 50.2385  -2
   6  -1  -4 550.747 50.2385   1
   6   3   0 773.790 84.6786  -2
  -6   1   4 773.790 84.6786   1
  -5  -3   0 255.671 30.7221  -2
   5  -1  -4 255.671 30.7221   1
   5   3   0 115.833 59.8205  -2
  -5   1   4 115.833 59.8205   1
   4  -1  -4 26.5728 12.3516   1
   4  -1  -4 32.0068 20.7875   2
  -4   1   4 42.6024 19.4240   2
   3  -1  -4 108.039 12.6164   2
   3  -1  -4 108.419 9.55721   1
  -3   1   4 120.825 13.2573   2
  -3   1   4 105.988 17.9700   1
   2  -1  -4 196.406 7.86990   1
   2  -1  -4 186.999 11.5569   2
  -2   1   4 202.270 12.7650   2
  -2   1   4 177.652 15.3143   1
  -1  -2   1 2737.46 22.3458  -2
   1  -1  -4 2737.46 22.3458   1
   1   2  -1 2821.35 40.3643  -2
  -1   1   4 2821.35 40.3643   1
   0  -1  -4 1091.72 9.70441   2
   0  -1  -4 1061.57 9.41551   1
   0   1   4 1056.78 12.3278   1
   0   1   4 1128.74 15.1330   2
  -1  -1  -4 2672.33 18.7237   2
  -1  -1  -4 2571.90 22.8389   1
   1   1   4 2585.94 22.2011   1
   1   1   4 2762.76 30.9600   2
  -2  -1  -4 481.141 9.68309   2
  -2  -1  -4 455.486 15.3460   1
   2   1   4 502.582 17.3641   2
   2   1   4 494.872 11.9049   1
  -3  -1  -4 1393.80 32.6220   2
   3  -1   2 1288.22 50.3519  -2
  -3  -1  -4 1288.22 50.3519   1
  -3  -1  -4 1275.98 39.2634   1
  -3   1  -2 1350.30 47.2616  -2
   3   1   4 1350.30 47.2616   1
   3   1   4 1328.55 32.2984   1
   4  -1   2 1232.25 58.9858  -2
  -4  -1  -4 1232.25 58.9858   1
  -4   1  -2 1249.17 41.0027  -2
   4   1   4 1249.17 41.0027   1
  -5  -1  -4 25.6931 11.7850   2
  -5  -1  -4 11.5713 20.6930   1
   5   1   4 18.3491 14.8333   1
   5   1   4 20.2965 15.0907   2
  -6  -1  -4 180.286 25.1450   1
  -6  -1  -4 214.219 25.4744   2
   6   1   4 210.053 39.8107   2
   6   1   4 177.117 23.7998   1
  -6  -4  -2 183.662 38.1335  -2
   6  -2  -4 183.662 38.1335   1
   6   4   2 341.756 74.8479  -2
  -6   2   4 341.756 74.8479   1
   5  -2  -4 276.738 23.5890   1
   5  -2  -4 238.025 35.3526   2
  -5   2   4 228.296 39.6206   1
  -5   2   4 202.887 32.3370   2
   4  -2  -4 29.8368 12.1615   1
   4  -2  -4 29.8781 20.5298   2
  -4   2   4 46.0946 28.5981   1
  -4   2   4 48.6665 21.2999   2
   3  -2  -4 268.552 14.8480   1
   3  -2  -4 232.936 16.5101   2
  -3  -3  -1 543.304 34.1190  -2
   3  -2  -4 543.304 34.1190   1
  -3   2   4 354.640 30.5375   2
  -3   2   4 294.570 35.7498   1
  -2  -3  -1 1268.14 17.3407  -2
   2  -2  -4 1268.14 17.3407   1
   2   3   1 1334.06 26.5177  -2
  -2   2   4 1334.06 26.5177   1
   1  -2  -4 1706.87 19.7873   2
   1  -2  -4 1708.24 12.2072   1
  -1   2   4 1819.65 26.2694   2
  -1   2   4 1765.83 44.5369   1
   0  -2  -4 1004.85 12.8620   1
   0  -2  -4 1088.73 9.36635   2
   0   2   4 1163.23 16.2403   2
   0   2   4 1084.73 14.9370   1
  -1  -2  -4 1930.78 17.5701   1
  -1  -2  -4 2073.75 15.2324   2
   1   2   4 2037.11 25.0595   1
   1   2   4 2132.35 44.7275   2
   2  -2   0 765.222 21.0683  -2
  -2  -2  -4 765.222 21.0683   1
  -2   2   0 846.713 31.9663  -2
   2   2   4 846.713 31.9663   1
   3  -2   0 2525.07 44.2431  -2
  -3  -2  -4 2525.07 44.2431   1
  -3  -2  -4 2590.26 32.8672   2
   3   2   4 2511.73 42.2764   1
  -3   2   0 2669.06 64.9350  -2
   3   2   4 2669.06 64.9350   1
  -4  -2  -4 69.3525 14.2211   2
  -4  -2  -4 20.4215 19.3119   1
   4   2   4 54.9140 14.4539   2
   4   2   4 43.7747 14.4288   1
  -5  -2  -4 314.393 36.5410   1
  -5  -2  -4 436.915 28.4347   2
   5   2   4 324.786 24.7717   1
   5   2   4 346.327 42.5627   2
  -6  -2  -4 68.6036 26.2369   2
  -6  -2  -4 71.3210 30.7893   1
   6   2   4 64.1673 30.3497   2
   6   2   4 59.8539 18.3487   1
   6  -3  -4 151.393 37.9179   2
   6  -3  -4 139.457 21.8606   1
  -6   3   4 76.2880 38.6842   1
  -6   3   4 157.015 39.7248   2
   5  -3  -4 18.9938 23.3439   2
   5  -3  -4 27.2054 13.5048   1
  -5   3   4 -1.0461 27.0303   1
  -5   3   4 -10.398 20.5285   2
  -4  -4  -3 416.956 28.9739  -2
   4  -3  -4 416.956 28.9739   1
   4   4   3 352.191 56.9807  -2
  -4   3   4 352.191 56.9807   1
  -3  -4  -3 318.718 15.4315  -2
   3  -3  -4 318.718 15.4315   1
   3   4   3 262.259 43.7964  -2
  -3   3   4 262.259 43.7964   1
   2  -3  -4 250.143 8.12932   1
   2  -3  -4 285.228 12.6028   2
  -2   3   4 252.026 14.7766   2
  -2   3   4 269.166 27.9290   1
   1  -3  -4 431.626 6.72922   1
   1  -3  -4 418.556 10.3895   2
  -1   3   4 450.178 27.1291   1
  -1   3   4 431.812 11.2250   2
   0  -3  -4 34.5180 1.99684   2
   0  -3  -4 31.3507 3.00311   1
   0   3   4 34.3941 8.14473   2
   0   3   4 29.1216 7.80426   1
   1  -3  -2 1291.58 16.8669  -2
  -1  -3  -4 1291.58 16.8669   1
  -1   3   2 1365.72 21.7518  -2
   1   3   4 1365.72 21.7518   1
  -2  -3  -4 1042.64 14.8472   2
  -2  -3  -4 982.656 19.3018   1
   2   3   4 1049.22 23.3183   1
   2   3   4 1066.10 42.6312   2
  -3  -3  -4 440.750 14.6238   2
  -3  -3  -4 389.135 20.8215   1
   3   3   4 444.391 37.4890   2
   3   3   4 439.400 30.0354   1
  -4  -3  -4 23.4847 12.5764   1
  -4  -3  -4 53.5782 12.9975   2
   4   3   4 44.1387 20.2987   1
   4   3   4 26.0272 23.5530   2
   5  -2  -1 270.588 53.9009  -2
  -5  -3  -4 270.588 53.9009   1
  -5   2   1 408.698 52.0795  -2
   5   3   4 408.698 52.0795   1
   6  -2  -1 28.7768 48.5555  -2
  -6  -3  -4 28.7768 48.5555   1
  -6   2   1 -15.467 38.9900  -2
   6   3   4 -15.467 38.9900   1
  -5  -5  -5 140.089 28.1842  -2
   5  -4  -4 140.089 28.1842   1
   5   5   5 121.094 52.6225  -2
  -5   4   4 121.094 52.6225   1
  -4  -5  -5 160.576 24.0442  -2
   4  -4  -4 160.576 24.0442   1
   4   5   5 170.175 51.7495  -2
  -4   4   4 170.175 51.7495   1
   3  -4  -4 151.155 15.7883   2
   3  -4  -4 195.889 10.5620   1
  -3   4   4 181.953 30.4858   1
  -3   4   4 200.435 24.8458   2
   2  -4  -4 27.7845 4.21826   1
   2  -4  -4 42.4829 9.12288   2
  -2   4   4 24.8472 8.75606   2
  -2   4   4 46.9852 19.9704   1
   1  -4  -4 298.893 5.48154   1
   1  -4  -4 306.909 8.94160   2
  -1   4   4 354.378 9.98914   2
  -1   4   4 344.736 25.5545   1
   0  -4  -4 2045.84 22.1680  -2
   0  -4  -4 2045.84 22.1680   1
   0   4   4 2288.44 48.3017  -2
   0   4   4 2288.44 48.3017   1
  -1  -4  -4 691.807 11.9578   1
  -1  -4  -4 748.187 8.20572   2
   1   4   4 794.151 33.5360   2
   1   4   4 788.204 17.7647   1
  -2  -4  -4 234.678 7.14547   2
  -2  -4  -4 241.850 12.3080   1
   2   4   4 251.180 14.7809   1
   2   4   4 232.578 26.6397   2
  -3  -4  -4 160.628 10.0090   2
  -3  -4  -4 100.703 13.7382   1
   3   4   4 178.351 29.4417   2
   3   4   4 144.075 14.8791   1
   4  -3  -3 155.933 26.4674  -2
  -4  -4  -4 155.933 26.4674   1
  -4   3   3 209.737 40.1696  -2
   4   4   4 209.737 40.1696   1
   5  -3  -3 423.728 55.6316  -2
  -5  -4  -4 423.728 55.6316   1
  -5   3   3 578.731 55.0403  -2
   5   4   4 578.731 55.0403   1
  -6  -4  -4 360.647 29.6035   2
  -6  -4  -4 245.339 39.6273   1
   6   4   4 252.556 39.2144   1
   6   4   4 388.736 52.3959   2
  -5  -6  -7 235.599 30.9190  -2
   5  -5  -4 235.599 30.9190   1
   5   6   7 318.873 71.3231  -2
  -5   5   4 318.873 71.3231   1
   4  -5  -4 191.105 13.5101   1
   4  -5  -4 197.129 20.0667   2
  -4   5   4 152.777 34.3791   1
   3  -5  -4 145.096 8.39839   1
   3  -5  -4 142.416 15.9324   2
  -3   5   4 111.220 27.7787   1
   2  -5  -4 344.914 8.67873   1
   2  -5  -4 391.809 25.6478   2
  -2   5   4 388.813 36.0134   1
  -1  -5  -6 707.151 16.7775  -2
   1  -5  -4 707.151 16.7775   1
   0  -5  -4 117.492 5.14657   1
   0  -5  -4 111.749 8.59410   2
   0   5   4 111.251 16.6857   2
   0   5   4 123.937 9.65564   1
  -1  -5  -4 240.902 10.7542   1
  -1  -5  -4 238.259 20.6298   2
   1   5   4 311.603 26.9226   2
   1   5   4 298.870 23.4822   1
  -2  -5  -4 363.607 8.11205   2
  -2  -5  -4 349.091 18.6087   1
   2   5   4 423.810 34.9455   2
   2   5   4 343.800 26.2897   1
   3  -4  -5 566.294 28.5442  -2
  -3  -5  -4 566.294 28.5442   1
   4  -4  -5 105.355 27.2989  -2
  -4  -5  -4 105.355 27.2989   1
  -5  -5  -4 68.6813 28.7701   1
  -5  -5  -4 91.4955 16.0882   2
   5   5   4 75.8832 32.8498   2
   5  -6  -4 49.9561 23.6210   1
   5  -6  -4 63.7098 30.1069   2
  -5   6   4 11.6148 32.3298   1
   4  -6  -4 94.8626 16.1269   2
   4  -6  -4 109.639 20.2229   1
  -4   6   4 96.2665 30.5487   1
  -3  -6  -8 15.5793 24.9418  -2
   3  -6  -4 15.5793 24.9418   1
  -2  -6  -8 449.311 13.9627  -2
   2  -6  -4 449.311 13.9627   1
   1  -6  -4 494.536 14.2703   2
   1  -6  -4 498.203 8.57179   1
   0  -6  -4 239.717 6.11830   2
   0  -6  -4 202.904 8.10174   1
   0   6   4 270.188 25.4001   1
  -1  -6  -4 40.4581 14.6107   2
  -1  -6  -4 57.0935 8.99002   1
   1   6   4 51.7984 14.2671   1
   1   6   4 58.6403 18.9621   2
   2  -5  -7 838.062 27.8619  -2
  -2  -6  -4 838.062 27.8619   1
  -3  -6  -4 277.579 20.3589   1
   3   6   4 392.023 41.2155   2
  -4  -6  -4 573.972 30.9020   1
  -4  -6  -4 530.561 23.3351   2
   4   6   4 574.593 54.2020   2
  -5  -6  -4 14.2423 12.4689   2
  -5  -6  -4 49.5993 28.7321   1
   5   6   4 0.56366 29.6822   2
  -4  -7 -10 604.355 43.6568  -2
   4  -7  -4 604.355 43.6568   1
  -3  -7 -10 136.980 27.2484  -2
   3  -7  -4 136.980 27.2484   1
   2  -7  -4 120.350 8.27819   1
   2  -7  -4 143.275 14.6094   2
   1  -7  -4 124.689 11.1696   2
   1  -7  -4 102.431 7.17771   1
   0  -7  -4 3.23425 4.13045   2
   0  -7  -4 12.3049 6.48586   1
   1  -6  -9 81.6306 11.8492  -2
  -1  -7  -4 81.6306 11.8492   1
  -2  -7  -4 53.4597 5.13567   2
  -2  -7  -4 34.6884 10.9581   1
   2   7   4 52.6020 22.4043   2
   2   7   4 66.9288 18.9624   1
  -3  -7  -4 187.430 18.7027   1
  -3  -7  -4 259.585 21.0799   2
   3   7   4 226.058 41.0017   1
   3   7   4 334.940 39.5781   2
  -4  -7  -4 16.9751 15.1527   1
  -4  -7  -4 23.6829 15.6346   2
   4   7   4 45.4409 32.2390   2
   3  -8  -4 10.5815 13.0932   2
   3  -8  -4 34.5542 15.6408   1
   2  -8  -4 261.872 18.8985   2
   2  -8  -4 231.556 19.5916   1
  -1  -7 -11 362.822 25.3201  -2
   1  -8  -4 362.822 25.3201   1
  -1  -8  -4 57.3011 4.74447   2
  -1  -8  -4 66.3554 11.8240   1
  -2  -8  -4 148.829 16.5738   1
  -2  -8  -4 180.008 9.06280   2
   2   8   4 150.198 30.6424   2
  -3  -8  -4 76.2227 15.9135   1
  -3  -8  -4 95.3467 15.1184   2
   3   8   4 103.844 30.2139   2
  -2  -8 -13 297.774 32.6488  -2
   2  -9  -4 297.774 32.6488   1
  -1  -8 -13 151.124 26.2687  -2
   1  -9  -4 151.124 26.2687   1
   0  -9  -4 29.9776 9.59147   1
   0  -9  -4 35.6994 11.3443   2
  -1  -9  -4 6.70571 10.6253   1
  -1  -9  -4 20.8050 5.73859   2
  -2  -9  -4 64.6310 15.4687   1
  -2  -9  -4 44.5427 9.28483   2
   2  -4 -17 28.1810 50.1998  -2
  -2  -8   5 28.1810 50.1998   1
  -1  -8   5 436.002 23.3717   2
  -1  -8   5 389.078 28.1430   1
   0  -8   5 136.837 15.6137   2
   0  -8   5 112.511 17.3235   1
  -1  -5 -18 10.0272 39.7974  -2
   1  -8   5 10.0272 39.7974   1
   1  -8   5 -2.9214 9.77388   2
   1  -8   5 13.1218 17.5102   1
  -2  -5 -18 218.722 25.6363  -2
   2  -8   5 218.722 25.6363   1
   3  -3 -15 262.574 58.2347  -2
  -3  -7   5 262.574 58.2347   1
  -3  -7   5 82.7057 21.7012   2
  -2  -7   5 261.640 18.6263   2
  -2  -7   5 181.099 30.6481   1
  -1  -7   5 139.052 13.8126   2
  -1  -7   5 108.264 16.4348   1
   0  -4 -16 56.9436 24.0316  -2
   0  -7   5 56.9436 24.0316   1
  -1  -4 -16 133.825 21.7371  -2
   1  -7   5 133.825 21.7371   1
   2  -7   5 335.266 23.0436   2
   2  -7   5 263.865 21.8600   1
   3  -7   5 207.660 21.4532   2
   3  -7   5 189.379 20.6965   1
   4  -7   5 -3.3017 14.4262   1
   4  -7   5 -11.463 21.2673   2
   4   6  -5 126.840 44.7826   2
  -4  -6   5 108.331 17.0249   2
  -4  -6   5 131.368 34.0863   1
   3   6  -5 40.3654 34.6683   2
  -3  -6   5 43.3664 12.4537   2
  -3  -6   5 18.0541 20.3817   1
   2   6  -5 49.4291 29.0225   2
  -2  -6   5 34.7756 8.61770   2
  -2  -6   5 60.4520 20.2710   1
   1  -3 -14 379.556 26.3288  -2
  -1  -6   5 379.556 26.3288   1
   0  -3 -14 1286.95 36.8552  -2
   0  -6   5 1286.95 36.8552   1
   1  -6   5 381.339 21.2228   1
   1  -6   5 454.595 21.2180   2
   2  -6   5 464.544 23.8644   1
   2  -6   5 470.194 23.4204   2
   3  -6   5 30.9700 12.0955   1
   3  -6   5 10.9713 11.5883   2
  -4  -4 -15 123.425 21.7835  -2
   4  -6   5 123.425 21.7835   1
   4   5  -5 339.129 41.4380   1
  -4  -5   5 342.651 24.1966   2
  -4  -5   5 296.944 39.9022   1
   3   5  -5 11.8191 19.5412   1
  -3  -5   5 30.3565 19.9215   1
  -3  -5   5 6.15281 9.31445   2
  -2   2  12 115.538 33.9411  -2
   2   5  -5 115.538 33.9411   1
   2  -2 -12 122.114 29.8539  -2
  -2  -5   5 122.114 29.8539   1
  -1   2  12 205.112 35.7092  -2
   1   5  -5 205.112 35.7092   1
   1  -2 -12 226.864 22.9894  -2
  -1  -5   5 226.864 22.9894   1
   0   5  -5 201.009 13.5482   1
   0  -5   5 218.775 12.4676   2
   0  -5   5 202.389 15.5641   1
   1  -5   5 233.169 16.4599   1
   1  -5   5 286.634 13.4100   2
  -2   5  -5 593.608 29.4872   2
   2  -5   5 583.624 24.3740   2
  -2  -3 -13 966.591 47.1661  -2
   2  -5   5 966.591 47.1661   1
   2  -5   5 538.594 36.0922   1
  -3  -3 -13 825.880 30.4607  -2
   3  -5   5 825.880 30.4607   1
   4  -5   5 170.938 30.7666   2
   4  -5   5 199.137 20.2433   1
  -5   5  -5 52.5140 26.2708   1
   5  -5   5 68.5335 17.6778   1
   5  -5   5 77.2911 30.5660   2
   5   4  -5 115.440 32.3622   1
  -5  -4   5 151.475 30.6563   2
  -5  -4   5 154.033 38.0245   1
   4   4  -5 170.362 30.5753   1
  -4  -4   5 121.463 30.1933   1
  -4  -4   5 208.819 19.8860   2
  -3   1  10 430.320 38.5891  -2
   3   4  -5 430.320 38.5891   1
   3  -1 -10 398.003 37.7817  -2
  -3  -4   5 398.003 37.7817   1
   2   4  -5 100.737 19.2009   1
  -2  -4   5 95.5848 9.41703   2
  -2  -4   5 106.294 13.3395   1
   1   4  -5 141.047 24.5889   2
   1   4  -5 101.883 17.3891   1
  -1  -4   5 103.775 8.68325   2
  -1  -4   5 106.305 11.9198   1
   0   4  -5 1372.98 25.4751   1
   0   4  -5 1503.10 28.2014   2
   0  -4   5 1227.17 27.8491   1
   0  -4   5 1402.44 18.4420   2
  -1   4  -5 66.9281 12.2978   2
  -1   4  -5 54.3208 6.91961   1
   1  -4   5 44.9362 10.5537   2
  -1  -2 -11 49.1518 18.1666  -2
   1  -4   5 49.1518 18.1666   1
   2   2  11 569.862 34.3389  -2
  -2   4  -5 569.862 34.3389   1
  -2  -2 -11 457.733 23.3340  -2
   2  -4   5 457.733 23.3340   1
  -3   4  -5 63.0974 8.43089   2
   3  -4   5 41.1170 11.7209   1
   3  -4   5 53.1399 11.8183   2
  -4   4  -5 234.207 18.5023   2
  -4   4  -5 209.638 30.6457   1
   4  -4   5 151.541 29.4851   2
   4  -4   5 202.417 19.5291   1
  -5   4  -5 55.7074 17.2019   2
  -5   4  -5 91.2391 27.1628   1
   5  -4   5 69.5419 16.9509   1
   5  -4   5 100.828 28.5834   2
   5   3  -5 156.234 32.4013   1
  -5  -3   5 141.439 34.5573   1
  -5  -3   5 198.033 33.7547   2
  -4   0   8 358.118 38.2269  -2
   4   3  -5 358.118 38.2269   1
   4   0  -8 294.459 38.2168  -2
  -4  -3   5 294.459 38.2168   1
   3   3  -5 33.5039 17.3227   1
   3   3  -5 110.566 21.4547   2
  -3  -3   5 99.6036 13.6390   2
  -3  -3   5 86.8407 22.0092   1
   2   3  -5 235.603 21.1336   2
   2   3  -5 250.627 23.9232   1
  -2  -3   5 255.142 16.7014   1
  -2  -3   5 248.254 15.0618   2
   1   3  -5 516.118 18.6659   1
   1   3  -5 544.898 22.8899   2
  -1  -3   5 446.024 17.5959   1
  -1  -3   5 508.050 11.9150   2
   0   3  -5 312.109 7.37974   2
   0   1   9 1128.32 36.9298  -2
   0   3  -5 1128.32 36.9298   1
   0  -1  -9 1128.01 26.4908  -2
   0  -3   5 1128.01 26.4908   1
  -1   3  -5 441.966 23.8119   1
  -1   3  -5 456.373 21.6426   2
   1   1   9 460.650 14.1124  -2
  -1   3  -5 460.650 14.1124   1
  -1  -1  -9 438.673 19.5153  -2
   1  -3   5 438.673 19.5153   1
  -2   3  -5 9.02141 10.7641   1
  -2   3  -5 21.2438 5.35667   2
   2  -3   5 15.4379 3.85502   1
   2  -3   5 12.7907 6.95251   2
  -3   3  -5 675.641 25.4643   1
  -3   3  -5 718.725 18.9126   2
   3  -3   5 615.158 24.9704   1
   3  -3   5 622.845 25.3364   2
  -4   3  -5 76.7582 10.6156   2
  -4   3  -5 61.2167 20.7621   1
   4  -3   5 29.8438 12.4344   1
   4  -3   5 84.2059 25.4126   2
   5   2  10 311.783 39.1768  -2
  -5   3  -5 311.783 39.1768   1
  -5  -2 -10 242.977 24.9320  -2
   5  -3   5 242.977 24.9320   1
  -6   3  -5 287.146 42.3836   1
  -6   3  -5 319.902 28.0235   2
   6  -3   5 229.286 39.7481   2
   6  -3   5 228.208 35.3128   1
  -6  -1   6 657.845 73.4962  -2
   6   2  -5 657.845 73.4962   1
  -5  -1   6 152.429 36.1931  -2
   5   2  -5 152.429 36.1931   1
   5   1  -6 164.067 45.5677  -2
  -5  -2   5 164.067 45.5677   1
   4   2  -5 221.770 29.8641   1
   4   2  -5 198.664 29.3370   2
  -4  -2   5 252.218 20.5704   2
  -4  -2   5 210.783 30.8251   1
   3   2  -5 113.043 13.6580   1
   3   2  -5 115.475 20.2974   2
  -3  -2   5 127.294 13.8084   2
  -3  -2   5 119.138 21.8621   1
   2   2  -5 70.7970 9.27057   1
   2   2  -5 77.9100 13.9049   2
  -2  -2   5 92.4439 10.2785   2
  -2  -2   5 89.2815 11.2719   1
  -1   0   7 1091.12 24.4330  -2
   1   2  -5 1091.12 24.4330   1
   1   0  -7 1073.88 24.0592  -2
  -1  -2   5 1073.88 24.0592   1
   0   2  -5 47.6443 6.64356   2
   0   2  -5 39.8692 5.93209   1
   0  -2   5 41.2108 6.19460   1
   0  -2   5 38.5121 4.55048   2
  -1   2  -5 1494.64 20.9534   2
  -1   2  -5 1507.73 38.6883   1
   1  -2   5 1519.53 18.7288   2
   1  -2   5 1347.64 25.5756   1
  -2   2  -5 1455.86 18.7242   2
  -2   2  -5 1501.27 29.2583   1
   2  -2   5 1451.19 17.6024   1
   2  -2   5 1516.50 30.1728   2
  -3   2  -5 99.1959 12.6093   1
  -3   2  -5 81.0911 8.80391   2
   3  -2   5 91.6124 8.65666   2
   3  -2   5 58.0673 9.38142   1
   4   1   8 327.689 27.1841  -2
  -4   2  -5 327.689 27.1841   1
  -4  -1  -8 348.056 22.1153  -2
   4  -2   5 348.056 22.1153   1
  -5   2  -5 80.1958 17.3293   2
  -5   2  -5 108.371 26.1336   1
   5  -2   5 49.3402 23.0121   2
   5  -2   5 63.1288 16.3447   1
  -6   2  -5 15.4281 15.4020   2
  -6   2  -5 -13.433 24.1522   1
   6  -2   5 -0.3832 22.9477   2
   6  -2   5 20.8030 21.0506   1
  -6  -2   4 110.825 39.8719  -2
   6   1  -5 110.825 39.8719   1
   5   1  -5 144.673 32.2818   2
   5   1  -5 138.552 29.7408   1
  -5  -1   5 116.408 27.4902   2
   4   1  -5 27.6709 13.0602   1
   4   1  -5 0.77797 18.7192   2
  -4  -1   5 24.5287 20.3042   1
  -4  -1   5 6.81204 15.8157   2
   3   1  -5 133.780 13.9912   1
   3   1  -5 135.306 20.4960   2
  -3  -1   5 160.494 22.8729   1
  -3  -1   5 173.770 15.1542   2
  -2  -1   5 1772.71 32.0789  -2
   2   1  -5 1772.71 32.0789   1
   2   1  -5 1650.88 44.1115  -2
  -2  -1   5 1650.88 44.1115   1
   1   1  -5 358.943 13.2071   1
   1   1  -5 317.508 12.1743   2
  -1  -1   5 358.734 12.9486   2
  -1  -1   5 355.744 13.0037   1
   0   1  -5 145.142 5.99747   2
   0   1  -5 149.526 9.04146   1
   0  -1   5 164.821 6.49807   2
   0  -1   5 131.523 7.98495   1
  -1   1  -5 74.7609 6.75721   2
  -1   1  -5 80.1092 7.64163   1
   1  -1   5 62.0958 6.61123   2
   1  -1   5 76.1933 7.64103   1
  -2   1  -5 346.873 14.8187   1
  -2   1  -5 324.662 10.0901   2
   2  -1   5 320.993 14.8125   2
   2  -1   5 302.580 12.6614   1
   3   0   6 983.224 29.9507  -2
  -3   1  -5 983.224 29.9507   1
  -3   0  -6 887.245 24.7211  -2
   3  -1   5 887.245 24.7211   1
  -4   1  -5 20.2900 13.0208   1
  -4   1  -5 39.5630 13.6594   2
   4  -1   5 16.7474 12.0056   2
   4  -1   5 23.8648 10.9150   1
  -5   1  -5 9.44927 14.1974   1
  -5   1  -5 6.81968 12.9429   2
   5  -1   5 23.3279 13.7082   1
   5  -1   5 5.81808 13.6987   2
  -6   1  -5 559.566 35.0605   2
  -6   1  -5 516.389 47.8077   1
   6  -1   5 511.614 34.6231   1
   6  -1   5 541.204 51.7269   2
   6   0  -5 239.288 42.7593   2
   6   0  -5 272.559 41.8375   1
  -6   0   5 259.173 39.7864   2
   5   0  -5 74.3256 27.1602   2
   5   0  -5 58.2436 18.2020   1
  -5   0   5 32.8959 22.1031   2
   4   0  -5 414.294 38.6547   2
   4   0  -5 477.064 22.5475   1
  -4   0   5 453.663 26.2073   2
  -4   0   5 444.337 35.7516   1
  -3  -2   3 556.979 22.9479  -2
   3   0  -5 556.979 22.9479   1
   3   2  -3 597.474 35.8368  -2
  -3   0   5 597.474 35.8368   1
   2   0  -5 892.521 17.7226   1
   2   0  -5 916.196 18.2852   2
  -2   0   5 991.668 23.7259   2
  -2   0   5 963.579 32.3520   1
   1   0  -5 109.325 7.39932   2
   1   0  -5 104.170 7.34158   1
  -1   0   5 105.171 11.1825   1
  -1   0   5 116.004 12.8518   2
   0   0  -5 148.233 8.81946   2
   0   0  -5 146.955 6.36536   1
   0   0   5 166.906 8.77120   2
   0   0   5 148.918 7.12259   1
  -1   0  -5 2399.56 45.1575   2
   1  -1   4 3567.78 39.6574  -2
  -1   0  -5 3567.78 39.6574   1
   1   0   5 2347.35 32.7478   1
  -1   1  -4 3611.32 32.3155  -2
   1   0   5 3611.32 32.3155   1
   2  -1   4 296.055 16.3802  -2
  -2   0  -5 296.055 16.3802   1
  -2   0  -5 67.1678 9.80509   2
  -2   0  -5 59.2992 10.3442   1
   2   0   5 84.0100 10.6995   1
   2   0   5 81.5948 8.25881   2
  -2   1  -4 340.507 22.3640  -2
   2   0   5 340.507 22.3640   1
  -3   0  -5 534.828 16.6986   1
  -3   0  -5 578.076 18.8561   2
   3   0   5 609.047 19.6414   1
   3   0   5 576.509 17.3971   2
  -4   0  -5 -0.9145 11.6697   1
  -4   0  -5 11.2364 8.06198   2
   4   0   5 11.4927 12.1435   2
   4   0   5 17.9700 9.09499   1
  -5   0  -5 543.589 24.4351   2
  -5   0  -5 529.454 31.4356   1
   5   0   5 607.967 31.4890   2
   5   0   5 556.877 24.9949   1
   6   0   5 41.1821 21.5353  -2
  -6   0  -5 41.1821 21.5353   1
  -6   0  -5 33.3295 14.3412  -2
   6   0   5 33.3295 14.3412   1
   6  -1  -5 22.8287 30.0193   2
   6  -1  -5 25.6560 24.4730   1
  -6   1   5 7.58952 34.9046   1
  -6   1   5 10.0709 23.8946   2
  -5  -3   1 273.234 32.1604  -2
   5  -1  -5 273.234 32.1604   1
  -4  -3   1 679.388 29.9968  -2
   4  -1  -5 679.388 29.9968   1
   3  -1  -5 147.044 12.1222   1
   3  -1  -5 168.865 14.8888   2
  -3   1   5 148.164 19.9293   1
  -3   1   5 186.985 17.0933   2
   2  -1  -5 76.2724 9.01178   2
   2  -1  -5 82.3385 5.76998   1
  -2   1   5 61.7820 11.7866   1
  -2   1   5 94.5797 7.40347   2
   1  -1  -5 443.911 13.6466   2
   1  -1  -5 422.641 8.88676   1
  -1   1   5 465.523 20.5641   2
  -1   1   5 427.693 15.6969   1
   0  -2   2 9435.33 49.3862  -2
   0  -1  -5 9435.33 49.3862   1
   0   2  -2 9999.99 101.136  -2
   0   1   5 9999.99 101.136   1
  -1  -1  -5 2584.99 23.7767   1
  -1  -1  -5 2608.94 19.0046   2
   1   1   5 2829.50 44.9235   2
   1   1   5 2590.25 23.0057   1
  -2  -1  -5 442.320 15.2749   2
  -2  -1  -5 436.267 15.9214   1
   2   1   5 410.895 13.2158   1
   2   1   5 448.569 16.4113   2
  -3  -1  -5 235.061 11.4789   2
  -3  -1  -5 174.871 13.3386   1
   3   1   5 245.165 17.0577   2
   3   1   5 202.349 10.9282   1
  -4  -1  -5 49.2477 20.9439   1
  -4  -1  -5 18.0002 13.4274   2
   4   1   5 21.1837 12.9584   2
  -4   1  -3 213.334 36.5244  -2
   4   1   5 213.334 36.5244   1
   4   1   5 -22.033 18.3912   1
   5  -1   3 562.341 34.7750  -2
  -5  -1  -5 562.341 34.7750   1
  -5   1  -3 559.527 32.0678  -2
   5   1   5 559.527 32.0678   1
  -6  -1  -5 281.453 27.8312   1
  -6  -1  -5 353.856 25.1492   2
   6   1   5 286.814 22.0401   1
   6   1   5 284.415 42.3083   2
  -6  -4  -1 250.453 37.7361  -2
   6  -2  -5 250.453 37.7361   1
   6   4   1 213.463 67.5793  -2
  -6   2   5 213.463 67.5793   1
  -5  -4  -1 672.915 37.0266  -2
   5  -2  -5 672.915 37.0266   1
   5   4   1 442.957 64.5709  -2
  -5   2   5 442.957 64.5709   1
   4  -2  -5 187.000 17.3234   1
   4  -2  -5 196.202 29.7377   2
  -4   2   5 232.663 38.7300   1
  -4   2   5 237.132 30.5886   2
   3  -2  -5 432.004 20.0536   1
   3  -2  -5 403.923 21.3485   2
  -3   2   5 475.945 33.0624   2
  -3   2   5 387.392 39.2227   1
   2  -2  -5 1618.60 30.7897   2
   2  -2  -5 1549.88 19.5346   1
  -2   2   5 1597.66 28.6724   1
  -2   2   5 1708.98 46.1642   2
  -1  -3   0 265.697 6.02956  -2
   1  -2  -5 265.697 6.02956   1
   1   3   0 266.035 22.8677  -2
  -1   2   5 266.035 22.8677   1
   0  -2  -5 1817.72 13.7377   2
   0  -2  -5 1774.84 12.7032   1
   0   2   5 1907.38 26.0032   1
   0   2   5 1982.02 23.8378   2
  -1  -2  -5 1776.91 15.0757   2
  -1  -2  -5 1707.83 17.0051   1
   1   2   5 1769.39 20.1456   1
   1   2   5 1899.05 30.3333   2
  -2  -2  -5 87.0253 6.24013   2
  -2  -2  -5 95.6132 9.30451   1
   2   2   5 76.4484 8.63385   2
   2   2   5 82.8878 5.89134   1
   3  -2   1 1751.97 38.4403  -2
  -3  -2  -5 1751.97 38.4403   1
  -3  -2  -5 476.107 31.0791   2
   3   2   5 412.705 21.4133   1
  -3   2  -1 1921.25 56.3248  -2
   3   2   5 1921.25 56.3248   1
   4  -2   1 113.361 40.6979  -2
  -4  -2  -5 113.361 40.6979   1
  -4   2  -1 72.9805 32.7636  -2
   4   2   5 72.9805 32.7636   1
  -5  -2  -5 144.270 19.0506   2
  -5  -2  -5 121.490 29.3030   1
   5   2   5 148.084 20.2786   1
   5   2   5 82.9164 28.3279   2
  -6  -2  -5 114.079 31.1774   1
  -6  -2  -5 129.437 29.8766   2
   6   2   5 134.331 22.3632   1
   6   2   5 85.6953 32.8555   2
   6  -3  -5 24.2095 17.5191   1
   6  -3  -5 17.9130 27.8922   2
  -6   3   5 54.0230 37.1124   1
   5  -3  -5 218.976 21.5244   1
   5  -3  -5 174.058 33.0558   2
  -5   3   5 193.165 34.4535   2
  -5   3   5 197.525 39.1939   1
   4  -3  -5 137.185 28.2328   2
   4  -3  -5 126.268 14.7270   1
  -4   3   5 149.527 28.0694   2
  -4   3   5 92.4777 29.8631   1
   3  -3  -5 23.8078 10.6998   2
   3  -3  -5 16.3006 6.30833   1
  -3   3   5 15.4238 23.6109   1
  -2  -4  -2 1515.11 23.2584  -2
   2  -3  -5 1515.11 23.2584   1
   2   4   2 1576.34 57.7337  -2
  -2   3   5 1576.34 57.7337   1
   1  -3  -5 80.3651 3.93261   1
   1  -3  -5 82.4286 6.00306   2
  -1   3   5 95.0974 16.4372   1
  -1   3   5 72.6668 6.38937   2
   0  -3  -5 1956.31 20.6344   1
   0  -3  -5 2066.46 14.9615   2
   0   3   5 2086.08 29.5523   1
   0   3   5 2260.66 42.8616   2
  -1  -3  -5 601.975 7.33418   2
  -1  -3  -5 574.100 10.3088   1
   1   3   5 596.474 27.7247   2
   1   3   5 596.809 14.2657   1
   2  -3  -1 231.214 13.5451  -2
  -2  -3  -5 231.214 13.5451   1
  -2   3   1 221.537 21.2848  -2
   2   3   5 221.537 21.2848   1
  -3  -3  -5 701.247 28.8545   2
   3  -3  -1 885.371 30.8574  -2
  -3  -3  -5 885.371 30.8574   1
  -3   3   1 948.038 45.7651  -2
   3   3   5 948.038 45.7651   1
  -4  -3  -5 25.2090 12.3284   2
  -4  -3  -5 2.16312 10.9647   1
   4   3   5 20.5116 21.7303   2
   4   3   5 33.7255 19.4243   1
  -5  -3  -5 112.154 28.7134   1
  -5  -3  -5 118.251 18.0881   2
   5   3   5 107.051 26.6318   1
   5   3   5 112.385 32.7801   2
   6  -2   0 137.381 62.5452  -2
  -6  -3  -5 137.381 62.5452   1
  -6  -3  -5 24.6078 24.1089   2
   6   3   5 54.7258 32.6779   2
   6   3   5 92.3695 29.3307   1
   5  -4  -5 19.8368 12.7916   1
   5  -4  -5 3.03585 23.0730   2
  -5   4   5 -28.068 25.5396   1
  -4  -5  -4 125.591 24.5762  -2
   4  -4  -5 125.591 24.5762   1
   4   5   4 141.890 56.0846  -2
  -4   4   5 141.890 56.0846   1
  -3  -5  -4 560.501 17.1006  -2
   3  -4  -5 560.501 17.1006   1
   3   5   4 598.396 51.2749  -2
  -3   4   5 598.396 51.2749   1
   2  -4  -5 273.910 7.87859   1
   2  -4  -5 261.857 15.4368   2
  -2   4   5 357.005 33.8389   1
  -2   4   5 286.665 17.2239   2
   1  -4  -5 898.818 15.7930   2
   1  -4  -5 898.198 23.7557   1
  -1   4   5 946.100 37.7133   1
  -1   4   5 1008.15 21.1482   2
   0  -4  -5 386.182 6.19593   2
   0  -4  -5 362.310 7.94590   1
   0   4   5 420.696 21.9636   2
   0   4   5 403.614 22.2071   1
   1  -4  -3 654.855 13.4474  -2
  -1  -4  -5 654.855 13.4474   1
  -1   4   3 734.279 30.0267  -2
   1   4   5 734.279 30.0267   1
  -2  -4  -5 764.624 11.5540   2
  -2  -4  -5 704.395 18.1946   1
   2   4   5 791.468 22.4819   1
   2   4   5 770.755 38.3075   2
  -3  -4  -5 165.691 10.3120   2
  -3  -4  -5 133.698 14.1290   1
   3   4   5 163.543 15.4447   1
   3   4   5 108.268 25.6761   2
  -4  -4  -5 469.526 23.7032   2
  -4  -4  -5 385.625 24.1596   1
   4   4   5 385.723 40.8898   2
   4   4   5 382.546 34.9736   1
   5  -3  -2 70.7887 46.9832  -2
  -5  -4  -5 70.7887 46.9832   1
  -5   3   2 91.8355 50.1142  -2
   5   4   5 91.8355 50.1142   1
   6  -3  -2 592.672 60.9195  -2
  -6  -4  -5 592.672 60.9195   1
  -6   3   2 774.859 65.7792  -2
   6   4   5 774.859 65.7792   1
  -5  -6  -6 140.726 28.7278  -2
   5  -5  -5 140.726 28.7278   1
   5   6   6 151.434 53.9990  -2
  -5   5   5 151.434 53.9990   1
  -4  -6  -6 126.082 23.4563  -2
   4  -5  -5 126.082 23.4563   1
   4   6   6 160.002 55.7334  -2
  -4   5   5 160.002 55.7334   1
   3  -5  -5 206.061 18.0592   2
   3  -5  -5 207.101 10.8397   1
  -3   5   5 302.057 38.0313   1
   2  -5  -5 519.162 8.90651   1
   2  -5  -5 534.617 22.2814   2
  -2   5   5 605.999 40.5568   1
   1  -5  -5 354.564 7.97751   1
   1  -5  -5 366.592 12.2851   2
  -1   5   5 490.601 29.2796   2
  -1   5   5 393.581 31.3135   1
   0  -5  -5 30.7314 2.98251  -2
   0  -5  -5 30.7314 2.98251   1
   0   5   5 21.5788 12.0019  -2
   0   5   5 21.5788 12.0019   1
  -1  -5  -5 198.979 6.86353   2
  -1  -5  -5 161.166 8.93743   1
   1   5   5 184.139 23.4706   2
   1   5   5 160.083 19.3596   1
  -2  -5  -5 54.7551 10.4231   1
  -2  -5  -5 56.4518 4.55784   2
   2   5   5 88.4546 21.1303   2
   2   5   5 49.8249 14.0038   1
  -3  -5  -5 487.100 14.6217   2
  -3  -5  -5 478.284 24.0469   1
   3   5   5 546.925 44.6227   2
   4  -4  -4 122.449 26.5983  -2
  -4  -5  -5 122.449 26.5983   1
   5  -4  -4 242.937 54.0850  -2
  -5  -5  -5 242.937 54.0850   1
   4  -6  -5 526.811 30.3105   2
   4  -6  -5 479.722 34.9156   1
  -4   6   5 551.503 52.5059   1
   3  -6  -5 -2.6359 11.2274   1
   3  -6  -5 3.27019 10.2705   2
  -3   6   5 -18.842 19.5170   1
   2  -6  -5 836.920 40.8329   1
   2  -6  -5 904.107 37.0321   2
  -2  -6  -7 2281.73 25.6096  -2
   2  -6  -5 2281.73 25.6096   1
  -1  -6  -7 9.51038 20.5990  -2
   1  -6  -5 9.51038 20.5990   1
   0  -6  -5 157.195 5.82091   2
   0  -6  -5 146.314 6.60892   1
   0   6   5 159.331 14.6731   1
  -1  -6  -5 448.248 31.1801   2
  -1  -6  -5 417.394 13.9403   1
   1   6   5 473.481 35.7555   2
  -2  -6  -5 302.126 7.30913   2
  -2  -6  -5 273.675 18.2155   1
   2   6   5 333.130 33.9162   2
   3  -5  -6 352.880 26.1380  -2
  -3  -6  -5 352.880 26.1380   1
   4  -5  -6 274.025 31.5919  -2
  -4  -6  -5 274.025 31.5919   1
  -5  -6  -5 74.3166 15.7339   2
  -5  -6  -5 93.4382 32.3407   1
   5   6   5 50.0092 32.5971   2
   4  -7  -5 74.3615 20.5941   1
   4  -7  -5 40.0278 15.9895   2
  -4   7   5 31.7304 30.3380   1
  -3  -7  -9 232.934 28.9635  -2
   3  -7  -5 232.934 28.9635   1
  -2  -7  -9 240.546 12.6324  -2
   2  -7  -5 240.546 12.6324   1
   1  -7  -5 66.7990 5.62605   1
   1  -7  -5 52.6805 9.34208   2
   0  -7  -5 150.479 7.75129   2
   0  -7  -5 123.908 7.74237   1
  -1  -7  -5 65.9414 10.2080   1
  -1  -7  -5 123.331 22.7244   2
   1   7   5 84.5918 16.3894   1
   2  -6  -8 248.067 20.5141  -2
  -2  -7  -5 248.067 20.5141   1
  -3  -7  -5 -1.6964 12.9767   1
   3  -6  -8 -27.658 41.6656  -2
  -3  -7  -5 -27.658 41.6656   1
  -4  -7  -5 41.3743 15.5183   1
  -4  -7  -5 51.1933 15.9519   2
   4   7   5 125.206 35.5907   2
  -3  -8 -11 380.065 34.8066  -2
   3  -8  -5 380.065 34.8066   1
   2  -8  -5 55.6897 12.5829   2
   2  -8  -5 72.0604 11.9478   1
   1  -8  -5 7.59102 7.43977   1
   1  -8  -5 7.26082 11.3857   2
   0  -8  -5 140.814 9.15132   2
   0  -8  -5 157.511 16.9297   1
   1  -7 -10 443.039 21.1449  -2
  -1  -8  -5 443.039 21.1449   1
  -2  -8  -5 13.1414 4.11899   2
  -2  -8  -5 18.3343 10.8137   1
   2   8   5 8.61309 22.4263   2
  -3  -8  -5 9.96874 12.1774   1
  -3  -8  -5 10.7864 11.2259   2
   3   8   5 6.29918 24.6779   2
  -4  -8  -5 18.1477 16.3515   1
  -4  -8  -5 26.4590 15.8924   2
   4   8   5 19.2341 31.3776   2
   2  -9  -5 137.842 17.5822   1
   2  -9  -5 73.7930 20.2474   2
  -1  -8 -12 196.063 26.7477  -2
   1  -9  -5 196.063 26.7477   1
   0  -8 -12 387.879 28.9752  -2
   0  -9  -5 387.879 28.9752   1
  -1  -9  -5 19.3403 5.11518   2
  -1  -9  -5 -7.8534 11.9506   1
  -2  -9  -5 169.348 18.9779   1
  -2  -9  -5 222.759 9.33867   2
   1  -4 -18 473.036 50.9622  -2
  -1  -8   6 473.036 50.9622   1
   0  -8   6 -5.6269 12.5011   1
   0  -8   6 14.7950 10.9562   2
   1  -8   6 376.873 24.9898   2
   1  -8   6 254.348 22.4773   1
   2  -8   6 24.8209 14.6211   1
   2  -8   6 56.2637 15.4090   2
   3  -3 -16 31.4149 42.9955  -2
  -3  -7   6 31.4149 42.9955   1
   2  -3 -16 84.1558 43.7929  -2
  -2  -7   6 84.1558 43.7929   1
  -1  -7   6 149.575 26.2982   1
  -1  -7   6 130.776 14.2248   2
   0  -7   6 145.850 17.6525   1
   0  -7   6 202.483 17.1565   2
   1  -7   6 122.164 15.3266   2
  -1  -4 -17 343.384 41.6883  -2
   1  -7   6 343.384 41.6883   1
   1  -7   6 86.1989 21.8427   1
  -2  -4 -17 188.642 23.5290  -2
   2  -7   6 188.642 23.5290   1
   3  -7   6 71.3039 16.9237   1
   3  -7   6 80.4479 16.9525   2
   4  -2 -14 30.1615 42.2341  -2
  -4  -6   6 30.1615 42.2341   1
   3  -2 -14 188.683 47.9835  -2
  -3  -6   6 188.683 47.9835   1
  -3  -6   6 31.1016 16.1504   2
  -2  -6   6 384.970 38.4201   1
  -2  -6   6 436.607 18.8081   2
  -1  -6   6 356.610 16.2640   2
  -1  -6   6 316.940 22.0499   1
   0  -3 -15 335.257 27.4245  -2
   0  -6   6 335.257 27.4245   1
  -1  -3 -15 242.601 22.8843  -2
   1  -6   6 242.601 22.8843   1
   2  -6   6 13.1871 9.40058   2
   2  -6   6 14.9573 11.3059   1
   3  -6   6 176.844 19.1552   1
   3  -6   6 193.317 19.2651   2
   4  -6   6 186.203 33.5969   2
   4  -6   6 177.331 21.3723   1
   4   5  -6 31.0466 25.4669   1
  -4  -5   6 16.4335 12.6044   2
  -4  -5   6 12.8462 25.3394   1
   3   5  -6 35.8480 21.3510   1
  -3  -5   6 30.7793 9.25147   2
  -3  -5   6 44.4717 21.8766   1
   2   5  -6 450.566 34.8518   1
  -2  -5   6 451.600 17.6918   2
  -2  -5   6 402.068 33.8943   1
  -1   2  13 726.042 44.6613  -2
   1   5  -6 726.042 44.6613   1
   1  -2 -13 650.837 29.6102  -2
  -1  -5   6 650.837 29.6102   1
   0   2  13 807.706 42.5714  -2
   0   5  -6 807.706 42.5714   1
   0  -2 -13 799.107 30.0646  -2
   0  -5   6 799.107 30.0646   1
   1  -5   6 261.750 17.9698   1
   1  -5   6 305.975 14.0678   2
  -2   5  -6 274.695 23.5931   2
   2  -5   6 167.539 16.1176   1
   2  -5   6 234.142 18.1990   2
   3  -5   6 333.406 22.8272   2
   3  -5   6 338.232 22.8117   1
  -4  -3 -14 258.020 25.1053  -2
   4  -5   6 258.020 25.1053   1
   5  -5   6 -10.815 13.9435   1
   5  -5   6 0.95107 24.4352   2
   5   4  -6 6.92483 24.1579   1
  -5  -4   6 -18.397 28.5202   1
  -5  -4   6 22.9293 24.0225   2
   4   4  -6 114.699 28.3955   1
  -4  -4   6 130.619 17.7266   2
  -4  -4   6 149.539 31.6019   1
   3   4  -6 282.485 32.6241   1
  -3  -4   6 386.282 22.5756   2
  -3  -4   6 334.667 36.4506   1
  -2   1  11 266.969 33.0158  -2
   2   4  -6 266.969 33.0158   1
   2  -1 -11 283.062 33.5506  -2
  -2  -4   6 283.062 33.5506   1
  -1   1  11 411.305 36.3884  -2
   1   4  -6 411.305 36.3884   1
  -1  -4   6 176.966 21.5350   1
   1  -1 -11 388.956 33.2136  -2
  -1  -4   6 388.956 33.2136   1
  -1  -4   6 199.256 21.0881   2
   0   4  -6 105.089 9.65839   1
   0   4  -6 104.348 14.3613   2
   0  -4   6 109.460 7.73345   2
   0  -4   6 66.3179 10.0859   1
  -1   4  -6 6.89761 9.04959   2
  -1   4  -6 11.8218 5.00661   1
   1  -4   6 5.79211 4.96154   2
   1  -4   6 -5.2271 7.08368   1
  -2   4  -6 633.190 33.9389   1
  -2   4  -6 634.008 15.6666   2
   2  -4   6 546.628 23.1014   1
   2  -4   6 582.926 23.2613   2
  -3  -2 -12 420.476 24.6344  -2
   3  -4   6 420.476 24.6344   1
  -4   4  -6 71.3556 14.2428   2
  -4   4  -6 101.612 24.5015   1
   4  -4   6 94.8997 16.4662   1
   4  -4   6 62.3163 23.8868   2
  -5   4  -6 223.317 24.1276   2
  -5   4  -6 202.682 32.6228   1
   5  -4   6 214.915 36.5739   2
   5  -4   6 177.686 21.5340   1
   5   3  -6 17.2128 23.1962   1
  -5  -3   6 15.3124 22.3414   2
  -5  -3   6 13.8274 26.7028   1
   4   3  -6 -8.5474 17.6855   1
  -4  -3   6 -0.4834 10.9055   2
  -4  -3   6 -0.0689 20.1936   1
  -3   0   9 849.757 45.0058  -2
   3   3  -6 849.757 45.0058   1
   3   0  -9 823.727 45.8273  -2
  -3  -3   6 823.727 45.8273   1
   2   3  -6 51.7956 8.70301   2
   2   3  -6 26.2126 13.9691   1
  -2  -3   6 63.5692 10.4856   2
  -2  -3   6 62.6076 16.7836   1
   1   3  -6 70.4402 3.97026   1
   1   3  -6 66.4562 6.31712   2
  -1  -3   6 66.1347 9.64899   1
  -1  -3   6 75.6614 7.47934   2
   0   3  -6 316.968 10.7374   2
   0   3  -6 269.327 21.2144   1
   0  -3   6 291.384 9.42759   2
   0  -3   6 279.408 14.6254   1
  -1   3  -6 390.251 9.94385   1
  -1   3  -6 400.990 25.2819   2
   1  -3   6 376.765 16.6865   2
   1  -3   6 354.485 16.7601   1
   2   1  10 1544.25 49.3682  -2
  -2   3  -6 1544.25 49.3682   1
  -2  -1 -10 1513.98 35.0182  -2
   2  -3   6 1513.98 35.0182   1
  -3   3  -6 59.5266 8.44644   2
  -3   3  -6 70.5285 12.4386   1
   3  -3   6 67.9273 11.8375   1
   3  -3   6 74.8598 12.6500   2
  -4   3  -6 428.408 36.3029   1
  -4   3  -6 417.193 25.3518   2
   4  -3   6 423.080 40.2478   2
   4  -3   6 347.618 22.8573   1
  -5   3  -6 312.689 25.2385   2
  -5   3  -6 298.685 36.7605   1
   5  -3   6 285.205 26.5464   1
   5  -3   6 289.999 39.8358   2
   6   2  11 266.148 51.6425  -2
  -6   3  -6 266.148 51.6425   1
  -6  -2 -11 282.847 41.3163  -2
   6  -3   6 282.847 41.3163   1
   5   2  -6 200.798 31.9188   1
  -5  -2   6 102.498 27.7358   2
  -5  -2   6 165.053 34.0812   1
  -4  -1   7 720.761 45.1708  -2
   4   2  -6 720.761 45.1708   1
   4   1  -7 645.169 45.1457  -2
  -4  -2   6 645.169 45.1457   1
   3   2  -6 166.894 24.5364   1
   3   2  -6 194.346 25.0184   2
  -3  -2   6 229.434 29.2483   1
  -3  -2   6 185.911 16.0258   2
   2   2  -6 278.566 23.5996   2
   2   2  -6 198.769 13.9388   1
  -2  -2   6 286.346 16.3686   2
  -2  -2   6 262.814 17.5266   1
   1   2  -6 1201.89 26.1121   1
   1   2  -6 1209.41 33.9345   2
  -1  -2   6 1133.86 25.2426   1
  -1  -2   6 1233.41 19.5063   2
   0   2  -6 1040.94 34.1869   2
   0   0   8 1303.97 26.6065  -2
   0   2  -6 1303.97 26.6065   1
   0  -2   6 942.155 31.2246   1
   0   0  -8 1184.94 35.8361  -2
   0  -2   6 1184.94 35.8361   1
  -1   2  -6 278.828 24.8930   2
  -1   2  -6 315.978 18.3114   1
   1   0   8 675.932 32.3215  -2
  -1   2  -6 675.932 32.3215   1
  -1   0  -8 602.346 27.5221  -2
   1  -2   6 602.346 27.5221   1
   1  -2   6 329.732 23.1638   1
  -2   2  -6 417.316 10.8618   2
  -2   2  -6 374.623 25.8013   1
   2  -2   6 423.431 18.4609   1
   2  -2   6 413.759 17.7290   2
  -3   2  -6 352.737 13.5116   2
  -3   2  -6 363.833 20.0507   1
   3  -2   6 346.470 13.2582   2
   3  -2   6 358.786 17.1491   1
  -4   2  -6 289.473 21.8139   1
  -4   2  -6 275.495 16.8947   2
   4  -2   6 288.620 18.8492   1
   4  -2   6 280.372 32.2451   2
   5   1   9 532.178 44.4083  -2
  -5   2  -6 532.178 44.4083   1
  -5  -1  -9 526.495 32.1296  -2
   5  -2   6 526.495 32.1296   1
  -6   2  -6 80.1178 21.0933   2
  -6   2  -6 109.755 30.5978   1
   6  -2   6 90.7733 31.5001   2
   6  -2   6 81.8228 25.3852   1
  -6  -2   5 359.191 49.5159  -2
   6   1  -6 359.191 49.5159   1
  -5  -2   5 162.931 35.2910  -2
   5   1  -6 162.931 35.2910   1
   4   1  -6 276.427 21.7804   1
   4   1  -6 338.160 36.7535   2
  -4  -1   6 282.700 30.2797   2
  -4  -1   6 272.679 32.9942   1
   3   1  -6 85.9433 12.9062   1
   3   1  -6 91.5429 20.0963   2
  -3  -1   6 123.164 14.0600   2
  -3  -1   6 107.567 21.9008   1
   2   1  -6 205.867 14.0751   1
   2   1  -6 199.361 13.3232   2
  -2  -1   6 225.340 14.9752   2
  -2  -1   6 211.879 20.9426   1
  -1  -1   6 1301.08 25.6333  -2
   1   1  -6 1301.08 25.6333   1
   1   1  -6 1298.29 25.5737  -2
  -1  -1   6 1298.29 25.5737   1
   0   1  -6 495.083 14.9577   1
   0   1  -6 549.204 21.7096   2
   0  -1   6 488.087 14.9746   1
   0  -1   6 554.246 15.7085   2
  -1   1  -6 387.449 14.0238   1
  -1   1  -6 347.259 12.1494   2
   1  -1   6 390.595 7.16693   2
   1  -1   6 349.759 14.2209   1
  -2   1  -6 1347.68 16.2594   2
  -2   1  -6 1295.13 20.8292   1
   2  -1   6 1418.48 21.1638   2
   2  -1   6 1337.42 24.0091   1
  -3   1  -6 274.121 17.7053   1
  -3   1  -6 259.526 15.5443   2
   3  -1   6 236.178 14.1232   1
   3  -1   6 263.585 13.3566   2
   4   0   7 1278.81 37.7768  -2
  -4   1  -6 1278.81 37.7768   1
  -4   0  -7 1338.18 33.7634  -2
   4  -1   6 1338.18 33.7634   1
  -5   1  -6 163.325 20.5253   1
  -5   1  -6 191.111 21.3032   2
   5  -1   6 195.000 21.1889   1
   5  -1   6 265.294 26.3683   2
  -6   1  -6 -19.785 21.6902   1
  -6   1  -6 16.5584 16.4009   2
   6  -1   6 27.4682 16.4750   1
   6  -1   6 13.5820 25.6794   2
  -6  -3   3 -30.885 35.3237  -2
   6   0  -6 -30.885 35.3237   1
   5   0  -6 218.497 36.1908   2
   5   0  -6 253.854 35.1899   1
  -5   0   6 274.309 36.8954   2
   4   0  -6 354.706 23.6061   1
   4   0  -6 334.076 35.4182   2
  -4   0   6 352.929 35.7825   2
   3   0  -6 118.243 10.6676   1
   3   0  -6 152.557 23.0997   2
  -3   0   6 121.195 20.2667   1
  -3   0   6 156.153 15.4356   2
  -2  -2   4 661.542 19.8310  -2
   2   0  -6 661.542 19.8310   1
   2   2  -4 710.674 16.9095  -2
  -2   0   6 710.674 16.9095   1
   1   0  -6 121.296 9.23098   2
   1   0  -6 103.798 7.71460   1
  -1   0   6 159.213 14.1781   1
  -1   0   6 137.998 9.17642   2
   0   0  -6 518.351 14.8459   2
   0   0  -6 526.925 10.9391   1
   0   0   6 510.174 10.9322   1
   0   0   6 593.021 15.1917   2
  -1   0  -6 158.599 5.82451   1
  -1   0  -6 126.824 8.82096   2
   1   0   6 163.744 5.86717   1
   1   0   6 164.616 9.61804   2
  -2   0  -6 364.608 13.7699   2
   2  -1   5 691.869 23.0331  -2
  -2   0  -6 691.869 23.0331   1
  -2   0  -6 339.725 14.9763   1
  -2   1  -5 658.188 27.8674  -2
   2   0   6 658.188 27.8674   1
   2   0   6 326.097 14.4234   2
   2   0   6 327.592 10.2333   1
   3  -1   5 932.124 23.0085  -2
  -3   0  -6 932.124 23.0085   1
  -3   1  -5 853.436 24.9649  -2
   3   0   6 853.436 24.9649   1
  -4   0  -6 243.484 19.8341   1
  -4   0  -6 241.622 16.7027   2
   4   0   6 268.563 21.0346   2
   4   0   6 268.163 21.7845   1
  -5   0  -6 19.3636 12.5760   2
  -5   0  -6 -4.7045 13.1514   1
   5   0   6 -20.180 12.6601   2
   5   0   6 10.0189 10.3018   1
  -6   0  -6 206.270 24.2459   2
  -6   0  -6 127.552 26.7625   1
   6   0   6 164.878 23.8542   2
   6   0   6 134.166 21.4806   1
   6  -1  -6 355.690 50.0128   2
   6  -1  -6 319.413 42.8822   1
  -6   1   6 416.352 50.3919   2
  -6   1   6 416.364 63.2700   1
   5  -1  -6 107.669 30.9754   2
   5  -1  -6 96.4961 17.6295   1
  -5   1   6 88.5141 20.6495   2
   4  -1  -6 118.468 25.8867   2
   4  -1  -6 112.843 15.6188   1
  -4   1   6 124.610 17.9579   2
  -3  -3   2 687.281 24.5423  -2
   3  -1  -6 687.281 24.5423   1
   3   3  -2 719.475 36.7118  -2
  -3   1   6 719.475 36.7118   1
   2  -1  -6 1985.30 19.3151   1
   2  -1  -6 2037.85 34.7866   2
  -2   1   6 1932.02 31.8887   1
  -2   1   6 2038.07 34.8342   2
   1  -1  -6 355.461 10.6061   2
   1  -1  -6 336.682 8.93026   1
  -1   1   6 306.801 14.5529   1
  -1   1   6 377.617 20.0619   2
   0  -1  -6 4330.65 42.8812   2
   0  -1  -6 4346.05 26.0632   1
   0   1   6 4701.82 41.5547   2
   0   1   6 4388.30 56.0090   1
  -1  -1  -6 438.189 19.1748   2
   1  -2   3 476.598 11.3925  -2
  -1  -1  -6 476.598 11.3925   1
   1   1   6 412.342 19.1050   1
  -1   2  -3 519.221 13.3578  -2
   1   1   6 519.221 13.3578   1
  -2  -1  -6 284.334 20.5786   2
   2  -2   3 816.509 16.6698  -2
  -2  -1  -6 816.509 16.6698   1
   2   1   6 303.702 12.7975   1
  -2   2  -3 913.958 32.3972  -2
   2   1   6 913.958 32.3972   1
   2   1   6 329.079 19.9532   2
  -3  -1  -6 402.529 16.8477   2
  -3  -1  -6 387.914 15.0621   1
   3   1   6 395.376 17.1744   1
   3   1   6 387.016 20.6778   2
  -4  -1  -6 147.842 17.8630   1
  -4  -1  -6 170.433 12.4943   2
   4   1   6 172.876 15.1749   1
   4   1   6 158.043 17.8078   2
  -5  -1  -6 34.3667 10.6226   2
  -5  -1  -6 22.6897 15.4091   1
   5   1   6 22.4521 11.8735   1
   5   1   6 41.2445 16.2224   2
   6  -1   4 -8.8925 22.9118  -2
  -6  -1  -6 -8.8925 22.9118   1
  -6   1  -4 22.2826 13.5355  -2
   6   1   6 22.2826 13.5355   1
   6  -2  -6 53.0412 33.9466   2
   6  -2  -6 50.3555 19.2732   1
  -6   2   6 1.27454 26.3426   2
  -6   2   6 63.0202 40.1706   1
  -5  -4   0 359.439 34.3783  -2
   5  -2  -6 359.439 34.3783   1
   5   4   0 342.519 69.5942  -2
  -5   2   6 342.519 69.5942   1
  -4  -4   0 1244.38 36.7716  -2
   4  -2  -6 1244.38 36.7716   1
   4   4   0 1225.87 76.2825  -2
  -4   2   6 1225.87 76.2825   1
   3  -2  -6 256.199 16.5416   1
   3  -2  -6 264.030 18.9618   2
  -3   2   6 223.569 34.8875   1
  -3   2   6 287.993 20.7733   2
   2  -2  -6 1372.25 16.3770   1
   2  -2  -6 1411.97 29.7360   2
  -2   2   6 1300.79 27.5201   1
  -2   2   6 1433.65 31.4197   2
   1  -2  -6 104.377 4.68726   1
   1  -2  -6 97.6184 6.87843   2
  -1   2   6 108.709 6.37140   2
  -1   2   6 111.316 17.7469   1
   0  -3   1 19.1340 4.27841  -2
   0  -2  -6 19.1340 4.27841   1
   0   3  -1 8.42501 13.4361  -2
   0   2   6 8.42501 13.4361   1
  -1  -2  -6 62.4947 3.93071   2
  -1  -2  -6 52.4161 4.29569   1
   1   2   6 60.7759 8.16634   2
   1   2   6 65.5139 6.06872   1
  -2  -2  -6 1052.65 24.2698   1
  -2  -2  -6 1114.42 17.7021   2
   2   2   6 1122.37 23.8822   2
   2   2   6 1066.56 17.5353   1
  -3  -2  -6 109.690 7.55112   2
  -3  -2  -6 90.3167 10.6014   1
   3   2   6 115.657 10.7584   1
   3   2   6 98.5739 12.7325   2
   4  -2   2 247.751 48.6696  -2
  -4  -2  -6 247.751 48.6696   1
  -4  -2  -6 22.4645 11.5036   2
   4   2   6 35.4458 13.7950   2
   4   2   6 21.6655 18.4889   1
  -4   2  -2 266.400 37.6282  -2
   4   2   6 266.400 37.6282   1
   5  -2   2 882.337 54.1787  -2
  -5  -2  -6 882.337 54.1787   1
  -5   2  -2 1047.37 37.5151  -2
   5   2   6 1047.37 37.5151   1
  -6  -2  -6 175.522 33.7531   1
  -6  -2  -6 188.155 21.6139   2
   6   2   6 195.222 19.7137   1
   6   2   6 203.631 39.1541   2
  -5  -5  -2 90.2068 27.7925  -2
   5  -3  -6 90.2068 27.7925   1
   5   5   2 2.63995 53.6057  -2
  -5   3   6 2.63995 53.6057   1
   4  -3  -6 130.925 27.0605   2
   4  -3  -6 99.4458 13.7092   1
  -4   3   6 128.614 34.1503   1
  -4   3   6 181.584 29.8480   2
   3  -3  -6 627.451 21.8620   1
   3  -3  -6 667.814 26.7077   2
  -3   3   6 714.652 49.7401   1
  -3   3   6 777.500 42.2086   2
   2  -3  -6 486.864 11.0878   1
   2  -3  -6 502.548 19.8210   2
  -2   3   6 532.260 20.6106   2
  -2   3   6 448.414 35.6311   1
  -1  -4  -1 806.669 13.2633  -2
   1  -3  -6 806.669 13.2633   1
   1   4   1 893.502 35.4630  -2
  -1   3   6 893.502 35.4630   1
   0  -3  -6 482.348 7.73324   2
   0  -3  -6 469.998 6.01497   1
   0   3   6 541.581 13.4918   2
   0   3   6 501.022 15.1788   1
  -1  -3  -6 117.390 6.09021   1
  -1  -3  -6 130.180 4.91170   2
   1   3   6 157.965 11.0585   2
   1   3   6 144.122 8.47570   1
  -2  -3  -6 424.202 9.76717   2
  -2  -3  -6 418.376 14.0464   1
   2   3   6 453.246 15.9624   1
   2   3   6 455.571 14.5999   2
   3  -3   0 187.856 21.7790  -2
  -3  -3  -6 187.856 21.7790   1
  -3   3   0 198.337 29.8715  -2
   3   3   6 198.337 29.8715   1
   4  -3   0 242.132 25.9325  -2
  -4  -3  -6 242.132 25.9325   1
  -4   3   0 347.597 39.5659  -2
   4   3   6 347.597 39.5659   1
  -5  -3  -6 70.4708 15.8752   2
  -5  -3  -6 106.949 28.2202   1
   5   3   6 30.8643 22.3253   1
   5   3   6 108.841 29.5673   2
  -6  -3  -6 1.33605 12.1164   2
  -6  -3  -6 27.0502 26.8162   1
   6   3   6 5.35254 25.4572   2
   6   3   6 10.0274 22.3616   1
   5  -4  -6 77.0175 15.9238   1
   5  -4  -6 56.6372 27.8485   2
  -5   4   6 38.9634 33.3840   1
   4  -4  -6 240.451 22.0602   2
   4  -4  -6 287.231 18.8888   1
  -4   4   6 314.339 43.6878   1
   3  -4  -6 128.960 9.51166   1
   3  -4  -6 113.755 14.7994   2
  -3   4   6 111.881 29.0283   1
  -2  -5  -3 707.283 11.8820  -2
   2  -4  -6 707.283 11.8820   1
   2   5   3 705.242 44.5094  -2
  -2   4   6 705.242 44.5094   1
   1  -4  -6 4.55239 4.43563   2
   1  -4  -6 -0.5159 2.02352   1
  -1   4   6 0.99373 11.9781   1
  -1   4   6 4.40098 6.79441   2
   0  -4  -6 1587.52 16.2738   1
   0  -4  -6 1658.59 14.4138   2
   0   4   6 1845.16 44.0405   2
   0   4   6 1652.43 42.3433   1
  -1  -4  -6 1239.78 16.0679   1
  -1  -4  -6 1266.07 10.6631   2
   1   4   6 1506.36 48.4769   2
   1   4   6 1336.85 39.0675   1
   2  -4  -2 929.281 22.1943  -2
  -2  -4  -6 929.281 22.1943   1
  -2   4   2 1110.73 27.2345  -2
   2   4   6 1110.73 27.2345   1
   3  -4  -2 621.133 29.0071  -2
  -3  -4  -6 621.133 29.0071   1
  -3   4   2 630.632 39.7593  -2
   3   4   6 630.632 39.7593   1
  -4  -4  -6 889.174 29.7710   2
  -4  -4  -6 747.393 31.2477   1
   4   4   6 755.845 51.4807   2
   4   4   6 879.227 47.6004   1
  -5  -4  -6 170.441 19.4539   2
  -5  -4  -6 141.130 30.1723   1
   5   4   6 174.064 37.3170   2
   5   4   6 75.0727 26.6219   1
  -6  -4  -6 237.400 42.5368   1
  -6  -4  -6 261.637 37.3217   2
   6   4   6 334.382 44.0185   1
   5  -5  -6 81.7834 16.3198   1
   5  -5  -6 63.8704 28.7021   2
  -5   5   6 41.9699 34.5745   1
  -4  -6  -5 272.802 25.6730  -2
   4  -5  -6 272.802 25.6730   1
   4   6   5 320.000 55.8041  -2
  -4   5   6 320.000 55.8041   1
  -3  -6  -5 390.422 28.1961  -2
   3  -5  -6 390.422 28.1961   1
   3   6   5 510.604 52.4760  -2
  -3   5   6 510.604 52.4760   1
   2  -5  -6 270.135 17.5003   2
   2  -5  -6 255.851 7.26870   1
  -2   5   6 284.088 31.6468   1
   1  -5  -6 410.306 12.8895   2
   1  -5  -6 430.731 27.5321   1
  -1   5   6 435.338 32.4947   1
  -1   5   6 469.372 30.0265   2
   0  -5  -6 326.194 7.59940   2
   0  -5  -6 318.338 5.39741   1
   0   5   6 370.156 14.5556   2
   0   5   6 333.319 24.4430   1
   1  -5  -4 682.653 15.7190  -2
  -1  -5  -6 682.653 15.7190   1
  -1   5   4 697.472 35.0415  -2
   1   5   6 697.472 35.0415   1
  -2  -5  -6 468.163 9.78387   2
  -2  -5  -6 405.133 25.5547   1
   2  -5  -4 857.911 46.8269  -2
  -2  -5  -6 857.911 46.8269   1
   2   5   6 473.510 36.5556   2
   2   5   6 504.410 37.4032   1
  -3  -5  -6 -3.2519 10.3081   1
  -3  -5  -6 8.92937 6.01971   2
   3   5   6 52.3797 22.0262   2
  -4  -5  -6 974.698 30.4666   2
  -4  -5  -6 841.499 34.1449   1
   4   5   6 911.113 57.8600   2
   5  -4  -3 495.149 59.0216  -2
  -5  -5  -6 495.149 59.0216   1
  -4  -7  -7 139.488 34.9600  -2
   4  -6  -6 139.488 34.9600   1
   4   7   7 114.968 53.2762  -2
  -4   6   6 114.968 53.2762   1
   3  -6  -6 105.083 15.4120   1
   3  -6  -6 57.3670 13.5574   2
  -3   6   6 63.6180 27.1941   1
   2  -6  -6 86.0113 4.94090   1
   2  -6  -6 101.797 12.9299   2
  -2   6   6 109.934 24.6519   1
   1  -6  -6 29.1593 6.81759   2
   1  -6  -6 22.9442 13.5094   1
   0  -6  -6 3193.95 24.6089  -2
   0  -6  -6 3193.95 24.6089   1
  -1  -6  -6 11.9078 12.7830   2
  -1  -6  -6 20.9154 6.20595   1
  -2  -6  -6 160.551 6.64001   2
  -2  -6  -6 129.142 13.5497   1
   2   6   6 113.977 24.9477   2
  -3  -6  -6 158.799 13.6376   2
  -3  -6  -6 157.260 16.5549   1
   3   6   6 153.594 29.1482   2
   4  -5  -5 53.8726 27.5170  -2
  -4  -6  -6 53.8726 27.5170   1
   5  -5  -5 75.2203 48.3839  -2
  -5  -6  -6 75.2203 48.3839   1
   4  -7  -6 173.365 22.3240   2
   4  -7  -6 215.768 27.1031   1
  -4   7   6 258.471 43.6861   1
   3  -7  -6 106.516 16.3683   1
   3  -7  -6 110.864 15.9809   2
  -3   7   6 92.0630 27.3751   1
   2  -7  -6 212.646 9.22997   1
   2  -7  -6 192.249 22.2587   2
  -1  -7  -8 218.115 8.03507  -2
   1  -7  -6 218.115 8.03507   1
   0  -7  -6 86.3761 6.46921   2
   0  -7  -6 79.0124 7.19576   1
  -1  -7  -6 76.2869 10.4026   1
  -1  -7  -6 117.206 21.4508   2
  -2  -7  -6 86.2102 21.9180   2
  -2  -7  -6 39.5053 10.8832   1
   2   7   6 77.4238 23.8331   2
   3  -6  -7 735.551 34.3780  -2
  -3  -7  -6 735.551 34.3780   1
   4  -6  -7 174.593 33.2172  -2
  -4  -7  -6 174.593 33.2172   1
  -3  -8 -10 531.121 35.8496  -2
   3  -8  -6 531.121 35.8496   1
  -2  -8 -10 78.9812 17.3654  -2
   2  -8  -6 78.9812 17.3654   1
   1  -8  -6 55.5417 6.62765   1
   1  -8  -6 33.3676 13.5307   2
   0  -8  -6 45.2430 11.1807   1
   0  -8  -6 28.2799 6.75908   2
  -1  -8  -6 35.3305 9.65206   1
   2  -7  -9 332.045 23.7103  -2
  -2  -8  -6 332.045 23.7103   1
  -3  -8  -6 89.2601 20.5322   1
   3  -7  -9 65.4233 53.6256  -2
  -3  -8  -6 65.4233 53.6256   1
  -4  -8  -6 13.7069 15.2654   2
  -4  -8  -6 -9.9230 23.4392   1
   4   8   6 15.7561 31.6603   2
   1  -9  -6 -4.5506 9.42228   1
   1  -9  -6 15.6415 13.2720   2
   0  -9  -6 142.176 15.6943   2
   0  -9  -6 155.740 18.2398   1
   1  -8 -11 93.8759 21.6472  -2
  -1  -9  -6 93.8759 21.6472   1
   2  -8 -11 124.311 50.6506  -2
  -2  -9  -6 124.311 50.6506   1
  -2  -9  -6 89.6687 19.8892   1
   0  -4 -19 51.5659 38.2505  -2
   0  -8   7 51.5659 38.2505   1
   1  -8   7 7.50693 14.4954   1
   1  -8   7 62.7803 14.6162   2
   2  -3 -17 434.758 54.0369  -2
  -2  -7   7 434.758 54.0369   1
   1  -3 -17 113.478 37.3903  -2
  -1  -7   7 113.478 37.3903   1
   0  -7   7 16.9184 12.0140   1
   0  -7   7 7.50875 9.71863   2
   1  -7   7 172.896 18.2168   2
   1  -7   7 148.714 17.9877   1
   2  -7   7 166.339 18.8271   2
   2  -7   7 179.326 20.6618   1
  -3  -4 -18 369.501 30.8267  -2
   3  -7   7 369.501 30.8267   1
   3  -2 -15 457.252 54.1880  -2
  -3  -6   7 457.252 54.1880   1
   2  -2 -15 127.101 42.5156  -2
  -2  -6   7 127.101 42.5156   1
  -1  -6   7 50.6942 9.30180   2
  -1  -6   7 64.5840 18.6000   1
   0  -6   7 667.989 25.1849   2
   0  -6   7 587.132 27.3590   1
   1  -6   7 172.017 16.4604   2
   1  -6   7 194.018 18.7801   1
  -2  -3 -16 48.3531 18.9891  -2
   2  -6   7 48.3531 18.9891   1
   3  -6   7 6.63015 12.8999   1
   3  -6   7 36.2532 13.9608   2
   4  -6   7 77.1825 18.3113   1
   4  -6   7 80.5317 27.8628   2
  -4   1  13 579.173 58.0127  -2
   4   5  -7 579.173 58.0127   1
   4  -1 -13 378.473 48.9164  -2
  -4  -5   7 378.473 48.9164   1
  -3   1  13 263.796 51.6300  -2
   3   5  -7 263.796 51.6300   1
  -3  -5   7 186.824 25.7219   2
   3  -1 -13 170.803 46.6579  -2
  -3  -5   7 170.803 46.6579   1
   2   5  -7 132.313 24.8292   1
  -2  -5   7 131.194 23.3433   1
  -2  -5   7 170.060 13.0449   2
   1   5  -7 198.604 26.3369   1
  -1  -5   7 246.392 14.0764   2
  -1  -5   7 190.268 20.6081   1
   0   2  14 283.185 37.2193  -2
   0   5  -7 283.185 37.2193   1
   0  -5   7 47.3138 14.0713   2
   0  -5   7 40.8282 17.1240   1
   0  -2 -14 260.282 33.2794  -2
   0  -5   7 260.282 33.2794   1
  -1  -2 -14 667.586 29.5019  -2
   1  -5   7 667.586 29.5019   1
   2  -5   7 7.47501 8.89794   2
   2  -5   7 0.63505 9.41961   1
   3  -5   7 -9.2343 9.84985   2
   3  -5   7 14.8481 10.9215   1
   4  -5   7 210.673 21.9356   1
   4  -5   7 221.189 34.3772   2
  -5  -3 -15 232.029 42.1848  -2
   5  -5   7 232.029 42.1848   1
   4   4  -7 119.261 28.4188   1
  -4  -4   7 105.605 17.5955   2
  -4  -4   7 116.032 31.1418   1
   3   4  -7 -9.6185 16.4563   1
  -3  -4   7 22.9764 10.8513   2
  -3  -4   7 3.14241 16.8938   1
   2   4  -7 13.5428 15.4767   1
  -2  -4   7 11.6479 15.6073   1
  -2  -4   7 22.6822 7.45687   2
  -1   1  12 330.876 36.2176  -2
   1   4  -7 330.876 36.2176   1
   1  -1 -12 213.125 22.6244  -2
  -1  -4   7 213.125 22.6244   1
   0   1  12 1248.19 47.0633  -2
   0   4  -7 1248.19 47.0633   1
   0  -1 -12 1118.47 32.6041  -2
   0  -4   7 1118.47 32.6041   1
  -1   4  -7 133.370 9.44161   2
  -1   4  -7 147.268 20.0690   1
   1  -4   7 107.101 9.07969   2
   1  -4   7 112.747 13.0091   1
  -2   4  -7 140.249 10.2480   2
  -2   4  -7 211.137 24.7691   1
   2  -4   7 129.911 14.6027   2
   2  -4   7 129.209 14.4947   1
  -3   4  -7 52.1306 11.9848   2
   3  -4   7 67.4289 12.6549   1
   3  -4   7 76.6383 13.5439   2
  -4  -2 -13 247.466 23.9880  -2
   4  -4   7 247.466 23.9880   1
  -5   4  -7 88.8446 25.3246   1
  -5   4  -7 17.5435 22.0376   2
   5  -4   7 24.7870 25.6889   2
   5  -4   7 45.9229 21.8121   1
   5   3  -7 185.092 36.3606   1
  -5  -3   7 156.715 32.5658   2
  -5  -3   7 136.937 37.3708   1
   4   3  -7 91.2057 24.5531   1
  -4  -3   7 109.976 28.5617   1
  -4  -3   7 120.609 25.7892   2
   3   3  -7 274.001 30.0145   1
  -3  -3   7 269.497 20.1849   2
  -3  -3   7 264.497 30.7701   1
  -2   0  10 445.279 37.6955  -2
   2   3  -7 445.279 37.6955   1
   2   0 -10 475.739 35.3616  -2
  -2  -3   7 475.739 35.3616   1
   1   3  -7 557.346 19.3456   2
   1   3  -7 527.806 31.0617   1
  -1  -3   7 595.628 26.7651   2
   1   0 -10 518.540 35.4838  -2
  -1  -3   7 518.540 35.4838   1
  -1  -3   7 481.278 28.4618   1
   0   3  -7 33.7448 8.39286   2
   0   3  -7 20.6162 11.2061   1
   0  -3   7 30.0025 7.73442   1
   0  -3   7 32.0266 5.97558   2
  -1   3  -7 37.4747 9.41564   2
  -1   3  -7 67.1544 15.4901   1
   1  -3   7 48.3553 9.48311   1
   1  -3   7 50.1715 6.34071   2
  -2   3  -7 270.823 11.5362   2
  -2   3  -7 248.924 24.1315   1
   2  -3   7 259.548 16.1917   2
   2  -3   7 277.651 18.8363   1
   3   1  11 776.775 41.3579  -2
  -3   3  -7 776.775 41.3579   1
  -3  -1 -11 683.846 24.4397  -2
   3  -3   7 683.846 24.4397   1
  -4   3  -7 334.425 31.5786   1
  -4   3  -7 376.200 24.0899   2
   4  -3   7 270.448 33.1925   2
   4  -3   7 334.502 23.2194   1
  -5   3  -7 97.3338 18.1304   2
  -5   3  -7 150.758 28.5318   1
   5  -3   7 85.1993 28.4585   2
   5  -3   7 54.8577 20.4346   1
  -6   3  -7 19.7572 18.2958   2
   6  -3   7 45.1822 29.8135   2
   6  -3   7 -21.283 17.9794   1
   5   2  -7 98.0611 27.5239   1
  -5  -2   7 76.7215 25.2296   2
   4   2  -7 73.6399 21.3022   1
   4   2  -7 30.3267 22.3826   2
  -4  -2   7 65.8978 24.1723   1
  -4  -2   7 64.7007 21.8145   2
  -3  -1   8 393.514 33.8326  -2
   3   2  -7 393.514 33.8326   1
   3   1  -8 304.438 32.6012  -2
  -3  -2   7 304.438 32.6012   1
   2   2  -7 1039.14 39.7153   2
   2   2  -7 978.824 28.0450   1
  -2  -2   7 1097.94 28.7753   2
  -2  -2   7 914.164 38.5086   1
   1   2  -7 536.449 12.3021   1
   1   2  -7 612.284 26.5376   2
  -1  -2   7 510.348 19.0443   1
  -1  -2   7 577.585 14.3056   2
   0   2  -7 595.336 26.0399   2
   0   2  -7 580.256 18.5930   1
   0  -2   7 539.551 18.1171   1
   0  -2   7 623.777 18.9145   2
  -1   2  -7 832.908 22.0027   1
  -1   2  -7 843.059 37.6155   2
   1  -2   7 784.954 22.7061   1
   1  -2   7 831.828 15.6557   2
   2   0   9 378.069 32.3893  -2
  -2   2  -7 378.069 32.3893   1
  -2   0  -9 386.736 21.3423  -2
   2  -2   7 386.736 21.3423   1
  -3   2  -7 1206.32 31.5617   1
  -3   2  -7 1234.01 22.0943   2
   3  -2   7 1191.35 32.4716   2
   3  -2   7 1119.09 27.5661   1
  -4   2  -7 116.642 17.9111   2
  -4   2  -7 116.496 15.1709   1
   4  -2   7 129.167 14.6133   1
   4  -2   7 120.447 25.2513   2
  -5   2  -7 149.191 19.7306   2
  -5   2  -7 159.715 28.8646   1
   5  -2   7 131.206 19.0878   1
   5  -2   7 132.678 30.5162   2
  -6  -1 -10 214.037 38.9778  -2
   6  -2   7 214.037 38.9778   1
   5   1  -7 92.0074 29.3727   2
   5   1  -7 86.6695 27.0598   1
  -5  -1   7 134.660 30.1635   2
  -4  -2   6 684.598 44.4583  -2
   4   1  -7 684.598 44.4583   1
   4   2  -6 745.854 48.0544  -2
  -4  -1   7 745.854 48.0544   1
   3   1  -7 546.620 35.9006   2
   3   1  -7 470.865 23.0904   1
  -3  -1   7 453.384 34.1691   1
  -3  -1   7 480.333 23.6130   2
   2   1  -7 1234.69 28.9492   1
   2   1  -7 1239.15 42.1375   2
  -2  -1   7 1390.18 31.3305   2
  -2  -1   7 1261.41 43.1143   1
   1   1  -7 47.6563 5.26144   1
   1   1  -7 44.4658 7.91973   2
  -1  -1   7 37.6118 6.70486   1
  -1  -1   7 33.9021 4.63094   2
   0   1  -7 170.097 17.2926   2
   0  -1   7 342.433 15.8447  -2
   0   1  -7 342.433 15.8447   1
   0   1  -7 343.155 21.3931  -2
   0  -1   7 343.155 21.3931   1
   0  -1   7 96.9162 12.0725   1
  -1   1  -7 614.276 29.1399   2
   1  -1   7 1234.31 26.8410  -2
  -1   1  -7 1234.31 26.8410   1
  -1   1  -7 1191.06 36.0051  -2
   1  -1   7 1191.06 36.0051   1
   1  -1   7 617.607 9.76937   2
   1  -1   7 615.768 29.5046   1
  -2   1  -7 332.485 7.91584   2
  -2   1  -7 341.205 16.1010   1
   2  -1   7 354.185 16.4436   2
   2  -1   7 345.365 6.87250   1
  -3   1  -7 1252.75 28.3562   2
  -3   1  -7 1181.55 29.2511   1
   3  -1   7 1176.77 24.4373   2
   3  -1   7 1156.55 27.2144   1
  -4   1  -7 292.906 21.4420   1
  -4   1  -7 317.460 23.0915   2
   4  -1   7 291.492 22.0067   1
   4  -1   7 307.355 21.5615   2
   5   0   8 197.658 21.0280  -2
  -5   1  -7 197.658 21.0280   1
  -5   0  -8 190.773 22.1574  -2
   5  -1   7 190.773 22.1574   1
  -6   1  -7 331.583 29.9967   2
   6  -1   7 355.516 30.6106   1
   6  -1   7 428.231 50.1894   2
  -5  -3   4 185.154 34.4098  -2
   5   0  -7 185.154 34.4098   1
   4   0  -7 396.322 24.8094   1
   4   0  -7 500.270 41.7507   2
  -4   0   7 444.813 41.4529   2
   3   0  -7 78.4281 12.2354   1
   3   0  -7 87.2712 20.0234   2
  -3   0   7 80.7818 19.5759   2
  -3   0   7 83.4722 19.0751   1
   2   0  -7 396.199 17.0316   1
   2   0  -7 372.101 17.7049   2
  -2   0   7 362.742 13.9303   1
  -2   0   7 410.254 27.2388   2
  -1  -2   5 1077.82 22.8679  -2
   1   0  -7 1077.82 22.8679   1
   1   2  -5 1128.06 31.9529  -2
  -1   0   7 1128.06 31.9529   1
   0   0  -7 1692.88 27.9083   2
   0   0  -7 1626.69 20.5238   1
   0   0   7 1577.86 19.9386   1
   0   0   7 1742.99 27.7038   2
  -1   0  -7 398.833 8.95476   1
  -1   0  -7 387.938 14.5797   2
   1   0   7 339.650 12.0056   1
   1   0   7 402.950 14.0644   2
  -2   0  -7 860.061 19.6321   2
  -2   0  -7 821.258 22.6100   1
   2   0   7 847.969 17.5061   2
   2   0   7 778.027 13.1715   1
  -3   0  -7 89.1768 10.3213   2
  -3   0  -7 96.5819 9.62484   1
   3   0   7 111.588 12.2224   2
   3   0   7 78.3174 10.4565   1
   4  -1   6 1316.83 38.2115  -2
  -4   0  -7 1316.83 38.2115   1
  -4   1  -6 1302.28 39.7219  -2
   4   0   7 1302.28 39.7219   1
  -5   0  -7 421.050 28.0706   2
  -5   0  -7 441.251 28.6073   1
   5   0   7 414.457 27.9269   1
   5   0   7 447.188 29.6868   2
  -6   0  -7 142.449 22.4208   2
  -6   0  -7 55.7237 28.9883   1
   6   0   7 108.451 20.3893   1
   6   0   7 100.837 32.6724   2
   5  -1  -7 67.9907 16.5507   1
   5  -1  -7 56.4340 27.0482   2
  -5   1   7 74.5218 26.4166   2
   4  -1  -7 508.254 42.6307   2
   4  -1  -7 549.530 26.7994   1
  -4   1   7 622.776 31.2103   2
   3  -1  -7 34.8641 17.3383   2
   3  -1  -7 10.5943 8.73683   1
  -3   1   7 1.51788 15.7056   2
  -2  -3   3 1177.32 20.2179  -2
   2  -1  -7 1177.32 20.2179   1
   2   3  -3 1156.19 25.6592  -2
  -2   1   7 1156.19 25.6592   1
   1  -1  -7 89.7088 5.33706   1
   1  -1  -7 91.8745 8.83925   2
  -1   1   7 94.8315 10.7431   1
  -1   1   7 97.7955 13.2563   2
   0  -1  -7 1960.80 17.1441   1
   0  -1  -7 2012.70 29.0851   2
   0   1   7 2176.89 26.7535   2
   0   1   7 1934.95 26.3317   1
  -1  -1  -7 375.760 8.20827   2
  -1  -1  -7 387.323 9.83070   1
   1   1   7 411.215 10.1964   1
   1   1   7 420.736 19.6708   2
  -2  -1  -7 69.9223 8.79733   1
  -2  -1  -7 73.3109 13.5266   2
   2  -2   4 1730.40 28.9476  -2
  -2  -1  -7 1730.40 28.9476   1
   2   1   7 74.9184 7.98511   1
  -2   2  -4 1745.51 43.7841  -2
   2   1   7 1745.51 43.7841   1
   2   1   7 73.1833 13.0878   2
   3  -2   4 374.848 17.5553  -2
  -3  -1  -7 374.848 17.5553   1
  -3   2  -4 376.779 22.9686  -2
   3   1   7 376.779 22.9686   1
  -4  -1  -7 208.578 15.9642   2
  -4  -1  -7 185.188 18.3546   1
   4   1   7 204.154 19.1980   1
   4   1   7 269.795 21.0302   2
  -5  -1  -7 120.908 16.4064   2
  -5  -1  -7 113.149 26.5297   1
   5   1   7 149.790 20.6573   2
   5   1   7 157.238 20.0786   1
  -6  -1  -7 216.281 35.7062   1
  -6  -1  -7 250.777 34.1232   2
   6   1   7 283.872 41.7067   2
   6   1   7 242.668 26.3626   1
   5  -2  -7 209.421 21.6498   1
   5  -2  -7 223.417 37.2652   2
  -5   2   7 242.922 46.1653   1
  -5   2   7 204.624 35.2719   2
   4  -2  -7 78.8505 13.6972   1
   4  -2  -7 24.1901 19.8351   2
  -4   2   7 70.7984 33.2569   1
  -4   2   7 47.7105 15.2287   2
  -3  -4   1 222.836 17.4454  -2
   3  -2  -7 222.836 17.4454   1
   3   4  -1 136.765 45.1396  -2
  -3   2   7 136.765 45.1396   1
   2  -2  -7 12.9611 4.55273   1
   2  -2  -7 0.04548 7.36427   2
  -2   2   7 6.66422 8.40829   2
  -2   2   7 9.02433 7.98361   1
   1  -2  -7 640.637 10.4061   1
   1  -2  -7 673.422 18.1120   2
  -1   2   7 733.810 13.5171   2
  -1   2   7 666.365 19.8431   1
   0  -2  -7 202.249 6.05105   1
   0  -2  -7 204.080 6.02627   2
   0   2   7 205.833 8.57268   1
   0   2   7 241.572 10.4104   2
   1  -3   2 973.328 14.8372  -2
  -1  -2  -7 973.328 14.8372   1
  -1   3  -2 1028.87 19.4697  -2
   1   2   7 1028.87 19.4697   1
   2  -3   2 1983.63 34.8585  -2
  -2  -2  -7 1983.63 34.8585   1
   2   2   7 1423.88 24.2860   1
   2   2   7 1520.19 37.2513   2
  -2   3  -2 2181.40 49.1871  -2
   2   2   7 2181.40 49.1871   1
  -3  -2  -7 328.999 15.9352   2
  -3  -2  -7 293.939 17.7013   1
   3   2   7 299.870 13.7768   1
   3   2   7 321.390 18.8301   2
  -4  -2  -7 818.241 29.6444   2
  -4  -2  -7 735.399 45.2666   1
   4   2   7 774.634 24.7003   1
   4   2   7 782.205 47.7456   2
  -5  -2  -7 140.659 28.6318   1
  -5  -2  -7 188.696 16.3606   2
   5   2   7 238.426 35.3180   2
   5   2   7 214.689 18.0735   1
   6  -2   3 5.01391 24.8882  -2
  -6  -2  -7 5.01391 24.8882   1
  -6   2  -3 -22.262 14.6264  -2
   6   2   7 -22.262 14.6264   1
  -5  -5  -1 339.979 34.2130  -2
   5  -3  -7 339.979 34.2130   1
   5   5   1 424.852 72.3519  -2
  -5   3   7 424.852 72.3519   1
  -4  -5  -1 331.836 25.0760  -2
   4  -3  -7 331.836 25.0760   1
   4   5   1 311.663 54.7396  -2
  -4   3   7 311.663 54.7396   1
   3  -3  -7 304.144 20.6967   2
   3  -3  -7 285.857 17.8212   1
  -3   3   7 285.425 21.3942   2
  -3   3   7 252.671 36.8749   1
   2  -3  -7 596.184 12.7538   1
   2  -3  -7 666.628 23.9565   2
  -2   3   7 724.682 20.1802   2
  -2   3   7 598.427 42.3308   1
   1  -3  -7 1203.61 11.6865   1
   1  -3  -7 1266.75 19.9904   2
  -1   3   7 1248.44 43.3450   1
  -1   3   7 1366.63 20.6260   2
   0  -4   0 317.865 7.10888  -2
   0  -3  -7 317.865 7.10888   1
   0   4   0 421.480 22.9901  -2
   0   3   7 421.480 22.9901   1
  -1  -3  -7 40.7252 3.62171   2
  -1  -3  -7 33.7462 4.37720   1
   1   3   7 39.4372 5.85819   2
   1   3   7 35.8512 5.17034   1
  -2  -3  -7 499.434 10.8367   2
  -2  -3  -7 466.213 15.5349   1
   2   3   7 544.313 16.7620   2
   2   3   7 528.704 17.4045   1
  -3  -3  -7 108.558 12.1459   1
  -3  -3  -7 136.321 12.9419   2
   3   3   7 130.884 12.5223   1
   3   3   7 160.894 25.6910   2
  -4  -3  -7 276.480 21.1639   1
  -4  -3  -7 281.919 29.3409   2
  -4   3  -1 500.398 43.3130  -2
   4   3   7 500.398 43.3130   1
   5  -3   1 65.2590 38.6544  -2
  -5  -3  -7 65.2590 38.6544   1
  -5   3  -1 118.579 22.3074  -2
   5   3   7 118.579 22.3074   1
  -6  -3  -7 117.567 16.7183   2
  -6  -3  -7 40.8172 28.8188   1
   6   3   7 88.3665 34.0512   2
   6   3   7 134.077 22.2154   1
  -5  -6  -3 327.850 31.3625  -2
   5  -4  -7 327.850 31.3625   1
   5   6   3 277.092 67.6958  -2
  -5   4   7 277.092 67.6958   1
   4  -4  -7 192.350 17.4244   1
   4  -4  -7 193.138 31.4833   2
  -4   4   7 166.375 37.3869   1
   3  -4  -7 25.7549 8.65411   1
   3  -4  -7 23.4440 11.4843   2
  -3   4   7 26.9928 25.6338   1
   2  -4  -7 108.423 6.13937   1
   2  -4  -7 106.203 12.4488   2
  -2   4   7 74.4924 16.9377   2
  -2   4   7 96.2140 24.6137   1
  -1  -5  -2 937.982 15.6428  -2
   1  -4  -7 937.982 15.6428   1
   1   5   2 969.422 40.3298  -2
  -1   4   7 969.422 40.3298   1
   0  -4  -7 390.776 5.91150   1
   0  -4  -7 409.164 8.27650   2
   0   4   7 427.442 25.0434   1
   0   4   7 457.718 23.7295   2
  -1  -4  -7 212.582 8.34505   1
  -1  -4  -7 223.383 6.07087   2
   1   4   7 243.831 20.1471   1
   1   4   7 272.760 20.8023   2
  -2  -4  -7 360.978 9.60262   2
  -2  -4  -7 293.291 13.8437   1
   2   4   7 363.882 31.2601   2
   2   4   7 405.670 17.3452   1
   3  -4  -1 286.602 25.3555  -2
  -3  -4  -7 286.602 25.3555   1
  -3   4   1 253.406 22.3719  -2
   3   4   7 253.406 22.3719   1
   4  -4  -1 185.086 25.4892  -2
  -4  -4  -7 185.086 25.4892   1
  -4   4   1 188.207 31.9975  -2
   4   4   7 188.207 31.9975   1
  -5  -4  -7 13.7932 9.82295   2
  -5  -4  -7 10.3789 22.2544   1
   5   4   7 21.3277 15.5424   1
   5   4   7 7.80274 25.1036   2
  -6  -4  -7 113.382 16.4418   2
  -6  -4  -7 77.2289 32.7531   1
   6   4   7 109.189 35.3156   2
   5  -5  -7 69.4432 30.8093   2
   5  -5  -7 91.9897 24.6295   1
  -5   5   7 33.3346 35.6171   1
   4  -5  -7 40.4287 14.4380   2
   4  -5  -7 71.0828 14.2290   1
  -4   5   7 47.8072 30.0626   1
  -3  -6  -4 525.231 34.4222  -2
   3  -5  -7 525.231 34.4222   1
   3  -5  -7 101.431 14.9006   2
  -3   5   7 121.331 30.6029   1
  -2  -6  -4 781.960 12.8993  -2
   2  -5  -7 781.960 12.8993   1
   2   6   4 845.461 50.8076  -2
  -2   5   7 845.461 50.8076   1
   1  -5  -7 256.988 25.7566   1
   1  -5  -7 280.073 12.0082   2
  -1   5   7 298.569 28.3563   1
   0  -5  -7 116.202 5.96756   2
   0  -5  -7 102.369 4.05549   1
   0   5   7 144.421 18.6957   2
   0   5   7 106.896 17.4847   1
  -1  -5  -7 466.140 7.68005   2
  -1  -5  -7 444.434 13.0868   1
   1   5   7 474.499 28.8744   1
   2  -5  -3 225.085 20.6409  -2
  -2  -5  -7 225.085 20.6409   1
   3  -5  -3 250.644 25.9311  -2
  -3  -5  -7 250.644 25.9311   1
  -4  -5  -7 3.41010 7.85473   2
  -4  -5  -7 21.0244 12.0343   1
   4   5   7 3.51543 22.9438   2
  -5  -5  -7 0.90728 10.0251   2
  -5  -5  -7 -1.9743 21.3146   1
   5   5   7 2.75049 27.2199   2
  -4  -7  -6 187.070 36.2162  -2
   4  -6  -7 187.070 36.2162   1
   4   7   6 169.129 60.2454  -2
  -4   6   7 169.129 60.2454   1
  -3  -7  -6 719.357 32.3282  -2
   3  -6  -7 719.357 32.3282   1
   3   7   6 827.537 62.2651  -2
  -3   6   7 827.537 62.2651   1
   2  -6  -7 539.573 23.5433   2
   2  -6  -7 484.191 34.9263   1
  -2   6   7 588.448 43.2556   1
   1  -6  -7 32.3678 15.2750   1
   1  -6  -7 23.6669 8.09391   2
   0  -6  -7 14.9220 4.21990   2
   0  -6  -7 14.1721 3.80647   1
   1  -6  -5 43.8384 11.0002  -2
  -1  -6  -7 43.8384 11.0002   1
   2  -6  -5 2245.69 68.0706  -2
  -2  -6  -7 2245.69 68.0706   1
  -2  -6  -7 1390.08 50.5590   2
  -2  -6  -7 1295.72 43.2827   1
  -3  -6  -7 -4.9445 10.4943   1
  -3  -6  -7 -10.566 10.0334   2
   3   6   7 20.7617 20.7698   2
  -4  -6  -7 153.096 19.3275   1
  -4  -6  -7 160.133 12.5092   2
   4   6   7 176.854 33.2595   2
   5  -5  -4 202.705 54.6919  -2
  -5  -6  -7 202.705 54.6919   1
   4  -7  -7 9.64557 15.0487   2
   4  -7  -7 32.6922 18.2163   1
  -4   7   7 68.6454 35.5633   1
   3  -7  -7 118.280 17.1665   2
   3  -7  -7 108.706 16.0457   1
  -3   7   7 135.261 32.5602   1
   2  -7  -7 245.861 8.02907   1
   2  -7  -7 229.862 17.8562   2
   1  -7  -7 156.700 26.0855   1
   1  -7  -7 140.994 12.3469   2
   0  -7  -7 334.130 11.2243  -2
   0  -7  -7 334.130 11.2243   1
  -1  -7  -7 27.7710 8.89057   1
  -1  -7  -7 33.0402 17.2777   2
  -2  -7  -7 134.343 14.0725   1
  -2  -7  -7 167.694 6.81158   2
   2   7   7 152.124 29.2254   2
  -3  -7  -7 74.1993 13.8617   1
  -3  -7  -7 112.335 15.9949   2
   3   7   7 142.125 31.3893   2
   4  -6  -6 175.946 31.6127  -2
  -4  -7  -7 175.946 31.6127   1
   3  -8  -7 30.0539 14.1121   1
   3  -8  -7 19.8568 14.4262   2
  -2  -8  -9 153.417 12.0541  -2
   2  -8  -7 153.417 12.0541   1
  -1  -8  -9 468.515 12.8439  -2
   1  -8  -7 468.515 12.8439   1
   0  -8  -7 12.5773 6.36689   2
   0  -8  -7 18.9739 9.53528   1
  -1  -8  -7 52.7242 13.2444   1
   1   8   7 45.5648 15.2583   1
  -2  -8  -7 102.297 14.8694   1
   3  -7  -8 15.2956 24.5504  -2
  -3  -8  -7 15.2956 24.5504   1
   1  -9  -7 222.887 19.0229   1
   1  -9  -7 180.826 21.1359   2
   0  -9  -7 144.279 17.6758   1
   0  -9  -7 158.012 15.7431   2
  -1  -9  -7 -5.1284 11.3530   1
   2  -8 -10 234.616 32.2603  -2
  -2  -9  -7 234.616 32.2603   1
  -2  -7   8 10.7910 11.9483   2
  -2  -7   8 19.8273 21.1888   1
   1  -3 -18 36.9702 43.4752  -2
  -1  -7   8 36.9702 43.4752   1
   0  -3 -18 143.053 35.9758  -2
   0  -7   8 143.053 35.9758   1
   1  -7   8 5.15154 13.4299   1
   1  -7   8 26.9101 11.8230   2
   2  -7   8 8.51894 13.5640   1
   2  -7   8 -5.1539 11.5010   2
   3  -7   8 117.288 29.6201   2
   3  -7   8 77.1675 19.1363   1
  -3  -6   8 31.1795 13.4905   2
  -3  -6   8 41.3817 26.2932   1
   2  -2 -16 78.1604 38.4043  -2
  -2  -6   8 78.1604 38.4043   1
   1  -2 -16 250.346 38.8790  -2
  -1  -6   8 250.346 38.8790   1
   0  -6   8 402.527 22.2706   2
   0  -6   8 323.994 34.1588   1
   1  -6   8 52.2568 11.5467   2
   1  -6   8 39.8273 13.2120   1
   2  -6   8 350.918 24.0153   2
   2  -6   8 347.574 25.0894   1
  -3  -3 -17 21.3488 21.0888  -2
   3  -6   8 21.3488 21.0888   1
   4  -6   8 55.1562 25.0295   1
   4  -6   8 59.6856 25.9444   2
   4   5  -8 6.32047 23.9233   1
  -4  -5   8 20.8477 21.2640   2
  -4  -5   8 -8.0063 25.5864   1
  -3   1  14 222.112 46.1426  -2
   3   5  -8 222.112 46.1426   1
   3  -1 -14 109.301 43.7196  -2
  -3  -5   8 109.301 43.7196   1
  -2   1  14 351.144 46.6660  -2
   2   5  -8 351.144 46.6660   1
   2  -1 -14 276.578 40.5407  -2
  -2  -5   8 276.578 40.5407   1
   1   5  -8 113.082 22.1152   1
  -1  -5   8 145.783 12.0485   2
  -1  -5   8 92.1259 20.0238   1
   0   5  -8 2.02058 14.7894   1
   0  -5   8 11.8764 8.46088   2
   0  -5   8 10.4224 9.79984   1
  -1   5  -8 222.538 25.7163   1
   1  -5   8 271.496 19.2690   2
   1  -5   8 180.197 17.3748   1
  -2  -2 -15 331.596 24.1710  -2
   2  -5   8 331.596 24.1710   1
   3  -5   8 37.3792 11.9291   2
   3  -5   8 23.2592 12.0325   1
  -4   5  -8 5.27903 13.4197   2
   4  -5   8 22.8750 14.5911   1
   4  -5   8 21.1028 23.0045   2
   5  -5   8 95.0179 27.6355   1
   5  -5   8 86.9540 31.2508   2
  -4   0  12 58.7337 35.3155  -2
   4   4  -8 58.7337 35.3155   1
   4   0 -12 8.18229 34.0201  -2
  -4  -4   8 8.18229 34.0201   1
  -3   0  12 52.0137 42.8277  -2
   3   4  -8 52.0137 42.8277   1
  -3  -4   8 40.4513 21.2286   1
  -3  -4   8 31.9665 11.5479   2
   2   4  -8 1416.61 55.8403   1
  -2  -4   8 1652.49 30.9822   2
  -2  -4   8 1349.77 54.5725   1
   1   4  -8 181.954 25.0322   1
  -1  -4   8 160.083 11.3939   2
  -1  -4   8 158.415 22.7987   1
   0   4  -8 40.4478 14.5899   1
   0   4  -8 26.7605 12.5175   2
   0  -1 -13 106.307 28.8442  -2
   0  -4   8 106.307 28.8442   1
   0  -4   8 20.9417 14.5793   1
   0  -4   8 54.0972 12.3623   2
   1   1  13 142.927 28.7100  -2
  -1   4  -8 142.927 28.7100   1
  -1  -1 -13 111.706 18.8561  -2
   1  -4   8 111.706 18.8561   1
  -2   4  -8 576.865 22.7352   2
  -2   4  -8 548.358 37.2629   1
   2  -4   8 521.101 25.5277   1
   2  -4   8 524.566 24.2536   2
  -3   4  -8 93.2473 13.4984   2
   3  -4   8 95.7841 15.1760   2
   3  -4   8 92.3970 14.6381   1
  -4   4  -8 51.6730 14.5807   2
   4  -4   8 43.4309 22.4765   2
   4  -4   8 45.1607 14.7907   1
  -5  -2 -14 466.253 47.7849  -2
   5  -4   8 466.253 47.7849   1
  -5  -1  10 330.696 45.9321  -2
   5   3  -8 330.696 45.9321   1
   4   3  -8 14.4475 19.5519   1
  -4  -3   8 7.86823 18.3795   2
  -4  -3   8 -3.4267 22.0044   1
   3   3  -8 402.669 37.2507   1
  -3  -3   8 412.466 24.1477   2
  -3  -3   8 386.480 36.3495   1
   2   3  -8 560.063 33.0806   2
   2   3  -8 400.162 32.4402   1
  -2  -3   8 518.405 17.6180   2
  -2  -3   8 422.368 33.2602   1
  -1   0  11 608.419 39.9239  -2
   1   3  -8 608.419 39.9239   1
   1   3  -8 642.474 32.9896   2
   1   0 -11 646.111 36.9097  -2
  -1  -3   8 646.111 36.9097   1
   0   0  11 2518.63 64.1581  -2
   0   3  -8 2518.63 64.1581   1
   0   3  -8 315.275 29.2362   2
   0   0 -11 2394.45 44.7658  -2
   0  -3   8 2394.45 44.7658   1
  -1   3  -8 324.302 18.8802   2
  -1   3  -8 319.875 28.2687   1
   1  -3   8 269.128 16.9283   1
   1  -3   8 327.905 11.9313   2
  -2   3  -8 103.658 13.3594   2
  -2   3  -8 82.6153 18.1589   1
   2  -3   8 78.0246 11.3515   2
   2  -3   8 96.3755 12.5672   1
  -3   3  -8 100.510 14.9288   2
  -3   3  -8 103.999 20.2015   1
   3  -3   8 111.351 12.7147   1
   3  -3   8 113.425 18.8953   2
  -4  -1 -12 499.599 29.2474  -2
   4  -3   8 499.599 29.2474   1
  -5   3  -8 211.653 30.1183   1
  -5   3  -8 257.886 24.9981   2
   5  -3   8 211.849 36.8199   2
   5  -3   8 242.406 32.7087   1
  -6   3  -8 219.288 25.7993   2
   6  -3   8 228.999 36.5102   1
   6  -3   8 235.277 42.1522   2
   5   2  -8 174.613 35.0701   1
  -5  -2   8 150.008 31.7687   2
   4   2  -8 423.820 41.2566   2
   4   2  -8 440.471 41.3759   1
  -4  -2   8 450.034 44.2347   1
  -4  -2   8 470.253 42.8896   2
   3   2  -8 84.0605 19.6578   1
   3   2  -8 168.141 25.7808   2
  -3  -2   8 133.872 16.1487   2
  -3  -2   8 183.246 27.7424   1
  -2  -1   9 686.107 27.7210  -2
   2   2  -8 686.107 27.7210   1
   2   1  -9 702.240 38.7230  -2
  -2  -2   8 702.240 38.7230   1
   1   2  -8 315.165 10.6908   1
   1   1  -9 712.134 35.6362  -2
  -1  -2   8 712.134 35.6362   1
  -1  -2   8 302.719 22.2462   2
  -1  -2   8 269.704 29.6514   1
   0   2  -8 338.283 22.4594   2
   0   2  -8 276.031 15.2495   1
   0  -2   8 335.845 15.9533   2
   0  -2   8 246.599 14.7491   1
  -1   2  -8 1070.40 26.5173   1
  -1   2  -8 1018.76 22.5574   2
   1  -2   8 1049.57 16.3323   2
   1  -2   8 962.743 26.3145   1
  -2   2  -8 431.803 21.4433   2
  -2   2  -8 412.262 29.2963   1
   2  -2   8 424.277 19.9413   2
   2  -2   8 394.155 20.2007   1
   3   0  10 351.814 33.7339  -2
  -3   2  -8 351.814 33.7339   1
  -3   0 -10 343.842 20.1815  -2
   3  -2   8 343.842 20.1815   1
  -4   2  -8 478.129 27.0788   2
  -4   2  -8 471.471 24.5537   1
   4  -2   8 471.755 27.2746   1
   4  -2   8 505.844 41.3045   2
  -5   2  -8 527.407 32.0312   2
  -5   2  -8 446.635 29.0119   1
   5  -2   8 377.713 41.9583   2
   5  -2   8 404.526 28.9493   1
  -6   2  -8 23.9090 18.0117   2
   6  -2   8 37.6345 29.1550   2
   6  -2   8 16.7451 21.2702   1
   5   1  -8 101.075 28.9559   1
   5   1  -8 93.5644 29.8620   2
  -5  -1   8 117.302 30.0172   2
   4   1  -8 431.831 41.6814   2
   4   1  -8 348.552 35.2460   1
  -4  -1   8 488.438 63.1665   1
  -4  -1   8 448.792 39.2628   2
  -3  -2   7 376.974 22.8166  -2
   3   1  -8 376.974 22.8166   1
   3   2  -7 351.497 33.4403  -2
  -3  -1   8 351.497 33.4403   1
   2   1  -8 25.6304 8.33483   1
   2   1  -8 48.5979 14.0396   2
  -2  -1   8 24.4637 12.8978   1
  -2  -1   8 33.8210 8.85975   2
   1   1  -8 125.935 11.7003   2
   1   1  -8 93.3389 7.45087   1
  -1  -1   8 88.6570 6.65503   2
  -1  -1   8 96.8493 14.0667   1
   0   1  -8 1959.00 32.9920   1
   0   1  -8 1903.35 33.2871   2
   0  -1   8 1787.79 31.4007   1
   0  -1   8 2051.68 33.9528   2
  -1   1  -8 169.301 5.16522   1
  -1   1  -8 149.912 18.8015   2
  -1   1  -8 333.126 24.1656  -2
   1  -1   8 333.126 24.1656   1
   1  -1   8 163.663 10.2990   1
   1  -1   8 179.394 12.3186   2
   2  -1   8 656.279 23.6015  -2
  -2   1  -8 656.279 23.6015   1
  -2   1  -8 651.674 20.6052  -2
   2  -1   8 651.674 20.6052   1
  -3   1  -8 102.898 7.70080   2
  -3   1  -8 97.2237 11.8621   1
   3  -1   8 97.2046 7.61349   1
   3  -1   8 124.234 12.6839   2
  -4   1  -8 251.646 20.0808   1
  -4   1  -8 226.966 20.5224   2
   4  -1   8 277.840 23.4116   1
   4  -1   8 239.198 18.5017   2
  -5   1  -8 224.281 23.5762   2
  -5   1  -8 160.050 30.0742   1
   5  -1   8 161.414 21.3645   1
   5  -1   8 170.665 30.7667   2
  -6   0  -9 126.166 28.9672  -2
   6  -1   8 126.166 28.9672   1
   5   0  -8 76.8374 25.7777   1
   5   0  -8 34.4252 27.0099   2
  -5   0   8 20.8033 24.6313   2
  -4  -3   5 448.188 26.0476  -2
   4   0  -8 448.188 26.0476   1
   3   0  -8 188.029 26.9704   2
   3   0  -8 153.456 15.5947   1
  -3   0   8 148.868 24.7625   2
  -3   0   8 170.793 23.8408   1
   2   0  -8 548.665 20.1437   1
   2   0  -8 559.379 21.5768   2
  -2   0   8 605.289 22.6114   2
  -2   0   8 574.168 29.0757   1
   1   0  -8 592.439 14.1297   1
   1   0  -8 597.238 19.1255   2
  -1   0   8 584.797 24.3999   1
  -1   0   8 642.535 19.4728   2
   0  -2   6 1281.70 19.9300  -2
   0   0  -8 1281.70 19.9300   1
   0   0  -8 259.135 19.5396   2
   0   2  -6 1265.18 35.4389  -2
   0   0   8 1265.18 35.4389   1
   0   0   8 222.398 21.1416   1
   1  -2   6 636.546 13.2309  -2
  -1   0  -8 636.546 13.2309   1
  -1   0  -8 256.420 21.4179   2
  -1   2  -6 594.031 26.2421  -2
   1   0   8 594.031 26.2421   1
   1   0   8 318.216 18.6272   2
   1   0   8 290.201 25.9148   1
  -2   0  -8 248.636 14.6393   1
  -2   0  -8 216.967 14.1270   2
   2   0   8 226.419 8.16392   1
   2   0   8 259.748 15.0213   2
  -3   0  -8 311.511 13.6905   1
  -3   0  -8 367.195 17.6633   2
   3   0   8 330.292 18.4265   2
   3   0   8 331.157 11.8557   1
  -4   0  -8 168.989 17.5690   1
  -4   0  -8 156.801 15.6725   2
   4   0   8 138.232 16.2657   2
   4   0   8 127.948 16.3398   1
   5  -1   7 205.248 32.2670  -2
  -5   0  -8 205.248 32.2670   1
  -5   1  -7 203.464 22.2041  -2
   5   0   8 203.464 22.2041   1
  -6   0  -8 141.904 23.3437   2
  -6   0  -8 118.011 32.2061   1
   6   0   8 84.7523 20.6101   1
  -5  -4   3 54.4503 24.1472  -2
   5  -1  -8 54.4503 24.1472   1
   4  -1  -8 94.0520 24.6112   2
   4  -1  -8 97.7956 14.7046   1
  -4   1   8 115.401 24.5979   2
   3  -1  -8 180.824 15.5022   1
   3  -1  -8 197.214 26.5105   2
  -3   1   8 237.095 28.2902   2
   2  -1  -8 989.746 24.7801   1
   2  -1  -8 1043.59 22.6700   2
  -2   1   8 1060.70 41.3643   2
  -2   1   8 1019.64 26.2665   1
  -1  -3   4 976.202 17.8193  -2
   1  -1  -8 976.202 17.8193   1
   1   3  -4 987.243 29.7022  -2
  -1   1   8 987.243 29.7022   1
   0  -1  -8 84.4078 4.92557   1
   0  -1  -8 101.687 9.24123   2
   0   3  -4 355.416 20.6739  -2
   0   1   8 355.416 20.6739   1
   0   1   8 82.6704 6.96454   2
  -1  -1  -8 31.8163 4.57205   1
  -1  -1  -8 35.2205 6.52589   2
   1   1   8 40.0168 5.21050   1
   1   1   8 36.3108 9.99099   2
  -2  -1  -8 2526.33 25.2181   2
  -2  -1  -8 2461.19 38.9505   1
   2   1   8 2492.78 28.1855   1
   2   1   8 2840.55 42.3319   2
  -3  -1  -8 185.867 11.9188   1
  -3  -1  -8 181.974 13.0213   2
   3   1   8 177.048 15.1562   2
   3   1   8 195.874 12.0565   1
   4  -2   5 265.910 38.7604  -2
  -4  -1  -8 265.910 38.7604   1
  -4   2  -5 370.554 27.3028  -2
   4   1   8 370.554 27.3028   1
  -5  -1  -8 70.6511 25.7139   1
  -5  -1  -8 104.713 18.1221   2
   5   1   8 106.434 22.2465   2
   5   1   8 97.8608 18.4607   1
  -6  -1  -8 16.3920 19.4899   2
  -6  -1  -8 -2.5209 24.8946   1
   6   1   8 27.1932 17.3393   1
   6   1   8 23.6320 26.1264   2
   5  -2  -8 36.3934 14.8936   1
   5  -2  -8 92.5787 30.5352   2
  -5   2   8 37.7775 19.3843   2
  -5   2   8 -7.9885 33.3810   1
   4  -2  -8 33.2938 12.0652   1
   4  -2  -8 44.3024 22.5987   2
  -4   2   8 38.7849 15.2362   2
  -4   2   8 52.1740 32.2459   1
   3  -2  -8 687.349 28.4584   2
   3  -2  -8 640.211 23.1872   1
  -3   2   8 764.871 30.7040   2
  -3   2   8 657.969 54.2087   1
  -2  -4   2 775.874 16.4559  -2
   2  -2  -8 775.874 16.4559   1
   2   4  -2 866.464 51.7772  -2
  -2   2   8 866.464 51.7772   1
   1  -2  -8 156.565 9.03026   2
   1  -2  -8 154.467 6.91233   1
  -1   2   8 150.099 10.8236   1
  -1   2   8 160.535 7.52529   2
   0  -2  -8 8.97200 3.07225   1
   0  -2  -8 4.39839 3.73814   2
   0   2   8 7.33587 4.39065   1
   0   2   8 16.3212 5.28190   2
  -1  -2  -8 1377.24 17.4813   1
  -1  -2  -8 1420.18 16.0483   2
   1   2   8 1504.26 22.1914   2
   1   2   8 1435.61 23.4953   1
   2  -3   3 2348.87 39.8040  -2
  -2  -2  -8 2348.87 39.8040   1
  -2  -2  -8 1152.64 18.1038   2
   2   2   8 1236.17 22.8191   1
   2   2   8 1287.42 36.0233   2
  -2   3  -3 2469.72 53.6658  -2
   2   2   8 2469.72 53.6658   1
   3  -3   3 1061.62 32.0809  -2
  -3  -2  -8 1061.62 32.0809   1
  -3   3  -3 1107.21 32.5771  -2
   3   2   8 1107.21 32.5771   1
  -4  -2  -8 0.03601 10.8441   2
  -4  -2  -8 27.9888 19.1042   1
   4   2   8 10.1772 8.10238   1
   4   2   8 -5.5144 16.3852   2
  -5  -2  -8 181.431 20.4570   2
  -5  -2  -8 138.576 29.3157   1
   5   2   8 189.056 31.2063   2
   5   2   8 205.385 21.5234   1
  -6  -2  -8 314.391 40.6928   1
  -6  -2  -8 382.495 41.3857   2
   6   2   8 334.363 28.7082   1
   6   2   8 360.869 46.9236   2
   5  -3  -8 -15.687 12.5616   1
   5  -3  -8 -6.7835 23.2225   2
  -5   3   8 24.2947 33.7121   1
   4  -3  -8 140.983 29.7031   2
   4  -3  -8 204.257 18.2179   1
  -4   3   8 191.189 39.5680   1
  -4   3   8 193.823 32.3847   2
  -3  -5   0 730.844 23.9767  -2
   3  -3  -8 730.844 23.9767   1
   3   5   0 820.882 59.4367  -2
  -3   3   8 820.882 59.4367   1
   2  -3  -8 212.774 9.36904   1
   2  -3  -8 245.510 16.4606   2
  -2   3   8 271.291 32.3919   1
  -2   3   8 265.625 14.6923   2
   1  -3  -8 270.903 7.19193   1
   1  -3  -8 264.318 11.3602   2
  -1   3   8 318.720 11.5682   2
  -1   3   8 258.793 25.1329   1
   0  -3  -8 5.57797 2.91276   1
   0  -3  -8 9.91877 2.87625   2
   0   3   8 8.45172 5.63559   2
   0   3   8 9.08523 9.26529   1
   1  -4   1 1751.86 21.0816  -2
  -1  -3  -8 1751.86 21.0816   1
  -1   4  -1 1869.73 27.8865  -2
   1   3   8 1869.73 27.8865   1
   2  -4   1 1010.12 28.0683  -2
  -2  -3  -8 1010.12 28.0683   1
  -2   4  -1 1269.38 27.8318  -2
   2   3   8 1269.38 27.8318   1
  -3  -3  -8 83.7899 9.16003   2
  -3  -3  -8 79.0670 12.0394   1
   3   3   8 100.824 11.9088   1
   3   3   8 79.8288 20.5086   2
  -4  -3  -8 247.735 19.4724   2
  -4  -3  -8 206.281 19.4849   1
   4   3   8 229.891 32.4339   2
   4   3   8 218.466 25.9952   1
  -5  -3  -8 207.532 20.8682   2
  -5  -3  -8 106.707 28.3728   1
   5   3   8 227.221 23.3570   1
   5   3   8 153.634 31.0871   2
   6  -3   2 12.9865 23.7218  -2
  -6  -3  -8 12.9865 23.7218   1
  -6   3  -2 39.4075 20.0755  -2
   6   3   8 39.4075 20.0755   1
  -5  -6  -2 58.2020 29.9559  -2
   5  -4  -8 58.2020 29.9559   1
   5   6   2 13.3103 72.8819  -2
  -5   4   8 13.3103 72.8819   1
  -4  -6  -2 576.224 27.9542  -2
   4  -4  -8 576.224 27.9542   1
   4   6   2 496.571 61.8010  -2
  -4   4   8 496.571 61.8010   1
   3  -4  -8 193.324 18.1701   2
   3  -4  -8 191.534 13.8348   1
  -3   4   8 231.542 30.8112   2
  -3   4   8 243.937 36.4405   1
   2  -4  -8 97.1326 6.11912   1
   2  -4  -8 103.500 12.9995   2
  -2   4   8 102.503 19.2143   2
  -2   4   8 81.1941 24.9965   1
   1  -4  -8 202.373 5.81184   1
   1  -4  -8 228.814 11.7359   2
  -1   4   8 283.330 23.7330   2
  -1   4   8 216.754 25.4402   1
   0  -5  -1 1928.56 17.6012  -2
   0  -4  -8 1928.56 17.6012   1
   0   5   1 2169.64 53.8794  -2
   0   4   8 2169.64 53.8794   1
  -1  -4  -8 5.41510 4.74340   1
  -1  -4  -8 11.2534 3.18759   2
   1  -5  -1 431.953 29.7887  -2
  -1  -4  -8 431.953 29.7887   1
   1   4   8 9.91791 8.92363   2
   1   4   8 9.58446 10.5783   1
  -2  -4  -8 293.575 9.74187   2
  -2  -4  -8 276.076 16.7130   1
   2   4   8 314.568 23.5887   1
   2   4   8 324.789 31.3628   2
  -3  -4  -8 94.8503 11.7111   2
  -3  -4  -8 76.6183 12.7714   1
   3   4   8 69.5674 25.9244   1
   3   4   8 63.5572 20.9371   2
  -4  -4  -8 71.4059 14.4214   1
   5  -4   0 530.973 53.4016  -2
  -5  -4  -8 530.973 53.4016   1
  -6  -4  -8 83.5171 31.4260   1
  -6  -4  -8 161.240 22.4085   2
   6   4   8 176.475 39.6840   2
   4  -5  -8 192.051 23.9144   1
   4  -5  -8 138.720 30.3916   2
  -4   5   8 136.048 37.3740   1
   3  -5  -8 75.4889 14.2632   2
   3  -5  -8 56.7348 13.5689   1
  -3   5   8 83.1973 29.2750   1
   2  -5  -8 159.946 14.6980   2
   2  -5  -8 138.577 6.99372   1
  -2   5   8 206.906 32.0658   1
  -2   5   8 178.669 23.6067   2
  -1  -6  -3 563.528 33.5801  -2
   1  -5  -8 563.528 33.5801   1
   1   6   3 584.290 34.9768  -2
  -1   5   8 584.290 34.9768   1
   0  -5  -8 14.7348 4.24437   2
   0  -5  -8 16.0036 3.21165   1
   0   5   8 16.7317 13.0795   1
   0   5   8 51.9827 14.3015   2
  -1  -5  -8 48.4997 3.79318   2
  -1  -5  -8 39.8688 6.28276   1
   1   5   8 21.2439 12.7214   1
   1   5   8 92.6930 16.7930   2
  -2  -5  -8 169.343 8.23419   2
  -2  -5  -8 128.833 12.2925   1
   2   5   8 170.486 25.7124   2
   3  -5  -2 850.286 34.0607  -2
  -3  -5  -8 850.286 34.0607   1
   4  -5  -2 927.221 38.3512  -2
  -4  -5  -8 927.221 38.3512   1
  -5  -5  -8 65.3713 29.2060   1
  -5  -5  -8 77.0956 15.7663   2
   5   5   8 87.6484 34.4300   2
   4  -6  -8 241.759 24.0187   2
   4  -6  -8 262.385 26.2315   1
  -4   6   8 274.276 45.6951   1
   3  -6  -8 8.10343 13.4170   2
  -3  -7  -5 11.3099 26.6132  -2
   3  -6  -8 11.3099 26.6132   1
   3   7   5 38.4688 47.5158  -2
  -3   6   8 38.4688 47.5158   1
  -2  -7  -5 223.823 11.3486  -2
   2  -6  -8 223.823 11.3486   1
   1  -6  -8 12.5205 7.79708   2
   1  -6  -8 25.3348 14.7405   1
  -1   6   8 14.5147 12.5914   2
   0  -6  -8 167.987 7.11885   1
   0  -6  -8 169.522 7.91201   2
  -1  -6  -8 75.8650 5.42403   2
  -1  -6  -8 86.2110 7.64149   1
   2  -6  -4 469.912 25.2056  -2
  -2  -6  -8 469.912 25.2056   1
   3  -6  -4 26.2590 22.9881  -2
  -3  -6  -8 26.2590 22.9881   1
  -4  -6  -8 65.1928 15.4719   1
  -4  -6  -8 100.379 13.5524   2
   4   6   8 159.528 33.9088   2
  -5  -6  -8 13.7649 13.0354   2
  -5  -6  -8 24.0928 25.0218   1
   5   6   8 38.4094 28.6803   2
  -3  -8  -7 25.6151 22.9330  -2
   3  -7  -8 25.6151 22.9330   1
   2  -7  -8 29.2713 11.3701   2
  -2   7   8 3.90665 22.6336   1
   1  -7  -8 61.3148 10.2470   2
   1  -7  -8 46.1815 19.5054   1
  -1   7   8 76.2807 16.5456   2
   0  -7  -8 34.9834 5.72895   1
   0  -7  -8 51.3696 7.18195   2
   1  -7  -6 237.812 17.2074  -2
  -1  -7  -8 237.812 17.2074   1
  -2  -7  -8 381.389 28.7709   1
  -2  -7  -8 388.487 10.9844   2
   2  -7  -6 709.126 51.1613  -2
  -2  -7  -8 709.126 51.1613   1
  -3  -7  -8 1.22355 11.3008   1
  -3  -7  -8 30.4431 12.3500   2
   3   7   8 12.2877 22.6890   2
  -4  -7  -8 176.494 24.4699   2
  -4  -7  -8 164.702 20.9086   1
   4   7   8 226.368 38.5169   2
   2  -8  -8 19.2033 11.8069   2
   2  -8  -8 28.0577 5.11772   1
   1  -8  -8 159.259 19.1748   2
   1  -8  -8 187.898 8.05603   1
  -1   8   8 243.203 24.6178   2
   0  -8  -8 15.5276 9.38387  -2
   0  -8  -8 15.5276 9.38387   1
  -1  -8  -8 346.209 9.16158   2
  -1  -8  -8 277.871 23.7030   1
   1   8   8 271.995 25.0616   1
  -2  -8  -8 16.6643 4.44833   2
  -2  -8  -8 11.9118 11.0971   1
  -3  -8  -8 160.289 18.1421   2
  -3  -8  -8 122.416 17.2125   1
   3   8   8 169.247 36.5153   2
  -1  -9 -10 334.545 19.5516  -2
   1  -9  -8 334.545 19.5516   1
   0  -9  -8 68.2834 13.6447   1
   0  -9  -8 48.7669 11.9061   2
  -1  -9  -8 303.741 9.68866   2
  -1  -9  -8 223.009 22.7375   1
  -2  -9  -8 81.3715 19.9902   1
  -1  -7   9 12.8542 20.1863   1
  -1  -7   9 18.7885 12.5298   2
   0  -7   9 0.04746 13.9519   2
   0  -7   9 8.98351 18.8362   1
  -1  -3 -19 38.5923 30.2431  -2
   1  -7   9 38.5923 30.2431   1
   2  -7   9 488.167 30.2286   2
   2  -7   9 352.071 39.0037   1
  -3  -6   9 10.5183 13.2194   2
  -3  -6   9 -6.5395 22.5105   1
  -2  -6   9 126.822 27.6444   1
  -2  -6   9 151.777 17.9887   2
   1  -2 -17 163.693 41.4907  -2
  -1  -6   9 163.693 41.4907   1
  -1  -6   9 3.94571 15.3455   2
   0  -2 -17 349.008 38.1977  -2
   0  -6   9 349.008 38.1977   1
   1  -6   9 126.310 16.1066   2
   1  -6   9 65.1766 19.2696   1
   2  -6   9 24.9163 12.6271   2
   2  -6   9 32.0661 18.7876   1
   3  -6   9 8.54408 18.2298   1
   3  -6   9 21.0050 20.9274   2
   4  -6   9 77.7369 29.0824   2
   4  -6   9 122.110 29.8560   1
   3   5  -9 7.42381 20.8206   1
  -3  -5   9 -20.742 18.4402   1
  -3  -5   9 13.0407 12.2033   2
  -2   1  15 3.99600 42.3692  -2
   2   5  -9 3.99600 42.3692   1
   2  -1 -15 14.6109 35.4484  -2
  -2  -5   9 14.6109 35.4484   1
  -1   1  15 731.941 49.1072  -2
   1   5  -9 731.941 49.1072   1
   1  -1 -15 609.585 44.6724  -2
  -1  -5   9 609.585 44.6724   1
   0   5  -9 7.67118 16.4726   1
   0  -5   9 46.1886 16.1773   1
   0  -5   9 47.3988 10.8732   2
  -1   5  -9 86.4033 20.6639   1
   1  -5   9 126.918 14.5978   2
   1  -5   9 99.4313 17.0404   1
   2  -5   9 109.507 15.9601   1
   2  -5   9 111.108 15.0437   2
  -3  -2 -16 36.7772 25.8767  -2
   3  -5   9 36.7772 25.8767   1
  -4   5  -9 475.099 31.3487   2
   4  -5   9 393.773 40.0505   1
   4  -5   9 419.225 45.1853   2
   4   4  -9 521.263 49.7799   1
  -4  -4   9 458.652 49.8562   1
  -4  -4   9 455.160 44.5334   2
  -3   0  13 286.438 43.3684  -2
   3   4  -9 286.438 43.3684   1
   3   0 -13 314.894 42.7154  -2
  -3  -4   9 314.894 42.7154   1
  -2   0  13 516.247 47.6527  -2
   2   4  -9 516.247 47.6527   1
   2   0 -13 473.178 45.5501  -2
  -2  -4   9 473.178 45.5501   1
   1   4  -9 92.1392 21.2490   1
  -1  -4   9 39.5715 16.1199   1
  -1  -4   9 68.2028 8.94042   2
   0   4  -9 212.622 16.5368   2
   0   4  -9 169.992 22.8074   1
   0  -4   9 152.183 21.6448   1
   0  -4   9 172.887 15.5358   2
  -1   4  -9 33.2681 16.5072   1
  -1   4  -9 68.3076 11.3397   2
   1  -4   9 75.3078 12.8632   1
   1  -4   9 83.1451 12.8690   2
   2   1  14 999.857 47.0081  -2
  -2   4  -9 999.857 47.0081   1
  -2  -1 -14 755.480 30.7325  -2
   2  -4   9 755.480 30.7325   1
  -3   4  -9 260.833 19.8202   2
   3  -4   9 238.902 30.7907   2
   3  -4   9 210.659 20.4733   1
  -4   4  -9 109.380 17.3062   2
   4  -4   9 111.767 26.4060   2
   4  -4   9 86.3683 22.8963   1
  -5   4  -9 53.9327 26.7523   2
   5  -4   9 30.9616 26.3902   2
   5  -4   9 35.2330 23.1219   1
  -4  -1  11 329.219 41.9059  -2
   4   3  -9 329.219 41.9059   1
   4   1 -11 384.549 45.6731  -2
  -4  -3   9 384.549 45.6731   1
   3   3  -9 341.792 36.5266   1
  -3  -3   9 295.526 34.2322   1
  -3  -3   9 341.671 34.5959   2
   2   3  -9 -0.0704 13.0282   1
   2   3  -9 9.77758 14.1159   2
  -2  -3   9 22.5831 7.29941   2
  -2  -3   9 44.0969 16.5401   1
   1   3  -9 235.896 16.8037   2
   1   3  -9 186.852 24.0086   1
  -1  -3   9 276.875 13.6033   2
  -1  -3   9 220.055 24.0036   1
   0   3  -9 34.2307 18.6747   2
   0   3  -9 70.9918 16.1898   1
   0  -3   9 72.2488 15.7089   1
   1   0  12 715.180 40.9530  -2
  -1   3  -9 715.180 40.9530   1
  -1   0 -12 597.620 27.7408  -2
   1  -3   9 597.620 27.7408   1
  -2   3  -9 222.115 18.5362   2
  -2   3  -9 204.282 25.2274   1
   2  -3   9 201.380 15.9062   2
   2  -3   9 265.835 19.6474   1
  -3   3  -9 117.211 16.0200   2
  -3   3  -9 99.5364 20.8184   1
   3  -3   9 118.589 14.1639   1
   3  -3   9 142.568 24.6018   2
  -4   3  -9 201.474 29.6563   1
  -4   3  -9 223.450 21.5946   2
   4  -3   9 195.194 21.1070   1
   4  -3   9 190.253 31.4241   2
  -5  -1 -13 32.0512 33.6044  -2
   5  -3   9 32.0512 33.6044   1
  -5  -2   9 922.531 63.6771  -2
   5   2  -9 922.531 63.6771   1
   4   2  -9 184.234 45.8376   2
   4   2  -9 142.863 26.7970   1
  -4  -2   9 165.172 29.4836   2
  -4  -2   9 174.745 32.5782   1
   3   2  -9 60.3065 18.4967   1
   3   2  -9 122.122 23.7101   2
  -3  -2   9 82.1743 20.1387   2
  -3  -2   9 89.7192 22.3883   1
   2   2  -9 12.3517 12.8714   2
   2   2  -9 10.2320 12.5051   1
  -2  -2   9 21.0557 13.5254   1
  -2  -2   9 20.4885 9.58142   2
  -1  -1  10 1476.57 35.6115  -2
   1   2  -9 1476.57 35.6115   1
   1   1 -10 1439.60 48.8482  -2
  -1  -2   9 1439.60 48.8482   1
   0  -1  10 468.992 22.8712  -2
   0   2  -9 468.992 22.8712   1
   0   1 -10 421.534 29.9723  -2
   0  -2   9 421.534 29.9723   1
  -1   2  -9 703.842 24.1545   1
  -1   2  -9 738.182 26.2583   2
   1  -2   9 665.857 15.5889   1
   1  -2   9 740.991 13.9746   2
  -2   2  -9 448.663 22.7736   2
  -2   2  -9 456.173 31.7600   1
   2  -2   9 446.399 21.4693   2
   2  -2   9 382.432 20.2229   1
  -3   2  -9 75.0719 14.5291   2
  -3   2  -9 114.103 21.9097   1
   3  -2   9 85.1908 12.5776   1
   3  -2   9 62.3157 20.9550   2
   4   0  11 738.638 29.6032  -2
  -4   2  -9 738.638 29.6032   1
  -4   0 -11 730.918 33.1261  -2
   4  -2   9 730.918 33.1261   1
  -5   2  -9 22.1627 15.5023   2
  -5   2  -9 28.1808 22.9950   1
   5  -2   9 39.8238 15.1971   1
   5  -2   9 17.7097 22.8258   2
  -6   2  -9 39.8157 20.0956   2
   6  -2   9 13.0035 17.3847   1
   6  -2   9 56.4751 29.1985   2
   5   1  -9 115.211 31.1167   1
   5   1  -9 171.177 37.7944   2
  -5  -1   9 131.344 32.0641   2
   4   1  -9 405.246 39.2258   1
   4   1  -9 404.797 40.3493   2
  -4  -1   9 395.470 39.3464   2
   3   1  -9 337.995 21.8847   1
   3   1  -9 409.455 36.7080   2
  -3  -1   9 370.125 35.4816   2
  -3  -1   9 364.827 34.1911   1
  -2  -2   8 710.453 27.1056  -2
   2   1  -9 710.453 27.1056   1
   2   2  -8 635.532 37.1507  -2
  -2  -1   9 635.532 37.1507   1
   1   1  -9 384.267 24.9276   1
  -1  -2   8 734.804 21.5561  -2
   1   1  -9 734.804 21.5561   1
  -1  -1   9 415.370 12.1392   2
   1   2  -8 761.959 37.1089  -2
  -1  -1   9 761.959 37.1089   1
   0   1  -9 207.991 14.9397   2
   0   1  -9 214.854 14.1713   1
   0  -1   9 183.804 13.3491   1
   0  -1   9 222.623 14.2077   2
  -1   1  -9 432.110 12.7702   2
  -1   1  -9 428.661 8.89486   1
   1  -1   9 430.786 12.2545   1
   1  -1   9 452.535 18.0776   2
  -2   1  -9 974.927 27.4526   1
  -2   1  -9 935.498 23.7785   2
   2  -1   9 975.500 24.5367   1
   2  -1   9 1043.24 28.4102   2
   3  -1   9 69.4653 27.5226  -2
  -3   1  -9 69.4653 27.5226   1
  -3   1  -9 24.8798 16.7344  -2
   3  -1   9 24.8798 16.7344   1
  -4   1  -9 464.711 38.5039   1
  -4   1  -9 556.692 29.5880   2
   4  -1   9 458.679 26.7013   1
   4  -1   9 490.858 40.9218   2
  -5   1  -9 397.706 29.4523   2
  -5   1  -9 252.192 36.3179   1
   5  -1   9 308.075 25.9062   1
   5  -1   9 341.308 38.5069   2
  -6   1  -9 34.5576 19.0855   2
   6  -1   9 10.9704 17.5695   1
   6  -1   9 24.7379 26.1838   2
   5   0  -9 -14.559 20.2356   1
   5   0  -9 13.1959 25.4909   2
  -5   0   9 -1.8506 22.8461   2
   4   0  -9 128.446 17.4664   1
   4   0  -9 138.014 28.8849   2
  -4   0   9 118.556 27.5967   2
  -3  -3   6 871.464 29.8650  -2
   3   0  -9 871.464 29.8650   1
   2   0  -9 107.172 12.2999   1
   2   0  -9 121.434 20.0614   2
  -2   0   9 76.5133 16.0396   1
  -2   0   9 66.1437 17.0371   2
   1   0  -9 134.933 8.68347   1
   1   0  -9 129.984 11.5254   2
  -1   0   9 129.558 6.29129   2
  -1   0   9 139.179 10.1294   1
   0   0  -9 5.25662 6.06181   2
   0   0  -9 1.63484 3.95687   1
   0   0   9 0.23901 4.97135   2
   0   0   9 8.66919 5.85105   1
   1  -2   7 1113.60 42.2760  -2
  -1   0  -9 1113.60 42.2760   1
  -1   0  -9 158.721 12.2606   2
  -1   0  -9 159.081 8.25299   1
   1   0   9 196.725 12.9693   2
  -1   2  -7 985.244 35.4865  -2
   1   0   9 985.244 35.4865   1
   1   0   9 137.018 19.4383   1
   2  -2   7 408.563 20.9961  -2
  -2   0  -9 408.563 20.9961   1
  -2   2  -7 362.612 12.3399  -2
   2   0   9 362.612 12.3399   1
  -3   0  -9 189.190 14.5259   2
  -3   0  -9 180.366 10.9708   1
   3   0   9 193.393 10.4984   1
   3   0   9 202.638 15.9474   2
  -4   0  -9 556.208 42.8150   1
  -4   0  -9 619.094 30.4639   2
   4   0   9 651.253 27.7613   2
   4   0   9 574.704 29.7705   1
  -5   0  -9 45.7184 23.4046   1
  -5   0  -9 12.6958 13.3544   2
   5   0   9 26.2831 14.1201   2
   5   0   9 9.12966 14.1047   1
   6  -1   8 33.9774 43.4066  -2
  -6   0  -9 33.9774 43.4066   1
  -6   1  -8 113.799 27.8005  -2
   6   0   9 113.799 27.8005   1
   5  -1  -9 113.632 32.8675   2
   5  -1  -9 135.071 20.5873   1
  -5   1   9 105.929 29.2446   2
  -4  -4   4 404.161 25.0918  -2
   4  -1  -9 404.161 25.0918   1
   3  -1  -9 319.545 19.7376   1
   3  -1  -9 346.266 35.0336   2
  -3   1   9 432.979 35.7078   2
   2  -1  -9 29.3367 8.21722   1
   2  -1  -9 53.8970 10.9191   2
  -2   1   9 25.0657 15.0880   2
  -2   1   9 70.7737 14.5779   1
   1  -1  -9 347.889 16.3384   2
   1  -1  -9 362.565 10.4565   1
  -1   1   9 399.536 7.67202   2
  -1   1   9 378.786 20.4789   1
   0  -3   5 1119.42 15.3202  -2
   0  -1  -9 1119.42 15.3202   1
   0   3  -5 1174.39 33.2644  -2
   0   1   9 1174.39 33.2644   1
   1  -3   5 452.613 13.6633  -2
  -1  -1  -9 452.613 13.6633   1
  -1   3  -5 501.315 25.0640  -2
   1   1   9 501.315 25.0640   1
   1   1   9 39.9354 12.3105   1
   1   1   9 29.6775 10.7385   2
  -2  -1  -9 973.038 25.8468   1
  -2  -1  -9 1002.43 14.2333   2
   2   1   9 982.727 18.3564   1
   2   1   9 1024.42 37.5070   2
  -3  -1  -9 50.4149 10.8574   1
  -3  -1  -9 41.5168 9.35574   2
   3   1   9 44.2586 7.54129   1
   3   1   9 45.1533 11.0409   2
  -4  -1  -9 706.895 25.4329   2
  -4  -1  -9 623.610 45.4028   1
   4   1   9 706.468 22.9768   1
   4   1   9 759.714 29.6862   2
   5  -2   6 543.690 48.8343  -2
  -5  -1  -9 543.690 48.8343   1
  -5   2  -6 526.487 31.6890  -2
   5   1   9 526.487 31.6890   1
  -6  -1  -9 -2.8173 24.8273   1
  -6  -1  -9 48.9253 24.9733   2
   6   1   9 46.9438 18.9999   1
   6   1   9 35.8044 23.8564   2
  -5  -5   2 634.923 34.6894  -2
   5  -2  -9 634.923 34.6894   1
   5   5  -2 735.379 78.5085  -2
  -5   2   9 735.379 78.5085   1
   4  -2  -9 26.9811 11.7285   1
   4  -2  -9 12.0382 18.9350   2
  -4   2   9 14.1540 32.0359   1
  -4   2   9 29.1876 21.3367   2
   3  -2  -9 426.172 20.7884   1
   3  -2  -9 441.327 36.8872   2
  -3   2   9 454.471 37.0456   2
  -3   2   9 442.456 46.6371   1
   2  -2  -9 333.882 15.8101   2
   2  -2  -9 305.214 15.4139   1
  -2   2   9 347.183 28.8230   2
  -2   2   9 351.770 38.2841   1
  -1  -4   3 1761.43 22.8262  -2
   1  -2  -9 1761.43 22.8262   1
   1   4  -3 1995.48 61.7240  -2
  -1   2   9 1995.48 61.7240   1
   0  -2  -9 2600.46 22.3979   1
   0  -2  -9 2601.96 29.8186   2
   0   2   9 2888.23 36.0774   2
   0   2   9 2690.68 33.0769   1
  -1  -2  -9 547.852 12.0878   1
  -1  -2  -9 575.980 11.0713   2
   1   2   9 594.589 16.2204   1
   1   2   9 647.828 15.5078   2
  -2  -2  -9 13.2775 7.10710   1
  -2  -2  -9 23.6809 4.39028   2
   2   2   9 11.7468 5.11639   1
   2   2   9 15.0600 10.3255   2
  -3  -2  -9 204.986 11.6736   2
  -3  -2  -9 192.715 15.8337   1
   3   2   9 191.713 11.8935   1
   3   2   9 228.545 17.1842   2
   4  -3   4 1031.85 52.5137  -2
  -4  -2  -9 1031.85 52.5137   1
  -4   3  -4 1121.84 36.2719  -2
   4   2   9 1121.84 36.2719   1
  -5  -2  -9 134.187 18.8279   2
  -5  -2  -9 100.523 27.3344   1
   5   2   9 84.6902 16.4522   1
   5   2   9 137.268 29.9967   2
  -6  -2  -9 5.79481 20.0762   2
  -6  -2  -9 0.78194 25.9245   1
   6   2   9 15.1796 17.2042   1
   6   2   9 4.70415 24.6953   2
   5  -3  -9 204.958 37.4849   2
   5  -3  -9 203.266 21.1096   1
  -5   3   9 331.212 55.3614   1
   4  -3  -9 145.934 16.5553   1
   4  -3  -9 168.133 31.7863   2
  -4   3   9 186.854 23.5066   2
  -4   3   9 138.312 39.6866   1
   3  -3  -9 86.9118 11.4768   1
   3  -3  -9 75.7530 13.8827   2
  -3   3   9 89.8599 16.0474   2
  -3   3   9 72.1994 31.8234   1
  -2  -5   1 1116.34 18.7294  -2
   2  -3  -9 1116.34 18.7294   1
   2   5  -1 1163.73 57.3434  -2
  -2   3   9 1163.73 57.3434   1
   1  -3  -9 2615.15 23.6916   1
   1  -3  -9 2582.71 39.4798   2
  -1   3   9 3016.26 31.9509   2
  -1   3   9 2713.10 66.1115   1
   0  -3  -9 30.1837 4.07721   1
   0  -3  -9 31.2604 5.27784   2
   0   3   9 49.8059 7.78326   2
   0   3   9 47.8096 12.4093   1
  -1  -3  -9 504.208 10.8747   2
  -1  -3  -9 503.025 11.9743   1
   1   3   9 595.582 16.1001   2
   1   3   9 532.139 15.7554   1
   2  -4   2 762.423 26.5686  -2
  -2  -3  -9 762.423 26.5686   1
  -2   4  -2 861.308 24.4714  -2
   2   3   9 861.308 24.4714   1
   3  -4   2 1653.26 39.7165  -2
  -3  -3  -9 1653.26 39.7165   1
  -3   4  -2 1812.90 37.2468  -2
   3   3   9 1812.90 37.2468   1
  -4  -3  -9 92.8567 14.9124   1
  -4  -3  -9 117.790 14.9440   2
   4   3   9 103.957 25.1024   2
   4   3   9 75.8239 20.4134   1
  -5  -3  -9 25.5308 14.0937   2
  -5  -3  -9 -8.0456 19.6158   1
   5   3   9 27.1813 24.6126   2
   5   3   9 36.2006 20.5298   1
  -6  -3  -9 117.747 32.5889   1
  -6  -3  -9 106.148 24.3612   2
   6   3   9 150.270 30.8588   1
   6   3   9 115.228 35.6847   2
   5  -4  -9 212.004 21.4914   1
   5  -4  -9 188.391 38.4198   2
  -5   4   9 218.493 50.2233   1
   4  -4  -9 42.9871 12.0003   1
  -4   4   9 9.56531 29.4396   1
  -3  -6  -1 282.371 17.2873  -2
   3  -4  -9 282.371 17.2873   1
   3   6   1 305.291 48.7383  -2
  -3   4   9 305.291 48.7383   1
   2  -4  -9 1032.98 30.4971   2
   2  -4  -9 956.826 14.8775   1
  -2   4   9 997.063 53.3589   1
  -2   4   9 1131.22 47.1738   2
   1  -4  -9 109.446 5.55716   1
   1  -4  -9 120.349 11.4345   2
  -1   4   9 124.569 22.7375   1
  -1   4   9 111.674 17.3254   2
   0  -4  -9 45.1362 4.18282   2
   0  -4  -9 36.1697 4.62774   1
   0   4   9 37.8207 12.3595   2
   0   4   9 55.2111 13.1021   1
   1  -5   0 213.349 13.4814  -2
  -1  -4  -9 213.349 13.4814   1
  -1   5   0 243.489 26.3360  -2
   1   4   9 243.489 26.3360   1
   2  -5   0 1074.48 30.1667  -2
  -2  -4  -9 1074.48 30.1667   1
  -2   5   0 1404.52 48.4137  -2
   2   4   9 1404.52 48.4137   1
  -3  -4  -9 482.419 17.1261   2
  -3  -4  -9 461.979 23.3398   1
   3   4   9 515.321 40.2887   2
  -4  -4  -9 43.1082 12.1149   2
  -4  -4  -9 13.6600 11.8229   1
   4   4   9 40.2392 23.1866   2
  -5  -4  -9 -3.3911 11.6302   2
  -5  -4  -9 -14.461 20.7071   1
   5   4   9 10.6076 23.7888   2
   6  -4   1 -5.6749 24.3188  -2
  -6  -4  -9 -5.6749 24.3188   1
  -4  -7  -3 33.7835 28.4426  -2
   4  -5  -9 33.7835 28.4426   1
   4   7   3 20.6686 47.5998  -2
  -4   5   9 20.6686 47.5998   1
   3  -5  -9 63.5288 14.1119   2
   3  -5  -9 25.5978 12.9556   1
  -3   5   9 27.8012 26.4806   1
  -3   5   9 42.6622 20.1748   2
   2  -5  -9 271.366 18.7283   2
   2  -5  -9 263.023 9.78864   1
  -2   5   9 366.199 38.4430   1
  -2   5   9 379.994 30.8208   2
   1  -5  -9 61.8717 9.95650   2
   1  -5  -9 39.0498 14.9353   1
  -1   5   9 54.4337 19.0847   1
   0  -6  -2 1011.31 13.3055  -2
   0  -5  -9 1011.31 13.3055   1
  -1  -5  -9 109.476 7.54081   2
   1  -6  -2 172.541 20.7506  -2
  -1  -5  -9 172.541 20.7506   1
  -1  -5  -9 89.1713 11.9085   1
   1   5   9 118.871 18.4732   2
  -2  -5  -9 725.232 24.2102   1
  -2  -5  -9 803.115 15.5422   2
  -3  -5  -9 51.8516 12.3501   1
  -3  -5  -9 46.6310 9.48058   2
   3   5   9 60.8947 22.0169   2
   4  -5  -1 26.9841 43.4652  -2
  -4  -5  -9 26.9841 43.4652   1
  -4  -5  -9 43.7360 17.4476   1
   5  -5  -1 217.044 44.3181  -2
  -5  -5  -9 217.044 44.3181   1
   4  -6  -9 85.5795 19.3665   1
   4  -6  -9 67.3557 19.1510   2
  -4   6   9 22.4572 36.4497   1
   3  -6  -9 32.9874 13.2509   2
   3  -6  -9 30.6111 12.4984   1
  -3   6   9 3.58271 25.5139   1
   2  -6  -9 10.1515 9.74333   2
   2  -6  -9 6.86937 3.89678   1
  -2   6   9 14.1556 15.6653   2
  -2   6   9 9.84381 20.7744   1
  -1  -7  -4 90.2366 22.8821  -2
   1  -6  -9 90.2366 22.8821   1
   1   7   4 80.6717 27.5982  -2
  -1   6   9 80.6717 27.5982   1
   0  -6  -9 510.024 13.2848   2
   0  -6  -9 492.878 11.2748   1
  -1  -6  -9 87.9391 8.83163   1
  -1  -6  -9 93.8779 5.05665   2
  -2  -6  -9 600.488 14.2265   2
  -2  -6  -9 562.948 23.0294   1
   3  -6  -3 196.796 26.2948  -2
  -3  -6  -9 196.796 26.2948   1
   4  -6  -3 277.476 30.1582  -2
  -4  -6  -9 277.476 30.1582   1
  -5  -6  -9 85.1275 16.8800   2
  -5  -6  -9 68.5748 30.0608   1
   5   6   9 73.6100 33.7573   2
   3  -7  -9 16.8746 15.7439   2
  -3  -8  -6 87.8176 27.6085  -2
   3  -7  -9 87.8176 27.6085   1
   1  -7  -9 44.5477 10.1469   2
   1  -7  -9 77.0486 25.6144   1
   0  -7  -9 630.708 25.0443   2
   0  -7  -9 594.696 13.7555   1
  -1  -7  -9 72.0242 10.8059   1
  -1  -7  -9 96.9599 6.90462   2
   2  -7  -5 211.437 22.6897  -2
  -2  -7  -9 211.437 22.6897   1
   3  -7  -5 267.423 28.8607  -2
  -3  -7  -9 267.423 28.8607   1
  -4  -7  -9 137.133 18.9837   1
  -4  -7  -9 229.827 26.2254   2
   4   7   9 164.818 35.5113   2
   2  -8  -9 52.8850 13.3711   2
   1  -8  -9 887.571 36.9112   2
   0  -8  -9 59.6289 12.3724   2
   0  -8  -9 60.5975 11.4958   1
   1  -8  -7 540.191 30.9556  -2
  -1  -8  -9 540.191 30.9556   1
   2  -8  -7 113.022 25.8998  -2
  -2  -8  -9 113.022 25.8998   1
  -3  -8  -9 335.973 24.3825   1
  -3  -8  -9 396.753 25.7083   2
   3   8   9 490.714 52.6097   2
   1  -9  -9 88.3299 18.7215   2
   1  -9  -9 83.4515 10.4246   1
   0  -9  -9 16.3610 11.4061  -2
   0  -9  -9 16.3610 11.4061   1
  -1  -9  -9 199.075 11.2712   2
  -1  -9  -9 192.360 21.5300   1
  -2  -9  -9 23.9284 15.7663   1
  -2  -9  -9 33.6491 5.85627   2
   0  -7  10 43.0697 22.8590   1
   0  -7  10 42.7035 13.2354   2
   1  -7  10 4.34603 11.9281   2
   1  -7  10 -4.3301 17.6837   1
  -2  -6  10 198.485 21.2371   2
  -2  -6  10 157.481 31.2879   1
  -1  -6  10 254.753 21.7670   2
  -1  -6  10 187.542 30.6045   1
   0  -6  10 21.7595 11.2152   2
   0  -6  10 -8.0387 17.0047   1
  -1  -2 -18 145.777 30.5854  -2
   1  -6  10 145.777 30.5854   1
   2  -6  10 214.445 22.5965   2
   2  -6  10 200.869 30.1146   1
   3  -6  10 245.587 35.5676   1
   3  -6  10 326.274 41.9516   2
   3   5 -10 61.6374 27.5374   1
  -3  -5  10 120.533 27.8495   2
  -3  -5  10 81.6160 27.9561   1
   2   5 -10 174.679 29.6260   1
  -2  -5  10 197.402 30.3918   1
  -2  -5  10 258.615 21.8593   2
  -1   1  16 132.503 44.5641  -2
   1   5 -10 132.503 44.5641   1
   1  -1 -16 187.678 39.8954  -2
  -1  -5  10 187.678 39.8954   1
   0   1  16 1551.30 63.7787  -2
   0   5 -10 1551.30 63.7787   1
   0  -1 -16 1414.69 58.7080  -2
   0  -5  10 1414.69 58.7080   1
  -1   5 -10 93.9103 21.8029   1
   1  -5  10 69.0404 12.9597   2
   1  -5  10 49.6637 17.3464   1
   2  -5  10 187.726 19.5654   2
   2  -5  10 128.515 24.4110   1
  -3   5 -10 369.554 24.4322   2
   3  -5  10 287.527 34.7287   1
   3  -5  10 333.329 39.0887   2
  -4  -2 -17 52.9780 33.8788  -2
   4  -5  10 52.9780 33.8788   1
   4   4 -10 652.166 56.6585   1
  -4  -4  10 711.404 52.4028   2
  -4  -4  10 582.731 56.4441   1
   3   4 -10 142.731 27.8937   1
  -3  -4  10 128.970 27.1748   2
  -3  -4  10 111.861 27.6141   1
  -2   0  14 437.892 48.6158  -2
   2   4 -10 437.892 48.6158   1
   2   0 -14 480.319 44.7877  -2
  -2  -4  10 480.319 44.7877   1
  -1   0  14 124.474 35.0119  -2
   1   4 -10 124.474 35.0119   1
   1   0 -14 151.519 32.3087  -2
  -1  -4  10 151.519 32.3087   1
   0   4 -10 -6.9131 13.0163   2
   0   4 -10 11.0449 13.9954   1
   0  -4  10 7.43775 12.9580   1
   0  -4  10 -5.2182 7.95002   2
  -1   4 -10 360.269 20.7540   2
  -1   4 -10 258.021 28.1970   1
   1  -4  10 294.514 20.1377   2
   1  -4  10 289.509 29.4776   1
  -2   4 -10 1200.71 33.8773   2
  -2   4 -10 1146.77 51.6525   1
   2  -4  10 949.894 46.5421   1
   2  -4  10 1093.21 35.0061   2
  -3  -1 -15 102.939 24.8967  -2
   3  -4  10 102.939 24.8967   1
  -4   4 -10 64.1264 16.6826   2
   4  -4  10 71.7276 21.7886   1
   4  -4  10 67.6201 24.8800   2
  -5   4 -10 45.5984 27.8685   2
   5  -4  10 50.5325 24.2141   1
   5  -4  10 71.4573 29.4772   2
   4   3 -10 93.8887 27.9127   1
  -4  -3  10 57.9152 24.5983   2
  -4  -3  10 89.1304 31.2256   1
  -3  -1  12 189.643 38.7221  -2
   3   3 -10 189.643 38.7221   1
   3   1 -12 198.166 41.4334  -2
  -3  -3  10 198.166 41.4334   1
  -2  -1  12 664.843 48.5048  -2
   2   3 -10 664.843 48.5048   1
   2   1 -12 578.056 45.4644  -2
  -2  -3  10 578.056 45.4644   1
   1   3 -10 298.101 19.2877   2
   1   3 -10 223.654 26.1593   1
  -1  -3  10 297.425 19.8754   2
  -1  -3  10 263.236 28.5770   1
   0   3 -10 441.055 32.0595   1
   0   3 -10 475.152 23.9127   2
   0  -3  10 444.067 29.8013   1
   0  -3  10 476.080 22.2678   2
  -1   3 -10 568.277 24.9794   2
  -1   3 -10 630.539 37.9880   1
   1  -3  10 585.612 24.3645   2
   1  -3  10 492.216 31.7810   1
   2   0  13 560.867 38.5686  -2
  -2   3 -10 560.867 38.5686   1
  -2   0 -13 507.948 33.8009  -2
   2  -3  10 507.948 33.8009   1
  -3   3 -10 330.563 34.0297   1
  -3   3 -10 331.689 22.3950   2
   3  -3  10 321.805 33.9158   2
   3  -3  10 302.129 21.8966   1
  -4   3 -10 84.2500 17.3208   2
  -4   3 -10 68.4083 22.2893   1
   4  -3  10 62.5352 16.3101   1
   4  -3  10 74.5731 24.1324   2
  -5   3 -10 210.078 24.0351   2
   5  -3  10 183.640 33.6977   2
   5  -3  10 164.622 25.2133   1
  -4  -2  10 242.649 37.4456  -2
   4   2 -10 242.649 37.4456   1
   3   2 -10 596.185 42.5286   2
  -3  -2  10 1346.72 64.5420  -2
   3   2 -10 1346.72 64.5420   1
  -3  -2  10 622.450 43.5726   1
   2   2 -10 41.9007 16.2590   1
   2   2 -10 32.4999 15.2940   2
  -2  -2  10 27.4650 14.6251   2
  -2  -2  10 58.9801 16.9476   1
   1   2 -10 814.766 36.7711   2
   1   2 -10 779.210 37.4441   1
  -1  -2  10 819.407 19.3445   2
  -1  -2  10 753.043 36.7945   1
   0  -1  11 1545.84 54.9250  -2
   0   2 -10 1545.84 54.9250   1
   0   2 -10 631.233 45.7526   1
   0   1 -11 1359.58 48.7840  -2
   0  -2  10 1359.58 48.7840   1
   0  -2  10 705.866 36.1148   2
   1  -1  11 205.761 30.5297  -2
  -1   2 -10 205.761 30.5297   1
  -1   1 -11 204.814 25.3605  -2
   1  -2  10 204.814 25.3605   1
  -2   2 -10 46.5365 11.3348   2
  -2   2 -10 47.8027 17.3497   1
   2  -2  10 47.8965 11.9473   1
   2  -2  10 32.9103 16.8905   2
  -3   2 -10 299.691 22.4303   2
  -3   2 -10 241.739 28.8154   1
   3  -2  10 245.327 20.6196   1
   3  -2  10 283.415 32.0819   2
  -4   2 -10 219.545 22.0251   2
  -4   2 -10 210.973 29.9904   1
   4  -2  10 228.629 32.9548   2
   4  -2  10 198.309 21.2825   1
   5   0  12 87.4174 42.3403  -2
  -5   2 -10 87.4174 42.3403   1
  -5   0 -12 24.1103 25.1903  -2
   5  -2  10 24.1103 25.1903   1
  -6   0 -12 167.484 42.2374  -2
   6  -2  10 167.484 42.2374   1
  -5  -3   8 341.241 42.3605  -2
   5   1 -10 341.241 42.3605   1
   4   1 -10 23.4577 19.4560   1
   4   1 -10 29.4634 23.2407   2
  -4  -1  10 44.2891 21.3256   2
   3   1 -10 616.991 41.5147   2
   3   1 -10 596.380 27.2294   1
  -3  -1  10 623.558 41.7424   2
  -3  -1  10 646.506 42.9192   1
   2   1 -10 346.073 31.2835   2
   2   1 -10 326.274 14.4471   1
  -2  -1  10 382.120 34.2547   2
  -2  -1  10 323.273 28.5561   1
  -1  -2   9 1468.76 25.4291  -2
   1   1 -10 1468.76 25.4291   1
   1   2  -9 1456.10 47.6976  -2
  -1  -1  10 1456.10 47.6976   1
   0  -2   9 434.682 22.2307  -2
   0   1 -10 434.682 22.2307   1
   0   2  -9 447.967 30.6458  -2
   0  -1  10 447.967 30.6458   1
  -1   1 -10 178.145 7.14246   1
  -1   1 -10 187.784 9.82401   2
   1  -1  10 192.539 16.1178   1
   1  -1  10 215.087 16.0417   2
  -2   1 -10 171.093 14.0170   2
  -2   1 -10 168.406 14.5567   1
   2  -1  10 183.244 16.8940   1
   2  -1  10 164.357 22.8725   2
  -3   1 -10 292.759 21.7004   2
  -3   1 -10 178.470 24.7475   1
   3  -1  10 255.219 20.2665   1
   3  -1  10 283.770 31.3573   2
   4  -1  10 469.554 40.6420  -2
  -4   1 -10 469.554 40.6420   1
  -4   1 -10 447.837 28.3066  -2
   4  -1  10 447.837 28.3066   1
  -5   1 -10 90.2535 19.0960   2
  -5   1 -10 43.2057 23.7850   1
   5  -1  10 92.6089 18.6064   1
   5  -1  10 189.072 33.1175   2
  -6   1 -10 0.32765 16.7171   2
  -6   1 -10 26.5046 29.0343   1
   6  -1  10 8.15029 18.4202   1
   6  -1  10 11.0932 27.7248   2
   5   0 -10 59.7923 31.2892   2
   5   0 -10 39.3827 25.8634   1
  -5   0  10 25.8093 26.4517   2
   4   0 -10 170.250 31.5612   2
   4   0 -10 110.986 16.6627   1
  -4   0  10 164.920 28.7128   2
   3   0 -10 680.183 42.6918   2
   3   0 -10 629.904 26.6533   1
  -3   0  10 648.052 41.6614   2
  -2  -3   7 433.519 23.1059  -2
   2   0 -10 433.519 23.1059   1
   2   3  -7 462.862 21.5164  -2
  -2   0  10 462.862 21.5164   1
   1   0 -10 25.1428 14.5180   2
   1   0 -10 15.8686 8.69053   1
  -1  -3   7 565.349 23.2077  -2
   1   0 -10 565.349 23.2077   1
  -1   0  10 11.2121 5.04301   2
  -1   0  10 8.09482 7.76762   1
   0   0 -10 30.5803 8.83660   2
   0   0 -10 17.7632 7.13514   1
   0   0  10 28.4909 7.97615   2
   0   0  10 29.6203 8.57137   1
  -1   0 -10 25.1091 4.98950   1
  -1   0 -10 9.07510 7.60871   2
   1   0  10 21.4172 8.82636   1
   1   0  10 34.5047 7.70189   2
  -2   0 -10 539.183 21.5983   1
  -2   0 -10 547.732 22.4493   2
   2   0  10 604.630 24.3634   1
   2   0  10 643.402 35.3490   2
   3  -2   8 326.595 34.2003  -2
  -3   0 -10 326.595 34.2003   1
  -3   2  -8 357.983 24.1872  -2
   3   0  10 357.983 24.1872   1
  -4   0 -10 74.9154 16.0425   2
  -4   0 -10 37.9537 20.8477   1
   4   0  10 74.0278 16.1088   1
   4   0  10 84.7185 13.4194   2
  -5   0 -10 21.2074 15.2440   2
  -5   0 -10 41.7467 24.5600   1
   5   0  10 22.4433 15.3565   1
   5   0  10 28.5267 23.6426   2
  -6   0 -10 477.764 34.3857   2
  -6   0 -10 432.969 48.9793   1
   6   0  10 512.796 36.8615   1
   5  -1 -10 29.7533 16.9596   1
   5  -1 -10 -16.568 23.1305   2
  -5   1  10 44.6239 28.0571   2
   4  -1 -10 54.6249 14.1462   1
   4  -1 -10 82.0961 25.1333   2
  -4   1  10 39.0760 24.2669   2
  -3  -4   5 378.855 21.9954  -2
   3  -1 -10 378.855 21.9954   1
   2  -1 -10 160.083 10.8304   1
   2  -1 -10 145.211 14.8677   2
  -2   1  10 251.096 27.1748   2
   1  -1 -10 116.727 8.85201   1
   1  -1 -10 121.920 12.6025   2
  -1   1  10 124.343 14.9609   1
  -1   1  10 142.533 19.4067   2
   0  -1 -10 613.395 11.8558   1
   0  -1 -10 602.125 20.7743   2
   0   1  10 582.173 24.1110   1
   0   1  10 646.949 17.0189   2
  -1  -1 -10 253.045 15.9533   2
   1  -3   6 606.404 22.2158  -2
  -1  -1 -10 606.404 22.2158   1
  -1  -1 -10 236.948 14.6249   1
   1   1  10 229.002 8.59499   2
   1   1  10 211.635 18.6822   1
  -1   3  -6 604.567 29.1963  -2
   1   1  10 604.567 29.1963   1
   2  -3   6 1441.48 33.5140  -2
  -2  -1 -10 1441.48 33.5140   1
  -2   3  -6 1477.35 23.9694  -2
   2   1  10 1477.35 23.9694   1
  -3  -1 -10 -1.5693 7.98009   2
  -3  -1 -10 15.2118 9.91962   1
   3   1  10 8.25757 5.98890   1
   3   1  10 12.9098 9.95064   2
  -4  -1 -10 139.701 14.5592   2
  -4  -1 -10 94.4374 23.8061   1
   4   1  10 161.356 17.2338   2
   4   1  10 142.383 17.0946   1
  -5  -1 -10 33.0611 24.2372   1
  -5  -1 -10 79.6348 22.2200   2
   5   1  10 47.2804 15.7469   1
   5   1  10 65.4336 21.8109   2
   6  -2   7 218.979 53.6551  -2
  -6  -1 -10 218.979 53.6551   1
  -6   2  -7 193.179 31.8715  -2
   6   1  10 193.179 31.8715   1
   5  -2 -10 0.51558 14.1313   1
   5  -2 -10 2.99993 25.5392   2
  -5   2  10 13.7802 25.7393   2
  -5   2  10 -7.9807 37.0190   1
  -4  -5   3 478.947 25.9540  -2
   4  -2 -10 478.947 25.9540   1
   4   5  -3 495.749 62.3820  -2
  -4   2  10 495.749 62.3820   1
   3  -2 -10 143.426 14.0997   1
   3  -2 -10 66.5590 21.1493   2
  -3   2  10 106.901 34.0470   1
  -3   2  10 133.257 25.9312   2
   2  -2 -10 1333.64 27.3889   2
   2  -2 -10 1382.81 24.7467   1
  -2   2  10 1484.37 52.6500   2
  -2   2  10 1396.05 62.9671   1
   1  -2 -10 28.6401 4.68965   1
   1  -2 -10 26.8317 8.36438   2
  -1   2  10 38.5751 9.26362   2
  -1   2  10 38.2054 20.7374   1
   0  -4   4 242.908 10.0351  -2
   0  -2 -10 242.908 10.0351   1
   0   4  -4 279.499 16.3336  -2
   0   2  10 279.499 16.3336   1
   1  -4   4 2468.60 27.2574  -2
  -1  -2 -10 2468.60 27.2574   1
  -1   4  -4 2701.50 37.5991  -2
   1   2  10 2701.50 37.5991   1
  -2  -2 -10 141.342 12.6883   1
  -2  -2 -10 160.054 8.62594   2
   2   2  10 161.935 9.08291   1
   2   2  10 166.247 18.4620   2
  -3  -2 -10 19.3189 10.0590   2
  -3  -2 -10 42.4715 11.1533   1
   3   2  10 38.9760 11.4674   2
   3   2  10 32.3609 7.55421   1
  -4  -2 -10 571.141 45.3327   1
  -4  -2 -10 574.930 27.3986   2
   4   2  10 574.063 19.7313   1
   4   2  10 624.194 40.3787   2
   5  -3   5 303.364 41.7936  -2
  -5  -2 -10 303.364 41.7936   1
  -5   3  -5 242.572 22.8895  -2
   5   2  10 242.572 22.8895   1
  -6  -2 -10 257.914 35.9138   2
  -6  -2 -10 175.431 35.9957   1
   6   2  10 281.037 28.9693   1
   6   2  10 223.493 35.8470   2
  -5  -6   1 174.644 28.5621  -2
   5  -3 -10 174.644 28.5621   1
   5   6  -1 133.153 65.8253  -2
  -5   3  10 133.153 65.8253   1
   4  -3 -10 0.94290 21.3164   2
   4  -3 -10 34.9081 12.0968   1
  -4   3  10 66.5680 36.0613   1
   3  -3 -10 930.480 33.6155   2
   3  -3 -10 877.328 26.7851   1
  -3   3  10 978.000 50.4900   2
  -3   3  10 1062.24 66.9724   1
   2  -3 -10 84.6831 8.46772   1
   2  -3 -10 72.6180 12.2028   2
  -2   3  10 77.7208 15.3036   2
  -2   3  10 68.0031 26.6723   1
  -1  -5   2 193.593 9.35888  -2
   1  -3 -10 193.593 9.35888   1
   1   5  -2 166.776 34.8922  -2
  -1   3  10 166.776 34.8922   1
   0  -3 -10 4.74018 4.21051   1
   0  -3 -10 12.0642 9.00904   2
   0  -5   2 1666.91 42.4387  -2
   0  -3 -10 1666.91 42.4387   1
   0   3  10 25.1784 10.0732   2
   0   3  10 30.4383 12.7300   1
  -1  -3 -10 1711.34 17.7857   2
  -1  -3 -10 1621.81 21.3615   1
   1   3  10 1773.51 44.4451   1
   1   3  10 1925.27 29.6484   2
  -2  -3 -10 313.523 12.3777   2
  -2  -3 -10 290.036 17.4280   1
   2   3  10 305.283 15.5679   1
  -3  -3 -10 203.076 15.7641   2
  -3  -3 -10 169.318 16.6207   1
   3   3  10 257.221 31.7039   2
   3   3  10 177.340 14.2402   1
   4  -4   3 436.510 27.1437  -2
  -4  -3 -10 436.510 27.1437   1
  -4   4  -3 463.412 36.3396  -2
   4   3  10 463.412 36.3396   1
  -5  -3 -10 400.737 27.5665   2
  -5  -3 -10 271.020 37.1690   1
   5   3  10 460.325 43.9521   2
   5   3  10 363.232 36.6986   1
  -6  -3 -10 65.9119 25.6885   2
  -6  -3 -10 45.0398 27.9402   1
   6   3  10 79.1689 27.8652   1
   6   3  10 76.0662 30.5992   2
   4  -4 -10 269.835 37.0558   2
   4  -4 -10 306.196 20.9586   1
  -4   4  10 339.613 49.5632   1
   3  -4 -10 534.118 27.6760   2
   3  -4 -10 494.687 20.7430   1
  -3   4  10 597.134 51.9108   1
  -2  -6   0 3205.76 31.7806  -2
   2  -4 -10 3205.76 31.7806   1
   2   6   0 3364.46 91.8268  -2
  -2   4  10 3364.46 91.8268   1
   1  -4 -10 390.977 18.6057   2
   1  -4 -10 378.824 9.61219   1
  -1   4  10 430.649 34.4783   1
  -1   4  10 458.018 29.6637   2
   0  -4 -10 338.279 9.80954   1
   0  -4 -10 344.250 15.3531   2
   0   4  10 394.981 24.8216   2
   0   4  10 383.554 23.8200   1
  -1  -4 -10 1055.59 20.0772   1
  -1  -4 -10 1104.98 14.8783   2
   1   4  10 1101.96 38.9758   1
   1   4  10 1207.75 36.8507   2
   2  -5   1 1523.94 35.2051  -2
  -2  -4 -10 1523.94 35.2051   1
  -2   5  -1 1757.38 52.5382  -2
   2   4  10 1757.38 52.5382   1
   3  -5   1 194.128 22.0655  -2
  -3  -4 -10 194.128 22.0655   1
  -4  -4 -10 22.7805 11.1008   2
  -4  -4 -10 17.4089 12.2425   1
   4   4  10 0.58865 20.0380   2
  -5  -4 -10 81.5889 16.3031   2
  -5  -4 -10 36.6944 24.6865   1
   5   4  10 40.4996 26.6334   2
  -6  -4 -10 54.1138 18.7704   2
  -6  -4 -10 45.3212 30.3034   1
   6   4  10 78.0848 32.0977   2
  -4  -7  -2 243.031 39.1910  -2
   4  -5 -10 243.031 39.1910   1
  -4   5  10 52.3350 37.9519   1
  -3  -7  -2 650.643 31.6142  -2
   3  -5 -10 650.643 31.6142   1
   3   7   2 685.472 56.8499  -2
  -3   5  10 685.472 56.8499   1
   2  -5 -10 366.046 11.7916   1
   2  -5 -10 400.660 22.6917   2
  -2   5  10 400.209 40.5162   1
   1  -5 -10 21.3149 4.69963   1
   1  -5 -10 21.9680 8.46926   2
  -1   5  10 12.9351 16.6731   1
   0  -5 -10 321.166 9.32157   1
   0  -5 -10 307.993 14.6022   2
   0   5  10 342.398 26.6121   2
   1  -6  -1 327.101 15.4809  -2
  -1  -5 -10 327.101 15.4809   1
   2  -6  -1 141.520 20.8106  -2
  -2  -5 -10 141.520 20.8106   1
  -3  -5 -10 129.380 15.0294   1
  -3  -5 -10 174.327 14.1666   2
   3   5  10 160.415 29.1621   2
  -4  -5 -10 173.432 18.8854   1
  -4  -5 -10 239.658 19.2804   2
   4   5  10 318.666 40.9036   2
  -5  -5 -10 20.0362 13.4466   2
  -5  -5 -10 14.3018 23.4841   1
   5   5  10 1.95716 26.6257   2
   4  -6 -10 58.8880 29.0761   2
   4  -6 -10 6.98819 15.5221   1
   4   8   4 -34.552 54.1728  -2
  -4   6  10 -34.552 54.1728   1
   3  -6 -10 21.7916 12.9941   2
   3  -6 -10 15.9895 12.4887   1
  -3   6  10 -26.587 24.6605   1
   2  -6 -10 90.1170 6.83212   1
   2  -6 -10 89.6286 13.6523   2
  -2   6  10 95.0958 27.6730   1
  -2   6  10 89.2474 21.6758   2
   1  -6 -10 1571.61 34.1049   2
   1  -6 -10 1568.46 58.5042   1
  -1   6  10 1635.34 58.8134   1
   0  -7  -3 23.3106 8.45135  -2
   0  -6 -10 23.3106 8.45135   1
   1  -7  -3 339.764 20.0590  -2
  -1  -6 -10 339.764 20.0590   1
  -2  -6 -10 84.1278 12.0214   1
  -2  -6 -10 117.529 11.8362   2
  -3  -6 -10 323.418 18.3973   2
  -3  -6 -10 269.753 21.1244   1
   3   6  10 361.895 41.3096   2
  -4  -6 -10 93.6491 21.3888   1
   4  -6  -2 336.726 54.6468  -2
  -4  -6 -10 336.726 54.6468   1
   5  -6  -2 64.4397 48.8772  -2
  -5  -6 -10 64.4397 48.8772   1
   3  -7 -10 166.002 17.7596   1
   3  -7 -10 131.102 19.5559   2
  -3   7  10 196.356 38.5477   1
   2  -7 -10 113.051 6.54002   1
   2  -7 -10 150.878 16.9178   2
  -2   7  10 107.326 27.5485   1
   0  -7 -10 0.41304 5.32837   1
   0  -7 -10 4.12345 9.48854   2
  -1  -7 -10 133.403 15.7001   1
  -1  -7 -10 161.892 9.18170   2
  -2  -7 -10 9.35062 8.20826   2
  -2  -7 -10 12.1709 10.4756   1
   3  -7  -4 164.458 28.2907  -2
  -3  -7 -10 164.458 28.2907   1
   4  -7  -4 443.881 36.3228  -2
  -4  -7 -10 443.881 36.3228   1
   1  -8 -10 39.4440 13.8783   2
   0  -8 -10 154.744 14.2165   1
   0  -8 -10 174.525 18.0169   2
  -1  -8 -10 716.264 16.4443   2
  -1  -8 -10 624.731 31.2779   1
   2  -8  -6 48.8836 29.3335  -2
  -2  -8 -10 48.8836 29.3335   1
   3  -8  -6 527.693 36.7193  -2
  -3  -8 -10 527.693 36.7193   1
   0  -9 -10 28.2962 13.2030   2
   0  -9 -10 23.4816 12.0026   1
   1  -9  -8 263.597 28.6936  -2
  -1  -9 -10 263.597 28.6936   1
  -1  -6  11 36.4532 13.4599   2
  -1  -6  11 6.38265 18.4304   1
   0  -6  11 5.63922 10.7317   2
   0  -6  11 -10.327 17.2467   1
   1  -6  11 219.215 21.3971   2
   1  -6  11 108.958 25.4629   1
  -2  -2 -19 387.854 41.6277  -2
   2  -6  11 387.854 41.6277   1
   3  -6  11 12.3937 21.0905   1
   3  -6  11 -8.1004 22.2663   2
  -3   0  16 233.560 57.6636  -2
   3   5 -11 233.560 57.6636   1
   3   0 -16 256.887 54.6863  -2
  -3  -5  11 256.887 54.6863   1
   2   5 -11 170.739 30.9298   1
  -2  -5  11 154.416 30.0037   1
  -2  -5  11 167.910 29.2625   2
   1   5 -11 332.920 38.5737   1
  -1  -5  11 348.833 24.0867   2
  -1  -5  11 279.745 33.8499   1
   0   5 -11 197.456 30.1135   1
   0  -5  11 234.857 20.5674   2
   0  -5  11 164.900 26.5177   1
  -1  -1 -17 274.106 33.3075  -2
   1  -5  11 274.106 33.3075   1
   2  -5  11 3.01537 17.1928   2
   2  -5  11 -6.2262 14.3952   1
  -3   5 -11 61.7918 16.6557   2
   3  -5  11 97.6350 27.3960   2
   3  -5  11 78.8047 24.2206   1
  -4   5 -11 174.258 24.4556   2
   4  -5  11 191.115 31.8751   1
   4  -5  11 124.216 32.5002   2
   3   4 -11 22.8996 20.7605   1
  -3  -4  11 3.35636 22.0707   1
  -3  -4  11 39.8781 21.9105   2
   2   4 -11 16.1558 18.7656   1
  -2  -4  11 19.9144 16.3492   2
  -2  -4  11 20.4136 17.6568   1
   1   4 -11 122.838 16.3033   2
  -1   0  15 121.314 40.1164  -2
   1   4 -11 121.314 40.1164   1
  -1  -4  11 174.294 24.8028   2
   1   0 -15 197.726 37.1897  -2
  -1  -4  11 197.726 37.1897   1
   0   0  15 1467.78 59.6223  -2
   0   4 -11 1467.78 59.6223   1
   0   0 -15 1385.65 56.2441  -2
   0  -4  11 1385.65 56.2441   1
  -1   4 -11 119.432 16.0824   2
  -1   4 -11 128.614 23.4685   1
   1  -4  11 124.637 15.2396   2
   1  -4  11 50.9850 16.5631   1
  -2   4 -11 314.667 21.3974   2
  -2   4 -11 301.625 33.1756   1
   2  -4  11 226.982 28.5013   1
   2  -4  11 391.552 38.7717   2
  -3   4 -11 11.6806 12.5655   2
   3  -4  11 -7.6798 16.9585   2
   3  -4  11 -6.4486 11.4465   1
  -4  -1 -16 268.325 40.6341  -2
   4  -4  11 268.325 40.6341   1
   4   3 -11 22.4995 24.6068   1
  -4  -3  11 13.5712 22.8239   2
   3   3 -11 118.695 27.5048   1
  -3  -3  11 174.998 29.4278   2
  -3  -3  11 191.707 32.2853   1
  -2  -1  13 191.227 40.0511  -2
   2   3 -11 191.227 40.0511   1
   2   1 -13 123.207 34.1850  -2
  -2  -3  11 123.207 34.1850   1
  -1  -1  13 744.786 47.7880  -2
   1   3 -11 744.786 47.7880   1
   1   1 -13 635.556 42.9496  -2
  -1  -3  11 635.556 42.9496   1
   0   3 -11 1686.87 40.0467   2
   0   3 -11 1395.66 52.8320   1
   0  -3  11 1559.04 38.2382   2
   0  -3  11 1242.64 48.1979   1
  -1   3 -11 1044.64 33.1057   2
  -1   3 -11 1077.46 48.8376   1
   1  -3  11 1042.96 32.7416   2
   1  -3  11 925.054 42.8783   1
  -2   3 -11 62.9756 13.1189   2
  -2   3 -11 46.1803 18.4079   1
   2  -3  11 56.3317 19.2875   2
   2  -3  11 100.792 20.4315   1
   3   0  14 113.567 28.6682  -2
  -3   3 -11 113.567 28.6682   1
  -3   0 -14 159.033 21.6653  -2
   3  -3  11 159.033 21.6653   1
  -4   3 -11 428.154 27.9454   2
  -4   3 -11 290.736 34.7261   1
   4  -3  11 296.879 25.2321   1
  -5   3 -11 13.4683 17.5667   2
   5  -3  11 24.2486 24.2366   2
   5  -3  11 36.0419 19.2904   1
   4   2 -11 38.4417 22.7951   1
  -4  -2  11 -5.8319 19.4866   2
  -3  -2  11 1490.20 66.4391  -2
   3   2 -11 1490.20 66.4391   1
   3   2 -11 1332.27 62.9576  -2
  -3  -2  11 1332.27 62.9576   1
  -2  -2  11 35.3039 31.6704  -2
   2   2 -11 35.3039 31.6704   1
   2   2 -11 35.0723 32.7573  -2
  -2  -2  11 35.0723 32.7573   1
   1   2 -11 209.329 23.8700   1
   1   2 -11 257.621 26.3755   2
  -1  -2  11 208.409 24.3741   1
  -1  -2  11 333.489 31.2939   2
   0   2 -11 535.133 34.2071   1
   0   2 -11 538.685 31.6376   2
   0  -2  11 548.906 23.0058   2
   0  -2  11 440.414 29.0654   1
  -1   2 -11 174.591 23.7721   1
  -1   2 -11 204.618 17.9365   2
   1  -2  11 161.786 20.8623   1
   1  -2  11 227.345 26.2242   2
   2  -1  12 696.743 41.5645  -2
  -2   2 -11 696.743 41.5645   1
  -2   1 -12 749.908 30.9823  -2
   2  -2  11 749.908 30.9823   1
  -3   2 -11 497.467 27.0496   2
  -3   2 -11 430.319 37.1545   1
   3  -2  11 474.050 27.2178   1
   3  -2  11 404.998 38.8762   2
  -4   2 -11 55.8446 22.7218   1
  -4   2 -11 15.9622 14.6307   2
   4  -2  11 9.47648 13.3454   1
   4  -2  11 50.8544 22.3847   2
  -5   2 -11 147.623 30.2238   1
  -5   2 -11 146.382 21.8427   2
   5  -2  11 197.832 34.8913   2
   5  -2  11 177.083 23.8751   1
  -4  -3   9 348.902 38.9060  -2
   4   1 -11 348.902 38.9060   1
   3   1 -11 173.710 28.8079   2
   3   1 -11 109.896 22.6107   1
  -3  -1  11 138.583 28.0065   2
   2   1 -11 52.4825 11.5587   1
   2   1 -11 70.3815 18.0148   2
  -2  -1  11 51.1476 15.5647   1
  -2  -1  11 49.1452 17.8528   2
   1   1 -11 88.7682 8.70517   1
   1   1 -11 57.5665 14.8645   2
  -1  -1  11 85.0974 18.8918   2
  -1  -1  11 104.642 18.5583   1
   0   1 -11 793.801 38.4026   1
   0  -2  10 1466.65 49.4986  -2
   0   1 -11 1466.65 49.4986   1
   0   2 -10 1508.88 50.0162  -2
   0  -1  11 1508.88 50.0162   1
   1  -2  10 202.969 19.4405  -2
  -1   1 -11 202.969 19.4405   1
  -1   2 -10 232.448 22.6341  -2
   1  -1  11 232.448 22.6341   1
  -2   1 -11 991.538 45.3589   1
  -2   1 -11 1017.12 32.5777   2
   2  -1  11 1154.69 48.7611   2
   2  -1  11 999.506 32.6184   1
  -3   1 -11 43.0789 12.6260   2
  -3   1 -11 46.0993 18.5601   1
   3  -1  11 9.21288 12.3380   1
   3  -1  11 28.5836 19.5901   2
  -4   1 -11 662.003 33.9841   2
  -4   1 -11 613.298 46.9033   1
   4  -1  11 675.893 33.3478   1
   4  -1  11 673.656 47.2566   2
   5  -1  11 304.971 49.3148  -2
  -5   1 -11 304.971 49.3148   1
  -5   1 -11 287.453 30.9284  -2
   5  -1  11 287.453 30.9284   1
  -6   1 -11 248.985 45.9872  -2
   6  -1  11 248.985 45.9872   1
   4   0 -11 289.647 27.5246   1
   4   0 -11 284.797 37.7765   2
  -4   0  11 360.058 40.1158   2
   3   0 -11 273.800 20.6019   1
   3   0 -11 243.338 31.3091   2
  -3   0  11 263.754 31.8275   2
   2   0 -11 289.999 14.6671   1
   2   0 -11 340.455 32.7968   2
  -2   0  11 300.016 16.8643   1
  -2   0  11 376.861 33.5644   2
  -1  -3   8 689.375 19.7531  -2
   1   0 -11 689.375 19.7531   1
  -1   0  11 99.0667 18.0318   1
   1   3  -8 687.544 35.1886  -2
  -1   0  11 687.544 35.1886   1
   0  -3   8 2437.10 32.3443  -2
   0   0 -11 2437.10 32.3443   1
   0   0  11 1906.03 52.4150   1
   0   3  -8 2260.47 55.6172  -2
   0   0  11 2260.47 55.6172   1
  -1   0 -11 289.824 12.6010   2
  -1   0 -11 249.441 10.3599   1
   1   0  11 256.429 24.8975   2
   1   0  11 248.612 16.2552   1
  -2   0 -11 272.535 19.3042   2
  -2   0 -11 191.374 14.4549   1
   2   0  11 242.371 24.7361   2
   2   0  11 236.557 18.5250   1
  -3   0 -11 11.0562 9.87942   2
  -3   0 -11 46.3902 19.7532   1
   3   0  11 23.1455 11.5158   1
   3   0  11 18.7067 17.5018   2
   4  -2   9 686.797 47.4244  -2
  -4   0 -11 686.797 47.4244   1
  -4   2  -9 746.509 33.6433  -2
   4   0  11 746.509 33.6433   1
  -5   0 -11 199.248 23.2192   2
  -5   0 -11 136.183 30.6985   1
   5   0  11 166.775 31.1561   2
   5   0  11 146.174 21.2918   1
  -6   0 -11 263.349 28.9200   2
  -6   0 -11 209.378 39.6493   1
   6   0  11 202.018 26.8995   1
   5  -1 -11 239.155 42.9341   2
   5  -1 -11 247.699 37.8777   1
  -5   1  11 322.317 46.3427   2
   4  -1 -11 186.162 20.0522   1
   4  -1 -11 107.482 28.8897   2
  -4   1  11 130.312 29.1089   2
   3  -1 -11 1.10058 9.23105   1
   3  -1 -11 8.13074 17.2030   2
  -3   1  11 11.1113 18.3958   2
  -2  -4   6 329.639 19.9726  -2
   2  -1 -11 329.639 19.9726   1
  -1  -4   6 410.139 21.0866  -2
   1  -1 -11 410.139 21.0866   1
   1  -1 -11 244.473 22.5616   1
   1  -1 -11 220.936 20.9864   2
   0  -1 -11 275.014 10.5493   1
   0  -1 -11 238.127 15.2961   2
   0   1  11 263.677 18.9658   1
   0   1  11 294.006 13.4780   2
  -1  -1 -11 175.600 10.0144   1
  -1  -1 -11 147.858 13.1283   2
   1   1  11 190.491 8.35958   2
   1   1  11 163.262 12.7713   1
  -2  -1 -11 108.128 12.8449   2
  -2  -1 -11 107.064 11.7544   1
   2   1  11 118.337 9.04509   1
   2   1  11 150.105 20.5643   2
   3  -3   7 678.668 27.9250  -2
  -3  -1 -11 678.668 27.9250   1
  -3   3  -7 744.132 28.8625  -2
   3   1  11 744.132 28.8625   1
  -4  -1 -11 307.010 19.1806   2
  -4  -1 -11 278.960 34.6214   1
   4   1  11 296.605 22.6837   1
   4   1  11 327.413 23.2064   2
  -5  -1 -11 268.576 32.3715   2
  -5  -1 -11 261.316 36.6980   1
   5   1  11 265.541 25.0458   1
   5   1  11 289.578 32.2963   2
  -6  -1 -11 60.1045 25.7819   2
  -6  -1 -11 21.9407 27.8579   1
   6   1  11 32.1053 18.7062   1
   5  -2 -11 38.1643 29.4750   2
   5  -2 -11 70.5901 27.8797   1
  -5   2  11 76.9575 32.1819   2
  -5   2  11 54.5443 46.7650   1
   4  -2 -11 62.5922 14.8055   1
   4  -2 -11 8.10853 21.3984   2
  -4   2  11 65.6785 38.5507   1
  -4   2  11 79.5352 27.6870   2
  -3  -5   4 205.409 18.2123  -2
   3  -2 -11 205.409 18.2123   1
   3   5  -4 231.131 51.2938  -2
  -3   2  11 231.131 51.2938   1
   2  -2 -11 476.136 24.0809   2
   2  -2 -11 505.470 16.8273   1
  -2   2  11 607.402 38.0273   2
   1  -2 -11 229.876 12.0992   1
   1  -2 -11 230.990 16.1276   2
  -1   2  11 227.302 29.3504   1
  -1   2  11 254.130 16.3603   2
   0  -2 -11 309.380 10.9188   1
   0  -2 -11 289.716 16.8668   2
   0   2  11 374.716 15.4464   2
   0   2  11 326.743 25.4584   1
   1  -4   5 39.0643 15.7086  -2
  -1  -2 -11 39.0643 15.7086   1
  -1  -2 -11 -2.5354 7.46997   1
   1   2  11 8.67920 8.28828   1
   1   2  11 6.36426 5.29539   2
   2  -4   5 489.820 23.4665  -2
  -2  -2 -11 489.820 23.4665   1
  -2   4  -5 585.151 20.3158  -2
   2   2  11 585.151 20.3158   1
  -3  -2 -11 564.176 25.2692   2
  -3  -2 -11 531.873 25.0476   1
   3   2  11 603.146 18.0598   1
  -4  -2 -11 19.5727 20.0901   1
  -4  -2 -11 40.7595 12.9795   2
   4   2  11 57.8187 20.4858   2
   4   2  11 48.3324 13.1768   1
  -5  -2 -11 72.3798 16.9699   2
  -5  -2 -11 34.3136 25.5216   1
   5   2  11 38.1519 15.3335   1
   5   2  11 49.9909 22.4579   2
   6  -3   6 292.783 53.4761  -2
  -6  -2 -11 292.783 53.4761   1
  -6   3  -6 217.087 39.0112  -2
   6   2  11 217.087 39.0112   1
  -4  -6   2 111.186 19.3568  -2
   4  -3 -11 111.186 19.3568   1
   4   6  -2 63.6932 54.0452  -2
  -4   3  11 63.6932 54.0452   1
   3  -3 -11 164.674 12.7982   1
   3  -3 -11 213.633 30.7570   2
  -3   3  11 185.177 38.3559   1
   2  -3 -11 493.396 19.4129   2
   2  -3 -11 477.127 16.2603   1
  -2   3  11 537.352 36.3882   2
  -2   3  11 523.540 46.9309   1
   1  -3 -11 116.113 7.56096   1
   1  -3 -11 123.794 12.6295   2
  -1   3  11 163.767 14.4052   2
  -1   3  11 134.436 23.7950   1
   0  -5   3 305.837 12.6167  -2
   0  -3 -11 305.837 12.6167   1
   0   5  -3 306.056 27.0950  -2
   0   3  11 306.056 27.0950   1
   1  -5   3 231.817 17.4313  -2
  -1  -3 -11 231.817 17.4313   1
  -1   5  -3 279.437 27.3365  -2
   1   3  11 279.437 27.3365   1
  -2  -3 -11 269.093 12.0306   2
  -2  -3 -11 263.064 13.4948   1
   2   3  11 281.088 21.6659   1
  -3  -3 -11 961.107 32.1369   1
  -3  -3 -11 988.403 30.3615   2
   3   3  11 975.147 28.7811   1
   3   3  11 1004.24 50.8526   2
  -4  -3 -11 96.4359 14.7966   2
  -4  -3 -11 69.6109 15.4079   1
   4   3  11 67.1579 19.6591   1
   4   3  11 108.139 25.1107   2
   5  -4   4 286.055 40.8838  -2
  -5  -3 -11 286.055 40.8838   1
  -5   4  -4 326.426 41.5380  -2
   5   3  11 326.426 41.5380   1
  -6  -3 -11 -8.5939 24.9308   1
  -6  -3 -11 33.2323 23.9905   2
   6   3  11 18.0440 27.7111   2
   4  -4 -11 298.484 40.5164   2
   4  -4 -11 255.939 19.9534   1
  -4   4  11 223.608 47.5392   1
   3  -4 -11 15.3932 8.72347   1
   3  -4 -11 9.24585 11.8829   2
  -3   4  11 23.2366 28.8404   1
   2  -4 -11 199.914 11.5825   1
   2  -4 -11 162.184 15.8944   2
  -2   4  11 236.708 33.3555   1
  -1  -6   1 1444.43 19.1906  -2
   1  -4 -11 1444.43 19.1906   1
   1   6  -1 1528.00 56.5897  -2
  -1   4  11 1528.00 56.5897   1
   0  -6   1 13.7475 13.8787  -2
   0  -4 -11 13.7475 13.8787   1
   0  -4 -11 8.86190 6.83189   1
   0  -4 -11 8.42234 9.74848   2
   0   4  11 7.34526 10.9686   2
  -1  -4 -11 211.264 9.35752   2
  -1  -4 -11 198.586 13.1375   1
   1   4  11 205.919 21.1709   1
   1   4  11 274.514 21.3351   2
  -2  -4 -11 221.846 11.8502   2
  -2  -4 -11 204.469 15.5974   1
   2   4  11 219.465 21.6798   1
  -3  -4 -11 269.187 18.3650   2
  -3  -4 -11 222.180 18.2125   1
   3   4  11 272.401 33.7791   2
   4  -5   2 228.416 24.4749  -2
  -4  -4 -11 228.416 24.4749   1
  -5  -4 -11 140.833 19.5291   2
  -5  -4 -11 29.2765 25.1302   1
   5   4  11 176.306 32.5375   2
   4  -5 -11 219.023 37.6017   2
   4  -5 -11 151.003 22.6902   1
  -4   5  11 201.042 45.8154   1
   3  -5 -11 15.5348 12.9390   2
   3  -5 -11 5.93156 10.6835   1
  -3   5  11 21.1566 29.4097   1
  -2  -7  -1 466.994 21.6988  -2
   2  -5 -11 466.994 21.6988   1
   2   7   1 564.387 46.1604  -2
  -2   5  11 564.387 46.1604   1
   1  -5 -11 62.7211 6.33338   1
   1  -5 -11 46.3570 10.4423   2
   0  -5 -11 618.269 12.9015   1
   0  -5 -11 625.736 20.3056   2
   0   5  11 701.251 34.3807   2
  -1  -5 -11 46.7679 6.85757   2
  -1  -5 -11 30.6639 7.61556   1
   1   5  11 38.4841 14.5731   2
   2  -6   0 290.719 23.0965  -2
  -2  -5 -11 290.719 23.0965   1
   3  -6   0 402.358 27.2128  -2
  -3  -5 -11 402.358 27.2128   1
  -4  -5 -11 124.862 18.3121   1
  -4  -5 -11 164.315 17.4265   2
   4   5  11 200.553 35.3475   2
  -5  -5 -11 177.801 20.2892   2
  -5  -5 -11 163.893 33.8935   1
   5   5  11 267.443 42.2028   2
  -3  -8  -3 276.061 24.5487  -2
   3  -6 -11 276.061 24.5487   1
   3   8   3 372.501 51.6903  -2
  -3   6  11 372.501 51.6903   1
   2  -6 -11 357.999 22.8463   2
   2  -6 -11 367.339 12.3112   1
  -2   6  11 473.486 45.3313   1
   1  -6 -11 410.757 20.4720   2
   1  -6 -11 381.766 10.6246   1
  -1   6  11 364.283 34.2013   1
   0  -6 -11 27.1966 5.98107   1
   0  -6 -11 34.3067 6.60218   2
   1  -7  -2 1162.44 28.5190  -2
  -1  -6 -11 1162.44 28.5190   1
   2  -7  -2 88.7538 21.4339  -2
  -2  -6 -11 88.7538 21.4339   1
  -3  -6 -11 21.9636 11.7061   1
  -3  -6 -11 28.2450 9.20513   2
  -4  -6 -11 364.007 26.7194   1
  -4  -6 -11 512.882 24.7553   2
   4   6  11 509.001 51.3667   2
  -5  -6 -11 71.2817 30.5962   1
  -5  -6 -11 47.3611 15.0389   2
   5   6  11 29.3382 31.9430   2
   3  -7 -11 129.719 19.0274   2
   3  -7 -11 141.636 17.2700   1
  -3   7  11 154.785 37.8910   1
   2  -7 -11 10.5359 10.9719   2
   2  -7 -11 9.06625 4.66655   1
  -2   7  11 -3.8525 23.3766   1
   1  -7 -11 143.283 7.22311   1
   1  -7 -11 132.240 14.3987   2
   0  -8  -4 635.799 18.0214  -2
   0  -7 -11 635.799 18.0214   1
   1  -8  -4 352.913 30.2144  -2
  -1  -7 -11 352.913 30.2144   1
  -2  -7 -11 10.8300 8.84775   2
  -2  -7 -11 10.2059 10.0214   1
  -3  -7 -11 -6.0046 11.1496   1
  -3  -7 -11 57.9542 15.5493   2
   4  -7  -3 350.285 38.9044  -2
  -4  -7 -11 350.285 38.9044   1
   2  -8 -11 57.8317 20.3973   2
   0  -8 -11 185.243 19.5019   2
   0  -8 -11 146.137 13.8318   1
  -1  -8 -11 33.2414 13.5075   1
  -1  -8 -11 28.2519 10.0896   2
  -2  -8 -11 65.9487 18.7844   1
  -2  -8 -11 102.588 14.1425   2
   3  -8  -5 354.534 33.9952  -2
  -3  -8 -11 354.534 33.9952   1
   1  -1 -19 23.2272 35.2369  -2
  -1  -6  12 23.2272 35.2369   1
   0  -6  12 86.3642 24.4367   2
   0  -6  12 45.2414 23.2747   1
   1  -6  12 4.20804 17.8998   1
   1  -6  12 15.9597 20.8020   2
   2  -6  12 131.700 29.4053   1
   2  -6  12 181.919 32.5769   2
  -2   0  17 485.798 57.5650  -2
   2   5 -12 485.798 57.5650   1
   2   0 -17 343.219 50.6969  -2
  -2  -5  12 343.219 50.6969   1
   1   5 -12 27.1135 22.0242   1
  -1  -5  12 5.01744 16.6526   1
  -1  -5  12 34.0455 19.4548   2
   0   5 -12 105.518 25.8999   1
   0  -5  12 116.295 25.3872   1
   0  -5  12 61.8684 21.1262   2
  -1   5 -12 347.093 36.3985   1
   1  -5  12 417.369 39.6442   2
   1  -5  12 365.236 36.1579   1
  -2  -1 -18 115.057 28.4780  -2
   2  -5  12 115.057 28.4780   1
  -3   5 -12 15.5882 16.4628   2
   3  -5  12 20.5718 20.4374   1
   3  -5  12 12.4220 21.0176   2
  -3  -1  15 432.574 58.8502  -2
   3   4 -12 432.574 58.8502   1
   3   1 -15 315.913 55.6379  -2
  -3  -4  12 315.913 55.6379   1
   2   4 -12 48.2411 22.7022   1
  -2  -4  12 38.1086 20.9071   1
  -2  -4  12 46.2691 21.2168   2
   1   4 -12 -13.831 16.5318   1
   1   4 -12 30.9371 15.4928   2
  -1  -4  12 12.5559 15.7499   2
  -1  -4  12 11.5573 17.1689   1
   0   4 -12 44.9571 18.4608   1
   0   4 -12 65.8943 20.2954   2
   0  -4  12 80.6042 20.7896   2
   0  -4  12 80.8998 20.6106   1
   1   0  16 78.4059 27.5179  -2
  -1   4 -12 78.4059 27.5179   1
  -1   0 -16 126.962 25.1245  -2
   1  -4  12 126.962 25.1245   1
  -2   4 -12 163.812 27.6888   2
  -2   4 -12 126.525 26.2758   1
   2  -4  12 144.994 25.5140   1
   2  -4  12 141.626 26.9885   2
  -3   4 -12 67.8910 20.9805   2
   3  -4  12 87.1922 17.9418   1
   3  -4  12 90.5101 27.2300   2
  -4   4 -12 69.6321 28.9849   2
   4  -4  12 86.9740 20.1828   1
   4  -4  12 93.1559 27.5098   2
   3   3 -12 197.436 32.4187   1
  -3  -3  12 285.793 37.2285   2
  -3  -3  12 229.179 34.7254   1
   2   3 -12 74.3335 21.8044   1
  -2  -3  12 68.9933 22.3079   1
  -2  -3  12 92.7836 23.3596   2
   1   3 -12 199.971 28.5751   2
  -1  -1  14 371.403 44.8994  -2
   1   3 -12 371.403 44.8994   1
   1   1 -14 266.156 37.4815  -2
  -1  -3  12 266.156 37.4815   1
   0  -1  14 174.372 31.1693  -2
   0   3 -12 174.372 31.1693   1
   0   1 -14 188.989 29.3042  -2
   0  -3  12 188.989 29.3042   1
  -1   3 -12 23.5149 17.3524   1
  -1   3 -12 19.7728 12.4250   2
   1  -3  12 18.8324 15.2873   2
   1  -3  12 2.09020 12.7990   1
  -2   3 -12 125.334 17.9532   2
  -2   3 -12 174.635 26.8587   1
   2  -3  12 141.347 25.8765   2
   2  -3  12 128.746 23.1372   1
  -3   3 -12 92.4156 22.9785   1
  -3   3 -12 89.4102 18.0299   2
   3  -3  12 101.298 17.8948   1
   3  -3  12 171.583 31.4159   2
   4   0  15 234.967 44.6504  -2
  -4   3 -12 234.967 44.6504   1
  -4   0 -15 187.195 27.8838  -2
   4  -3  12 187.195 27.8838   1
  -5   0 -15 197.326 42.4565  -2
   5  -3  12 197.326 42.4565   1
   4   2 -12 204.463 34.2821   1
  -4  -2  12 171.646 32.5789   2
   3   2 -12 27.7259 22.1985   2
   3   2 -12 10.6956 17.4733   1
  -3  -2  12 24.9813 20.1105   2
  -3  -2  12 2.19846 21.4073   1
  -2  -2  12 546.583 45.7785  -2
   2   2 -12 546.583 45.7785   1
   2   2 -12 448.461 41.9749  -2
  -2  -2  12 448.461 41.9749   1
  -1  -2  12 669.147 43.7570  -2
   1   2 -12 669.147 43.7570   1
   1   2 -12 617.368 40.6796  -2
  -1  -2  12 617.368 40.6796   1
   0   2 -12 217.850 24.7357   2
   0   2 -12 163.148 23.1833   1
   0  -2  12 203.212 24.3875   1
   0  -2  12 214.308 26.8477   2
  -1   2 -12 1081.30 35.2504   2
  -1   2 -12 1075.02 49.0899   1
   1  -2  12 1159.73 50.3310   2
   1  -2  12 996.572 44.1136   1
  -2   2 -12 197.698 19.6673   2
  -2   2 -12 183.609 26.7550   1
   2  -2  12 182.014 26.2263   2
   2  -2  12 201.884 20.2230   1
   3  -1  13 605.700 43.7164  -2
  -3   2 -12 605.700 43.7164   1
  -3   1 -13 610.038 31.2906  -2
   3  -2  12 610.038 31.2906   1
   4  -1  13 119.741 49.5684  -2
  -4   2 -12 119.741 49.5684   1
  -4   2 -12 64.1394 17.1385   2
   4  -2  12 29.7734 15.3777   1
   4  -2  12 31.8568 23.0368   2
  -5   2 -12 32.7221 25.4991   1
  -5   2 -12 69.6082 20.5355   2
   5  -2  12 45.2471 17.9770   1
   5  -2  12 83.0917 29.8457   2
   4   1 -12 122.577 30.5991   2
   4   1 -12 144.536 29.7747   1
  -4  -1  12 102.783 28.2351   2
  -3  -3  10 167.003 31.3031  -2
   3   1 -12 167.003 31.3031   1
  -2  -3  10 609.765 43.5339  -2
   2   1 -12 609.765 43.5339   1
   2   3 -10 560.767 42.6781  -2
  -2  -1  12 560.767 42.6781   1
   1   1 -12 48.5055 15.9907   2
   1   1 -12 69.5668 11.9245   1
  -1  -1  12 62.7600 17.5665   2
  -1  -1  12 77.5370 17.4049   1
   0   1 -12 441.529 21.7961   1
   0   1 -12 493.749 31.7125   2
   0  -1  12 447.878 22.7913   1
   0  -1  12 526.838 34.6081   2
  -1   1 -12 614.390 24.7859   1
  -1   1 -12 690.588 35.4402   2
   1  -1  12 569.005 25.7049   1
   1  -1  12 726.549 39.7859   2
   2  -2  11 783.627 43.1275  -2
  -2   1 -12 783.627 43.1275   1
  -2   2 -11 740.044 31.1318  -2
   2  -1  12 740.044 31.1318   1
  -3   1 -12 458.045 25.9112   2
  -3   1 -12 489.463 40.0968   1
   3  -1  12 575.838 29.8015   1
   3  -1  12 598.162 42.6651   2
  -4   1 -12 13.3821 13.1083   2
  -4   1 -12 19.0517 20.5804   1
   4  -1  12 17.9741 13.6101   1
   4  -1  12 7.15585 19.7954   2
  -5   1 -12 109.699 21.1932   2
  -5   1 -12 86.6249 28.3518   1
   5  -1  12 98.0136 30.0079   2
   5  -1  12 122.827 20.8121   1
  -4  -4   8 17.4013 30.1514  -2
   4   0 -12 17.4013 30.1514   1
  -3  -4   8 112.180 37.5293  -2
   3   0 -12 112.180 37.5293   1
   3   0 -12 31.9709 15.7813   1
   3   0 -12 86.2309 24.0902   2
   2   0 -12 1458.49 29.0540   1
   2   0 -12 1429.86 55.4964   2
  -2   0  12 1501.49 58.7111   2
   1   0 -12 256.113 13.3685   1
   1   0 -12 276.930 27.7103   2
  -1   0  12 264.475 15.9127   1
  -1   0  12 277.557 27.8440   2
   0  -3   9 228.675 15.4296  -2
   0   0 -12 228.675 15.4296   1
   0   0 -12 114.211 14.3684   2
   0   0  12 111.150 20.5131   1
   0   0  12 139.548 20.2592   2
   0   3  -9 201.887 27.2310  -2
   0   0  12 201.887 27.2310   1
   1  -3   9 632.212 25.8184  -2
  -1   0 -12 632.212 25.8184   1
  -1   3  -9 626.897 27.7659  -2
   1   0  12 626.897 27.7659   1
  -2   0 -12 136.288 14.8131   1
  -2   0 -12 127.353 15.1346   2
   2   0  12 123.619 14.9335   1
   2   0  12 116.162 20.8673   2
  -3   0 -12 739.798 31.0804   2
  -3   0 -12 563.917 40.8130   1
   3   0  12 731.644 43.1971   2
   3   0  12 608.120 28.9453   1
  -4   0 -12 630.548 32.4353   2
  -4   0 -12 593.459 45.8482   1
   4   0  12 587.932 31.4827   1
   4   0  12 631.040 44.5240   2
   5  -2  10 86.0235 44.9752  -2
  -5   0 -12 86.0235 44.9752   1
  -5   2 -10 47.6083 24.8342  -2
   5   0  12 47.6083 24.8342   1
   6  -2  10 126.765 65.8799  -2
  -6   0 -12 126.765 65.8799   1
  -6   2 -10 85.2830 30.2914  -2
   6   0  12 85.2830 30.2914   1
   4  -1 -12 30.9151 24.8309   2
   4  -1 -12 19.4929 12.6137   1
  -4   1  12 -7.6797 21.9842   2
   3  -1 -12 118.479 12.1410   1
   3  -1 -12 107.403 25.1351   2
  -3   1  12 131.079 27.8002   2
   2  -1 -12 345.725 16.0595   1
   2  -1 -12 335.007 31.9163   2
  -2   1  12 385.488 36.0338   2
  -1  -4   7 272.768 16.0681  -2
   1  -1 -12 272.768 16.0681   1
   0  -4   7 1327.99 25.5155  -2
   0  -1 -12 1327.99 25.5155   1
   0   4  -7 1288.83 42.7791  -2
   0   1  12 1288.83 42.7791   1
  -1  -1 -12 368.390 13.5161   1
  -1  -1 -12 392.801 20.3561   2
   1   1  12 368.978 17.8909   1
   1   1  12 436.169 29.3734   2
  -2  -1 -12 33.4897 9.32937   1
  -2  -1 -12 33.5437 10.5950   2
   2   1  12 28.2928 14.8625   2
   2   1  12 37.5697 10.4437   1
  -3  -1 -12 460.742 24.6913   2
  -3  -1 -12 454.572 24.2874   1
   3   1  12 428.633 34.8648   2
   3   1  12 465.327 25.3943   1
   4  -3   8 460.667 41.6543  -2
  -4  -1 -12 460.667 41.6543   1
  -4   3  -8 475.191 28.5113  -2
   4   1  12 475.191 28.5113   1
  -5  -1 -12 146.445 26.8421   2
  -5  -1 -12 130.782 32.9252   1
   5   1  12 114.212 20.1317   1
   5   1  12 175.457 30.4921   2
  -6  -1 -12 73.9077 32.6539   1
  -6  -1 -12 143.381 29.9098   2
   6   1  12 111.891 22.0730   1
   4  -2 -12 320.464 41.3013   2
   4  -2 -12 311.079 23.5115   1
  -4   2  12 379.186 43.6630   2
  -4   2  12 298.300 54.1798   1
   3  -2 -12 455.085 18.9766   1
   3  -2 -12 465.379 40.8926   2
  -3   2  12 495.075 44.0625   2
  -3   2  12 489.218 55.8062   1
  -2  -5   5 165.976 16.2843  -2
   2  -2 -12 165.976 16.2843   1
  -1  -5   5 174.029 15.0894  -2
   1  -2 -12 174.029 15.0894   1
   1   5  -5 205.776 44.6856  -2
  -1   2  12 205.776 44.6856   1
   0  -2 -12 46.6082 9.76570   2
   0  -2 -12 34.7833 6.13518   1
   0   2  12 40.6730 8.27065   2
  -1  -2 -12 402.937 14.6258   1
  -1  -2 -12 376.439 19.6636   2
   1   2  12 432.399 19.3915   2
   1   2  12 470.465 29.5087   1
  -2  -2 -12 936.164 28.7925   2
  -2  -2 -12 899.327 27.8926   1
   2   2  12 1038.81 40.9773   2
   2   2  12 968.958 17.0187   1
   3  -4   6 398.163 23.7382  -2
  -3  -2 -12 398.163 23.7382   1
  -3   4  -6 448.177 22.9189  -2
   3   2  12 448.177 22.9189   1
  -4  -2 -12 10.2610 11.7582   2
  -4  -2 -12 5.65384 18.7018   1
   4   2  12 -4.4858 17.2561   2
   4   2  12 3.65992 11.8202   1
  -5  -2 -12 217.923 34.8494   1
  -5  -2 -12 234.366 32.0498   2
   5   2  12 261.535 34.1329   2
   5   2  12 262.674 23.6542   1
  -6  -2 -12 387.907 43.0884   2
  -6  -2 -12 363.766 49.5160   1
   6   2  12 406.045 32.9368   1
   6   2  12 389.533 44.9011   2
   4  -3 -12 59.5345 14.6137   1
   4  -3 -12 55.5434 26.2527   2
  -4   3  12 46.8564 39.5395   1
  -3  -6   3 327.334 20.5528  -2
   3  -3 -12 327.334 20.5528   1
   3   6  -3 270.163 52.7466  -2
  -3   3  12 270.163 52.7466   1
   2  -3 -12 142.997 15.7194   2
   2  -3 -12 151.582 11.3795   1
  -2   3  12 124.808 31.6634   1
   1  -3 -12 78.7754 8.34355   1
   1  -3 -12 70.5880 11.3346   2
  -1   3  12 81.8334 16.4733   2
  -1   3  12 120.582 24.1449   1
   0  -3 -12 19.8606 6.28408   1
   0  -3 -12 24.0946 9.25556   2
   0   3  12 6.50116 9.67892   2
   1  -5   4 370.034 21.1667  -2
  -1  -3 -12 370.034 21.1667   1
   1   3  12 367.128 20.1841   2
   2  -5   4 193.215 20.1354  -2
  -2  -3 -12 193.215 20.1354   1
  -2   5  -4 252.697 25.7187  -2
   2   3  12 252.697 25.7187   1
  -3  -3 -12 807.901 28.8277   2
  -3  -3 -12 688.940 28.5084   1
   3   3  12 818.557 34.7018   1
  -4  -3 -12 101.716 15.6534   2
  -4  -3 -12 106.390 26.9833   1
   4   3  12 146.272 28.6937   2
  -5  -3 -12 216.579 36.4117   1
  -5  -3 -12 315.617 26.4033   2
   5   3  12 314.293 39.0542   2
  -4  -7   1 62.0694 18.8523  -2
   4  -4 -12 62.0694 18.8523   1
   4   7  -1 30.5720 54.7350  -2
  -4   4  12 30.5720 54.7350   1
   3  -4 -12 153.764 14.6810   1
   3  -4 -12 221.748 32.7753   2
  -3   4  12 211.542 40.2726   1
   2  -4 -12 168.371 11.1643   1
   2  -4 -12 188.621 14.6076   2
  -2   4  12 191.680 31.9987   1
   1  -4 -12 423.250 20.9495   2
   1  -4 -12 400.920 13.5960   1
  -1   4  12 411.475 36.4921   1
   0  -6   2 552.316 17.3901  -2
   0  -4 -12 552.316 17.3901   1
   1  -6   2 554.523 22.6170  -2
  -1  -4 -12 554.523 22.6170   1
  -2  -4 -12 619.576 24.4531   1
  -2  -4 -12 670.951 23.7763   2
  -3  -4 -12 -4.8631 9.83401   1
  -3  -4 -12 10.2040 9.16086   2
  -4  -4 -12 295.060 24.1561   1
  -4  -4 -12 375.623 23.9386   2
   4   4  12 349.109 40.9826   2
   5  -5   3 171.917 39.0479  -2
  -5  -4 -12 171.917 39.0479   1
  -4   5  12 60.2600 39.5945   1
   3  -5 -12 18.6649 12.2416   1
   3  -5 -12 5.55666 12.7431   2
  -3   5  12 -15.936 26.3603   1
   2  -5 -12 106.760 15.2395   2
   2  -5 -12 92.9234 13.5195   1
  -2   5  12 57.7387 26.5956   1
  -1  -7   0 537.460 19.6040  -2
   1  -5 -12 537.460 19.6040   1
   0  -7   0 704.838 18.9381  -2
   0  -5 -12 704.838 18.9381   1
  -1  -5 -12 32.6776 7.91369   1
  -1  -5 -12 13.8099 7.78854   2
   1   5  12 32.8285 14.6640   2
  -2  -5 -12 524.039 23.2233   1
  -2  -5 -12 544.410 20.9045   2
  -3  -5 -12 15.6551 10.8671   1
  -3  -5 -12 27.5296 14.3778   2
   4  -6   1 713.458 34.1986  -2
  -4  -5 -12 713.458 34.1986   1
  -5  -5 -12 92.2567 17.9961   2
  -5  -5 -12 57.7469 29.0548   1
   5   5  12 32.1337 29.8558   2
   3  -6 -12 168.006 19.0605   1
   3  -6 -12 172.598 21.4212   2
  -3   6  12 247.292 42.6040   1
  -2  -8  -2 223.303 17.1766  -2
   2  -6 -12 223.303 17.1766   1
   2   8   2 285.422 42.0927  -2
  -2   6  12 285.422 42.0927   1
   1  -6 -12 32.1092 6.28016   1
   1  -6 -12 43.7079 14.5756   2
   0  -6 -12 348.832 17.6423   2
   0  -6 -12 274.906 13.4699   1
  -1  -6 -12 92.4428 10.6895   1
  -1  -6 -12 94.0452 10.3249   2
   2  -7  -1 397.855 26.3192  -2
  -2  -6 -12 397.855 26.3192   1
   3  -7  -1 326.967 28.1120  -2
  -3  -6 -12 326.967 28.1120   1
  -4  -6 -12 27.1741 15.1779   1
  -4  -6 -12 42.5997 12.8035   2
   4   6  12 38.0511 29.2828   2
   2  -7 -12 240.653 20.0958   2
   2  -7 -12 235.258 16.1454   1
   1  -7 -12 26.5412 5.43638   1
   1  -7 -12 30.4713 11.0572   2
   0  -7 -12 112.422 11.3835   2
   0  -7 -12 101.074 12.1237   1
   1  -8  -3 62.4163 22.7772  -2
  -1  -7 -12 62.4163 22.7772   1
   2  -8  -3 252.604 25.7013  -2
  -2  -7 -12 252.604 25.7013   1
  -3  -7 -12 46.1425 14.4397   1
  -3  -7 -12 27.0168 14.9053   2
  -4  -7 -12 14.9449 15.2033   1
  -4  -7 -12 7.87671 16.6694   2
   4   7  12 39.4787 32.4414   2
   1  -8 -12 141.225 21.1448   2
   1  -8 -12 134.398 8.25066   1
   0  -9  -5 380.712 23.6920  -2
   0  -8 -12 380.712 23.6920   1
   1  -9  -5 132.360 29.9070  -2
  -1  -8 -12 132.360 29.9070   1
  -2  -8 -12 126.872 16.6069   2
  -2  -8 -12 43.6569 17.0305   1
  -3  -8 -12 55.6524 17.3097   2
  -3  -8 -12 7.60312 13.9169   1
  -1   0  18 100.458 42.6262  -2
   1   5 -13 100.458 42.6262   1
   1   0 -18 52.3230 35.8535  -2
  -1  -5  13 52.3230 35.8535   1
   0   5 -13 826.790 53.9565   1
   0  -5  13 801.554 51.1963   1
   0  -5  13 880.028 51.5407   2
  -1   5 -13 6.54041 20.0882   1
   1  -5  13 15.1316 17.7951   1
   1  -5  13 -22.195 16.3156   2
   2  -5  13 201.322 34.0359   2
   2  -5  13 232.382 33.3103   1
  -3  -1 -19 216.662 44.1763  -2
   3  -5  13 216.662 44.1763   1
  -2  -1  16 307.962 49.0729  -2
   2   4 -13 307.962 49.0729   1
   2   1 -16 397.234 47.7805  -2
  -2  -4  13 397.234 47.7805   1
   1   4 -13 113.044 20.2424   2
   1   4 -13 79.3906 24.9203   1
  -1  -4  13 158.330 26.9787   1
  -1  -4  13 179.066 28.1838   2
   0   4 -13 178.650 25.5262   2
   0   4 -13 171.431 26.7827   1
   0  -4  13 138.080 25.1105   1
   0  -4  13 183.259 27.2015   2
  -1   4 -13 19.7570 19.5492   1
  -1   4 -13 28.1837 22.5685   2
   1  -4  13 59.6725 19.9874   1
   1  -4  13 55.0869 20.6064   2
   2   0  17 216.753 37.7273  -2
  -2   4 -13 216.753 37.7273   1
  -2   0 -17 144.933 29.1143  -2
   2  -4  13 144.933 29.1143   1
  -3   4 -13 196.934 33.3643   2
   3  -4  13 138.957 21.5664   1
   3  -4  13 173.233 31.8606   2
  -4   4 -13 102.126 32.3234   2
   4  -4  13 76.8302 29.9727   2
   4  -4  13 78.7565 21.0256   1
  -3  -2  14 60.5376 48.9511  -2
   3   3 -13 60.5376 48.9511   1
   2   3 -13 386.282 38.8482   1
  -2  -3  13 424.555 41.3059   1
  -2  -3  13 390.487 39.7913   2
   1   3 -13 102.509 24.6125   1
   1   3 -13 118.251 17.1033   2
  -1  -3  13 67.7273 20.4824   2
  -1  -3  13 67.6848 19.7667   1
   0   3 -13 -8.5310 11.9248   2
   0   3 -13 9.58334 15.4288   1
   0  -3  13 26.4204 14.7207   1
   0  -3  13 -0.1381 14.0962   2
   1  -1  15 237.007 32.6291  -2
  -1   3 -13 237.007 32.6291   1
  -1   1 -15 261.259 29.8297  -2
   1  -3  13 261.259 29.8297   1
  -2   3 -13 540.861 44.1440   1
  -2   3 -13 571.394 30.2166   2
   2  -3  13 519.359 30.1962   1
   2  -3  13 584.348 42.8376   2
  -3   3 -13 347.460 27.4479   2
  -3   3 -13 352.022 38.5770   1
   3  -3  13 320.742 26.7843   1
   3  -3  13 393.076 41.4074   2
  -4   3 -13 36.9088 24.1257   1
  -4   3 -13 27.3296 16.0696   2
   4  -3  13 25.3324 23.9452   2
   4  -3  13 36.3155 16.7043   1
   3   2 -13 24.8618 23.0874   2
   3   2 -13 32.1236 21.2326   1
  -3  -2  13 60.0498 24.4062   2
   2   2 -13 65.2501 21.4830   2
   2   2 -13 80.7423 22.7943   1
  -2  -2  13 110.391 24.2790   2
  -2  -2  13 51.9388 19.8306   1
  -1  -2  13 605.043 46.9301  -2
   1   2 -13 605.043 46.9301   1
   1   2 -13 605.224 44.2916  -2
  -1  -2  13 605.224 44.2916   1
   0  -2  13 969.101 49.3344  -2
   0   2 -13 969.101 49.3344   1
   0   2 -13 867.386 44.3297  -2
   0  -2  13 867.386 44.3297   1
  -1   2 -13 1039.70 35.8006   2
  -1   2 -13 977.629 48.8209   1
   1  -2  13 927.539 33.7989   1
   1  -2  13 1067.12 50.4662   2
  -2   2 -13 60.5693 15.6569   2
  -2   2 -13 70.5005 21.9832   1
   2  -2  13 70.8915 21.4034   2
   2  -2  13 63.0427 14.5220   1
  -3   2 -13 147.133 26.7816   1
  -3   2 -13 174.199 20.1845   2
   3  -2  13 184.837 21.7075   1
   3  -2  13 176.478 28.5413   2
   4  -1  14 16.6341 39.7218  -2
  -4   2 -13 16.6341 39.7218   1
  -4   1 -14 31.4775 22.5221  -2
   4  -2  13 31.4775 22.5221   1
   5  -1  14 472.864 65.4704  -2
  -5   2 -13 472.864 65.4704   1
  -5   1 -14 666.669 49.8144  -2
   5  -2  13 666.669 49.8144   1
   4   1 -13 257.356 37.2471   1
   4   1 -13 366.372 46.6491   2
  -4  -1  13 292.999 39.7603   2
   3   1 -13 28.6178 21.7726   2
   3   1 -13 31.4378 19.4394   1
  -3  -1  13 33.2422 15.9770   1
  -3  -1  13 46.9600 23.4129   2
  -2  -3  11 159.223 34.4789  -2
   2   1 -13 159.223 34.4789   1
  -1  -3  11 661.936 42.5132  -2
   1   1 -13 661.936 42.5132   1
   1   3 -11 710.550 31.1528  -2
  -1  -1  13 710.550 31.1528   1
   0   1 -13 3.46940 9.85742   1
   0   1 -13 30.0660 14.7975   2
   0  -1  13 24.1177 10.9563   1
   0  -1  13 20.5340 15.0208   2
  -1   1 -13 489.533 33.0379   2
  -1   1 -13 499.149 35.6254   1
   1  -1  13 640.244 40.2490   2
   1  -1  13 553.046 26.7577   1
  -2   1 -13 269.220 22.1481   2
  -2   1 -13 276.205 31.1558   1
   2  -1  13 278.409 21.1942   1
   2  -1  13 236.543 29.6103   2
   3  -2  12 584.617 44.7310  -2
  -3   1 -13 584.617 44.7310   1
  -3   2 -12 616.563 31.4542  -2
   3  -1  13 616.563 31.4542   1
  -4   1 -13 79.7558 17.5813   2
  -4   1 -13 79.5694 24.9255   1
   4  -1  13 74.1862 16.6626   1
  -5   1 -13 290.721 28.2682   2
  -5   1 -13 193.912 35.5821   1
   5  -1  13 218.254 27.5557   1
   5  -1  13 322.247 44.0535   2
   4   0 -13 263.106 35.9493   1
   4   0 -13 330.748 43.1700   2
  -4   0  13 282.136 38.4703   2
  -3  -4   9 286.631 25.4018  -2
   3   0 -13 286.631 25.4018   1
  -2  -4   9 484.569 28.4360  -2
   2   0 -13 484.569 28.4360   1
   1   0 -13 21.4180 7.47839   1
   1   0 -13 24.6961 14.3631   2
  -1   0  13 6.05476 14.8436   2
  -1   0  13 27.1717 10.6510   1
   0   0 -13 746.694 38.6395   2
   0   0 -13 852.588 27.6576   1
   0   0  13 822.180 26.6047   1
   0   0  13 860.587 41.9996   2
  -1   0 -13 48.1980 11.1381   1
  -1   0 -13 35.3740 14.1702   2
   1   0  13 39.6342 11.0546   1
   1   0  13 45.4000 16.3483   2
   2  -3  10 565.731 39.1952  -2
  -2   0 -13 565.731 39.1952   1
  -2   3 -10 542.693 27.4190  -2
   2   0  13 542.693 27.4190   1
  -3   0 -13 146.201 26.1273   1
  -3   0 -13 150.703 17.0700   2
   3   0  13 164.402 19.1557   1
   3   0  13 158.406 26.1820   2
  -4   0 -13 154.697 20.5754   2
  -4   0 -13 183.557 30.9423   1
   4   0  13 207.079 23.0049   1
   4   0  13 172.588 30.1615   2
  -5   0 -13 14.0059 23.8246   1
  -5   0 -13 46.9093 18.1783   2
   5   0  13 73.6531 19.7667   1
  -4  -5   7 574.790 32.5249  -2
   4  -1 -13 574.790 32.5249   1
  -3  -5   7 267.924 28.0937  -2
   3  -1 -13 267.924 28.0937   1
   3  -1 -13 17.6652 15.9121   1
   2  -1 -13 83.6472 10.3084   1
   2  -1 -13 93.4374 20.8210   2
  -2   1  13 97.0513 23.6561   2
   1  -1 -13 262.007 14.4608   1
   1  -1 -13 210.895 24.6671   2
  -1   1  13 257.464 29.2808   2
   0  -1 -13 43.8371 11.9018   1
   0  -4   8 97.3931 19.9455  -2
   0  -1 -13 97.3931 19.9455   1
   0  -1 -13 53.2004 18.7066   2
   0   1  13 41.3460 15.6675   2
   1  -4   8 142.002 18.2116  -2
  -1  -1 -13 142.002 18.2116   1
  -1   4  -8 122.854 16.1932  -2
   1   1  13 122.854 16.1932   1
  -2  -1 -13 198.059 18.5255   2
  -2  -1 -13 184.021 15.5177   1
   2   1  13 176.292 16.1499   1
   2   1  13 211.316 26.1124   2
  -3  -1 -13 443.564 24.7607   2
  -3  -1 -13 512.124 39.6710   1
   3   1  13 585.990 38.1043   2
   3   1  13 486.891 26.0026   1
  -4  -1 -13 202.407 30.5972   1
  -4  -1 -13 294.041 27.0137   2
   4   1  13 266.251 22.2593   1
   5  -3   9 11.2414 40.6784  -2
  -5  -1 -13 11.2414 40.6784   1
  -5   3  -9 89.1336 25.0403  -2
   5   1  13 89.1336 25.0403   1
   4  -2 -13 78.2172 31.0821   2
   4  -2 -13 24.9967 13.2381   1
  -4   2  13 17.2022 37.4133   1
  -4   2  13 5.76405 26.5270   2
   3  -2 -13 18.9022 8.62312   1
   3  -2 -13 30.8484 21.1927   2
  -3   2  13 17.1393 23.1656   2
  -3   2  13 48.3332 34.8772   1
   2  -2 -13 12.3922 7.15180   1
   2  -2 -13 12.3994 16.2703   2
  -2   2  13 32.2669 29.4597   1
  -2   2  13 32.2392 20.2297   2
  -1  -5   6 731.401 21.8527  -2
   1  -2 -13 731.401 21.8527   1
   0  -5   6 780.075 26.3560  -2
   0  -2 -13 780.075 26.3560   1
  -1  -2 -13 15.9969 6.14371   1
  -1  -2 -13 33.3280 10.4450   2
   1   2  13 4.34064 12.8754   2
  -2  -2 -13 403.603 23.1316   2
  -2  -2 -13 329.683 19.9387   1
   2   2  13 437.363 47.6759   2
   2   2  13 534.648 28.6206   1
  -3  -2 -13 114.051 15.5993   2
  -3  -2 -13 110.878 15.4428   1
   3   2  13 124.765 13.9187   1
   4  -4   7 266.434 37.1815  -2
  -4  -2 -13 266.434 37.1815   1
  -4   4  -7 213.146 20.5669  -2
   4   2  13 213.146 20.5669   1
  -5  -2 -13 10.9239 23.9838   1
  -5  -2 -13 31.5887 19.3255   2
   5   2  13 27.8767 14.9998   1
   5   2  13 61.9615 24.8355   2
   4  -3 -13 3.66863 12.5330   1
   4  -3 -13 0.19535 24.3101   2
  -4   3  13 7.03317 37.0240   1
   3  -3 -13 156.884 30.9789   2
   3  -3 -13 115.870 13.8679   1
  -3   3  13 116.235 37.6705   1
  -2  -6   4 332.667 16.8821  -2
   2  -3 -13 332.667 16.8821   1
   2   6  -4 386.270 52.2126  -2
  -2   3  13 386.270 52.2126   1
  -1  -6   4 558.235 19.7353  -2
   1  -3 -13 558.235 19.7353   1
   0  -3 -13 34.1386 7.20412   1
   0  -3 -13 27.3722 9.52096   2
   0   3  13 35.9766 13.2525   2
  -1  -3 -13 280.364 18.7943   2
  -1  -3 -13 294.701 17.1016   1
  -2  -3 -13 418.989 33.2325   2
  -2  -3 -13 356.375 20.1922   1
   2   3  13 447.902 26.6613   1
   3  -5   5 797.349 30.7651  -2
  -3  -3 -13 797.349 30.7651   1
  -4  -3 -13 574.853 29.4986   2
  -4  -3 -13 387.818 39.5826   1
  -5  -3 -13 -5.3097 23.4484   1
  -5  -3 -13 27.1676 14.7637   2
   5   3  13 3.29459 23.2032   2
   4  -4 -13 13.6358 12.8825   1
   4  -4 -13 -17.154 21.5491   2
  -4   4  13 -6.4706 36.3709   1
  -3  -7   2 539.210 23.9032  -2
   3  -4 -13 539.210 23.9032   1
   3   7  -2 536.489 59.6739  -2
  -3   4  13 536.489 59.6739   1
   2  -4 -13 267.664 16.3173   1
   2  -4 -13 258.244 20.8540   2
   1  -4 -13 42.1273 10.7505   2
   1  -4 -13 62.1754 7.46970   1
   0  -4 -13 168.543 10.9190   1
   0  -4 -13 159.536 14.0963   2
   0   4  13 185.833 20.5929   2
   1  -6   3 306.467 20.9471  -2
  -1  -4 -13 306.467 20.9471   1
   2  -6   3 617.912 26.8093  -2
  -2  -4 -13 617.912 26.8093   1
  -3  -4 -13 1021.13 31.4891   2
  -3  -4 -13 1012.50 34.3894   1
  -4  -4 -13 246.959 22.3713   1
  -4  -4 -13 296.707 23.2801   2
   4   4  13 348.741 42.5104   2
  -5  -4 -13 86.9230 17.3048   2
  -5  -4 -13 70.3044 29.5898   1
   5   4  13 105.482 32.0329   2
   3  -5 -13 95.4922 17.2020   2
   3  -5 -13 93.1300 17.3093   1
  -3   5  13 108.772 39.0260   1
   2  -5 -13 246.054 16.8688   2
   2  -5 -13 242.333 20.5928   1
   1  -5 -13 47.2142 10.5646   1
   1  -5 -13 63.0981 12.0643   2
   0  -7   1 906.103 21.4359  -2
   0  -5 -13 906.103 21.4359   1
   1  -7   1 263.565 19.5640  -2
  -1  -5 -13 263.565 19.5640   1
  -2  -5 -13 416.212 20.6100   2
  -2  -5 -13 344.357 20.4765   1
  -3  -5 -13 126.669 16.9250   1
  -3  -5 -13 142.974 15.4514   2
  -4  -5 -13 351.675 24.2634   2
  -4  -5 -13 263.243 23.8944   1
   4   5  13 410.135 47.8988   2
   5  -6   2 316.616 48.8166  -2
  -5  -5 -13 316.616 48.8166   1
   3  -6 -13 71.1117 17.9983   2
   3  -6 -13 48.2543 15.7092   1
  -3   6  13 63.5322 39.7156   1
   2  -6 -13 44.9799 11.9149   1
   2  -6 -13 52.9059 14.3130   2
  -1  -8  -1 98.0357 16.3117  -2
   1  -6 -13 98.0357 16.3117   1
   0  -8  -1 424.403 25.8207  -2
   0  -6 -13 424.403 25.8207   1
  -1  -6 -13 80.3432 10.6069   1
  -1  -6 -13 109.081 11.6077   2
  -2  -6 -13 157.199 13.7546   2
  -2  -6 -13 136.871 15.1091   1
  -3  -6 -13 169.072 17.9262   1
  -3  -6 -13 198.715 24.0394   2
   4  -7   0 26.7434 24.2933  -2
  -4  -6 -13 26.7434 24.2933   1
  -2  -9  -3 158.214 16.1783  -2
   2  -7 -13 158.214 16.1783   1
   1  -7 -13 106.299 14.0950   2
   1  -7 -13 129.197 12.0045   1
   0  -7 -13 111.910 14.5438   2
   0  -7 -13 129.681 14.5442   1
  -1  -7 -13 48.9941 12.8590   2
  -1  -7 -13 38.8603 12.5980   1
   2  -8  -2 231.078 27.1169  -2
  -2  -7 -13 231.078 27.1169   1
   3  -8  -2 379.863 31.0313  -2
  -3  -7 -13 379.863 31.0313   1
   1  -8 -13 93.7085 20.2513   2
   1  -8 -13 65.1038 9.49056   1
   0  -8 -13 57.2163 15.7583   2
   0  -8 -13 48.0996 12.4089   1
   1  -9  -4 143.329 28.8592  -2
  -1  -8 -13 143.329 28.8592   1
   2  -9  -4 315.313 39.5662  -2
  -2  -8 -13 315.313 39.5662   1
   0   0  19 268.585 38.6729  -2
   0   5 -14 268.585 38.6729   1
   0   0 -19 282.186 36.0375  -2
   0  -5  14 282.186 36.0375   1
  -1   5 -14 57.7858 37.7551   1
   1  -5  14 77.9067 25.5385   2
   1  -5  14 56.8518 22.0934   1
   2  -5  14 239.945 34.6632   1
   2  -5  14 294.850 38.9038   2
  -2  -1  17 -19.419 52.5546  -2
   2   4 -14 -19.419 52.5546   1
   2   1 -17 6.19977 47.1163  -2
  -2  -4  14 6.19977 47.1163   1
  -1  -1  17 99.6276 39.4438  -2
   1   4 -14 99.6276 39.4438   1
   1   1 -17 65.9801 28.4491  -2
  -1  -4  14 65.9801 28.4491   1
   0   4 -14 60.8094 22.6953   2
   0   4 -14 71.5747 22.7037   1
   0  -4  14 45.9419 21.6925   1
   0  -4  14 77.8261 23.6345   2
  -1   4 -14 268.026 32.4729   2
  -1   4 -14 257.205 35.0651   1
   1  -4  14 195.130 31.9014   2
   1  -4  14 203.390 29.1636   1
  -2   4 -14 -1.6912 23.4798   2
  -2   4 -14 14.1975 21.4061   1
   2  -4  14 4.32360 16.5044   1
   2  -4  14 13.2771 19.6835   2
  -3   0 -18 122.606 32.8998  -2
   3  -4  14 122.606 32.8998   1
  -2  -2  15 108.023 42.0652  -2
   2   3 -14 108.023 42.0652   1
   2   2 -15 138.732 40.4926  -2
  -2  -3  14 138.732 40.4926   1
   1   3 -14 104.747 24.5499   1
   1   3 -14 107.684 18.0506   2
  -1  -3  14 105.635 23.1162   1
  -1  -3  14 114.030 24.4421   2
   0   3 -14 5.47359 17.4033   1
   0   3 -14 17.3033 13.0352   2
   0  -3  14 17.8907 15.6377   1
   0  -3  14 -5.9121 15.6315   2
  -1   3 -14 398.738 38.8006   1
  -1   3 -14 389.786 27.0622   2
   1  -3  14 406.436 34.9571   1
   1  -3  14 449.111 39.6994   2
   2  -1  16 355.391 44.1994  -2
  -2   3 -14 355.391 44.1994   1
  -2   1 -16 312.403 28.9395  -2
   2  -3  14 312.403 28.9395   1
   3  -1  16 355.102 55.5262  -2
  -3   3 -14 355.102 55.5262   1
  -3   3 -14 262.582 25.8635   2
   3  -3  14 214.180 25.3022   1
  -4   3 -14 34.6226 17.7305   2
  -4   3 -14 40.3867 25.7263   1
   4  -3  14 18.3986 17.6947   1
   4  -3  14 18.2699 24.5821   2
  -3  -3  13 67.1007 46.4060  -2
   3   2 -14 67.1007 46.4060   1
   2   2 -14 20.1885 19.0913   1
   2   2 -14 23.8303 19.2459   2
  -2  -2  14 19.8302 18.4901   1
  -2  -2  14 23.5781 20.0939   2
   1   2 -14 535.473 38.2724   2
   1   2 -14 474.245 37.7781   1
  -1  -2  14 541.760 40.2937   2
  -1  -2  14 478.807 35.9537   1
   0   2 -14 364.495 35.7197   1
   0   2 -14 271.497 29.7363   2
   0  -2  14 321.221 31.7608   1
   0  -2  14 270.739 30.8070   2
   1  -2  14 223.412 32.1431  -2
  -1   2 -14 223.412 32.1431   1
  -1   2 -14 245.511 22.0129  -2
   1  -2  14 245.511 22.0129   1
  -2   2 -14 70.4824 16.3281   2
  -2   2 -14 95.8802 24.6357   1
   2  -2  14 84.8914 16.9766   1
   2  -2  14 47.7633 20.6185   2
  -3   2 -14 270.297 25.3063   2
  -3   2 -14 220.391 32.8334   1
   3  -2  14 347.956 27.8546   1
   3  -2  14 309.941 37.6837   2
  -4   2 -14 17.0983 23.1770   1
  -4   2 -14 54.8400 17.4237   2
   4  -2  14 14.0132 16.9209   1
   4  -2  14 55.1373 27.0214   2
   5  -1  15 445.373 65.2080  -2
  -5   2 -14 445.373 65.2080   1
  -5   1 -15 407.840 44.1777  -2
   5  -2  14 407.840 44.1777   1
   3   1 -14 2.95307 16.8913   1
   3   1 -14 -10.602 20.4121   2
  -3  -1  14 18.1236 22.6778   2
   2   1 -14 165.621 27.0974   1
   2   1 -14 101.387 24.3887   2
  -2  -1  14 103.861 20.3904   1
  -2  -1  14 179.553 29.4093   2
  -1  -3  12 372.624 40.7116  -2
   1   1 -14 372.624 40.7116   1
  -1  -1  14 152.865 24.3829   1
   1   3 -12 375.449 40.3910  -2
  -1  -1  14 375.449 40.3910   1
   0  -3  12 193.839 32.7889  -2
   0   1 -14 193.839 32.7889   1
   0   3 -12 205.852 24.0931  -2
   0  -1  14 205.852 24.0931   1
  -1   1 -14 121.529 22.4527   2
  -1   1 -14 91.2081 21.8555   1
   1  -1  14 73.9429 14.5678   1
   1  -1  14 131.403 23.5439   2
  -2   1 -14 34.3826 19.1257   1
  -2   1 -14 62.1253 15.2462   2
   2  -1  14 46.0558 14.3796   1
   2  -1  14 66.0830 20.0743   2
  -3   1 -14 163.422 18.8965   2
  -3   1 -14 103.339 24.7828   1
   3  -1  14 122.407 26.4042   2
   3  -1  14 149.192 19.0910   1
   4  -2  13 13.3635 37.7521  -2
  -4   1 -14 13.3635 37.7521   1
  -4   2 -13 65.8056 25.1893  -2
   4  -1  14 65.8056 25.1893   1
   5  -2  13 510.985 67.8996  -2
  -5   1 -14 510.985 67.8996   1
  -5   2 -13 599.718 47.8618  -2
   5  -1  14 599.718 47.8618   1
   3   0 -14 -22.697 17.8140   2
   3   0 -14 6.95222 17.8630   1
  -3   0  14 26.8090 22.5557   2
  -2  -4  10 431.694 28.3852  -2
   2   0 -14 431.694 28.3852   1
  -1  -4  10 119.568 20.0740  -2
   1   0 -14 119.568 20.0740   1
  -1   0  14 109.993 14.7568   1
   0   0 -14 192.518 25.6234   2
   0   0 -14 173.020 16.4023   1
   0   0  14 289.417 30.8079   2
   0   0  14 157.991 15.3679   1
  -1   0 -14 159.184 16.5354   1
  -1   0 -14 169.667 24.0443   2
   1   0  14 137.374 23.4323   2
   1   0  14 142.618 15.3568   1
  -2   0 -14 2055.60 64.8695   2
  -2   0 -14 1971.65 66.1295   1
   2   0  14 2210.53 69.7347   2
   2   0  14 2065.69 45.8926   1
   3  -3  11 181.406 32.6283  -2
  -3   0 -14 181.406 32.6283   1
  -3   3 -11 129.818 21.3169  -2
   3   0  14 129.818 21.3169   1
  -4   0 -14 42.5129 15.5122   2
   4  -3  11 395.463 56.1262  -2
  -4   0 -14 395.463 56.1262   1
   4   0  14 32.2610 13.8762   1
   4   0  14 12.2449 20.5695   2
  -5   0 -14 2.23909 15.5964   2
  -5   0 -14 2.50291 23.7631   1
   5   0  14 -10.079 16.5020   1
   4  -1 -14 9.17363 13.8289   1
   4  -1 -14 18.5054 27.6571   2
  -4   1  14 29.2340 28.4534   2
  -3  -5   8 168.072 22.2727  -2
   3  -1 -14 168.072 22.2727   1
  -2  -5   8 339.149 21.0437  -2
   2  -1 -14 339.149 21.0437   1
   1  -1 -14 204.789 13.6087   1
   1  -1 -14 196.572 25.0824   2
  -1   1  14 240.993 28.6250   2
   0  -1 -14 29.7061 14.1076   2
   0  -1 -14 24.8727 9.27835   1
   0   1  14 25.6402 15.4343   2
  -1  -1 -14 131.479 14.0297   1
  -1  -1 -14 120.475 14.6398   2
   1   1  14 142.169 22.4979   2
   1   1  14 137.838 12.6597   1
   2  -4   9 811.450 29.7587  -2
  -2  -1 -14 811.450 29.7587   1
  -2   4  -9 812.523 28.4013  -2
   2   1  14 812.523 28.4013   1
  -3  -1 -14 80.1759 22.3725   1
  -3  -1 -14 84.0492 19.9144   2
   3   1  14 108.666 15.6822   1
   3   1  14 100.139 22.3986   2
  -4  -1 -14 -0.0014 20.0859   1
  -4  -1 -14 1.87729 14.4629   2
   4   1  14 20.8762 13.4718   1
  -5  -1 -14 66.8009 27.3038   1
  -5  -1 -14 146.210 29.5325   2
   5   1  14 120.045 21.3811   1
  -4  -6   6 10.5137 22.6934  -2
   4  -2 -14 10.5137 22.6934   1
   4   6  -6 94.1171 69.6941  -2
  -4   2  14 94.1171 69.6941   1
  -3  -6   6 159.331 40.7829  -2
   3  -2 -14 159.331 40.7829   1
   3  -2 -14 175.311 24.3311   1
   3   6  -6 253.670 70.2802  -2
  -3   2  14 253.670 70.2802   1
   2  -2 -14 10.5853 7.53354   1
   2  -2 -14 37.5410 17.8340   2
  -2   2  14 14.9351 30.4416   1
  -2   2  14 -6.4286 18.2768   2
   1  -2 -14 13.2752 10.0463   2
   1  -2 -14 3.99081 6.73767   1
  -1   2  14 -1.1338 15.5250   2
   0  -5   7 268.022 32.6958  -2
   0  -2 -14 268.022 32.6958   1
   0  -2 -14 275.679 29.6034   2
   0  -2 -14 235.647 22.1573   1
   1  -5   7 658.750 26.4863  -2
  -1  -2 -14 658.750 26.4863   1
  -2  -2 -14 186.305 17.3991   2
  -2  -2 -14 214.985 17.8048   1
  -3  -2 -14 62.5484 12.6084   1
  -3  -2 -14 86.4958 14.7827   2
   3   2  14 83.2321 17.1270   1
  -4  -2 -14 71.6136 24.9689   1
  -4  -2 -14 71.8266 16.1138   2
   4   2  14 69.1963 21.0341   1
   5  -4   8 417.539 55.2569  -2
  -5  -2 -14 417.539 55.2569   1
  -5   4  -8 403.494 50.4213  -2
   5   2  14 403.494 50.4213   1
   3  -3 -14 56.7868 12.7231   1
   3  -3 -14 57.1197 24.1671   2
  -3   3  14 57.1372 37.3056   1
   2  -3 -14 74.6235 10.1149   1
   2  -3 -14 51.0975 20.5320   2
  -1  -6   5 413.934 19.0222  -2
   1  -3 -14 413.934 19.0222   1
   0  -6   5 1211.47 31.3811  -2
   0  -3 -14 1211.47 31.3811   1
  -1  -3 -14 122.575 13.2248   1
  -1  -3 -14 128.576 14.7611   2
  -2  -3 -14 170.738 16.3143   1
  -2  -3 -14 159.977 16.1493   2
   2   3  14 172.162 21.9213   1
  -3  -3 -14 254.328 20.0550   2
  -3  -3 -14 229.531 19.5653   1
   4  -5   6 234.944 37.4744  -2
  -4  -3 -14 234.944 37.4744   1
  -5  -3 -14 309.911 27.5303   2
  -5  -3 -14 287.574 41.5476   1
   5   3  14 285.292 41.5253   2
   3  -4 -14 6.54532 10.1092   1
   3  -4 -14 4.14145 21.4373   2
  -3   4  14 12.9951 32.5294   1
  -2  -7   3 388.891 21.3853  -2
   2  -4 -14 388.891 21.3853   1
  -1  -7   3 114.289 17.1801  -2
   1  -4 -14 114.289 17.1801   1
   0  -4 -14 103.695 10.0092   1
   0  -4 -14 130.126 13.9983   2
  -1  -4 -14 294.839 19.9200   2
  -1  -4 -14 278.887 17.2093   1
   2  -6   4 315.097 41.2228  -2
  -2  -4 -14 315.097 41.2228   1
  -2  -4 -14 18.6733 12.2141   1
  -2  -4 -14 27.0979 10.5866   2
   3  -6   4 705.740 30.8146  -2
  -3  -4 -14 705.740 30.8146   1
  -4  -4 -14 32.9614 13.8226   2
  -4  -4 -14 8.60830 14.8369   1
  -5  -4 -14 224.597 24.1128   2
  -5  -4 -14 218.732 40.4485   1
   5   4  14 359.784 48.5011   2
  -3  -8   1 58.5626 22.1209  -2
   3  -5 -14 58.5626 22.1209   1
   2  -5 -14 63.7602 19.6635   2
   2  -5 -14 89.8445 14.6759   1
   1  -5 -14 60.2752 12.6961   2
   1  -5 -14 68.1762 12.4248   1
   0  -5 -14 810.042 22.5299   1
   0  -5 -14 778.394 26.5347   2
   1  -7   2 393.831 23.2428  -2
  -1  -5 -14 393.831 23.2428   1
   2  -7   2 347.845 24.2961  -2
  -2  -5 -14 347.845 24.2961   1
  -3  -5 -14 123.030 17.2990   1
  -3  -5 -14 156.406 17.1215   2
  -4  -5 -14 7.73047 12.0490   2
  -4  -5 -14 -3.4135 12.0936   1
   2  -6 -14 78.7382 12.4035   2
   2  -6 -14 93.1680 14.9352   1
   1  -6 -14 29.0418 11.8417   2
   1  -6 -14 36.5928 10.3868   1
   0  -8   0 1.71469 18.8493  -2
   0  -6 -14 1.71469 18.8493   1
   1  -8   0 401.079 30.8558  -2
  -1  -6 -14 401.079 30.8558   1
  -2  -6 -14 28.3361 11.8463   1
  -2  -6 -14 18.9055 9.87880   2
  -3  -6 -14 19.7315 11.1412   2
  -3  -6 -14 32.4819 12.8260   1
  -4  -6 -14 222.249 24.0534   1
  -4  -6 -14 301.199 22.9792   2
  -1  -9  -2 114.255 18.0979  -2
   1  -7 -14 114.255 18.0979   1
   0  -9  -2 62.1693 24.1027  -2
   0  -7 -14 62.1693 24.1027   1
  -1  -7 -14 255.908 23.5926   1
  -1  -7 -14 282.851 25.1574   2
  -2  -7 -14 211.965 18.4957   1
  -2  -7 -14 217.732 23.8938   2
   3  -8  -1 186.408 33.9270  -2
  -3  -7 -14 186.408 33.9270   1
   0  -8 -14 428.052 25.3119   1
   0  -8 -14 347.006 30.2968   2
  -1  -8 -14 55.4777 15.9740   1
  -1  -8 -14 50.7321 15.6616   2
   1   4 -15 343.242 30.9752   2
   1   4 -15 263.546 36.7446   1
  -1  -4  15 348.717 41.0304   2
  -1  -4  15 312.119 38.9276   1
   0  -1  18 303.334 37.9036  -2
   0   4 -15 303.334 37.9036   1
   0   1 -18 297.176 36.3157  -2
   0  -4  15 297.176 36.3157   1
  -1   4 -15 228.045 34.2040   2
  -1   4 -15 197.714 33.7806   1
   1  -4  15 172.288 28.5221   1
   1  -4  15 189.564 32.1775   2
  -2   4 -15 70.1950 30.6784   2
  -2   4 -15 72.0454 27.8776   1
   2  -4  15 28.2433 17.1617   1
   2  -4  15 98.1988 28.5745   2
  -3   4 -15 270.082 41.9824   2
   3  -4  15 175.880 24.7207   1
   3  -4  15 207.506 37.3031   2
  -2  -2  16 133.693 52.4257  -2
   2   3 -15 133.693 52.4257   1
   2   2 -16 185.444 51.8674  -2
  -2  -3  15 185.444 51.8674   1
  -1  -2  16 123.041 38.8381  -2
   1   3 -15 123.041 38.8381   1
   1   2 -16 110.539 29.0754  -2
  -1  -3  15 110.539 29.0754   1
   0   3 -15 17.3540 14.4234   2
   0   3 -15 18.5696 17.9195   1
   0  -3  15 20.7927 17.8918   1
   0  -3  15 1.51663 17.3856   2
  -1   3 -15 504.027 46.8649   1
  -1   3 -15 386.391 28.2123   2
   1  -3  15 382.445 28.5111   1
   1  -3  15 412.702 39.9691   2
  -2   3 -15 242.382 25.0925   2
  -2   3 -15 217.851 32.9340   1
   2  -3  15 182.295 23.0354   1
   2  -3  15 183.106 31.7982   2
   3  -1  17 160.878 43.9252  -2
  -3   3 -15 160.878 43.9252   1
  -3   1 -17 111.320 33.7963  -2
   3  -3  15 111.320 33.7963   1
   4  -1  17 140.482 60.1589  -2
  -4   3 -15 140.482 60.1589   1
  -4   1 -17 124.875 43.1108  -2
   4  -3  15 124.875 43.1108   1
  -2  -3  14 116.304 41.0982  -2
   2   2 -15 116.304 41.0982   1
   1   2 -15 49.9017 18.8523   2
   1   2 -15 35.2806 20.1157   1
  -1  -2  15 18.5743 16.1652   1
  -1  -2  15 41.7684 20.2674   2
   0   2 -15 215.212 30.7883   1
   0   2 -15 162.181 25.5175   2
   0  -2  15 203.684 20.7125   1
   0  -2  15 239.659 32.2629   2
  -1   2 -15 176.998 28.9212   1
  -1   2 -15 189.035 21.2712   2
   1  -2  15 175.254 31.2232   2
   1  -2  15 149.776 19.0787   1
   2  -2  15 473.584 43.2324  -2
  -2   2 -15 473.584 43.2324   1
  -2   2 -15 486.746 32.2399  -2
   2  -2  15 486.746 32.2399   1
  -3   2 -15 85.3812 26.5419   1
  -3   2 -15 123.730 24.3594   2
   3  -2  15 78.2054 22.4125   1
   3  -2  15 95.6025 26.3786   2
  -3   2 -15 143.303 63.1849  -2
   3  -2  15 143.303 63.1849   1
  -4   2 -15 60.0421 19.9967   2
  -4   2 -15 52.7601 25.5806   1
   4  -2  15 42.0206 26.4739   2
   4  -2  15 31.7542 18.3672   1
  -3  -4  12 467.574 52.3224  -2
   3   1 -15 467.574 52.3224   1
   2   1 -15 72.7153 22.7463   2
   2   1 -15 42.3137 20.5074   1
  -2  -1  15 62.9668 24.2653   2
  -2  -1  15 40.0987 18.4930   1
   1   1 -15 152.208 24.9213   1
   1   1 -15 126.081 23.3172   2
  -1  -1  15 168.486 25.4673   1
  -1  -1  15 194.389 29.8618   2
   0   1 -15 80.3197 20.3165   2
   0   1 -15 84.6739 20.5940   1
   0  -1  15 73.0558 15.2736   1
   0  -1  15 94.6375 23.3255   2
   1  -3  13 249.858 32.7324  -2
  -1   1 -15 249.858 32.7324   1
  -1   3 -13 278.009 24.4074  -2
   1  -1  15 278.009 24.4074   1
  -2   1 -15 181.525 20.5404   2
  -2   1 -15 177.093 30.3240   1
   2  -1  15 163.880 28.1184   2
   2  -1  15 126.836 18.8224   1
  -3   1 -15 29.0347 15.2949   2
  -3   1 -15 15.6727 18.8429   1
   3  -1  15 14.4494 15.0613   1
   3  -1  15 25.7850 20.2308   2
  -4   1 -15 507.129 32.8785   2
  -4   1 -15 559.761 50.4645   1
   4  -1  15 531.540 33.6591   1
   4  -1  15 430.084 44.3296   2
   5  -2  14 468.543 64.9207  -2
  -5   1 -15 468.543 64.9207   1
  -5   2 -14 379.707 36.7878  -2
   5  -1  15 379.707 36.7878   1
   3   0 -15 24.7589 19.9105   1
   3   0 -15 14.0261 21.9813   2
  -3   0  15 22.3908 23.8838   2
   2   0 -15 154.190 18.9263   1
   2   0 -15 122.847 26.3574   2
  -2   0  15 95.0010 25.7249   2
   1   0 -15 63.8612 17.8531   1
  -1  -4  11 217.944 35.9904  -2
   1   0 -15 217.944 35.9904   1
   0  -4  11 1417.90 38.3447  -2
   0   0 -15 1417.90 38.3447   1
   0   4 -11 1501.51 47.9737  -2
   0   0  15 1501.51 47.9737   1
  -1   0 -15 3.55264 15.7634   1
  -1   0 -15 26.9708 15.1098   2
   1   0  15 34.2656 12.0564   1
   1   0  15 24.2852 17.1504   2
  -2   0 -15 33.9666 18.6674   1
  -2   0 -15 22.7361 15.1643   2
   2   0  15 26.1732 13.0835   1
   2   0  15 28.2432 19.0911   2
  -3   0 -15 95.4967 17.5950   2
  -3   0 -15 70.7600 23.1916   1
   3   0  15 110.511 24.9897   2
   3   0  15 77.0128 16.1000   1
   4  -3  12 231.890 44.1310  -2
  -4   0 -15 231.890 44.1310   1
  -4   3 -12 215.698 27.6703  -2
   4   0  15 215.698 27.6703   1
   5  -3  12 216.327 61.7090  -2
  -5   0 -15 216.327 61.7090   1
  -5   3 -12 172.024 39.5522  -2
   5   0  15 172.024 39.5522   1
   3  -1 -15 3.36487 12.1367   1
   3  -1 -15 43.1581 23.3269   2
  -3   1  15 8.95153 22.9023   2
  -2  -5   9 -4.9768 21.5714  -2
   2  -1 -15 -4.9768 21.5714   1
  -1  -5   9 636.747 23.2830  -2
   1  -1 -15 636.747 23.2830   1
   0  -1 -15 104.684 13.7379   1
   0  -1 -15 84.1277 19.5490   2
   0   1  15 160.593 25.5944   2
  -1  -1 -15 153.137 15.5492   1
  -1  -1 -15 227.471 28.0743   2
   1   1  15 245.305 28.4494   2
   1   1  15 214.059 15.2632   1
  -2  -1 -15 112.953 14.9168   1
  -2  -1 -15 118.439 22.2719   2
   2   1  15 125.744 21.0889   1
   2   1  15 149.611 24.9765   2
   3  -4  10 50.5546 28.6079  -2
  -3  -1 -15 50.5546 28.6079   1
  -3   4 -10 86.2937 20.8646  -2
   3   1  15 86.2937 20.8646   1
  -4  -1 -15 74.6740 26.3686   1
  -4  -1 -15 154.810 26.8227   2
   4   1  15 86.8508 17.5799   1
  -5  -1 -15 29.9494 22.3729   2
  -5  -1 -15 35.0994 27.4358   1
   5   1  15 35.7578 18.5564   1
  -3  -6   7 608.440 30.9956  -2
   3  -2 -15 608.440 30.9956   1
  -2  -6   7 162.254 19.4293  -2
   2  -2 -15 162.254 19.4293   1
   1  -2 -15 230.298 27.3663   2
   1  -2 -15 316.563 16.7911   1
  -1   2  15 358.363 36.5082   2
   0  -2 -15 79.6578 13.7290   2
   0  -2 -15 66.8662 11.3696   1
   0   2  15 79.3617 32.8576   2
  -1  -2 -15 -19.187 8.50699   2
  -1  -2 -15 -5.0707 7.77695   1
   2  -5   8 371.677 22.3162  -2
  -2  -2 -15 371.677 22.3162   1
  -3  -2 -15 453.991 40.3149   1
  -3  -2 -15 480.757 27.7092   2
   3   2  15 448.096 26.8396   1
  -4  -2 -15 29.9229 21.5881   1
  -4  -2 -15 43.6793 19.2606   2
   4   2  15 41.5804 19.9423   1
  -5  -2 -15 3.74561 18.3446   2
  -5  -2 -15 14.9864 24.6896   1
   5   2  15 14.6812 22.2809   1
   3  -3 -15 169.717 26.9360   1
  -3  -7   5 228.565 38.0587  -2
   3  -3 -15 228.565 38.0587   1
   2  -3 -15 256.463 18.6807   1
   2  -3 -15 274.541 33.2734   2
   1  -3 -15 131.637 11.9016   1
   1  -3 -15 139.425 16.6096   2
   0  -6   6 366.099 22.9442  -2
   0  -3 -15 366.099 22.9442   1
   1  -6   6 229.218 20.3294  -2
  -1  -3 -15 229.218 20.3294   1
  -2  -3 -15 304.334 21.3373   1
  -2  -3 -15 361.361 23.8149   2
  -3  -3 -15 294.936 22.4842   2
  -3  -3 -15 228.951 20.0921   1
  -4  -3 -15 64.9411 15.5249   2
  -4  -3 -15 30.4164 23.8929   1
   5  -5   7 217.290 52.4738  -2
  -5  -3 -15 217.290 52.4738   1
   3  -4 -15 145.944 32.7770   2
   3  -4 -15 157.965 16.2887   1
   2  -4 -15 -1.7763 18.1830   2
   2  -4 -15 28.3989 10.1611   1
  -1  -7   4 110.025 18.1649  -2
   1  -4 -15 110.025 18.1649   1
   0  -7   4 272.163 20.2447  -2
   0  -4 -15 272.163 20.2447   1
  -1  -4 -15 193.742 16.2767   1
  -1  -4 -15 212.284 18.5861   2
  -2  -4 -15 137.394 16.4270   2
  -2  -4 -15 151.998 15.9130   1
  -3  -4 -15 114.043 17.1498   1
  -3  -4 -15 137.692 17.3901   2
   4  -6   5 81.8564 36.4028  -2
  -4  -4 -15 81.8564 36.4028   1
  -5  -4 -15 80.4375 29.8120   1
  -5  -4 -15 53.8181 17.8341   2
  -2  -8   2 132.133 23.8798  -2
   2  -5 -15 132.133 23.8798   1
  -1  -8   2 97.5522 23.5532  -2
   1  -5 -15 97.5522 23.5532   1
   0  -5 -15 -3.0217 6.73271   1
   0  -5 -15 -1.5762 8.83453   2
  -1  -5 -15 259.753 19.4757   2
  -1  -5 -15 244.372 17.6131   1
   2  -7   3 311.918 43.7701  -2
  -2  -5 -15 311.918 43.7701   1
  -2  -5 -15 155.455 23.1576   2
  -2  -5 -15 98.8090 18.6816   1
   3  -7   3 93.3406 20.5669  -2
  -3  -5 -15 93.3406 20.5669   1
  -4  -5 -15 58.7288 15.4505   2
  -4  -5 -15 51.0342 16.1233   1
   2  -6 -15 37.1494 19.8016   2
   2  -6 -15 54.7707 14.3985   1
   1  -6 -15 131.643 16.7980   2
   1  -6 -15 141.775 16.1779   1
   0  -6 -15 156.254 15.4664   2
   0  -6 -15 142.222 16.9861   1
   1  -8   1 234.002 29.7342  -2
  -1  -6 -15 234.002 29.7342   1
   2  -8   1 187.405 23.4563  -2
  -2  -6 -15 187.405 23.4563   1
  -3  -6 -15 114.254 16.1660   2
  -3  -6 -15 92.7099 16.2100   1
  -4  -6 -15 256.482 24.9062   1
  -4  -6 -15 361.405 25.8925   2
   1  -7 -15 167.926 18.7789   2
   1  -7 -15 177.350 17.5223   1
   0  -9  -1 99.3318 24.3668  -2
   0  -7 -15 99.3318 24.3668   1
   1  -9  -1 33.8655 27.8619  -2
  -1  -7 -15 33.8655 27.8619   1
  -2  -7 -15 117.897 16.4257   1
  -2  -7 -15 116.180 20.6564   2
  -3  -7 -15 72.9106 16.3566   1
  -3  -7 -15 52.8610 21.1546   2
   0   4 -16 54.4561 24.9579   1
   0   4 -16 34.9340 25.9128   2
   0  -4  16 73.3028 26.3281   2
   0  -4  16 84.0574 25.6202   1
   1  -1  19 725.515 59.8100  -2
  -1   4 -16 725.515 59.8100   1
  -1   1 -19 721.189 50.4983  -2
   1  -4  16 721.189 50.4983   1
   2  -1  19 88.1086 59.5275  -2
  -2   4 -16 88.1086 59.5275   1
   2  -4  16 2.10657 20.5249   1
  -2   1 -19 72.4828 77.7744  -2
   2  -4  16 72.4828 77.7744   1
   1   3 -16 216.604 34.1333   1
   1   3 -16 276.496 40.2354   2
  -1  -3  16 181.690 30.8997   1
  -1  -3  16 131.031 28.1731   2
   0  -2  17 183.872 31.5744  -2
   0   3 -16 183.872 31.5744   1
   0   2 -17 203.068 32.1033  -2
   0  -3  16 203.068 32.1033   1
  -1   3 -16 53.2550 16.7151   2
  -1   3 -16 29.8246 20.5975   1
   1  -3  16 9.64865 15.4376   1
   1  -3  16 17.2796 20.6919   2
  -2   3 -16 37.7168 16.7712   2
  -2   3 -16 46.9254 24.7454   1
   2  -3  16 11.6140 21.8733   2
   2  -3  16 39.9454 17.0824   1
  -3   3 -16 -0.0126 16.3386   2
  -3   3 -16 0.51749 25.0558   1
   3  -3  16 1.79825 17.8176   1
   3  -3  16 53.8095 28.6250   2
  -2  -3  15 246.341 52.8550  -2
   2   2 -16 246.341 52.8550   1
   2   3 -15 153.436 53.2517  -2
  -2  -2  16 153.436 53.2517   1
  -1  -3  15 133.687 31.0727  -2
   1   2 -16 133.687 31.0727   1
   1   3 -15 127.170 46.6968  -2
  -1  -2  16 127.170 46.6968   1
   0   2 -16 808.302 47.8617   2
   0   2 -16 796.955 49.4531   1
   0  -2  16 799.977 36.2601   1
   0  -2  16 777.483 49.9986   2
  -1   2 -16 93.2951 17.8233   2
  -1   2 -16 33.4687 20.7521   1
   1  -2  16 91.0358 24.0691   2
   1  -2  16 72.7772 16.0762   1
  -2   2 -16 60.0020 24.9668   1
  -2   2 -16 45.8835 17.2903   2
   2  -2  16 53.9937 16.8690   1
   2  -2  16 98.3279 26.3257   2
   3  -2  16 234.443 49.0095  -2
  -3   2 -16 234.443 49.0095   1
  -3   2 -16 289.200 32.3522  -2
   3  -2  16 289.200 32.3522   1
   4  -2  16 76.4753 55.5500  -2
  -4   2 -16 76.4753 55.5500   1
  -4   2 -16 85.7928 37.5734  -2
   4  -2  16 85.7928 37.5734   1
  -2  -4  13 267.621 38.4972  -2
   2   1 -16 267.621 38.4972   1
   1   1 -16 128.455 24.1465   1
   1   1 -16 125.880 24.3744   2
  -1  -1  16 86.3481 23.6814   1
  -1  -1  16 159.725 28.7460   2
   0   1 -16 8.21731 16.7698   1
   0   1 -16 -7.7453 14.4185   2
   0  -1  16 30.5621 18.2843   2
   0  -1  16 27.9474 16.0285   1
  -1   1 -16 43.8596 20.5408   1
  -1   1 -16 9.07314 15.4759   2
   1  -1  16 51.7062 14.7485   1
   1  -1  16 37.6142 20.6582   2
   2  -3  14 279.157 37.9319  -2
  -2   1 -16 279.157 37.9319   1
  -2   3 -14 302.167 26.3369  -2
   2  -1  16 302.167 26.3369   1
   3  -3  14 316.860 56.3765  -2
  -3   1 -16 316.860 56.3765   1
  -3   1 -16 130.186 21.5509   2
   3  -1  16 116.672 19.7568   1
  -4   1 -16 29.8465 18.2997   2
  -4   1 -16 59.8668 27.5590   1
   4  -1  16 43.2397 26.4539   2
   4  -1  16 51.6826 20.0219   1
  -3  -5  11 150.379 46.9415  -2
   3   0 -16 150.379 46.9415   1
   2   0 -16 73.0131 23.3783   1
   2   0 -16 104.955 26.3012   2
  -2   0  16 136.198 30.4363   2
   1   0 -16 78.0789 19.6479   1
   1   0 -16 114.420 24.1085   2
  -1   0  16 74.0514 24.4858   2
   0   0 -16 4.77290 14.5440   1
   0   0 -16 -9.1525 13.4635   2
   0   0  16 -20.413 15.5914   2
   0   0  16 -11.620 14.7588   1
   1  -4  12 117.107 27.8259  -2
  -1   0 -16 117.107 27.8259   1
  -1   4 -12 111.112 33.5128  -2
   1   0  16 111.112 33.5128   1
  -2   0 -16 386.575 37.9500   2
  -2   0 -16 377.850 37.6046   1
   2   0  16 474.072 42.7551   2
   2   0  16 373.290 25.1990   1
  -3   0 -16 77.1804 17.4174   2
  -3   0 -16 102.134 26.4771   1
   3   0  16 54.9406 16.6191   1
   3   0  16 100.558 25.3621   2
  -4   0 -16 -6.9206 21.0406   1
  -4   0 -16 9.67584 13.4365   2
   4   0  16 -8.8522 14.5228   1
   3  -1 -16 229.075 22.8676   1
   3  -1 -16 222.679 37.7773   2
  -3   1  16 307.726 42.2432   2
   2  -1 -16 21.0274 11.7980   1
   2  -1 -16 31.7300 21.7954   2
  -2   1  16 21.2653 23.0812   2
  -1  -5  10 208.577 26.1632  -2
   1  -1 -16 208.577 26.1632   1
   0  -5  10 1575.29 40.8471  -2
   0  -1 -16 1575.29 40.8471   1
  -1  -1 -16 490.981 25.4348   1
  -1  -1 -16 504.834 37.4215   2
   1   1  16 490.328 38.2840   2
  -2  -1 -16 62.1606 20.9589   1
  -2  -1 -16 63.0890 19.7845   2
   2   1  16 24.3471 20.1009   2
   2   1  16 40.8779 16.9828   1
  -3  -1 -16 21.3429 17.0912   2
  -3  -1 -16 38.8318 21.9964   1
   3   1  16 20.7967 20.1861   1
   4  -4  11 181.092 48.0064  -2
  -4  -1 -16 181.092 48.0064   1
  -4   4 -11 289.317 49.3304  -2
   4   1  16 289.317 49.3304   1
  -5  -1 -16 264.262 38.9634   2
  -5  -1 -16 239.831 41.9772   1
   5   1  16 240.347 40.2655   1
   3  -2 -16 68.9075 16.3261   1
   3  -2 -16 18.4169 24.4357   2
  -2  -6   8 121.535 23.6970  -2
   2  -2 -16 121.535 23.6970   1
  -1  -6   8 317.113 19.9268  -2
   1  -2 -16 317.113 19.9268   1
   0  -2 -16 16.2926 8.99733   1
   0  -2 -16 6.32986 13.9734   2
  -1  -2 -16 216.509 20.1462   2
  -1  -2 -16 225.968 18.9616   1
  -2  -2 -16 78.9971 13.3309   1
  -2  -2 -16 60.9591 14.0896   2
   3  -5   9 66.9547 31.8924  -2
  -3  -2 -16 66.9547 31.8924   1
  -4  -2 -16 196.117 34.5155   1
  -4  -2 -16 255.628 33.7266   2
   4   2  16 210.957 25.8550   1
  -5  -2 -16 97.3373 27.4457   2
  -5  -2 -16 150.929 36.4850   1
   5   2  16 99.9017 27.0115   1
  -3  -7   6 34.7260 24.5128  -2
   3  -3 -16 34.7260 24.5128   1
  -2  -7   6 84.7323 23.4635  -2
   2  -3 -16 84.7323 23.4635   1
   1  -3 -16 145.432 25.0241   2
   1  -3 -16 157.799 15.1490   1
   0  -3 -16 87.7279 12.6563   1
   0  -3 -16 81.5621 14.7867   2
  -1  -3 -16 236.525 20.9071   2
  -1  -3 -16 185.866 17.0203   1
   2  -6   7 47.6445 16.5331  -2
  -2  -3 -16 47.6445 16.5331   1
  -3  -3 -16 209.255 20.9403   1
  -3  -3 -16 261.749 22.9851   2
  -4  -3 -16 31.9691 14.8498   2
  -4  -3 -16 12.5338 20.7864   1
   2  -4 -16 156.796 15.4648   1
   2  -4 -16 119.999 28.3060   2
   1  -4 -16 216.562 16.3177   1
   1  -4 -16 249.684 21.4632   2
   0  -7   5 96.9771 20.2143  -2
   0  -4 -16 96.9771 20.2143   1
   1  -7   5 104.215 19.2506  -2
  -1  -4 -16 104.215 19.2506   1
  -2  -4 -16 38.4499 12.9183   2
  -2  -4 -16 22.6625 11.1875   1
  -3  -4 -16 305.833 24.1597   1
  -3  -4 -16 323.670 24.4368   2
  -4  -4 -16 100.993 18.6201   2
  -4  -4 -16 63.1337 27.8418   1
   2  -5 -16 265.010 26.2415   2
   2  -5 -16 234.380 24.3656   1
  -1  -8   3 252.203 28.8385  -2
   1  -5 -16 252.203 28.8385   1
   0  -8   3 177.288 20.3299  -2
   0  -5 -16 177.288 20.3299   1
  -1  -5 -16 100.462 13.7299   1
  -1  -5 -16 67.3735 13.0800   2
  -2  -5 -16 106.851 16.0088   2
  -2  -5 -16 97.3255 14.7088   1
  -3  -5 -16 29.7219 13.4022   1
  -3  -5 -16 67.4591 15.1642   2
   4  -7   4 278.002 45.0033  -2
  -4  -5 -16 278.002 45.0033   1
  -1  -9   1 217.643 28.7305  -2
   1  -6 -16 217.643 28.7305   1
   0  -6 -16 42.4097 12.8351   2
   0  -6 -16 18.1301 11.5888   1
  -1  -6 -16 51.0596 12.4508   2
  -1  -6 -16 55.0944 12.9040   1
   2  -8   2 625.607 34.7498  -2
  -2  -6 -16 625.607 34.7498   1
   3  -8   2 30.4482 22.1841  -2
  -3  -6 -16 30.4482 22.1841   1
   0  -7 -16 7.80443 11.5742   2
   0  -7 -16 -0.9476 11.8591   1
   1  -9   0 189.411 33.8310  -2
  -1  -7 -16 189.411 33.8310   1
   0   3 -17 -5.2350 30.9763   2
   0   3 -17 31.3859 22.6227   1
   0  -3  17 -0.6471 20.6969   2
   0  -3  17 1.44617 16.8077   1
   1  -2  18 142.824 43.2808  -2
  -1   3 -17 142.824 43.2808   1
  -1   2 -18 113.754 28.2500  -2
   1  -3  17 113.754 28.2500   1
   2  -2  18 220.611 58.4004  -2
  -2   3 -17 220.611 58.4004   1
  -2   3 -17 11.5821 21.2662   2
   2  -3  17 -18.971 17.9518   1
  -2   2 -18 236.468 85.8835  -2
   2  -3  17 236.468 85.8835   1
   1   2 -17 53.0968 21.4789   2
   1   2 -17 11.1865 21.1835   1
  -1  -2  17 21.8146 27.4043   1
  -1  -2  17 33.9228 23.4738   2
   0  -3  16 103.187 26.6613  -2
   0   2 -17 103.187 26.6613   1
   0   3 -16 211.957 27.0454  -2
   0  -2  17 211.957 27.0454   1
  -1   2 -17 21.5051 21.7666   1
  -1   2 -17 22.0357 17.4942   2
   1  -2  17 46.3547 16.7656   1
   1  -2  17 41.0911 23.4704   2
  -2   2 -17 60.4385 18.7817   2
  -2   2 -17 27.3056 23.6975   1
   2  -2  17 10.4902 21.8995   2
   2  -2  17 46.1598 16.6682   1
  -3   2 -17 12.9442 16.9512   2
  -3   2 -17 -11.358 21.4403   1
   3  -2  17 -5.1150 17.1579   1
   3  -2  17 5.19473 23.4245   2
  -2  -4  14 0.00453 48.2056  -2
   2   1 -17 0.00453 48.2056   1
  -1  -4  14 89.3937 29.4119  -2
   1   1 -17 89.3937 29.4119   1
   1   4 -14 59.7304 32.9245  -2
  -1  -1  17 59.7304 32.9245   1
   0   1 -17 36.4232 18.5141   2
   0   1 -17 33.5715 19.6495   1
   0  -1  17 21.6045 22.8292   1
   0  -1  17 51.0752 22.6188   2
  -1   1 -17 280.967 37.1180   1
  -1   1 -17 272.025 33.6478   2
   1  -1  17 252.074 23.7989   1
   1  -1  17 339.580 38.4917   2
  -2   1 -17 -6.2666 19.0145   1
  -2   1 -17 -11.367 12.3548   2
   2  -1  17 30.4849 22.9436   2
   2  -1  17 13.5826 14.6244   1
   3  -3  15 137.813 45.2366  -2
  -3   1 -17 137.813 45.2366   1
  -3   3 -15 78.1401 28.6925  -2
   3  -1  17 78.1401 28.6925   1
   4  -3  15 172.885 60.3883  -2
  -4   1 -17 172.885 60.3883   1
  -4   3 -15 167.324 40.0313  -2
   4  -1  17 167.324 40.0313   1
  -2  -5  12 440.307 49.5219  -2
   2   0 -17 440.307 49.5219   1
   1   0 -17 172.509 27.0977   1
   1   0 -17 122.623 24.8883   2
  -1   0  17 220.550 35.6380   2
   0   0 -17 38.0662 19.6411   1
   0   0 -17 70.5368 21.1099   2
   0   0  17 53.5508 22.3034   2
  -1   0 -17 25.2767 18.2990   2
  -1   0 -17 55.1758 22.0145   1
   1   0  17 41.2762 22.4712   2
   1   0  17 33.3446 20.2574   1
   2  -4  13 129.578 33.4306  -2
  -2   0 -17 129.578 33.4306   1
  -2   4 -13 240.246 42.7828  -2
   2   0  17 240.246 42.7828   1
  -3   0 -17 52.3603 17.4969   2
  -3   0 -17 42.9446 23.4865   1
   3   0  17 42.9449 17.2132   1
   3   0  17 71.5648 27.0889   2
  -4   0 -17 356.690 45.9174   1
  -4   0 -17 310.367 29.2476   2
   4   0  17 316.217 29.6423   1
   2  -1 -17 166.051 19.2052   1
   2  -1 -17 147.411 31.4566   2
  -2   1  17 147.710 32.2142   2
   1  -1 -17 204.813 19.1617   1
   1  -1 -17 185.134 28.2186   2
  -1   1  17 263.088 35.7130   2
   0  -1 -17 314.989 34.5175   2
   0  -1 -17 315.708 22.9042   1
   0   1  17 313.296 35.9187   2
   1  -5  11 333.564 23.9133  -2
  -1  -1 -17 333.564 23.9133   1
  -2  -1 -17 24.2271 16.9112   2
  -2  -1 -17 15.9186 18.3458   1
   2   1  17 14.6176 14.1699   1
  -3  -1 -17 58.9551 24.6592   1
  -3  -1 -17 55.5786 21.1898   2
   3   1  17 56.2999 21.6646   1
  -4  -1 -17 486.336 47.8001   1
  -4  -1 -17 515.620 45.2496   2
   4   1  17 504.185 47.8492   1
   2  -2 -17 414.733 26.0139   1
   2  -2 -17 369.494 40.8819   2
  -1  -6   9 171.343 24.9794  -2
   1  -2 -17 171.343 24.9794   1
   1  -2 -17 153.206 27.7032   1
   0  -6   9 362.039 23.5490  -2
   0  -2 -17 362.039 23.5490   1
  -1  -2 -17 273.510 21.0613   1
  -1  -2 -17 183.430 28.6917   2
  -2  -2 -17 82.3473 14.8232   1
  -2  -2 -17 83.9488 22.3924   2
  -3  -2 -17 174.629 30.7818   1
  -3  -2 -17 254.073 33.2049   2
   4  -5  10 59.7070 42.9894  -2
  -4  -2 -17 59.7070 42.9894   1
  -2  -7   7 475.679 30.5552  -2
   2  -3 -17 475.679 30.5552   1
  -1  -7   7 10.9794 20.3105  -2
   1  -3 -17 10.9794 20.3105   1
   0  -3 -17 39.9119 11.2234   1
   0  -3 -17 14.6138 12.9771   2
  -1  -3 -17 186.856 19.3359   2
  -1  -3 -17 207.846 18.5807   1
  -2  -3 -17 294.670 22.5419   1
  -2  -3 -17 309.805 24.4959   2
   3  -6   8 58.8059 30.7502  -2
  -3  -3 -17 58.8059 30.7502   1
  -4  -3 -17 16.1455 22.7696   1
  -4  -3 -17 -3.4614 19.6898   2
  -2  -8   5 7.36083 24.1864  -2
   2  -4 -17 7.36083 24.1864   1
   1  -4 -17 7.45983 15.0146   2
   1  -4 -17 18.2987 9.92040   1
   0  -4 -17 186.212 16.9194   1
   0  -4 -17 143.755 17.4185   2
  -1  -4 -17 263.598 30.4416   2
  -1  -4 -17 214.439 18.5217   1
   2  -7   6 172.217 20.7432  -2
  -2  -4 -17 172.217 20.7432   1
  -3  -4 -17 2.00167 11.3706   1
  -3  -4 -17 -9.6530 12.1232   2
  -4  -4 -17 187.441 22.8805   2
  -4  -4 -17 196.066 35.3965   1
   1  -5 -17 11.9263 13.3934   2
   1  -5 -17 13.0900 12.2317   1
   0  -8   4 140.002 22.6429  -2
   0  -5 -17 140.002 22.6429   1
   1  -8   4 618.323 29.1137  -2
  -1  -5 -17 618.323 29.1137   1
  -2  -5 -17 103.500 16.3270   2
  -2  -5 -17 79.2050 14.5939   1
  -3  -5 -17 -1.5415 12.1037   1
  -3  -5 -17 2.39310 13.5245   2
   0  -9   2 196.434 29.2145  -2
   0  -6 -17 196.434 29.2145   1
  -1  -6 -17 90.9704 15.0903   2
  -1  -6 -17 88.4203 19.1536   1
  -2  -6 -17 72.4356 14.8150   1
  -2  -6 -17 60.4743 15.0236   2
   0   2 -18 3.60002 16.4381   2
   0   2 -18 -7.1031 18.4927   1
   0  -2  18 -12.390 20.8696   2
   0  -2  18 -2.3560 30.5610   1
   1  -3  17 173.709 41.4333  -2
  -1   2 -18 173.709 41.4333   1
  -1   3 -17 77.6787 26.1506  -2
   1  -2  18 77.6787 26.1506   1
  -2   2 -18 202.528 33.6109   2
   2  -3  17 163.336 58.1717  -2
  -2   2 -18 163.336 58.1717   1
   2  -2  18 148.696 30.3600   1
  -2   3 -17 265.573 73.2824  -2
   2  -2  18 265.573 73.2824   1
   1   1 -18 315.275 38.6655   2
   1   1 -18 323.681 39.0397   1
  -1  -1  18 398.111 45.7985   2
   0  -4  15 275.155 36.4062  -2
   0   1 -18 275.155 36.4062   1
   0   4 -15 301.357 40.7101  -2
   0  -1  18 301.357 40.7101   1
  -1   1 -18 4.56865 21.1904   1
  -1   1 -18 -5.4798 17.0462   2
   1  -1  18 7.32142 20.9714   2
   1  -1  18 18.4974 25.2811   1
  -2   1 -18 163.415 21.5345   2
  -2   1 -18 146.312 31.5417   1
   2  -1  18 179.855 35.2702   2
   2  -1  18 140.012 36.5769   1
  -3   1 -18 57.6433 21.6241   2
  -3   1 -18 28.1058 26.8975   1
   3  -1  18 24.6507 18.0727   1
   3  -1  18 41.3553 28.1236   2
  -1  -5  13 140.163 31.9522  -2
   1   0 -18 140.163 31.9522   1
   0   0 -18 8.46045 17.3576   2
   0   0 -18 27.5532 19.3228   1
   0   0  18 12.3683 21.4597   2
  -1   0 -18 128.760 25.7399   2
  -1   0 -18 212.429 33.7424   1
   1   0  18 142.623 28.8029   2
   1   0  18 145.967 22.7507   1
  -2   0 -18 21.5263 20.8979   1
  -2   0 -18 45.6314 21.0786   2
   2   0  18 61.1338 25.7793   1
   2   0  18 69.2729 26.8035   2
   3  -4  14 104.482 45.7531  -2
  -3   0 -18 104.482 45.7531   1
  -3   4 -14 -1.2431 52.9009  -2
   3   0  18 -1.2431 52.9009   1
   2  -1 -18 223.834 37.1114   2
   2  -1 -18 219.046 34.3065   1
   1  -1 -18 -4.7119 16.2953   2
   1  -1 -18 12.0527 11.6501   1
  -1   1  18 20.5521 34.4277   2
   0  -1 -18 5.33910 11.4598   1
   0  -1 -18 -7.9274 16.4766   2
  -1  -1 -18 242.617 33.2311   1
  -1  -1 -18 267.207 33.4214   2
   2  -5  12 279.820 36.0083  -2
  -2  -1 -18 279.820 36.0083   1
  -3  -1 -18 14.8230 19.4473   2
  -3  -1 -18 8.64117 21.4688   1
   3   1  18 -13.672 17.0916   1
  -4  -1 -18 7.05223 24.4499   1
  -4  -1 -18 30.6725 22.7950   2
   4   1  18 21.8647 24.3922   1
   2  -2 -18 39.9656 14.2129   1
   2  -2 -18 98.4666 28.9778   2
   1  -2 -18 39.0750 12.2047   1
   1  -2 -18 -13.222 16.2833   2
   0  -2 -18 5.98854 10.2193   1
   0  -2 -18 16.8779 17.2848   2
   1  -6  10 203.625 20.6611  -2
  -1  -2 -18 203.625 20.6611   1
  -2  -2 -18 -4.8194 15.3116   2
  -2  -2 -18 10.9956 18.4152   1
  -3  -2 -18 48.8170 22.3468   2
  -3  -2 -18 51.3472 24.8022   1
  -4  -2 -18 38.2898 24.2617   2
  -4  -2 -18 17.4433 25.4045   1
  -1  -7   8 103.777 25.7294  -2
   1  -3 -18 103.777 25.7294   1
   0  -7   8 145.961 20.2337  -2
   0  -3 -18 145.961 20.2337   1
  -1  -3 -18 29.6219 11.8180   1
  -1  -3 -18 38.5166 20.7069   2
  -2  -3 -18 104.544 19.4039   2
  -2  -3 -18 89.1702 15.7155   1
  -3  -3 -18 210.237 32.9335   2
  -3  -3 -18 178.044 32.6666   1
  -1  -8   6 435.081 27.8979  -2
   1  -4 -18 435.081 27.8979   1
   0  -4 -18 16.8420 10.1622   1
   0  -4 -18 -2.8127 12.2119   2
  -1  -4 -18 7.89762 9.79684   1
  -1  -4 -18 2.23672 12.4719   2
  -2  -4 -18 102.353 17.6192   2
  -2  -4 -18 79.5237 15.8625   1
   3  -7   7 383.854 30.6697  -2
  -3  -4 -18 383.854 30.6697   1
   0  -5 -18 65.8056 15.6274   2
   0  -5 -18 66.9596 12.9095   1
  -1  -5 -18 24.2477 18.9861   2
  -1  -5 -18 25.0244 11.7750   1
   2  -8   5 218.123 23.2944  -2
  -2  -5 -18 218.123 23.2944   1
  -3  -5 -18 116.074 18.8564   1
  -3  -5 -18 123.535 20.3892   2
  -1  -6 -18 40.7018 14.8472   2
  -1  -6 -18 96.3568 20.2850   1
   0   1 -19 9.06806 21.5355   1
   0   1 -19 23.5080 21.6715   2
   0  -1  19 56.7840 23.5418   1
   0  -1  19 35.5216 27.1936   2
   1  -4  16 584.471 51.3651  -2
  -1   1 -19 584.471 51.3651   1
  -1   4 -16 818.713 61.2554  -2
   1  -1  19 818.713 61.2554   1
   2  -4  16 10.3873 55.1510  -2
  -2   1 -19 10.3873 55.1510   1
  -2   1 -19 16.8380 21.5653   2
  -2   4 -16 25.2311 59.7909  -2
   2  -1  19 25.2311 59.7909   1
   0  -5  14 323.064 38.2790  -2
   0   0 -19 323.064 38.2790   1
  -1   0 -19 87.0986 25.0140   2
  -1   0 -19 111.753 28.3503   1
   1   0  19 102.300 27.8167   2
  -2   0 -19 53.4076 25.9465   1
  -2   0 -19 52.2137 24.0962   2
   2   0  19 60.0962 23.9399   1
  -3   0 -19 128.062 32.5438   1
  -3   0 -19 80.5911 22.8046   2
   3   0  19 86.3312 30.4873   1
  -1  -6  12 -0.6803 27.7768  -2
   1  -1 -19 -0.6803 27.7768   1
   0  -1 -19 71.4838 23.9405   1
   0  -1 -19 48.8448 22.3958   2
  -1  -1 -19 -5.4392 17.2493   2
  -1  -1 -19 13.6344 20.4081   1
  -2  -1 -19 279.371 37.7688   1
  -2  -1 -19 321.392 38.4696   2
   3  -5  13 288.895 51.7688  -2
  -3  -1 -19 288.895 51.7688   1
   1  -2 -19 27.5883 12.8497   1
   1  -2 -19 16.8237 20.2533   2
   0  -2 -19 97.3810 16.3908   1
   0  -2 -19 81.2223 23.9453   2
  -1  -2 -19 71.3898 14.7162   1
  -1  -2 -19 59.0828 23.8554   2
   2  -6  11 397.301 40.8670  -2
  -2  -2 -19 397.301 40.8670   1
  -3  -2 -19 44.7555 25.7122   1
  -3  -2 -19 45.2280 25.7616   2
   1  -3 -19 7.04925 11.1391   1
   1  -3 -19 0.56395 19.3432   2
   0  -3 -19 39.7742 20.8184   2
   0  -7   9 -12.459 39.4198  -2
   0  -3 -19 -12.459 39.4198   1
   0  -3 -19 47.9831 18.7421   1
   1  -7   9 41.6177 14.0503  -2
  -1  -3 -19 41.6177 14.0503   1
  -2  -3 -19 225.000 22.1491   1
  -2  -3 -19 287.617 37.6201   2
  -3  -3 -19 -0.5341 22.6538   1
  -3  -3 -19 7.54797 21.1662   2
   0  -8   7 106.266 21.1933  -2
   0  -4 -19 106.266 21.1933   1
  -1  -4 -19 362.127 25.3391   1
  -1  -4 -19 277.815 24.7729   2
  -2  -4 -19 10.2541 12.0286   1
  -2  -4 -19 8.66845 15.0390   2
  -1  -5 -19 168.304 21.0675   2
  -1  -5 -19 114.661 16.7539   1
  -1  -1 -20 62.8565 24.9305   2
  -1  -1 -20 40.3896 24.0851   1
  -1  -2 -20 41.1634 22.6114   2
  -1  -2 -20 61.7286 24.9212   1
  -2  -2 -20 56.1822 25.8680   2
  -2  -2 -20 36.3010 24.5021   1
  -1  -3 -20 14.9027 12.4530   1
  -1  -3 -20 34.1847 21.8728   2
   0   0   0    0.00    0.00   0
;
_shelx_hkl_checksum              36669
loop_
_space_group_symop_operation_xyz
'x, y, z'
loop_
_atom_site_type_symbol
_atom_site_label
_atom_site_fract_x
_atom_site_fract_y
_atom_site_fract_z
_atom_site_U_iso_or_equiv
_atom_site_adp_type
_atom_site_calc_flag
_atom_site_refinement_flags_adp
_atom_site_refinement_flags_posn
_atom_site_occupancy
Cl Cl1 0.2823(2) 0.41835(14) 0.23411(8) 0.0142(3) Uani d . . 1
Cl Cl2 0.5179(2) 0.57848(14) 0.76800(8) 0.0147(3) Uani d . . 1
O O1 1.0626(6) 0.6058(4) 0.4050(2) 0.0139(8) Uani d . . 1
C C2 0.9407(10) 0.4500(7) 0.4289(3) 0.0149(12) Uani d . . 1
C C3 0.7332(10) 0.4488(8) 0.3794(4) 0.0131(13) Uani d . . 1
H H3A 0.573084 0.427168 0.418529 0.016 Uiso calc U R 1
H H3B 0.759879 0.355372 0.34479 0.016 Uiso calc U R 1
C C4 0.7362(11) 0.6318(7) 0.3220(4) 0.0123(13) Uani d . . 1
H H4 0.579971 0.697305 0.337785 0.015 Uiso calc U R 1
C C5 0.9614(9) 0.7279(6) 0.3385(3) 0.0108(11) Uani d . . 1
H H5 1.087739 0.750591 0.285242 0.013 Uiso calc U R 1
O O6 1.0031(7) 0.3352(5) 0.4833(2) 0.0181(9) Uani d . . 1
N N7 0.7676(9) 0.6142(6) 0.2299(3) 0.0111(11) Uani d . . 1
H H7A 0.915451 0.560825 0.216154 0.013 Uiso calc U R 1
H H7B 0.646632 0.542011 0.223948 0.013 Uiso calc U R 1
C C8 0.7581(11) 0.7868(7) 0.1676(4) 0.0164(14) Uani d . . 1
H H8A 0.590772 0.839145 0.177746 0.02 Uiso calc U R 1
H H8B 0.877807 0.870563 0.177505 0.02 Uiso calc U R 1
C C9 0.8172(11) 0.7631(8) 0.0766(4) 0.0133(12) Uani d . . 1
C C10 1.0396(11) 0.6892(8) 0.0455(4) 0.0163(14) Uani d . . 1
H H10 1.152349 0.644797 0.083276 0.02 Uiso calc U R 1
C C11 1.0990(12) 0.6793(8) -0.0398(4) 0.0188(14) Uani d . . 1
H H11 1.25144 0.62742 -0.060131 0.023 Uiso calc U R 1
C C12 0.9375(12) 0.7446(8) -0.0957(4) 0.0176(14) Uani d . . 1
H H12 0.980783 0.741415 -0.154686 0.021 Uiso calc U R 1
C C13 0.7138(12) 0.8142(8) -0.0651(4) 0.0175(14) Uani d . . 1
H H13 0.600225 0.855383 -0.102997 0.021 Uiso calc U R 1
C C14 0.6520(11) 0.8249(8) 0.0206(4) 0.0161(14) Uani d . . 1
H H14 0.497536 0.874131 0.04088 0.019 Uiso calc U R 1
C C15 0.9049(10) 0.9011(6) 0.3707(3) 0.0131(11) Uani d . . 1
H H15 0.778922 0.880251 0.424112 0.016 Uiso calc U R 1
C C16 1.1396(11) 0.9762(7) 0.3874(4) 0.0182(13) Uani d . . 1
H H16A 1.099937 1.086699 0.409345 0.022 Uiso calc U R 1
H H16B 1.208756 0.890082 0.431682 0.022 Uiso calc U R 1
O O17 0.8154(7) 1.0285(5) 0.3059(2) 0.0146(8) Uani d . . 1
H H17 0.662491 1.014743 0.309413 0.022 Uiso calc U R 1
O O18 1.3209(7) 1.0132(5) 0.3111(2) 0.0181(9) Uani d . . 1
H H18 1.292376 1.113199 0.282347 0.027 Uiso calc U R 1
O O21 0.4798(6) 0.3924(4) 0.5936(2) 0.0135(8) Uani d . . 1
C C22 0.3713(10) 0.5513(7) 0.5715(3) 0.0134(11) Uani d . . 1
C C23 0.1155(10) 0.5566(8) 0.6220(4) 0.0128(13) Uani d . . 1
H H23A -0.008939 0.581941 0.583385 0.015 Uiso calc U R 1
H H23B 0.103673 0.64891 0.657096 0.015 Uiso calc U R 1
C C24 0.0749(10) 0.3719(7) 0.6789(4) 0.0115(12) Uani d . . 1
H H24 -0.063711 0.31065 0.663549 0.014 Uiso calc U R 1
C C25 0.3206(10) 0.2714(6) 0.6597(3) 0.0125(11) Uani d . . 1
H H25 0.398561 0.244605 0.712451 0.015 Uiso calc U R 1
O O26 0.4774(7) 0.6664(5) 0.5176(2) 0.0190(9) Uani d . . 1
N N27 0.0199(8) 0.3855(6) 0.7712(3) 0.0118(11) Uani d . . 1
H H27A -0.110275 0.460591 0.778633 0.014 Uiso calc U R 1
H H27B 0.153027 0.434013 0.78477 0.014 Uiso calc U R 1
C C28 -0.0394(11) 0.2122(7) 0.8317(4) 0.0156(13) Uani d . . 1
H H28A 0.09487 0.126231 0.820611 0.019 Uiso calc U R 1
H H28B -0.194239 0.164456 0.821392 0.019 Uiso calc U R 1
C C29 -0.0692(11) 0.2312(8) 0.9235(4) 0.0137(13) Uani d . . 1
C C30 -0.2811(11) 0.3088(8) 0.9610(4) 0.0147(13) Uani d . . 1
H H30 -0.40328 0.356099 0.927457 0.018 Uiso calc U R 1
C C31 -0.3156(12) 0.3179(8) 1.0470(4) 0.0160(14) Uani d . . 1
H H31 -0.461904 0.369648 1.07238 0.019 Uiso calc U R 1
C C32 -0.1363(12) 0.2513(8) 1.0956(4) 0.0206(15) Uani d . . 1
H H32 -0.158935 0.257914 1.154326 0.025 Uiso calc U R 1
C C33 0.0772(12) 0.1746(8) 1.0585(4) 0.0194(15) Uani d . . 1
H H33 0.200273 0.128312 1.091791 0.023 Uiso calc U R 1
C C34 0.1092(11) 0.1661(8) 0.9727(4) 0.0161(14) Uani d . . 1
H H34 0.255852 0.114835 0.947229 0.019 Uiso calc U R 1
C C35 0.3035(9) 0.1006(6) 0.6273(3) 0.0122(11) Uani d . . 1
H H35 0.227681 0.125568 0.574102 0.015 Uiso calc U R 1
C C36 0.5584(11) 0.0191(7) 0.6091(4) 0.0184(13) Uani d . . 1
H H36A 0.545101 -0.089002 0.585818 0.022 Uiso calc U R 1
H H36B 0.666929 0.104225 0.565639 0.022 Uiso calc U R 1
O O37 0.1562(7) -0.0231(5) 0.6913(2) 0.0162(8) Uani d . . 1
H H37 0.010647 -0.019717 0.681288 0.024 Uiso calc U R 1
O O38 0.6657(7) -0.0257(5) 0.6859(2) 0.0196(9) Uani d . . 1
H H38 0.621354 -0.128327 0.711859 0.029 Uiso calc U R 1
loop_
_atom_site_aniso_label
_atom_site_aniso_U_11
_atom_site_aniso_U_22
_atom_site_aniso_U_33
_atom_site_aniso_U_12
_atom_site_aniso_U_13
_atom_site_aniso_U_23
Cl1 0.0116(7) 0.0147(7) 0.0159(8) 0.0001(6) -0.0018(6) -0.0025(6)
Cl2 0.0133(7) 0.0156(7) 0.0149(8) 0.0007(6) -0.0036(6) -0.0018(6)
O1 0.014(2) 0.0108(18) 0.018(2) 0.0019(15) -0.0075(16) -0.0011(15)
C2 0.020(3) 0.013(3) 0.012(3) 0.000(2) 0.000(2) -0.007(2)
C3 0.010(3) 0.016(3) 0.014(3) -0.002(2) -0.001(2) -0.005(2)
C4 0.015(3) 0.015(3) 0.007(3) -0.002(3) -0.005(2) -0.001(2)
C5 0.012(3) 0.011(2) 0.009(3) 0.000(2) -0.005(2) 0.002(2)
O6 0.025(2) 0.016(2) 0.013(2) 0.0036(17) -0.0088(17) -0.0010(16)
N7 0.010(3) 0.014(3) 0.011(3) -0.002(2) -0.002(2) -0.004(2)
C8 0.023(4) 0.011(3) 0.014(3) 0.002(2) -0.003(3) 0.001(2)
C9 0.014(3) 0.014(3) 0.011(3) -0.005(2) 0.001(2) 0.000(2)
C10 0.018(3) 0.017(3) 0.013(3) -0.006(3) -0.004(3) 0.003(3)
C11 0.015(4) 0.019(4) 0.020(4) -0.006(3) 0.003(3) -0.003(3)
C12 0.027(4) 0.014(3) 0.012(4) -0.004(3) -0.004(3) -0.001(3)
C13 0.025(4) 0.014(3) 0.014(3) -0.006(3) -0.009(3) 0.001(3)
C14 0.016(3) 0.013(3) 0.018(3) -0.002(2) -0.004(3) 0.000(2)
C15 0.013(3) 0.013(3) 0.014(3) 0.002(2) -0.003(2) -0.002(2)
C16 0.022(3) 0.014(3) 0.021(3) 0.002(2) -0.007(3) -0.006(2)
O17 0.011(2) 0.0121(19) 0.020(2) 0.0008(17) -0.0052(17) 0.0003(16)
O18 0.010(2) 0.015(2) 0.027(2) -0.0026(16) -0.0036(17) 0.0016(17)
O21 0.012(2) 0.0112(19) 0.015(2) 0.0008(15) 0.0020(15) -0.0013(15)
C22 0.017(3) 0.016(3) 0.009(3) -0.002(2) -0.003(2) -0.007(2)
C23 0.017(3) 0.013(3) 0.009(3) -0.001(2) -0.004(2) -0.001(2)
C24 0.009(3) 0.015(3) 0.010(3) -0.001(2) 0.002(2) -0.004(2)
C25 0.012(3) 0.013(3) 0.012(3) -0.001(2) -0.002(2) 0.000(2)
O26 0.025(2) 0.0161(19) 0.013(2) -0.0038(17) 0.0022(17) 0.0004(16)
N27 0.009(3) 0.015(3) 0.010(3) -0.001(2) -0.001(2) 0.000(2)
C28 0.021(3) 0.012(3) 0.011(3) -0.002(2) 0.002(2) 0.000(2)
C29 0.015(3) 0.010(3) 0.015(3) -0.005(2) 0.000(2) -0.001(2)
C30 0.014(3) 0.014(3) 0.015(3) -0.002(2) -0.003(2) 0.000(2)
C31 0.021(4) 0.014(3) 0.011(3) 0.001(3) 0.003(3) -0.003(3)
C32 0.034(4) 0.017(3) 0.009(4) -0.009(3) 0.001(3) -0.001(3)
C33 0.021(4) 0.015(3) 0.022(4) -0.002(3) -0.008(3) 0.001(3)
C34 0.016(3) 0.014(3) 0.018(3) 0.001(2) -0.001(3) -0.004(3)
C35 0.012(3) 0.010(2) 0.013(3) -0.001(2) -0.001(2) 0.001(2)
C36 0.022(3) 0.015(3) 0.018(3) 0.000(2) -0.003(3) -0.004(2)
O37 0.0082(19) 0.019(2) 0.020(2) -0.0011(16) -0.0033(16) 0.0000(16)
O38 0.013(2) 0.018(2) 0.027(2) -0.0008(17) -0.0058(18) 0.0012(17)
loop_
_atom_type_symbol
_atom_type_description
_atom_type_scat_dispersion_real
_atom_type_scat_dispersion_imag
_atom_type_scat_source
C C 0.0033 0.0016 'International Tables Vol C Tables 4.2.6.8 and 6.1.1.4'
H H 0.0000 0.0000 'International Tables Vol C Tables 4.2.6.8 and 6.1.1.4'
N N 0.0061 0.0033 'International Tables Vol C Tables 4.2.6.8 and 6.1.1.4'
O O 0.0106 0.0060 'International Tables Vol C Tables 4.2.6.8 and 6.1.1.4'
Cl Cl 0.1484 0.1585 'International Tables Vol C Tables 4.2.6.8 and 6.1.1.4'
loop_
_geom_angle_atom_site_label_1
_geom_angle_atom_site_label_2
_geom_angle_atom_site_label_3
_geom_angle
C2 O1 C5 112.6(4)
O6 C2 O1 120.4(5)
O6 C2 C3 128.7(5)
O1 C2 C3 110.9(4)
C2 C3 C4 105.4(4)
C2 C3 H3A 110.7
C4 C3 H3A 110.7
C2 C3 H3B 110.7
C4 C3 H3B 110.7
H3A C3 H3B 108.8
N7 C4 C3 109.9(4)
N7 C4 C5 110.6(5)
C3 C4 C5 105.3(4)
N7 C4 H4 110.3
C3 C4 H4 110.3
C5 C4 H4 110.3
O1 C5 C15 106.8(4)
O1 C5 C4 105.7(4)
C15 C5 C4 116.0(4)
O1 C5 H5 109.4
C15 C5 H5 109.4
C4 C5 H5 109.4
C8 N7 C4 114.4(4)
C8 N7 H7A 108.7
C4 N7 H7A 108.7
C8 N7 H7B 108.7
C4 N7 H7B 108.7
H7A N7 H7B 107.6
C9 C8 N7 111.9(5)
C9 C8 H8A 109.2
N7 C8 H8A 109.2
C9 C8 H8B 109.2
N7 C8 H8B 109.2
H8A C8 H8B 107.9
C10 C9 C14 118.8(6)
C10 C9 C8 121.4(6)
C14 C9 C8 119.7(6)
C11 C10 C9 120.8(6)
C11 C10 H10 119.6
C9 C10 H10 119.6
C10 C11 C12 120.2(6)
C10 C11 H11 119.9
C12 C11 H11 119.9
C13 C12 C11 119.5(6)
C13 C12 H12 120.3
C11 C12 H12 120.3
C12 C13 C14 120.8(6)
C12 C13 H13 119.6
C14 C13 H13 119.6
C13 C14 C9 119.8(6)
C13 C14 H14 120.1
C9 C14 H14 120.1
O17 C15 C16 107.1(4)
O17 C15 C5 109.0(4)
C16 C15 C5 110.2(4)
O17 C15 H15 110.2
C16 C15 H15 110.2
C5 C15 H15 110.2
O18 C16 C15 111.4(4)
O18 C16 H16A 109.3
C15 C16 H16A 109.3
O18 C16 H16B 109.3
C15 C16 H16B 109.3
H16A C16 H16B 108.0
C15 O17 H17 109.5
C16 O18 H18 109.5
C22 O21 C25 112.3(4)
O26 C22 O21 120.8(5)
O26 C22 C23 128.1(5)
O21 C22 C23 111.1(4)
C22 C23 C24 105.2(4)
C22 C23 H23A 110.7
C24 C23 H23A 110.7
C22 C23 H23B 110.7
C24 C23 H23B 110.7
H23A C23 H23B 108.8
N27 C24 C23 110.4(4)
N27 C24 C25 110.7(4)
C23 C24 C25 105.1(4)
N27 C24 H24 110.2
C23 C24 H24 110.2
C25 C24 H24 110.2
O21 C25 C35 107.4(4)
O21 C25 C24 106.2(4)
C35 C25 C24 116.3(4)
O21 C25 H25 108.9
C35 C25 H25 108.9
C24 C25 H25 108.9
C24 N27 C28 114.3(4)
C24 N27 H27A 108.7
C28 N27 H27A 108.7
C24 N27 H27B 108.7
C28 N27 H27B 108.7
H27A N27 H27B 107.6
N27 C28 C29 111.9(5)
N27 C28 H28A 109.2
C29 C28 H28A 109.2
N27 C28 H28B 109.2
C29 C28 H28B 109.2
H28A C28 H28B 107.9
C34 C29 C30 119.1(6)
C34 C29 C28 120.5(6)
C30 C29 C28 120.4(5)
C31 C30 C29 120.6(5)
C31 C30 H30 119.7
C29 C30 H30 119.7
C32 C31 C30 119.7(6)
C32 C31 H31 120.1
C30 C31 H31 120.1
C31 C32 C33 120.1(6)
C31 C32 H32 120.0
C33 C32 H32 120.0
C34 C33 C32 119.6(6)
C34 C33 H33 120.2
C32 C33 H33 120.2
C29 C34 C33 120.9(6)
C29 C34 H34 119.6
C33 C34 H34 119.6
O37 C35 C36 107.7(4)
O37 C35 C25 109.1(4)
C36 C35 C25 110.5(4)
O37 C35 H35 109.8
C36 C35 H35 109.8
C25 C35 H35 109.8
O38 C36 C35 110.7(4)
O38 C36 H36A 109.5
C35 C36 H36A 109.5
O38 C36 H36B 109.5
C35 C36 H36B 109.5
H36A C36 H36B 108.1
C35 O37 H37 109.5
C36 O38 H38 109.5
loop_
_geom_bond_atom_site_label_1
_geom_bond_atom_site_label_2
_geom_bond_distance
O1 C2 1.349(6)
O1 C5 1.452(5)
C2 O6 1.200(6)
C2 C3 1.500(7)
C3 C4 1.522(8)
C3 H3A 0.99
C3 H3B 0.99
C4 N7 1.506(7)
C4 C5 1.550(7)
C4 H4 1.0
C5 C15 1.530(6)
C5 H5 1.0
N7 C8 1.503(7)
N7 H7A 0.91
N7 H7B 0.91
C8 C9 1.500(8)
C8 H8A 0.99
C8 H8B 0.99
C9 C10 1.387(8)
C9 C14 1.395(9)
C10 C11 1.381(8)
C10 H10 0.95
C11 C12 1.383(9)
C11 H11 0.95
C12 C13 1.375(9)
C12 H12 0.95
C13 C14 1.389(9)
C13 H13 0.95
C14 H14 0.95
C15 O17 1.424(6)
C15 C16 1.516(7)
C15 H15 1.0
C16 O18 1.434(7)
C16 H16A 0.99
C16 H16B 0.99
O17 H17 0.84
O18 H18 0.84
O21 C22 1.350(6)
O21 C25 1.456(6)
C22 O26 1.200(6)
C22 C23 1.503(8)
C23 C24 1.532(8)
C23 H23A 0.99
C23 H23B 0.99
C24 N27 1.497(7)
C24 C25 1.546(7)
C24 H24 1.0
C25 C35 1.522(6)
C25 H25 1.0
N27 C28 1.498(7)
N27 H27A 0.91
N27 H27B 0.91
C28 C29 1.504(8)
C28 H28A 0.99
C28 H28B 0.99
C29 C34 1.382(9)
C29 C30 1.390(8)
C30 C31 1.389(8)
C30 H30 0.95
C31 C32 1.383(9)
C31 H31 0.95
C32 C33 1.391(9)
C32 H32 0.95
C33 C34 1.385(9)
C33 H33 0.95
C34 H34 0.95
C35 O37 1.418(6)
C35 C36 1.519(7)
C35 H35 1.0
C36 O38 1.439(6)
C36 H36A 0.99
C36 H36B 0.99
O37 H37 0.84
O38 H38 0.84
loop_
_geom_hbond_atom_site_label_D
_geom_hbond_atom_site_label_H
_geom_hbond_atom_site_label_A
_geom_hbond_site_symmetry_A
_geom_hbond_distance_DH
_geom_hbond_distance_HA
_geom_hbond_distance_DA
_geom_hbond_angle_DHA
N7 H7A Cl1 1_655 0.91 2.29 3.157(5) 159.0
N7 H7B Cl1 . 0.91 2.21 3.090(5) 162.2
O17 H17 O18 1_455 0.84 1.87 2.706(5) 173.1
O18 H18 Cl1 1_665 0.84 2.32 3.131(4) 161.4
N27 H27A Cl2 1_455 0.91 2.22 3.085(5) 158.1
N27 H27B Cl2 . 0.91 2.27 3.144(5) 159.9
O37 H37 O38 1_455 0.84 1.88 2.708(5) 167.0
O38 H38 Cl2 1_545 0.84 2.31 3.145(4) 173.0
loop_
_geom_torsion_atom_site_label_1
_geom_torsion_atom_site_label_2
_geom_torsion_atom_site_label_3
_geom_torsion_atom_site_label_4
_geom_torsion
C5 O1 C2 O6 179.9(5)
C5 O1 C2 C3 -0.2(6)
O6 C2 C3 C4 178.0(5)
O1 C2 C3 C4 -1.9(6)
C2 C3 C4 N7 122.2(5)
C2 C3 C4 C5 3.1(6)
C2 O1 C5 C15 126.3(4)
C2 O1 C5 C4 2.2(5)
N7 C4 C5 O1 -121.9(4)
C3 C4 C5 O1 -3.3(6)
N7 C4 C5 C15 120.0(5)
C3 C4 C5 C15 -121.4(5)
C3 C4 N7 C8 176.6(5)
C5 C4 N7 C8 -67.6(6)
C4 N7 C8 C9 173.9(5)
N7 C8 C9 C10 -57.8(7)
N7 C8 C9 C14 125.7(6)
C14 C9 C10 C11 1.1(9)
C8 C9 C10 C11 -175.5(5)
C9 C10 C11 C12 0.5(9)
C10 C11 C12 C13 -2.1(9)
C11 C12 C13 C14 2.1(9)
C12 C13 C14 C9 -0.6(10)
C10 C9 C14 C13 -1.0(10)
C8 C9 C14 C13 175.6(5)
O1 C5 C15 O17 177.4(4)
C4 C5 C15 O17 -65.1(6)
O1 C5 C15 C16 60.2(5)
C4 C5 C15 C16 177.7(5)
O17 C15 C16 O18 -58.2(5)
C5 C15 C16 O18 60.2(5)
C25 O21 C22 O26 -179.9(5)
C25 O21 C22 C23 -0.2(5)
O26 C22 C23 C24 178.3(5)
O21 C22 C23 C24 -1.3(6)
C22 C23 C24 N27 121.7(5)
C22 C23 C24 C25 2.2(5)
C22 O21 C25 C35 126.7(4)
C22 O21 C25 C24 1.6(5)
N27 C24 C25 O21 -121.6(4)
C23 C24 C25 O21 -2.3(5)
N27 C24 C25 C35 119.0(5)
C23 C24 C25 C35 -121.8(5)
C23 C24 N27 C28 176.1(5)
C25 C24 N27 C28 -67.9(6)
C24 N27 C28 C29 174.6(5)
N27 C28 C29 C34 -107.7(6)
N27 C28 C29 C30 74.7(7)
C34 C29 C30 C31 -1.2(9)
C28 C29 C30 C31 176.4(6)
C29 C30 C31 C32 0.9(9)
C30 C31 C32 C33 -0.4(9)
C31 C32 C33 C34 0.3(9)
C30 C29 C34 C33 1.1(9)
C28 C29 C34 C33 -176.5(5)
C32 C33 C34 C29 -0.7(10)
O21 C25 C35 O37 178.1(4)
C24 C25 C35 O37 -63.2(5)
O21 C25 C35 C36 59.8(5)
C24 C25 C35 C36 178.6(4)
O37 C35 C36 O38 -57.6(5)
C25 C35 C36 O38 61.5(6)
