#------------------------------------------------------------------------------
#$Date: 2019-11-11 20:28:57 +0200 (Mon, 11 Nov 2019) $
#$Revision: 227271 $
#$URL: file:///home/coder/svn-repositories/cod/cif/4/03/58/4035859.cif $
#------------------------------------------------------------------------------
#
# This file is available in the Crystallography Open Database (COD),
# http://www.crystallography.net/
#
# All data on this site have been placed in the public domain by the
# contributors.
#
data_4035859
loop_
_publ_author_name
'Bookser, Brett C.'
'Weinhouse, Michael I.'
'Burns, Aaron C.'
'Valiere, Andrew N.'
'Valdez, Lino J.'
'Stanczak, Pawel'
'Na, Jim'
'Rheingold, Arnold L.'
'Moore, Curtis E.'
'Dyck, Brian'
_publ_section_title
;
 Solvent-Controlled, Site-Selective N-Alkylation Reactions of Azolo-Fused
 Ring Heterocycles at N1-, N2-, and N3-Positions, Including Pyrazolo[3,4-
 d]pyrimidines, Purines, [1,2,3]Triazolo[4,5]pyridines, and Related
 Deaza-Compounds.
;
_journal_issue                   12
_journal_name_full               'The Journal of organic chemistry'
_journal_page_first              6334
_journal_page_last               6353
_journal_paper_doi               10.1021/acs.joc.8b00540
_journal_volume                  83
_journal_year                    2018
_chemical_formula_moiety         'C6 H5 Cl N4'
_chemical_formula_sum            'C6 H5 Cl N4'
_chemical_formula_weight         168.59
_space_group_crystal_system      monoclinic
_space_group_IT_number           14
_space_group_name_Hall           '-P 2ybc'
_space_group_name_H-M_alt        'P 1 21/c 1'
_atom_sites_solution_hydrogens   geom
_atom_sites_solution_primary     dual
_audit_creation_date             2016-09-07
_audit_creation_method
;
Olex2 1.2-beta
(compiled 2016.08.25 svn.r3337 for OlexSys, GUI svn.r5221)
;
_cell_angle_alpha                90
_cell_angle_beta                 93.35(9)
_cell_angle_gamma                90
_cell_formula_units_Z            4
_cell_length_a                   3.858(11)
_cell_length_b                   6.027(13)
_cell_length_c                   29.82(7)
_cell_measurement_reflns_used    938
_cell_measurement_temperature    100
_cell_measurement_theta_max      24.727
_cell_measurement_theta_min      2.716
_cell_volume                     692(3)
_computing_cell_refinement       'SAINT v8.34A (Bruker, 2013)'
_computing_data_collection       'APEX2 v2013.6-2 (Bruker, 2013)'
_computing_data_reduction        'SAINT v8.34A (Bruker, 2013)'
_computing_molecular_graphics    'Olex2 (Dolomanov et al., 2009)'
_computing_publication_material  'Olex2 (Dolomanov et al., 2009)'
_computing_structure_refinement  'XL (Sheldrick, 2008)'
_computing_structure_solution    'ShelXT (Sheldrick, 2008)'
_diffrn_ambient_temperature      100
_diffrn_detector                 'Bruker APEX-II CCD'
_diffrn_detector_area_resol_mean 7.9
_diffrn_detector_type            'CCD Area Detector'
_diffrn_measured_fraction_theta_full 0.991
_diffrn_measured_fraction_theta_max 0.991
_diffrn_measurement_device       'Kappa Four-Circle Diffractometer'
_diffrn_measurement_device_type  'Bruker APEX II Ultra'
_diffrn_measurement_method       '\w and \f scans'
_diffrn_radiation_monochromator  'Double Bounce Multilayer Mirrors'
_diffrn_radiation_probe          x-ray
_diffrn_radiation_type           MoK\a
_diffrn_radiation_wavelength     0.71073
_diffrn_reflns_av_R_equivalents  0.0522
_diffrn_reflns_av_unetI/netI     0.0587
_diffrn_reflns_Laue_measured_fraction_full 0.991
_diffrn_reflns_Laue_measured_fraction_max 0.991
_diffrn_reflns_limit_h_max       4
_diffrn_reflns_limit_h_min       -4
_diffrn_reflns_limit_k_max       6
_diffrn_reflns_limit_k_min       -7
_diffrn_reflns_limit_l_max       35
_diffrn_reflns_limit_l_min       -35
_diffrn_reflns_number            3918
_diffrn_reflns_point_group_measured_fraction_full 0.991
_diffrn_reflns_point_group_measured_fraction_max 0.991
_diffrn_reflns_theta_full        25.423
_diffrn_reflns_theta_max         25.423
_diffrn_reflns_theta_min         1.368
_diffrn_source                   'Micro Focus Rotating Anode'
_diffrn_source_type              'Bruker TXS'
_diffrn_standards_number         0
_exptl_absorpt_coefficient_mu    0.479
_exptl_absorpt_correction_T_max  0.2590
_exptl_absorpt_correction_T_min  0.1830
_exptl_absorpt_correction_type   multi-scan
_exptl_absorpt_process_details
;
SADABS-2016/2 (Bruker,2016/2) was used for absorption correction.
wR2(int) was 0.1128 before and 0.0455 after correction.
The Ratio of minimum to maximum transmission is 0.7066.
The \l/2 correction factor is Not present.
;
_exptl_crystal_colour            colourless
_exptl_crystal_colour_primary    colourless
_exptl_crystal_density_diffrn    1.618
_exptl_crystal_description       plate
_exptl_crystal_F_000             344
_exptl_crystal_size_max          0.3
_exptl_crystal_size_mid          0.24
_exptl_crystal_size_min          0.03
_refine_diff_density_max         0.460
_refine_diff_density_min         -0.327
_refine_diff_density_rms         0.084
_refine_ls_extinction_method     none
_refine_ls_goodness_of_fit_ref   1.117
_refine_ls_hydrogen_treatment    constr
_refine_ls_matrix_type           full
_refine_ls_number_parameters     101
_refine_ls_number_reflns         1276
_refine_ls_number_restraints     0
_refine_ls_restrained_S_all      1.117
_refine_ls_R_factor_all          0.0829
_refine_ls_R_factor_gt           0.0590
_refine_ls_shift/su_max          0.000
_refine_ls_shift/su_mean         0.000
_refine_ls_structure_factor_coef Fsqd
_refine_ls_weighting_details
'w=1/[\s^2^(Fo^2^)+(0.0387P)^2^+1.4248P] where P=(Fo^2^+2Fc^2^)/3'
_refine_ls_weighting_scheme      calc
_refine_ls_wR_factor_gt          0.1136
_refine_ls_wR_factor_ref         0.1211
_reflns_Friedel_coverage         0.000
_reflns_number_gt                1000
_reflns_number_total             1276
_reflns_threshold_expression     'I > 2\s(I)'
_cod_data_source_file            jo8b00540_si_008.cif
_cod_data_source_block           dart173
_cod_depositor_comments
;
The following automatic conversions were performed:

data item '_diffrn_radiation_probe' value 'X-ray' was changed to
'x-ray' in accordance with the
/home/data/users/saulius/crontab/automatic-downloads/current/ACS/lib/dictionaries/cif_core.dic
dictionary named 'cif_core.dic' version 2.4.2 last updated on
2011-04-26.

Automatic conversion script
Id: cif_fix_values 6909 2019-04-08 15:41:33Z antanas 
;
_cod_database_code               4035859
_shelx_space_group_comment
;
The symmetry employed for this shelxl refinement is uniquely defined
by the following loop, which should always be used as a source of
symmetry information in preference to the above space-group names.
They are only intended as comments.
;
_shelx_estimated_absorpt_t_max   0.986
_shelx_estimated_absorpt_t_min   0.870
_olex2_refinement_description
;
1. Fixed Uiso
 At 1.2 times of:
  All C(H) groups
 At 1.5 times of:
  All C(H,H,H) groups
2.a Aromatic/amide H refined with riding coordinates:
 C5(H5), C6(H6)
2.b Idealised Me refined as rotating group:
 C1(H1A,H1B,H1C)
;
_shelx_res_file
;
    dart173.res created by SHELXL-2014/7

TITL dart173_a.res in P2(1)/c
REM <autosolution>
REM {'C005': 'AtomInfo()', 'C004': 'AtomInfo()', 'C007': 'AtomInfo()',
REM 'C006': 'AtomInfo()', 'C003': 'AtomInfo()', 'CL01': 'AtomInfo()',
REM 'N002': 'AtomInfo()', 'C009': 'AtomInfo()', 'C008': 'AtomInfo()',
REM 'C00A': 'AtomInfo()', 'C00B': 'AtomInfo()'}
REM </autosolution>
CELL 0.71073 3.8576 6.0272 29.8157 90 93.348 90
ZERR 4 0.0112 0.0134 0.07 0 0.087 0
LATT 1
SYMM -X,0.5+Y,0.5-Z
SFAC C H Cl N
UNIT 24 20 4 16

L.S. 4
PLAN  -19 0 0
SIZE 0.03 0.24 0.3
TEMP -173.15
BOND $H
MORE -1
CONF
fmap 2
acta 52
REM <olex2.extras>
REM <HklSrc "%.\\dart173.hkl">
REM </olex2.extras>

WGHT    0.038700    1.424800
FVAR       0.27236
CL1   3    0.104203    0.217531    0.532633    11.00000    0.02402    0.02382 =
         0.01858   -0.00387    0.00052   -0.00535
N1    4    0.106615    0.123727    0.638334    11.00000    0.01204    0.01487 =
         0.02015   -0.00156    0.00023    0.00184
N2    4    0.177717    0.153488    0.681986    11.00000    0.01414    0.01009 =
         0.02012   -0.00157    0.00242   -0.00016
N3    4    0.347772    0.334739    0.694840    11.00000    0.01427    0.00824 =
         0.02288   -0.00192    0.00170    0.00121
N4    4    0.561110    0.631259    0.650625    11.00000    0.01148    0.01464 =
         0.02834   -0.00290    0.00182   -0.00055
C2    1    0.395762    0.436751    0.655437    11.00000    0.01158    0.01397 =
         0.02094   -0.00277    0.00199    0.00232
C3    1    0.246592    0.303444    0.620848    11.00000    0.00922    0.01358 =
         0.02004   -0.00136    0.00192   -0.00037
C5    1    0.431943    0.572456    0.570858    11.00000    0.01552    0.01474 =
         0.02306    0.00130    0.00465    0.00188
AFIX  43
H5    2    0.453484    0.629072    0.541415    11.00000   -1.20000
AFIX   0
C6    1    0.569512    0.693690    0.608545    11.00000    0.01324    0.01131 =
         0.02990   -0.00056    0.00442    0.00062
AFIX  43
H6    2    0.676928    0.831890    0.602858    11.00000   -1.20000
AFIX   0
C1    1    0.070894   -0.008270    0.714344    11.00000    0.02275    0.02108 =
         0.02323    0.00530    0.00205   -0.00248
AFIX 137
H1A   2   -0.061149   -0.126806    0.698674    11.00000   -1.50000
H1B   2   -0.075151    0.064013    0.735847    11.00000   -1.50000
H1C   2    0.276700   -0.071469    0.730409    11.00000   -1.50000
AFIX   0
C4    1    0.270212    0.376550    0.576682    11.00000    0.01269    0.01794 =
         0.01872   -0.00441    0.00108    0.00364
HKLF 4

REM  dart173_a.res in P2(1)/c
REM R1 =  0.0590 for    1000 Fo > 4sig(Fo)  and  0.0829 for all    1276 data
REM    101 parameters refined using      0 restraints

END

WGHT      0.0387      1.4246

REM Highest difference peak  0.460,  deepest hole -0.327,  1-sigma level  0.084
Q1    1   0.0913  0.2267  0.5005  11.00000  0.05    0.46
Q2    1   0.1930  0.1689  0.5701  11.00000  0.05    0.39
Q3    1   0.3698 -0.0545  0.5733  11.00000  0.05    0.33
Q4    1   0.5177  0.8773  0.6469  11.00000  0.05    0.31
Q5    1   0.5670  0.7359  0.6772  11.00000  0.05    0.30
Q6    1   0.3647 -0.0512  0.7631  11.00000  0.05    0.27
Q7    1   0.2891 -0.0489  0.7681  11.00000  0.05    0.27
Q8    1   0.2015  0.3521  0.5995  11.00000  0.05    0.27
Q9    1   0.1302 -0.0086  0.6362  11.00000  0.05    0.26
Q10   1   0.4846  0.4319  0.5731  11.00000  0.05    0.26
Q11   1   0.1967  0.9578  0.0147  11.00000  0.05    0.24
Q12   1   0.4021  0.3273  0.7296  11.00000  0.05    0.24
Q13   1   0.4523  0.8691  0.4818  11.00000  0.05    0.23
Q14   1   0.3192  0.4290  0.6323  11.00000  0.05    0.22
Q15   1   0.2797  0.6611  0.5895  11.00000  0.05    0.22
Q16   1   0.3836  0.4164  0.6803  11.00000  0.05    0.22
Q17   1   0.4378 -0.0271  0.6016  11.00000  0.05    0.22
Q18   1   0.1651  0.1363  0.6575  11.00000  0.05    0.21
Q19   1   0.4399  0.0244  0.6610  11.00000  0.05    0.21
;
_shelx_res_checksum              98147
_shelx_hkl_file
;
   1   0   0    1.02    0.49
  -1   0   0    1.62    0.67
   1   0   0    1.65    0.71
   2   0   0   13.87    1.55
   2   0   0   10.45    1.05
  -2   0   0   13.07    1.30
   3   0   0   18.40    2.13
   3   0   0   16.09    1.69
  -3   0   0   17.65    1.89
   4   0   0   32.49    2.88
   4   0   0   37.79    3.04
   0  -1   0    0.13    0.40
  -1  -1   0 1000.00   18.73
   1  -1   0  994.17   19.21
   1   1   0  983.24   18.50
  -2  -1   0   45.01    2.32
   2  -1   0   48.28    1.93
   2  -1   0   47.17    2.41
   2   1   0   46.40    2.04
   2   1   0   47.01    1.82
  -3  -1   0   61.55    3.16
   3  -1   0   56.26    3.35
   3  -1   0   54.45    2.73
   3   1   0   59.58    2.87
   3   1   0   59.11    2.63
   4  -1   0    0.55    1.48
   4   1   0   -0.36    1.16
   4   1   0   -1.03    1.36
   0  -2   0  171.76    3.91
   0  -2   0  180.68    3.77
   1  -2   0   32.08    1.77
   1   2   0   33.25    1.05
   2  -2   0    7.97    1.40
  -2  -2   0   13.89    1.76
   3  -2   0    9.06    1.81
  -3  -2   0   11.23    2.09
   3   2   0   10.11    1.56
   4  -2   0    6.18    2.13
  -4  -2   0    5.34    2.13
   4   2   0    3.75    1.61
   0  -3   0    0.39    0.79
   0  -3   0    0.56    0.91
   0  -3   0    0.67    0.62
  -1  -3   0    3.58    0.90
   1  -3   0    1.93    0.83
   1  -3   0    3.21    1.00
  -1  -3   0    5.42    1.28
  -2  -3   0   25.35    2.65
   2  -3   0   26.54    2.28
   2   3   0   24.83    1.41
   3  -3   0   11.36    2.11
  -3  -3   0   19.66    2.80
   3   3   0   16.92    1.78
  -4  -3   0    4.65    2.45
   4  -3   0    5.41    2.29
   0  -4   0   23.86    2.03
   0  -4   0   20.08    1.74
   0  -4   0   21.50    1.48
  -1  -4   0   47.02    3.00
  -1  -4   0   45.43    2.71
   1  -4   0   49.86    2.58
   1  -4   0   43.49    2.46
  -2  -4   0   12.47    1.69
  -2  -4   0   13.01    2.44
   2  -4   0    8.15    1.81
   2   4   0   12.65    1.18
   3  -4   0    2.93    1.67
  -3  -4   0    2.97    2.00
   0  -5   0    1.62    1.00
   0  -5   0    1.34    1.39
   0  -5   0    3.87    1.48
   1  -5   0   19.92    2.32
   1  -5   0   20.73    2.26
  -1  -5   0   23.90    3.03
   1  -5   0   22.04    2.09
   2  -5   0    7.03    1.98
  -2  -5   0    8.50    2.39
   3  -5   0   -0.47    1.65
  -3  -5   0    8.15    2.73
   0  -6   0    8.16    1.99
   1  -6   0    2.23    1.87
  -1  -6   0    1.15    2.15
   1  -6   0    0.49    1.50
  -1  -6   0    0.18    1.68
   2  -6   0    6.18    2.13
   2  -6   0    5.95    2.04
  -2  -6   0    9.42    2.72
  -1  -7   0    6.21    2.34
   4   0  -1   -0.17    1.44
   4   0  -1   -0.57    1.31
   3   0  -1    0.79    1.10
   3   0  -1    0.57    0.99
  -3   0   1    1.03    1.14
  -2   0   1   -0.27    0.69
   2   0  -1    0.10    0.56
   2   0  -1    0.43    0.78
   1   0  -1   -0.02    0.42
   1   0  -1   -0.24    0.63
  -1   0  -1   -0.63    0.51
  -1   0  -1   -0.27    0.54
   1   0   1    0.15    0.46
   1   0   1   -0.32    0.61
   2   0   1    0.21    0.80
  -2   0  -1   -0.41    0.67
   2   0   1   -0.08    0.56
   3   0   1    1.69    1.02
  -3   0  -1    1.70    1.07
   3   0   1    0.44    1.13
   4   0   1    2.17    1.60
   4   0   1    0.84    1.24
   4  -1  -1    5.19    1.84
   4   1  -1    3.09    1.59
   4   1  -1   -0.42    1.24
   3  -1  -1    1.57    1.00
   3  -1  -1    1.74    1.27
  -3  -1   1    3.55    1.43
   3   1  -1    1.89    1.19
   3   1  -1    1.27    1.02
   2  -1  -1   64.70    2.77
   2  -1  -1   62.96    2.23
  -2  -1   1   57.76    2.60
   2   1  -1   60.85    2.10
   2   1  -1   62.40    2.30
   1  -1  -1  270.50    6.01
  -1  -1   1  272.19    5.60
   1  -1  -1  266.65    5.56
   1   1  -1  269.36    5.37
   0  -1  -1   62.81    1.39
   0  -1  -1   59.41    1.49
   0  -1   1   60.76    1.51
   0  -1  -1   58.02    1.70
   0   1  -1   59.35    1.52
  -1  -1  -1  208.26    5.04
   1  -1   1  220.18    5.06
  -1  -1  -1  219.96    4.59
  -1  -1  -1  214.92    4.36
   1   1   1  212.26    4.36
   1   1   1  217.85    4.50
   2  -1   1   80.22    2.55
   2  -1   1   76.75    3.09
  -2  -1  -1   77.89    2.96
   2   1   1   80.21    2.42
   2   1   1   79.72    2.66
  -3  -1  -1   23.28    2.33
   3  -1   1   20.67    2.53
   3   1   1   22.45    1.95
   3   1   1   19.76    2.03
   4  -1   1    4.97    1.95
   4   1   1    1.81    1.53
   4   1   1    1.99    1.36
   4  -2  -1    4.52    1.90
  -4  -2   1    5.49    2.15
   4   2  -1    4.25    1.69
  -3  -2   1   91.56    4.64
   3  -2  -1   92.10    4.23
   3   2  -1   89.25    3.35
   2  -2  -1   22.54    1.93
  -2  -2   1   18.97    2.02
   2   2  -1   19.68    1.25
   1  -2  -1   15.99    1.38
  -1   2   1   15.09    1.10
   0  -2  -1   28.54    1.08
   0  -2  -1   22.33    1.43
   0  -2   1   24.73    1.21
   0  -2  -1   26.72    1.26
   1  -2   1    6.08    1.05
  -1  -2  -1    4.39    1.06
   1   2   1    5.89    0.52
  -2  -2  -1  191.35    5.65
   2  -2   1  198.16    5.68
   2   2   1  195.02    4.58
  -3  -2  -1    6.07    1.88
   3  -2   1    5.51    1.66
   3   2   1    5.20    1.39
  -4  -2  -1    7.72    2.27
   4  -2   1    1.09    1.64
   4   2   1    1.12    1.62
   4  -3  -1   61.51    4.47
  -4  -3   1   51.82    4.71
   4   3  -1   56.08    4.00
   3  -3  -1    6.03    1.79
  -3  -3   1    6.18    2.24
   3   3  -1    3.41    1.18
  -2  -3   1   15.32    1.40
  -2  -3   1   16.14    2.17
   2  -3  -1   16.27    2.02
   2   3  -1   15.03    1.24
  -1  -3   1   72.46    2.45
   1  -3  -1   74.89    2.83
   1  -3  -1   76.81    2.50
   0  -3   1    0.29    0.62
   0  -3  -1    0.59    0.62
   0  -3  -1    0.25    0.90
   0  -3  -1    2.01    0.84
   0  -3   1    0.07    0.73
  -1  -3  -1   74.77    3.16
   1  -3   1   70.46    2.83
   1  -3   1   74.58    2.47
  -2  -3  -1    3.87    1.56
   2  -3   1    1.53    1.24
   2   3   1    1.67    0.63
   3  -3   1   34.70    3.11
  -3  -3  -1   32.44    3.10
   3   3   1   38.47    2.37
  -4  -3  -1    1.60    2.30
   4  -3   1   -0.39    1.77
  -3  -4   1   21.69    3.21
   3  -4  -1   17.11    2.54
   3   4  -1   19.57    1.83
   2  -4  -1   21.00    2.40
  -2  -4   1   19.66    2.89
  -2  -4   1   22.97    2.00
   2   4  -1   19.01    1.48
  -1  -4   1    2.09    1.27
   1  -4  -1   -0.12    1.07
  -1  -4   1    4.71    1.41
   1  -4  -1    0.22    0.76
   1  -4  -1    0.82    1.00
   0  -4  -1    4.06    1.12
   0  -4   1    6.17    1.32
   0  -4   1    6.06    1.06
   0  -4   1    5.03    1.17
   0  -4  -1    6.10    1.31
   0  -4  -1    5.80    0.95
   1  -4   1    8.20    1.11
   1  -4   1    4.84    1.24
  -1  -4  -1    7.96    1.54
  -1  -4  -1    9.26    1.76
   1  -4   1    6.08    1.37
  -2  -4  -1   61.05    2.91
   2  -4   1   65.00    3.55
  -2  -4  -1   59.29    3.92
   2   4   1   62.13    2.38
  -3  -4  -1    5.45    2.43
   3  -4   1    0.00    1.62
   3  -5  -1    1.97    1.81
  -3  -5   1    7.25    2.66
  -2  -5   1    6.96    2.36
   2  -5  -1    5.65    1.79
   2   5  -1    4.06    1.31
   1  -5  -1   11.62    1.49
   1  -5  -1    9.87    1.95
   1  -5  -1   11.40    1.91
  -1  -5   1   11.71    2.39
   0  -5   1   24.55    1.95
   0  -5  -1   24.08    2.40
   0  -5   1   23.53    2.57
   0  -5   1   24.64    2.23
   0  -5  -1   27.48    2.39
   0  -5  -1   25.74    1.96
   1  -5   1    6.99    1.82
   1  -5   1   10.16    1.50
  -1  -5  -1   10.91    2.25
   1  -5   1    9.23    1.80
  -1  -5  -1   14.65    2.76
  -2  -5  -1    9.25    2.50
   2  -5   1    1.59    1.55
  -2  -5  -1    0.99    2.12
   3  -5   1    9.61    2.55
  -3  -5  -1   17.67    3.33
  -2  -6   1    6.46    3.02
  -2  -6   1    8.50    2.64
   2  -6  -1    5.76    1.96
  -1  -6   1    4.14    2.01
   1  -6  -1    4.13    1.60
   0  -6   1    8.39    2.68
   0  -6   1    8.94    2.05
   0  -6  -1    9.51    2.54
   0  -6  -1   10.22    2.09
  -1  -6  -1    8.93    2.32
   1  -6   1    2.84    1.71
  -2  -6  -1   13.80    3.01
   2  -6   1    9.73    2.45
  -1  -7   1    4.37    2.21
  -1  -7  -1   30.80    3.85
   4   0  -2    4.15    1.85
   4   0  -2    4.84    1.60
   3   0  -2    3.76    1.13
   3   0  -2    5.48    1.45
  -3   0   2    3.47    1.20
   2   0  -2  105.92    3.42
   2   0  -2  106.80    3.03
   1   0  -2  896.90   16.75
   1   0  -2  880.84   17.03
   0   0  -2    2.86    0.16
   0   0  -2    2.85    0.14
  -1   0  -2  410.38    8.32
   1   0   2  413.82    8.14
   1   0   2  396.40    7.96
  -1   0  -2  404.93    8.04
   1   0   2  413.09    8.36
  -2   0  -2   41.53    1.83
   2   0   2   41.78    1.79
   2   0   2   40.42    2.13
  -3   0  -2   16.63    1.77
   3   0   2   21.98    2.34
   3   0   2   18.12    1.71
   4   0   2   18.53    2.15
   4   0   2   20.05    2.73
   4  -1  -2   27.87    2.69
   4  -1  -2   26.17    3.03
   4   1  -2   23.83    2.56
   3  -1  -2   13.78    1.61
   3  -1  -2   14.56    2.11
  -3  -1   2   15.05    2.04
   3   1  -2   13.74    1.89
   3   1  -2   15.22    1.65
   2  -1  -2  350.74    8.49
   2  -1  -2  363.88    7.82
   2   1  -2  363.79    7.69
   2   1  -2  364.53    7.97
   1  -1  -2  158.46    3.99
   1  -1  -2  163.13    3.59
  -1  -1   2  160.08    3.93
   1   1  -2  159.11    3.38
   0  -1  -2  253.96    5.28
   0  -1  -2  263.38    5.08
   0  -1   2  254.79    5.07
   0   1   2  265.86    5.11
   0   1  -2  249.78    5.06
   0   1   2  264.51    5.31
   1  -1   2  321.77    6.81
  -1  -1  -2  305.13    5.96
  -1  -1  -2  302.54    6.77
  -1  -1  -2  312.27    6.27
   1   1   2  311.85    6.23
   1   1   2  306.86    6.07
  -2  -1  -2    0.72    0.88
   2  -1   2    1.13    0.95
   2   1   2    0.36    0.70
   2   1   2    1.21    0.61
   3  -1   2    8.23    1.82
  -3  -1  -2   15.19    2.08
   3   1   2   17.47    1.91
   3   1   2   12.53    1.61
   4  -1   2    0.91    1.64
   4   1   2    1.17    1.35
   4   1   2    2.45    1.52
  -4  -2   2    0.41    1.82
   4  -2  -2    3.38    1.82
   4   2  -2    0.58    1.30
  -3  -2   2   25.54    2.79
   3  -2  -2   24.52    2.76
   3   2  -2   25.84    2.11
   2  -2  -2  106.88    3.82
   2   2  -2  100.67    2.93
   1  -2  -2  226.06    5.50
  -1   2   2  230.04    4.95
   0  -2   2  160.60    3.58
   0  -2  -2  155.15    3.85
   1  -2   2   68.62    2.54
  -1  -2  -2   69.27    2.75
   1   2   2   72.15    1.71
  -2  -2  -2    9.31    1.56
   2  -2   2    8.76    1.51
   2   2   2    7.83    0.86
   3  -2   2    0.37    1.42
  -3  -2  -2    4.49    1.88
   3   2   2    1.03    1.08
   4  -2   2   28.45    3.52
  -4  -2  -2   32.15    3.29
   4   2   2   24.44    2.52
  -4  -3   2   12.09    2.93
   4  -3  -2    2.16    1.85
   4   3  -2    9.34    2.14
  -3  -3   2   57.12    4.09
   3  -3  -2   67.65    3.92
   3   3  -2   60.98    2.97
  -2  -3   2    5.60    1.07
  -2  -3   2    4.91    1.66
   2  -3  -2    4.47    1.35
  -2   3   2    4.80    1.20
   2   3  -2    5.45    0.84
   1  -3  -2   31.93    1.68
   1  -3  -2   31.02    1.85
  -1  -3   2   33.34    1.68
   0  -3  -2    3.72    0.69
   0  -3  -2    1.87    0.86
   0  -3   2    1.21    0.80
   0  -3   2    0.81    0.66
   0  -3  -2    3.97    1.00
  -1  -3  -2   27.83    2.14
   1  -3   2   28.57    1.56
   1  -3   2   30.12    1.92
   2  -3   2   31.88    2.42
  -2  -3  -2   26.41    2.58
   2   3   2   31.54    1.55
  -3  -3  -2   31.92    3.33
   3  -3   2   27.26    2.92
   3   3   2   31.90    2.22
  -4  -3  -2    1.21    2.07
   4  -3   2    2.66    2.12
  -3  -4   2    3.35    2.20
   3  -4  -2    0.86    1.50
   3   4  -2    2.91    1.18
  -2  -4   2    1.36    1.52
   2  -4  -2    1.12    1.30
  -2  -4   2    3.87    1.90
   2   4  -2    2.83    0.86
   1  -4  -2    1.17    0.79
   1  -4  -2    1.17    1.04
  -1  -4   2    1.21    1.01
   1  -4  -2    0.86    0.94
   0  -4   2   30.07    2.00
   0  -4  -2   26.59    2.02
   0  -4   2   29.94    1.71
   0  -4  -2   31.24    1.61
   0  -4  -2   26.31    1.86
  -1  -4  -2   30.76    2.49
  -1  -4  -2   26.38    1.99
   1  -4   2   29.73    1.82
   1  -4   2   29.58    1.88
   1  -4   2   26.18    2.15
  -2  -4  -2    6.64    1.86
   2  -4   2    6.22    1.64
   2   4   2    3.50    0.85
  -3  -4  -2   18.49    3.06
   3  -4   2   14.64    2.69
  -3  -5   2    6.53    2.61
   3  -5  -2    5.33    2.20
   2  -5  -2    0.03    1.44
  -2  -5   2    0.86    2.15
  -2  -5   2    0.01    1.99
   2   5  -2    0.82    0.89
   1  -5  -2   30.86    2.56
   1  -5  -2   29.88    2.04
   1  -5  -2   33.19    2.99
  -1  -5   2   28.35    3.14
  -1  -5   2   30.74    2.65
   0  -5   2    3.45    1.17
   0  -5   2    4.49    1.54
   0  -5  -2    3.28    1.62
   0  -5   2    6.52    1.71
   0  -5  -2    6.07    1.23
   0  -5  -2    7.69    1.68
   1  -5   2    2.65    1.19
  -1  -5  -2    0.15    1.45
   1  -5   2    0.60    1.36
   1  -5   2    2.61    1.83
  -1  -5  -2    3.97    1.83
  -2  -5  -2   37.70    3.50
   2  -5   2   38.65    3.21
  -2  -5  -2   55.53    4.44
  -3  -5  -2   12.96    3.07
   3  -5   2    7.87    2.37
  -2  -6   2    4.06    2.39
   2  -6  -2    3.81    1.83
   1  -6  -2    4.65    1.65
  -1  -6   2    0.70    1.82
   1  -6  -2    0.55    2.09
   0  -6  -2   28.58    3.04
   0  -6   2   27.37    2.90
   0  -6  -2   29.51    3.37
   0  -6   2   28.79    3.37
   1  -6   2    4.07    1.76
  -1  -6  -2   17.22    2.73
   2  -6   2   11.77    2.73
  -2  -6  -2   16.58    3.22
  -2  -6  -2   12.17    3.09
  -1  -7   2    3.16    2.14
  -1  -7  -2    8.77    2.49
   4   0  -3    0.32    1.34
   4   0  -3    0.71    1.49
  -3   0   3    1.02    1.12
   3   0  -3   -0.38    1.05
   3   0  -3   -1.17    0.80
   2   0  -3   -0.59    0.72
   2   0  -3    0.23    0.54
   1   0  -3   -0.38    0.39
   1   0  -3   -0.38    0.53
   0   0   3   -0.06    0.10
   0   0   3    0.03    0.11
   0   0  -3    0.16    0.13
   0   0  -3   -0.01    0.12
   1   0   3    0.06    0.57
   1   0   3    0.82    0.58
  -1   0  -3   -0.07    0.51
  -1   0  -3   -0.60    0.50
   1   0   3   -0.25    0.36
  -2   0  -3   -0.09    0.65
   2   0   3    0.54    0.60
   2   0   3    0.36    0.87
   3   0   3   -0.75    0.90
   3   0   3   -1.20    1.14
  -3   0  -3   -0.18    1.03
   4   0   3    2.35    1.61
   4  -1  -3    0.57    1.48
   4  -1  -3    3.20    1.69
   4   1  -3    0.05    1.29
   3  -1  -3   12.47    1.85
  -3  -1   3   12.80    2.04
   3  -1  -3   10.25    1.45
   3   1  -3   12.52    1.51
   3   1  -3   13.83    1.85
   2  -1  -3    7.89    1.02
   2  -1  -3    9.25    1.35
   2   1  -3    8.62    0.93
   1  -1  -3  301.75    6.13
   1  -1  -3  291.85    6.51
   1   1  -3  303.06    5.93
   0  -1  -3    7.22    0.63
   0  -1  -3    6.09    0.75
   0  -1   3    6.09    0.64
   0   1   3    6.12    0.66
   0   1   3    6.06    0.79
   0   1  -3    6.40    0.65
  -1  -1  -3   57.67    2.11
  -1  -1  -3   57.90    1.40
   1  -1   3   57.79    2.09
  -1  -1  -3   59.71    1.67
   1   1   3   57.19    1.50
   1   1   3   59.02    1.66
  -2  -1  -3   -0.49    0.81
   2  -1   3    1.38    1.03
   2   1   3    0.75    0.72
   2   1   3    0.89    0.59
   3  -1   3   -0.45    1.22
  -3  -1  -3    2.76    1.44
   3   1   3    0.11    1.11
   3   1   3   -0.65    1.01
   4  -1   3    0.67    1.70
   4   1   3    1.36    1.34
   4   1   3    1.09    1.51
  -4  -2   3   10.15    2.39
   4  -2  -3   11.27    2.32
   4   2  -3   10.10    1.89
  -3  -2   3   28.75    3.08
   3  -2  -3   29.87    2.73
   3   2  -3   33.66    2.27
   2  -2  -3  255.18    6.74
   2   2  -3  255.74    5.76
   1  -2  -3   47.69    2.05
  -1   2   3   49.83    1.75
   0  -2  -3   55.13    1.97
   0  -2   3   54.71    1.74
   0   2   3   54.35    1.73
   1  -2   3    2.11    0.86
  -1  -2  -3    3.33    1.02
   2  -2   3    2.19    1.14
  -2  -2  -3    3.48    1.20
   2   2   3    2.59    0.68
   3  -2   3    6.99    1.83
  -3  -2  -3   15.39    2.37
   3   2   3    6.09    1.20
   4  -2   3   21.37    3.21
  -4  -2  -3   27.98    3.05
   4   2   3   14.70    1.98
  -4  -3   3    3.92    2.24
   4  -3  -3    4.69    1.87
   4   3  -3    3.04    1.55
   3  -3  -3   79.04    4.29
  -3  -3   3   79.40    4.64
  -3   3   3   76.70    3.52
   3   3  -3   75.52    3.20
  -2  -3   3   13.23    1.22
   2  -3  -3   12.85    1.78
  -2   3   3   14.89    1.61
   2   3  -3   11.57    1.07
   1  -3  -3    0.47    0.77
   1  -3  -3    1.37    0.87
  -1  -3   3   -0.18    0.73
  -1   3   3    0.64    0.83
   0  -3  -3   67.08    2.32
   0  -3  -3   67.34    2.58
   0  -3   3   66.10    2.32
   0  -3  -3   70.62    2.08
   1  -3   3   18.15    1.66
  -1  -3  -3   24.61    2.00
   1  -3   3   18.75    1.44
   2  -3   3    3.38    1.32
  -2  -3  -3    7.33    1.70
  -3  -3  -3   35.49    3.50
   3  -3   3   33.60    3.08
   3   3   3   33.26    2.13
   4  -3   3   -0.22    1.84
  -4  -3  -3    4.22    2.39
  -3  -4   3    4.81    2.41
   3  -4  -3    1.83    1.59
   3   4  -3    3.21    1.17
   2  -4  -3    4.18    1.54
  -2  -4   3    0.55    1.64
   2   4  -3    0.15    0.76
   1  -4  -3    7.96    1.40
  -1  -4   3    4.40    1.16
   1  -4  -3    8.14    1.38
   0  -4   3    7.66    1.23
   0  -4   3    7.29    1.12
   0  -4  -3   10.44    1.36
   1  -4   3   19.89    1.67
   1  -4   3   18.22    1.89
  -1  -4  -3   22.83    2.36
   1  -4   3   21.74    1.67
  -2  -4  -3   21.92    2.72
   2  -4   3   19.95    2.51
   2   4   3   18.31    1.37
  -3  -4  -3    6.38    2.30
   3  -4   3    0.31    1.59
   3  -5  -3    3.03    1.99
  -3  -5   3    5.13    2.61
  -2  -5   3    2.74    2.07
   2  -5  -3    6.18    1.91
  -2  -5   3    1.80    1.78
   2   5  -3    3.70    1.01
   1  -5  -3   35.70    3.24
   1  -5  -3   27.77    2.11
  -1  -5   3   37.61    2.82
  -1  -5   3   33.85    3.23
   1  -5  -3   33.52    2.65
   0  -5   3   37.29    2.90
   0  -5   3   34.20    2.35
   0  -5  -3   36.84    2.03
   0  -5   3   35.24    2.75
   0  -5  -3   33.19    2.67
   0  -5  -3   40.41    3.27
   1  -5   3    5.25    1.44
  -1  -5  -3   17.32    2.50
   1  -5   3    1.51    1.41
   1  -5   3    7.06    2.04
  -1  -5  -3    6.94    1.92
   2  -5   3    3.66    1.79
  -2  -5  -3    2.63    2.31
  -2  -5  -3    2.40    1.98
   3  -5   3   12.29    2.71
  -3  -5  -3   26.57    3.86
  -2  -6   3   19.10    3.33
   2  -6  -3   18.72    2.76
   2  -6  -3   17.60    2.92
   1  -6  -3   22.86    3.41
  -1  -6   3   18.94    3.00
  -1  -6   3   20.73    3.54
   0  -6   3   19.78    2.68
   0  -6   3   19.79    3.42
   0  -6  -3   19.63    2.52
   1  -6   3   37.35    3.44
  -1  -6  -3   43.02    4.33
   1  -6   3   35.43    3.19
  -1  -6  -3   33.19    3.47
  -2  -6  -3   32.40    4.05
  -2  -6  -3   36.69    3.72
   2  -6   3   26.36    3.31
  -1  -7   3   28.40    4.00
  -1  -7  -3   15.48    2.89
   4   0  -4    5.70    2.00
   4   0  -4    5.82    1.64
   3   0  -4    9.29    1.71
   3   0  -4    7.57    1.28
  -3   0   4    8.14    1.49
   2   0  -4   27.70    1.73
   2   0  -4   25.43    1.43
   1   0  -4  299.47    6.27
   1   0  -4  296.58    6.00
   0   0  -4  173.89    3.32
   0   0   4  169.79    3.32
   0   0  -4  172.15    3.42
   0   0   4  177.96    3.43
  -1   0  -4  362.71    7.07
   1   0   4  354.34    7.17
   1   0   4  334.35    7.25
   2   0   4    5.19    1.15
   2   0   4    4.63    0.78
  -2   0  -4    5.18    0.96
   3   0   4    0.33    0.95
   3   0   4    0.79    1.34
  -3   0  -4    2.93    1.14
   4   0   4    9.69    2.15
   4  -1  -4    9.77    2.00
  -4  -1   4    6.47    2.38
   4  -1  -4   11.81    2.30
   4   1  -4   10.10    1.97
   3  -1  -4   16.11    2.14
  -3  -1   4   16.79    2.19
   3  -1  -4   12.90    1.62
   3   1  -4   13.08    1.53
   2  -1  -4   31.13    1.62
   2  -1  -4   31.53    1.94
   2   1  -4   29.88    1.52
   1  -1  -4  276.60    6.18
   1  -1  -4  277.20    5.76
   1   1  -4  281.52    5.58
   0  -1   4    0.23    0.55
   0  -1  -4    0.74    0.68
   0  -1  -4    1.73    0.56
   0  -1   4    0.61    0.59
   0   1   4    1.50    0.63
   0   1  -4    1.07    0.57
   0   1   4   -0.29    0.70
  -1  -1  -4   16.30    1.28
   1  -1   4   15.99    1.21
  -1  -1  -4   16.47    0.65
   1   1   4   16.02    0.76
  -2  -1  -4   76.37    2.98
   2  -1   4   80.31    3.19
   2   1   4   79.82    2.41
   2   1   4   75.00    2.66
   3  -1   4    0.36    1.31
  -3  -1  -4   -0.08    1.24
   3   1   4    0.43    1.12
   3   1   4    0.12    0.95
   4  -1   4   14.25    2.67
   4   1   4   10.24    1.89
   4   1   4   14.83    2.32
   4  -2  -4    1.96    1.70
  -4  -2   4    0.87    1.75
   4   2  -4   -1.06    1.38
   3  -2  -4   14.29    2.00
   3  -2  -4   15.56    1.84
  -3  -2   4   14.71    2.38
   3   2  -4   16.95    1.80
   2  -2  -4  102.41    3.08
   2  -2  -4   99.80    3.69
  -2  -2   4   97.83    2.59
   2   2  -4  107.14    2.89
   1  -2  -4   44.48    2.00
  -1   2   4   47.00    1.70
   0  -2   4    1.23    0.59
   0  -2  -4    2.14    0.68
   0   2   4    1.43    0.63
  -1  -2  -4    2.53    1.03
   1  -2   4    2.18    0.89
  -2  -2  -4   38.12    2.44
   2  -2   4   32.86    2.33
   2   2   4   36.81    1.55
   3  -2   4   27.54    2.69
  -3  -2  -4   28.74    3.03
   3   2   4   24.37    2.02
   3   2   4   27.31    2.01
   4  -2   4   43.92    3.85
  -4  -2  -4   44.16    3.89
   4   2   4   41.46    2.79
  -4  -3   4   29.93    3.79
   4  -3  -4   28.65    3.52
   4   3  -4   28.01    2.76
  -3  -3   4   63.52    4.13
   3  -3  -4   51.69    3.57
   3   3  -4   60.41    2.99
  -2  -3   4    2.49    0.93
   2  -3  -4    2.60    1.29
   2   3  -4    4.21    0.82
  -1  -3   4    6.67    1.03
   1  -3  -4    6.35    1.01
   1  -3  -4    6.57    1.13
  -1   3   4    7.81    1.10
   0  -3   4   71.93    2.41
   0  -3  -4   70.22    2.70
   1  -3   4   67.43    2.27
   1  -3   4   68.17    2.76
  -1  -3  -4   63.36    2.98
  -2  -3  -4   51.97    3.14
   2  -3   4   50.67    3.04
   2   3   4   50.92    1.86
   3  -3   4   13.86    2.29
  -3  -3  -4   17.50    2.85
   3   3   4   14.28    1.60
   4  -3   4    3.91    2.05
  -4  -3  -4    3.97    2.27
   3  -4  -4    0.67    1.59
  -3  -4   4    0.20    1.96
   3   4  -4    0.04    1.02
  -2  -4   4   50.63    2.69
   2  -4  -4   46.71    2.93
   2   4  -4   44.89    2.09
  -1  -4   4   37.54    2.20
   1  -4  -4   39.38    2.26
   1  -4  -4   37.25    1.78
   1  -4  -4   35.52    2.33
   0  -4  -4   92.55    3.53
   0  -4   4  100.36    3.16
   0  -4   4  102.58    3.33
   0  -4  -4   96.41    3.48
   1  -4   4    4.88    1.32
   1  -4   4    5.75    1.26
  -2  -4  -4    4.69    1.83
   2  -4   4    2.12    1.62
   3  -4   4   10.33    2.47
  -3  -4  -4   13.55    3.01
   3  -5  -4    7.26    2.18
  -3  -5   4   10.41    2.99
  -2  -5   4   16.43    2.88
   2  -5  -4   15.95    2.28
  -2  -5   4   15.52    2.80
   2   5  -4   14.80    1.46
  -1  -5   4    8.92    2.01
   1  -5  -4   15.33    2.01
   1  -5  -4    8.89    1.84
   0  -5   4    9.65    1.59
   0  -5   4   10.50    1.79
   0  -5  -4   16.37    2.05
   0  -5  -4    9.93    2.15
   0  -5  -4   13.47    1.45
   1  -5   4   58.22    3.15
   1  -5   4   48.50    3.52
   1  -5   4   54.22    3.19
  -1  -5  -4   51.67    3.55
  -1  -5  -4   49.79    4.06
   2  -5   4    3.05    1.88
  -2  -5  -4    6.98    2.34
  -2  -5  -4    3.33    2.10
  -3  -5  -4   10.21    2.97
   3  -5   4    3.78    2.20
   2  -6  -4    1.97    1.74
  -2  -6   4    8.04    2.73
  -1  -6   4   18.20    2.96
   0  -6   4    1.86    1.30
   0  -6  -4    7.06    2.65
   0  -6   4    7.05    2.20
   0  -6   4    4.18    1.81
   1  -6   4   10.21    2.20
  -1  -6  -4   13.24    3.06
  -1  -6  -4   12.63    2.55
   2  -6   4    4.78    2.09
  -2  -6  -4    2.27    2.22
  -1  -7   4    9.73    2.78
  -1  -7  -4   10.20    2.41
   4   0  -5   -0.64    1.43
   4   0  -5    0.76    1.44
   3   0  -5    1.33    1.22
   3   0  -5    0.11    0.89
   2   0  -5   -0.59    0.51
   2   0  -5    0.09    0.75
  -1   0   5   -0.31    0.42
   1   0  -5   -0.01    0.36
   0   0  -5    0.10    0.31
   0   0   5   -0.01    0.26
   0   0  -5    0.16    0.26
   0   0   5   -0.07    0.29
   1   0   5    0.68    0.57
  -1   0  -5    0.42    0.46
   1   0   5    0.15    0.52
   2   0   5   -0.12    0.83
  -2   0  -5    0.44    0.68
  -3   0  -5    1.24    1.08
   3   0   5   -0.31    1.33
   4   0   5   -0.05    1.51
  -4  -1   5    8.29    2.65
   4  -1  -5   10.62    1.93
   4  -1  -5    9.10    2.15
   4   1  -5   12.41    1.90
   3  -1  -5    7.74    1.58
   3  -1  -5    6.63    1.33
   3   1  -5    7.14    1.26
   2  -1  -5    1.38    0.82
   2  -1  -5    1.13    0.67
   2   1  -5   -0.08    0.62
   1  -1  -5    1.44    0.49
   1  -1  -5    1.72    0.61
   1   1  -5    1.30    0.39
   0  -1  -5  146.29    3.10
   0  -1  -5  144.39    3.33
   0  -1   5  143.28    3.24
   0  -1   5  143.53    3.14
   0   1  -5  144.13    3.13
   0   1  -5  148.42    3.37
   0   1   5  137.50    3.37
   0   1   5  152.06    3.20
   1  -1   5   32.36    1.04
  -1  -1  -5   31.79    1.58
   1  -1   5   34.05    1.58
  -1   1  -5   31.50    0.96
   1   1   5   31.51    1.21
   2  -1   5   -0.03    0.91
  -2  -1  -5   -1.33    0.77
   2   1   5    0.91    0.62
   2   1   5    0.22    0.76
  -3  -1  -5    2.58    1.50
   3  -1   5    1.47    1.44
   3   1   5    1.51    1.20
   3   1   5    2.62    1.13
   4  -1   5    1.77    1.89
   4   1   5    2.90    1.59
  -4  -2   5    3.02    1.98
   4  -2  -5   -0.15    1.51
   4   2  -5   -0.23    1.30
   3  -2  -5   13.67    1.74
   3  -2  -5   15.25    2.27
   3   2  -5   18.58    1.77
   2  -2  -5   19.53    1.81
  -2  -2   5   16.41    1.14
   2  -2  -5   15.37    1.34
   2   2  -5   17.86    1.24
   1  -2  -5   21.90    1.37
  -1  -2   5   21.75    1.31
   1  -2  -5   24.17    1.55
  -1   2   5   25.62    1.34
   0  -2  -5    9.30    1.01
   0  -2   5    9.76    0.88
   0   2   5    8.04    0.88
  -1  -2  -5   11.06    1.45
   1  -2   5   11.98    0.88
   1  -2   5   10.51    1.27
  -2  -2  -5   27.13    2.19
   2  -2   5   23.82    2.13
   2   2   5   25.86    1.33
   2   2   5   25.29    1.37
   3  -2   5    3.25    1.56
  -3  -2  -5    5.99    1.66
   3   2   5   -0.57    0.94
   3   2   5    0.84    1.07
   4  -2   5    6.27    2.21
  -4  -2  -5    8.87    2.50
  -4  -3   5   15.92    3.05
   4  -3  -5   16.63    2.73
   4   3  -5   12.14    2.06
  -3  -3   5   25.51    3.24
   3  -3  -5   27.61    2.68
   3   3  -5   28.59    2.21
  -2  -3   5    0.77    0.91
   2  -3  -5    0.49    1.00
   2   3  -5   -0.26    0.65
  -2   3   5    0.49    0.93
   1  -3  -5    0.87    0.87
   1  -3  -5    4.16    0.98
  -1  -3   5    0.97    0.80
  -1   3   5    0.09    0.84
   0  -3   5   18.16    1.46
   0  -3  -5   27.19    1.65
   1  -3   5    6.19    1.22
   1  -3   5    5.70    0.98
  -1  -3  -5    7.87    1.41
   2  -3   5   23.60    2.39
  -2  -3  -5   34.74    2.74
   2   3   5   21.92    1.32
  -3  -3  -5   12.48    2.42
   3  -3   5    8.83    2.22
   4  -3   5   -1.35    1.64
  -4  -3  -5    2.05    2.29
   3  -4  -5   13.58    2.37
  -3  -4   5   10.00    2.68
   3   4  -5   11.45    1.60
   2  -4  -5   25.50    2.38
   2   4  -5   22.41    1.68
   1  -4  -5    7.01    1.28
   1  -4  -5    8.44    1.10
  -1  -4   5    7.32    1.45
   1  -4  -5    8.06    1.36
   0  -4  -5    2.33    1.01
   0  -4   5    2.28    1.13
   0  -4  -5    1.99    1.07
  -1  -4  -5  108.46    4.31
   1  -4   5  112.87    4.02
   1  -4   5  103.12    3.62
  -2  -4  -5   19.05    2.60
   2  -4   5    4.59    1.81
  -3  -4  -5    6.35    2.41
   3  -4   5    0.50    1.65
   3  -5  -5    3.79    1.95
  -3  -5   5    8.65    2.85
  -2  -5   5   36.01    3.64
   2  -5  -5   32.69    2.86
   2   5  -5   33.68    2.13
  -1  -5   5   77.78    4.22
   1  -5  -5   73.95    3.73
   1  -5  -5   72.56    3.06
   1  -5  -5   78.34    3.47
   0  -5  -5   23.88    2.25
   0  -5  -5   31.92    2.72
   0  -5   5   26.02    2.10
   0  -5   5   30.90    2.57
   1  -5   5    6.18    1.71
  -1  -5  -5   17.39    2.54
   1  -5   5    6.31    1.50
   1  -5   5    9.10    2.03
  -1  -5  -5   10.54    1.95
   2  -5   5   10.05    2.33
  -2  -5  -5   14.14    2.65
  -2  -5  -5   13.32    2.49
  -3  -5  -5   22.29    3.54
   3  -5   5   20.86    3.44
  -2  -6   5    4.36    2.41
   2  -6  -5    2.79    1.99
  -1  -6   5    4.98    2.09
  -1  -6   5    3.46    2.62
   0  -6   5   88.11    3.99
   0  -6  -5   77.82    4.08
   0  -6  -5   93.69    5.37
   0  -6   5   93.53    4.72
   0  -6   5   88.65    5.26
  -1  -6  -5   13.64    2.53
   1  -6   5   13.86    2.52
  -1  -6  -5   21.09    3.67
  -2  -6  -5    7.78    2.63
   2  -6   5    4.24    2.31
  -1  -7   5   13.65    3.02
  -1  -7  -5   29.79    3.58
   4   0  -6   22.02    2.80
   4   0  -6   19.76    2.50
   3   0  -6   60.64    3.01
   3   0  -6   57.35    2.77
   2   0  -6   18.30    1.51
   2   0  -6   18.70    1.26
   1   0  -6  303.42    6.11
   0   0   6  106.57    2.27
   0   0  -6  107.99    2.41
   0   0  -6  107.60    2.26
   0   0   6  108.10    2.41
   1   0   6   71.90    2.20
  -1   0  -6   79.49    2.10
   2   0   6    0.86    0.95
  -2   0  -6   -0.12    0.69
  -3   0  -6  139.66    4.30
   3   0   6  142.96    4.99
   4   0   6   32.47    2.99
  -4  -1   6   14.64    3.20
   4  -1  -6   18.25    2.39
   4  -1  -6   16.22    2.71
   4   1  -6   17.62    2.32
   3  -1  -6   53.60    2.68
   3  -1  -6   51.04    3.02
   3   1  -6   51.51    2.64
   2  -1  -6    0.75    0.82
   2  -1  -6   -0.51    0.54
   2   1  -6    0.16    0.57
   1  -1  -6   25.70    0.91
   1  -1  -6   24.38    1.33
   1  -1  -6   26.19    1.12
   1   1  -6   26.10    1.01
  -1   1   6   25.95    0.88
   0  -1   6  295.18    5.87
   0  -1   6  284.43    5.69
   0  -1  -6  287.17    5.93
   0   1  -6  285.95    5.91
   0   1   6  280.28    6.19
   0   1   6  296.65    5.76
   1  -1   6   80.48    2.55
   1  -1   6   76.39    1.95
  -1  -1  -6   80.95    2.57
  -1   1  -6   80.42    1.88
  -2  -1  -6   42.67    2.19
   2  -1   6   43.44    2.43
   2   1   6   44.15    1.69
   2   1   6   42.75    1.99
  -3  -1  -6   23.05    2.50
   3  -1   6   13.72    2.18
   3   1   6   15.49    1.88
   3   1   6   15.74    1.55
   4  -1   6   32.08    3.30
   4   1   6   30.70    2.72
  -4  -2   6    0.89    1.78
   4  -2  -6    1.82    1.68
   4   2  -6    0.84    1.31
   3  -2  -6   21.44    2.31
   3  -2  -6   30.80    2.40
   3   2  -6   25.59    2.15
  -2  -2   6   14.06    1.16
   2  -2  -6   14.71    1.61
   2  -2  -6   15.23    1.36
   2   2  -6   15.69    1.23
  -1  -2   6   98.44    2.63
   1  -2  -6  101.06    2.62
   1  -2  -6   99.48    3.06
  -1   2   6   96.98    2.50
  -1   2   6   99.70    2.70
   0  -2  -6   31.54    1.53
   0  -2   6   33.15    1.39
   0   2   6   33.42    1.48
   1  -2   6   -0.37    0.87
   1  -2   6    0.41    0.36
  -1  -2  -6    1.95    0.92
   1  -2   6    0.39    0.63
   2  -2   6    7.57    1.56
  -2  -2  -6    9.10    1.57
   2   2   6    7.24    0.84
   2   2   6    9.78    1.01
   3  -2   6   54.32    3.53
  -3  -2  -6   53.83    3.26
   3   2   6   50.44    2.48
   3   2   6   49.83    2.47
   4  -2   6    3.40    2.03
  -4  -2  -6    9.11    2.57
  -4  -3   6   76.07    5.07
   4  -3  -6   63.51    4.39
   4   3  -6   66.30    4.02
   3  -3  -6    6.53    1.85
   3   3  -6   10.37    1.53
  -2  -3   6    0.33    1.13
   2  -3  -6    3.20    1.21
   2   3  -6   -0.32    0.66
  -2   3   6    0.86    1.05
   1  -3  -6   60.93    2.32
  -1  -3   6   57.98    2.22
   1  -3  -6   59.17    2.41
  -1   3   6   59.19    2.29
   0  -3  -6   92.60    3.08
   0  -3   6   99.74    2.86
   0   3   6  102.03    2.97
   1  -3   6   15.45    1.22
  -1  -3  -6   14.58    1.80
   1  -3   6   15.13    1.71
  -2  -3  -6   77.45    3.73
   2  -3   6   74.20    3.70
  -3  -3  -6   26.74    2.99
   3  -3   6   22.89    2.91
   4  -3   6    0.84    1.81
  -4  -3  -6    4.95    2.38
   3  -4  -6   39.93    3.31
  -3  -4   6   43.97    4.15
   3   4  -6   39.22    2.76
  -3   4   6   41.11    3.48
  -2  -4   6   35.23    2.45
   2  -4  -6   35.29    2.81
   2   4  -6   38.06    1.97
  -2   4   6   32.58    2.83
   1  -4  -6    7.35    1.53
   1  -4  -6    9.30    1.36
   1  -4  -6   13.16    1.30
  -1  -4   6    9.25    1.66
  -1   4   6    7.13    1.45
   0  -4  -6   11.53    1.07
   0  -4  -6   14.47    1.60
   0  -4   6    6.02    1.29
  -1  -4  -6    9.38    1.71
   1  -4   6    1.26    1.06
   1  -4   6    1.10    1.13
   2  -4   6   81.94    4.25
  -2  -4  -6   76.14    4.41
   3  -4   6   11.42    2.49
  -3  -4  -6   13.64    2.53
  -3  -5   6    4.72    2.57
   3  -5  -6    5.27    2.03
   2  -5  -6   15.31    2.16
   2   5  -6    9.33    1.30
   1  -5  -6   28.11    2.21
   1  -5  -6   25.51    2.00
  -1  -5   6   35.30    3.41
   1  -5  -6   31.90    3.10
   0  -5  -6    6.61    1.91
   0  -5   6    4.86    1.34
   0  -5   6    3.64    1.60
   0  -5  -6    6.94    1.60
  -1  -5  -6   35.59    2.95
  -1  -5  -6   41.14    3.44
   1  -5   6   31.86    2.75
   1  -5   6   34.67    3.10
   2  -5   6    0.32    1.66
  -2  -5  -6    5.02    2.25
   3  -5   6    1.21    2.07
  -3  -5  -6    4.58    2.28
  -2  -6   6    7.36    2.70
   2  -6  -6    3.73    1.83
   2  -6  -6    7.86    2.37
  -1  -6   6    7.26    2.32
   0  -6   6    4.61    1.63
   0  -6   6    7.09    1.94
   0  -6  -6    7.91    1.87
  -1  -6  -6    9.16    2.99
   1  -6   6    4.07    1.87
   1  -6   6    4.47    2.13
  -1  -6  -6    7.06    2.06
  -2  -6  -6    2.76    2.19
  -2  -6  -6    2.63    2.26
   2  -6   6    2.36    2.12
   1  -7  -6   -1.09    2.41
  -1  -7   6    5.07    2.22
   4   0  -7    1.24    1.44
   3   0  -7   -0.22    1.14
   3   0  -7    1.71    1.01
   2   0  -7   -0.29    0.57
   2   0  -7    0.32    0.75
   1   0  -7   -0.14    0.35
   1   0  -7    0.61    0.54
   0   0   7    0.25    0.53
   0   0   7    1.40    0.58
   0   0  -7    0.59    0.47
   0   0  -7    0.94    0.55
   1   0   7    0.02    0.54
  -1   0  -7   -0.64    0.45
   2   0   7    0.15    0.89
  -2   0  -7    0.63    0.70
   3   0   7    0.88    1.36
  -3   0  -7    2.79    1.11
   4   0   7    1.76    1.64
   4  -1  -7    0.06    1.43
   4  -1  -7    1.79    1.47
   4   1  -7    1.91    1.48
   3  -1  -7    3.94    1.41
   3  -1  -7    3.10    1.12
   3   1  -7    4.49    1.17
   2  -1  -7    6.69    1.14
   2  -1  -7    6.85    0.98
   2   1  -7    5.86    0.87
   1  -1  -7    4.21    0.60
   1  -1  -7    3.87    0.72
   1  -1  -7    5.34    0.54
   1   1  -7    4.45    0.52
  -1   1   7    4.63    0.53
  -1   1   7    4.41    0.56
   0  -1  -7    1.22    0.60
   0  -1   7    0.41    0.58
   0   1   7    0.91    0.60
   0   1  -7    1.31    0.59
   1  -1   7    6.87    1.00
  -1  -1  -7    6.78    0.97
   1   1   7    7.06    0.74
  -1   1  -7    6.68    0.64
   2  -1   7   64.13    2.95
  -2  -1  -7   58.71    2.67
   2   1   7   64.72    2.45
  -2   1  -7   63.74    1.79
   3  -1   7    0.40    1.41
  -3  -1  -7    2.81    1.44
   3   1   7    2.00    1.26
   4  -1   7    1.10    1.80
   4   1   7    0.16    1.38
   4  -2  -7   19.04    2.49
   4  -2  -7   19.19    2.71
  -4  -2   7   21.72    3.09
   4   2  -7   17.10    2.20
   3  -2  -7    6.90    1.71
   3  -2  -7    3.76    1.26
   3   2  -7    6.44    1.28
  -2  -2   7   69.61    2.17
   2  -2  -7   68.88    2.53
   2  -2  -7   72.01    2.97
   2   2  -7   70.60    2.32
   1  -2  -7   12.87    1.04
   1  -2  -7   10.92    1.20
  -1  -2   7   13.98    1.06
   1  -2  -7   11.58    0.80
  -1   2   7   13.63    1.10
   0  -2   7   37.13    1.50
   0  -2  -7   38.55    1.70
   0   2   7   38.22    1.58
   1  -2   7   76.77    2.85
  -1  -2  -7   74.69    2.79
   1  -2   7   74.91    2.09
  -1   2  -7   73.18    2.10
   2  -2   7    6.01    1.41
   2   2   7    6.38    0.88
   2   2   7    5.76    0.78
   3  -2   7   41.21    3.24
  -3  -2  -7   46.15    3.20
   3   2   7   38.32    2.38
   3   2   7   39.58    2.29
  -4  -2  -7   22.42    3.19
   4  -2   7   22.41    3.31
   4  -3  -7    6.63    2.20
  -4  -3   7    9.02    2.49
   4   3  -7   18.69    2.42
   3  -3  -7    4.21    1.72
   3   3  -7    3.25    1.24
   2  -3  -7   44.92    2.68
   2   3  -7   48.16    2.06
  -2   3   7   49.95    2.37
   1  -3  -7  105.16    3.34
   1  -3  -7  102.97    3.18
   1  -3  -7  103.37    2.72
  -1  -3   7  102.30    3.07
  -1   3   7  101.52    3.22
   0  -3   7   27.94    1.69
   0  -3  -7   34.75    1.84
   0   3   7   28.15    1.71
   1  -3   7    3.14    0.88
   1  -3   7    3.84    1.22
  -1  -3  -7    3.98    1.08
  -2  -3  -7   51.02    3.12
   2  -3   7   57.02    3.29
   3  -3   7    5.72    2.13
  -3  -3  -7   14.77    2.52
   4  -3   7    2.26    2.14
  -4  -3  -7    2.46    2.22
   3  -4  -7   38.18    3.28
   3   4  -7   36.54    2.77
  -3   4   7   39.92    3.45
   2  -4  -7    6.17    1.58
  -2  -4   7    4.05    1.36
  -2   4   7    2.58    1.57
   2   4  -7    5.16    1.08
   1  -4  -7   28.07    1.89
  -1  -4   7   26.11    2.04
   1  -4  -7   28.42    2.34
   1  -4  -7   24.99    1.59
  -1   4   7   22.75    2.07
   0  -4   7   41.07    2.34
   0  -4  -7   41.18    2.33
   1  -4   7   60.47    3.17
  -1  -4  -7   61.92    3.19
   1  -4   7   59.07    2.82
  -2  -4  -7   25.93    3.05
   2  -4   7   21.06    2.76
  -3  -4  -7    1.44    1.96
   3  -4   7    0.53    1.80
  -3  -5   7    3.89    2.46
   3  -5  -7    1.92    1.70
   3   5  -7    5.02    1.40
   2  -5  -7   37.26    3.03
  -2  -5   7   45.72    3.43
   2   5  -7   37.38    2.32
   1  -5  -7    7.81    1.35
   1  -5  -7    3.22    1.70
   1  -5  -7    5.92    1.52
  -1  -5   7    4.76    1.66
   0  -5  -7   15.82    2.34
   0  -5   7    9.23    1.54
   0  -5   7    9.53    2.01
   1  -5   7   33.24    2.96
   1  -5   7   31.62    2.73
  -1  -5  -7   26.50    2.66
   2  -5   7   22.92    3.01
  -2  -5  -7   28.71    3.44
   3  -5   7    2.03    2.15
  -3  -5  -7    3.70    2.41
   2  -6  -7   -1.06    1.44
  -2  -6   7    2.00    2.24
   2  -6  -7    2.55    2.12
   1  -6  -7   59.49    5.04
   0  -6  -7   11.81    2.57
   0  -6  -7   11.69    2.29
   0  -6   7    8.36    1.93
   0  -6   7    6.61    2.86
  -1  -6  -7   14.07    3.15
  -1  -6  -7   13.31    2.63
   1  -6   7    5.97    2.08
  -2  -6  -7    3.39    2.26
   2  -6   7    2.34    2.11
  -2  -6  -7    2.48    2.69
   4   0  -8    3.77    1.66
   3   0  -8   42.69    2.73
   3   0  -8   42.12    2.38
   2   0  -8  158.28    4.03
   1   0  -8   67.83    1.84
   1   0  -8   68.00    2.00
   0   0   8   41.88    1.34
   0   0  -8   44.54    1.43
   1   0   8   13.16    1.12
  -1   0  -8   13.94    1.00
  -2   0  -8   64.78    2.28
   2   0   8   61.35    2.70
   3   0   8   66.72    3.46
  -3   0  -8   68.29    2.89
   4   0   8    2.13    1.71
   4  -1  -8   23.32    2.64
   4  -1  -8   21.35    2.97
   4   1  -8   18.63    2.43
   3  -1  -8   31.55    2.42
   3  -1  -8   32.52    2.29
   3   1  -8   28.33    2.32
   2  -1  -8   20.85    1.39
   2  -1  -8   20.86    1.69
   2   1  -8   22.40    1.36
   1  -1  -8  190.91    4.54
   1  -1  -8  198.19    4.09
   1  -1  -8  189.95    4.24
  -1   1   8  199.95    4.04
   1   1  -8  188.03    4.09
   0  -1  -8  215.95    4.69
   0  -1   8  217.31    4.44
   0   1  -8  218.48    4.73
   0   1   8  219.35    4.51
  -1  -1  -8  100.33    2.99
   1  -1   8  103.35    3.04
  -1   1  -8  103.51    2.43
  -2  -1  -8   10.93    1.40
   2  -1   8    8.56    1.52
   2   1   8   11.92    1.33
  -2   1  -8   10.85    0.88
   3  -1   8    2.67    1.62
  -3  -1  -8    4.04    1.55
   3   1   8    3.64    1.41
  -3   1  -8    3.05    0.89
   4  -1   8   42.47    3.84
   4   1   8   45.11    3.18
   4  -2  -8   19.77    2.86
   4  -2  -8   21.46    2.69
  -4  -2   8   20.55    3.06
   4   2  -8   21.57    2.32
   3  -2  -8   33.51    2.77
   3  -2  -8   34.92    2.49
   3   2  -8   35.48    2.30
  -2  -2   8   98.70    2.73
   2  -2  -8  103.90    3.26
   2  -2  -8  105.52    3.68
   2   2  -8  101.75    2.95
   1  -2  -8   13.66    1.09
   1  -2  -8   11.33    1.22
   1  -2  -8   13.07    0.85
  -1  -2   8   13.77    1.11
  -1   2   8   13.48    1.12
   0  -2  -8    7.38    0.97
   0  -2   8    6.87    0.86
   0   2   8    6.16    0.86
   1  -2   8   75.79    2.08
   1  -2   8   73.42    2.78
  -1  -2  -8   73.38    2.83
  -1   2  -8   73.16    2.13
  -2  -2  -8   67.59    3.15
   2  -2   8   69.34    3.29
  -3  -2  -8   51.70    3.50
   3  -2   8   45.65    3.53
   3   2   8   52.47    2.52
   3   2   8   45.79    2.42
  -4  -2  -8    3.24    1.98
   4  -2   8   -0.39    1.67
   4  -3  -8    4.38    1.85
  -4  -3   8    2.80    2.12
   4   3  -8    1.77    1.58
   3  -3  -8   10.59    1.90
   3   3  -8    5.94    1.34
  -2  -3   8    3.55    1.07
   2  -3  -8    4.49    1.29
   2   3  -8    4.17    0.91
  -2   3   8    4.79    1.13
   1  -3  -8   10.12    1.27
   1  -3  -8   10.17    0.99
  -1  -3   8    9.95    1.14
  -1   3   8    9.25    1.23
   0  -3   8   36.47    1.83
   0  -3  -8   45.35    2.07
   0   3   8   37.66    1.99
   1  -3   8   32.94    1.65
  -1  -3  -8   41.63    2.34
   1  -3   8   34.66    2.27
   2  -3   8    4.00    1.68
  -2  -3  -8    3.03    1.52
  -3  -3  -8   30.24    3.15
   3  -3   8   24.23    3.18
   4  -3   8   -0.23    1.91
  -4  -3  -8    2.49    2.47
   3  -4  -8    8.29    2.05
   3   4  -8    8.28    1.54
  -3   4   8    7.55    1.91
   2  -4  -8   16.05    2.21
  -2   4   8   15.02    2.10
   2   4  -8   15.35    1.46
   1  -4  -8    4.04    0.89
  -1  -4   8    3.04    1.18
   1  -4  -8    3.23    1.04
   1  -4  -8    1.30    1.24
  -1   4   8    1.84    1.22
   0  -4   8   10.65    1.43
   0  -4  -8   15.12    1.68
   1  -4   8   27.50    2.07
  -1  -4  -8   29.71    2.44
   1  -4   8   28.15    2.45
  -2  -4  -8    6.78    1.95
   2  -4   8    6.25    2.03
   3  -4   8    1.92    1.97
  -3  -4  -8    2.91    2.25
   3  -5  -8    3.82    1.78
  -3  -5   8    4.14    2.74
   3   5  -8    0.62    1.55
   2  -5  -8   11.64    2.11
   2   5  -8   11.42    1.46
   1  -5  -8   20.48    2.42
   1  -5  -8   17.37    1.73
   1  -5  -8   19.16    2.16
  -1  -5   8   18.88    2.36
   0  -5   8   40.29    2.51
   0  -5  -8   41.76    2.72
   0  -5   8   47.25    3.23
   0  -5  -8   40.53    3.20
  -1  -5  -8    4.06    1.66
   1  -5   8    1.99    1.84
   1  -5   8    4.81    1.67
  -2  -5  -8    4.50    1.98
   2  -5   8    0.24    1.83
   3  -5   8    0.64    2.12
  -3  -5  -8    4.78    2.97
   2  -6  -8    1.60    2.19
  -2  -6   8    2.02    2.46
   2   6  -8   -1.85    0.96
   1  -6  -8   22.18    3.37
   0  -6  -8    1.46    2.24
   0  -6   8    0.73    1.43
   0  -6  -8    2.07    1.58
   1  -6   8    0.58    1.67
  -1  -6  -8    1.35    1.91
  -2  -6  -8    6.90    2.51
   2  -6   8    0.86    2.09
   4   0  -9    3.01    1.45
   3   0  -9    0.11    0.87
   2   0  -9   -0.28    0.54
  -1   0   9    0.52    0.45
   1   0  -9   -0.15    0.35
   1   0  -9   -0.49    0.46
   0   0  -9    0.33    0.43
   0   0   9    0.21    0.44
  -1   0  -9    0.14    0.53
   1   0   9    0.35    0.60
   2   0   9    0.14    0.92
  -2   0  -9   -0.09    0.69
  -3   0  -9    1.17    1.12
   3   0   9    1.95    1.48
   4   0   9   -0.13    1.64
   4  -1  -9   -0.15    1.46
   4  -1  -9    1.15    1.44
   4   1  -9    0.92    1.38
   3  -1  -9   15.26    2.11
   3  -1  -9   17.28    1.85
   3   1  -9   16.98    1.79
   2  -1  -9    7.43    0.93
   2  -1  -9   10.26    1.39
   2   1  -9    7.82    0.93
   1  -1  -9    6.87    0.68
   1  -1  -9    5.92    0.72
  -1  -1   9    5.55    0.70
   1   1  -9    4.88    0.59
  -1   1   9    6.10    0.68
   0  -1   9   70.95    1.84
   0  -1  -9   72.27    2.04
   0   1  -9   70.76    2.07
   0   1   9   71.29    1.92
   1  -1   9   70.54    2.46
  -1  -1  -9   66.15    2.36
   1   1   9   64.68    1.91
  -1   1  -9   68.80    1.87
   2  -1   9   18.52    1.91
  -2  -1  -9   18.99    1.74
  -2   1  -9   16.94    1.04
   2   1   9   19.50    1.56
   3  -1   9   -0.47    1.44
  -3  -1  -9    2.77    1.55
  -3   1  -9   -0.25    0.80
   3   1   9    0.35    1.24
   4  -1   9    0.83    1.82
   4   1   9    1.60    1.48
   4  -2  -9   11.50    2.38
   4  -2  -9   16.66    2.32
  -4  -2   9    8.56    2.37
   4   2  -9    8.91    1.89
   3  -2  -9    0.91    1.21
   3  -2  -9    0.72    1.14
   3   2  -9    2.88    1.16
   2  -2  -9   15.60    1.66
   2  -2  -9   16.31    1.47
  -2  -2   9   17.04    1.30
   2   2  -9   20.15    1.33
   1  -2  -9   37.54    1.54
   1  -2  -9   37.34    1.77
  -1  -2   9   36.61    1.68
   1  -2  -9   38.45    1.34
  -1   2   9   36.75    1.68
   0  -2  -9  149.81    3.78
   0  -2   9  140.02    3.40
   0   2   9  146.08    3.58
  -1  -2  -9    1.37    0.88
   1  -2   9    0.01    0.93
  -1   2  -9   -0.15    0.57
   2  -2   9    5.60    1.43
  -2  -2  -9    5.10    1.36
  -3  -2  -9    1.40    1.60
   3  -2   9    1.74    1.62
   3   2   9    1.12    1.07
  -4  -2  -9    2.53    2.13
   4  -2   9    2.16    1.92
   4  -3  -9   17.33    3.02
  -4  -3   9   11.74    2.99
   4   3  -9   16.90    2.39
   3  -3  -9   39.52    3.15
   3   3  -9   42.89    2.63
   2  -3  -9    0.77    1.04
  -2  -3   9    1.40    0.96
   2   3  -9    1.61    0.84
  -2   3   9    2.92    1.14
   1  -3  -9   14.71    1.35
   1  -3  -9   14.68    1.10
  -1  -3   9   12.19    1.32
  -1   3   9   11.72    1.33
   0  -3  -9   72.44    2.64
   0  -3   9   71.08    2.44
   0   3   9   66.21    2.58
   1  -3   9   72.34    2.45
   1  -3   9   80.65    3.18
  -1  -3  -9   73.23    3.17
   2  -3   9    2.04    1.40
   3  -3   9   17.41    2.64
  -3  -3  -9   16.28    2.70
   3  -4  -9    3.49    1.61
   3   4  -9    0.91    1.17
  -3   4   9    0.86    1.59
   2  -4  -9    9.73    1.65
  -2  -4   9    7.44    1.46
   2   4  -9    5.40    1.15
  -2   4   9    5.52    1.70
   1  -4  -9   18.55    2.05
   1  -4  -9   17.15    1.81
  -1  -4   9   17.49    1.78
   1  -4  -9   19.73    1.49
  -1   4   9   13.99    1.88
   0  -4  -9   47.56    2.51
   0  -4   9   56.03    2.53
   0   4   9   50.34    2.72
  -1  -4  -9   26.09    2.42
   1  -4   9   19.96    1.88
   1  -4   9   21.98    2.39
  -2  -4  -9    5.27    1.83
   2  -4   9    3.26    1.82
   3  -4   9    2.71    2.02
  -3  -4  -9    0.68    2.04
  -3  -5   9   12.82    3.26
   3  -5  -9    8.40    2.27
   3   5  -9    7.57    1.70
   2  -5  -9    9.80    1.97
   2  -5  -9    9.96    2.47
   2   5  -9    7.67    1.38
   1  -5  -9   13.71    1.80
  -1  -5   9   14.49    2.31
   1  -5  -9   13.55    1.61
   1  -5  -9   14.85    2.60
   0  -5   9   29.80    2.27
   0  -5  -9   34.23    2.48
   0  -5  -9   31.72    2.77
   0  -5   9   37.20    3.03
   1  -5   9    4.60    1.67
  -1  -5  -9    7.38    2.01
   1  -5   9    5.70    1.78
  -2  -5  -9   10.70    2.54
   2  -5   9    4.17    2.08
   3  -5   9    1.88    2.16
   2   6  -9   -0.12    1.16
   1  -6  -9   44.92    3.86
   0  -6  -9    7.77    1.80
   0  -6   9    0.39    1.38
   0  -6   9    3.64    2.19
   1  -6   9    2.71    1.98
  -1  -6  -9    3.71    2.10
   1  -6   9    7.12    2.29
  -1  -6  -9    5.91    2.59
  -2  -6  -9    4.61    2.31
   2  -6   9    1.27    2.05
  -2  -6  -9    3.66    2.35
   0  -7  -9    3.75    2.73
   4   0 -10   62.87    3.72
   3   0 -10   62.65    2.82
   2   0 -10   62.46    2.22
  -1   0  10   -0.14    0.49
   1   0 -10    0.05    0.41
   1   0 -10   -0.45    0.49
   0   0  10   27.10    1.07
   0   0 -10   29.65    1.16
   1   0  10   11.63    1.14
  -1   0 -10   11.40    1.06
  -2   0 -10  349.24    7.62
   2   0  10  355.32    8.34
   3   0  10    1.62    1.50
  -3   0 -10    2.90    1.17
   4   0  10    7.08    2.20
   4  -1 -10    3.26    1.68
   4  -1 -10    1.18    1.60
   4   1 -10    3.10    1.54
   3  -1 -10    3.54    1.19
   3  -1 -10    6.35    1.50
   3   1 -10    5.86    1.30
   2  -1 -10   95.88    3.35
   2  -1 -10   88.66    2.81
   2   1 -10   89.11    2.74
  -1  -1  10   78.75    2.11
   1  -1 -10   78.43    2.13
   1  -1 -10   77.76    2.20
  -1   1  10   80.62    2.09
   1   1 -10   77.76    2.08
   0  -1  10   72.60    1.90
   0  -1 -10   72.86    2.11
   0   1 -10   74.29    2.17
   0   1  10   72.17    1.98
  -1  -1 -10   97.40    2.99
   1  -1  10  103.53    3.07
   1   1  10   99.60    2.59
  -1   1 -10  100.13    2.54
  -2  -1 -10   11.00    1.47
   2  -1  10    7.96    1.47
   2   1  10    8.91    1.29
  -2   1 -10    8.29    0.84
   3  -1  10   35.96    3.09
  -3  -1 -10   38.70    2.80
  -3   1 -10   43.88    2.24
   3   1  10   40.07    2.65
   4  -1  10   10.63    2.36
   4  -2 -10    2.02    1.65
   4  -2 -10    4.29    1.82
   4   2 -10    3.25    1.61
   3  -2 -10   23.87    2.30
   3  -2 -10   20.01    2.54
   3   2 -10   23.00    2.08
   2  -2 -10    4.92    1.19
   2  -2 -10    5.99    1.03
  -2  -2  10    5.82    0.91
   2   2 -10    4.33    0.83
  -1  -2  10   14.57    1.12
   1  -2 -10   15.15    0.93
   1  -2 -10   16.06    1.12
   1  -2 -10   14.48    1.22
  -1   2  10   13.67    1.17
   0  -2  10    5.73    0.81
   0  -2 -10    5.57    0.99
   0   2  10    5.81    0.93
   1  -2  10  180.17    3.97
  -1  -2 -10  172.67    4.82
   1  -2  10  187.18    4.92
  -1   2 -10  186.75    4.24
  -2  -2 -10   27.42    2.30
   2  -2  10   28.08    2.38
   3  -2  10    2.68    1.73
  -3  -2 -10    1.76    1.71
   4  -2  10    2.25    1.87
  -4  -2 -10    3.25    2.29
   4  -3 -10    0.92    1.72
  -4  -3  10    0.73    2.29
   4   3 -10    4.34    1.76
   3  -3 -10    3.43    1.53
   3   3 -10    4.90    1.34
  -2  -3  10    2.07    1.27
   2  -3 -10    2.05    1.18
   2   3 -10    2.46    0.91
  -2   3  10    1.94    1.08
  -1  -3  10   21.19    1.64
   1  -3 -10   21.68    1.49
   1  -3 -10   21.46    1.25
  -1   3  10   19.92    1.62
   0  -3  10   46.71    1.93
   0  -3 -10   44.29    2.12
   0   3  10   44.71    2.09
   1  -3  10   41.92    2.47
  -1  -3 -10   41.00    2.43
   1  -3  10   41.71    1.88
  -2  -3 -10   43.21    3.04
   2  -3  10   37.97    2.97
   3  -3  10    1.07    1.72
  -3  -3 -10    2.01    1.96
   3  -4 -10   -1.03    1.36
  -3   4  10   -1.54    1.67
   3   4 -10    0.92    1.18
  -2  -4  10   36.83    2.58
   2  -4 -10   33.67    2.64
  -2   4  10   33.71    2.73
   2   4 -10   31.68    2.11
   1  -4 -10   21.18    1.61
   1  -4 -10   23.06    2.09
   1  -4 -10   20.66    1.68
  -1  -4  10   25.09    2.05
  -1   4  10   19.23    2.09
   0  -4  10    2.52    1.21
   0  -4 -10    2.62    1.14
   0   4  10    1.67    1.19
   1  -4  10   59.00    2.89
  -1  -4 -10   52.76    3.22
   1  -4  10   57.35    3.24
  -2  -4 -10    1.58    1.75
   2  -4  10   -0.77    1.57
   3  -4  10    4.27    2.16
  -3  -4 -10   13.64    2.77
   3  -5 -10    6.01    1.95
   3   5 -10    3.64    1.60
   2  -5 -10    3.00    1.42
  -2  -5  10    1.43    1.77
   2   5 -10    0.86    1.03
  -2   5  10    2.51    2.09
   1  -5 -10   15.09    1.70
   1  -5 -10   15.68    1.80
   1  -5 -10   15.98    2.68
  -1  -5  10   14.89    2.67
   0  -5 -10   34.15    2.66
   0  -5  10   33.06    2.94
   1  -5  10    1.03    1.58
  -1  -5 -10    2.27    1.79
  -2  -5 -10    8.10    2.32
   2  -5  10    1.14    1.95
   3  -5  10   -0.24    2.10
   2   6 -10    1.10    1.19
   1  -6 -10    7.07    2.61
   0  -6 -10   31.05    3.62
   0  -6 -10   26.30    2.91
   0  -6  10   19.90    2.34
  -1  -6 -10    1.41    1.72
   1  -6  10    2.10    1.74
   2  -6  10    5.03    2.55
  -2  -6 -10    5.88    2.56
   4   0 -11    1.98    1.46
   3   0 -11    0.50    0.97
   2   0 -11    0.27    0.58
  -1   0  11   -0.80    0.52
   1   0 -11    0.08    0.43
   1   0 -11   -0.21    0.57
   0   0 -11    0.44    0.46
   0   0  11    0.40    0.45
  -1   0 -11    0.52    0.63
   1   0  11   -0.38    0.70
  -2   0 -11    0.36    0.75
   2   0  11   -0.66    0.99
   3   0  11   -0.46    1.40
  -3   0 -11   -0.63    1.01
   4   0  11    0.47    1.62
   4  -1 -11    0.73    1.55
   4   1 -11    1.45    1.39
   3  -1 -11    5.65    1.31
   3  -1 -11    5.71    1.65
   3   1 -11    5.45    1.30
   2  -1 -11    1.53    0.69
   2   1 -11    1.05    0.61
  -1  -1  11    1.53    0.67
   1  -1 -11    1.62    0.57
   1  -1 -11    2.63    0.63
  -1   1  11    1.63    0.63
   0  -1 -11   29.47    1.36
   0  -1  11   28.94    1.22
   0   1  11   30.30    1.28
   0   1 -11   30.09    1.37
   1  -1  11   64.99    2.46
  -1  -1 -11   65.91    2.38
  -1   1 -11   64.47    1.97
   1   1  11   64.89    1.98
  -2  -1 -11    1.61    1.01
   2  -1  11    0.12    1.11
  -2   1 -11    0.68    0.60
   2   1  11    1.42    0.92
  -3  -1 -11   23.23    2.41
   3  -1  11   17.38    2.52
   3   1  11   19.59    2.13
  -3   1 -11   21.58    1.82
   4  -1  11    1.85    1.85
   4  -2 -11    4.53    1.89
   4  -2 -11    7.22    2.01
   4   2 -11    7.80    1.98
   3  -2 -11    3.84    1.43
   3  -2 -11    5.22    1.51
   3   2 -11    3.26    1.24
   2  -2 -11    0.43    0.74
   2  -2 -11    1.25    0.95
  -2  -2  11    0.98    0.73
   2   2 -11    0.84    0.73
  -1  -2  11   26.40    1.49
   1  -2 -11   27.73    1.24
   1  -2 -11   27.97    1.37
  -1   2  11   27.50    1.51
   0  -2  11    2.55    0.78
   0  -2 -11    4.04    0.93
   0   2  11    3.24    0.87
  -1  -2 -11    5.01    1.03
   1  -2  11    4.89    1.09
   1  -2  11    4.30    0.74
  -1   2 -11    4.57    0.81
  -2  -2 -11   12.99    1.87
   2  -2  11    9.25    1.76
  -2   2 -11    7.70    0.87
   3  -2  11    8.36    2.16
  -3  -2 -11    5.63    1.97
   4  -2  11   13.88    2.96
  -4  -2 -11   19.51    3.06
   4  -3 -11    6.00    2.07
   4   3 -11    6.81    1.92
   3  -3 -11    1.68    1.33
   3  -3 -11    1.40    1.39
   3   3 -11    1.34    1.17
   2  -3 -11    9.73    1.57
  -2  -3  11    9.46    1.63
   2  -3 -11    8.90    1.33
   2   3 -11    9.08    1.21
  -2   3  11    9.54    1.43
  -1  -3  11    5.72    1.10
  -1   3  11    5.88    1.10
   0  -3  11    3.78    0.98
   0  -3 -11    4.11    1.03
   0   3  11    2.97    1.02
  -1  -3 -11    0.76    1.00
   1  -3  11    1.29    1.12
   1  -3  11   -0.62    0.83
   1   3  11    0.63    0.98
  -2  -3 -11   19.29    2.31
   2  -3  11   14.51    2.25
   3  -3  11    1.70    1.87
  -3  -3 -11    6.25    2.14
   3  -4 -11   -1.67    1.27
   3   4 -11    1.47    1.27
  -3   4  11   -0.50    1.57
  -2  -4  11   22.41    2.11
   2  -4 -11   20.84    2.30
  -2   4  11   19.98    2.21
   2   4 -11   15.94    1.68
   1  -4 -11   17.34    1.56
   1  -4 -11   18.75    1.58
  -1   4  11   16.06    2.03
   0  -4  11    4.84    1.21
   0   4  11    6.78    1.45
   1  -4  11    2.69    1.53
  -1  -4 -11    1.45    1.35
   1  -4  11    2.72    1.17
  -2  -4 -11   16.39    2.56
   2  -4  11    9.24    2.10
   3  -4  11   42.55    4.16
  -3  -4 -11   47.86    4.17
   3  -5 -11   28.89    3.33
   3   5 -11   28.77    2.53
  -3   5  11   26.14    3.49
   2  -5 -11    8.83    1.83
  -2  -5  11    8.36    2.60
  -2   5  11    4.00    1.96
   2   5 -11    3.39    1.15
  -1  -5  11    2.84    2.05
   1  -5 -11    0.50    1.77
   1  -5 -11    3.61    1.14
  -1   5  11    4.32    1.88
   0  -5 -11    9.05    1.82
   0  -5  11    8.74    1.92
   1  -5  11    0.76    1.57
  -1  -5 -11    3.48    1.64
   1  -5  11    2.40    1.79
   2  -5  11   42.23    3.86
  -2  -5 -11   41.76    3.44
   2   6 -11   18.85    1.99
   0  -6 -11   22.56    3.64
   0  -6 -11   18.72    2.55
   0  -6  11   18.97    2.74
   1  -6  11   -0.73    1.61
  -1  -6 -11    0.22    1.70
   2  -6  11    2.86    2.33
  -2  -6 -11   12.55    2.91
   4   0 -12   17.36    2.36
   3   0 -12    0.94    1.01
   2   0 -12   12.70    1.19
   1   0 -12   87.20    2.61
   1   0 -12   84.83    2.29
  -1   0  12   90.04    2.22
   0   0  12  125.33    2.86
   0   0 -12  132.13    3.15
   1   0  12  283.14    6.18
  -1   0 -12  275.08    6.04
   2   0  12   49.83    2.55
  -2   0 -12   51.68    2.14
  -3   0 -12    3.26    1.19
   3   0  12    2.00    1.52
   4   0  12    4.23    2.11
   4  -1 -12    0.98    1.56
   4   1 -12    0.25    1.40
   3  -1 -12    8.11    1.48
   3   1 -12    6.98    1.34
   2  -1 -12   26.48    1.58
   2   1 -12   26.71    1.50
   1  -1 -12   83.44    2.38
  -1  -1  12   85.27    2.26
   1  -1 -12   85.79    2.36
  -1   1  12   86.35    2.27
   0  -1 -12  105.97    2.85
   0  -1  12  106.69    2.60
   0   1  12  109.56    2.68
   0   1 -12  105.11    2.88
  -1  -1 -12   16.50    1.43
   1  -1  12   18.23    1.52
  -1   1 -12   16.26    1.11
   1   1  12   15.95    1.09
   2  -1  12   37.06    2.44
  -2  -1 -12   35.67    2.14
   2   1  12   36.91    2.03
  -2   1 -12   35.98    1.53
   3  -1  12   39.51    3.17
  -3  -1 -12   37.99    2.80
   3   1  12   37.73    2.65
  -3   1 -12   46.06    2.43
   4  -1  12   14.09    2.75
   4  -2 -12   17.26    2.51
   4   2 -12   21.03    2.50
   3  -2 -12   23.04    2.45
   3  -2 -12   24.79    2.35
   3   2 -12   22.78    2.06
   2  -2 -12   15.62    1.16
   2  -2 -12   13.53    1.41
  -2  -2  12   15.36    1.25
   2  -2 -12   15.38    1.68
   2   2 -12   16.61    1.36
  -2   2  12   14.48    1.28
  -1  -2  12   49.48    1.87
   1  -2 -12   51.34    1.73
   1  -2 -12   50.07    1.79
  -1   2  12   50.18    1.99
   0  -2 -12  110.24    3.20
   0  -2  12  108.15    2.90
   0   2  12  106.99    3.02
   1  -2  12   53.39    2.48
  -1  -2 -12   51.65    2.43
   1  -2  12   52.60    1.76
  -1   2 -12   54.60    1.96
   2  -2  12    9.77    1.79
  -2  -2 -12   12.69    1.88
  -2   2 -12   11.53    1.11
  -3  -2 -12    6.63    2.00
   3  -2  12    7.32    2.19
  -4  -2 -12    0.66    2.12
   4  -2  12    4.49    2.23
   4  -3 -12    4.25    1.99
   4   3 -12    4.75    1.77
   3  -3 -12    5.39    1.75
   3  -3 -12    6.08    1.57
   3   3 -12    5.14    1.40
   2  -3 -12    1.39    0.99
   2  -3 -12    1.54    1.14
  -2  -3  12    2.67    1.12
  -2   3  12    0.71    1.17
   2   3 -12    2.73    0.95
   1  -3 -12  159.27    4.28
   1  -3 -12  161.04    3.99
  -1  -3  12  164.42    4.32
  -1   3  12  159.35    4.34
   0  -3  12   17.79    1.43
   0  -3 -12   15.51    1.55
   0   3  12   14.24    1.38
   1  -3  12    2.39    1.23
   1  -3  12    1.41    0.88
   1   3  12    1.79    1.03
  -2  -3 -12   12.43    2.12
   2  -3  12    5.60    1.74
  -3  -3 -12    2.13    1.99
   3  -3  12    1.80    1.86
   3  -4 -12    3.49    1.65
   3   4 -12    2.80    1.39
  -3   4  12    1.70    1.70
  -2  -4  12   20.21    2.68
   2  -4 -12   17.81    2.16
  -2   4  12   13.42    2.07
   2   4 -12   13.43    1.56
  -1  -4  12    5.09    1.53
   1  -4 -12    2.20    0.97
   1  -4 -12    4.69    1.03
  -1   4  12    4.13    1.35
   0  -4  12   46.15    2.64
   0  -4 -12   46.12    2.52
   0   4  12   49.45    2.73
   1  -4  12    9.85    1.54
   1  -4  12   11.74    1.99
  -1  -4 -12   12.63    1.89
   2  -4  12   15.00    2.41
   3  -4  12   -0.48    1.95
  -3  -4 -12    2.19    2.24
   3  -5 -12    3.47    1.67
  -3   5  12   -0.39    2.15
   3   5 -12    3.51    1.56
   2  -5 -12   13.56    2.12
   2   5 -12    8.13    1.47
  -2   5  12   12.55    2.69
  -1  -5  12   24.34    3.08
   1  -5 -12   23.32    2.08
   1  -5 -12   25.63    3.20
  -1   5  12   21.86    3.01
   0  -5  12   -0.08    1.45
   0  -5 -12    0.95    1.28
   1  -5  12    7.18    1.77
   1  -5  12    4.44    1.89
  -2  -5 -12    3.16    2.12
   2  -5  12    1.16    1.94
   2  -6 -12   12.54    2.89
   1  -6 -12   18.32    2.97
   0  -6  12    3.26    1.51
   0  -6 -12    7.07    1.97
   0  -6 -12    6.44    2.52
   1  -6  12    1.13    1.77
  -1  -6 -12    2.91    1.94
   2  -6  12    3.58    2.59
  -2  -6 -12    9.45    2.79
   4   0 -13    0.26    1.51
   3   0 -13    0.60    0.99
   2   0 -13   -0.01    0.62
   1   0 -13   -0.30    0.46
   1   0 -13   -0.06    0.60
  -1   0  13    0.20    0.59
   0   0  13    0.42    0.55
   0   0 -13    0.87    0.59
  -1   0 -13   -0.28    0.59
   2   0  13   -0.21    1.00
  -2   0 -13    0.22    0.76
  -3   0 -13    0.94    1.11
   3   0  13   -0.10    1.38
   4   0  13   -0.14    1.75
   4  -1 -13    2.21    1.61
   4   1 -13    2.16    1.47
   3  -1 -13    0.15    1.11
   3   1 -13    0.05    1.05
   2  -1 -13   10.27    1.14
   2   1 -13   10.13    1.05
   1  -1 -13   14.70    1.11
  -1  -1  13   16.41    1.13
   1  -1 -13   13.31    1.05
  -1   1  13   15.31    1.11
   0  -1  13   60.15    1.87
   0  -1 -13   62.65    2.09
   0   1  13   61.21    1.98
   0   1 -13   59.69    2.07
  -1  -1 -13   10.74    1.25
  -1   1 -13   10.76    1.02
   1   1  13   11.38    1.00
   2  -1  13    0.57    1.15
  -2  -1 -13    0.60    1.01
   2   1  13    0.56    0.99
  -2   1 -13    1.45    0.68
   3  -1  13   12.68    2.29
  -3  -1 -13   10.03    1.86
   3   1  13   10.91    1.81
   4  -1  13    4.16    1.98
   4  -2 -13    1.42    1.68
   4  -2 -13   -0.15    1.61
   4   2 -13   -0.09    1.52
   3  -2 -13   -0.02    1.18
   3  -2 -13    1.18    1.24
   3   2 -13    1.52    1.14
   2  -2 -13    0.79    0.82
   2  -2 -13    1.29    1.00
   2  -2 -13    1.30    0.68
  -2  -2  13   -0.04    0.77
   2   2 -13    0.71    0.72
  -2   2  13    0.97    0.85
   1  -2 -13   21.24    1.19
  -1  -2  13   19.08    1.38
   1  -2 -13   19.60    1.26
  -1   2  13   20.20    1.47
   0  -2  13    2.07    0.76
   0  -2 -13    2.50    0.88
   0   2 -13    3.00    1.00
   0   2  13    1.25    0.81
   1  -2  13    7.05    0.87
  -1  -2 -13    7.95    1.26
   1  -2  13    7.25    1.29
  -1   2 -13    7.02    0.94
   2  -2  13   32.06    2.64
  -2  -2 -13   28.84    2.38
  -2   2 -13   28.38    1.48
   3  -2  13    3.79    2.02
  -3  -2 -13    2.93    1.77
   4  -2  13    2.86    2.15
  -4  -2 -13    3.17    2.36
   3  -3 -13   16.10    2.25
   3  -3 -13   18.77    2.19
   3   3 -13   16.48    1.97
   2  -3 -13    2.40    1.17
   2  -3 -13    1.79    1.05
  -2  -3  13    2.50    1.40
  -2   3  13    3.42    1.29
   2   3 -13    3.17    0.98
   1  -3 -13    5.67    0.92
  -1  -3  13    6.51    1.32
  -1   3  13    5.03    1.15
   0  -3  13    6.51    1.02
   0  -3 -13    8.20    1.30
   0   3  13    5.16    1.07
   1  -3  13   84.21    2.70
  -1  -3 -13   79.25    3.38
   1  -3  13   74.17    3.22
   1   3  13   84.97    3.03
   2  -3  13    7.94    1.93
  -2  -3 -13    9.47    1.94
  -3  -3 -13    8.57    2.44
   3  -3  13    4.86    2.27
   3  -4 -13    2.25    1.71
  -3   4  13    1.68    2.10
   3   4 -13    2.79    1.43
   2  -4 -13   41.54    2.78
   2   4 -13   44.40    2.39
  -2   4  13   36.17    3.02
   1  -4 -13   -0.39    0.84
   1  -4 -13    0.06    0.89
  -1  -4  13    0.99    1.28
  -1   4  13   -0.10    1.29
   0  -4 -13   35.56    2.33
   0  -4  13   36.67    2.67
   0   4  13   31.09    2.58
   1  -4  13   -0.30    1.37
  -1  -4 -13    2.38    1.47
   1  -4  13    2.05    1.43
  -2  -4 -13   34.90    3.47
   2  -4  13   41.46    3.46
  -3  -4 -13   11.90    2.82
   3  -4  13   12.12    2.99
   3  -5 -13   10.97    2.36
  -3   5  13    7.34    2.66
   3   5 -13    8.65    1.76
   2  -5 -13    1.16    1.38
  -2  -5  13    2.00    2.53
   2   5 -13    0.05    1.11
  -2   5  13    1.84    1.92
  -1  -5  13   18.62    2.66
   1  -5 -13   19.54    2.68
   1  -5 -13   16.35    1.84
  -1   5  13   17.97    2.56
   0  -5  13    4.14    2.14
   0  -5 -13    7.27    1.65
   1  -5  13   71.70    4.04
  -1  -5 -13   77.89    4.28
   1  -5  13   81.18    4.36
  -2  -5 -13    9.68    2.51
   2  -5  13    5.32    1.63
   2  -5  13    4.75    2.17
   2   6 -13   25.39    2.34
   1  -6 -13    3.94    2.20
   0  -6 -13   19.50    3.09
   0  -6 -13   18.39    2.52
  -1  -6 -13   11.90    2.58
   1  -6  13    4.14    1.95
   1  -6  13    8.31    2.30
   4   0 -14   16.07    2.39
   3   0 -14   25.91    2.17
   2   0 -14   16.10    1.39
  -1   0  14  124.90    2.87
   1   0 -14  117.91    2.94
   1   0 -14  120.11    3.33
   0   0 -14    6.91    0.89
   0   0  14    6.88    0.78
  -1   0 -14   15.47    1.24
  -2   0 -14    0.32    0.84
   2   0  14    0.06    1.10
  -3   0 -14    5.18    1.30
   3   0  14    2.40    1.57
   4   0  14    7.14    2.14
   4  -1 -14    1.87    1.62
   4   1 -14    1.13    1.52
   3  -1 -14   20.80    2.05
   3   1 -14   17.17    1.84
   2  -1 -14   74.09    2.64
   2  -1 -14   76.27    2.59
   2   1 -14   71.16    2.52
  -1  -1  14  102.75    2.63
   1  -1 -14  105.86    2.71
   1  -1 -14  102.56    2.84
  -1   1  14  103.72    2.65
   1   1 -14   98.28    3.24
   0  -1 -14   17.45    1.27
   0  -1  14   17.92    1.22
   0   1  14   17.50    1.32
   0   1 -14   18.40    1.28
  -1  -1 -14   14.40    1.42
  -1   1 -14   14.82    1.14
  -2  -1 -14   15.98    1.75
   2  -1  14   16.90    2.05
   2   1  14   14.41    1.63
  -2   1 -14   13.42    1.25
  -3  -1 -14   26.20    2.65
   3  -1  14   28.52    2.93
   3   1  14   30.40    2.48
   4  -1  14   -0.50    1.73
   4  -2 -14   20.74    2.72
   4   2 -14   17.56    2.56
   3  -2 -14   14.36    2.26
   3  -2 -14   14.99    2.05
   3   2 -14   18.22    1.92
   2  -2 -14    0.98    0.86
   2  -2 -14    0.95    0.72
  -2  -2  14   -0.50    0.82
  -2   2  14    0.06    0.85
   2   2 -14    0.05    0.72
   1  -2 -14   62.49    2.05
  -1  -2  14   63.87    2.19
   1  -2 -14   63.65    2.06
  -1   2  14   63.71    2.29
   0  -2 -14  292.30    6.61
   0  -2  14  291.24    6.21
   0   2  14  296.67    6.48
   0   2 -14  289.17    6.75
  -1  -2 -14    5.40    1.16
   1  -2  14    7.25    0.91
  -1   2 -14    7.02    1.01
   2  -2  14   42.34    2.97
  -2  -2 -14   44.01    2.75
  -2   2 -14   43.38    1.84
   3  -2  14    0.07    1.79
  -3  -2 -14    0.39    1.62
   3  -3 -14    7.47    1.74
   3  -3 -14   10.35    2.15
   3   3 -14    5.82    1.44
   2  -3 -14   36.66    1.66
   2  -3 -14   39.07    2.27
  -2  -3  14   38.06    2.78
   2  -3 -14   33.64    2.35
  -2   3  14   39.46    2.36
   2   3 -14   40.33    2.14
   1  -3 -14   64.50    2.24
   1  -3 -14   66.76    2.32
  -1  -3  14   71.93    2.85
  -1   3  14   65.84    2.73
   0  -3 -14    0.42    0.88
   0  -3  14   -0.10    0.82
   0   3  14    0.44    0.92
   1  -3  14   15.22    1.85
  -1  -3 -14   15.64    1.94
   1  -3  14   16.24    1.40
   1   3  14   19.41    1.69
  -2  -3 -14    8.77    1.92
   2  -3  14    5.88    1.92
  -3  -3 -14   29.33    3.41
   3  -3  14   21.43    3.24
   3  -4 -14   18.87    2.42
   3   4 -14   13.29    1.95
  -3   4  14   15.88    2.54
  -2  -4  14    3.38    1.91
   2  -4 -14    0.02    1.14
   2   4 -14    0.90    1.03
  -2   4  14    0.84    1.74
   1  -4 -14    0.93    0.87
  -1  -4  14    1.72    1.43
  -1   4  14    0.27    1.34
   0  -4  14   46.18    3.27
   0  -4 -14   39.70    2.49
   0   4  14   45.36    2.80
  -1  -4 -14    9.53    1.93
   1  -4  14    7.76    1.75
   1  -4  14    9.80    1.75
  -2  -4 -14    5.59    1.86
   2  -4  14    4.92    2.04
  -3  -4 -14    4.23    2.43
   3  -4  14    2.17    2.18
   2  -5 -14    5.35    1.69
  -2   5  14    4.49    2.15
   2   5 -14    2.48    1.30
   1  -5 -14    1.41    1.81
   1  -5 -14    2.02    1.19
  -1  -5  14    1.18    1.65
  -1   5  14    1.84    1.86
   0  -5  14   26.32    2.88
   0  -5 -14   25.91    2.52
  -1  -5 -14   12.47    2.22
   1  -5  14    6.29    1.94
   1  -5  14    8.35    1.83
   2  -5  14   -0.34    1.85
  -2  -5 -14    2.66    1.93
   2   6 -14    2.11    1.46
   1  -6 -14    1.58    2.30
   0  -6 -14    1.48    1.84
   0  -6  14    1.86    1.42
   0  -6  14    3.17    2.10
  -1  -6 -14   31.13    3.45
   1  -6  14   26.96    3.21
   4   0 -15   -1.67    1.30
   3   0 -15    0.96    1.05
   2   0 -15   -0.38    0.63
   1   0 -15    0.55    0.67
   1   0 -15    0.05    0.46
  -1   0  15    0.24    0.61
   0   0 -15    0.66    0.65
   0   0  15    0.82    0.66
  -1   0 -15    0.28    0.66
   2   0  15   -0.29    1.07
  -2   0 -15   -0.36    0.79
  -3   0 -15    1.61    1.20
   3   0  15    1.35    1.54
   4   0  15    0.31    1.71
   4  -1 -15    3.03    1.83
   4   1 -15    1.53    1.55
   3  -1 -15    2.20    1.21
   3   1 -15    2.42    1.19
   2  -1 -15   13.49    1.36
   2  -1 -15   14.08    1.39
  -2   1  15   10.93    1.02
   2   1 -15   12.57    1.22
   1  -1 -15    0.75    0.55
   1  -1 -15    0.81    0.63
  -1  -1  15    0.25    0.63
  -1   1  15    1.86    0.69
   1   1 -15    1.12    0.83
   0  -1  15    8.14    0.90
   0  -1 -15   10.43    1.12
   0  -1 -15    9.32    0.67
   0   1  15    9.06    0.99
   0   1 -15    8.71    1.01
  -1  -1 -15    5.99    1.07
   1  -1  15    6.65    0.80
  -1   1 -15    5.51    0.84
   1   1  15    5.96    0.91
   2  -1  15   -0.65    1.18
  -2  -1 -15   -0.85    1.04
  -2   1 -15    0.80    0.71
   2   1  15    0.92    1.01
  -3  -1 -15    3.27    1.54
   3  -1  15    3.50    1.79
   3   1  15    1.36    1.38
   4  -1  15    4.39    2.19
   4  -2 -15    5.05    1.95
   4   2 -15    3.87    1.70
   3  -2 -15    5.67    1.59
   3   2 -15    4.06    1.43
   2  -2 -15   13.61    1.33
   2  -2 -15   15.38    1.54
  -2  -2  15   11.60    1.29
   2   2 -15   12.36    1.30
  -2   2  15   13.71    1.36
  -1  -2  15    1.19    0.85
   1  -2 -15    2.48    0.68
   1  -2 -15    1.47    0.68
  -1   2  15    0.60    0.79
   0  -2  15    0.73    0.71
   0  -2 -15    0.45    0.74
   0   2 -15    1.16    0.87
   0   2  15    0.15    0.83
   1  -2  15   18.67    1.31
  -1  -2 -15   19.20    1.72
  -1   2 -15   17.63    1.38
   1   2  15   18.68    1.62
  -2  -2 -15   -0.11    1.32
   2  -2  15    2.07    1.43
  -2   2 -15   -0.13    0.74
  -3  -2 -15    7.82    2.09
   3  -2  15    5.69    2.15
   3  -3 -15   -1.00    1.25
   3  -3 -15   -1.91    1.24
   3   3 -15    2.75    1.32
  -3   3  15    0.43    1.46
   2  -3 -15    2.25    1.13
  -2  -3  15    2.87    1.33
   2  -3 -15    2.25    0.83
   2   3 -15    1.54    0.93
  -2   3  15    1.93    1.30
   1  -3 -15    6.80    1.04
   1  -3 -15    7.64    0.97
  -1  -3  15    6.96    1.18
  -1   3  15    8.32    1.37
   0  -3  15   31.91    1.91
   0  -3 -15   32.37    2.07
   0   3  15   30.93    1.96
  -1  -3 -15    4.37    1.40
   1  -3  15    6.43    1.51
   1  -3  15    5.21    1.15
   1   3  15    6.09    1.46
   2  -3  15   21.15    2.62
  -2  -3 -15   25.85    2.82
  -2   3 -15   27.70    2.08
   3  -3  15   -2.05    1.61
  -3  -3 -15    2.30    1.98
   3  -4 -15   24.21    2.92
  -3   4  15   32.25    3.14
   3   4 -15   25.76    2.44
  -2  -4  15    0.61    1.78
   2  -4 -15    0.01    1.17
   2   4 -15   -0.18    1.05
  -2   4  15   -0.01    1.57
  -1  -4  15   24.90    2.68
   1  -4 -15   25.25    1.81
  -1   4  15   20.54    2.21
   0  -4  15    1.76    1.72
   0  -4 -15    4.39    1.35
   0   4  15    2.85    1.47
  -1  -4 -15   35.25    2.83
   1  -4  15   35.18    2.58
   1  -4  15   28.74    2.62
   2  -4  15    7.25    2.06
  -2  -4 -15   11.61    2.55
   3  -4  15    2.07    2.35
  -3  -4 -15    2.68    2.29
  -2  -5  15   -0.67    1.86
   2  -5 -15   -0.20    1.26
   2   5 -15   -0.84    1.15
  -2   5  15   -0.65    1.93
   1  -5 -15   12.24    2.06
   1  -5 -15    8.66    1.47
  -1   5  15    7.95    2.23
   0  -5 -15   22.46    2.42
   0  -5  15   23.73    2.53
   0   5  15   27.48    3.05
   1  -5  15   38.44    3.18
   1  -5  15   48.84    3.77
  -1  -5 -15   46.87    3.41
  -2  -5 -15   -0.10    1.83
   2  -5  15    0.14    1.84
   1  -6 -15   17.49    3.13
  -1  -6  15   19.01    3.16
   0  -6 -15    2.09    1.77
   0  -6  15   -0.07    1.40
  -1  -6 -15    4.26    2.05
   1  -6  15    0.93    1.78
   4   0 -16   29.30    2.85
   3   0 -16   18.38    1.98
   2   0 -16  117.91    3.46
  -1   0  16    0.19    0.63
   1   0 -16    0.13    0.66
   1   0 -16    0.63    0.52
   0   0  16   51.95    1.75
   0   0 -16   51.41    1.94
  -1   0 -16   84.17    2.66
   1   0  16   90.91    2.43
  -2   0 -16   19.59    1.65
   2   0  16   22.83    2.05
  -3   0 -16    1.27    1.16
   3   0  16    4.99    1.81
   4   0  16    6.57    2.10
   4  -1 -16   -0.33    1.60
   4   1 -16    0.65    1.51
   3  -1 -16  102.48    3.88
   3   1 -16   95.23    3.77
   2  -1 -16   15.21    1.46
   2  -1 -16   16.27    1.50
  -2  -1  16    9.98    0.97
  -2   1  16   10.66    1.07
   2   1 -16   11.95    1.21
   1  -1 -16    3.81    0.78
   1  -1 -16    3.15    0.67
  -1  -1  16    1.91    0.74
   1   1 -16    3.08    0.95
  -1   1  16    2.80    0.75
   0  -1  16    8.73    0.95
   0  -1 -16    6.77    0.59
   0  -1 -16    8.14    1.03
   0   1 -16    8.88    1.09
   0   1  16    8.81    0.99
   1  -1  16    6.13    0.81
  -1  -1 -16    7.54    1.17
  -1   1 -16    6.86    0.93
   1   1  16    6.55    0.97
   2  -1  16   22.64    2.24
  -2  -1 -16   20.44    1.96
  -2   1 -16   18.91    1.45
   2   1  16   20.77    1.88
   3  -1  16   27.60    3.02
  -3  -1 -16   28.52    2.72
   3   1  16   30.71    2.51
   4  -2 -16    3.24    1.97
   4   2 -16    6.53    1.97
   3  -2 -16    6.03    1.69
   3   2 -16    4.81    1.42
  -2  -2  16   27.15    1.88
   2  -2 -16   30.18    1.73
   2  -2 -16   30.04    2.06
   2   2 -16   33.06    1.87
  -2   2  16   32.26    2.00
  -1  -2  16   30.46    1.71
   1  -2 -16   30.83    1.56
   1  -2 -16   33.76    1.55
  -1   2  16   32.73    1.81
   0  -2  16    3.88    0.92
   0  -2 -16    4.14    0.96
   0   2 -16    5.16    1.10
   0   2  16    4.90    0.99
  -1  -2 -16   14.12    1.64
   1  -2  16   12.64    1.17
  -1   2 -16   12.48    1.34
   2  -2  16   -0.25    1.52
  -2  -2 -16    0.66    1.39
  -2   2 -16    0.66    0.80
  -3  -2 -16    5.49    1.94
   3  -2  16    6.45    2.30
   3  -3 -16    3.43    1.56
   3   3 -16    2.19    1.32
  -3   3  16    1.82    1.57
  -2  -3  16  109.75    3.84
   2  -3 -16  107.53    3.15
   2  -3 -16  110.29    3.73
  -2   3  16  104.51    3.83
   2   3 -16  114.77    3.60
   1  -3 -16    3.98    0.94
   1  -3 -16    4.45    0.88
  -1  -3  16    5.30    1.48
  -1   3  16    3.91    1.23
   0  -3  16   -0.87    0.95
   0  -3 -16    1.50    1.09
   0   3  16    1.07    0.99
   1  -3  16   25.20    2.25
   1  -3  16   27.22    1.79
  -1  -3 -16   25.14    2.31
   1   3  16   29.60    2.30
   2  -3  16   27.81    2.90
  -2  -3 -16   31.60    2.75
  -2   3 -16   33.74    2.33
   3  -3  16    7.40    2.43
  -3  -3 -16    5.78    2.23
   3  -4 -16    1.91    1.82
   3   4 -16    2.67    1.48
  -3   4  16    3.11    2.00
   2  -4 -16    1.82    1.36
  -2   4  16   -3.12    1.53
   2   4 -16    0.60    1.13
   1  -4 -16   62.75    2.63
  -1   4  16   66.18    3.33
   0  -4 -16   42.23    2.62
   0   4  16   40.56    2.88
   1  -4  16   15.36    1.78
   1  -4  16   11.70    2.03
  -1  -4 -16   16.13    2.13
   1   4  16   16.09    1.98
  -2  -4 -16    2.64    1.84
   2  -4  16    0.90    1.76
  -3  -4 -16    0.62    2.03
   3  -4  16   -1.48    1.90
   2  -5 -16    4.60    2.25
  -2   5  16    2.73    2.16
   2   5 -16   -0.10    1.25
   1  -5 -16   18.61    1.94
  -1   5  16   18.26    2.75
   0  -5 -16    8.24    1.78
   0   5  16    8.38    2.35
   1  -5  16   13.15    2.22
  -1  -5 -16   16.73    2.58
   1  -5  16   17.01    2.34
   2  -5  16    0.60    1.91
  -2  -5 -16    2.26    1.91
   1  -6 -16   -0.90    2.10
   0  -6 -16    8.47    2.20
   0  -6  16    2.89    1.60
  -1  -6 -16    6.88    2.16
   1  -6  16    0.89    1.84
   4   0 -17   -0.70    1.44
   3   0 -17   -0.08    1.14
  -2   0  17    0.13    0.66
   2   0 -17    0.03    0.79
   1   0 -17    0.26    0.69
  -1   0  17    0.38    0.67
   1   0 -17    0.07    0.50
   0   0  17    0.02    0.63
   0   0 -17    0.53    0.64
   1   0  17    1.28    0.74
  -1   0 -17    0.09    0.68
  -2   0 -17    0.50    0.97
   2   0  17    0.12    1.18
   3   0  17   -1.01    1.37
  -3   0 -17    0.87    1.15
   4  -1 -17   -0.13    1.66
   4   1 -17    0.72    1.54
   3  -1 -17    3.07    1.32
   3   1 -17   -0.49    1.13
   2  -1 -17    1.77    0.92
   2  -1 -17    1.64    0.98
  -2  -1  17    1.44    0.73
   2   1 -17    1.57    0.80
  -2   1  17    1.62    0.84
   1  -1 -17   53.40    1.86
   1  -1 -17   55.73    2.07
  -1  -1  17   54.23    1.94
   1   1 -17   49.64    2.34
  -1   1  17   53.93    1.93
   0  -1 -17    0.15    0.38
   0  -1 -17    1.24    0.74
   0  -1  17   -0.48    0.69
   0   1  17    0.75    0.76
   0   1 -17    0.67    0.66
  -1  -1 -17    5.28    1.03
   1  -1  17    5.63    0.81
   1   1  17    4.92    0.95
  -1   1 -17    4.93    0.91
  -2  -1 -17    9.45    1.58
   2  -1  17    7.40    1.69
   2   1  17    6.73    1.45
  -2   1 -17    7.56    1.12
   3  -1  17   -0.21    1.66
  -3  -1 -17    2.66    1.50
   4  -2 -17    0.39    1.76
   4   2 -17    0.51    1.51
   3  -2 -17    3.65    1.53
   3   2 -17    5.29    1.46
   2  -2 -17   39.46    1.97
  -2  -2  17   33.27    2.24
   2  -2 -17   40.31    2.30
  -2   2  17   43.64    2.30
   2   2 -17   38.07    2.05
   1  -2 -17    3.88    0.86
   1  -2 -17    4.55    0.82
  -1  -2  17    4.59    1.00
  -1   2  17    3.84    1.04
   0  -2 -17    1.89    0.95
   0  -2  17    2.60    0.85
   0   2  17    2.55    0.90
   0   2 -17    2.26    1.00
   1  -2  17    5.61    0.96
  -1  -2 -17    6.28    1.30
   1   2  17    5.92    1.14
  -1   2 -17    5.31    1.06
  -2  -2 -17    8.78    1.78
   2  -2  17    8.91    1.94
  -2   2 -17    8.83    1.24
   3  -2  17    7.35    2.29
  -3  -2 -17    4.61    1.98
   3  -3 -17    1.75    1.50
   3   3 -17   -0.42    1.23
  -3   3  17    0.81    1.51
  -2  -3  17   19.75    1.86
   2  -3 -17   18.45    1.82
   2  -3 -17   16.12    1.45
  -2   3  17   16.15    1.83
   2   3 -17   16.40    1.61
  -1  -3  17   27.49    2.23
   1  -3 -17   27.53    1.62
   1  -3 -17   28.95    1.74
  -1   3  17   29.07    2.28
   0  -3  17    3.60    1.20
   0  -3 -17    2.92    1.18
   0   3  17    2.82    1.10
   1  -3  17    0.52    0.98
   1  -3  17    1.31    1.25
  -1  -3 -17    1.18    1.20
   1   3  17   -1.55    1.16
  -2  -3 -17   18.05    2.65
   2  -3  17   12.67    2.23
  -2   3 -17   18.30    2.20
  -3  -3 -17    4.59    2.21
   3  -3  17    1.40    2.08
   3  -4 -17    2.98    1.80
   3   4 -17    6.90    1.67
  -3   4  17    3.32    2.12
  -2   4  17   -1.02    1.64
   2   4 -17   -2.01    1.01
  -1  -4  17   39.73    3.42
   1  -4 -17   36.21    2.14
  -1   4  17   37.99    2.76
   0  -4  17   46.23    3.19
   0  -4 -17   46.38    2.80
   0   4  17   47.70    3.02
  -1  -4 -17    1.07    1.63
   1  -4  17    0.44    1.39
   1  -4  17    1.34    1.46
   1   4  17    2.46    1.69
   2  -4  17    9.35    2.35
  -2  -4 -17    9.74    2.20
  -3  -4 -17   14.37    2.92
   3  -4  17    8.09    2.71
  -2   5  17    3.46    2.18
   2   5 -17    2.88    1.44
   1  -5 -17   17.32    1.94
  -1  -5  17   21.17    3.18
  -1   5  17   15.13    2.65
   0  -5  17   52.62    3.57
   0  -5 -17   41.19    3.03
   0   5  17   43.92    3.61
  -1  -5 -17    3.17    1.77
   1  -5  17   -0.34    1.49
  -2  -5 -17    5.07    2.11
   2  -5  17    0.00    2.02
   1  -6 -17    1.43    2.34
  -1   6  17    3.12    2.39
   0  -6  17    0.64    1.42
   0  -6 -17    1.57    1.71
  -1  -6 -17   37.39    3.54
   1  -6  17   33.72    3.51
   4   0 -18    0.07    1.53
   3   0 -18   13.52    1.83
   2   0 -18   18.04    1.62
  -2   0  18   16.08    1.35
   1   0 -18    9.96    0.93
   1   0 -18    8.56    1.14
  -1   0  18    9.16    1.00
   0   0  18  141.71    3.43
   0   0 -18  142.81    3.78
   1   0  18   97.18    2.69
  -1   0 -18   97.36    3.00
   2   0  18   21.60    2.11
  -2   0 -18   17.69    1.68
   3   0  18   25.21    2.73
  -3   0 -18   26.65    2.17
   4  -1 -18   53.77    3.73
   4   1 -18   48.69    3.55
   3  -1 -18   11.45    1.70
   3   1 -18   12.76    1.76
   2  -1 -18   11.58    1.39
   2  -1 -18   12.42    1.51
  -2  -1  18    8.06    1.07
  -2   1  18    7.83    1.10
   2   1 -18   11.58    1.29
   1  -1 -18   14.87    1.31
   1  -1 -18   15.38    1.19
  -1  -1  18   16.64    1.34
   1   1 -18   15.53    1.63
  -1   1  18   16.52    1.34
   0  -1 -18    5.62    0.62
   0  -1 -18    5.65    0.96
   0  -1  18    4.54    0.88
   0   1 -18    5.94    1.01
   0   1  18    5.63    0.96
   1  -1  18   95.69    2.58
  -1  -1 -18   94.55    3.17
   1   1  18  101.39    2.91
  -1   1 -18   95.36    2.98
   2  -1  18   95.53    3.99
  -2  -1 -18   86.93    3.54
  -2   1 -18   90.47    2.93
   2   1  18   92.61    3.44
  -3  -1 -18   23.26    2.46
   3  -1  18   17.90    2.63
   3  -2 -18    4.08    1.56
  -3   2  18    2.55    1.27
   3   2 -18    5.38    1.48
   2  -2 -18   13.04    1.58
  -2  -2  18   12.03    1.35
   2  -2 -18   14.47    1.52
  -2   2  18    9.75    1.42
   2   2 -18   12.09    1.39
  -1  -2  18   25.73    1.65
   1  -2 -18   26.52    1.58
   1  -2 -18   27.00    1.54
  -1   2  18   25.05    1.85
   0  -2 -18   47.64    2.21
   0  -2  18   49.91    2.05
   0   2  18   48.67    2.17
   0   2 -18   47.94    2.35
  -1  -2 -18   47.74    2.60
   1  -2  18   51.47    2.03
  -1   2 -18   49.29    2.24
   1   2  18   49.47    2.34
   2  -2  18    0.25    1.58
  -2  -2 -18   -0.27    1.41
  -2   2 -18   -0.49    0.79
  -3  -2 -18    4.91    1.96
   3  -2  18    5.63    2.28
   3  -3 -18   17.45    2.23
   3   3 -18   16.46    2.05
  -3   3  18   12.35    1.94
  -2  -3  18   10.14    1.83
   2  -3 -18    8.18    1.18
   2  -3 -18   12.10    1.64
   2   3 -18    9.51    1.35
  -2   3  18    9.77    1.65
   1  -3 -18   14.81    1.28
  -1  -3  18   15.40    1.83
   1  -3 -18   14.11    1.54
  -1   3  18   16.36    1.75
   0  -3  18    2.52    1.15
   0  -3 -18    7.66    1.40
   0   3  18    4.63    1.33
   1  -3  18   20.35    1.70
  -1  -3 -18   16.77    2.07
  -1   3 -18   21.00    2.10
   1   3  18   18.97    2.04
   2  -3  18    8.08    2.15
  -2  -3 -18    8.98    1.96
  -2   3 -18   11.98    2.25
  -3  -3 -18    3.38    2.05
   3  -3  18    2.86    2.17
   3   4 -18    5.35    1.59
  -3   4  18    1.05    2.09
   2   4 -18    7.64    1.49
  -2   4  18    9.92    2.09
   1  -4 -18   33.20    2.13
  -1  -4  18   38.33    3.29
  -1   4  18   33.64    2.83
   0  -4  18    7.49    1.79
   0  -4 -18    6.77    1.59
   0   4  18    7.48    1.80
  -1  -4 -18    4.66    1.73
   1  -4  18    5.32    1.59
   1  -4  18    3.81    1.58
   1   4  18    5.82    1.80
  -2  -4 -18    0.53    1.82
   2  -4  18    0.83    1.77
   2  -5 -18    3.60    2.39
  -2   5  18    3.53    2.29
   2   5 -18    2.92    1.47
   1  -5 -18    0.45    1.29
  -1   5  18    1.07    1.86
   0  -5 -18   39.84    2.94
   0   5  18   40.93    3.46
   1  -5  18    7.65    2.32
   1  -5  18    3.81    1.75
  -1  -5 -18    8.08    2.14
   2  -5  18    6.64    2.32
  -2  -5 -18   11.11    2.46
   1  -6 -18   14.81    3.19
  -1   6  18    8.15    2.63
   0  -6  18    0.09    1.36
   0  -6 -18    2.08    1.78
   1  -6  18   -0.54    1.91
  -1  -6 -18    3.28    2.04
   4   0 -19    0.65    1.55
   3   0 -19   -0.02    1.22
  -2   0  19   -0.93    0.78
   2   0 -19   -0.05    0.86
   1   0 -19   -0.06    0.77
   1   0 -19    0.47    0.57
  -1   0  19    1.21    0.79
   0   0 -19   -0.17    0.66
   0   0  19   -0.07    0.69
  -1   0 -19    0.93    0.83
   1   0  19    0.41    0.79
   2   0  19   -1.19    1.20
  -2   0 -19    0.16    1.03
   3   0  19   -1.05    1.51
  -3   0 -19   -0.08    1.17
   4  -1 -19   17.03    2.51
   4   1 -19   10.57    2.14
   3  -1 -19    0.00    1.22
   3   1 -19    1.20    1.31
  -2  -1  19    3.38    0.95
   2  -1 -19    4.78    1.13
   2  -1 -19    3.82    1.22
   2   1 -19    3.96    1.00
  -2   1  19    4.01    1.06
  -1  -1  19    0.26    0.85
   1  -1 -19    0.96    0.75
   1  -1 -19    1.30    0.69
  -1   1  19    0.72    0.81
   1   1 -19    1.42    1.00
   0  -1  19    6.41    0.95
   0  -1 -19    8.00    1.07
   0  -1 -19    8.70    0.79
   0   1 -19    8.42    1.14
   0   1  19    6.89    1.04
   1  -1  19    4.78    0.87
  -1  -1 -19    4.24    1.09
  -1   1 -19    3.68    0.96
   1   1  19    2.80    0.97
   2  -1  19   -1.15    1.39
  -2  -1 -19   -0.39    1.16
  -2   1 -19    0.12    0.86
   2   1  19   -0.75    1.13
   3  -1  19    9.96    2.33
  -3  -1 -19   12.13    2.01
   3  -2 -19   63.79    3.45
   3   2 -19   63.80    3.28
  -3   2  19   61.89    2.92
   2  -2 -19    4.65    1.19
  -2  -2  19    3.80    1.12
   2  -2 -19    5.15    1.26
   2   2 -19    5.28    1.17
  -2   2  19    7.12    1.46
  -1  -2  19    0.86    0.98
   1  -2 -19    1.23    0.76
   1  -2 -19    0.31    0.77
  -1   2  19    0.10    1.03
   0  -2 -19    9.71    1.28
   0  -2  19    8.80    1.16
   0   2  19   10.19    1.33
   0   2 -19   10.02    1.47
  -1  -2 -19   46.23    2.55
   1  -2  19   45.15    2.02
   1   2  19   44.04    2.28
  -1   2 -19   45.52    2.23
  -2  -2 -19    6.34    1.80
   2  -2  19    6.27    1.98
  -2   2 -19    3.85    1.13
  -3  -2 -19   13.71    2.36
   3  -2  19   10.69    2.54
   3  -3 -19    4.50    1.69
   3   3 -19    4.28    1.59
  -3   3  19    3.89    1.62
   2  -3 -19   52.49    2.29
  -2  -3  19   52.07    3.31
   2  -3 -19   50.97    2.79
  -2   3  19   48.88    2.95
   2   3 -19   50.97    2.61
   1  -3 -19   33.13    1.83
   1  -3 -19   30.41    1.96
  -1  -3  19   31.51    2.62
  -1   3  19   33.89    2.38
   0  -3 -19   40.57    2.44
   0  -3  19   43.81    2.52
   0   3  19   40.15    2.49
  -1  -3 -19    1.20    1.42
   1  -3  19    1.86    1.15
   1   3  19    2.53    1.43
  -1   3 -19    2.32    1.39
  -2  -3 -19    1.43    1.56
   2  -3  19    0.06    1.67
  -3  -3 -19   23.10    3.03
   3  -3  19   21.19    3.26
   3   4 -19    8.36    1.81
  -3   4  19    6.84    2.36
  -2   4  19   11.68    2.16
   2   4 -19   10.48    1.65
   1  -4 -19    0.50    1.08
  -1  -4  19    1.59    2.10
  -1   4  19   -0.22    1.48
   0  -4 -19   14.94    1.97
   0   4  19   13.56    2.12
   1  -4  19   10.36    1.67
  -1  -4 -19   12.59    1.97
   1  -4  19    7.96    1.84
   1   4  19    8.17    1.89
  -2  -4 -19   20.38    3.00
   2  -4  19   11.82    2.28
   2  -5 -19   10.37    2.36
   2   5 -19    6.18    1.67
  -2   5  19    8.71    2.59
   1  -5 -19    2.48    1.32
  -1   5  19    3.64    2.15
   0  -5 -19    6.52    1.87
   0  -5  19    6.16    2.01
   0   5  19    6.83    2.06
  -1  -5 -19    2.18    1.82
   1  -5  19    0.13    1.60
   2  -5  19   10.07    2.59
  -2  -5 -19    8.57    2.39
   1  -6 -19   -0.40    1.96
  -1   6  19    1.02    2.34
   0  -6 -19    0.21    1.82
   0  -6  19   -0.11    2.22
   4   0 -20    8.46    2.03
   3   0 -20    3.15    1.41
  -2   0  20    5.89    1.09
   2   0 -20    7.04    1.18
   1   0 -20  215.48    5.47
   1   0 -20  213.59    4.94
  -1   0  20  219.93    4.90
   0   0  20   24.45    1.47
   0   0 -20   24.09    1.63
  -1   0 -20    1.78    0.90
   1   0  20    0.82    0.84
   2   0  20   87.72    3.61
  -2   0 -20   83.80    3.11
   3   0  20   42.35    3.23
  -3   0 -20   37.81    2.47
   3  -1 -20    0.59    1.32
   3   1 -20    0.91    1.27
   2  -1 -20   31.33    2.11
  -2  -1  20   29.92    1.86
   2  -1 -20   28.89    2.12
   2   1 -20   29.84    1.89
  -2   1  20   30.22    1.91
  -1  -1  20    1.64    0.92
   1  -1 -20    2.48    0.75
   1  -1 -20    2.12    0.86
   1   1 -20    3.60    1.21
  -1   1  20    0.41    0.82
   0  -1 -20  150.71    4.07
   0  -1 -20  148.89    3.35
   0  -1  20  150.05    3.67
   0   1 -20  147.76    4.18
   0   1  20  152.12    3.89
  -1  -1 -20   70.02    2.79
   1  -1  20   66.79    2.22
  -1   1 -20   69.54    2.62
   1   1  20   66.62    2.51
  -2  -1 -20   78.65    3.28
   2  -1  20   76.79    3.80
  -2   1 -20   75.48    2.78
   2   1  20   77.20    3.19
  -3  -1 -20   16.87    2.37
   3  -1  20   17.88    2.77
   3  -2 -20   28.06    2.55
   3   2 -20   28.04    2.47
   2  -2 -20    7.62    1.31
   2  -2 -20    8.48    1.45
  -2  -2  20    6.22    1.33
  -2   2  20    6.22    1.40
   2   2 -20    5.91    1.24
  -1  -2  20  100.90    3.21
   1  -2 -20   95.94    3.16
   1  -2 -20   98.56    2.95
  -1   2  20   94.15    3.29
   0  -2  20   13.32    1.37
   0  -2 -20   15.01    1.58
   0   2 -20   15.14    1.75
   0   2  20   13.53    1.49
   1  -2  20    1.13    0.95
  -1  -2 -20    2.49    1.25
  -1   2 -20    1.86    1.03
   1   2  20    0.03    1.14
   2  -2  20   16.07    2.44
  -2  -2 -20   19.43    2.25
  -2   2 -20   17.11    1.73
  -3  -2 -20   54.39    3.73
   3  -2  20   54.51    4.16
   3  -3 -20   22.25    2.52
  -3   3  20   18.01    2.28
   3   3 -20   22.70    2.36
  -2  -3  20    1.98    1.53
   2  -3 -20    0.91    1.20
   2  -3 -20    1.82    0.98
  -2   3  20    1.10    1.45
   2   3 -20    0.52    1.13
   1  -3 -20    2.87    0.96
   1  -3 -20    4.28    1.12
  -1  -3  20    3.51    1.36
  -1   3  20    3.02    1.34
   0  -3  20    7.28    1.43
   0  -3 -20    5.71    1.33
   0   3  20    6.42    1.52
  -1  -3 -20   17.03    2.09
   1  -3  20   18.65    1.71
  -1   3 -20   21.92    2.17
   1   3  20   17.93    1.94
  -2  -3 -20    8.27    2.01
   2  -3  20    3.26    1.99
   3  -3  20   16.20    3.13
  -3  -3 -20   19.03    2.91
   3   4 -20    0.00    1.50
  -3   4  20   -3.53    1.93
  -2   4  20    6.53    2.13
   2   4 -20   10.55    1.76
  -1  -4  20    1.53    1.94
   1  -4 -20    1.15    1.14
  -1   4  20    0.89    1.54
   0  -4 -20   10.33    1.82
   0  -4  20   12.88    2.13
   0   4  20    8.68    1.95
   1  -4  20    4.94    1.60
  -1  -4 -20    6.56    1.85
   1  -4  20    4.61    1.59
   1   4  20    6.38    1.84
   2  -4  20    2.60    1.88
  -2  -4 -20    6.41    2.32
   2  -5 -20    1.93    2.18
  -2   5  20    2.87    2.24
   2   5 -20   -1.66    1.34
   1  -5 -20    4.27    1.45
  -1   5  20    1.40    2.03
   0  -5 -20    2.32    1.57
   0   5  20    1.49    1.83
  -1  -5 -20    0.99    1.76
   1  -5  20    0.52    1.70
  -2  -5 -20    5.46    2.76
   2  -5  20    4.17    2.16
   0  -6 -20    1.71    1.90
   3   0 -21    0.77    1.23
  -2   0  21   -0.30    0.90
   2   0 -21    0.92    0.97
   1   0 -21    0.01    0.65
  -1   0  21    1.07    0.85
   1   0 -21    1.08    0.95
   0   0 -21   -0.17    0.75
   0   0  21    0.88    0.80
  -1   0 -21   -0.83    0.87
   1   0  21   -0.40    0.87
  -2   0 -21   -0.58    1.00
   2   0  21   -0.42    1.28
   3   0  21   -2.35    1.46
  -3   0 -21    0.73    1.24
   3  -1 -21   11.10    1.88
   3   1 -21   10.72    1.82
   2  -1 -21   14.58    1.76
  -2  -1  21   10.67    1.35
   2  -1 -21   13.18    1.55
   2   1 -21    9.87    1.29
  -2   1  21   11.86    1.36
  -1  -1  21   10.48    1.28
   1  -1 -21   14.56    1.30
   1  -1 -21   12.41    1.40
  -1   1  21   11.83    1.28
   1   1 -21   11.16    1.54
   0  -1  21    4.50    0.96
   0  -1 -21    4.78    1.04
   0  -1 -21    2.99    0.60
   0   1 -21    2.18    0.98
   0   1  21    3.43    1.03
   1  -1  21    3.28    0.92
  -1  -1 -21    1.09    1.12
   1   1  21    2.32    1.06
  -1   1 -21    2.45    1.01
   2  -1  21    0.66    1.51
  -2  -1 -21    0.98    1.30
   2   1  21   -0.76    1.08
  -2   1 -21   -0.63    0.98
  -3  -1 -21    0.65    1.48
   3  -1  21    2.49    1.97
   3  -2 -21   13.78    2.05
  -3   2  21   10.71    1.79
   3   2 -21   13.66    2.00
   2  -2 -21    7.57    1.41
  -2  -2  21    6.94    1.34
   2  -2 -21    8.32    1.45
   2   2 -21    7.92    1.38
  -2   2  21    6.38    1.49
  -1  -2  21   43.47    2.28
   1  -2 -21   43.29    1.99
   1  -2 -21   43.77    2.21
  -1   2  21   43.19    2.43
   0  -2  21   18.22    1.64
   0  -2 -21   21.34    1.81
   0   2 -21   18.50    1.96
   0   2  21   17.64    1.67
   1  -2  21    7.97    1.18
  -1  -2 -21   10.52    1.63
   1   2  21    9.27    1.49
  -1   2 -21   11.02    1.51
  -2  -2 -21   13.18    2.10
   2  -2  21   10.89    2.23
  -2   2 -21   11.74    1.51
  -3  -2 -21    3.98    1.88
   3  -2  21    3.19    2.18
   3  -3 -21    3.72    1.73
  -3  -3  21    1.47    1.57
   3   3 -21    4.81    1.60
  -3   3  21    2.12    1.69
   2  -3 -21   51.49    2.78
  -2  -3  21   49.93    2.80
   2  -3 -21   51.55    2.42
  -2   3  21   51.84    3.11
   2   3 -21   52.89    2.75
   1  -3 -21    1.37    0.89
  -1  -3  21    3.17    1.64
   1  -3 -21   -0.82    1.00
  -1   3  21    0.38    1.33
   0  -3 -21    2.75    1.32
   0  -3  21    1.71    1.29
   0   3  21    2.68    1.39
  -1  -3 -21   29.69    2.46
   1  -3  21   31.22    2.17
   1   3  21   29.77    2.51
  -1   3 -21   31.81    2.44
   2  -3  21   17.63    2.77
  -2  -3 -21   19.88    2.68
   3  -3  21    0.04    2.17
  -3  -3 -21    1.97    2.03
  -2  -4  21    8.09    2.29
  -2   4  21    2.08    1.79
   2   4 -21    1.74    1.38
   1  -4 -21   21.02    1.99
  -1   4  21   22.97    2.37
   0  -4  21    9.98    2.08
   0  -4 -21    7.36    1.67
   0   4  21    5.10    1.78
   1  -4  21   20.32    2.24
  -1  -4 -21   22.19    2.68
   1  -4  21   12.32    2.00
   1   4  21   22.61    2.48
  -2  -4 -21    0.43    1.88
   2  -4  21    2.91    1.97
   2  -5 -21   26.41    3.18
  -2   5  21   20.61    3.23
   2   5 -21   20.67    2.28
   1  -5 -21   17.03    2.14
  -1   5  21   16.86    2.80
   0  -5 -21   13.82    2.27
   0   5  21   10.66    2.51
   1  -5  21   -0.30    1.53
  -1  -5 -21   -0.69    1.60
   3   0 -22   39.52    2.82
  -2   0  22   70.88    2.57
   2   0 -22   66.46    3.27
   2   0 -22   68.87    2.86
   1   0 -22    1.11    1.04
  -1   0  22    1.44    0.96
   1   0 -22    1.88    0.79
   0   0 -22   20.57    1.67
   0   0  22   22.38    1.64
   1   0  22  157.58    3.99
  -1   0 -22  154.63    4.36
   2   0  22   16.51    2.17
  -2   0 -22   16.96    1.80
   3   0  22    4.23    1.92
  -3   0 -22    4.40    1.44
   3  -1 -22   11.54    1.89
  -3  -1  22    6.41    1.24
  -3   1  22   10.11    1.48
   3   1 -22   12.14    1.87
  -2  -1  22   12.79    1.46
   2  -1 -22   15.02    1.87
   2  -1 -22   16.03    1.68
   2   1 -22   13.52    1.45
  -2   1  22   13.13    1.49
   1  -1 -22   14.83    1.34
   1  -1 -22   12.94    1.47
  -1  -1  22   11.97    1.35
  -1   1  22   12.03    1.40
   1   1 -22   11.20    1.65
   0  -1 -22   86.51    3.00
   0  -1  22   85.15    2.64
   0  -1 -22   85.38    2.24
   0   1  22   85.01    2.87
   0   1 -22   82.61    3.05
   1  -1  22   28.50    1.70
  -1  -1 -22   26.12    2.02
  -1   1 -22   29.03    1.99
   1   1  22   25.30    1.98
   2  -1  22   -0.78    1.62
  -2  -1 -22    4.92    1.49
  -2   1 -22    2.53    1.14
   2   1  22    2.85    1.35
  -3  -1 -22    6.17    1.84
   3  -1  22    6.84    2.28
  -3  -2  22    4.08    1.54
   3  -2 -22    7.43    1.83
  -3   2  22    7.83    1.73
   3   2 -22    7.08    1.70
   2  -2 -22   14.56    1.75
   2  -2 -22   12.01    1.63
  -2  -2  22   13.43    1.65
   2   2 -22   12.15    1.54
  -2   2  22    9.29    1.66
   1  -2 -22   30.44    1.98
   1  -2 -22   27.26    1.76
  -1  -2  22   29.30    2.09
  -1   2  22   28.05    2.24
   0  -2 -22    0.33    1.01
   0  -2  22    0.63    1.14
   0   2  22    0.58    1.19
   0   2 -22   -0.58    1.09
   1  -2  22    7.21    1.19
  -1  -2 -22    8.52    1.56
  -1   2 -22    7.89    1.42
   1   2  22    7.42    1.45
  -2  -2 -22   18.60    2.33
   2  -2  22   17.80    2.74
  -2   2 -22   19.88    1.90
   3  -2  22    3.01    2.23
  -3  -2 -22    8.35    2.35
   3  -3 -22    9.71    2.01
  -3   3  22    8.60    1.94
   3   3 -22   11.51    1.97
   2  -3 -22    1.95    1.09
   2  -3 -22   -0.31    1.13
  -2  -3  22    1.93    1.76
   2   3 -22    0.48    1.26
  -2   3  22    1.54    1.56
   1  -3 -22    6.42    1.29
  -1  -3  22    5.86    1.50
  -1   3  22    3.87    1.53
   0  -3  22   34.59    2.66
   0  -3 -22   33.97    2.40
   0   3  22   31.82    2.50
   1  -3  22   31.97    2.43
  -1  -3 -22   31.96    2.55
  -1   3 -22   31.99    2.47
   1   3  22   32.03    2.49
   2  -3  22   15.38    2.66
  -2  -3 -22   17.67    2.72
   2   4 -22   18.71    2.09
  -2   4  22   19.18    2.49
   1  -4 -22   27.53    2.21
  -1  -4  22   31.74    2.92
  -1   4  22   27.63    2.60
   0  -4 -22    7.85    1.63
   0  -4  22    5.23    1.62
   0   4  22    7.16    1.97
   1  -4  22    1.56    1.53
  -1  -4 -22    2.01    1.69
   1  -4  22    3.69    1.72
   1   4  22    5.30    2.07
  -2  -4 -22   16.93    2.86
   2  -4  22   17.13    2.98
  -2   5  22    7.59    2.56
   1  -5 -22    3.44    1.49
  -1   5  22    1.63    2.20
   0  -5 -22    1.13    1.62
   0   5  22    3.54    2.09
   1  -5  22   11.89    2.11
  -1  -5 -22   16.72    2.70
   3   0 -23    0.95    1.43
   2   0 -23    0.62    1.06
  -2   0  23    0.56    1.06
   2   0 -23   -0.07    1.36
  -1   0  23    0.04    0.98
   1   0 -23   -1.58    0.73
   1   0 -23    1.67    1.09
   0   0  23    0.73    1.00
   0   0 -23   -0.01    0.92
   1   0  23    2.16    1.07
  -1   0 -23    0.30    1.06
  -2   0 -23    0.81    1.16
   2   0  23    0.47    1.48
   3   0  23    0.67    1.69
  -3   0 -23   -1.17    1.26
   3  -1 -23    0.51    1.46
   3   1 -23    1.20    1.41
  -3   1  23    0.87    1.26
  -2  -1  23    2.09    1.17
   2  -1 -23    0.30    1.20
   2  -1 -23    0.70    1.12
  -2   1  23   -0.86    1.06
   2   1 -23    1.36    1.06
   1  -1 -23    0.23    0.96
   1  -1 -23    2.05    0.87
  -1  -1  23    1.23    1.06
   1   1 -23   -0.74    0.82
   1   1 -23    1.74    1.17
  -1   1  23    1.10    1.10
   0  -1 -23   49.17    1.68
   0  -1  23   52.91    2.17
   0  -1 -23   49.87    2.35
   0   1  23   51.02    2.38
   0   1 -23   52.33    2.50
  -1  -1 -23   20.97    1.97
   1  -1  23   21.90    1.72
  -1   1 -23   22.14    1.86
   1   1  23   27.26    2.03
  -2  -1 -23   11.31    1.86
   2  -1  23   10.66    2.22
   2   1  23   11.23    2.13
  -2   1 -23   10.98    1.49
  -3  -1 -23    2.07    1.70
   3  -1  23    0.99    1.93
   3  -2 -23    9.99    2.04
  -3  -2  23    5.38    1.86
  -3   2  23    4.99    1.71
   3   2 -23    9.10    1.91
   2  -2 -23    0.96    1.17
   2  -2 -23   -1.05    1.08
  -2  -2  23    3.23    1.50
   2   2 -23    0.60    1.14
  -2   2  23    0.01    1.37
  -1  -2  23    9.17    1.54
   1  -2 -23   10.64    1.46
   1  -2 -23   11.08    1.27
  -1   2  23   10.40    1.57
   0  -2  23    8.15    1.44
   0  -2 -23    9.17    1.44
   0   2 -23    7.09    1.61
   0   2  23    6.39    1.44
  -1  -2 -23    8.19    1.70
   1  -2  23    9.00    1.33
   1   2  23    9.35    1.54
  -1   2 -23    9.12    1.55
   2  -2  23   19.15    2.88
  -2  -2 -23   19.49    2.32
  -2   2 -23   21.80    2.03
   3  -2  23    1.59    2.20
  -3  -2 -23    4.64    2.14
   3  -3 -23   11.86    2.22
   3   3 -23   13.19    2.13
  -3   3  23    9.84    2.12
   2  -3 -23    2.30    1.29
   2  -3 -23   -0.52    1.04
  -2   3  23    2.45    1.64
   2   3 -23    1.32    1.34
  -1  -3  23   -0.55    1.63
   1  -3 -23    1.85    1.15
  -1   3  23    2.57    1.52
   0  -3 -23    9.02    1.66
   0  -3  23    8.43    1.88
   0   3  23    7.11    1.68
  -1  -3 -23   15.77    2.07
   1  -3  23   15.31    1.76
   1   3  23   12.52    1.95
  -1   3 -23   19.08    2.20
  -2  -3 -23    1.69    1.82
   2  -3  23   -2.44    1.64
  -2  -4  23    4.06    2.24
   2   4 -23   -2.25    1.38
  -2   4  23   -1.62    1.78
  -1  -4  23   20.40    2.96
   1  -4 -23   18.97    2.01
  -1   4  23   20.28    2.40
   0  -4  23    5.95    1.98
   0  -4 -23    6.44    1.76
   0   4  23    5.61    1.83
   1  -4  23    3.41    1.72
   1  -4  23    2.24    1.46
  -1  -4 -23    1.63    1.74
   1   4  23    0.35    1.67
   2  -4  23    3.57    2.04
  -2  -4 -23    5.94    2.32
   1  -5 -23    4.11    1.70
  -1   5  23    0.70    2.22
   0  -5 -23    1.85    1.71
   0   5  23    0.34    1.96
   1  -5  23    6.92    2.00
  -1  -5 -23   14.45    2.56
  -3   0  24    0.15    1.13
   3   0 -24    1.64    1.42
   2   0 -24    2.45    1.54
   2   0 -24    2.42    1.20
  -2   0  24    2.61    1.20
   1   0 -24    2.42    1.14
   1   0 -24    1.62    0.92
  -1   0  24    2.62    1.13
   0   0  24    1.62    1.06
   0   0 -24    2.93    1.17
  -1   0 -24   81.35    3.10
   1   0  24   81.38    2.86
   2   0  24    1.52    1.61
  -2   0 -24    5.88    1.37
  -3   0 -24    5.92    1.70
  -3  -1  24   -0.37    1.26
   3  -1 -24    0.06    1.41
  -3   1  24   -0.23    1.29
   3   1 -24    1.57    1.43
   2  -1 -24   -0.25    1.08
   2  -1 -24   -0.38    1.29
  -2  -1  24   -0.52    1.10
  -2   1  24    0.22    1.19
   2   1 -24    0.82    1.08
  -1  -1  24   19.22    1.63
   1  -1 -24   16.84    1.40
   1  -1 -24   18.24    1.85
   1   1 -24   20.40    1.69
  -1   1  24   14.89    1.65
   1   1 -24   16.54    2.07
   0  -1  24   35.26    2.07
   0  -1 -24   33.60    2.12
   0  -1 -24   33.06    1.45
   0   1 -24   34.67    2.18
   0   1  24   37.10    2.25
   1  -1  24   15.61    1.48
  -1  -1 -24   17.59    1.89
   1   1  24   15.98    1.64
  -1   1 -24   16.50    1.82
   2  -1  24    7.45    2.22
  -2  -1 -24    8.13    1.70
  -2   1 -24    7.58    1.47
  -3  -1 -24    7.71    2.09
   3  -1  24    8.52    2.46
   3  -2 -24    9.32    1.95
  -3  -2  24    5.23    1.96
  -3   2  24    2.18    1.69
   3   2 -24    9.88    1.95
   2  -2 -24   57.12    2.89
  -2  -2  24   61.90    3.34
   2  -2 -24   63.91    3.00
   2   2 -24   57.70    2.91
  -2   2  24   63.30    3.15
   1  -2 -24   10.70    1.58
   1  -2 -24    8.96    1.22
  -1  -2  24    8.64    1.56
  -1   2  24    4.57    1.46
   0  -2  24    0.94    1.25
   0  -2 -24   -0.36    1.14
   0   2 -24   -1.00    1.27
   0   2  24    1.04    1.33
  -1  -2 -24   15.78    2.03
   1  -2  24   15.26    1.53
  -1   2 -24   15.44    1.88
   1   2  24   17.62    1.87
  -2  -2 -24   28.48    2.64
   2  -2  24   23.68    3.00
  -2   2 -24   27.18    2.22
  -3  -2 -24    2.42    1.93
   3  -2  24    5.56    2.56
   3  -3 -24    3.32    1.82
  -3   3  24    2.04    1.84
   3   3 -24    5.09    1.86
   2  -3 -24   15.44    1.84
   2  -3 -24   17.27    1.87
  -2  -3  24   15.66    2.24
   2   3 -24   16.77    1.92
  -2   3  24   13.26    2.13
  -1  -3  24   29.42    2.83
   1  -3 -24   29.37    2.11
  -1   3  24   27.36    2.39
   0  -3  24   36.89    2.96
   0  -3 -24   33.83    2.46
   0   3  24   32.69    2.70
  -1  -3 -24    7.67    1.73
   1  -3  24    8.17    1.71
   1   3  24   10.66    1.80
  -1   3 -24   16.50    2.16
  -2  -3 -24    0.16    1.69
   2  -3  24    0.78    1.99
   2   4 -24    9.26    1.89
  -2   4  24   11.67    2.36
   1  -4 -24    2.25    1.34
  -1   4  24    1.71    1.76
   0  -4  24    9.37    2.13
   0  -4 -24   11.15    1.99
   0   4  24    7.91    2.04
   1  -4  24    2.31    1.53
  -1  -4 -24    8.00    1.86
   1  -4  24    7.04    1.80
   1   4  24    9.65    2.25
   2  -4  24   15.41    2.82
  -2  -4 -24   26.14    3.02
   1  -5 -24   16.08    2.36
  -1   5  24   15.81    2.89
   0  -5 -24   12.23    2.24
   0   5  24   12.42    2.48
  -1  -5 -24    3.41    2.05
   1  -5  24   -0.59    1.54
   1   5  24   -0.58    2.09
   3   0 -25   -0.02    1.38
  -3   0  25    2.49    1.25
   2   0 -25    0.20    1.45
   2   0 -25    2.49    1.25
  -2   0  25   -1.35    1.14
   1   0 -25   -0.25    1.17
   1   0 -25    0.75    0.93
  -1   0  25   -0.22    1.09
   0   0 -25   -0.39    0.99
   0   0  25    0.46    1.13
  -1   0 -25   -0.24    1.07
   1   0  25    0.56    1.13
   2   0  25   -0.13    1.50
  -2   0 -25    0.12    1.28
  -3   0 -25    0.12    1.45
  -3  -1  25   -1.39    1.22
   3  -1 -25    0.64    1.56
  -3   1  25   -1.37    1.33
   3   1 -25    1.74    1.52
  -2  -1  25    0.90    1.22
   2  -1 -25    1.87    1.17
   2  -1 -25    0.82    1.34
  -2   1  25    1.15    1.28
   2   1 -25    0.33    1.12
   1  -1 -25    1.78    0.91
   1  -1 -25    2.48    1.20
  -1  -1  25    2.60    1.20
   1   1 -25    1.93    1.48
   1   1 -25   -0.07    0.92
  -1   1  25    1.07    1.32
   0  -1  25   33.67    2.12
   0  -1 -25   32.29    1.49
   0  -1 -25   31.25    2.20
   0   1 -25   34.56    2.29
   0   1  25   29.08    2.26
  -1  -1 -25    0.62    1.20
   1  -1  25    1.81    1.14
   1   1  25    2.30    1.33
  -1   1 -25    2.64    1.26
  -2  -1 -25    6.29    1.68
   2  -1  25    1.84    1.91
  -2   1 -25    4.82    1.38
   3  -1  25    0.27    2.01
  -3  -1 -25    2.50    1.66
  -3  -2  25    1.60    1.86
   3  -2 -25    2.88    1.69
   3   2 -25   -0.54    1.47
  -3   2  25    3.24    1.72
   2  -2 -25   10.94    1.69
   2  -2 -25   12.02    1.77
  -2  -2  25    6.57    1.80
  -2   2  25   11.05    1.86
   2   2 -25   11.85    1.74
   1  -2 -25   22.31    1.75
  -1  -2  25   25.76    2.12
   1  -2 -25   22.08    2.05
  -1   2  25   21.63    2.03
   0  -2 -25   11.47    1.67
   0  -2  25   10.56    1.56
   0   2  25   12.96    1.78
   0   2 -25   12.06    1.87
   1  -2  25   20.36    1.77
  -1  -2 -25   20.99    2.21
   1   2  25   22.52    2.07
  -1   2 -25   23.24    2.24
  -2  -2 -25    4.84    1.88
   2  -2  25    4.70    2.20
  -2   2 -25    3.80    1.40
   2  -3 -25    0.74    1.36
   2  -3 -25    3.79    1.35
  -2  -3  25    1.61    1.84
   2   3 -25    1.53    1.42
  -2   3  25    1.17    1.62
   1  -3 -25    3.04    1.24
  -1   3  25    0.65    1.57
   0  -3 -25    5.95    1.55
   0  -3  25    6.82    1.98
   0   3  25    5.45    1.60
   1  -3  25    9.27    1.68
  -1  -3 -25    8.17    1.88
   1   3  25    8.29    1.82
  -1   3 -25    9.72    1.93
   2  -3  25   33.24    3.55
  -2  -3 -25   31.21    3.05
   2   4 -25    2.94    1.80
  -2   4  25    0.51    1.95
  -1  -4  25   -1.01    1.60
   1  -4 -25    2.46    1.41
  -1   4  25    0.43    1.77
   0  -4 -25   12.08    2.00
   0  -4  25   13.51    2.33
   0   4  25   13.63    2.25
  -1  -4 -25    8.61    2.00
   1  -4  25    4.26    1.73
   1   4  25    9.08    2.23
  -1  -5  25    2.21    2.39
  -1   5  25    5.87    2.46
   0  -5 -25    2.48    1.78
   0   5  25    5.55    2.19
  -3   0  26   10.83    1.65
   3   0 -26   11.44    1.98
   2   0 -26   79.71    3.24
  -2   0  26   81.57    3.04
   2   0 -26   73.69    3.62
  -1   0  26   58.81    2.60
   1   0 -26   58.69    2.40
   1   0 -26   57.63    2.97
   0   0 -26   79.55    3.19
   0   0  26   89.56    3.05
  -1   0 -26   -0.13    1.18
   1   0  26   -0.58    1.11
   2   0  26   52.42    3.27
  -2   0 -26   50.88    2.75
  -3  -1  26    0.25    1.50
   3  -1 -26    0.84    1.59
  -3   1  26    0.95    1.47
   3   1 -26    2.66    1.61
   2  -1 -26    1.22    1.45
   2  -1 -26    1.45    1.26
  -2  -1  26   -0.25    1.27
  -2   1  26   -0.21    1.30
   2   1 -26    0.76    1.15
   1  -1 -26  151.89    4.11
  -1  -1  26  165.16    4.40
   1  -1 -26  156.15    4.77
   1   1 -26  154.67    5.12
  -1   1  26  149.58    4.53
   1   1 -26  170.35    4.40
   0  -1 -26    9.63    1.02
   0  -1  26   12.32    1.48
   0  -1 -26   12.60    1.70
   0   1  26    8.86    1.56
   0   1 -26   11.68    1.66
  -1  -1 -26    5.79    1.52
   1  -1  26    7.60    1.37
   1   1  26    8.55    1.50
  -1   1 -26    5.83    1.38
  -2  -1 -26    1.36    1.48
   2  -1  26    0.95    1.96
  -2   1 -26   -0.61    1.18
   3  -2 -26    4.92    1.79
   3   2 -26    6.58    1.82
  -3   2  26    2.88    1.83
   2  -2 -26   20.10    2.22
   2  -2 -26   19.57    1.96
  -2  -2  26   18.86    2.33
  -2   2  26   19.58    2.20
   2   2 -26   21.95    2.15
   1  -2 -26    9.70    1.30
   1  -2 -26    8.31    1.63
  -1  -2  26    9.32    1.63
  -1   2  26    7.03    1.67
   0  -2  26   17.32    1.74
   0  -2 -26   20.69    2.04
   0   2 -26   20.84    2.28
   0   2  26   16.26    1.92
  -1  -2 -26   25.17    2.37
   1  -2  26   26.85    2.00
  -1   2 -26   23.93    2.36
   1   2  26   23.02    2.09
  -2  -2 -26   30.71    2.90
   2  -2  26   21.44    2.96
  -2   2 -26   28.00    2.39
  -2  -3  26   34.07    2.99
   2  -3 -26   31.18    2.48
  -2   3  26   34.31    3.03
   2   3 -26   37.03    2.88
   1  -3 -26    2.73    1.38
  -1   3  26    4.42    1.84
   0  -3  26   12.03    2.08
   0  -3 -26   10.07    1.77
   0   3  26   12.09    1.94
   1  -3  26    1.79    1.35
  -1  -3 -26    0.19    1.56
   1   3  26    0.30    1.59
  -1   3 -26    2.70    1.62
  -2  -3 -26    3.29    2.01
   2  -3  26   -1.78    2.04
   2   4 -26   -3.22    1.64
  -2   4  26   -1.25    1.94
   1  -4 -26    2.53    1.49
  -1  -4  26    6.50    2.12
  -1   4  26    5.19    2.02
   0  -4  26    1.23    1.76
   0  -4 -26   -0.06    1.44
   0   4  26    1.08    1.75
  -1  -4 -26    9.29    2.21
   1  -4  26    5.44    1.85
   1   4  26   11.74    2.34
   0  -5 -26    1.25    1.76
   0   5  26    4.36    2.23
  -3   0  27    0.44    1.46
   3   0 -27    1.26    1.54
  -2   0  27    0.56    1.22
   2   0 -27    1.13    1.51
   2   0 -27    2.67    1.30
  -1   0  27    1.12    1.34
   1   0 -27    0.39    1.27
   1   0 -27    0.97    0.99
   0   0  27    0.42    1.20
   0   0 -27   -0.57    1.05
  -1   0 -27   -0.61    1.21
   1   0  27   -1.02    1.20
   2   0  27    0.64    1.66
  -2   0 -27    0.91    1.35
  -3  -1  27    3.56    1.84
   3  -1 -27    8.06    1.90
  -3   1  27    6.65    1.64
   3   1 -27    6.17    1.83
   2  -1 -27    8.81    1.87
  -2  -1  27    8.08    1.74
   2  -1 -27    8.31    1.55
  -2   1  27    7.66    1.70
   2   1 -27    7.32    1.56
   1  -1 -27    0.62    1.19
   1  -1 -27    1.53    0.95
  -1  -1  27    2.05    1.35
   1   1 -27   -0.27    1.45
  -1   1  27    2.31    1.31
   1   1 -27   -0.92    1.00
   0  -1 -27    2.40    0.82
   0  -1  27    2.85    1.28
   0  -1 -27    3.15    1.26
   0   1 -27    4.07    1.39
   0   1  27    2.88    1.40
   1  -1  27   51.11    2.42
  -1  -1 -27   52.52    2.83
   1   1  27   54.60    2.77
  -1   1 -27   53.17    2.74
   2  -1  27   -3.13    1.73
  -2  -1 -27    1.51    1.50
  -2   1 -27    0.41    1.38
   3  -2 -27    0.14    1.60
   3   2 -27    4.31    1.81
   2  -2 -27    7.80    1.62
  -2  -2  27    2.62    1.66
   2  -2 -27    8.21    1.78
   2   2 -27    3.18    1.47
  -2   2  27    2.58    1.63
   1  -2 -27    0.74    1.32
  -1  -2  27    2.01    1.84
  -1   2  27    1.84    1.56
   0  -2 -27   55.01    2.83
   0  -2  27   52.65    2.72
   0   2 -27   53.36    3.14
   0   2  27   51.53    2.96
   1  -2  27    0.89    1.17
  -1  -2 -27   -1.84    1.22
  -1   2 -27   -0.36    1.35
   1   2  27    1.37    1.47
  -2  -2 -27   18.92    2.48
   2  -2  27   16.15    2.86
  -2   2 -27   20.20    2.21
   2  -3 -27    3.71    1.51
  -2  -3  27    7.23    2.41
  -2   3  27    4.56    1.92
   2   3 -27    2.55    1.63
   1  -3 -27    1.61    1.34
  -1   3  27    2.97    1.68
   0  -3  27    1.73    1.81
   0  -3 -27    3.00    1.49
   0   3  27    1.75    1.69
  -1  -3 -27   52.60    3.19
   1  -3  27   49.73    2.91
   1   3  27   48.58    3.26
  -1   3 -27   49.69    3.19
   2  -3  27   -2.71    1.96
  -2  -3 -27    1.82    1.97
  -1  -4  27   17.27    2.55
   1  -4 -27   19.31    2.27
  -1   4  27   16.10    2.52
   0  -4  27   18.42    2.68
   0  -4 -27   14.27    2.19
   0   4  27   12.75    2.29
   1  -4  27   -1.26    1.47
  -1  -4 -27    1.10    1.68
   1   4  27    1.19    2.04
   3   0 -28   73.97    3.73
  -2   0  28   -1.76    1.29
   2   0 -28    0.76    1.22
   2   0 -28    1.50    1.54
   1   0 -28   37.49    2.09
   1   0 -28   33.23    2.58
  -1   0  28   34.80    2.43
   0   0  28   87.31    3.22
   0   0 -28   83.24    3.38
   1   0  28   19.83    1.83
  -1   0 -28   22.77    2.15
  -2   0 -28   36.78    2.55
   2   0  28   34.99    3.07
  -3  -1  28    5.57    2.08
   3  -1 -28    5.01    1.88
   3   1 -28    5.12    1.85
  -3   1  28    3.35    1.67
   2  -1 -28   91.33    3.54
   2  -1 -28   88.68    3.93
  -2  -1  28   89.28    3.56
  -2   1  28   92.57    3.70
   2   1 -28   94.54    3.60
   1  -1 -28   29.56    1.90
  -1  -1  28   29.92    2.37
   1  -1 -28   29.45    2.39
   1   1 -28   28.71    2.17
  -1   1  28   19.45    1.89
   1   1 -28   27.00    2.67
   0  -1 -28    3.53    1.39
   0  -1  28    3.59    1.29
   0   1  28    2.28    1.36
   0   1 -28    4.84    1.55
  -1  -1 -28    0.28    1.31
   1  -1  28    0.69    1.23
   1   1  28    3.02    1.45
  -1   1 -28    3.80    1.42
   2  -1  28    4.51    2.20
  -2  -1 -28    5.55    1.77
  -2   1 -28    8.98    1.80
   2  -2 -28    0.86    1.40
  -2  -2  28    1.43    2.07
   2  -2 -28   -0.60    1.24
  -2   2  28    1.74    1.70
   2   2 -28    0.49    1.40
   1  -2 -28    1.55    1.34
  -1  -2  28   -0.03    1.50
  -1   2  28    0.94    1.55
   0  -2  28    7.57    1.56
   0  -2 -28    8.85    1.62
   0   2 -28   11.60    2.13
   0   2  28    6.95    1.74
   1  -2  28   12.18    1.64
  -1  -2 -28   11.86    2.10
   1   2  28    7.98    1.77
  -1   2 -28   12.50    2.05
   2  -2  28    2.88    2.18
  -2  -2 -28    7.46    2.13
  -2   2 -28    7.05    1.67
   2  -3 -28   -1.21    1.50
  -2  -3  28   -0.63    2.01
   2   3 -28    0.59    1.62
  -2   3  28    0.33    1.85
   1  -3 -28    5.99    1.60
  -1  -3  28    8.29    2.17
  -1   3  28    5.85    1.85
   0  -3 -28    6.22    1.74
   0  -3  28    5.99    1.79
   0   3  28    4.84    1.76
  -1  -3 -28    0.61    1.64
   1  -3  28    0.10    1.32
   1   3  28    0.26    1.62
  -1   3 -28    1.44    1.69
   1  -4 -28   -0.46    1.35
  -1  -4  28    0.00    1.87
  -1   4  28    1.84    2.01
   0  -4 -28    1.66    1.60
   0   4  28    1.55    1.90
   1  -4  28   11.51    2.19
  -1  -4 -28    9.67    2.20
   1  -4  28    3.95    1.81
   1   4  28   13.06    2.41
   2   0 -29    0.73    1.32
   2   0 -29    1.78    1.62
  -2   0  29   -0.52    1.47
   1   0 -29    0.38    1.05
   1   0 -29   -0.17    1.38
  -1   0  29   -2.82    1.31
   0   0  29   -1.04    1.28
   0   0 -29    1.32    1.38
  -1   0 -29    0.19    1.27
   1   0  29    1.41    1.36
   2   0  29    1.14    1.81
  -2   0 -29    1.89    1.44
   2  -1 -29    0.88    1.60
   2  -1 -29    3.95    1.40
  -2  -1  29    0.02    1.47
   2   1 -29    1.81    1.32
  -2   1  29    0.82    1.47
   1  -1 -29    5.00    1.57
  -1  -1  29    1.67    1.44
   1  -1 -29    6.14    1.18
   1   1 -29    5.30    1.45
  -1   1  29    4.13    1.44
   1   1 -29    3.63    1.73
   0  -1 -29   12.28    1.80
   0  -1  29   13.54    1.73
   0   1 -29   14.02    1.96
   0   1  29   11.15    1.74
  -1  -1 -29   -1.08    1.22
   1  -1  29   -1.28    1.23
  -1   1 -29    0.71    1.45
   1   1  29   -0.29    1.37
  -2  -1 -29   -1.08    1.57
   2  -1  29   -1.89    1.88
  -2   1 -29   -0.59    1.36
  -2  -2  29    0.80    1.89
   2  -2 -29   -1.09    1.41
   2  -2 -29    1.92    1.45
   2   2 -29    0.91    1.46
  -2   2  29   -1.06    1.67
   1  -2 -29   33.47    2.48
  -1  -2  29   37.49    3.00
  -1   2  29   37.28    2.88
   0  -2 -29    5.55    1.52
   0  -2  29    5.04    1.53
   0   2  29    3.19    1.72
   0   2 -29    7.89    1.95
  -1  -2 -29    5.81    1.76
   1  -2  29    4.96    1.45
   1   2  29    3.34    1.65
  -1   2 -29    5.32    1.71
   2  -2  29    2.62    2.18
  -2  -2 -29    3.47    1.91
  -2   2 -29    2.97    1.55
  -2  -3  29    5.85    2.37
   2  -3 -29    7.57    3.11
  -2   3  29    1.86    1.94
   2   3 -29    4.51    1.83
  -1  -3  29    9.44    2.41
   1  -3 -29   11.96    1.89
  -1   3  29   11.52    2.19
   0  -3  29   22.35    2.87
   0  -3 -29   23.81    2.42
   0   3  29   22.01    2.43
   1  -3  29    0.02    1.67
  -1  -3 -29   -0.02    1.57
  -1   3 -29    3.41    1.72
   1   3  29    3.17    1.77
   1  -4 -29   11.44    1.94
  -1   4  29   10.76    2.32
   0  -4  29    2.18    2.34
   0  -4 -29    0.68    1.66
   0   4  29    2.78    1.99
   2   0 -30   23.90    2.70
  -2   0  30   19.88    2.14
   2   0 -30   21.23    2.16
  -1   0  30   10.73    1.82
   1   0 -30   12.69    1.53
   1   0 -30   13.76    2.03
   0   0 -30    9.97    1.78
   0   0  30    6.41    1.48
  -1   0 -30   22.92    2.33
   1   0  30   18.21    1.99
  -2   0 -30   -0.16    1.57
  -2  -1  30   31.72    2.67
   2  -1 -30   34.03    2.53
   2  -1 -30   24.30    2.68
   2   1 -30   32.16    2.55
  -2   1  30   24.47    2.28
  -1  -1  30    1.34    1.44
   1  -1 -30    1.50    1.42
   1  -1 -30   -1.63    0.99
  -1   1  30   -1.35    1.34
   1   1 -30   -1.66    1.26
   1   1 -30   -0.75    1.52
   0  -1  30    7.10    1.61
   0  -1 -30    8.09    1.73
   0   1 -30    7.34    1.79
   0   1  30    4.68    1.53
   1  -1  30   13.53    1.67
  -1  -1 -30   10.66    1.88
  -1   1 -30   13.03    2.04
   1   1  30   11.72    1.90
  -2  -1 -30   15.71    2.25
   2  -1  30   10.01    2.60
  -2   1 -30   15.09    2.09
   2  -2 -30    5.33    1.83
   2   2 -30    5.91    1.74
  -2   2  30    5.41    1.93
   1  -2 -30    7.40    1.72
  -1  -2  30    7.02    1.81
  -1   2  30    4.83    1.78
   0  -2  30   28.77    2.54
   0  -2 -30   22.22    2.29
   0   2  30   24.60    2.44
   0   2 -30   26.23    2.76
  -1  -2 -30   39.09    2.86
   1  -2  30   37.07    2.58
  -1   2 -30   37.77    2.92
   1   2  30   37.14    2.94
   2  -2  30    2.18    2.29
  -1  -3  30   19.23    2.47
   1  -3 -30   20.34    2.35
  -1   3  30   16.87    2.40
   0  -3 -30    4.05    1.67
   0  -3  30    0.52    1.80
   0   3  30    2.43    1.82
   1  -3  30    0.36    1.67
  -1  -3 -30    0.26    1.73
   1   3  30   -0.24    1.80
  -1   3 -30    3.67    1.93
   0  -4 -30    8.53    2.08
   0   4  30    6.06    2.05
   2   0 -31    2.60    1.67
   2   0 -31    2.37    1.48
  -2   0  31   -3.15    1.47
   1   0 -31    3.03    1.22
   1   0 -31   -1.32    1.41
  -1   0  31    0.04    1.47
   0   0  31    0.93    1.40
   0   0 -31    0.71    1.40
  -1   0 -31   -0.23    1.48
   1   0  31    1.40    1.43
  -2   0 -31   -0.02    1.51
  -2  -1  31    0.98    1.61
   2  -1 -31    3.10    1.37
   2  -1 -31    0.93    1.71
   2   1 -31   -1.28    1.33
  -2   1  31    0.00    1.56
   1  -1 -31   -0.68    1.33
   1  -1 -31    0.18    1.32
  -1  -1  31   -2.09    1.56
   1   1 -31   -1.70    1.22
   1   1 -31   -1.38    1.56
  -1   1  31    0.91    1.48
   0  -1  31   -0.80    1.34
   0  -1 -31    1.26    1.56
   0   1 -31    0.37    1.51
   0   1  31   -2.08    1.38
  -1  -1 -31   -0.38    1.35
   1  -1  31   -0.16    1.34
   1   1  31   -0.42    1.58
  -1   1 -31    0.57    1.51
   2  -1  31   -2.01    2.00
  -2  -1 -31   -0.29    1.58
  -2   1 -31   -1.98    1.40
  -2  -2  31   -2.13    1.88
   2  -2 -31   -0.58    1.55
   2   2 -31    1.82    1.71
  -2   2  31   -0.13    1.82
   1  -2 -31   -1.86    1.28
  -1  -2  31   -0.88    1.73
  -1   2  31   -0.46    1.63
   0  -2 -31    0.12    1.48
   0  -2  31    1.27    1.55
   0   2  31   -3.27    1.59
   0   2 -31    2.92    1.96
  -1  -2 -31    0.29    1.53
   1  -2  31    1.80    1.49
   1   2  31    2.52    1.71
  -1   2 -31    0.60    1.64
  -1  -3  31    7.86    2.72
   1  -3 -31    2.52    1.66
  -1   3  31    2.14    1.96
   0  -3 -31   10.64    1.95
   0   3  31    6.66    1.99
   1  -3  31    0.65    1.59
  -1  -3 -31    0.61    1.61
  -1   3 -31    3.65    1.92
   1   3  31    0.40    1.83
  -2   0  32    1.10    1.64
   2   0 -32    3.51    1.78
   2   0 -32    0.25    1.40
  -1   0  32   16.38    2.03
   1   0 -32   23.61    2.61
   1   0 -32   23.69    2.15
   0   0  32   25.24    2.32
   0   0 -32   32.29    2.64
  -1   0 -32    5.63    1.79
   1   0  32    5.20    1.64
  -2  -1  32    4.53    1.84
   2  -1 -32    7.78    1.67
   2  -1 -32    4.80    1.95
   2   1 -32    7.41    1.80
  -2   1  32    5.17    1.77
  -1  -1  32    5.57    1.83
   1  -1 -32    6.87    1.81
  -1   1  32    5.14    1.65
   1   1 -32    8.47    2.08
   1   1 -32    7.58    1.60
   0  -1 -32    2.54    1.54
   0  -1  32    2.85    1.58
   0   1 -32    2.86    1.77
   0   1  32   -1.32    1.49
  -1  -1 -32   10.87    2.05
   1  -1  32    6.71    1.65
  -1   1 -32    7.23    1.84
   1   1  32    9.84    1.91
   1  -2 -32   20.27    2.32
  -1  -2  32   16.59    2.13
  -1   2  32   15.73    2.30
   0  -2 -32   11.97    2.12
   0  -2  32   12.03    1.90
   0   2 -32   13.82    2.40
   0   2  32   11.87    2.10
  -1  -2 -32   13.18    2.28
   1  -2  32   15.40    1.97
   1   2  32   15.28    2.26
  -1   2 -32   18.43    2.52
  -1  -3  32    5.73    2.43
   1  -3 -32    6.79    1.88
  -1   3  32    3.89    2.07
   0  -3 -32    0.00    1.50
   0  -3  32    0.43    1.86
   0   3  32    0.87    1.91
   2   0 -33    2.88    1.90
   2   0 -33    0.07    1.45
  -2   0  33   -2.28    1.61
   1   0 -33    3.83    1.34
   1   0 -33    1.55    1.62
  -1   0  33    0.43    1.65
   0   0 -33   -2.85    1.43
   0   0  33   -0.54    1.55
   1   0  33    0.83    1.57
  -1   0 -33   -1.97    1.46
   2  -1 -33    3.19    1.98
  -2  -1  33    0.28    1.82
   2  -1 -33    1.00    1.43
  -2   1  33    2.02    1.79
   2   1 -33    0.70    1.63
   1  -1 -33    1.84    1.56
  -1  -1  33   -1.89    1.55
   1   1 -33    2.41    1.83
  -1   1  33    0.96    1.61
   1   1 -33   -3.03    1.23
   0  -1 -33    3.33    1.68
   0  -1  33    1.29    1.54
   0   1 -33    2.10    1.81
   0   1  33    4.67    1.68
  -1  -1 -33    5.71    1.93
   1  -1  33    1.63    1.58
   1   1  33    2.39    1.78
  -1   1 -33    3.45    1.73
  -1  -2  33    0.53    1.79
   1  -2 -33    0.21    1.49
  -1   2  33    0.06    1.82
   1   2 -33   -2.25    1.52
   0  -2 -33    0.17    1.52
   0  -2  33    0.96    1.54
   0   2  33    0.92    1.77
   0   2 -33   -0.32    1.86
  -1  -2 -33    8.71    2.14
   1  -2  33    5.43    1.79
   1   2  33    5.84    2.06
  -1   2 -33    6.94    2.08
  -1   0  34   49.65    3.10
   1   0 -34   54.81    2.83
   1   0 -34   46.13    3.27
   0   0  34    5.57    1.69
   0   0 -34    4.94    1.80
   1   0  34    0.45    1.67
  -1   0 -34    0.09    1.52
  -1  -1  34   -1.74    1.74
   1  -1 -34   -0.74    1.42
  -1   1  34   -0.80    1.60
   1   1 -34   -0.04    1.80
   1   1 -34   -0.18    1.40
   0  -1 -34    8.97    1.96
   0  -1  34    8.95    1.96
   0   1  34    4.35    1.74
   0   1 -34    8.29    2.15
   1  -1  34   17.12    2.18
  -1  -1 -34   17.42    2.46
   1   1  34   14.18    2.31
  -1   1 -34   17.31    2.50
   1  -2 -34   15.60    2.40
  -1  -2  34   12.77    2.53
   1   2 -34   11.95    2.09
  -1   2  34   10.73    2.19
   0  -2  34   22.58    2.50
   0  -2 -34   19.36    2.56
   0   2  34   13.97    2.32
   0   2 -34   25.03    2.89
  -1   0  35   -0.29    1.63
   1   0 -35    2.11    1.74
   0   0 -35    0.42    1.61
   0   0  35   -0.21    1.48
   1  -1 -35    2.15    1.68
  -1  -1  35   -2.18    1.76
   1   1 -35    1.27    1.59
  -1   1  35   -0.19    1.66
   1   1 -35    0.66    1.81
   0  -1 -35   -0.31    1.59
   0  -1  35    0.31    1.69
   0   1 -35    1.36    1.79
   0   1  35    3.19    1.79
   0   0   0    0.00    0.00
;
_shelx_hkl_checksum              73338
_shelx_shelxl_version_number     2014/7
_olex2_submission_special_instructions 'No special instructions were received'
loop_
_space_group_symop_operation_xyz
'x, y, z'
'-x, y+1/2, -z+1/2'
'-x, -y, -z'
'x, -y-1/2, z-1/2'
loop_
_atom_site_label
_atom_site_type_symbol
_atom_site_fract_x
_atom_site_fract_y
_atom_site_fract_z
_atom_site_U_iso_or_equiv
_atom_site_adp_type
_atom_site_occupancy
_atom_site_site_symmetry_order
_atom_site_calc_flag
_atom_site_refinement_flags_posn
Cl1 Cl 0.1042(2) 0.21753(17) 0.53263(3) 0.0222(3) Uani 1 1 d .
N1 N 0.1066(7) 0.1237(5) 0.63833(9) 0.0157(7) Uani 1 1 d .
N2 N 0.1777(7) 0.1535(5) 0.68199(9) 0.0147(7) Uani 1 1 d .
N3 N 0.3478(8) 0.3347(5) 0.69484(9) 0.0151(7) Uani 1 1 d .
N4 N 0.5611(8) 0.6313(5) 0.65063(10) 0.0181(7) Uani 1 1 d .
C2 C 0.3958(9) 0.4368(6) 0.65544(11) 0.0155(8) Uani 1 1 d .
C3 C 0.2466(8) 0.3034(6) 0.62085(11) 0.0142(8) Uani 1 1 d .
C5 C 0.4319(9) 0.5725(6) 0.57086(12) 0.0176(9) Uani 1 1 d .
H5 H 0.4535 0.6291 0.5414 0.021 Uiso 1 1 calc R
C6 C 0.5695(9) 0.6937(6) 0.60855(12) 0.0180(8) Uani 1 1 d .
H6 H 0.6769 0.8319 0.6029 0.022 Uiso 1 1 calc R
C1 C 0.0709(10) -0.0083(7) 0.71434(12) 0.0223(9) Uani 1 1 d .
H1A H -0.0611 -0.1268 0.6987 0.033 Uiso 1 1 calc GR
H1B H -0.0752 0.0640 0.7358 0.033 Uiso 1 1 calc GR
H1C H 0.2767 -0.0715 0.7304 0.033 Uiso 1 1 calc GR
C4 C 0.2702(9) 0.3765(7) 0.57668(11) 0.0164(8) Uani 1 1 d .
loop_
_atom_site_aniso_label
_atom_site_aniso_U_11
_atom_site_aniso_U_22
_atom_site_aniso_U_33
_atom_site_aniso_U_23
_atom_site_aniso_U_13
_atom_site_aniso_U_12
Cl1 0.0240(5) 0.0238(6) 0.0186(4) -0.0039(4) 0.0005(3) -0.0054(5)
N1 0.0120(16) 0.0149(18) 0.0201(15) -0.0016(14) 0.0002(12) 0.0018(14)
N2 0.0141(16) 0.0101(18) 0.0201(15) -0.0016(13) 0.0024(12) -0.0002(13)
N3 0.0143(15) 0.0082(17) 0.0229(16) -0.0019(13) 0.0017(12) 0.0012(14)
N4 0.0115(16) 0.0146(18) 0.0283(17) -0.0029(14) 0.0018(13) -0.0006(14)
C2 0.0116(18) 0.014(2) 0.0209(18) -0.0028(16) 0.0020(14) 0.0023(16)
C3 0.0092(17) 0.014(2) 0.0200(17) -0.0014(16) 0.0019(14) -0.0004(16)
C5 0.016(2) 0.015(2) 0.0231(18) 0.0013(16) 0.0046(15) 0.0019(17)
C6 0.0132(18) 0.011(2) 0.030(2) -0.0006(16) 0.0044(15) 0.0006(17)
C1 0.023(2) 0.021(2) 0.0232(19) 0.0053(17) 0.0020(16) -0.0025(18)
C4 0.0127(19) 0.018(2) 0.0187(18) -0.0044(16) 0.0011(15) 0.0036(17)
loop_
_atom_type_symbol
_atom_type_description
_atom_type_scat_dispersion_real
_atom_type_scat_dispersion_imag
_atom_type_scat_source
C C 0.0033 0.0016 'International Tables Vol C Tables 4.2.6.8 and 6.1.1.4'
H H 0.0000 0.0000 'International Tables Vol C Tables 4.2.6.8 and 6.1.1.4'
Cl Cl 0.1484 0.1585 'International Tables Vol C Tables 4.2.6.8 and 6.1.1.4'
N N 0.0061 0.0033 'International Tables Vol C Tables 4.2.6.8 and 6.1.1.4'
loop_
_geom_angle_atom_site_label_1
_geom_angle_atom_site_label_2
_geom_angle_atom_site_label_3
_geom_angle
N2 N1 C3 102.1(3)
N1 N2 C1 120.8(3)
N3 N2 N1 117.9(3)
N3 N2 C1 121.3(3)
N2 N3 C2 102.5(3)
C6 N4 C2 113.0(3)
N3 C2 C3 107.9(4)
N4 C2 N3 125.4(3)
N4 C2 C3 126.6(3)
N1 C3 C2 109.7(3)
N1 C3 C4 132.6(3)
C4 C3 C2 117.7(4)
C6 C5 H5 119.9
C4 C5 H5 119.9
C4 C5 C6 120.2(4)
N4 C6 C5 125.5(4)
N4 C6 H6 117.2
C5 C6 H6 117.2
N2 C1 H1A 109.5
N2 C1 H1B 109.5
N2 C1 H1C 109.5
H1A C1 H1B 109.5
H1A C1 H1C 109.5
H1B C1 H1C 109.5
C3 C4 Cl1 120.2(3)
C5 C4 Cl1 122.9(3)
C5 C4 C3 116.9(3)
loop_
_geom_bond_atom_site_label_1
_geom_bond_atom_site_label_2
_geom_bond_distance
Cl1 C4 1.719(5)
N1 N2 1.327(5)
N1 C3 1.330(5)
N2 N3 1.320(5)
N2 C1 1.448(5)
N3 C2 1.348(5)
N4 C2 1.346(5)
N4 C6 1.312(5)
C2 C3 1.404(5)
C3 C4 1.397(6)
C5 H5 0.9500
C5 C6 1.417(6)
C5 C4 1.351(6)
C6 H6 0.9500
C1 H1A 0.9800
C1 H1B 0.9800
C1 H1C 0.9800
loop_
_geom_torsion_atom_site_label_1
_geom_torsion_atom_site_label_2
_geom_torsion_atom_site_label_3
_geom_torsion_atom_site_label_4
_geom_torsion
N1 N2 N3 C2 -0.1(4)
N1 C3 C4 Cl1 -1.5(6)
N1 C3 C4 C5 179.6(4)
N2 N1 C3 C2 -0.5(4)
N2 N1 C3 C4 179.1(4)
N2 N3 C2 N4 -179.7(3)
N2 N3 C2 C3 -0.2(4)
N3 C2 C3 N1 0.5(4)
N3 C2 C3 C4 -179.2(3)
N4 C2 C3 N1 179.9(3)
N4 C2 C3 C4 0.2(5)
C2 N4 C6 C5 -1.7(5)
C2 C3 C4 Cl1 178.1(3)
C2 C3 C4 C5 -0.8(5)
C3 N1 N2 N3 0.4(4)
C3 N1 N2 C1 -179.7(3)
C6 N4 C2 N3 -179.7(3)
C6 N4 C2 C3 1.0(5)
C6 C5 C4 Cl1 -178.7(3)
C6 C5 C4 C3 0.2(5)
C1 N2 N3 C2 180.0(3)
C4 C5 C6 N4 1.2(6)
