#------------------------------------------------------------------------------
#$Date: 2019-11-11 16:18:38 +0200 (Mon, 11 Nov 2019) $
#$Revision: 226518 $
#$URL: file:///home/coder/svn-repositories/cod/cif/4/03/50/4035020.cif $
#------------------------------------------------------------------------------
#
# This file is available in the Crystallography Open Database (COD),
# http://www.crystallography.net/
#
# All data on this site have been placed in the public domain by the
# contributors.
#
data_4035020
loop_
_publ_author_name
'Abranches, Paula Aline da Silva'
'de Paiva, Walysson Ferreira'
'de F\'atima, \^Angelo'
'Martins, Felipe Terra'
'Fernandes, Sergio Antonio'
_publ_section_title
;
 Calix[n]arene-Catalyzed Three-Component Povarov Reaction:
 Microwave-Assisted Synthesis of Julolidines and Mechanistic Insights.
;
_journal_issue                   4
_journal_name_full               'The Journal of organic chemistry'
_journal_page_first              1761
_journal_page_last               1771
_journal_paper_doi               10.1021/acs.joc.7b02532
_journal_volume                  83
_journal_year                    2018
_chemical_formula_sum            'C16 H18 Br N O2'
_chemical_formula_weight         336.21
_space_group_crystal_system      triclinic
_space_group_IT_number           2
_space_group_name_Hall           '-P 1'
_space_group_name_H-M_alt        'P -1'
_atom_sites_solution_hydrogens   geom
_audit_creation_method           SHELXL-2014
_cell_angle_alpha                109.502(16)
_cell_angle_beta                 100.029(16)
_cell_angle_gamma                93.386(16)
_cell_formula_units_Z            2
_cell_length_a                   7.991(3)
_cell_length_b                   8.632(3)
_cell_length_c                   11.023(4)
_cell_measurement_reflns_used    6683
_cell_measurement_temperature    296(2)
_cell_measurement_theta_max      25.423
_cell_measurement_theta_min      2.003
_cell_volume                     700.1(4)
_computing_structure_refinement  'SHELXL-2014 (Sheldrick, 2014)'
_diffrn_ambient_temperature      296(2)
_diffrn_measured_fraction_theta_full 0.988
_diffrn_measured_fraction_theta_max 0.975
_diffrn_measurement_device_type  KappaCCD
_diffrn_radiation_monochromator  multilayer
_diffrn_radiation_source         'fine-focus sealed tube'
_diffrn_radiation_type           MoK\a
_diffrn_radiation_wavelength     0.71073
_diffrn_reflns_av_R_equivalents  0.0349
_diffrn_reflns_av_unetI/netI     0.0311
_diffrn_reflns_Laue_measured_fraction_full 0.988
_diffrn_reflns_Laue_measured_fraction_max 0.975
_diffrn_reflns_limit_h_max       8
_diffrn_reflns_limit_h_min       -9
_diffrn_reflns_limit_k_max       10
_diffrn_reflns_limit_k_min       -8
_diffrn_reflns_limit_l_max       11
_diffrn_reflns_limit_l_min       -13
_diffrn_reflns_number            6683
_diffrn_reflns_point_group_measured_fraction_full 0.988
_diffrn_reflns_point_group_measured_fraction_max 0.975
_diffrn_reflns_theta_full        25.242
_diffrn_reflns_theta_max         25.423
_diffrn_reflns_theta_min         2.003
_exptl_absorpt_coefficient_mu    2.937
_exptl_absorpt_correction_T_max  0.746
_exptl_absorpt_correction_T_min  0.740
_exptl_absorpt_correction_type   multi-scan
_exptl_absorpt_process_details
'Blessing, R. H. (1995) Acta Cryst., A51, 33-38'
_exptl_crystal_colour            colorless
_exptl_crystal_density_diffrn    1.595
_exptl_crystal_description       prism
_exptl_crystal_F_000             344
_exptl_crystal_size_max          0.15
_exptl_crystal_size_mid          0.10
_exptl_crystal_size_min          0.10
_refine_diff_density_max         0.193
_refine_diff_density_min         -0.451
_refine_diff_density_rms         0.057
_refine_ls_extinction_method     none
_refine_ls_goodness_of_fit_ref   1.048
_refine_ls_hydrogen_treatment    constr
_refine_ls_matrix_type           full
_refine_ls_number_parameters     181
_refine_ls_number_reflns         2527
_refine_ls_number_restraints     0
_refine_ls_restrained_S_all      1.048
_refine_ls_R_factor_all          0.0323
_refine_ls_R_factor_gt           0.0265
_refine_ls_shift/su_max          0.001
_refine_ls_shift/su_mean         0.000
_refine_ls_structure_factor_coef Fsqd
_refine_ls_weighting_details
'w=1/[\s^2^(Fo^2^)+(0.0309P)^2^+0.2452P] where P=(Fo^2^+2Fc^2^)/3'
_refine_ls_weighting_scheme      calc
_refine_ls_wR_factor_gt          0.0681
_refine_ls_wR_factor_ref         0.0706
_reflns_Friedel_coverage         0.000
_reflns_number_gt                2204
_reflns_number_total             2527
_reflns_threshold_expression     'I > 2\s(I)'
_cod_data_source_file            jo7b02532_si_002.cif
_cod_data_source_block           1_J1
_cod_database_code               4035020
_shelx_space_group_comment
;
The symmetry employed for this shelxl refinement is uniquely defined
by the following loop, which should always be used as a source of
symmetry information in preference to the above space-group names.
They are only intended as comments.
;
_shelxl_version_number           2014-3
_shelx_res_file
;
TITL NOVO in P-1
CELL  0.71073   7.9912   8.6317  11.0225  109.502  100.029   93.386
ZERR     2.00   0.0028   0.0030   0.0038    0.016    0.016    0.016
LATT   1
SFAC  C    H    N    O    BR
UNIT  32   34   2    4    2
MERG   2
FMAP   2
PLAN   20
ACTA
BOND   $H
CONF
L.S.  10
TEMP    23.00
WGHT    0.030900    0.245200
FVAR       0.22703
BR1   5    0.696276    0.867974    0.523253    11.00000    0.06257    0.04440 =
         0.06422    0.00280    0.02684    0.02093
O2    4    1.137936    0.659124    0.149804    11.00000    0.06038    0.06200 =
         0.06067    0.03497    0.02438    0.01688
C8    1    0.523345    0.004825    0.177253    11.00000    0.05301    0.04312 =
         0.06851    0.00722    0.00850   -0.01069
AFIX  23
H8A   2    0.457258   -0.041551    0.087834    11.00000   -1.20000
H8B   2    0.455707   -0.019068    0.235383    11.00000   -1.20000
AFIX   0
O1    4    0.566027    0.180445    0.213948    11.00000    0.03686    0.04130 =
         0.07447    0.01262   -0.00092   -0.00295
C14   1    1.378329    0.508545    0.132219    11.00000    0.04001    0.05297 =
         0.05085    0.01125    0.01690   -0.00504
AFIX  23
H14A  2    1.483374    0.580406    0.181906    11.00000   -1.20000
H14B  2    1.406136    0.410457    0.068318    11.00000   -1.20000
AFIX   0
C13   1    1.276399    0.462721    0.222979    11.00000    0.03156    0.04742 =
         0.03725    0.01187    0.00813    0.00310
AFIX  13
H13   2    1.352616    0.451282    0.298582    11.00000   -1.20000
AFIX   0
C12   1    1.152477    0.306867    0.148219    11.00000    0.04068    0.03590 =
         0.04256    0.00918    0.01871    0.00776
AFIX  23
H12A  2    1.092328    0.314535    0.066425    11.00000   -1.20000
H12B  2    1.215940    0.212327    0.126722    11.00000   -1.20000
AFIX   0
N1    3    1.028460    0.281292    0.224208    11.00000    0.03791    0.02941 =
         0.03860    0.00660    0.01531    0.00415
C11   1    0.924714    0.120804    0.165605    11.00000    0.04575    0.03019 =
         0.04206    0.00359    0.01450    0.00389
AFIX  23
H11A  2    0.998116    0.035765    0.137569    11.00000   -1.20000
H11B  2    0.843856    0.118848    0.088320    11.00000   -1.20000
AFIX   0
C10   1    0.827346    0.082057    0.260512    11.00000    0.04435    0.03255 =
         0.03691    0.01140    0.00682    0.00164
AFIX  13
H10   2    0.905658    0.064926    0.332560    11.00000   -1.20000
AFIX   0
C7    1    0.721375    0.219898    0.312767    11.00000    0.04092    0.03717 =
         0.03440    0.00960    0.01127   -0.00013
AFIX  13
H7    2    0.693581    0.215959    0.394930    11.00000   -1.20000
AFIX   0
C15   1    1.256104    0.598319    0.065809    11.00000    0.05841    0.05749 =
         0.04937    0.02010    0.01971   -0.00560
AFIX  23
H15A  2    1.319040    0.689605    0.053467    11.00000   -1.20000
H15B  2    1.194932    0.523043   -0.019579    11.00000   -1.20000
AFIX   0
C16   1    1.180401    0.611768    0.265202    11.00000    0.03638    0.03615 =
         0.03702    0.00549    0.00612   -0.00316
AFIX  13
H16   2    1.256985    0.702360    0.335527    11.00000   -1.20000
AFIX   0
C9    1    0.690323   -0.069385    0.188088    11.00000    0.05752    0.03439 =
         0.04903    0.00860    0.01478   -0.00489
AFIX  23
H9A   2    0.710817   -0.130543    0.101711    11.00000   -1.20000
H9B   2    0.689199   -0.143045    0.237958    11.00000   -1.20000
AFIX   0
C6    1    0.801875    0.390874    0.335581    11.00000    0.03337    0.03354 =
         0.02866    0.00671    0.00631    0.00334
C1    1    0.950150    0.415255    0.287685    11.00000    0.03187    0.03128 =
         0.02602    0.00652    0.00418    0.00524
C2    1    1.020285    0.579164    0.311384    11.00000    0.03247    0.03290 =
         0.02821    0.00675    0.00426    0.00247
C3    1    0.944683    0.711448    0.381402    11.00000    0.04059    0.03018 =
         0.03495    0.00572    0.00445    0.00301
AFIX  43
H3    2    0.991819    0.819183    0.397144    11.00000   -1.20000
AFIX   0
C4    1    0.800530    0.685006    0.427888    11.00000    0.04042    0.03422 =
         0.03332    0.00347    0.00769    0.01101
C5    1    0.730779    0.526314    0.406180    11.00000    0.03257    0.04342 =
         0.03169    0.00732    0.00840    0.00605
AFIX  43
H5    2    0.634587    0.509607    0.439312    11.00000   -1.20000
AFIX   0
HKLF    4  1.0  1.00  0.00  0.00  0.00  1.00  0.00  0.00  0.00  1.00

REM  NOVO in P-1
REM R1 =  0.0265 for    2204 Fo > 4sig(Fo)  and  0.0323 for all    2527 data
REM    181 parameters refined using      0 restraints

END

WGHT      0.0275      0.2607

REM Highest difference peak  0.193,  deepest hole -0.451,  1-sigma level  0.057
Q1    1   0.8521  0.4029  0.2867  11.00000  0.05    0.19
Q2    1   1.2561  0.6876  0.0007  11.00000  0.05    0.16
Q3    1   0.7475  0.2372  0.4798  11.00000  0.05    0.16
Q4    1   1.2413  0.5415  0.2635  11.00000  0.05    0.15
Q5    1   1.1410  0.4608 -0.1602  11.00000  0.05    0.15
Q6    1   1.3309  0.4718  0.1800  11.00000  0.05    0.15
Q7    1   1.1692  0.4913 -0.1344  11.00000  0.05    0.15
Q8    1   1.2535  0.3949 -0.1989  11.00000  0.05    0.15
Q9    1   0.2720 -0.0221  0.2423  11.00000  0.05    0.14
Q10   1   1.1698  0.5951  0.4495  11.00000  0.05    0.14
Q11   1   1.2513  0.4896 -0.1609  11.00000  0.05    0.14
Q12   1   0.7816  0.0104  0.2320  11.00000  0.05    0.14
Q13   1   0.6993 -0.2077  0.1572  11.00000  0.05    0.14
Q14   1   1.1031  0.5957  0.3034  11.00000  0.05    0.14
Q15   1   0.8217  0.7008  0.2539  11.00000  0.05    0.14
Q16   1   0.7508 -0.2133  0.2138  11.00000  0.05    0.14
Q17   1   1.1912  0.8818  0.2331  11.00000  0.05    0.14
Q18   1   0.6462 -0.0987  0.3182  11.00000  0.05    0.13
Q19   1   0.3792 -0.0196  0.1212  11.00000  0.05    0.13
Q20   1   1.0839  0.3079  0.3129  11.00000  0.05    0.13
;
_shelx_res_checksum              73378
_shelx_hkl_file
;
  -1   0   0   23.29    0.95
  -1   0   0   21.97    0.94
   1   0   0   23.16    0.95
  -2   0   0  182.46    7.34
  -2   0   0  186.27    7.34
  -2   0   0  187.68    7.78
   2   0   0  164.68    7.32
   2   0   0  183.55    7.67
  -3   0   0   68.41    2.77
  -3   0   0   68.16    2.72
   3   0   0   65.39    2.75
  -4   0   0   29.97    1.26
  -4   0   0   29.96    1.26
  -4   0   0   31.40    1.34
   4   0   0   31.18    1.25
  -5   0   0   25.56    1.10
  -5   0   0   24.11    1.03
  -5   0   0   24.98    1.03
   5   0   0   24.18    1.02
  -6   0   0    5.96    0.31
  -6   0   0    5.75    0.35
   6   0   0    6.52    0.30
  -7   0   0   12.93    0.63
  -7   0   0   13.07    0.59
  -8   0   0   10.15    0.54
  -8   0   0    9.36    0.48
  -9   0   0    3.38    0.31
  -9   0   0    3.72    0.31
  -9   1   0   -0.14    0.19
  -9   1   0   -0.24    0.17
  -8   1   0    2.67    0.22
  -8   1   0    2.28    0.24
  -7   1   0   13.58    0.62
  -7   1   0   14.04    0.67
   6  -1   0    0.08    0.06
   6  -1   0    0.03    0.06
  -6   1   0    0.02    0.12
  -6   1   0   -0.06    0.10
  -6   1   0    0.06    0.09
   5  -1   0   62.47    2.94
   5  -1   0   63.61    2.54
  -5   1   0   62.87    2.56
  -5   1   0   62.84    2.56
   4  -1   0   79.06    3.16
   4  -1   0   77.28    3.64
  -4   1   0   78.87    3.18
  -4   1   0   76.73    3.16
   3  -1   0    1.19    0.07
   3  -1   0    1.23    0.06
   3  -1   0    1.14    0.07
  -3   1   0    1.22    0.06
  -3   1   0    1.30    0.09
  -3   1   0    1.14    0.08
   2  -1   0   46.05    1.82
   2  -1   0   46.80    1.83
   2  -1   0   44.19    1.90
  -2   1   0   46.04    1.90
  -2   1   0   46.61    1.84
  -2   1   0   41.97    1.82
  -2   1   0   42.80    2.11
   1  -1   0   29.64    1.23
  -1   1   0   27.22    1.18
  -1   1   0   29.87    1.25
  -1   1   0   29.87    1.19
   0  -1   0    2.33    0.10
   0  -1   0    1.99    0.12
   0  -1   0    2.37    0.10
   0   1   0    2.25    0.10
   0   1   0    2.20    0.10
  -1  -1   0  224.88    8.41
  -1  -1   0  209.03    8.70
  -1  -1   0  195.12    8.40
   1   1   0  215.30    8.40
   1   1   0  195.47    9.48
   1   1   0  196.75    9.04
   1   1   0  209.69    9.11
  -2  -1   0   24.06    1.03
  -2  -1   0   25.27    1.00
  -2  -1   0   24.59    1.06
  -2  -1   0   24.27    1.00
   2   1   0   24.71    1.03
   2   1   0   25.09    1.00
   2   1   0   23.91    1.06
   2   1   0   23.11    1.00
  -3  -1   0   62.53    2.59
  -3  -1   0   66.66    2.59
   3   1   0   64.80    2.69
   3   1   0   63.86    2.74
   3   1   0   61.53    2.59
  -4  -1   0   71.32    2.97
  -4  -1   0   67.08    2.81
  -4  -1   0   72.45    2.81
   4   1   0   65.54    2.80
   4   1   0   69.03    2.91
  -5  -1   0   24.86    1.15
  -5  -1   0   26.01    1.09
   5   1   0   26.09    1.08
   5   1   0   27.17    1.10
  -6  -1   0    9.23    0.47
  -6  -1   0    8.77    0.44
   6   1   0    9.21    0.40
   6   1   0    9.72    0.42
  -7  -1   0    0.56    0.15
  -7  -1   0    0.74    0.16
  -8  -1   0    6.49    0.39
  -8  -1   0    6.88    0.40
  -9  -1   0    1.76    0.23
  -9  -1   0    1.83    0.25
  -9   2   0    3.66    0.29
  -9   2   0    3.99    0.34
  -8   2   0    4.14    0.33
  -8   2   0    4.72    0.29
  -7   2   0    5.86    0.36
  -7   2   0    5.79    0.31
  -6   2   0   16.04    0.69
  -6   2   0   16.11    0.70
  -5   2   0    7.27    0.33
  -5   2   0    6.82    0.32
   4  -2   0  101.41    4.12
  -4   2   0   98.76    4.01
  -4   2   0   94.05    3.97
  -4   2   0   98.59    4.12
   3  -2   0   59.50    2.52
  -3   2   0   57.85    2.41
  -3   2   0   62.45    2.42
  -3   2   0   61.14    2.51
  -3   2   0   56.43    2.79
   2  -2   0   55.42    2.36
  -2   2   0   56.69    2.26
  -2   2   0   53.21    2.26
  -2   2   0   57.89    2.37
   1  -2   0   65.99    2.67
  -1   2   0   63.35    2.69
  -1   2   0   63.69    3.36
  -1   2   0   68.02    2.79
  -1   2   0   68.53    2.69
   0  -2   0    0.91    0.07
   0  -2   0    0.97    0.09
   0  -2   0    1.06    0.08
   0   2   0    1.05    0.07
   0   2   0    0.92    0.08
   0   2   0    1.01    0.07
  -1  -2   0  294.87   13.16
  -1  -2   0  337.36   13.66
  -1  -2   0  331.24   13.17
   1   2   0  337.57   13.66
   1   2   0  341.90   13.18
   1   2   0  309.29   13.17
  -2  -2   0   21.02    0.92
  -2  -2   0   20.36    0.89
  -2  -2   0   20.80    0.89
   2   2   0   21.76    0.92
   2   2   0   22.62    0.89
   2   2   0   20.95    0.89
   2   2   0   23.33    0.94
  -3  -2   0   61.18    2.64
  -3  -2   0   62.71    2.55
  -3  -2   0   63.44    2.55
   3   2   0   61.28    2.55
   3   2   0   63.78    2.70
   3   2   0   64.44    2.64
  -4  -2   0   40.94    1.71
  -4  -2   0   37.64    1.62
   4   2   0   39.25    1.61
  -5  -2   0    1.38    0.14
  -5  -2   0    1.23    0.13
   5   2   0    1.63    0.14
  -6  -2   0    6.14    0.35
  -6  -2   0    6.11    0.34
   6   2   0    6.76    0.34
  -7  -2   0    8.11    0.42
  -7  -2   0    7.55    0.42
  -8  -2   0    0.11    0.18
  -8  -2   0    0.12    0.17
  -9   3   0    0.85    0.23
  -9   3   0    0.88    0.19
  -8   3   0    3.44    0.25
  -7   3   0   11.57    0.53
  -6   3   0   28.90    1.23
  -6   3   0   29.47    1.21
   5  -3   0   22.65    0.93
  -5   3   0   21.44    0.91
  -5   3   0   21.73    0.93
  -5   3   0   21.20    0.90
   4  -3   0   18.00    0.77
  -4   3   0   17.59    0.75
  -4   3   0   18.39    0.74
  -4   3   0   18.50    0.78
  -4   3   0   17.48    0.85
   3  -3   0  379.95   15.73
  -3   3   0  387.60   15.76
  -3   3   0  375.10   15.16
  -3   3   0  358.40   15.16
  -2   3   0   41.48    2.23
  -2   3   0   44.40    1.77
  -2   3   0   42.90    1.77
  -2   3   0   46.29    1.85
   1  -3   0  140.59    5.78
   1  -3   0  150.00    7.30
  -1   3   0  135.27    7.24
  -1   3   0  150.63    5.82
  -1   3   0  134.96    5.80
  -1   3   0  146.40    6.07
   0  -3   0   41.76    1.76
   0  -3   0   42.43    2.20
   0   3   0   43.17    1.76
   0   3   0   44.61    1.76
   0   3   0   42.82    2.22
   0   3   0   45.80    1.78
  -1  -3   0   42.34    1.78
  -1  -3   0   41.43    2.22
   1   3   0   47.04    1.79
   1   3   0   44.54    1.79
  -2  -3   0  356.33   14.81
   2   3   0  357.51   14.83
   2   3   0  378.74   14.78
   2   3   0  365.08   15.34
  -3  -3   0   12.97    0.57
   3   3   0   13.03    0.57
   3   3   0   13.59    0.59
  -4  -3   0   31.65    1.34
   4   3   0   32.90    1.38
   4   3   0   32.50    1.35
  -5  -3   0   23.84    1.04
   5   3   0   24.66    1.06
   5   3   0   24.89    1.04
  -6  -3   0   40.74    1.74
   6   3   0   42.47    1.78
   6   3   0   42.11    1.74
  -7  -3   0    0.86    0.18
  -8  -3   0    0.50    0.20
  -9   4   0   -0.17    0.23
  -8   4   0   14.24    0.64
  -7   4   0    0.31    0.13
  -6   4   0    0.00    0.08
  -6   4   0    0.06    0.10
  -5   4   0   48.76    2.08
  -5   4   0   49.45    2.38
  -5   4   0   53.95    2.07
  -5   4   0   51.36    2.15
  -4   4   0    0.29    0.07
  -4   4   0    0.29    0.08
  -4   4   0    0.29    0.08
  -3   4   0    0.64    0.07
  -3   4   0    0.69    0.08
  -3   4   0    0.65    0.13
  -3   4   0    0.58    0.09
  -2   4   0   92.43    4.88
  -2   4   0   93.49    3.93
  -2   4   0  100.77    3.92
  -2   4   0   99.85    4.08
   1  -4   0    0.30    0.04
   1  -4   0    0.19    0.08
  -1   4   0    0.25    0.06
  -1   4   0    0.22    0.06
  -1   4   0    0.14    0.07
  -1   4   0    0.36    0.08
   0  -4   0  100.59    3.95
   0  -4   0   94.48    4.90
   0   4   0   90.75    3.94
   0   4   0  106.21    3.96
   0   4   0   96.59    4.09
   0   4   0   95.71    4.94
  -1  -4   0    7.41    0.42
  -1  -4   0    7.40    0.33
   1   4   0    7.63    0.34
   1   4   0    7.66    0.34
   1   4   0    7.05    0.35
  -2  -4   0   32.90    1.72
  -2  -4   0   34.71    1.39
   2   4   0   33.84    1.39
   2   4   0   33.10    1.44
  -3  -4   0   22.00    0.94
   3   4   0   22.15    0.97
   3   4   0   22.25    0.94
  -4  -4   0    0.59    0.13
   4   4   0    0.56    0.14
   4   4   0    0.49    0.11
  -5  -4   0   -0.20    0.14
   5   4   0    0.23    0.14
   5   4   0    0.29    0.11
  -6  -4   0    8.41    0.47
   6   4   0    9.87    0.46
   6   4   0    9.57    0.47
  -7  -4   0    3.57    0.30
  -8   5   0    0.06    0.16
  -7   5   0   12.56    0.57
  -6   5   0    1.18    0.13
  -6   5   0    1.08    0.14
  -5   5   0   20.15    0.82
  -5   5   0   19.39    0.86
  -5   5   0   18.79    0.94
  -4   5   0   11.56    0.49
  -4   5   0   11.57    0.49
  -4   5   0   10.37    0.65
  -4   5   0   11.24    0.53
  -3   5   0    0.07    0.09
  -3   5   0    0.13    0.08
  -3   5   0    0.15    0.12
  -3   5   0    0.15    0.07
  -2   5   0   68.86    2.92
  -2   5   0   69.55    3.66
  -2   5   0   72.85    3.05
  -2   5   0   77.29    2.93
   1  -5   0   33.90    1.75
   1  -5   0   32.36    1.38
  -1   5   0   38.78    1.40
  -1   5   0   34.31    1.46
  -1   5   0   32.83    1.39
  -1   5   0   31.63    1.74
   0  -5   0   23.92    0.98
   0  -5   0   23.36    1.24
   0   5   0   25.12    0.99
   0   5   0   23.08    0.99
   0   5   0   23.51    1.23
  -1  -5   0    4.23    0.22
  -1  -5   0    4.31    0.28
   1   5   0    4.16    0.25
   1   5   0    4.23    0.24
  -2  -5   0    0.35    0.10
  -2  -5   0    0.18    0.10
   2   5   0    0.18    0.11
   2   5   0    0.32    0.10
  -3  -5   0   31.73    1.62
  -3  -5   0   30.53    1.30
   3   5   0   32.63    1.31
   3   5   0   29.95    1.35
  -4  -5   0   15.37    0.70
   4   5   0   15.88    0.70
   4   5   0   15.58    0.71
  -5  -5   0    1.44    0.19
   5   5   0    1.59    0.17
   5   5   0    1.49    0.20
  -6  -5   0    1.55    0.22
   6   5   0    2.00    0.19
   6   5   0    2.13    0.24
  -7  -5   0    0.30    0.20
  -8   6   0    4.34    0.30
  -7   6   0    4.02    0.26
  -6   6   0   11.84    0.52
  -6   6   0   11.57    0.56
  -5   6   0    3.63    0.35
  -5   6   0    4.23    0.22
  -5   6   0    3.66    0.26
  -4   6   0   31.69    1.36
  -4   6   0   29.22    1.64
  -4   6   0   32.31    1.28
  -3   6   0   12.37    0.54
  -3   6   0   12.01    0.70
  -3   6   0   12.51    0.58
  -3   6   0   12.10    0.53
  -2   6   0    2.40    0.18
  -2   6   0    2.63    0.20
  -2   6   0    2.49    0.20
  -2   6   0    2.28    0.23
   1  -6   0  169.93    6.92
   1  -6   0  176.97    8.66
  -1   6   0  162.91    7.22
  -1   6   0  166.00    9.80
  -1   6   0  183.74    6.93
  -1   6   0  164.80    7.00
   0  -6   0    1.46    0.12
   0  -6   0    1.66    0.19
   0   6   0    1.79    0.15
   0   6   0    1.53    0.15
  -1  -6   0   27.16    1.36
   1   6   0   25.43    1.09
   1   6   0   24.79    1.14
  -2  -6   0    4.47    0.26
  -2  -6   0    4.80    0.32
   2   6   0    3.69    0.28
   2   6   0    4.49    0.29
  -3  -6   0   13.55    0.72
  -3  -6   0   12.38    0.59
   3   6   0   13.08    0.61
   3   6   0   12.23    0.61
  -4  -6   0    1.70    0.21
  -4  -6   0    1.31    0.19
   4   6   0    1.46    0.18
   4   6   0    1.78    0.20
  -5  -6   0    0.19    0.18
   5   6   0   -0.19    0.15
   5   6   0    0.18    0.19
  -6  -6   0    2.80    0.28
   6   6   0    2.96    0.25
   6   6   0    3.13    0.30
  -7   7   0    0.64    0.16
  -6   7   0   10.81    0.54
  -6   7   0   10.47    0.49
  -5   7   0    6.49    0.34
  -5   7   0    6.77    0.38
  -4   7   0    0.31    0.12
  -4   7   0    0.21    0.15
  -4   7   0    0.25    0.18
  -3   7   0   16.65    0.72
  -3   7   0   16.59    0.92
  -3   7   0   16.28    0.77
  -2   7   0   10.08    0.51
  -2   7   0    9.66    0.46
  -2   7   0   10.34    0.59
   1  -7   0    2.27    0.24
  -1   7   0    2.22    0.19
  -1   7   0    2.34    0.22
  -1   7   0    1.78    0.20
   0  -7   0   27.75    1.39
   0   7   0   25.34    1.11
   0   7   0   25.24    1.16
  -1  -7   0    0.00    0.15
   1   7   0    0.15    0.15
   1   7   0    0.12    0.14
  -2  -7   0    6.25    0.40
   2   7   0    5.32    0.35
   2   7   0    5.65    0.35
  -3  -7   0   10.48    0.59
   3   7   0    8.35    0.49
   3   7   0   10.64    0.52
   4   7   0    5.23    0.36
   4   7   0    5.46    0.36
   5   7   0    1.64    0.22
   5   7   0    1.66    0.26
  -6   8   0    0.01    0.18
  -6   8   0    0.26    0.15
  -5   8   0   18.68    0.85
  -5   8   0   17.58    0.79
  -4   8   0    4.35    0.34
  -4   8   0    4.92    0.29
  -3   8   0   11.21    0.51
  -3   8   0   10.06    0.55
  -2   8   0    9.76    0.56
  -2   8   0    8.58    0.49
  -2   8   0    9.05    0.46
  -1   8   0    0.65    0.16
  -1   8   0    0.49    0.17
  -1   8   0    0.73    0.17
   0  -8   0    6.80    0.44
   0   8   0    5.94    0.36
   0   8   0    5.83    0.38
  -1  -8   0    3.90    0.34
   1   8   0    3.58    0.29
   1   8   0    3.31    0.28
  -2  -8   0    4.25    0.34
   2   8   0    3.65    0.31
   2   8   0    3.26    0.29
   3   8   0    0.49    0.18
   3   8   0    0.36    0.21
   4   8   0    0.11    0.20
   4   8   0    0.33    0.24
  -4   9   0    9.02    0.48
  -4   9   0    9.55    0.53
  -3   9   0    1.25    0.23
  -3   9   0    0.97    0.20
  -2   9   0   10.47    0.51
  -2   9   0    9.55    0.56
  -1   9   0    3.34    0.30
  -1   9   0    3.60    0.28
   0   9   0    0.19    0.20
   0   9   0    0.14    0.18
   1   9   0    7.29    0.43
   1   9   0    7.04    0.45
   2   9   0    0.46    0.21
   2   9   0    0.31    0.22
   0  10  -1    0.31    0.22
  -1  10  -1    4.80    0.36
  -2  10  -1   -0.06    0.20
   3   9  -1    0.07    0.21
   3   9  -1    0.42    0.23
   2   9  -1    0.06    0.21
   2   9  -1    0.18    0.19
   1   9  -1    8.45    0.47
   1   9  -1    8.63    0.50
   0   9  -1    0.88    0.21
   0   9  -1    1.12    0.20
  -1   9  -1    4.81    0.35
  -1   9  -1    4.55    0.34
  -2   9  -1    7.88    0.43
  -2   9  -1    7.57    0.45
  -3   9  -1    1.32    0.22
  -3   9  -1    1.29    0.19
  -4   9  -1    6.27    0.43
  -4   9  -1    6.46    0.37
  -5   9  -1    0.65    0.20
  -5   9  -1    0.63    0.18
   4   8  -1    0.20    0.21
   4   8  -1   -0.27    0.18
   3   8  -1    4.48    0.32
   3   8  -1    4.77    0.35
   2   8  -1    1.65    0.24
   2   8  -1    1.82    0.23
  -2  -8   1    2.29    0.26
   1   8  -1    8.88    0.47
   1   8  -1    8.42    0.48
  -1  -8   1    9.62    0.58
   0   8  -1    6.74    0.38
   0   8  -1    7.04    0.41
   0  -8   1    7.67    0.49
  -1   8  -1    0.01    0.16
  -1   8  -1    0.12    0.15
  -1   8  -1    0.15    0.15
   1  -8   1    0.29    0.18
  -2   8  -1   40.85    2.08
  -2   8  -1   39.95    1.66
  -2   8  -1   38.83    1.74
  -3   8  -1    3.18    0.27
  -3   8  -1    3.33    0.24
  -4   8  -1    5.47    0.36
  -4   8  -1    5.27    0.30
  -5   8  -1   10.05    0.55
  -5   8  -1   11.21    0.50
  -6   8  -1   -0.01    0.14
   6   7  -1   -0.11    0.24
   6   7  -1   -0.04    0.18
   5   7  -1    1.23    0.20
   5   7  -1    1.79    0.25
   4   7  -1    0.75    0.21
   4   7  -1    0.79    0.17
   3   7  -1   15.34    0.73
  -3  -7   1   16.33    0.89
   2   7  -1    7.80    0.42
   2   7  -1    7.97    0.45
  -2  -7   1    8.97    0.52
   1   7  -1   -0.05    0.14
   1   7  -1   -0.07    0.13
  -1  -7   1    0.18    0.15
   0   7  -1   24.06    1.13
   0   7  -1   24.96    1.08
   0  -7   1   27.44    1.36
  -1   7  -1    0.36    0.13
  -1   7  -1    0.56    0.14
  -1   7  -1    0.37    0.14
   1  -7   1    0.62    0.18
  -2   7  -1    8.49    0.43
  -2   7  -1    7.52    0.38
  -2   7  -1    8.06    0.50
  -3   7  -1   12.95    0.62
  -3   7  -1   13.01    0.75
  -3   7  -1   13.16    0.57
  -4   7  -1    2.14    0.17
  -4   7  -1    1.75    0.20
  -5   7  -1    9.50    0.42
  -5   7  -1    8.92    0.47
  -6   7  -1    4.99    0.28
  -6   7  -1    5.09    0.33
  -7   7  -1    0.42    0.15
   6   6  -1    0.32    0.16
   6   6  -1    0.48    0.21
  -6  -6   1    0.34    0.18
   5   6  -1    0.00    0.14
   5   6  -1    0.10    0.18
  -5  -6   1    0.26    0.17
   4   6  -1    7.80    0.42
   4   6  -1    8.16    0.43
  -4  -6   1    8.22    0.41
  -4  -6   1    8.74    0.52
   3   6  -1   -0.19    0.14
   3   6  -1   -0.07    0.11
  -3  -6   1   -0.02    0.13
  -3  -6   1    0.32    0.12
   2   6  -1   37.38    1.67
   2   6  -1   38.74    1.61
  -2  -6   1   39.92    2.00
  -2  -6   1   38.69    1.59
   1   6  -1   25.18    1.06
  -1  -6   1   26.17    1.33
  -1  -6   1   24.48    1.04
   0   6  -1    5.38    0.33
   0   6  -1    4.97    0.27
   0   6  -1    5.46    0.28
   0  -6   1    5.46    0.35
   0  -6   1    4.82    0.24
  -1   6  -1   21.46    1.16
  -1   6  -1   22.28    0.93
  -1   6  -1   22.01    0.98
  -1   6  -1   22.57    0.92
   1  -6   1   21.77    1.17
  -2   6  -1    3.79    0.22
  -2   6  -1    3.88    0.26
  -2   6  -1    3.79    0.30
  -2   6  -1    3.90    0.21
  -3   6  -1   30.38    1.24
  -3   6  -1   30.52    1.24
  -3   6  -1   31.29    1.31
  -3   6  -1   28.11    1.58
  -4   6  -1   13.59    0.62
  -4   6  -1   13.83    0.57
  -4   6  -1   12.68    0.78
  -5   6  -1   15.32    0.71
  -5   6  -1   15.05    0.77
  -5   6  -1   16.04    0.66
  -6   6  -1   10.03    0.48
  -6   6  -1    9.61    0.45
  -7   6  -1    0.95    0.15
  -8   6  -1    1.24    0.19
  -7  -5   1    0.17    0.19
   6   5  -1    6.59    0.39
   6   5  -1    6.49    0.35
  -6  -5   1    6.08    0.38
   5   5  -1    3.92    0.26
   5   5  -1    4.09    0.28
  -5  -5   1    3.49    0.28
   4   5  -1    2.43    0.19
   4   5  -1    1.40    0.15
  -4  -5   1    1.31    0.16
   3   5  -1    1.97    0.17
   3   5  -1    1.51    0.15
  -3  -5   1    1.54    0.17
  -3  -5   1    1.42    0.14
   2   5  -1    1.38    0.14
   2   5  -1    1.25    0.13
  -2  -5   1    1.58    0.16
  -2  -5   1    1.23    0.12
   1   5  -1   55.69    2.37
   1   5  -1   57.08    2.28
   1   5  -1   56.25    2.28
  -1  -5   1   55.44    2.27
  -1  -5   1   54.55    2.84
   0   5  -1   16.46    0.74
   0   5  -1   16.50    0.71
   0   5  -1   15.92    0.88
   0   5  -1   17.99    0.70
   0  -5   1   16.00    0.68
   0  -5   1   16.98    0.89
  -1   5  -1   55.05    2.99
  -1   5  -1   62.29    2.39
  -1   5  -1   57.52    2.39
  -1   5  -1   61.68    2.50
   1  -5   1   58.25    3.00
  -2   5  -1   75.19    4.21
  -2   5  -1   81.08    3.37
  -2   5  -1   88.49    3.50
  -2   5  -1   87.48    3.36
  -3   5  -1    0.28    0.06
  -3   5  -1    0.14    0.09
  -3   5  -1    0.29    0.07
  -3   5  -1    0.06    0.13
  -4   5  -1   43.04    2.43
  -4   5  -1   47.16    2.22
  -4   5  -1   48.49    1.92
  -4   5  -1   47.81    1.91
  -4   5  -1   48.67    2.00
  -5   5  -1    5.78    0.26
  -5   5  -1    5.41    0.30
  -5   5  -1    4.48    0.38
  -5   5  -1    5.42    0.29
  -5   5  -1    5.25    0.27
  -6   5  -1   11.69    0.51
  -6   5  -1   11.15    0.53
  -7   5  -1   10.03    0.47
  -8   5  -1    0.41    0.15
  -8  -4   1   -0.02    0.19
  -7  -4   1    0.49    0.18
   6   4  -1   45.05    1.80
   6   4  -1   43.17    1.84
  -6  -4   1   41.43    1.80
   5   4  -1    0.46    0.15
   5   4  -1    0.30    0.10
  -5  -4   1   -0.02    0.12
   4   4  -1    0.04    0.11
   4   4  -1    0.03    0.09
  -4  -4   1    0.19    0.11
   3   4  -1   51.25    2.07
   3   4  -1   46.49    2.03
   3   4  -1   46.42    1.96
  -3  -4   1   47.03    1.96
   2   4  -1    0.57    0.08
   2   4  -1    0.60    0.10
   2   4  -1    1.07    0.10
  -2  -4   1    0.38    0.09
  -2  -4   1    0.54    0.08
   1   4  -1    4.60    0.22
   1   4  -1    4.10    0.22
   1   4  -1    4.41    0.23
  -1  -4   1    4.23    0.21
  -1  -4   1    4.57    0.28
   0   4  -1   23.38    0.97
   0   4  -1   23.61    1.01
   0   4  -1   23.09    0.96
   0   4  -1   22.57    1.21
   0  -4   1   22.89    1.21
   0  -4   1   25.07    0.96
  -1   4  -1    1.73    0.10
  -1   4  -1    1.61    0.10
  -1   4  -1    2.08    0.13
  -1   4  -1    1.60    0.15
   1  -4   1    1.66    0.16
  -2   4  -1   55.93    2.16
  -2   4  -1   49.82    2.72
  -2   4  -1   50.97    2.17
  -2   4  -1   56.61    2.25
  -3   4  -1    4.74    0.33
  -3   4  -1    5.08    0.22
  -3   4  -1    5.33    0.23
  -3   4  -1    5.04    0.26
  -4   4  -1    8.00    0.42
  -4   4  -1    8.48    0.38
  -4   4  -1    8.09    0.35
  -4   4  -1    8.05    0.35
  -5   4  -1   11.16    0.51
  -5   4  -1   10.83    0.56
  -5   4  -1   12.15    0.49
  -5   4  -1   11.32    0.49
  -6   4  -1    0.58    0.09
  -6   4  -1    1.04    0.11
  -7   4  -1    3.57    0.23
  -8   4  -1    0.20    0.20
  -8   4  -1    0.19    0.14
  -8  -3   1    0.08    0.18
  -7  -3   1    0.54    0.17
   6   3  -1    7.63    0.38
   6   3  -1    8.32    0.40
  -6  -3   1    7.77    0.40
   5   3  -1   29.34    1.23
   5   3  -1   29.80    1.25
  -5  -3   1   28.47    1.23
   4   3  -1    5.65    0.29
   4   3  -1    5.83    0.29
  -4  -3   1    5.81    0.29
   3   3  -1    3.99    0.22
   3   3  -1    4.59    0.22
   3   3  -1    3.88    0.21
  -3  -3   1    4.17    0.22
   2   3  -1   52.59    2.12
   2   3  -1   50.27    2.20
  -2  -3   1   53.42    2.12
   1   3  -1   58.47    2.30
   1   3  -1   58.52    2.29
  -1  -3   1   59.02    2.31
  -1  -3   1   50.41    2.86
   0   3  -1   78.48    3.15
   0   3  -1   73.96    3.93
   0   3  -1   86.14    3.15
   0  -3   1   72.39    3.14
   0  -3   1   74.26    4.86
  -1   3  -1  111.51    4.50
  -1   3  -1  110.25    4.50
  -1   3  -1  120.17    4.73
  -1   3  -1  102.84    5.64
   1  -3   1  111.87    5.68
  -2   3  -1   36.77    2.00
  -2   3  -1   42.12    1.65
   2  -3   1   38.04    1.64
  -3   3  -1   31.56    1.33
  -3   3  -1   32.23    1.27
  -3   3  -1   31.66    1.49
  -3   3  -1   30.52    1.27
  -4   3  -1    6.56    0.30
  -4   3  -1    6.39    0.34
  -4   3  -1    6.89    0.31
  -4   3  -1    6.85    0.29
  -5   3  -1   47.46    1.90
  -5   3  -1   46.98    1.91
  -5   3  -1   45.82    1.96
  -6   3  -1   34.90    1.44
  -7   3  -1    2.17    0.24
  -7   3  -1    2.00    0.17
  -8   3  -1   11.75    0.64
  -8   3  -1   11.61    0.55
  -9   3  -1    0.25    0.17
  -9   3  -1    0.29    0.22
  -9  -2   1    3.63    0.31
  -9  -2   1    4.33    0.35
  -8  -2   1    0.09    0.15
  -8  -2   1    0.15    0.17
  -7  -2   1    2.09    0.19
  -7  -2   1    2.08    0.20
   6   2  -1    9.29    0.44
  -6  -2   1    9.33    0.46
  -6  -2   1    8.86    0.44
   5   2  -1    0.04    0.10
  -5  -2   1    0.02    0.10
  -5  -2   1    0.31    0.09
   4   2  -1   36.03    1.53
  -4  -2   1   38.45    1.61
  -4  -2   1   37.13    1.53
   3   2  -1   13.74    0.60
   3   2  -1   13.17    0.57
   3   2  -1   13.03    0.58
  -3  -2   1   13.66    0.60
  -3  -2   1   13.95    0.57
   2   2  -1  141.88    6.16
   2   2  -1  151.51    5.86
   2   2  -1  143.56    6.05
   2   2  -1  132.12    5.84
  -2  -2   1  144.81    5.84
  -2  -2   1  146.20    5.86
   1   2  -1   56.35    2.32
   1   2  -1   57.40    2.27
   1   2  -1   54.30    2.24
  -1  -2   1   52.55    2.23
   0   2  -1  158.91    6.55
   0   2  -1  174.08    6.24
   0   2  -1  140.83    7.78
   0  -2   1  149.82    6.30
   0  -2   1  168.74    6.33
   0  -2   1  131.67    7.78
  -1   2  -1  108.28    4.50
  -1   2  -1  102.22    6.50
  -2   2  -1  122.68    5.29
  -2   2  -1  128.41    5.91
  -3   2  -1    2.94    0.14
  -3   2  -1    2.92    0.13
  -3   2  -1    2.96    0.14
  -3   2  -1    2.75    0.16
  -4   2  -1   50.58    2.11
  -4   2  -1   53.74    2.11
  -4   2  -1   52.39    2.17
   4  -2   1   51.06    2.42
  -5   2  -1    0.84    0.10
  -5   2  -1    0.98    0.10
   5  -2   1    1.02    0.09
  -6   2  -1   14.56    0.70
  -6   2  -1   13.78    0.63
   6  -2   1   14.92    0.70
  -7   2  -1    2.17    0.18
  -7   2  -1    2.25    0.23
  -8   2  -1    3.65    0.27
  -8   2  -1    3.94    0.31
  -9   2  -1    3.87    0.29
  -9   2  -1    3.40    0.32
  -9  -1   1    2.30    0.25
  -9  -1   1    3.00    0.28
  -8  -1   1    0.24    0.16
  -8  -1   1    0.31    0.16
  -7  -1   1   -0.13    0.12
  -7  -1   1    0.30    0.13
   6   1  -1   12.65    0.53
   6   1  -1   12.05    0.54
  -6  -1   1   12.01    0.55
  -6  -1   1   11.98    0.58
   5   1  -1   21.89    0.91
   5   1  -1   21.66    0.90
  -5  -1   1   20.81    0.95
  -5  -1   1   21.47    0.90
   4   1  -1   76.23    3.19
   4   1  -1   76.43    3.31
  -4  -1   1   77.23    3.37
  -4  -1   1   80.93    3.21
  -4  -1   1   82.28    3.19
   3   1  -1   77.85    3.28
  -3  -1   1   80.73    3.46
  -3  -1   1   82.04    3.27
  -3  -1   1   80.04    3.24
   2   1  -1   27.97    1.13
   2   1  -1   26.06    1.13
  -2  -1   1   27.88    1.13
  -2  -1   1   28.09    1.13
  -2  -1   1   27.98    1.19
   1   1  -1   35.05    1.51
   1   1  -1   37.82    1.60
   1   1  -1   37.61    1.51
  -1  -1   1   37.04    1.52
  -1  -1   1   36.58    1.50
  -1  -1   1   36.12    1.58
  -1   1  -1    0.93    0.06
   1  -1   1    0.84    0.06
  -2   1  -1  152.76    6.58
  -2   1  -1  170.49    6.58
   2  -1   1  165.27    7.62
  -3   1  -1    0.81    0.07
  -3   1  -1    0.78    0.06
   3  -1   1    0.78    0.08
  -4   1  -1   20.88    0.87
  -4   1  -1   21.26    0.94
  -4   1  -1   21.09    0.87
   4  -1   1   21.09    1.00
  -5   1  -1    9.38    0.43
  -5   1  -1   10.01    0.48
  -5   1  -1    9.65    0.43
  -6   1  -1    0.02    0.11
  -6   1  -1    0.16    0.11
  -6   1  -1    0.26    0.10
  -7   1  -1    3.57    0.25
  -7   1  -1    4.20    0.29
  -8   1  -1   -0.06    0.15
  -8   1  -1    0.07    0.16
  -9   1  -1    2.28    0.28
  -9   1  -1    2.08    0.23
  -9   0   1    2.66    0.27
  -9   0   1    2.60    0.25
  -8   0   1   19.04    0.84
  -8   0   1   18.98    0.90
  -7   0   1    5.74    0.34
  -7   0   1    5.01    0.30
   6   0  -1    5.46    0.27
  -6   0   1    5.41    0.31
  -6   0   1    5.41    0.28
   5   0  -1    3.14    0.15
   5   0  -1    3.31    0.19
   5   0  -1    3.23    0.15
  -5   0   1    2.89    0.21
  -5   0   1    3.04    0.19
  -5   0   1    3.30    0.20
   4   0  -1   15.36    0.63
   4   0  -1   14.65    0.64
  -4   0   1   14.46    0.63
  -4   0   1   15.63    0.64
   3   0  -1  135.28    6.30
   3   0  -1  151.70    6.12
  -3   0   1  152.65    6.14
  -3   0   1  163.12    6.15
   2   0  -1  125.38    5.82
   2   0  -1  134.29    5.64
  -2   0   1  144.59    5.64
  -2   0   1  151.13    5.65
   1   0  -1    0.29    0.03
   1   0  -1    0.38    0.03
   1   0  -1    0.28    0.03
  -1   0   1    0.45    0.03
  -1   0   1    0.31    0.03
  -1   0   1    0.35    0.03
  -1   0   1    0.24    0.03
   0   0  -1  107.82    5.36
   0   0  -1  103.32    4.16
   0   0   1   97.07    5.34
   0   0   1  102.69    4.16
  -1   0  -1    5.29    0.23
  -1   0  -1    5.18    0.24
  -1   0  -1    5.02    0.23
   1   0   1    5.02    0.24
   1   0   1    5.07    0.25
   1   0   1    5.13    0.23
   1   0   1    4.97    0.23
  -2   0  -1   96.09    3.95
  -2   0  -1   98.15    4.06
  -2   0  -1   97.08    4.17
  -2   0  -1   99.71    3.94
   2   0   1   94.31    3.93
   2   0   1   95.59    4.19
   2   0   1  100.64    3.93
   2   0   1   92.24    4.05
  -3   0  -1   70.15    2.80
  -3   0  -1   71.72    2.79
  -3   0  -1   69.02    2.95
  -3   0  -1   66.89    2.88
   3   0   1   67.50    2.79
   3   0   1   67.26    2.88
  -4   0  -1   26.60    1.07
  -4   0  -1   24.83    1.14
  -4   0  -1   25.93    1.07
   4   0   1   26.23    1.06
  -5   0  -1   57.69    2.40
  -5   0  -1   59.18    2.40
  -5   0  -1   60.54    2.55
   5   0   1   58.00    2.39
  -6   0  -1    2.80    0.21
  -6   0  -1    2.97    0.24
   6   0   1    2.74    0.17
  -7   0  -1    0.70    0.16
  -7   0  -1    0.68    0.15
  -8   0  -1    1.71    0.22
  -8   0  -1    1.63    0.20
  -9   0  -1    0.69    0.21
  -9   0  -1    1.11    0.23
  -9   1   1    1.92    0.23
  -9   1   1    2.26    0.27
  -8   1   1    0.51    0.16
  -8   1   1    0.44    0.18
  -7   1   1   29.56    1.24
  -7   1   1   29.72    1.34
   6  -1  -1   11.17    0.49
  -6   1   1   12.02    0.52
  -6   1   1   11.11    0.51
   5  -1  -1   28.08    1.16
   5  -1  -1   27.69    1.19
  -5   1   1   27.96    1.17
  -5   1   1   29.49    1.18
   4  -1  -1   24.51    1.01
   4  -1  -1   24.46    1.04
  -4   1   1   25.75    1.02
  -4   1   1   23.85    1.01
   3  -1  -1   48.06    1.91
   3  -1  -1   47.13    1.97
  -3   1   1   45.31    1.91
  -3   1   1   47.79    1.97
  -3   1   1   45.68    1.90
   2  -1  -1  116.68    4.57
   2  -1  -1  115.14    4.74
  -2   1   1  112.36    4.74
  -2   1   1  109.05    4.58
  -2   1   1  108.35    4.57
   1  -1  -1  228.73    8.73
   1  -1  -1  221.59    9.81
  -1   1   1  207.67    8.72
  -1   1   1  216.74    9.81
  -1   1   1  199.88    9.31
   0  -1  -1  186.42    7.09
   0  -1  -1  152.96    8.95
   0  -1  -1  163.24    7.08
   0  -1  -1  187.23    7.36
   0   1   1  180.93    7.08
   0   1   1  175.69    8.99
  -1  -1  -1  498.05   20.48
  -1  -1  -1  452.48   20.30
  -1  -1  -1  511.09   21.05
   1   1   1  494.77   20.31
   1   1   1  474.73   20.37
   1   1   1  463.49   20.98
  -2  -1  -1    2.66    0.15
  -2  -1  -1    2.82    0.14
  -2  -1  -1    2.82    0.15
  -2  -1  -1    2.68    0.14
   2   1   1    2.85    0.15
   2   1   1    2.89    0.14
   2   1   1    2.93    0.16
  -3  -1  -1   44.25    1.73
  -3  -1  -1   41.93    1.78
  -3  -1  -1   39.89    1.83
  -3  -1  -1   42.84    1.73
   3   1   1   43.84    1.78
   3   1   1   41.80    1.73
  -4  -1  -1   11.29    0.53
  -4  -1  -1   10.87    0.50
  -4  -1  -1   11.40    0.49
  -4  -1  -1   11.62    0.49
   4   1   1   11.73    0.49
   4   1   1   10.94    0.49
  -5  -1  -1    9.42    0.47
  -5  -1  -1    9.43    0.44
   5   1   1    9.67    0.41
   5   1   1    9.23    0.42
  -6  -1  -1   10.86    0.51
  -6  -1  -1   11.20    0.55
   6   1   1   10.94    0.49
   6   1   1   11.27    0.47
  -7  -1  -1    0.46    0.15
  -7  -1  -1    0.73    0.16
  -8  -1  -1    3.54    0.29
  -9  -1  -1    0.04    0.18
  -9   2   1    1.94    0.26
  -9   2   1    1.97    0.22
  -8   2   1    1.05    0.17
  -8   2   1    1.16    0.21
  -7   2   1   42.50    1.76
   6  -2  -1   17.10    0.74
  -6   2   1   17.93    0.75
  -6   2   1   17.85    0.76
   5  -2  -1    2.84    0.16
   5  -2  -1    2.92    0.15
  -5   2   1    2.93    0.20
  -5   2   1    3.21    0.18
  -5   2   1    2.89    0.16
   4  -2  -1   44.79    1.82
   4  -2  -1   41.38    1.75
  -4   2   1   42.88    1.77
  -4   2   1   44.86    1.77
  -4   2   1   42.85    1.82
   3  -2  -1   41.32    1.69
   3  -2  -1   40.61    1.63
  -3   2   1   39.70    1.63
  -3   2   1   40.20    1.69
  -3   2   1   38.85    1.63
   2  -2  -1    3.09    0.14
   2  -2  -1    3.06    0.16
  -2   2   1    3.03    0.14
  -2   2   1    2.90    0.15
  -2   2   1    3.07    0.16
   1  -2  -1  145.18    5.79
   1  -2  -1  145.65    6.02
  -1   2   1  144.88    6.52
  -1   2   1  139.27    7.21
  -1   2   1  143.26    5.78
  -1   2   1  135.78    5.78
   0  -2  -1   24.17    1.03
   0  -2  -1   24.62    1.27
   0  -2  -1   26.16    1.03
   0  -2  -1   25.09    1.07
   0   2   1   24.61    1.03
   0   2   1   25.62    1.03
   0   2   1   24.87    1.28
  -1  -2  -1   23.74    1.02
  -1  -2  -1   23.17    0.98
  -1  -2  -1   22.70    0.98
   1   2   1   25.41    0.98
   1   2   1   24.63    1.02
   1   2   1   23.50    0.98
  -2  -2  -1    2.25    0.14
  -2  -2  -1    2.46    0.15
   2   2   1    2.28    0.14
   2   2   1    2.49    0.15
  -3  -2  -1    3.67    0.21
   3   2   1    3.78    0.20
  -4  -2  -1   42.71    1.75
   4   2   1   42.52    1.75
  -5  -2  -1    2.94    0.23
   5   2   1    3.67    0.22
  -6  -2  -1    5.05    0.31
   6   2   1    5.73    0.30
  -7  -2  -1    2.13    0.22
  -8  -2  -1    0.01    0.18
  -9   3   1    1.84    0.27
  -9   3   1    2.00    0.22
  -8   3   1    0.05    0.15
  -7   3   1   18.21    0.79
  -6   3   1   39.18    1.66
  -6   3   1   39.57    1.62
  -5   3   1   33.12    1.42
  -5   3   1   33.49    1.37
  -5   3   1   33.45    1.38
  -4   3   1   15.06    0.62
  -4   3   1   14.48    0.63
  -4   3   1   14.93    0.65
   3  -3  -1  214.39    8.79
  -3   3   1  215.33    9.47
  -3   3   1  226.01    9.20
  -3   3   1  215.14    8.84
   2  -3  -1    1.70    0.10
  -2   3   1    1.81    0.14
  -2   3   1    1.59    0.11
  -2   3   1    1.41    0.15
  -2   3   1    1.64    0.10
   1  -3  -1  107.00    4.43
  -1   3   1  100.67    4.41
  -1   3   1  108.50    5.55
  -1   3   1  110.45    4.63
  -1   3   1  116.40    4.42
   0  -3  -1   95.65    5.11
   0   3   1   95.94    4.15
   0   3   1   98.13    4.12
   0   3   1  102.72    5.17
   0   3   1  114.48    4.15
  -1  -3  -1    1.23    0.11
  -1  -3  -1    1.07    0.10
   1   3   1    1.07    0.10
   1   3   1    1.32    0.10
   1   3   1    1.08    0.10
  -2  -3  -1  117.02    4.84
   2   3   1  118.26    4.83
   2   3   1  119.48    5.03
  -3  -3  -1    0.48    0.10
   3   3   1    0.57    0.10
   3   3   1    0.49    0.09
  -4  -3  -1   43.56    1.95
   4   3   1   49.62    1.95
   4   3   1   48.53    2.00
  -5  -3  -1   16.34    0.78
   5   3   1   17.95    0.77
   5   3   1   18.84    0.79
  -6  -3  -1   -0.05    0.15
   6   3   1    0.06    0.10
   6   3   1    0.02    0.14
  -8  -3  -1    0.01    0.20
  -9   4   1    0.05    0.18
  -8   4   1   13.11    0.61
  -7   4   1    3.57    0.24
  -6   4   1    3.35    0.21
  -6   4   1    3.57    0.22
  -5   4   1   35.63    1.49
  -5   4   1   36.74    1.69
  -5   4   1   36.12    1.54
  -5   4   1   35.47    1.48
  -4   4   1    5.79    0.30
  -4   4   1    6.25    0.28
  -4   4   1    5.71    0.29
  -3   4   1   66.26    2.56
  -3   4   1   66.13    2.57
  -3   4   1   62.15    2.67
  -3   4   1   57.93    3.21
  -2   4   1   86.11    3.51
  -2   4   1   85.54    3.38
  -2   4   1   81.68    3.39
  -2   4   1   80.29    4.21
   1  -4  -1   41.72    1.77
  -1   4   1   43.36    1.85
  -1   4   1   43.67    1.78
  -1   4   1   46.40    1.78
  -1   4   1   42.30    2.21
   0  -4  -1  108.07    4.17
   0  -4  -1   97.44    5.20
   0   4   1   96.86    4.15
   0   4   1  103.01    5.21
   0   4   1  105.44    4.15
  -1  -4  -1   48.87    2.46
  -1  -4  -1   48.57    1.98
   1   4   1   48.89    1.98
   1   4   1   47.33    2.05
  -2  -4  -1   13.66    0.61
  -2  -4  -1   13.94    0.74
   2   4   1   14.02    0.61
   2   4   1   13.98    0.63
  -3  -4  -1   15.59    0.69
   3   4   1   15.26    0.70
   3   4   1   16.36    0.69
  -4  -4  -1   -0.04    0.13
   4   4   1    0.05    0.11
   4   4   1    0.16    0.14
  -5  -4  -1    8.25    0.44
   5   4   1    8.86    0.44
   5   4   1    8.86    0.44
  -6  -4  -1   -0.04    0.16
   6   4   1    0.07    0.12
  -7  -4  -1    1.35    0.24
  -8   5   1    2.11    0.22
  -7   5   1   11.23    0.52
  -6   5   1    7.92    0.42
  -6   5   1    8.42    0.39
  -5   5   1   25.18    1.06
  -5   5   1   25.63    1.11
  -4   5   1   55.37    2.17
  -4   5   1   53.37    2.17
  -4   5   1   53.06    2.26
  -4   5   1   50.74    2.73
  -3   5   1    0.43    0.11
  -3   5   1    0.28    0.09
  -3   5   1    0.33    0.09
  -3   5   1    0.33    0.12
   2  -5  -1   22.52    0.93
  -2   5   1   23.39    0.96
  -2   5   1   22.39    0.95
  -2   5   1   22.89    1.19
  -2   5   1   22.96    1.01
   1  -5  -1    2.92    0.17
  -1   5   1    3.17    0.19
  -1   5   1    3.10    0.19
  -1   5   1    3.22    0.22
  -1   5   1    3.08    0.21
   0  -5  -1   14.20    0.75
   0  -5  -1   13.86    0.60
   0   5   1   13.71    0.61
  -1  -5  -1   72.43    2.93
  -1  -5  -1   71.05    3.64
   1   5   1   71.79    3.04
   1   5   1   72.63    2.94
  -2  -5  -1    1.92    0.17
  -2  -5  -1    1.91    0.20
   2   5   1    1.95    0.18
   2   5   1    1.87    0.17
  -3  -5  -1   23.27    1.04
  -3  -5  -1   24.54    1.27
   3   5   1   23.29    1.07
   3   5   1   26.18    1.05
  -4  -5  -1    2.73    0.23
   4   5   1    2.89    0.23
   4   5   1    2.60    0.21
  -5  -5  -1    0.15    0.18
   5   5   1    0.54    0.15
   5   5   1    0.44    0.18
  -6  -5  -1    0.14    0.19
   6   5   1    0.00    0.14
  -7  -5  -1    0.43    0.24
  -7   6   1    7.61    0.39
  -6   6   1    5.67    0.35
  -6   6   1    6.05    0.31
  -5   6   1    1.17    0.14
  -5   6   1    0.83    0.19
  -5   6   1    0.94    0.16
  -4   6   1   25.76    1.40
  -4   6   1   25.80    1.16
  -4   6   1   27.18    1.10
  -3   6   1   19.36    0.81
  -3   6   1   19.42    1.02
  -3   6   1   18.04    0.85
  -2   6   1    0.19    0.11
  -2   6   1    0.05    0.13
  -2   6   1    0.10    0.11
  -2   6   1    0.10    0.11
   1  -6  -1   95.94    4.02
  -1   6   1   95.82    4.20
  -1   6   1   99.77    4.04
  -1   6   1   98.00    4.04
  -1   6   1  107.98    5.03
   0  -6  -1    0.46    0.14
   0  -6  -1    0.52    0.10
   0   6   1    0.53    0.13
  -1  -6  -1   28.62    1.20
  -1  -6  -1   30.57    1.50
   1   6   1   28.20    1.26
   1   6   1   27.60    1.21
  -2  -6  -1    8.72    0.43
  -2  -6  -1    9.46    0.51
   2   6   1    8.05    0.44
   2   6   1    8.08    0.43
  -3  -6  -1    2.47    0.25
  -3  -6  -1    2.44    0.22
   3   6   1    2.62    0.23
   3   6   1    2.26    0.21
  -4  -6  -1   21.17    0.96
  -4  -6  -1   23.28    1.17
   4   6   1   20.69    0.98
   4   6   1   22.13    0.97
  -5  -6  -1    0.78    0.22
   5   6   1    1.11    0.18
   5   6   1    1.05    0.22
  -6  -6  -1    1.48    0.25
   6   6   1    1.92    0.21
  -7   7   1    0.82    0.17
  -6   7   1   17.59    0.76
  -6   7   1   16.98    0.80
  -5   7   1    5.72    0.36
  -5   7   1    6.00    0.32
  -4   7   1    7.83    0.43
  -4   7   1    8.17    0.52
  -4   7   1    8.30    0.40
  -3   7   1   37.72    1.65
  -3   7   1   36.46    1.57
  -3   7   1   39.58    1.97
  -2   7   1    0.34    0.14
  -2   7   1    0.16    0.13
  -2   7   1    0.09    0.15
  -1   7   1   21.88    1.04
  -1   7   1   22.70    0.99
  -1   7   1   24.81    1.22
   0  -7  -1   13.09    0.72
   0   7   1   12.17    0.61
   0   7   1   12.49    0.58
  -1  -7  -1    0.36    0.16
   1   7   1    0.38    0.16
   1   7   1    0.57    0.16
  -2  -7  -1    8.94    0.52
   2   7   1    7.91    0.45
   2   7   1    8.25    0.45
  -3  -7  -1   -0.09    0.15
   3   7   1    0.07    0.17
   3   7   1    0.00    0.18
   4   7   1    4.32    0.33
   4   7   1    3.23    0.29
   5   7   1    0.92    0.20
   5   7   1    0.99    0.26
  -6   8   1    0.60    0.17
  -6   8   1    0.33    0.18
  -5   8   1    8.76    0.49
  -5   8   1    8.87    0.44
  -4   8   1    3.12    0.29
  -4   8   1    4.14    0.27
  -3   8   1    6.47    0.37
  -3   8   1    6.17    0.40
  -3   8   1    7.62    0.46
  -2   8   1    8.57    0.50
  -2   8   1    7.19    0.41
  -2   8   1    7.72    0.41
  -2   8   1    7.44    0.44
  -1   8   1    1.72    0.21
  -1   8   1    1.65    0.23
   0  -8  -1    8.84    0.54
   0   8   1    8.45    0.45
   0   8   1    8.00    0.47
   1   8   1    0.91    0.20
   1   8   1    1.07    0.20
   2   8   1    2.54    0.26
   2   8   1    2.30    0.25
   3   8   1    2.51    0.28
   3   8   1    3.78    0.31
  -4   9   1   16.12    0.75
  -4   9   1   16.38    0.79
  -3   9   1    1.21    0.23
  -3   9   1    1.58    0.22
  -2   9   1    7.42    0.49
  -2   9   1    8.31    0.44
  -1   9   1    2.36    0.25
  -1   9   1    1.99    0.25
   0   9   1    0.39    0.21
   0   9   1    0.71    0.22
   1   9   1    6.94    0.44
   1   9   1    6.71    0.44
   1  10  -2    0.38    0.24
   0  10  -2    3.07    0.30
   0  10  -2    2.94    0.30
  -1  10  -2    1.46    0.26
  -1  10  -2    1.19    0.24
  -2  10  -2    0.24    0.20
  -2  10  -2    0.27    0.22
   3   9  -2    1.05    0.25
   3   9  -2    0.64    0.22
   2   9  -2    0.42    0.20
   2   9  -2    0.25    0.22
   1   9  -2    4.60    0.34
   1   9  -2    3.74    0.32
   0   9  -2    0.13    0.18
   0   9  -2    0.31    0.19
  -1   9  -2    3.62    0.29
  -1   9  -2    3.94    0.32
  -2   9  -2    5.82    0.38
  -2   9  -2    5.89    0.36
  -3   9  -2    0.34    0.19
  -3   9  -2    0.45    0.16
  -4   9  -2   13.30    0.69
  -4   9  -2   14.26    0.63
  -5   9  -2   -0.15    0.15
  -5   9  -2    0.10    0.19
   5   8  -2    1.54    0.23
   5   8  -2    1.84    0.27
   4   8  -2    0.72    0.22
   4   8  -2    0.60    0.20
   3   8  -2    6.72    0.42
   3   8  -2    6.82    0.40
   2   8  -2    0.84    0.19
   2   8  -2    0.95    0.20
   1   8  -2    4.59    0.35
   1   8  -2    5.17    0.34
  -1  -8   2    6.04    0.43
   0   8  -2   17.49    0.85
   0   8  -2   18.23    0.81
   0  -8   2   19.43    1.03
  -1   8  -2    2.14    0.24
  -1   8  -2    2.31    0.20
  -1   8  -2    2.37    0.23
   1  -8   2    2.53    0.28
  -2   8  -2    2.02    0.22
  -2   8  -2    2.03    0.18
  -3   8  -2    8.41    0.49
  -3   8  -2    9.67    0.43
  -4   8  -2    4.29    0.25
  -4   8  -2    3.84    0.31
  -5   8  -2    5.91    0.37
  -5   8  -2    5.90    0.31
  -6   8  -2    0.07    0.13
   6   7  -2    0.74    0.23
   6   7  -2    0.56    0.19
   5   7  -2    4.92    0.35
   5   7  -2    4.34    0.33
   4   7  -2    3.68    0.29
   4   7  -2    3.55    0.30
   3   7  -2    0.45    0.17
   3   7  -2    0.14    0.14
  -3  -7   2    0.40    0.17
   2   7  -2   27.41    1.19
   2   7  -2   26.64    1.23
  -2  -7   2   29.70    1.48
   1   7  -2    1.75    0.20
   1   7  -2    2.83    0.23
  -1  -7   2    2.85    0.26
   0   7  -2   35.91    1.46
   0   7  -2   32.75    1.52
   0   7  -2   34.64    1.81
   0  -7   2   36.47    1.83
  -1   7  -2   15.85    0.88
  -1   7  -2   16.23    0.75
  -1   7  -2   15.44    0.70
   1  -7   2   17.04    0.91
  -2   7  -2   69.78    2.97
  -2   7  -2   73.95    2.85
  -2   7  -2   65.91    3.57
  -3   7  -2    7.83    0.35
  -3   7  -2    7.16    0.49
  -3   7  -2    7.54    0.41
  -4   7  -2    0.39    0.09
  -4   7  -2    0.28    0.13
  -5   7  -2    9.06    0.41
  -5   7  -2    9.29    0.50
  -5   7  -2    8.70    0.47
  -6   7  -2    0.74    0.13
  -7   7  -2    0.48    0.15
   6   6  -2    0.32    0.15
   6   6  -2    0.36    0.20
  -6  -6   2    0.33    0.17
   5   6  -2    2.62    0.24
   5   6  -2    2.73    0.23
  -5  -6   2    2.90    0.22
   4   6  -2   11.81    0.61
   4   6  -2   12.83    0.60
  -4  -6   2   13.37    0.59
  -4  -6   2   13.43    0.73
   3   6  -2    0.48    0.13
   3   6  -2    0.40    0.14
  -3  -6   2    0.70    0.16
  -3  -6   2    0.59    0.12
   2   6  -2   13.67    0.60
   2   6  -2   12.70    0.63
  -2  -6   2   13.73    0.58
  -2  -6   2   13.44    0.74
   1   6  -2   16.56    0.69
   1   6  -2   15.71    0.70
  -1  -6   2   16.41    0.88
  -1  -6   2   15.64    0.67
   0   6  -2    0.54    0.09
   0   6  -2    0.65    0.11
   0   6  -2    0.50    0.12
   0   6  -2    0.59    0.12
   0  -6   2    0.69    0.14
  -1   6  -2   28.58    1.58
  -1   6  -2   29.77    1.32
  -1   6  -2   31.56    1.25
  -1   6  -2   31.70    1.25
   1  -6   2   29.70    1.59
  -2   6  -2    0.60    0.09
  -2   6  -2    0.82    0.08
  -2   6  -2    0.68    0.15
  -2   6  -2    0.84    0.13
  -3   6  -2   33.85    1.33
  -3   6  -2   32.85    1.41
  -3   6  -2   30.41    1.70
  -4   6  -2   17.06    0.67
  -4   6  -2   16.51    0.81
  -4   6  -2   16.21    0.67
  -4   6  -2   14.12    0.90
  -4   6  -2   16.11    0.73
  -5   6  -2    1.04    0.11
  -5   6  -2    0.93    0.15
  -5   6  -2    1.08    0.14
  -6   6  -2   20.26    0.85
  -7   6  -2    0.18    0.13
  -7  -5   2    0.54    0.19
   6   5  -2    6.33    0.38
   6   5  -2    6.38    0.36
  -6  -5   2    6.56    0.37
   5   5  -2    0.25    0.16
   5   5  -2    0.22    0.12
  -5  -5   2    0.14    0.13
   4   5  -2   17.52    0.78
   4   5  -2   17.76    0.79
  -4  -5   2   17.87    0.77
   3   5  -2   25.81    1.02
   3   5  -2   21.86    1.02
   3   5  -2   22.38    0.98
  -3  -5   2   23.83    0.98
  -3  -5   2   22.03    1.22
   2   5  -2   16.01    0.65
   2   5  -2   15.03    0.69
   2   5  -2   15.19    0.66
  -2  -5   2   14.85    0.81
  -2  -5   2   14.43    0.64
   1   5  -2  110.02    4.38
   1   5  -2  105.63    4.25
   1   5  -2  109.45    4.22
  -1  -5   2   97.42    5.26
  -1  -5   2   98.55    4.23
   0   5  -2   13.10    0.55
   0   5  -2   13.05    0.70
   0   5  -2   12.59    0.59
   0   5  -2   13.13    0.55
   0  -5   2   12.79    0.71
  -1   5  -2   16.00    0.91
  -1   5  -2   17.94    0.71
  -1   5  -2   16.79    0.76
  -1   5  -2   17.58    0.71
   1  -5   2   17.20    0.92
  -2   5  -2   33.13    1.35
  -2   5  -2   35.51    1.35
  -2   5  -2   31.80    1.72
  -2   5  -2   32.10    1.42
  -3   5  -2   18.55    1.01
  -3   5  -2   18.75    0.82
  -4   5  -2   38.64    1.90
  -4   5  -2   44.01    1.62
  -4   5  -2   36.20    2.08
  -4   5  -2   38.97    1.62
  -4   5  -2   41.73    1.71
  -5   5  -2    0.46    0.11
  -5   5  -2    0.31    0.07
  -5   5  -2    0.09    0.16
  -5   5  -2    0.48    0.10
  -5   5  -2    0.33    0.08
  -6   5  -2   13.50    0.58
  -7   5  -2    1.70    0.16
  -8   5  -2    2.13    0.27
  -8   5  -2    2.05    0.20
  -8  -4   2    2.28    0.25
   7   4  -2    3.10    0.26
   7   4  -2    2.99    0.23
  -7  -4   2    3.32    0.27
   6   4  -2    1.26    0.18
   6   4  -2    1.31    0.15
  -6  -4   2    1.19    0.17
   5   4  -2   45.78    1.91
   5   4  -2   44.38    1.85
  -5  -4   2   44.02    1.85
   4   4  -2    9.78    0.47
   4   4  -2   10.43    0.48
   4   4  -2   10.43    0.47
  -4  -4   2    9.87    0.46
   3   4  -2   28.42    1.23
   3   4  -2   29.89    1.24
   3   4  -2   28.67    1.19
  -3  -4   2   27.10    1.18
   2   4  -2    1.00    0.10
   2   4  -2    0.92    0.10
   2   4  -2    1.00    0.09
  -2  -4   2    1.09    0.12
  -2  -4   2    0.84    0.08
   1   4  -2  138.01    5.83
   1   4  -2  146.65    5.66
   1   4  -2  142.97    5.67
  -1  -4   2  137.32    5.63
  -1  -4   2  128.09    7.07
   0   4  -2   35.69    1.44
   0   4  -2   34.99    1.44
   0   4  -2   37.81    1.51
   0   4  -2   34.49    1.81
   0  -4   2   34.31    1.81
  -1   4  -2    2.08    0.10
  -1   4  -2    2.04    0.14
  -1   4  -2    1.80    0.10
  -1   4  -2    1.83    0.16
   1  -4   2    1.90    0.17
  -2   4  -2  116.60    4.67
  -2   4  -2  105.39    5.60
  -3   4  -2   92.21    4.24
  -3   4  -2   84.03    4.58
  -3   4  -2   94.66    3.82
  -4   4  -2   79.19    3.24
  -4   4  -2   75.37    3.62
  -5   4  -2   14.16    0.62
  -5   4  -2   14.84    0.60
  -5   4  -2   13.67    0.70
  -6   4  -2   -0.02    0.09
  -7   4  -2   21.42    1.02
  -8   4  -2    1.86    0.26
  -8   4  -2    1.93    0.19
  -8  -3   2    0.99    0.20
   7   3  -2    4.80    0.31
  -7  -3   2    3.93    0.29
   6   3  -2   19.00    0.80
   6   3  -2   17.54    0.79
  -6  -3   2   17.88    0.79
   5   3  -2   10.64    0.49
   5   3  -2   10.61    0.49
  -5  -3   2   10.63    0.48
   4   3  -2   10.38    0.47
   4   3  -2   10.58    0.48
  -4  -3   2   10.60    0.47
   3   3  -2    7.60    0.35
   3   3  -2    7.88    0.36
   3   3  -2    7.88    0.35
  -3  -3   2    7.35    0.34
   2   3  -2  107.58    4.14
   2   3  -2  104.71    4.35
   2   3  -2  101.43    4.30
   2   3  -2   95.26    4.15
  -2  -3   2   96.56    4.13
   1   3  -2    3.02    0.15
  -1  -3   2    3.01    0.14
  -1  -3   2    2.90    0.20
   0   3  -2  189.81    7.30
   0   3  -2  181.72    7.30
   0   3  -2  170.25   10.73
   0   3  -2  191.70    7.63
   0  -3   2  161.87    9.22
  -1   3  -2    2.67    0.15
   1  -3   2    2.52    0.18
  -2   3  -2   14.32    0.71
  -2   3  -2   15.18    0.64
  -3   3  -2   28.15    1.26
  -3   3  -2   31.39    1.41
  -4   3  -2    6.26    0.34
  -4   3  -2    5.95    0.30
  -4   3  -2    6.80    0.28
  -4   3  -2    6.78    0.28
  -5   3  -2   20.63    0.87
  -5   3  -2   20.87    0.85
  -5   3  -2   20.40    0.86
  -6   3  -2    9.64    0.50
  -6   3  -2    9.61    0.43
  -7   3  -2    0.25    0.13
  -7   3  -2    0.39    0.17
  -8   3  -2    7.74    0.48
  -9   3  -2    0.29    0.21
  -9  -2   2    2.37    0.25
  -9  -2   2    2.16    0.25
  -8  -2   2   -0.08    0.16
  -8  -2   2    0.15    0.15
   7   2  -2   10.42    0.49
  -7  -2   2    9.67    0.48
  -7  -2   2   10.10    0.51
   6   2  -2    6.71    0.35
   6   2  -2    6.58    0.31
  -6  -2   2    6.53    0.35
  -6  -2   2    6.82    0.34
   5   2  -2    5.36    0.26
   5   2  -2    3.86    0.23
  -5  -2   2    5.12    0.26
  -5  -2   2    5.06    0.26
   4   2  -2   77.74    3.19
  -4  -2   2   78.41    3.39
  -4  -2   2   79.23    3.18
   3   2  -2    2.19    0.14
  -3  -2   2    2.20    0.13
  -3  -2   2    2.04    0.12
   2   2  -2   84.82    3.35
   2   2  -2   80.85    3.40
  -2  -2   2   83.17    3.37
  -2  -2   2   81.92    3.40
   1   2  -2   90.46    3.70
   1   2  -2   90.79    3.71
  -1  -2   2   91.94    3.71
   0   2  -2   22.15    0.91
   0   2  -2   22.62    0.91
  -1   2  -2  182.72    8.52
   1  -2   2  179.74    9.22
  -2   2  -2    2.01    0.13
   2  -2   2    2.21    0.13
  -3   2  -2   53.61    2.26
  -4   2  -2   22.22    0.91
  -4   2  -2   21.35    0.89
  -4   2  -2   21.28    0.91
  -4   2  -2   21.70    0.89
  -5   2  -2    5.73    0.28
  -5   2  -2    6.30    0.28
  -6   2  -2   49.35    2.20
   6  -2   2   50.90    2.36
  -7   2  -2    3.45    0.23
  -7   2  -2    3.71    0.29
  -8   2  -2    3.03    0.28
  -9   2  -2    0.01    0.20
  -9   2  -2    0.26    0.18
  -9  -1   2    2.39    0.25
  -9  -1   2    2.57    0.25
  -8  -1   2    6.17    0.37
  -8  -1   2    6.43    0.38
  -7  -1   2    3.03    0.23
  -7  -1   2    3.17    0.24
   6   1  -2   29.95    1.24
   6   1  -2   28.68    1.26
   6   1  -2   29.88    1.26
  -6  -1   2   29.93    1.25
  -6  -1   2   30.86    1.32
   5   1  -2    0.37    0.09
  -5  -1   2    0.43    0.09
  -5  -1   2    0.30    0.09
   4   1  -2    5.98    0.29
  -4  -1   2    6.13    0.28
   3   1  -2   67.33    2.80
  -3  -1   2   68.61    2.76
  -3  -1   2   68.66    2.76
   2   1  -2   56.07    2.28
   2   1  -2   59.49    2.32
  -2  -1   2   59.13    2.32
  -2  -1   2   51.00    2.28
   1   1  -2  360.45   16.77
   1   1  -2  307.86   14.09
   1   1  -2  357.14   14.15
  -1  -1   2  330.57   13.96
   0   1  -2   60.96    3.73
   0   1  -2   60.26    3.04
   0   1  -2   66.88    3.08
   0   1  -2   70.75    2.64
   0   1  -2   67.14    2.64
   0  -1   2   64.80    2.81
   0  -1   2   60.78    3.32
  -1   1  -2 1000.00   40.48
  -1   1  -2  910.53   47.70
   1  -1   2  977.62   40.50
   1  -1   2  793.89   43.80
  -2   1  -2    4.86    0.21
  -2   1  -2    4.62    0.20
  -2   1  -2    4.67    0.20
   2  -1   2    4.94    0.25
  -3   1  -2    7.77    0.31
  -3   1  -2    6.37    0.35
  -3   1  -2    7.46    0.32
  -3   1  -2    7.60    0.32
  -4   1  -2   24.88    1.11
  -4   1  -2   24.96    1.03
  -4   1  -2   24.75    1.02
  -5   1  -2    0.76    0.10
  -5   1  -2    0.76    0.10
  -5   1  -2    0.73    0.12
   5  -1   2    0.92    0.10
  -6   1  -2    4.89    0.27
  -6   1  -2    4.63    0.31
   6  -1   2    5.21    0.29
  -7   1  -2    5.72    0.36
  -8   1  -2    0.10    0.19
  -8   1  -2    0.01    0.16
  -9   1  -2    5.76    0.44
  -9   0   2    2.51    0.24
  -9   0   2    2.57    0.27
  -8   0   2   -0.01    0.16
  -8   0   2    0.14    0.15
  -7   0   2    0.24    0.13
  -7   0   2    0.12    0.13
   6   0  -2    9.91    0.44
   6   0  -2   10.14    0.45
  -6   0   2    9.83    0.45
   5   0  -2   59.59    2.45
   5   0  -2   57.94    2.38
  -5   0   2   57.66    2.38
   4   0  -2    8.54    0.40
   4   0  -2    9.33    0.40
  -4   0   2    9.03    0.40
  -4   0   2    9.06    0.40
   3   0  -2   65.40    3.05
   3   0  -2   64.35    2.76
   3   0  -2   63.54    2.67
  -3   0   2   64.55    2.64
  -3   0   2   67.97    2.67
   2   0  -2   35.76    1.47
   2   0  -2   35.59    1.64
   2   0  -2   34.92    1.42
   2   0  -2   32.96    1.42
  -2   0   2   36.05    1.43
  -2   0   2   34.64    1.42
   1   0  -2    1.14    0.07
  -1   0   2    1.40    0.08
  -1   0   2    1.33    0.07
  -1   0   2    1.39    0.08
  -1   0   2    1.23    0.08
   0   0  -2   47.49    1.85
   0   0  -2   44.92    2.30
   0   0  -2   47.59    1.93
   0   0  -2   44.75    1.86
   0   0   2   44.42    2.30
   0   0   2   43.99    1.86
   0   0   2   44.90    1.94
   0   0   2   44.86    1.85
  -1   0  -2  237.48   10.32
  -1   0  -2  249.54    9.97
  -1   0  -2  239.25   10.55
   1   0   2  261.33   10.60
   1   0   2  218.91   10.88
   1   0   2  266.03    9.95
   1   0   2  240.95   10.41
  -2   0  -2  294.79   11.88
  -2   0  -2  292.07   12.61
  -2   0  -2  324.41   12.28
   2   0   2  257.28   12.26
   2   0   2  314.93   12.63
   2   0   2  270.70   12.35
  -3   0  -2   57.78    2.49
  -3   0  -2   60.23    2.43
  -3   0  -2   64.13    2.34
  -3   0  -2   54.68    2.36
   3   0   2   54.84    2.42
   3   0   2   54.86    2.35
  -4   0  -2    5.57    0.25
  -4   0  -2    5.17    0.29
  -4   0  -2    5.01    0.26
  -4   0  -2    5.18    0.23
   4   0   2    5.21    0.24
   4   0   2    4.89    0.23
  -5   0  -2   30.94    1.19
  -5   0  -2   26.82    1.27
   5   0   2   28.01    1.17
  -6   0  -2    1.90    0.17
  -6   0  -2    1.87    0.19
  -7   0  -2    1.82    0.19
  -7   0  -2    2.35    0.22
  -8   0  -2    1.25    0.19
  -8   0  -2    1.26    0.21
  -9   1   2    5.08    0.39
  -9   1   2    5.02    0.33
  -8   1   2    1.44    0.18
  -8   1   2    0.95    0.20
  -7   1   2   28.37    1.20
   6  -1  -2    0.55    0.10
   6  -1  -2    0.61    0.07
  -6   1   2    0.53    0.12
   5  -1  -2   57.12    2.42
   5  -1  -2   58.80    2.34
  -5   1   2   59.49    2.36
  -5   1   2   55.11    2.35
   4  -1  -2    7.74    0.34
   4  -1  -2    7.28    0.34
  -4   1   2    7.74    0.34
  -4   1   2    7.57    0.35
  -4   1   2    7.57    0.34
   3  -1  -2   61.39    2.43
   3  -1  -2   59.65    2.51
  -3   1   2   58.68    2.43
  -3   1   2   60.17    2.53
  -3   1   2   59.82    2.44
   2  -1  -2  186.09    7.49
   2  -1  -2  187.66    7.76
  -2   1   2  173.02    7.51
  -2   1   2  189.52    7.50
  -2   1   2  185.27    7.77
   1  -1  -2    4.10    0.19
   1  -1  -2    3.51    0.17
   1  -1  -2    3.85    0.18
  -1   1   2    3.88    0.19
  -1   1   2    3.98    0.18
  -1   1   2    3.74    0.18
   0  -1  -2   52.04    1.98
   0  -1  -2   48.75    2.06
   0  -1  -2   49.54    1.99
   0   1   2   47.59    1.98
   0   1   2   46.30    1.98
   0   1   2   49.23    1.98
  -1  -1  -2    7.60    0.35
  -1  -1  -2    7.94    0.34
  -1  -1  -2    8.40    0.36
   1   1   2    7.72    0.35
   1   1   2    8.07    0.35
   1   1   2    8.46    0.34
  -2  -1  -2   71.31    2.89
  -2  -1  -2   66.84    2.78
  -2  -1  -2   68.51    2.80
   2   1   2   67.07    2.91
   2   1   2   68.66    2.82
  -3  -1  -2   72.47    3.05
  -3  -1  -2   71.40    2.87
  -3  -1  -2   74.82    2.97
  -3  -1  -2   68.73    2.88
   3   1   2   70.65    3.00
   3   1   2   66.73    2.87
  -4  -1  -2    0.94    0.11
  -4  -1  -2    0.99    0.12
  -4  -1  -2    1.15    0.09
  -4  -1  -2    1.09    0.12
   4   1   2    0.95    0.08
   4   1   2    0.95    0.10
  -5  -1  -2   12.35    0.55
  -5  -1  -2   12.15    0.60
  -5  -1  -2   12.16    0.57
   5   1   2   13.49    0.55
   5   1   2   12.81    0.55
  -6  -1  -2    7.93    0.41
  -6  -1  -2    8.67    0.45
  -7  -1  -2    0.00    0.16
  -7  -1  -2    0.08    0.15
  -8  -1  -2    0.96    0.21
  -8  -1  -2    0.56    0.19
  -9   2   2    4.24    0.35
  -9   2   2    3.92    0.31
  -8   2   2    1.30    0.18
  -7   2   2    6.82    0.35
   6  -2  -2   31.06    1.29
   6  -2  -2   30.87    1.33
  -6   2   2   32.55    1.32
  -6   2   2   31.42    1.31
   5  -2  -2    0.20    0.07
  -5   2   2    0.49    0.08
  -5   2   2    0.14    0.08
  -5   2   2    0.24    0.09
   4  -2  -2   88.21    3.57
  -4   2   2   90.78    3.75
  -4   2   2   87.65    3.58
  -4   2   2   86.42    3.57
   3  -2  -2    0.85    0.08
  -3   2   2    0.66    0.08
  -3   2   2    0.54    0.07
   2  -2  -2  244.73    9.82
  -2   2   2  240.06   10.17
  -2   2   2  237.33    9.80
  -2   2   2  244.37    9.83
   1  -2  -2   63.25    2.63
  -1   2   2   63.62    2.68
  -1   2   2   66.22    3.29
  -1   2   2   61.55    2.75
  -1   2   2   69.98    2.66
   0  -2  -2    0.03    0.05
   0  -2  -2    0.04    0.06
   0  -2  -2    0.03    0.04
   0   2   2    0.23    0.06
   0   2   2    0.03    0.05
   0   2   2    0.00    0.05
  -1  -2  -2   84.17    3.43
  -1  -2  -2   82.94    3.42
   1   2   2   81.16    3.85
   1   2   2   83.29    3.62
   1   2   2   89.51    3.42
  -2  -2  -2   91.53    3.76
  -2  -2  -2   90.63    3.79
   2   2   2   94.02    3.95
   2   2   2   95.11    3.81
  -3  -2  -2   56.44    2.31
   3   2   2   58.04    2.38
   3   2   2   55.33    2.31
  -4  -2  -2   10.00    0.48
   4   2   2   10.43    0.47
   4   2   2   10.85    0.47
  -5  -2  -2    0.62    0.15
   5   2   2    0.79    0.12
   5   2   2    0.82    0.10
  -6  -2  -2   14.01    0.65
  -7  -2  -2    5.12    0.34
  -8  -2  -2    0.27    0.20
  -9   3   2    2.17    0.24
  -8   3   2    4.84    0.31
  -7   3   2    9.31    0.45
  -6   3   2   14.24    0.62
  -6   3   2   14.18    0.64
   5  -3  -2   10.72    0.46
  -5   3   2   10.37    0.50
  -5   3   2   11.42    0.50
  -5   3   2   10.83    0.48
   4  -3  -2    9.05    0.40
  -4   3   2    9.07    0.42
  -4   3   2    9.26    0.41
  -4   3   2    9.43    0.43
   3  -3  -2   10.45    0.47
  -3   3   2   11.23    0.50
  -3   3   2   11.49    0.47
  -3   3   2   10.97    0.48
   2  -3  -2   76.02    3.20
  -2   3   2   78.51    3.23
  -2   3   2   82.21    3.32
  -2   3   2   75.82    3.98
  -2   3   2   81.57    3.20
   1  -3  -2  120.78    4.96
  -1   3   2  126.44    4.94
  -1   3   2  124.29    6.14
  -1   3   2  119.92    5.16
  -1   3   2  114.04    4.90
   0  -3  -2    6.53    0.31
   0  -3  -2    6.61    0.36
   0   3   2    6.53    0.31
   0   3   2    6.97    0.31
   0   3   2    7.06    0.31
  -1  -3  -2   62.95    3.27
  -1  -3  -2   62.59    2.63
   1   3   2   69.57    2.73
   1   3   2   63.29    2.63
  -2  -3  -2    7.55    0.37
   2   3   2    8.24    0.38
   2   3   2    8.08    0.37
  -3  -3  -2   23.74    1.05
   3   3   2   24.75    1.07
   3   3   2   25.59    1.04
  -4  -3  -2    8.40    0.45
   4   3   2    9.36    0.44
   4   3   2    9.23    0.43
  -5  -3  -2    8.51    0.47
   5   3   2    9.84    0.45
   5   3   2    9.37    0.44
  -6  -3  -2    4.53    0.33
   6   3   2    5.15    0.28
  -8   4   2    7.16    0.39
  -7   4   2   10.17    0.49
  -6   4   2    6.85    0.36
  -6   4   2    6.59    0.34
  -5   4   2   33.30    1.42
  -5   4   2   32.40    1.38
  -5   4   2   33.34    1.36
   4  -4  -2    2.12    0.12
  -4   4   2    1.74    0.15
  -4   4   2    1.74    0.15
  -4   4   2    1.69    0.15
   3  -4  -2   88.62    3.78
  -3   4   2   95.41    3.93
  -3   4   2   88.76    4.73
  -3   4   2  102.76    3.79
  -3   4   2   92.06    3.80
   2  -4  -2   38.48    1.57
  -2   4   2   40.29    1.58
  -2   4   2   38.14    1.96
  -2   4   2   36.91    1.57
  -2   4   2   38.17    1.64
   1  -4  -2   22.33    0.93
  -1   4   2   23.66    0.94
  -1   4   2   22.00    0.93
  -1   4   2   23.07    1.15
  -1   4   2   20.50    0.97
   0  -4  -2   63.78    3.23
   0  -4  -2   61.20    2.61
   0   4   2   66.27    2.61
   0   4   2   64.94    2.71
  -1  -4  -2    0.56    0.09
  -1  -4  -2    0.36    0.11
   1   4   2    0.67    0.11
   1   4   2    0.40    0.11
  -2  -4  -2   24.08    1.22
  -2  -4  -2   22.69    1.00
   2   4   2   23.90    1.00
   2   4   2   23.55    1.03
  -3  -4  -2   10.16    0.50
   3   4   2   10.88    0.51
   3   4   2   11.18    0.51
  -4  -4  -2   10.75    0.55
   4   4   2   12.68    0.56
   4   4   2   11.87    0.55
  -5  -4  -2   14.25    0.70
   5   4   2   15.65    0.70
   5   4   2   15.45    0.69
  -6  -4  -2    0.07    0.18
   6   4   2    0.11    0.13
  -7  -4  -2    0.21    0.22
  -8   5   2    0.23    0.17
  -7   5   2   20.66    0.89
  -6   5   2    1.38    0.16
  -6   5   2    1.10    0.15
  -5   5   2   17.88    0.76
  -5   5   2   17.83    0.81
  -4   5   2   28.66    1.16
  -4   5   2   28.02    1.22
  -4   5   2   27.18    1.47
   3  -5  -2    7.24    0.34
  -3   5   2    8.20    0.37
  -3   5   2    7.69    0.36
  -3   5   2    7.91    0.46
  -3   5   2    7.76    0.40
  -2   5   2   46.24    1.96
  -2   5   2   45.19    2.04
  -2   5   2   50.80    1.96
  -2   5   2   48.90    2.43
  -1   5   2   20.56    0.91
  -1   5   2   20.92    1.06
  -1   5   2   19.97    0.87
   0  -5  -2   42.13    2.18
   0  -5  -2   42.56    1.76
   0   5   2   43.85    1.77
  -1  -5  -2   43.81    2.16
  -1  -5  -2   41.89    1.75
   1   5   2   41.13    1.75
   1   5   2   42.59    1.82
  -2  -5  -2   -0.16    0.13
  -2  -5  -2    0.06    0.10
   2   5   2    0.15    0.12
   2   5   2   -0.02    0.13
  -3  -5  -2    2.54    0.22
  -3  -5  -2    2.14    0.20
   3   5   2    2.37    0.21
   3   5   2    1.94    0.19
  -4  -5  -2    0.24    0.17
   4   5   2    0.28    0.14
   4   5   2    0.25    0.16
  -5  -5  -2    0.64    0.21
   5   5   2    0.63    0.15
   5   5   2    0.60    0.19
  -6  -5  -2    1.77    0.26
   6   5   2    1.97    0.20
  -7   6   2    4.84    0.30
  -6   6   2   16.25    0.78
  -6   6   2   17.46    0.74
  -5   6   2   -0.01    0.16
  -5   6   2    0.20    0.14
  -5   6   2    0.07    0.12
  -4   6   2   21.84    1.00
  -4   6   2   22.15    0.95
  -4   6   2   23.69    1.22
  -3   6   2   15.53    0.81
  -3   6   2   14.07    0.65
  -3   6   2   14.79    0.69
  -2   6   2    9.61    0.53
  -2   6   2    9.15    0.44
  -2   6   2    9.36    0.48
   1  -6  -2    0.92    0.12
  -1   6   2    1.05    0.13
  -1   6   2    1.16    0.16
  -1   6   2    1.18    0.15
  -1   6   2    0.90    0.14
   0  -6  -2   25.25    1.29
   0  -6  -2   24.53    1.04
   0   6   2   23.82    1.10
   0   6   2   25.12    1.05
  -1  -6  -2   43.12    2.12
  -1  -6  -2   41.15    1.72
   1   6   2   41.08    1.73
   1   6   2   40.09    1.79
  -2  -6  -2   15.68    0.71
  -2  -6  -2   16.57    0.86
   2   6   2   15.66    0.72
   2   6   2   15.16    0.74
  -3  -6  -2    1.08    0.17
  -3  -6  -2    0.92    0.18
   3   6   2    0.81    0.17
   3   6   2    1.02    0.20
  -4  -6  -2    8.33    0.48
   4   6   2    9.61    0.48
   4   6   2    8.72    0.46
  -5  -6  -2    0.79    0.23
   5   6   2    0.23    0.17
  -6   7   2   13.42    0.60
  -6   7   2   12.50    0.64
  -5   7   2    7.93    0.40
  -5   7   2    7.53    0.43
  -4   7   2   17.27    0.76
  -4   7   2   18.59    0.96
  -4   7   2   15.66    0.79
  -3   7   2   22.30    1.05
  -3   7   2   22.91    1.00
  -3   7   2   24.65    1.24
  -2   7   2    2.86    0.26
  -2   7   2    3.01    0.24
  -2   7   2    3.46    0.27
  -1   7   2   27.34    1.30
  -1   7   2   31.28    1.25
   0  -7  -2    1.95    0.21
   0   7   2    1.62    0.20
   0   7   2    2.03    0.20
   1   7   2    2.48    0.24
   1   7   2    2.36    0.23
   2   7   2    9.23    0.50
   2   7   2   10.35    0.53
   3   7   2   -0.03    0.19
   3   7   2    0.20    0.17
   4   7   2    0.13    0.18
   4   7   2    0.20    0.21
  -5   8   2   11.67    0.56
  -5   8   2   11.28    0.60
  -4   8   2    2.33    0.22
  -4   8   2    2.14    0.25
  -3   8   2   11.15    0.57
  -3   8   2   10.97    0.53
  -2   8   2   25.73    1.08
  -2   8   2   23.95    1.14
  -1   8   2    3.52    0.30
  -1   8   2    4.02    0.30
   0   8   2    7.58    0.45
   0   8   2    7.96    0.44
   1   8   2    1.68    0.24
   1   8   2    1.81    0.24
   2   8   2    1.33    0.23
   2   8   2    0.80    0.22
   3   8   2    3.51    0.32
   3   8   2    2.68    0.28
  -3   9   2    1.37    0.22
  -2   9   2    8.61    0.52
  -2   9   2    8.57    0.47
  -1   9   2    2.26    0.27
  -1   9   2    2.82    0.28
   0   9   2    3.84    0.33
   0   9   2    4.14    0.33
   1  10  -3    1.57    0.26
   1  10  -3    1.93    0.27
   0  10  -3    5.54    0.41
   0  10  -3    5.94    0.41
  -1  10  -3    1.43    0.23
  -1  10  -3    0.94    0.23
  -2  10  -3    0.05    0.21
  -2  10  -3   -0.11    0.19
  -3  10  -3    6.28    0.39
   4   9  -3    0.81    0.21
   4   9  -3    0.96    0.25
   3   9  -3    0.22    0.20
   3   9  -3   -0.06    0.21
   2   9  -3    1.00    0.22
   2   9  -3    0.78    0.21
   1   9  -3    1.04    0.21
   1   9  -3    0.90    0.21
   0   9  -3   -0.14    0.18
   0   9  -3   -0.17    0.17
  -1   9  -3    3.59    0.31
  -1   9  -3    4.05    0.30
  -2   9  -3    3.84    0.31
  -2   9  -3    3.60    0.28
  -3   9  -3    3.90    0.32
  -3   9  -3    4.43    0.28
  -4   9  -3    4.91    0.38
  -4   9  -3    6.04    0.32
  -5   9  -3    0.46    0.15
  -5   9  -3    0.34    0.19
   5   8  -3    1.01    0.21
   5   8  -3    1.02    0.24
   4   8  -3    0.07    0.20
   4   8  -3    0.08    0.17
   3   8  -3   10.90    0.56
   3   8  -3   10.29    0.53
   2   8  -3    3.20    0.26
   2   8  -3    3.13    0.27
   1   8  -3    3.20    0.26
   1   8  -3    3.03    0.26
   0   8  -3    4.80    0.29
   0   8  -3    4.24    0.31
  -1   8  -3    6.38    0.38
  -1   8  -3    6.44    0.34
  -2   8  -3    0.61    0.16
  -2   8  -3    0.78    0.14
  -3   8  -3    6.45    0.40
  -3   8  -3    6.87    0.33
  -4   8  -3    9.46    0.42
  -4   8  -3    9.98    0.49
  -4   8  -3    8.69    0.52
  -5   8  -3    4.79    0.26
  -5   8  -3    5.08    0.33
  -6   8  -3    0.10    0.12
   6   7  -3    1.54    0.25
   6   7  -3    1.49    0.21
   5   7  -3    2.63    0.24
   5   7  -3    2.41    0.25
   4   7  -3    0.59    0.18
   4   7  -3    0.36    0.15
   3   7  -3    1.47    0.19
   3   7  -3    1.87    0.21
  -3  -7   3    2.26    0.24
   2   7  -3   11.68    0.55
   2   7  -3   10.97    0.58
  -2  -7   3   12.16    0.68
   1   7  -3    0.63    0.14
   1   7  -3    0.57    0.16
  -1  -7   3    0.88    0.17
   0   7  -3   33.53    1.35
   0   7  -3   30.26    1.68
   0   7  -3   31.80    1.42
   0  -7   3   33.72    1.70
  -1   7  -3   22.43    0.91
  -1   7  -3   20.46    1.15
  -1   7  -3   20.30    0.96
   1  -7   3   22.42    1.17
  -2   7  -3   21.92    1.26
  -2   7  -3   24.84    0.98
  -2   7  -3   23.66    1.06
  -3   7  -3    2.63    0.21
  -3   7  -3    2.17    0.15
  -3   7  -3    2.28    0.27
  -4   7  -3    3.62    0.27
  -4   7  -3    3.64    0.19
  -4   7  -3    3.60    0.27
  -5   7  -3   10.57    0.58
  -5   7  -3   10.85    0.53
  -5   7  -3   11.05    0.47
  -6   7  -3    0.09    0.11
  -7   7  -3    0.84    0.14
   7   6  -3    2.54    0.28
   7   6  -3    2.32    0.23
   6   6  -3    1.69    0.24
   6   6  -3    1.88    0.20
   5   6  -3    1.67    0.19
   5   6  -3    2.06    0.22
  -5  -6   3    1.81    0.18
   4   6  -3    2.27    0.21
   4   6  -3    2.41    0.21
  -4  -6   3    2.73    0.27
  -4  -6   3    2.43    0.20
   3   6  -3    8.88    0.45
   3   6  -3    8.54    0.46
   3   6  -3    9.81    0.44
  -3  -6   3    9.75    0.56
  -3  -6   3    9.18    0.43
   2   6  -3    7.82    0.37
   2   6  -3    7.53    0.39
  -2  -6   3    7.75    0.46
  -2  -6   3    7.02    0.34
   1   6  -3    4.14    0.24
   1   6  -3    4.18    0.23
  -1  -6   3    3.82    0.19
  -1  -6   3    4.47    0.30
   0   6  -3   30.19    1.68
   0   6  -3   32.68    1.33
   0   6  -3   34.88    1.41
   0   6  -3   33.07    1.34
   0  -6   3   31.44    1.69
  -1   6  -3   38.77    1.71
  -1   6  -3   36.11    2.05
  -1   6  -3   43.38    1.62
  -1   6  -3   42.89    1.62
   1  -6   3   36.51    2.05
  -2   6  -3    0.33    0.07
  -2   6  -3    0.28    0.14
  -2   6  -3    0.44    0.06
  -2   6  -3    0.47    0.12
  -3   6  -3   18.01    0.79
  -3   6  -3   17.29    0.86
  -3   6  -3   16.79    0.97
  -4   6  -3    9.17    0.62
  -4   6  -3   10.00    0.49
  -4   6  -3   10.73    0.54
  -5   6  -3    1.59    0.18
  -5   6  -3    1.51    0.16
  -5   6  -3    1.59    0.12
  -6   6  -3   12.13    0.52
  -7   6  -3    0.10    0.12
  -8  -5   3   -0.17    0.21
   7   5  -3    0.76    0.16
   7   5  -3    0.74    0.22
  -7  -5   3    0.82    0.19
   6   5  -3    4.11    0.29
   6   5  -3    4.02    0.28
  -6  -5   3    3.86    0.29
   5   5  -3   19.31    0.86
   5   5  -3   19.48    0.88
  -5  -5   3   19.85    0.85
   4   5  -3    5.03    0.25
   4   5  -3    5.14    0.29
   4   5  -3    4.79    0.29
  -4  -5   3    4.80    0.27
   3   5  -3   20.96    0.88
   3   5  -3   20.03    0.90
   3   5  -3   19.86    0.86
  -3  -5   3   19.85    0.85
  -3  -5   3   20.12    1.07
   2   5  -3    6.24    0.29
   2   5  -3    5.94    0.32
   2   5  -3    5.57    0.30
  -2  -5   3    5.83    0.37
  -2  -5   3    6.13    0.28
   1   5  -3    0.90    0.09
   1   5  -3    0.78    0.10
  -1  -5   3    0.72    0.12
  -1  -5   3    0.90    0.07
   0   5  -3   12.34    0.57
   0   5  -3   11.75    0.68
   0   5  -3   12.56    0.52
   0   5  -3   12.92    0.53
   0  -5   3   12.25    0.68
  -1   5  -3   25.60    1.02
  -1   5  -3   24.67    1.08
  -1   5  -3   24.94    1.01
   1  -5   3   24.21    1.31
  -2   5  -3   33.36    1.77
  -2   5  -3   34.70    1.46
  -3   5  -3   11.66    0.59
  -3   5  -3   11.33    0.53
  -4   5  -3    2.60    0.22
  -4   5  -3    2.62    0.19
  -5   5  -3    9.98    0.42
  -5   5  -3    9.12    0.61
  -5   5  -3   10.37    0.53
  -5   5  -3   10.17    0.47
  -7   5  -3    2.65    0.28
  -7   5  -3    2.76    0.21
  -8   5  -3    0.10    0.21
  -8   5  -3    0.18    0.14
  -8  -4   3    5.06    0.35
   7   4  -3    4.43    0.28
   7   4  -3    4.98    0.32
  -7  -4   3    4.03    0.30
   6   4  -3    0.34    0.15
   6   4  -3    0.46    0.12
  -6  -4   3    0.57    0.14
   5   4  -3   86.09    3.51
   5   4  -3   86.07    3.63
  -5  -4   3   86.13    3.51
   4   4  -3   29.29    1.24
   4   4  -3   27.02    1.20
  -4  -4   3   29.57    1.19
   3   4  -3   74.34    3.12
   3   4  -3   76.52    3.28
   3   4  -3   77.69    3.23
  -3  -4   3   77.99    3.11
   2   4  -3   40.93    1.71
   2   4  -3   44.49    1.71
   2   4  -3   41.83    1.78
  -2  -4   3   41.02    1.70
  -2  -4   3   40.86    2.13
   1   4  -3  130.69    5.30
   1   4  -3  137.53    5.29
  -1  -4   3  127.14    5.27
  -1  -4   3  121.44    7.29
   0   4  -3   33.63    1.32
   0   4  -3   33.00    1.32
   0   4  -3   30.74    1.67
   0   4  -3   33.41    1.39
   0  -4   3   31.38    1.67
  -1   4  -3    5.10    0.33
  -1   4  -3    5.84    0.28
   1  -4   3    5.26    0.33
  -2   4  -3   42.34    1.96
  -2   4  -3   40.36    1.76
  -3   4  -3   16.54    0.73
  -3   4  -3   16.95    0.82
  -4   4  -3   45.77    1.83
  -4   4  -3   40.87    2.05
  -5   4  -3   22.94    0.92
  -5   4  -3   21.89    0.96
  -6   4  -3    7.37    0.42
  -7   4  -3   13.69    0.70
  -8   4  -3    0.20    0.20
  -8   4  -3    0.01    0.15
  -8  -3   3    4.32    0.31
   7   3  -3    1.26    0.14
   7   3  -3    1.22    0.19
  -7  -3   3    1.29    0.15
  -7  -3   3    1.31    0.18
   6   3  -3    0.63    0.15
   6   3  -3    0.68    0.11
  -6  -3   3    0.97    0.12
  -6  -3   3    0.82    0.14
   5   3  -3    5.18    0.29
   5   3  -3    5.07    0.27
  -5  -3   3    5.24    0.28
   4   3  -3   16.03    0.70
  -4  -3   3   16.41    0.69
   3   3  -3   30.03    1.25
  -3  -3   3   30.33    1.24
   2   3  -3   11.45    0.51
   2   3  -3   12.56    0.51
  -2  -3   3   12.14    0.51
   1   3  -3    0.26    0.04
   1   3  -3    0.28    0.05
  -1  -3   3    0.18    0.04
  -1  -3   3    0.19    0.06
   0   3  -3   82.42    3.35
   0   3  -3   84.93    3.36
   0  -3   3   79.10    4.83
  -1   3  -3   51.70    2.51
   1  -3   3   55.40    2.72
  -2   3  -3    6.71    0.35
  -2   3  -3    6.75    0.40
  -3   3  -3  154.50    6.33
  -3   3  -3  146.34    7.62
  -3   3  -3  149.33    7.08
  -4   3  -3    2.57    0.21
  -4   3  -3    2.69    0.14
  -4   3  -3    2.90    0.16
   4  -3   3    2.87    0.18
  -5   3  -3    7.42    0.34
  -5   3  -3    7.40    0.34
  -5   3  -3    8.43    0.34
  -5   3  -3    7.78    0.34
   5  -3   3    7.33    0.40
  -6   3  -3    3.80    0.29
   6  -3   3    4.29    0.25
  -7   3  -3    0.08    0.16
  -7   3  -3    0.07    0.13
  -8   3  -3    9.73    0.55
  -9  -2   3    0.29    0.20
  -8  -2   3    0.05    0.15
  -8  -2   3    0.09    0.16
   7   2  -3   11.80    0.55
   7   2  -3   11.47    0.53
  -7  -2   3   11.78    0.57
  -7  -2   3   11.97    0.56
   6   2  -3    4.08    0.25
   6   2  -3    3.54    0.21
  -6  -2   3    3.89    0.24
  -6  -2   3    3.80    0.24
   5   2  -3   26.08    1.10
  -5  -2   3   26.34    1.09
  -5  -2   3   26.08    1.14
   4   2  -3   83.11    3.46
  -4  -2   3   87.43    3.46
  -4  -2   3   85.31    3.67
   3   2  -3    3.76    0.19
   3   2  -3    3.68    0.20
  -3  -2   3    3.67    0.19
  -3  -2   3    3.81    0.18
   2   2  -3  102.43    4.03
   2   2  -3   96.57    4.07
  -2  -2   3   99.22    4.04
   1   2  -3  150.95    5.92
   1   2  -3  144.13    5.92
   1   2  -3  149.70    6.87
  -1  -2   3  140.26    5.89
  -1  -2   3  139.06    8.56
   0   2  -3   54.11    2.84
   0   2  -3   58.70    2.43
   0   2  -3   57.19    2.63
   0   2  -3   57.33    2.29
   0   2  -3   55.42    2.29
   0  -2   3   54.86    2.88
  -1   2  -3    1.64    0.12
  -1   2  -3    1.69    0.11
   1  -2   3    1.48    0.13
  -2   2  -3    0.71    0.08
  -2   2  -3    0.26    0.07
  -3   2  -3   42.49    1.69
  -3   2  -3   41.78    1.82
  -3   2  -3   40.55    1.69
   3  -2   3   42.95    1.98
  -4   2  -3   27.63    1.17
  -4   2  -3   27.05    1.14
  -4   2  -3   29.14    1.13
   4  -2   3   27.22    1.32
  -5   2  -3    0.71    0.09
  -5   2  -3    0.42    0.10
   5  -2   3    0.60    0.11
  -6   2  -3    5.60    0.35
   6  -2   3    5.94    0.33
  -7   2  -3    0.78    0.15
  -7   2  -3    0.94    0.19
  -8   2  -3    0.74    0.18
  -8   2  -3    0.73    0.21
  -9  -1   3    3.41    0.29
  -9  -1   3    3.72    0.30
  -8  -1   3   22.21    0.97
  -8  -1   3   22.10    1.02
   7   1  -3   17.07    0.72
  -7  -1   3   16.38    0.73
  -7  -1   3   15.71    0.76
   6   1  -3   16.85    0.73
  -6  -1   3   16.23    0.73
  -6  -1   3   17.17    0.77
   5   1  -3    0.96    0.12
  -5  -1   3    0.92    0.11
   4   1  -3    0.46    0.08
  -4  -1   3    0.52    0.08
   3   1  -3  268.37   11.75
   3   1  -3  317.44   13.54
  -3  -1   3  270.42   11.73
  -3  -1   3  302.15   11.76
   2   1  -3   65.31    3.08
   2   1  -3   63.39    2.65
  -2  -1   3   66.31    2.65
  -2  -1   3   65.96    2.66
   1   1  -3  265.15   11.19
   1   1  -3  281.60   12.94
   1   1  -3  283.16   12.06
  -1  -1   3  260.46   11.74
  -1  -1   3  289.77   12.95
   0   1  -3  290.16   14.55
   0   1  -3  285.00   16.73
   0   1  -3  292.27   13.16
   0   1  -3  365.22   13.31
   0  -1   3  329.91   14.27
   0  -1   3  286.39   15.67
   0  -1   3  337.20   12.83
   0  -1   3  314.29   12.94
  -1   1  -3  379.83   16.56
  -1   1  -3  436.96   16.91
  -1   1  -3  389.81   21.74
  -1   1  -3  378.37   16.61
  -1   1  -3  417.24   18.68
   1  -1   3  421.29   18.57
  -2   1  -3   13.49    0.55
  -2   1  -3   13.60    0.61
  -2   1  -3   13.77    0.58
  -2   1  -3   13.17    0.56
  -3   1  -3   41.02    1.70
  -3   1  -3   40.66    1.70
  -3   1  -3   44.17    1.76
   3  -1   3   41.41    1.97
  -4   1  -3   97.79    3.86
  -4   1  -3   99.78    3.97
  -4   1  -3   93.92    4.08
  -4   1  -3   92.08    4.04
   4  -1   3   90.01    4.43
  -5   1  -3    0.45    0.09
  -5   1  -3    0.69    0.13
  -5   1  -3    0.30    0.11
   5  -1   3    0.41    0.10
  -6   1  -3    9.27    0.51
   6  -1   3   10.47    0.52
  -7   1  -3    9.02    0.51
  -8   1  -3    0.13    0.17
  -8   1  -3    0.07    0.18
  -9   0   3    0.44    0.19
  -9   0   3    0.60    0.20
  -8   0   3    3.81    0.29
  -8   0   3    3.75    0.31
  -7   0   3    7.98    0.40
   6   0  -3   39.40    1.57
  -6   0   3   36.78    1.57
   5   0  -3   37.59    1.57
   5   0  -3   38.80    1.78
  -5   0   3   38.21    1.57
   4   0  -3   16.32    0.69
   4   0  -3   16.34    0.77
  -4   0   3   16.68    0.70
  -4   0   3   16.04    0.69
   3   0  -3   17.97    0.77
   3   0  -3   17.61    0.75
   3   0  -3   17.64    0.85
  -3   0   3   18.14    0.75
  -3   0   3   18.50    0.75
   2   0  -3    0.44    0.06
   2   0  -3    0.53    0.06
   2   0  -3    0.42    0.05
  -2   0   3    0.44    0.06
  -2   0   3    0.41    0.06
  -2   0   3    0.39    0.06
  -2   0   3    0.41    0.05
   1   0  -3  153.41    6.47
   1   0  -3  170.19    6.74
   1   0  -3  163.15    6.49
  -1   0   3  163.12    8.36
  -1   0   3  151.48    6.73
  -1   0   3  154.73    6.47
  -1   0   3  161.24    6.50
   0   0  -3  226.43    9.45
   0   0  -3  226.61   12.05
   0   0  -3  237.08    9.44
   0   0  -3  230.91    9.81
   0   0   3  225.76    9.43
   0   0   3  232.53    9.43
   0   0   3  250.41   12.06
  -1   0  -3   12.79    0.53
  -1   0  -3   12.04    0.51
  -1   0  -3   11.00    0.51
   1   0   3   11.35    0.53
   1   0   3   13.36    0.55
   1   0   3   12.84    0.51
  -2   0  -3   87.16    3.42
  -2   0  -3   78.31    3.31
  -2   0  -3   79.31    3.32
   2   0   3   84.23    3.30
   2   0   3   76.20    3.44
  -3   0  -3   22.49    0.87
  -3   0  -3   19.85    0.90
  -3   0  -3   19.46    0.84
  -3   0  -3   20.58    0.83
   3   0   3   19.15    0.82
   3   0   3   19.18    0.86
  -4   0  -3    0.93    0.10
  -4   0  -3    0.91    0.12
  -4   0  -3    1.04    0.08
  -4   0  -3    0.72    0.12
   4   0   3    0.92    0.08
   4   0   3    0.84    0.07
  -5   0  -3   39.87    1.54
  -5   0  -3   36.31    1.54
  -5   0  -3   36.35    1.64
  -5   0  -3   35.95    1.56
   5   0   3   37.54    1.51
  -6   0  -3    0.92    0.17
  -6   0  -3    0.76    0.15
  -7   0  -3    4.01    0.34
   7   0   3    4.55    0.29
  -8   0  -3    0.44    0.18
  -8   0  -3    0.59    0.20
  -9   1   3    0.14    0.20
  -9   1   3    0.01    0.17
  -8   1   3    6.65    0.36
  -7   1   3    7.76    0.39
   6  -1  -3    7.28    0.36
  -6   1   3    7.42    0.36
   5  -1  -3   67.35    2.69
  -5   1   3   64.87    2.69
   4  -1  -3   58.16    2.37
  -4   1   3   59.99    2.38
  -4   1   3   55.44    2.45
  -4   1   3   59.37    2.37
   3  -1  -3   12.86    0.55
  -3   1   3   13.31    0.55
  -3   1   3   12.69    0.56
  -3   1   3   12.62    0.54
  -3   1   3   12.51    0.61
   2  -1  -3   97.84    4.23
   2  -1  -3  107.31    4.29
  -2   1   3  110.96    4.27
  -2   1   3  105.95    4.26
  -2   1   3  101.70    4.45
   1  -1  -3    1.17    0.09
   1  -1  -3    1.06    0.08
  -1   1   3    0.81    0.08
  -1   1   3    1.32    0.08
  -1   1   3    1.20    0.10
   0  -1  -3   69.15    2.79
   0  -1  -3   67.87    2.77
   0   1   3   63.81    2.79
   0   1   3   67.94    2.78
   0   1   3   73.59    2.81
  -1  -1  -3   44.00    1.75
  -1  -1  -3   41.63    1.75
   1   1   3   43.07    1.75
  -2  -1  -3    9.02    0.41
  -2  -1  -3    9.08    0.40
  -3  -1  -3   65.44    2.67
  -3  -1  -3   66.27    2.67
   3   1   3   64.95    2.66
  -4  -1  -3    1.83    0.17
  -4  -1  -3    2.06    0.16
   4   1   3    1.86    0.14
  -5  -1  -3   10.73    0.51
   5   1   3   10.98    0.48
  -6  -1  -3    3.52    0.26
  -6  -1  -3    3.55    0.28
  -7  -1  -3    0.26    0.18
  -8  -1  -3    2.18    0.26
  -9   2   3    8.21    0.46
  -8   2   3    1.40    0.19
  -7   2   3    0.71    0.15
   6  -2  -3  100.50    3.97
  -6   2   3   95.51    3.98
   5  -2  -3   74.44    2.98
  -5   2   3   74.86    2.98
  -5   2   3   74.01    2.99
  -5   2   3   70.12    3.09
   4  -2  -3  131.11    5.19
  -4   2   3  123.31    6.24
  -4   2   3  123.42    5.14
  -4   2   3  128.40    5.36
  -4   2   3  128.53    5.18
   3  -2  -3    0.23    0.07
  -3   2   3    0.16    0.07
  -3   2   3    0.17    0.08
  -3   2   3    0.18    0.07
   2  -2  -3  234.00    9.65
  -2   2   3  235.57    9.62
  -2   2   3  231.15    9.98
  -2   2   3  246.49    9.65
   1  -2  -3   24.48    1.05
  -1   2   3   26.13    1.29
  -1   2   3   24.52    1.09
  -1   2   3   27.16    1.05
  -1   2   3   24.91    1.05
   0  -2  -3   29.97    1.20
   0   2   3   28.59    1.19
   0   2   3   28.92    1.19
   0   2   3   28.00    1.23
  -1  -2  -3  105.69    4.37
   1   2   3  112.44    4.56
   1   2   3  103.87    4.39
  -2  -2  -3   13.54    0.61
   2   2   3   14.62    0.61
   2   2   3   13.30    0.59
  -3  -2  -3  115.33    4.84
   3   2   3  121.41    5.07
   3   2   3  121.65    4.86
  -4  -2  -3    5.05    0.30
   4   2   3    5.11    0.28
   4   2   3    5.81    0.27
  -5  -2  -3    4.25    0.30
   5   2   3    4.49    0.27
   5   2   3    4.78    0.25
  -6  -2  -3   15.76    0.72
  -7  -2  -3    0.14    0.19
  -9   3   3    4.42    0.33
  -8   3   3    6.27    0.36
  -7   3   3   18.95    0.83
  -6   3   3    0.56    0.12
  -6   3   3    0.58    0.12
   5  -3  -3   12.57    0.56
  -5   3   3   13.03    0.58
  -5   3   3   13.47    0.57
  -5   3   3   12.68    0.59
   4  -3  -3   22.62    0.96
  -4   3   3   22.89    1.01
  -4   3   3   23.22    0.98
  -4   3   3   23.82    0.97
   3  -3  -3   48.33    1.98
  -3   3   3   48.36    2.06
  -3   3   3   47.68    1.98
  -3   3   3   49.75    1.99
   2  -3  -3    0.77    0.10
  -2   3   3    0.92    0.10
  -2   3   3    1.01    0.11
  -2   3   3    0.88    0.09
   1  -3  -3  143.86    6.04
  -1   3   3  148.36    7.44
  -1   3   3  149.06    6.21
  -1   3   3  147.17    5.99
   0  -3  -3    9.81    0.47
   0   3   3   10.66    0.48
   0   3   3   10.90    0.47
  -1  -3  -3   19.52    0.99
  -1  -3  -3   19.98    0.83
   1   3   3   19.17    0.85
   1   3   3   19.35    0.82
  -2  -3  -3   52.97    2.24
   2   3   3   56.16    2.32
   2   3   3   54.77    2.24
  -3  -3  -3    3.80    0.26
   3   3   3    4.31    0.24
   3   3   3    4.41    0.25
  -4  -3  -3    4.44    0.30
   4   3   3    4.56    0.26
   4   3   3    4.59    0.28
  -5  -3  -3    0.67    0.18
   5   3   3    0.74    0.15
   5   3   3    0.65    0.12
  -6  -3  -3    0.61    0.19
  -7  -3  -3    5.02    0.37
  -8   4   3   19.46    0.86
  -7   4   3    2.07    0.19
  -7   4   3    1.61    0.17
  -6   4   3   23.20    1.01
  -6   4   3   22.61    0.97
  -5   4   3   40.26    1.70
  -5   4   3   42.28    1.77
   4  -4  -3    4.16    0.23
  -4   4   3    4.21    0.27
  -4   4   3    4.41    0.27
  -4   4   3    4.09    0.23
   3  -4  -3   40.29    1.72
  -3   4   3   41.91    1.72
  -3   4   3   44.75    1.73
  -3   4   3   42.26    2.15
  -3   4   3   40.71    1.79
   2  -4  -3   11.93    0.54
  -2   4   3   12.79    0.54
  -2   4   3   12.27    0.65
  -2   4   3   12.19    0.57
   1  -4  -3    3.86    0.24
  -1   4   3    4.69    0.25
  -1   4   3    4.33    0.25
  -1   4   3    4.03    0.23
   0  -4  -3   34.99    1.44
   0  -4  -3   33.03    1.76
   0   4   3   35.97    1.43
  -1  -4  -3   12.08    0.63
  -1  -4  -3   11.68    0.55
   1   4   3   11.95    0.54
   1   4   3   11.90    0.55
  -2  -4  -3   31.25    1.37
  -2  -4  -3   34.15    1.67
   2   4   3   32.40    1.37
   2   4   3   33.02    1.42
  -3  -4  -3    5.51    0.33
   3   4   3    5.45    0.32
   3   4   3    5.50    0.31
  -4  -4  -3    0.83    0.19
   4   4   3    0.78    0.14
   4   4   3    0.64    0.17
  -5  -4  -3    3.15    0.28
   5   4   3    3.84    0.25
  -6  -4  -3    0.01    0.21
  -8   5   3    4.71    0.32
  -7   5   3   15.92    0.73
  -7   5   3   15.04    0.69
  -6   5   3    0.65    0.15
  -6   5   3    0.45    0.14
  -5   5   3    7.89    0.38
  -5   5   3    7.63    0.41
  -4   5   3   25.47    1.13
  -4   5   3   25.26    1.07
  -4   5   3   25.93    1.35
   3  -5  -3   12.93    0.57
  -3   5   3   13.14    0.58
  -3   5   3   13.65    0.72
  -3   5   3   13.10    0.62
   2  -5  -3   87.69    3.56
  -2   5   3   86.18    3.56
  -2   5   3   83.66    3.70
  -2   5   3   92.81    4.42
   1  -5  -3   18.06    0.81
  -1   5   3   19.01    0.82
  -1   5   3   20.61    0.99
  -1   5   3   19.04    0.82
  -1   5   3   18.04    0.85
   0   5   3   83.59    3.40
  -1  -5  -3    0.73    0.11
  -1  -5  -3    0.78    0.15
   1   5   3    0.50    0.13
   1   5   3    1.05    0.15
  -2  -5  -3    6.80    0.39
  -2  -5  -3    7.07    0.40
   2   5   3    6.22    0.37
   2   5   3    6.76    0.37
  -3  -5  -3   24.92    1.27
  -3  -5  -3   24.69    1.06
   3   5   3   23.17    1.08
   3   5   3   24.47    1.05
  -4  -5  -3    0.10    0.18
   4   5   3    0.43    0.15
   4   5   3    0.45    0.18
  -5  -5  -3    7.70    0.47
   5   5   3    8.14    0.44
  -6  -5  -3    0.38    0.24
  -7   6   3    7.27    0.39
  -6   6   3   19.24    0.87
  -6   6   3   18.70    0.83
  -5   6   3   10.33    0.62
  -5   6   3    9.73    0.47
  -5   6   3    9.90    0.51
  -4   6   3   11.81    0.59
  -4   6   3   11.58    0.55
  -4   6   3   12.66    0.69
  -3   6   3    0.44    0.13
  -3   6   3    0.32    0.13
  -3   6   3    0.28    0.14
  -2   6   3   28.18    1.40
  -2   6   3   25.85    1.19
  -2   6   3   26.62    1.14
  -1   6   3    2.27    0.19
  -1   6   3    1.88    0.19
   0  -6  -3   13.60    0.62
   0   6   3   12.59    0.64
   0   6   3   14.11    0.62
  -1  -6  -3   13.09    0.62
  -1  -6  -3   13.27    0.71
   1   6   3   13.13    0.61
   1   6   3   12.88    0.63
  -2  -6  -3    3.74    0.31
   2   6   3    3.97    0.30
   2   6   3    3.40    0.27
  -3  -6  -3    1.01    0.20
   3   6   3    0.63    0.19
   3   6   3    0.56    0.16
  -4  -6  -3    2.58    0.29
   4   6   3    2.49    0.23
   4   6   3    2.36    0.26
  -5  -6  -3    0.45    0.25
   5   6   3    0.13    0.18
  -6   7   3   13.58    0.64
  -6   7   3   13.88    0.68
  -5   7   3    8.36    0.46
  -5   7   3    8.57    0.44
  -4   7   3    3.79    0.30
  -4   7   3    4.01    0.28
  -3   7   3   17.23    0.76
  -3   7   3   16.79    0.81
  -2   7   3    1.02    0.18
  -2   7   3    0.80    0.19
  -2   7   3    1.00    0.18
  -1   7   3   13.38    0.60
  -1   7   3   12.44    0.63
   0   7   3    0.91    0.18
   0   7   3    1.03    0.19
   1   7   3    2.16    0.24
   1   7   3    2.95    0.25
   2   7   3    6.12    0.40
   2   7   3    6.18    0.38
   3   7   3    0.90    0.23
   3   7   3    0.72    0.19
  -4   8   3    0.15    0.18
  -4   8   3   -0.02    0.19
  -3   8   3   14.74    0.69
  -3   8   3   15.12    0.73
  -2   8   3    2.63    0.27
  -2   8   3    3.17    0.27
  -1   8   3    0.87    0.20
  -1   8   3    1.33    0.20
   0   8   3    7.76    0.49
   0   8   3    8.85    0.47
   1   8   3    1.30    0.24
   1   8   3    1.03    0.22
   2   8   3    5.67    0.40
   2   8   3    4.93    0.37
   2  10  -4    1.08    0.25
   1  10  -4    0.43    0.22
   1  10  -4    0.52    0.22
   0  10  -4    2.53    0.30
   0  10  -4    2.78    0.28
  -1  10  -4    2.85    0.31
  -1  10  -4    3.63    0.29
  -2  10  -4    0.94    0.21
  -2  10  -4    0.82    0.24
  -3  10  -4    3.88    0.30
   4   9  -4    1.48    0.25
   4   9  -4    1.42    0.24
   3   9  -4    1.32    0.23
   3   9  -4    1.67    0.25
   2   9  -4    1.95    0.24
   2   9  -4    1.67    0.24
   1   9  -4   15.08    0.68
   1   9  -4   13.93    0.72
   0   9  -4    1.39    0.21
   0   9  -4    0.75    0.20
  -1   9  -4   11.54    0.52
  -1   9  -4    9.72    0.57
  -2   9  -4    1.05    0.21
  -2   9  -4    1.25    0.18
  -3   9  -4    0.81    0.21
  -3   9  -4    0.84    0.15
  -4   9  -4    4.74    0.28
  -4   9  -4    4.44    0.35
  -5   9  -4   -0.03    0.13
  -5   9  -4   -0.04    0.18
   5   8  -4    0.29    0.20
   5   8  -4    0.48    0.23
   4   8  -4    1.34    0.22
   4   8  -4    1.39    0.22
   3   8  -4    5.83    0.36
   3   8  -4    5.90    0.37
   2   8  -4    1.47    0.19
   2   8  -4    1.17    0.19
   1   8  -4    4.57    0.33
   1   8  -4    4.88    0.30
   0   8  -4   -0.14    0.14
   0   8  -4    0.10    0.14
  -1   8  -4    5.87    0.33
  -1   8  -4    6.13    0.37
  -2   8  -4   16.03    0.76
  -3   8  -4    2.57    0.24
  -3   8  -4    2.61    0.19
  -4   8  -4    0.98    0.18
  -4   8  -4    0.95    0.11
  -4   8  -4    0.81    0.18
  -5   8  -4    2.06    0.22
  -5   8  -4    2.60    0.17
  -6   8  -4   -0.01    0.11
   6   7  -4   -0.08    0.17
   6   7  -4    0.16    0.20
   5   7  -4    0.87    0.19
   5   7  -4    0.59    0.19
   4   7  -4    0.04    0.16
   4   7  -4   -0.22    0.14
   3   7  -4   17.27    0.75
   3   7  -4   16.14    0.78
   2   7  -4    6.26    0.35
   2   7  -4    6.57    0.39
  -2  -7   4    6.82    0.43
   1   7  -4    0.08    0.14
   1   7  -4    0.22    0.12
  -1  -7   4    0.23    0.15
   0   7  -4   21.15    1.15
   0   7  -4   19.96    0.97
   0   7  -4   22.51    0.91
   0  -7   4   21.99    1.16
  -1   7  -4    0.22    0.15
  -1   7  -4    0.38    0.11
  -1   7  -4    0.29    0.14
  -1   7  -4    0.28    0.08
   1  -7   4    0.30    0.16
  -2   7  -4   14.58    0.68
  -2   7  -4   14.81    0.61
  -2   7  -4   13.30    0.81
  -3   7  -4   16.19    0.71
  -3   7  -4   13.76    0.76
  -4   7  -4    3.11    0.28
  -4   7  -4    3.89    0.27
  -5   7  -4   10.75    0.58
  -5   7  -4   10.29    0.51
  -7   7  -4    2.23    0.17
  -7   7  -4    1.72    0.26
   7   6  -4    4.03    0.32
   7   6  -4    3.95    0.30
   6   6  -4    0.53    0.16
   6   6  -4    0.40    0.19
   5   6  -4    2.83    0.23
   5   6  -4    3.20    0.26
   4   6  -4    5.53    0.33
   4   6  -4    5.11    0.33
  -4  -6   4    5.84    0.30
  -4  -6   4    5.95    0.39
   3   6  -4   11.05    0.56
   3   6  -4   12.10    0.52
   3   6  -4   11.39    0.54
  -3  -6   4   11.64    0.51
  -3  -6   4   11.68    0.67
   2   6  -4   23.49    1.12
   2   6  -4   25.21    1.07
   2   6  -4   27.21    1.07
  -2  -6   4   26.22    1.05
  -2  -6   4   24.71    1.34
   1   6  -4    3.17    0.20
   1   6  -4    3.06    0.20
  -1  -6   4    3.17    0.26
   0   6  -4    7.42    0.46
   0   6  -4    7.71    0.40
   0   6  -4    7.40    0.34
   0   6  -4    7.99    0.35
   0  -6   4    7.62    0.47
  -1   6  -4   24.20    1.35
  -1   6  -4   25.28    1.12
  -1   6  -4   26.87    1.04
  -1   6  -4   25.95    1.04
   1  -6   4   24.02    1.34
  -2   6  -4    0.12    0.11
  -2   6  -4    0.16    0.12
  -3   6  -4   29.06    1.25
  -3   6  -4   28.21    1.39
  -3   6  -4   28.47    1.53
  -4   6  -4    0.08    0.13
  -4   6  -4    0.06    0.11
  -5   6  -4   16.35    0.75
  -5   6  -4   16.64    0.84
  -6   6  -4    1.52    0.22
  -7   6  -4    0.08    0.12
  -7   6  -4    0.00    0.19
   7   5  -4    1.04    0.22
   7   5  -4    1.14    0.17
  -7  -5   4    1.13    0.19
   6   5  -4   14.89    0.69
   6   5  -4   14.76    0.70
  -6  -5   4   15.19    0.68
   5   5  -4    2.30    0.21
   5   5  -4    2.13    0.19
  -5  -5   4    2.73    0.22
   4   5  -4    0.73    0.14
   4   5  -4    0.59    0.12
  -4  -5   4    0.72    0.12
   3   5  -4    0.19    0.11
   3   5  -4    0.20    0.11
  -3  -5   4    0.12    0.08
  -3  -5   4    0.32    0.12
   2   5  -4    5.92    0.28
   2   5  -4    5.32    0.27
   2   5  -4    5.64    0.30
  -2  -5   4    5.11    0.25
  -2  -5   4    5.66    0.35
   1   5  -4   20.27    0.82
   1   5  -4   18.22    0.82
  -1  -5   4   20.56    1.04
   0   5  -4   11.19    0.47
   0   5  -4   11.41    0.48
   0   5  -4   10.88    0.53
   0  -5   4   11.10    0.62
  -1   5  -4   49.43    2.21
  -1   5  -4   59.48    2.11
   1  -5   4   46.60    2.66
  -2   5  -4    6.35    0.36
  -2   5  -4    6.37    0.33
  -3   5  -4    3.73    0.23
  -3   5  -4    3.65    0.26
  -4   5  -4   18.08    1.08
  -4   5  -4   20.83    0.99
  -4   5  -4   20.38    0.87
  -5   5  -4    0.02    0.09
  -5   5  -4    0.06    0.15
  -5   5  -4   -0.08    0.13
  -6   5  -4    2.72    0.25
  -7   5  -4    1.48    0.23
  -8   5  -4    2.54    0.30
  -8  -4   4    0.49    0.19
   7   4  -4    1.66    0.22
   7   4  -4    1.83    0.18
  -7  -4   4    1.61    0.20
   6   4  -4    7.86    0.40
   6   4  -4    6.95    0.38
  -6  -4   4    7.59    0.39
   5   4  -4    0.03    0.13
   5   4  -4    0.21    0.10
  -5  -4   4    0.15    0.11
   4   4  -4    1.34    0.14
  -4  -4   4    1.53    0.14
   3   4  -4   52.22    2.13
  -3  -4   4   51.72    2.12
   2   4  -4    2.22    0.16
   2   4  -4    2.29    0.14
  -2  -4   4    2.24    0.14
  -2  -4   4    2.30    0.19
   1   4  -4   61.24    2.43
   1   4  -4   59.63    2.57
   1   4  -4   60.68    2.44
  -1  -4   4   58.63    3.05
   0   4  -4   16.45    0.91
   0   4  -4   17.57    0.71
   0   4  -4   17.73    0.71
   0  -4   4   17.27    0.91
  -1   4  -4    5.08    0.31
  -1   4  -4    4.82    0.28
   1  -4   4    4.87    0.31
  -2   4  -4   26.35    1.40
  -2   4  -4   27.03    1.29
  -3   4  -4    1.61    0.12
  -3   4  -4    1.23    0.14
  -3   4  -4    1.14    0.17
  -3   4  -4    1.36    0.15
  -4   4  -4    5.72    0.33
  -4   4  -4    5.24    0.38
  -4   4  -4    5.58    0.34
  -4   4  -4    5.95    0.29
  -5   4  -4   20.56    0.90
  -5   4  -4   19.81    0.85
  -5   4  -4   20.55    0.97
  -5   4  -4   22.07    0.85
  -6   4  -4    0.32    0.11
  -6   4  -4    0.42    0.16
  -7   4  -4    2.91    0.27
  -8   4  -4    0.82    0.23
  -8   4  -4    0.47    0.17
  -8  -3   4    1.56    0.22
   7   3  -4    4.78    0.31
   7   3  -4    4.61    0.28
  -7  -3   4    4.94    0.29
  -7  -3   4    4.89    0.30
   6   3  -4    0.08    0.13
  -6  -3   4    0.13    0.09
  -6  -3   4   -0.09    0.12
   5   3  -4   33.81    1.41
  -5  -3   4   32.95    1.40
  -5  -3   4   34.58    1.46
   4   3  -4    7.45    0.36
  -4  -3   4    7.79    0.34
  -4  -3   4    7.62    0.35
   3   3  -4   45.87    1.90
  -3  -3   4   46.97    1.89
   2   3  -4   45.26    1.84
   2   3  -4   44.69    1.85
  -2  -3   4   45.82    1.84
   1   3  -4    1.57    0.12
   1   3  -4    1.43    0.08
   1   3  -4    1.41    0.10
   1   3  -4    1.39    0.10
  -1  -3   4    1.18    0.13
  -1  -3   4    1.38    0.08
   0   3  -4  106.08    5.48
   0   3  -4  107.60    4.42
   0   3  -4  114.02    4.71
   0   3  -4  108.90    4.41
   0   3  -4  107.51    5.11
   0  -3   4  109.31    6.68
  -1   3  -4    3.81    0.20
  -1   3  -4    3.51    0.24
  -1   3  -4    3.90    0.23
   1  -3   4    3.50    0.24
  -2   3  -4   40.18    2.14
  -2   3  -4   42.49    1.97
  -2   3  -4   41.64    1.81
   2  -3   4   42.25    1.97
  -3   3  -4    0.99    0.13
  -3   3  -4    1.05    0.13
  -3   3  -4    1.44    0.16
   3  -3   4    0.95    0.12
  -4   3  -4    1.70    0.10
  -4   3  -4    1.63    0.16
  -4   3  -4    1.69    0.11
   4  -3   4    1.66    0.15
  -5   3  -4   22.46    0.88
  -5   3  -4   21.71    0.91
  -5   3  -4   20.79    0.98
  -5   3  -4   20.26    0.89
   5  -3   4   21.18    1.04
  -6   3  -4    2.32    0.22
  -6   3  -4    2.16    0.17
   6  -3   4    2.49    0.20
  -7   3  -4    8.14    0.47
  -8   3  -4    0.73    0.18
  -8   3  -4    0.59    0.21
  -9  -2   4    2.82    0.27
  -8  -2   4    2.22    0.20
  -8  -2   4    2.14    0.22
   7   2  -4    2.55    0.22
  -7  -2   4    2.54    0.21
  -7  -2   4    2.48    0.19
   6   2  -4    1.82    0.17
  -6  -2   4    1.83    0.15
  -6  -2   4    1.92    0.17
   5   2  -4    4.85    0.27
  -5  -2   4    4.90    0.26
   4   2  -4   21.50    0.93
  -4  -2   4   22.73    0.92
   3   2  -4    3.11    0.19
   3   2  -4    3.04    0.18
  -3  -2   4    3.28    0.17
   2   2  -4    7.83    0.34
   2   2  -4    7.57    0.39
   2   2  -4    7.52    0.34
  -2  -2   4    7.73    0.33
   1   2  -4    1.63    0.10
   1   2  -4    1.79    0.13
   1   2  -4    2.16    0.11
  -1  -2   4    1.52    0.10
  -1  -2   4    1.76    0.13
  -1  -2   4    1.63    0.09
   0   2  -4   40.40    1.98
   0   2  -4   41.98    1.81
   0   2  -4   40.12    1.72
   0   2  -4   43.16    1.71
   0  -2   4   43.51    2.14
   0  -2   4   43.53    1.81
  -1   2  -4   84.10    4.16
  -1   2  -4   84.99    3.56
  -1   2  -4   89.46    3.83
  -1   2  -4   89.55    3.56
   1  -2   4   85.60    4.14
   1  -2   4   95.73    4.49
   1  -2   4   86.92    3.77
  -2   2  -4    6.95    0.40
  -2   2  -4    6.72    0.34
  -2   2  -4    7.31    0.29
  -2   2  -4    6.50    0.37
   2  -2   4    7.27    0.37
  -3   2  -4   19.12    0.81
  -3   2  -4   18.56    0.88
  -3   2  -4   20.16    0.84
  -3   2  -4   20.81    0.80
   3  -2   4   19.26    0.95
  -4   2  -4   19.25    0.80
  -4   2  -4   19.44    0.77
  -4   2  -4   17.09    0.78
   4  -2   4   18.88    0.91
  -5   2  -4    1.53    0.14
  -5   2  -4    1.71    0.13
  -5   2  -4    1.95    0.13
   5  -2   4    1.68    0.16
  -6   2  -4    0.26    0.12
  -6   2  -4    0.27    0.14
   6  -2   4    0.12    0.12
  -7   2  -4    1.70    0.22
  -8   2  -4    0.89    0.23
  -9  -1   4    0.08    0.19
  -9  -1   4    0.35    0.17
  -8  -1   4    2.09    0.21
  -8  -1   4    1.85    0.21
   7   1  -4    1.01    0.16
  -7  -1   4    0.60    0.15
  -7  -1   4    0.73    0.15
   6   1  -4   22.69    0.98
   6   1  -4   23.56    1.09
  -6  -1   4   22.74    0.98
   5   1  -4    0.11    0.10
   5   1  -4    0.46    0.07
  -5  -1   4    0.32    0.10
   4   1  -4  117.51    5.07
   4   1  -4  125.66    5.87
  -4  -1   4  132.12    5.13
   3   1  -4   37.47    1.52
   3   1  -4   37.08    1.74
  -3  -1   4   36.68    1.52
   2   1  -4    0.50    0.06
   2   1  -4    0.41    0.06
  -2  -1   4    0.55    0.06
  -2  -1   4    0.50    0.07
   1   1  -4   92.58    4.51
   1   1  -4   92.04    3.94
   1   1  -4  102.93    3.95
  -1  -1   4   99.99    4.56
  -1  -1   4   93.46    3.92
  -1  -1   4   96.79    4.90
   0   1  -4   20.75    0.80
   0   1  -4   18.69    0.93
   0   1  -4   20.14    0.80
   0   1  -4   18.61    0.99
   0  -1   4   17.90    0.79
   0  -1   4   19.33    0.85
   0  -1   4   19.74    0.94
   0  -1   4   20.38    0.99
  -1   1  -4   30.07    1.18
  -1   1  -4   27.86    1.47
  -1   1  -4   28.98    1.18
  -2   1  -4  130.54    5.12
  -2   1  -4  128.35    5.13
  -2   1  -4  125.65    5.47
   2  -1   4  119.17    5.92
  -3   1  -4   56.25    2.38
  -3   1  -4   61.82    2.47
  -3   1  -4   57.75    2.39
  -3   1  -4   58.23    2.55
   3  -1   4   59.98    2.77
  -4   1  -4   23.17    0.96
  -4   1  -4   21.50    0.97
  -4   1  -4   24.07    0.99
   4  -1   4   23.34    1.12
  -5   1  -4    1.28    0.18
  -5   1  -4    1.39    0.13
  -5   1  -4    1.24    0.15
  -5   1  -4    1.63    0.13
   5  -1   4    1.66    0.16
  -6   1  -4    2.81    0.22
  -6   1  -4    2.51    0.23
   6  -1   4    2.71    0.22
  -7   1  -4    0.10    0.18
  -7   1  -4    0.02    0.15
  -8   1  -4    0.17    0.19
  -8   1  -4    0.22    0.19
  -9   0   4    0.27    0.19
  -9   0   4    0.33    0.19
  -8   0   4   23.90    1.03
  -7   0   4    2.31    0.20
   6   0  -4   25.19    1.02
  -6   0   4   23.12    1.02
   5   0  -4    3.03    0.21
  -5   0   4    3.06    0.19
   4   0  -4    0.82    0.10
  -4   0   4    0.67    0.09
   3   0  -4  105.61    4.44
  -3   0   4  106.89    5.08
  -3   0   4  111.33    4.43
   2   0  -4   37.59    1.59
   2   0  -4   40.78    1.59
  -2   0   4   38.80    1.58
  -2   0   4   39.22    1.83
  -2   0   4   37.36    1.65
   1   0  -4   64.89    2.56
   1   0  -4   61.53    2.55
  -1   0   4   63.85    2.55
  -1   0   4   63.80    2.95
  -1   0   4   60.96    2.57
   0   0  -4   42.88    1.65
   0   0  -4   37.22    1.64
   0   0   4   39.54    1.64
   0   0   4   42.93    2.05
   0   0   4   39.20    1.64
  -1   0  -4    0.18    0.05
  -1   0  -4    0.09    0.06
  -1   0  -4    0.00    0.05
  -1   0  -4    0.06    0.05
   1   0   4    0.07    0.05
   1   0   4    0.19    0.06
  -2   0  -4   15.85    0.64
  -2   0  -4   14.78    0.63
   2   0   4   15.31    0.65
   2   0   4   14.33    0.62
  -3   0  -4    5.47    0.26
   3   0   4    4.96    0.23
  -4   0  -4   29.95    1.14
  -4   0  -4   26.84    1.15
   4   0   4   25.37    1.11
  -5   0  -4   12.74    0.59
  -5   0  -4   13.23    0.64
  -6   0  -4    0.27    0.16
  -6   0  -4    0.05    0.15
  -7   0  -4    4.15    0.34
   7   0   4    5.34    0.34
  -8   0  -4    0.16    0.20
  -8   0  -4   -0.22    0.20
  -9   1   4    0.46    0.19
  -8   1   4    4.82    0.32
  -7   1   4   20.25    0.88
   6  -1  -4    0.49    0.12
  -6   1   4    0.13    0.12
   5  -1  -4   28.66    1.20
  -5   1   4   29.18    1.20
   4  -1  -4   17.32    0.74
  -4   1   4   16.78    0.76
  -4   1   4   17.85    0.73
  -4   1   4   17.28    0.82
   3  -1  -4   73.56    2.97
  -3   1   4   74.28    3.08
  -3   1   4   72.28    3.41
  -3   1   4   72.64    2.99
   2  -1  -4   52.20    2.14
  -2   1   4   51.62    2.13
  -2   1   4   53.47    2.21
   1  -1  -4   11.08    0.47
   1  -1  -4   11.06    0.47
  -1   1   4   10.36    0.49
  -1   1   4   10.79    0.46
   0  -1  -4  112.38    4.52
   0  -1  -4  116.99    4.57
   0   1   4  108.74    4.73
   0   1   4  111.23    4.59
   0   1   4  109.68    4.57
  -1  -1  -4   34.50    1.41
  -1  -1  -4   33.97    1.41
  -1  -1  -4   34.72    1.41
   1   1   4   34.10    1.46
   1   1   4   34.02    1.40
  -2  -1  -4    3.92    0.21
  -2  -1  -4    4.16    0.24
   2   1   4    3.74    0.21
   2   1   4    3.83    0.20
  -3  -1  -4   16.10    0.69
  -3  -1  -4   15.84    0.71
   3   1   4   16.38    0.69
   3   1   4   16.66    0.71
  -4  -1  -4    5.61    0.32
   4   1   4    5.48    0.27
   4   1   4    5.45    0.28
  -5  -1  -4    4.00    0.28
   5   1   4    4.16    0.22
  -6  -1  -4    2.88    0.25
  -7  -1  -4    2.13    0.25
  -9   2   4    2.85    0.27
  -8   2   4    1.27    0.19
  -7   2   4   11.22    0.53
   6  -2  -4   16.00    0.69
  -6   2   4   15.67    0.69
   5  -2  -4   11.76    0.51
  -5   2   4   11.59    0.52
  -5   2   4   11.18    0.54
   4  -2  -4   70.15    2.83
  -4   2   4   66.67    3.24
  -4   2   4   71.08    2.83
  -4   2   4   70.29    2.93
   3  -2  -4   30.81    1.30
  -3   2   4   32.47    1.30
  -3   2   4   31.17    1.35
   2  -2  -4   63.85    2.70
  -2   2   4   67.12    2.69
  -2   2   4   68.05    2.80
   1  -2  -4   92.97    3.86
  -1   2   4   99.30    4.79
  -1   2   4   92.60    4.02
  -1   2   4   95.75    3.89
   0  -2  -4   35.32    1.44
   0   2   4   34.87    1.49
   0   2   4   34.64    1.43
   0   2   4   34.69    1.43
  -1  -2  -4   33.61    1.44
  -1  -2  -4   34.17    1.74
   1   2   4   35.69    1.48
   1   2   4   35.26    1.43
  -2  -2  -4    0.68    0.13
   2   2   4    0.77    0.10
   2   2   4    0.60    0.09
  -3  -2  -4    2.95    0.23
   3   2   4    2.64    0.20
   3   2   4    2.87    0.19
  -4  -2  -4   39.06    1.67
   4   2   4   40.78    1.70
   4   2   4   39.56    1.64
  -5  -2  -4    2.54    0.24
   5   2   4    3.00    0.20
  -6  -2  -4    2.66    0.26
  -7  -2  -4    1.68    0.25
  -9   3   4    8.26    0.47
  -8   3   4    5.19    0.33
  -7   3   4    0.52    0.15
  -6   3   4   44.10    1.80
  -6   3   4   42.92    1.86
   5  -3  -4    3.06    0.22
  -5   3   4    3.09    0.19
  -5   3   4    2.99    0.23
  -5   3   4    3.31    0.20
   4  -3  -4   67.02    2.85
  -4   3   4   72.08    2.97
  -4   3   4   71.27    2.85
   3  -3  -4   30.14    1.30
  -3   3   4   32.66    1.30
  -3   3   4   31.54    1.36
   2  -3  -4   22.46    0.97
  -2   3   4   22.59    0.96
  -2   3   4   22.83    1.01
  -2   3   4   24.33    1.18
   1  -3  -4   66.75    2.75
  -1   3   4   69.73    3.40
  -1   3   4   68.50    2.85
  -1   3   4   64.41    2.74
   0  -3  -4   15.96    0.72
   0   3   4   16.81    0.75
   0   3   4   17.20    0.71
  -1  -3  -4   25.79    1.09
  -1  -3  -4   24.51    1.29
   1   3   4   26.58    1.11
   1   3   4   25.53    1.07
  -2  -3  -4   26.59    1.17
   2   3   4   26.88    1.15
   2   3   4   28.83    1.19
  -3  -3  -4   14.43    0.67
   3   3   4   14.17    0.65
   3   3   4   15.06    0.66
  -4  -3  -4    6.78    0.40
   4   3   4    7.57    0.37
   4   3   4    7.03    0.38
  -5  -3  -4    0.57    0.20
   5   3   4    0.76    0.13
  -6  -3  -4    1.17    0.23
  -8   4   4    9.18    0.47
  -7   4   4    2.09    0.19
  -7   4   4    1.66    0.19
  -6   4   4   18.97    0.84
  -6   4   4   17.89    0.80
  -5   4   4   18.43    0.81
  -5   4   4   19.08    0.85
   4  -4  -4    0.33    0.11
  -4   4   4    0.51    0.11
  -4   4   4    0.41    0.12
   3  -4  -4   31.96    1.41
  -3   4   4   33.52    1.48
  -3   4   4   38.03    1.76
  -3   4   4   33.01    1.41
   2  -4  -4   15.07    0.68
  -2   4   4   15.54    0.71
  -2   4   4   14.86    0.67
  -2   4   4   16.52    0.81
   1  -4  -4   24.58    1.03
  -1   4   4   22.55    1.02
  -1   4   4   25.42    1.23
   0  -4  -4   65.13    2.70
   0   4   4   66.40    2.69
  -1  -4  -4    3.32    0.21
  -1  -4  -4    3.70    0.26
   1   4   4    3.72    0.23
   1   4   4    3.30    0.23
  -2  -4  -4   27.68    1.18
  -2  -4  -4   27.08    1.41
   2   4   4   28.42    1.17
   2   4   4   27.03    1.20
  -3  -4  -4    5.37    0.34
   3   4   4    5.13    0.32
   3   4   4    5.47    0.32
  -4  -4  -4    0.23    0.20
   4   4   4    0.19    0.16
   4   4   4    0.36    0.14
  -5  -4  -4    0.47    0.22
   5   4   4    0.43    0.14
  -6  -4  -4    0.06    0.23
  -8   5   4    7.23    0.41
  -7   5   4   11.92    0.58
  -7   5   4   12.81    0.62
  -6   5   4    0.23    0.15
  -6   5   4    0.34    0.16
  -5   5   4   33.28    1.70
  -5   5   4   30.74    1.35
  -5   5   4   33.25    1.42
  -4   5   4   29.21    1.31
  -4   5   4   30.78    1.55
  -4   5   4   29.21    1.25
  -3   5   4   12.69    0.66
  -3   5   4   11.00    0.54
  -3   5   4   12.21    0.58
   2  -5  -4   24.80    1.09
  -2   5   4   28.16    1.33
  -2   5   4   25.04    1.14
  -2   5   4   25.12    1.09
   1  -5  -4    0.37    0.14
  -1   5   4    0.26    0.12
  -1   5   4    0.39    0.13
  -1   5   4    0.23    0.13
   0  -5  -4   13.51    0.63
   0   5   4   13.95    0.62
  -1  -5  -4   22.83    1.21
  -1  -5  -4   23.08    1.02
   1   5   4   24.18    1.01
   1   5   4   24.04    1.05
  -2  -5  -4   12.37    0.63
   2   5   4   13.15    0.61
   2   5   4   13.73    0.64
  -3  -5  -4   12.78    0.64
   3   5   4   13.41    0.63
   3   5   4   13.18    0.63
  -4  -5  -4    0.89    0.23
   4   5   4    1.16    0.18
  -5  -5  -4    3.20    0.32
   5   5   4    3.32    0.27
  -7   6   4   10.13    0.51
  -7   6   4   10.41    0.56
  -6   6   4    5.21    0.33
  -6   6   4    5.89    0.37
  -5   6   4    6.73    0.37
  -5   6   4    7.33    0.47
  -5   6   4    6.67    0.39
  -4   6   4   28.52    1.23
  -4   6   4   30.53    1.53
  -4   6   4   28.31    1.29
  -3   6   4    0.88    0.14
  -3   6   4    0.87    0.16
  -3   6   4    0.97    0.17
  -2   6   4   23.85    1.01
  -2   6   4   23.13    1.06
  -1   6   4   26.23    1.11
  -1   6   4   25.41    1.15
   0   6   4   15.50    0.68
   0   6   4   13.80    0.70
  -1  -6  -4    2.91    0.25
   1   6   4    2.56    0.22
   1   6   4    2.22    0.23
  -2  -6  -4    1.07    0.22
   2   6   4    0.88    0.18
   2   6   4    1.05    0.20
  -3  -6  -4    4.88    0.36
   3   6   4    4.26    0.31
   3   6   4    4.10    0.32
  -4  -6  -4    4.33    0.37
   4   6   4    4.87    0.34
  -5   7   4    2.25    0.25
  -5   7   4    2.29    0.22
  -4   7   4    9.81    0.49
  -4   7   4    9.29    0.51
  -3   7   4   15.69    0.78
  -3   7   4   17.16    0.75
  -2   7   4    1.58    0.20
  -2   7   4    1.66    0.22
  -2   7   4    1.78    0.21
  -1   7   4   16.73    0.83
  -1   7   4   18.70    0.80
   0   7   4    1.72    0.22
   0   7   4    1.44    0.22
   1   7   4    0.90    0.19
   1   7   4    0.80    0.20
   2   7   4    2.87    0.28
   2   7   4    3.01    0.27
   3   7   4    0.31    0.21
   3   7   4    0.33    0.19
  -3   8   4    8.79    0.48
  -3   8   4    8.94    0.52
  -3   8   4    8.53    0.48
  -2   8   4    5.17    0.35
  -2   8   4    4.29    0.37
  -1   8   4    2.66    0.27
  -1   8   4    2.41    0.27
   0   8   4    7.59    0.47
   0   8   4    8.51    0.46
   2  10  -5    0.09    0.22
   1  10  -5    0.10    0.22
   1  10  -5    0.11    0.21
   0  10  -5   -0.28    0.19
   0  10  -5    0.07    0.21
  -1  10  -5    3.85    0.30
  -1  10  -5    3.24    0.32
  -2  10  -5    0.43    0.23
  -2  10  -5    0.37    0.19
   4   9  -5    2.84    0.28
   4   9  -5    2.47    0.29
   3   9  -5    0.83    0.22
   3   9  -5    0.91    0.21
   2   9  -5    7.31    0.41
   2   9  -5    7.02    0.44
   1   9  -5    0.34    0.19
   1   9  -5    0.64    0.18
   0   9  -5    0.01    0.18
   0   9  -5    0.14    0.17
  -1   9  -5    4.84    0.36
  -1   9  -5    5.34    0.32
  -2   9  -5    0.21    0.15
  -2   9  -5    0.09    0.18
  -3   9  -5    0.40    0.14
  -3   9  -5    0.42    0.20
  -4   9  -5    9.17    0.42
  -4   9  -5    8.52    0.51
   5   8  -5   -0.07    0.18
   5   8  -5   -0.11    0.20
   4   8  -5    0.22    0.19
   4   8  -5    0.52    0.20
   3   8  -5    1.30    0.21
   3   8  -5    1.38    0.20
   2   8  -5    5.04    0.36
   2   8  -5    5.98    0.34
   1   8  -5   25.23    1.20
   1   8  -5   27.91    1.13
   0   8  -5    8.62    0.41
   0   8  -5    7.48    0.45
  -1   8  -5    8.08    0.37
  -1   8  -5    7.08    0.43
  -2   8  -5   20.51    0.99
  -2   8  -5   22.36    0.91
  -3   8  -5    8.58    0.50
  -3   8  -5    9.72    0.41
  -4   8  -5    0.09    0.16
  -5   8  -5    1.33    0.19
  -6   8  -5    1.97    0.27
   6   7  -5    0.60    0.18
   6   7  -5    0.62    0.22
   5   7  -5    3.94    0.31
   5   7  -5    3.61    0.30
   4   7  -5    0.89    0.18
   4   7  -5    0.45    0.16
   3   7  -5    2.22    0.22
   3   7  -5    2.46    0.21
   2   7  -5    5.23    0.29
   2   7  -5    4.84    0.32
   1   7  -5    6.34    0.34
   1   7  -5    6.48    0.38
  -1  -7   5    7.35    0.46
   0   7  -5    2.86    0.25
   0   7  -5    2.73    0.28
   0   7  -5    3.00    0.21
   0  -7   5    2.72    0.27
  -1   7  -5    0.12    0.14
  -1   7  -5    0.03    0.10
  -1   7  -5    0.14    0.07
  -1   7  -5    0.15    0.16
   1  -7   5    0.15    0.16
  -2   7  -5    4.66    0.22
  -2   7  -5    4.65    0.22
  -2   7  -5    4.40    0.32
  -2   7  -5    5.69    0.23
  -2   7  -5    4.46    0.31
  -3   7  -5   20.10    1.10
  -3   7  -5   24.01    1.00
  -4   7  -5    0.64    0.16
  -4   7  -5    0.51    0.17
  -5   7  -5    3.24    0.29
  -5   7  -5    3.62    0.31
  -5   7  -5    3.60    0.28
  -6   7  -5    1.47    0.23
   7   6  -5   -0.07    0.16
   7   6  -5    0.25    0.21
   6   6  -5    0.02    0.15
   6   6  -5    0.16    0.18
   5   6  -5    9.54    0.49
   5   6  -5    9.92    0.50
   4   6  -5    2.20    0.21
   4   6  -5    2.49    0.22
   3   6  -5    3.62    0.27
   3   6  -5    4.01    0.27
  -3  -6   5    4.80    0.32
   2   6  -5   19.62    0.85
   2   6  -5   21.04    0.85
   2   6  -5   18.25    0.90
  -2  -6   5   20.02    0.82
  -2  -6   5   20.82    1.07
   1   6  -5    8.88    0.40
   1   6  -5    8.53    0.41
  -1  -6   5    9.46    0.53
   0   6  -5    4.15    0.21
   0   6  -5    4.45    0.22
   0   6  -5    4.01    0.27
   0  -6   5    4.19    0.31
  -1   6  -5   34.10    1.73
  -1   6  -5   38.31    1.47
  -1   6  -5   34.08    1.46
  -1   6  -5   37.39    1.57
   1  -6   5   36.48    1.88
  -2   6  -5    7.01    0.39
  -2   6  -5    7.60    0.42
  -3   6  -5   27.91    1.21
  -3   6  -5   27.35    1.48
  -3   6  -5   27.35    1.35
  -4   6  -5   -0.05    0.13
  -4   6  -5    0.15    0.14
  -4   6  -5    0.09    0.12
  -5   6  -5    0.94    0.14
  -5   6  -5    0.73    0.17
  -5   6  -5    0.72    0.18
  -6   6  -5    3.86    0.33
  -7   6  -5   -0.22    0.20
  -7   6  -5   -0.09    0.12
   7   5  -5    4.03    0.29
   7   5  -5    4.23    0.33
  -7  -5   5    3.94    0.32
   6   5  -5    6.68    0.37
   6   5  -5    6.67    0.38
  -6  -5   5    6.45    0.37
   5   5  -5    3.28    0.26
   5   5  -5    3.44    0.25
  -5  -5   5    3.58    0.24
   4   5  -5   90.03    3.95
  -4  -5   5  104.26    3.95
   3   5  -5    2.36    0.19
  -3  -5   5    2.49    0.22
  -3  -5   5    2.66    0.17
   2   5  -5   37.22    1.56
   2   5  -5   38.40    1.55
  -2  -5   5   38.75    1.95
  -2  -5   5   36.97    1.54
   1   5  -5   42.75    1.79
   1   5  -5   43.83    1.88
   1   5  -5   45.61    1.79
  -1  -5   5   43.35    2.25
   0   5  -5   11.71    0.50
   0   5  -5   10.44    0.60
   0   5  -5   11.89    0.50
   0   5  -5   12.25    0.54
   0  -5   5   12.65    0.66
  -1   5  -5    2.05    0.16
  -1   5  -5    2.12    0.18
   1  -5   5    1.79    0.19
  -2   5  -5   10.39    0.61
  -2   5  -5   10.57    0.55
  -2   5  -5    9.75    0.49
  -3   5  -5    3.60    0.31
  -3   5  -5    2.93    0.24
  -3   5  -5    3.57    0.23
  -3   5  -5    3.61    0.26
  -4   5  -5   45.53    1.76
  -4   5  -5   41.40    1.96
  -4   5  -5   38.19    2.14
  -4   5  -5   38.62    1.81
  -5   5  -5   13.34    0.66
  -5   5  -5   13.21    0.61
  -6   5  -5    4.34    0.23
  -6   5  -5    4.46    0.34
  -7   5  -5    0.36    0.13
  -7   5  -5    0.63    0.20
  -8  -4   5    0.27    0.18
   7   4  -5    0.08    0.13
   7   4  -5   -0.22    0.17
  -7  -4   5    0.06    0.15
   6   4  -5    4.36    0.31
  -6  -4   5    4.37    0.27
   5   4  -5    0.86    0.16
  -5  -4   5    1.00    0.14
   4   4  -5    1.19    0.14
  -4  -4   5    1.07    0.12
   3   4  -5   14.40    0.63
  -3  -4   5   14.87    0.62
   2   4  -5    0.12    0.07
   2   4  -5   -0.03    0.08
  -2  -4   5    0.07    0.09
  -2  -4   5    0.03    0.05
   1   4  -5   15.73    0.66
   1   4  -5   15.55    0.69
   1   4  -5   15.35    0.78
   1   4  -5   16.04    0.66
  -1  -4   5   16.49    0.84
   0   4  -5   69.12    3.52
   0   4  -5   68.62    2.99
   0   4  -5   69.22    2.81
   0   4  -5   66.81    3.26
   0   4  -5   71.76    2.82
   0  -4   5   70.54    3.52
  -1   4  -5   54.37    2.37
  -1   4  -5   52.46    2.80
  -1   4  -5   54.24    2.59
   1  -4   5   58.47    2.80
  -2   4  -5   50.24    2.40
  -2   4  -5   49.45    2.60
  -2   4  -5   52.23    2.20
  -3   4  -5    0.96    0.13
  -3   4  -5    0.86    0.16
  -3   4  -5    1.03    0.15
  -4   4  -5    8.29    0.43
  -4   4  -5    7.39    0.49
  -5   4  -5    7.13    0.52
  -5   4  -5    7.65    0.37
  -5   4  -5    8.83    0.39
  -5   4  -5    8.16    0.45
  -5   4  -5    8.93    0.36
  -6   4  -5    0.09    0.15
  -6   4  -5    0.11    0.11
  -7   4  -5    2.53    0.26
  -8  -3   5    4.02    0.31
   7   3  -5    2.30    0.22
  -7  -3   5    2.23    0.22
   6   3  -5   24.55    1.07
  -6  -3   5   25.22    1.06
   5   3  -5   10.34    0.50
  -5  -3   5   10.84    0.48
  -5  -3   5   10.98    0.49
   4   3  -5    0.11    0.11
  -4  -3   5    0.06    0.08
   3   3  -5   61.23    2.49
   3   3  -5   61.06    2.87
  -3  -3   5   61.28    2.49
   2   3  -5   75.55    3.46
   2   3  -5   72.05    3.00
   2   3  -5   74.40    3.00
  -2  -3   5   71.44    3.01
  -2  -3   5   76.07    3.77
   1   3  -5   45.74    1.95
   1   3  -5   49.78    2.27
   1   3  -5   50.34    1.95
  -1  -3   5   48.24    2.44
  -1  -3   5   46.00    1.94
   0   3  -5   44.77    1.77
   0   3  -5   43.31    1.88
   0   3  -5   41.63    2.22
   0   3  -5   43.66    2.07
   0   3  -5   43.03    1.77
   0  -3   5   45.43    2.22
  -1   3  -5    2.16    0.18
  -1   3  -5    1.93    0.15
  -1   3  -5    2.06    0.10
  -1   3  -5    1.99    0.10
  -1   3  -5    1.82    0.17
   1  -3   5    2.02    0.17
   1  -3   5    2.05    0.16
  -2   3  -5    3.95    0.25
  -2   3  -5    3.89    0.28
  -2   3  -5    3.93    0.23
   2  -3   5    4.40    0.25
  -3   3  -5   10.01    0.59
  -3   3  -5   10.51    0.50
   3  -3   5   10.12    0.53
  -4   3  -5    0.35    0.06
  -4   3  -5    0.23    0.08
  -4   3  -5    0.26    0.12
  -4   3  -5    0.37    0.15
   4  -3   5    0.39    0.12
  -5   3  -5   15.53    0.76
  -5   3  -5   15.15    0.67
   5  -3   5   16.75    0.80
  -6   3  -5    2.06    0.18
  -6   3  -5    1.88    0.23
   6  -3   5    2.22    0.21
  -7   3  -5    1.26    0.22
  -8   3  -5   -0.11    0.17
  -8   3  -5    0.13    0.20
  -9  -2   5    2.22    0.26
  -8  -2   5    0.74    0.18
   7   2  -5   20.64    0.90
  -7  -2   5   20.19    0.89
  -7  -2   5   20.63    0.93
   6   2  -5    1.24    0.16
   6   2  -5    1.05    0.12
  -6  -2   5    0.99    0.15
  -6  -2   5    1.14    0.12
   5   2  -5    8.40    0.42
   5   2  -5    8.96    0.45
  -5  -2   5    8.90    0.41
   4   2  -5   23.85    1.10
   4   2  -5   22.05    0.97
  -4  -2   5   23.22    0.96
   3   2  -5    5.62    0.30
   3   2  -5    5.40    0.27
  -3  -2   5    5.54    0.26
   2   2  -5  224.26    9.00
   2   2  -5  221.88    9.00
   2   2  -5  214.77   10.37
  -2  -2   5  221.22    8.95
   1   2  -5    4.24    0.26
   1   2  -5    4.57    0.22
   1   2  -5    4.84    0.22
  -1  -2   5    4.90    0.27
  -1  -2   5    4.68    0.21
  -1  -2   5    4.85    0.27
   0   2  -5   28.52    1.49
   0   2  -5   30.91    1.28
   0   2  -5   33.14    1.28
   0  -2   5   32.85    1.60
   0  -2   5   32.10    1.37
   0  -2   5   31.18    1.50
  -1   2  -5  225.13    9.44
  -1   2  -5  249.99    9.44
  -1   2  -5  243.21   10.05
  -1   2  -5  221.80   10.98
  -1   2  -5  218.98    9.43
   1  -2   5  238.56   10.99
  -2   2  -5  125.78    5.37
  -2   2  -5  128.68    7.76
  -2   2  -5  131.67    6.59
  -2   2  -5  136.38    5.35
   2  -2   5  134.23    6.24
  -3   2  -5    3.55    0.28
  -3   2  -5    3.66    0.20
  -3   2  -5    3.79    0.19
  -3   2  -5    3.69    0.24
   3  -2   5    4.05    0.25
  -4   2  -5    0.73    0.14
  -4   2  -5    0.72    0.11
  -4   2  -5    0.68    0.08
   4  -2   5    0.73    0.13
  -5   2  -5   16.81    0.74
  -5   2  -5   16.49    0.81
   5  -2   5   17.91    0.86
  -6   2  -5    6.50    0.36
  -6   2  -5    7.37    0.41
   6  -2   5    6.74    0.40
  -7   2  -5   -0.12    0.16
  -7   2  -5    0.00    0.18
  -8   2  -5    1.03    0.25
  -9  -1   5    0.83    0.22
  -8  -1   5    0.13    0.18
  -8  -1   5   -0.01    0.15
   7   1  -5    1.27    0.18
  -7  -1   5    1.45    0.18
   6   1  -5   21.59    1.04
   6   1  -5   22.39    0.94
  -6  -1   5   21.46    0.93
   5   1  -5    3.73    0.24
   5   1  -5    3.24    0.20
  -5  -1   5    3.34    0.21
   4   1  -5   25.81    1.24
   4   1  -5   25.66    1.09
  -4  -1   5   26.68    1.08
   3   1  -5   15.93    0.78
   3   1  -5   15.82    0.69
  -3  -1   5   16.58    0.68
   2   1  -5    0.58    0.08
   2   1  -5    0.71    0.09
   2   1  -5    0.65    0.09
  -2  -1   5    0.59    0.07
  -2  -1   5    0.58    0.09
   1   1  -5   26.18    1.08
   1   1  -5   26.47    1.08
   1   1  -5   25.25    1.25
  -1  -1   5   24.88    1.07
  -1  -1   5   26.81    1.33
  -1  -1   5   27.73    1.26
   0   1  -5   10.52    0.42
   0   1  -5    9.25    0.51
   0   1  -5   10.23    0.42
   0  -1   5   10.03    0.51
   0  -1   5    9.47    0.50
   0  -1   5    9.21    0.41
  -1   1  -5    5.67    0.27
  -1   1  -5    6.19    0.26
  -1   1  -5    5.99    0.33
  -1   1  -5    5.60    0.26
   1  -1   5    5.66    0.32
   1  -1   5    5.37    0.24
  -2   1  -5  166.46    6.82
  -2   1  -5  165.74    6.78
   2  -1   5  169.10    7.87
  -3   1  -5    1.40    0.11
  -3   1  -5    1.32    0.14
  -3   1  -5    1.44    0.13
   3  -1   5    1.55    0.15
  -4   1  -5   16.14    0.75
  -4   1  -5   17.31    0.74
   4  -1   5   18.79    0.87
  -5   1  -5    2.53    0.21
  -5   1  -5    3.12    0.25
   5  -1   5    3.14    0.23
  -6   1  -5   11.41    0.61
  -6   1  -5   11.89    0.57
   6  -1   5   12.79    0.64
  -7   1  -5    0.11    0.17
  -7   1  -5    0.05    0.18
  -8   1  -5    0.21    0.22
  -9   0   5    2.68    0.26
  -8   0   5    2.55    0.24
  -7   0   5    0.29    0.15
   6   0  -5   27.20    1.12
  -6   0   5   25.74    1.11
   5   0  -5   38.83    1.62
  -5   0   5   39.45    1.62
   4   0  -5   64.84    2.72
  -4   0   5   68.59    2.72
   3   0  -5   93.87    3.91
  -3   0   5   96.80    3.89
  -3   0   5   97.18    4.50
   2   0  -5    2.26    0.16
  -2   0   5    2.39    0.17
  -2   0   5    2.40    0.14
  -2   0   5    2.19    0.16
   1   0  -5   30.76    1.27
   1   0  -5   30.12    1.27
  -1   0   5   31.62    1.47
  -1   0   5   30.19    1.26
  -1   0   5   31.34    1.56
   0   0  -5   15.91    0.72
   0   0  -5   18.91    0.72
   0   0   5   17.39    0.83
   0   0   5   16.27    0.71
   0   0   5   16.56    0.74
  -1   0  -5   22.27    0.94
  -1   0  -5   21.02    1.14
  -1   0  -5   23.57    0.93
   1   0   5   21.75    0.92
   1   0   5   23.46    0.97
  -2   0  -5   57.00    2.31
  -2   0  -5   58.67    2.32
   2   0   5   54.57    2.30
   2   0   5   57.20    2.40
  -3   0  -5   -0.12    0.08
  -3   0  -5   -0.03    0.11
   3   0   5    0.02    0.06
   3   0   5    0.05    0.07
  -4   0  -5   18.42    0.78
  -4   0  -5   18.73    0.79
   4   0   5   17.30    0.74
  -5   0  -5    0.90    0.17
  -6   0  -5    0.28    0.18
   6   0   5    0.10    0.14
  -9   1   5    1.67    0.24
  -8   1   5    6.68    0.39
  -7   1   5   16.69    0.74
   6  -1  -5    0.12    0.12
  -6   1   5    0.13    0.12
   5  -1  -5   69.40    2.86
  -5   1   5   70.57    2.85
   4  -1  -5    1.06    0.13
  -4   1   5    1.08    0.11
  -4   1   5    0.88    0.10
  -4   1   5    1.04    0.13
   3  -1  -5   34.07    1.43
  -3   1   5   36.51    1.43
  -3   1   5   33.18    1.64
  -3   1   5   35.10    1.49
   2  -1  -5   68.52    2.83
  -2   1   5   69.76    2.84
  -2   1   5   70.19    2.93
   1  -1  -5   16.42    0.72
  -1   1   5   16.49    0.71
  -1   1   5   17.31    0.85
   0  -1  -5   29.38    1.22
   0   1   5   28.80    1.25
   0   1   5   29.41    1.20
  -1  -1  -5    0.65    0.12
  -1  -1  -5    0.50    0.05
  -1  -1  -5    0.58    0.09
   1   1   5    0.73    0.09
   1   1   5    0.57    0.09
  -2  -1  -5    8.15    0.37
  -2  -1  -5    7.81    0.37
  -2  -1  -5    7.51    0.38
   2   1   5    7.67    0.37
   2   1   5    7.54    0.36
  -3  -1  -5   35.46    1.52
   3   1   5   37.28    1.55
   3   1   5   36.19    1.49
  -4  -1  -5    9.81    0.50
   4   1   5   10.53    0.47
  -5  -1  -5    6.71    0.41
   5   1   5    7.94    0.37
  -6  -1  -5    1.01    0.22
  -9   2   5    1.46    0.23
  -8   2   5    1.58    0.21
  -7   2   5   14.98    0.68
  -6   2   5    5.32    0.30
   5  -2  -5   11.73    0.52
  -5   2   5   11.83    0.51
  -5   2   5   11.35    0.54
  -5   2   5   10.73    0.55
   4  -2  -5   64.05    2.58
  -4   2   5   61.88    2.68
  -4   2   5   62.40    2.96
  -4   2   5   64.57    2.58
   3  -2  -5    0.70    0.12
  -3   2   5    0.63    0.10
  -3   2   5    0.69    0.12
   2  -2  -5   49.33    2.02
  -2   2   5   46.92    2.09
  -2   2   5   51.54    2.02
   1  -2  -5   47.25    1.93
  -1   2   5   46.58    1.92
   0  -2  -5   41.58    1.70
   0   2   5   40.42    1.68
   0   2   5   40.90    1.75
  -1  -2  -5   33.89    1.44
   1   2   5   34.82    1.47
   1   2   5   34.10    1.41
  -2  -2  -5    0.03    0.13
   2   2   5    0.18    0.09
   2   2   5    0.30    0.10
  -3  -2  -5    0.30    0.16
   3   2   5    0.35    0.11
   3   2   5    0.26    0.11
  -4  -2  -5   14.31    0.69
   4   2   5   14.94    0.67
  -5  -2  -5    0.46    0.19
   5   2   5   -0.05    0.11
  -6  -2  -5    0.40    0.22
  -8   3   5    3.95    0.29
  -7   3   5   11.50    0.54
  -6   3   5   36.00    1.51
  -6   3   5   36.28    1.57
   5  -3  -5    2.17    0.18
  -5   3   5    2.00    0.16
  -5   3   5    2.28    0.19
  -5   3   5    2.16    0.18
   4  -3  -5   30.69    1.31
  -4   3   5   31.41    1.36
  -4   3   5   31.55    1.30
   3  -3  -5   26.86    1.14
  -3   3   5   27.08    1.18
  -3   3   5   27.06    1.13
   2  -3  -5    6.47    0.36
  -2   3   5    7.12    0.36
  -2   3   5    6.89    0.34
  -2   3   5    7.17    0.38
   1  -3  -5   19.41    0.86
  -1   3   5   20.23    0.84
   0  -3  -5    2.77    0.23
   0   3   5    2.70    0.20
   0   3   5    2.87    0.20
  -1  -3  -5   23.04    1.00
   1   3   5   22.67    1.02
   1   3   5   23.70    0.98
  -2  -3  -5    0.81    0.09
  -2  -3  -5    0.80    0.17
   2   3   5    1.30    0.15
   2   3   5    0.89    0.13
  -3  -3  -5    1.55    0.22
   3   3   5    1.69    0.16
   3   3   5    1.84    0.18
  -4  -3  -5   10.53    0.56
   4   3   5   11.36    0.53
  -5  -3  -5    0.49    0.23
   5   3   5    0.44    0.14
  -6  -3  -5    1.79    0.28
  -8   4   5    9.56    0.49
  -7   4   5    3.35    0.26
  -7   4   5    3.66    0.29
  -6   4   5   13.12    0.61
  -6   4   5   13.48    0.64
  -5   4   5   14.56    0.67
  -5   4   5   15.60    0.71
   4  -4  -5    1.06    0.15
  -4   4   5    1.23    0.17
  -4   4   5    1.19    0.15
   3  -4  -5   58.17    2.40
  -3   4   5   56.19    2.39
  -3   4   5   56.13    2.49
  -3   4   5   63.03    2.96
   2  -4  -5    2.38    0.21
  -2   4   5    2.77    0.22
  -2   4   5    2.92    0.18
  -2   4   5    2.82    0.20
   1  -4  -5   27.43    1.15
  -1   4   5   26.52    1.13
  -1   4   5   26.74    1.13
   0  -4  -5   38.20    1.66
   0   4   5   40.10    1.65
   0   4   5   40.86    1.71
  -1  -4  -5    5.46    0.35
   1   4   5    5.95    0.32
   1   4   5    5.41    0.32
  -2  -4  -5    7.31    0.41
   2   4   5    6.92    0.38
   2   4   5    6.85    0.38
  -3  -4  -5    0.06    0.19
   3   4   5   -0.05    0.16
   3   4   5    0.14    0.14
  -4  -4  -5    6.85    0.46
   4   4   5    7.25    0.39
  -5  -4  -5    1.09    0.26
   5   4   5    0.98    0.18
  -7   5   5   15.59    0.74
  -7   5   5   14.83    0.69
  -6   5   5    0.14    0.17
  -6   5   5    0.19    0.15
  -5   5   5   35.26    1.78
  -5   5   5   32.42    1.43
  -5   5   5   34.28    1.49
  -4   5   5   -0.04    0.13
  -4   5   5    0.24    0.14
  -4   5   5    0.19    0.13
  -3   5   5    0.54    0.14
  -3   5   5    0.91    0.13
  -3   5   5    0.71    0.16
   2  -5  -5   15.62    0.71
  -2   5   5   15.76    0.70
   1  -5  -5    0.18    0.16
  -1   5   5   -0.21    0.12
  -1   5   5    0.05    0.14
  -1   5   5   -0.25    0.12
   0  -5  -5    0.34    0.17
   0   5   5    0.42    0.16
   0   5   5    0.51    0.16
  -1  -5  -5   69.10    2.82
   1   5   5   68.09    2.80
   1   5   5   67.18    2.90
  -2  -5  -5    1.89    0.24
   2   5   5    1.57    0.20
   2   5   5    1.73    0.21
  -3  -5  -5    4.01    0.33
   3   5   5    3.35    0.28
   3   5   5    3.81    0.29
  -4  -5  -5    0.18    0.24
   4   5   5   -0.03    0.16
  -6   6   5    6.98    0.44
  -6   6   5    6.96    0.40
  -5   6   5    3.73    0.28
  -5   6   5    3.53    0.30
  -4   6   5   40.28    1.68
  -4   6   5   39.90    1.75
  -3   6   5    0.11    0.17
  -3   6   5    0.14    0.15
  -2   6   5   16.80    0.74
  -2   6   5   16.20    0.74
  -1   6   5    4.10    0.30
  -1   6   5    3.74    0.28
   0   6   5   14.58    0.71
   0   6   5   14.53    0.67
   1   6   5    1.97    0.22
   1   6   5    1.76    0.21
  -2  -6  -5    0.41    0.22
   2   6   5    0.19    0.18
   2   6   5    0.54    0.19
  -3  -6  -5    2.77    0.31
   3   6   5    2.95    0.27
  -5   7   5    1.41    0.22
  -5   7   5    1.65    0.22
  -4   7   5   11.57    0.59
  -4   7   5   11.21    0.56
  -3   7   5   10.58    0.54
  -3   7   5   11.41    0.59
  -2   7   5    0.58    0.19
  -2   7   5    0.15    0.18
  -2   7   5    0.56    0.18
  -1   7   5   13.23    0.61
  -1   7   5   11.64    0.63
   0   7   5    1.54    0.23
   0   7   5    1.33    0.22
   1   7   5    3.61    0.29
   1   7   5    3.19    0.29
   2  10  -6    2.93    0.29
   1  10  -6   -0.11    0.20
   1  10  -6    0.29    0.23
   0  10  -6    2.76    0.31
   0  10  -6    2.57    0.25
  -1  10  -6    0.01    0.19
  -1  10  -6    0.15    0.23
  -2  10  -6   -0.01    0.17
  -2  10  -6   -0.16    0.20
   4   9  -6    0.91    0.22
   4   9  -6    0.63    0.23
   3   9  -6   -0.14    0.18
   3   9  -6    0.00    0.19
   2   9  -6    1.13    0.22
   2   9  -6    1.42    0.21
   1   9  -6    1.46    0.20
   1   9  -6    1.34    0.22
   0   9  -6    1.11    0.18
   0   9  -6    0.92    0.22
  -1   9  -6    1.70    0.19
  -1   9  -6    1.75    0.25
  -2   9  -6   -0.06    0.19
  -2   9  -6    0.03    0.14
  -3   9  -6    1.68    0.24
  -4   9  -6    0.93    0.13
  -4   9  -6    0.99    0.22
   5   8  -6   -0.24    0.19
   5   8  -6   -0.02    0.18
   4   8  -6    0.46    0.19
   4   8  -6    0.59    0.19
   3   8  -6    3.24    0.26
   3   8  -6    3.42    0.29
   2   8  -6    0.82    0.17
   2   8  -6    1.02    0.19
   1   8  -6   11.74    0.55
   1   8  -6   12.43    0.62
   0   8  -6    1.34    0.21
   0   8  -6    1.68    0.16
  -1   8  -6    5.78    0.29
  -1   8  -6    4.92    0.37
  -2   8  -6    3.27    0.28
  -2   8  -6    3.60    0.22
  -3   8  -6    2.81    0.26
  -4   8  -6    6.32    0.38
  -4   8  -6    5.47    0.38
  -5   8  -6    0.01    0.17
   6   7  -6    0.16    0.20
   6   7  -6    0.37    0.19
   5   7  -6    2.00    0.22
   5   7  -6    2.25    0.24
   4   7  -6    0.17    0.16
   4   7  -6   -0.07    0.16
   3   7  -6    0.58    0.16
   3   7  -6    0.56    0.17
   2   7  -6    1.30    0.16
   2   7  -6    1.04    0.18
   1   7  -6    1.40    0.15
   1   7  -6    1.38    0.11
   1   7  -6    1.25    0.18
   0   7  -6   13.63    0.63
   0   7  -6   13.93    0.60
   0   7  -6   13.30    0.72
   0   7  -6   13.51    0.66
   0   7  -6   14.54    0.79
  -1   7  -6    2.98    0.26
  -1   7  -6    3.55    0.19
  -1   7  -6    3.26    0.23
  -1   7  -6    3.43    0.27
  -2   7  -6    5.39    0.37
  -2   7  -6    5.56    0.24
  -2   7  -6    5.30    0.33
  -2   7  -6    5.57    0.35
  -3   7  -6    1.96    0.20
  -3   7  -6    2.39    0.22
  -3   7  -6    1.81    0.22
  -4   7  -6    2.64    0.23
  -4   7  -6    2.35    0.23
  -5   7  -6    2.00    0.24
  -5   7  -6    2.08    0.21
  -6   7  -6    0.43    0.21
   7   6  -6    0.70    0.24
   7   6  -6    0.95    0.19
   6   6  -6   -0.34    0.19
   6   6  -6    0.09    0.15
   5   6  -6   10.38    0.53
   5   6  -6    9.96    0.50
   4   6  -6    0.57    0.16
   4   6  -6    1.02    0.17
   3   6  -6    6.13    0.33
  -3  -6   6    6.55    0.42
   2   6  -6    7.66    0.38
  -2  -6   6    8.41    0.49
   1   6  -6    1.96    0.16
   1   6  -6    2.31    0.17
   1   6  -6    2.30    0.21
   1   6  -6    2.29    0.15
  -1  -6   6    2.71    0.24
   0   6  -6   14.88    0.61
   0   6  -6   14.56    0.61
   0   6  -6   14.07    0.74
   0   6  -6   13.72    0.65
   0  -6   6   15.09    0.80
  -1   6  -6    0.26    0.13
  -1   6  -6    0.16    0.10
  -1   6  -6    0.06    0.15
  -1   6  -6    0.22    0.07
  -1   6  -6    0.18    0.06
   1  -6   6    0.14    0.14
  -2   6  -6    0.42    0.17
  -2   6  -6    0.32    0.12
  -2   6  -6    0.46    0.12
  -2   6  -6    0.45    0.15
  -3   6  -6    3.36    0.29
  -3   6  -6    3.36    0.32
  -3   6  -6    3.45    0.26
  -3   6  -6    3.31    0.26
  -4   6  -6    3.44    0.30
  -4   6  -6    3.55    0.26
  -4   6  -6    2.80    0.25
  -5   6  -6    0.66    0.14
  -5   6  -6    0.32    0.16
  -5   6  -6    0.45    0.16
  -6   6  -6    2.34    0.26
   7   5  -6    0.10    0.20
   7   5  -6    0.09    0.15
   6   5  -6    1.03    0.19
   6   5  -6    0.65    0.16
  -6  -5   6    0.76    0.16
   5   5  -6    1.02    0.17
  -5  -5   6    0.89    0.14
   4   5  -6   55.82    2.41
  -4  -5   6   59.46    3.00
  -4  -5   6   60.32    2.39
   3   5  -6    0.86    0.13
  -3  -5   6    1.11    0.16
  -3  -5   6    0.71    0.10
   2   5  -6   19.50    0.99
   2   5  -6   20.17    0.85
   2   5  -6   19.65    0.84
  -2  -5   6   19.84    0.82
  -2  -5   6   20.87    1.07
   1   5  -6   17.97    0.90
   1   5  -6   17.08    0.79
   1   5  -6   17.99    0.76
   1   5  -6   18.81    0.76
  -1  -5   6   18.47    0.97
   0   5  -6    1.61    0.12
   0   5  -6    1.54    0.18
   0   5  -6    1.74    0.17
   0   5  -6    1.46    0.12
   0   5  -6    1.33    0.12
   0  -5   6    1.50    0.17
  -1   5  -6   19.89    0.82
  -1   5  -6   19.36    0.99
  -1   5  -6   18.31    0.89
  -1   5  -6   19.76    0.81
  -1   5  -6   21.64    1.08
   1  -5   6   21.45    1.07
  -2   5  -6    6.16    0.41
  -2   5  -6    5.72    0.33
  -2   5  -6    6.31    0.37
  -3   5  -6   14.01    0.83
  -3   5  -6   14.34    0.68
  -3   5  -6   15.17    0.76
  -4   5  -6    6.46    0.34
  -4   5  -6    6.47    0.37
  -4   5  -6    5.86    0.38
  -4   5  -6    5.67    0.43
  -5   5  -6    0.26    0.16
  -5   5  -6    0.34    0.11
  -6   5  -6    4.76    0.35
  -6   5  -6    5.57    0.28
  -7   5  -6   -0.05    0.14
  -7   5  -6    0.26    0.20
  -8  -4   6    2.14    0.24
   7   4  -6    0.07    0.19
  -7  -4   6    0.21    0.15
   6   4  -6    5.81    0.36
  -6  -4   6    6.22    0.34
   5   4  -6    2.50    0.21
  -5  -4   6    2.58    0.20
   4   4  -6   10.08    0.49
   4   4  -6   10.20    0.54
  -4  -4   6   11.05    0.47
   3   4  -6   22.01    0.94
   3   4  -6   22.13    1.08
  -3  -4   6   21.99    1.16
  -3  -4   6   22.34    0.92
   2   4  -6    0.00    0.09
   2   4  -6    0.06    0.07
   2   4  -6    0.02    0.09
  -2  -4   6    0.02    0.05
  -2  -4   6    0.01    0.09
   1   4  -6   16.27    0.84
   1   4  -6   16.27    0.71
   1   4  -6   18.32    0.71
  -1  -4   6   16.77    0.90
   0   4  -6   23.36    0.97
   0   4  -6   23.10    1.04
   0   4  -6   24.08    1.15
   0   4  -6   22.70    1.24
   0   4  -6   24.10    0.97
   0  -4   6   24.32    1.23
  -1   4  -6   13.71    0.55
  -1   4  -6   13.44    0.61
  -1   4  -6   13.06    0.68
  -1   4  -6   12.31    0.73
  -1   4  -6   13.57    0.55
   1  -4   6   13.87    0.73
  -2   4  -6    6.63    0.40
  -2   4  -6    5.97    0.35
  -2   4  -6    5.41    0.32
  -3   4  -6    1.10    0.16
  -3   4  -6    0.77    0.16
  -3   4  -6    0.93    0.14
   3  -4   6    0.84    0.14
  -4   4  -6    4.62    0.37
  -4   4  -6    4.60    0.30
  -4   4  -6    5.03    0.23
   4  -4   6    5.42    0.33
  -5   4  -6    2.01    0.15
  -5   4  -6    1.82    0.20
   5  -4   6    2.01    0.20
  -6   4  -6    1.72    0.22
  -6   4  -6    1.68    0.17
   6  -4   6    2.15    0.21
  -7   4  -6    3.21    0.26
  -7   4  -6    3.08    0.31
  -8  -3   6    3.34    0.27
   7   3  -6    0.52    0.18
  -7  -3   6    0.50    0.16
   6   3  -6    0.03    0.14
   6   3  -6    0.18    0.12
  -6  -3   6    0.06    0.13
   5   3  -6   14.36    0.71
   5   3  -6   13.92    0.64
  -5  -3   6   14.70    0.63
  -5  -3   6   14.06    0.63
   4   3  -6    1.11    0.15
   4   3  -6    1.47    0.15
  -4  -3   6    1.56    0.13
   3   3  -6   29.30    1.22
   3   3  -6   29.22    1.40
  -3  -3   6   29.30    1.21
  -3  -3   6   29.37    1.26
   2   3  -6    0.25    0.09
   2   3  -6    0.17    0.09
  -2  -3   6    0.14    0.06
  -2  -3   6    0.27    0.09
  -2  -3   6    0.20    0.05
   1   3  -6    1.12    0.10
   1   3  -6    1.16    0.10
   1   3  -6    1.24    0.13
  -1  -3   6    1.19    0.13
  -1  -3   6    1.18    0.08
  -1  -3   6    1.36    0.11
   0   3  -6   26.31    1.05
   0   3  -6   26.59    1.05
   0   3  -6   25.23    1.33
   0   3  -6   24.47    1.23
   0  -3   6   26.12    1.32
   0  -3   6   25.31    1.12
   0  -3   6   24.76    1.24
  -1   3  -6    1.84    0.15
  -1   3  -6    1.78    0.18
  -1   3  -6    1.76    0.11
  -1   3  -6    1.54    0.16
  -1   3  -6    1.87    0.12
   1  -3   6    1.90    0.18
   1  -3   6    1.86    0.18
  -2   3  -6   27.68    1.19
  -2   3  -6   31.34    1.19
  -2   3  -6   29.76    1.42
  -2   3  -6   27.54    1.29
  -2   3  -6   29.45    1.52
   2  -3   6   29.67    1.41
  -3   3  -6   30.47    1.44
  -3   3  -6   32.34    1.32
  -3   3  -6   32.78    1.70
  -3   3  -6   33.23    1.32
   3  -3   6   33.11    1.56
  -4   3  -6    1.49    0.11
  -4   3  -6    1.24    0.20
  -4   3  -6    1.51    0.18
  -4   3  -6    1.52    0.13
   4  -3   6    1.17    0.16
  -5   3  -6    0.75    0.13
  -5   3  -6    0.57    0.17
  -5   3  -6    0.72    0.18
   5  -3   6    1.15    0.17
  -6   3  -6    0.37    0.15
  -6   3  -6    0.27    0.17
   6  -3   6    0.32    0.15
  -7   3  -6    0.17    0.20
  -7   3  -6    0.13    0.17
  -9  -2   6    1.75    0.25
  -8  -2   6    0.03    0.17
   7   2  -6   28.09    1.18
  -7  -2   6   27.42    1.22
  -7  -2   6   26.96    1.17
   6   2  -6    0.81    0.16
   6   2  -6    0.99    0.13
  -6  -2   6    1.36    0.16
   5   2  -6   36.31    1.68
   5   2  -6   34.18    1.47
  -5  -2   6   35.41    1.46
   4   2  -6    7.81    0.42
   4   2  -6    8.01    0.39
  -4  -2   6    8.38    0.37
   3   2  -6    0.17    0.10
   3   2  -6    0.26    0.09
  -3  -2   6    0.07    0.07
   2   2  -6  168.09    6.90
   2   2  -6  167.64    6.93
   2   2  -6  167.56    8.01
  -2  -2   6  172.48    6.93
  -2  -2   6  173.71    8.03
  -2  -2   6  170.07    8.64
   1   2  -6   29.48    1.19
   1   2  -6   29.46    1.18
   1   2  -6   26.50    1.37
  -1  -2   6   30.36    1.38
  -1  -2   6   29.16    1.47
  -1  -2   6   28.34    1.17
  -1  -2   6   27.95    1.25
   0   2  -6   47.83    2.01
   0   2  -6   49.67    2.34
   0   2  -6   44.94    2.50
   0   2  -6   52.00    2.01
   0  -2   6   50.49    2.34
   0  -2   6   51.54    2.50
  -1   2  -6   34.49    1.31
  -1   2  -6   31.80    1.30
  -1   2  -6   29.48    1.63
   1  -2   6   31.50    1.53
  -2   2  -6   28.31    1.12
  -2   2  -6   27.35    1.22
  -2   2  -6   26.43    1.42
  -2   2  -6   26.24    1.13
   2  -2   6   28.47    1.33
  -3   2  -6   24.46    0.98
  -3   2  -6   22.76    1.06
  -3   2  -6   22.77    1.24
  -3   2  -6   23.16    0.97
   3  -2   6   24.32    1.15
  -4   2  -6    0.66    0.13
  -4   2  -6    0.34    0.15
  -4   2  -6    0.30    0.13
  -4   2  -6    0.43    0.09
   4  -2   6    0.77    0.14
  -5   2  -6    3.48    0.27
  -5   2  -6    3.08    0.24
   5  -2   6    3.37    0.26
  -6   2  -6    1.75    0.20
  -6   2  -6    2.00    0.23
   6  -2   6    1.66    0.20
  -7   2  -6    1.08    0.23
  -7   2  -6    1.17    0.21
  -9  -1   6    4.58    0.34
  -8  -1   6    0.43    0.18
   7   1  -6    7.44    0.39
  -7  -1   6    6.34    0.37
   6   1  -6   15.21    0.73
   6   1  -6   14.63    0.67
  -6  -1   6   14.99    0.66
   5   1  -6    0.06    0.08
   5   1  -6   -0.04    0.12
  -5  -1   6    0.00    0.10
   4   1  -6   18.73    0.94
   4   1  -6   19.79    0.83
  -4  -1   6   19.75    0.82
   3   1  -6   24.04    0.99
   3   1  -6   23.13    1.13
  -3  -1   6   23.71    0.98
  -3  -1   6   23.16    1.13
   2   1  -6   72.65    2.92
  -2  -1   6   70.73    3.38
  -2  -1   6   72.37    2.93
   1   1  -6   45.73    1.87
   1   1  -6   45.25    1.87
  -1  -1   6   44.11    1.86
  -1  -1   6   46.89    2.16
  -1  -1   6   46.35    2.31
   0   1  -6    1.48    0.12
   0   1  -6    1.71    0.13
   0  -1   6    1.42    0.11
   0  -1   6    1.28    0.14
   0  -1   6    1.51    0.12
  -1   1  -6   11.58    0.46
  -1   1  -6   11.00    0.47
   1  -1   6    9.41    0.44
  -2   1  -6   16.82    0.91
  -2   1  -6   17.80    0.74
  -2   1  -6   16.32    0.73
   2  -1   6   18.78    0.87
  -3   1  -6    8.36    0.49
  -3   1  -6    8.11    0.40
  -3   1  -6    8.38    0.39
   3  -1   6    9.22    0.47
  -4   1  -6   16.16    0.74
   4  -1   6   17.56    0.85
  -5   1  -6    0.03    0.15
  -5   1  -6   -0.03    0.15
   5  -1   6    0.13    0.14
  -6   1  -6    9.25    0.54
  -6   1  -6    9.50    0.50
  -7   1  -6    1.31    0.25
  -7   1  -6    1.22    0.24
  -9   0   6    3.14    0.28
  -8   0   6    3.42    0.28
  -7   0   6    0.47    0.16
   6   0  -6   30.16    1.24
  -6   0   6   28.70    1.23
   5   0  -6    6.43    0.33
  -5   0   6    6.26    0.32
   4   0  -6   14.72    0.65
  -4   0   6   14.50    0.72
  -4   0   6   14.73    0.63
   3   0  -6   12.35    0.56
  -3   0   6   13.11    0.64
  -3   0   6   12.83    0.55
   2   0  -6    6.16    0.30
  -2   0   6    5.95    0.28
  -2   0   6    5.98    0.34
  -2   0   6    5.60    0.31
   1   0  -6   57.55    2.42
  -1   0   6   62.81    2.79
  -1   0   6   55.45    2.40
  -1   0   6   61.01    2.99
   0   0  -6   25.41    1.00
   0   0  -6   22.78    1.00
   0   0   6   22.23    1.04
   0   0   6   25.02    0.99
   0   0   6   24.19    1.16
  -1   0  -6   14.63    0.84
  -1   0  -6   16.15    0.71
  -1   0  -6   18.01    0.71
   1   0   6   17.61    0.73
   1   0   6   16.47    0.69
  -2   0  -6   16.27    0.69
  -2   0  -6   15.66    0.69
  -2   0  -6   16.95    0.68
   2   0   6   14.71    0.66
   2   0   6   15.82    0.70
  -3   0  -6    6.28    0.32
  -3   0  -6    6.13    0.37
  -3   0  -6    6.15    0.35
   3   0   6    7.45    0.33
   3   0   6    5.69    0.28
  -4   0  -6    0.59    0.17
  -5   0  -6    9.73    0.50
  -6   0  -6    0.30    0.20
  -7   0  -6    0.70    0.24
  -9   1   6    1.62    0.23
  -8   1   6    7.38    0.41
  -7   1   6    2.74    0.22
   6  -1  -6    0.32    0.14
  -6   1   6    0.21    0.14
   5  -1  -6  137.02    5.61
  -5   1   6  135.89    6.45
  -5   1   6  142.22    5.63
   4  -1  -6    0.83    0.14
  -4   1   6    0.85    0.12
  -4   1   6    0.68    0.12
  -4   1   6    0.73    0.13
   3  -1  -6   70.06    2.93
  -3   1   6   72.46    3.37
  -3   1   6   71.92    3.04
  -3   1   6   73.12    2.92
   2  -1  -6   63.30    2.63
  -2   1   6   61.97    2.72
  -2   1   6   69.31    3.03
  -2   1   6   62.61    2.62
   1  -1  -6   20.80    0.90
  -1   1   6   21.55    0.89
   0  -1  -6   58.02    2.38
   0   1   6   58.54    2.36
   0   1   6   57.35    2.46
  -1  -1  -6    0.67    0.14
   1   1   6    0.81    0.10
   1   1   6    0.71    0.11
  -2  -1  -6   27.04    1.41
  -2  -1  -6   26.97    1.18
   2   1   6   28.82    1.20
   2   1   6   27.79    1.15
  -3  -1  -6   15.99    0.73
   3   1   6   16.81    0.73
   3   1   6   15.71    0.69
  -4  -1  -6   10.87    0.56
   4   1   6   11.51    0.53
  -5  -1  -6    5.51    0.39
   5   1   6    5.90    0.31
  -6  -1  -6    0.04    0.22
  -8   2   6    0.96    0.19
  -7   2   6   13.74    0.64
  -6   2   6    0.24    0.13
   5  -2  -6    9.67    0.46
  -5   2   6    9.21    0.49
  -5   2   6   10.28    0.48
  -5   2   6    9.41    0.45
   4  -2  -6   16.06    0.73
  -4   2   6   17.29    0.77
  -4   2   6   17.11    0.82
  -4   2   6   16.07    0.71
   3  -2  -6    5.20    0.30
  -3   2   6    5.08    0.28
  -3   2   6    5.73    0.31
   2  -2  -6   13.82    0.63
  -2   2   6   13.96    0.61
  -2   2   6   14.43    0.65
   1  -2  -6   25.54    1.07
  -1   2   6   24.62    1.05
   0  -2  -6   22.88    1.01
   0   2   6   23.47    1.03
   0   2   6   23.87    0.98
  -1  -2  -6   24.47    1.01
   1   2   6   22.62    1.02
   1   2   6   23.08    0.98
  -2  -2  -6    0.34    0.16
   2   2   6    0.20    0.12
   2   2   6    0.34    0.11
  -3  -2  -6    9.77    0.51
   3   2   6   10.00    0.47
  -4  -2  -6    0.19    0.19
   4   2   6    0.60    0.13
  -5  -2  -6    0.06    0.21
   5   2   6    0.26    0.13
  -6  -2  -6    5.24    0.40
  -8   3   6    2.85    0.26
  -7   3   6   13.01    0.60
  -6   3   6    8.81    0.44
  -6   3   6    9.21    0.49
  -5   3   6    1.05    0.15
  -5   3   6    0.89    0.13
  -5   3   6    1.00    0.17
   4  -3  -6   25.40    1.09
  -4   3   6   24.92    1.07
  -4   3   6   26.00    1.13
   3  -3  -6   15.78    0.73
  -3   3   6   16.56    0.71
  -3   3   6   16.58    0.76
   2  -3  -6   27.92    1.21
  -2   3   6   30.51    1.44
  -2   3   6   27.04    1.19
  -2   3   6   27.76    1.24
   1  -3  -6   25.80    1.13
  -1   3   6   26.62    1.10
  -1   3   6   26.17    1.10
   0  -3  -6    0.15    0.16
   0   3   6    0.65    0.14
   0   3   6    0.59    0.12
  -1  -3  -6   28.46    1.26
   1   3   6   28.45    1.28
   1   3   6   30.85    1.23
  -2  -3  -6   12.27    0.62
   2   3   6   12.90    0.60
   2   3   6   12.80    0.58
  -3  -3  -6    1.32    0.23
   3   3   6    1.65    0.18
  -4  -3  -6    1.16    0.24
   4   3   6    1.23    0.17
  -5  -3  -6    0.10    0.24
   5   3   6    0.25    0.14
  -7   4   6    0.59    0.18
  -7   4   6    0.60    0.19
  -6   4   6   19.45    0.89
  -6   4   6   18.35    0.83
  -5   4   6   10.61    0.53
  -5   4   6    9.93    0.49
  -4   4   6    4.48    0.28
  -4   4   6    4.58    0.32
  -4   4   6    4.84    0.33
   3  -4  -6   57.18    2.38
  -3   4   6   55.87    2.46
  -3   4   6   61.31    2.91
  -3   4   6   55.58    2.36
   2  -4  -6    0.38    0.17
  -2   4   6    0.46    0.14
  -2   4   6    0.57    0.14
   1  -4  -6    9.88    0.52
  -1   4   6   10.02    0.52
  -1   4   6   10.88    0.50
  -1   4   6   11.42    0.50
   0  -4  -6    9.45    0.53
   0   4   6   10.22    0.51
   0   4   6   10.21    0.48
  -1  -4  -6   14.00    0.65
   1   4   6   12.91    0.60
   1   4   6   12.87    0.62
  -2  -4  -6    9.29    0.51
   2   4   6    9.01    0.48
   2   4   6    9.60    0.47
  -3  -4  -6    0.33    0.24
   3   4   6    0.00    0.15
  -4  -4  -6    3.12    0.34
   4   4   6    3.48    0.28
   5   4   6    1.96    0.21
  -7   5   6   10.67    0.54
  -7   5   6    8.61    0.48
  -6   5   6    0.91    0.18
  -6   5   6    0.68    0.19
  -5   5   6   15.36    0.73
  -5   5   6   16.71    0.78
  -4   5   6    0.08    0.16
  -4   5   6    0.02    0.15
  -3   5   6   11.79    0.56
  -3   5   6   11.98    0.59
  -2   5   6   15.20    0.72
  -2   5   6   15.21    0.68
   1  -5  -6    1.99    0.23
  -1   5   6    1.82    0.20
  -1   5   6    1.89    0.21
   0  -5  -6    4.38    0.35
   0   5   6    4.87    0.31
   0   5   6    4.50    0.30
  -1  -5  -6    0.65    0.22
   1   5   6    0.82    0.17
   1   5   6    0.76    0.18
  -2  -5  -6    0.58    0.24
   2   5   6    0.63    0.18
   2   5   6    0.76    0.18
  -3  -5  -6    5.58    0.44
   3   5   6    5.55    0.36
  -5   6   6    8.32    0.48
  -5   6   6    7.65    0.43
  -4   6   6    8.47    0.44
  -4   6   6    7.13    0.44
  -3   6   6    0.44    0.18
  -3   6   6    0.81    0.20
  -2   6   6   13.11    0.64
  -2   6   6   13.60    0.63
  -2   6   6   13.94    0.68
  -1   6   6    3.74    0.31
  -1   6   6    4.07    0.29
   0   6   6    2.77    0.24
   0   6   6    2.24    0.24
   1   6   6    3.38    0.30
   1   6   6    3.96    0.30
   2   6   6    0.05    0.17
  -3   7   6    4.66    0.39
  -3   7   6    5.73    0.39
  -3   7   6    6.21    0.37
  -2   7   6    2.20    0.25
  -2   7   6    2.18    0.25
  -1   7   6    5.18    0.38
  -1   7   6    6.07    0.38
   0   7   6    0.19    0.21
   1  10  -7    0.20    0.23
   1  10  -7    0.51    0.20
   0  10  -7    2.39    0.29
   0  10  -7    2.46    0.24
  -1  10  -7    0.26    0.22
  -1  10  -7    0.01    0.17
   4   9  -7    0.02    0.21
   3   9  -7    0.30    0.19
   3   9  -7   -0.04    0.19
   2   9  -7    1.30    0.21
   2   9  -7    0.67    0.23
   1   9  -7    5.46    0.34
   1   9  -7    5.70    0.39
   0   9  -7    7.97    0.41
   0   9  -7    8.10    0.50
  -1   9  -7    2.32    0.26
  -1   9  -7    2.13    0.19
  -2   9  -7   -0.11    0.13
  -2   9  -7    0.07    0.20
  -2   9  -7    0.17    0.14
  -3   9  -7    2.75    0.19
  -3   9  -7    2.82    0.27
  -3   9  -7    2.05    0.23
   5   8  -7    0.35    0.20
   5   8  -7    0.39    0.20
   4   8  -7    2.68    0.27
   4   8  -7    2.73    0.25
   3   8  -7    2.05    0.21
   3   8  -7    1.70    0.23
   2   8  -7    1.40    0.21
   2   8  -7    1.34    0.18
   1   8  -7    0.04    0.14
   1   8  -7    0.22    0.17
   0   8  -7    0.16    0.12
   0   8  -7    0.06    0.17
  -1   8  -7    1.04    0.13
  -1   8  -7    0.95    0.15
  -1   8  -7    0.82    0.19
  -2   8  -7    5.96    0.38
  -2   8  -7    6.07    0.28
  -2   8  -7    5.39    0.35
  -3   8  -7    0.13    0.15
  -3   8  -7   -0.03    0.16
  -4   8  -7   11.09    0.56
  -4   8  -7    9.92    0.56
  -5   8  -7    0.02    0.17
   6   7  -7    1.00    0.20
   6   7  -7    0.73    0.23
   5   7  -7    0.80    0.20
   5   7  -7    0.80    0.20
   4   7  -7    4.42    0.34
   4   7  -7    4.39    0.30
   3   7  -7    8.45    0.47
   3   7  -7    8.16    0.42
   2   7  -7    0.13    0.15
   2   7  -7    0.49    0.14
   1   7  -7    3.81    0.24
   0   7  -7   11.37    0.54
   0   7  -7   11.49    0.58
   0   7  -7   11.79    0.51
  -1   7  -7    0.90    0.14
  -1   7  -7    0.84    0.10
  -1   7  -7    0.91    0.17
  -2   7  -7   13.86    0.66
  -2   7  -7   13.87    0.67
  -3   7  -7    0.36    0.17
  -3   7  -7    0.12    0.14
  -4   7  -7    3.33    0.28
  -4   7  -7    3.85    0.29
  -5   7  -7    1.11    0.20
   7   6  -7    0.44    0.22
   7   6  -7    0.42    0.19
   6   6  -7   -0.01    0.18
   6   6  -7    0.11    0.16
   5   6  -7    1.14    0.19
   4   6  -7    1.97    0.20
   3   6  -7   16.85    0.88
   3   6  -7   17.49    0.76
   2   6  -7    2.07    0.20
   2   6  -7    1.96    0.17
  -2  -6   7    1.73    0.20
   1   6  -7    0.91    0.11
   1   6  -7    0.70    0.08
   1   6  -7    0.63    0.15
  -1  -6   7    0.68    0.16
   0   6  -7    4.94    0.26
   0   6  -7    5.48    0.35
   0   6  -7    5.17    0.28
   0   6  -7    5.01    0.26
   0   6  -7    5.37    0.38
   0  -6   7    5.90    0.38
  -1   6  -7    1.04    0.09
  -1   6  -7    1.22    0.19
  -1   6  -7    1.27    0.20
  -1   6  -7    0.82    0.09
  -1   6  -7    0.94    0.13
   1  -6   7    0.92    0.18
  -2   6  -7    0.66    0.19
  -2   6  -7    0.56    0.16
  -2   6  -7    0.61    0.13
  -3   6  -7    5.20    0.32
  -3   6  -7    5.83    0.39
  -4   6  -7    0.21    0.14
  -4   6  -7    0.33    0.14
  -5   6  -7    7.69    0.44
  -6   6  -7    0.22    0.18
  -6   6  -7    0.13    0.11
   7   5  -7    1.80    0.26
   6   5  -7    3.73    0.30
   6   5  -7    3.16    0.27
   5   5  -7    1.58    0.21
   5   5  -7    1.71    0.20
   4   5  -7    0.11    0.14
   4   5  -7    0.09    0.13
  -4  -5   7    0.04    0.13
   3   5  -7    9.43    0.50
   3   5  -7    8.42    0.42
  -3  -5   7    8.80    0.40
  -3  -5   7    9.40    0.53
   2   5  -7   10.67    0.47
   2   5  -7    9.60    0.55
   2   5  -7    9.92    0.47
  -2  -5   7   11.16    0.59
  -2  -5   7   10.06    0.43
   1   5  -7    8.84    0.40
   1   5  -7    9.27    0.41
   1   5  -7    8.64    0.49
  -1  -5   7    8.96    0.52
   0   5  -7   13.87    0.72
   0   5  -7   14.85    0.59
   0   5  -7   13.50    0.78
   0   5  -7   13.61    0.59
   0   5  -7   13.63    0.64
   0  -5   7   14.29    0.77
  -1   5  -7   30.03    1.23
  -1   5  -7   29.94    1.32
  -1   5  -7   28.86    1.22
  -1   5  -7   30.76    1.59
  -1   5  -7   29.68    1.46
   1  -5   7   31.05    1.57
  -2   5  -7    5.73    0.32
  -2   5  -7    5.46    0.35
  -2   5  -7    5.26    0.24
  -2   5  -7    5.50    0.38
  -3   5  -7    1.65    0.23
  -3   5  -7    1.77    0.19
  -3   5  -7    1.83    0.21
  -4   5  -7    1.79    0.20
  -5   5  -7    1.76    0.13
  -5   5  -7    1.51    0.22
  -6   5  -7    4.20    0.26
  -6   5  -7    4.27    0.34
   7   4  -7    1.50    0.22
  -7  -4   7    1.39    0.19
   6   4  -7    3.02    0.25
   6   4  -7    2.43    0.24
  -6  -4   7    2.46    0.21
   5   4  -7    0.08    0.12
   5   4  -7    0.04    0.14
  -5  -4   7   -0.12    0.10
   4   4  -7    7.39    0.39
   4   4  -7    7.76    0.44
  -4  -4   7    8.15    0.37
   3   4  -7   21.33    1.06
   3   4  -7   21.21    0.92
  -3  -4   7   22.48    1.14
   2   4  -7    6.92    0.35
   2   4  -7    7.25    0.35
   2   4  -7    7.37    0.42
  -2  -4   7    7.48    0.43
  -2  -4   7    7.51    0.32
   1   4  -7   39.88    1.67
   1   4  -7   41.07    1.96
   1   4  -7   39.93    1.68
  -1  -4   7   42.74    2.10
   0   4  -7    0.24    0.11
   0   4  -7    0.23    0.12
   0   4  -7    0.23    0.08
   0   4  -7    0.24    0.07
   0  -4   7    0.07    0.10
  -1   4  -7    1.52    0.17
  -1   4  -7    1.23    0.14
  -1   4  -7    1.44    0.18
  -1   4  -7    1.74    0.12
  -1   4  -7    1.65    0.12
   1  -4   7    1.63    0.18
  -2   4  -7    9.32    0.49
  -2   4  -7    9.55    0.58
  -2   4  -7    9.71    0.54
  -2   4  -7    9.63    0.42
  -2   4  -7    9.26    0.42
  -2   4  -7   10.66    0.42
   2  -4   7   10.68    0.54
  -3   4  -7    0.78    0.09
  -3   4  -7    0.54    0.14
  -3   4  -7    0.70    0.07
  -3   4  -7    0.50    0.17
   3  -4   7    0.73    0.15
  -4   4  -7    8.11    0.44
  -4   4  -7    6.99    0.50
  -4   4  -7    8.27    0.36
   4  -4   7    8.38    0.46
  -5   4  -7    0.76    0.14
  -5   4  -7    0.68    0.18
   5  -4   7    0.65    0.16
  -6   4  -7    1.77    0.19
  -6   4  -7    1.73    0.24
  -7   4  -7    0.62    0.23
  -8  -3   7    2.80    0.26
   7   3  -7    1.27    0.21
  -7  -3   7    1.23    0.18
   6   3  -7    6.89    0.39
   6   3  -7    6.29    0.38
  -6  -3   7    6.88    0.35
   5   3  -7   11.95    0.58
   5   3  -7   12.81    0.65
  -5  -3   7   12.83    0.56
   4   3  -7    3.08    0.22
   4   3  -7    3.13    0.22
  -4  -3   7    2.92    0.20
   3   3  -7    6.59    0.33
   3   3  -7    6.49    0.38
  -3  -3   7    6.69    0.31
  -3  -3   7    6.54    0.31
  -3  -3   7    7.18    0.40
   2   3  -7    3.71    0.26
   2   3  -7    3.45    0.22
   2   3  -7    3.58    0.22
  -2  -3   7    3.96    0.19
  -2  -3   7    4.06    0.20
  -2  -3   7    3.90    0.26
   1   3  -7    5.42    0.34
   1   3  -7    5.54    0.28
   1   3  -7    5.81    0.28
  -1  -3   7    5.55    0.28
  -1  -3   7    5.51    0.24
  -1  -3   7    5.75    0.25
  -1  -3   7    5.88    0.34
  -1  -3   7    5.67    0.34
   0   3  -7   27.53    1.04
   0   3  -7   24.10    1.31
   0   3  -7   23.77    1.04
   0   3  -7   23.70    1.22
   0  -3   7   26.35    1.30
  -1   3  -7    0.82    0.14
  -1   3  -7    0.85    0.09
  -1   3  -7    1.04    0.10
  -1   3  -7    0.80    0.14
   1  -3   7    1.14    0.14
  -2   3  -7   31.56    1.32
  -2   3  -7   33.49    1.32
  -2   3  -7   32.10    1.42
  -2   3  -7   31.68    1.67
  -2   3  -7   31.75    1.32
   2  -3   7   32.35    1.56
  -3   3  -7    6.85    0.45
  -3   3  -7    6.79    0.33
  -3   3  -7    7.27    0.34
  -3   3  -7    7.25    0.39
   3  -3   7    7.73    0.42
  -4   3  -7    0.12    0.12
  -4   3  -7    0.02    0.14
  -4   3  -7   -0.04    0.14
   4  -3   7    0.15    0.14
  -5   3  -7    1.20    0.19
  -5   3  -7    0.97    0.21
  -5   3  -7    1.10    0.17
   5  -3   7    1.16    0.19
  -6   3  -7    0.14    0.17
  -6   3  -7   -0.01    0.17
  -7   3  -7    0.56    0.22
  -7   3  -7    0.34    0.20
  -8  -2   7    0.10    0.19
   7   2  -7    2.35    0.24
  -7  -2   7    2.32    0.21
   6   2  -7    1.71    0.16
   6   2  -7    1.51    0.19
  -6  -2   7    1.44    0.16
   5   2  -7   11.47    0.55
   5   2  -7   11.49    0.60
  -5  -2   7   12.19    0.53
   4   2  -7   12.86    0.66
   4   2  -7   13.00    0.59
  -4  -2   7   13.58    0.57
   3   2  -7    6.36    0.33
   3   2  -7    6.73    0.37
  -3  -2   7    6.60    0.31
   2   2  -7    0.57    0.10
   2   2  -7    0.39    0.09
   2   2  -7    0.45    0.11
  -2  -2   7    0.31    0.11
  -2  -2   7    0.41    0.09
  -2  -2   7    0.38    0.07
   1   2  -7    3.94    0.23
   1   2  -7    4.09    0.26
   1   2  -7    4.08    0.22
  -1  -2   7    4.38    0.20
  -1  -2   7    3.94    0.27
  -1  -2   7    4.02    0.20
  -1  -2   7    4.23    0.25
   0   2  -7   31.93    1.23
   0   2  -7   29.16    1.23
   0  -2   7   28.20    1.44
   0  -2   7   29.66    1.52
  -1   2  -7   12.48    0.54
  -1   2  -7   13.23    0.54
  -1   2  -7   11.61    0.67
  -2   2  -7    7.26    0.36
  -2   2  -7    7.97    0.36
  -2   2  -7    7.34    0.45
  -2   2  -7    8.27    0.37
   2  -2   7    8.02    0.44
  -3   2  -7   78.45    4.18
  -3   2  -7   81.87    3.34
  -3   2  -7   83.18    3.35
   3  -2   7   86.27    3.89
  -4   2  -7   -0.02    0.14
  -4   2  -7    0.23    0.14
  -4   2  -7    0.06    0.14
   4  -2   7    0.11    0.13
  -5   2  -7    1.68    0.22
  -5   2  -7    1.90    0.20
  -5   2  -7    1.19    0.21
  -6   2  -7    0.15    0.18
  -6   2  -7    0.25    0.18
  -7   2  -7    0.55    0.24
  -7   2  -7    0.99    0.23
  -8  -1   7    0.01    0.17
   7   1  -7    7.13    0.39
  -7  -1   7    6.35    0.36
   6   1  -7    7.81    0.41
  -6  -1   7    7.34    0.38
   5   1  -7   15.78    0.71
  -5  -1   7   16.08    0.69
   4   1  -7   57.74    2.37
  -4  -1   7   57.78    2.36
   3   1  -7    0.83    0.13
  -3  -1   7    0.84    0.10
  -3  -1   7    0.84    0.13
   2   1  -7   20.56    0.89
  -2  -1   7   20.68    0.88
  -2  -1   7   21.31    1.04
  -2  -1   7   21.80    1.09
   1   1  -7   24.78    1.07
   1   1  -7   27.15    1.07
  -1  -1   7   25.42    1.25
  -1  -1   7   24.87    1.05
  -1  -1   7   25.75    1.31
   0   1  -7    1.10    0.11
   0   1  -7    0.88    0.12
   0  -1   7    0.98    0.10
   0  -1   7    0.92    0.08
   0  -1   7    0.77    0.13
  -1   1  -7   22.73    0.90
  -1   1  -7   20.84    0.90
   1  -1   7   20.45    0.87
  -2   1  -7    2.33    0.19
  -2   1  -7    2.47    0.19
  -2   1  -7    2.06    0.18
  -2   1  -7    2.35    0.17
  -3   1  -7    2.51    0.23
  -3   1  -7    2.20    0.21
   3  -1   7    2.89    0.24
  -4   1  -7    2.91    0.26
  -4   1  -7    3.03    0.25
   4  -1   7    3.88    0.27
  -5   1  -7    0.34    0.17
  -5   1  -7    0.37    0.18
  -6   1  -7    0.37    0.21
  -8   0   7    7.74    0.44
  -7   0   7    0.02    0.15
   6   0  -7    7.68    0.42
  -6   0   7    7.70    0.40
   5   0  -7    5.95    0.33
  -5   0   7    5.44    0.30
   4   0  -7    2.36    0.19
  -4   0   7    2.56    0.21
  -4   0   7    2.41    0.18
   3   0  -7   52.01    2.11
  -3   0   7   50.35    2.43
  -3   0   7   51.53    2.10
   2   0  -7    0.24    0.12
  -2   0   7    0.38    0.09
  -2   0   7    0.32    0.07
  -2   0   7    0.27    0.11
   1   0  -7   49.09    2.13
  -1   0   7   55.39    2.46
  -1   0   7   50.27    2.11
  -1   0   7   50.79    2.12
  -1   0   7   54.02    2.61
   0   0  -7    1.31    0.15
   0   0   7    1.59    0.16
   0   0   7    1.62    0.16
   0   0   7    1.79    0.14
  -1   0  -7    0.15    0.12
  -1   0  -7    0.12    0.06
   1   0   7    0.25    0.08
   1   0   7    0.10    0.11
  -2   0  -7    6.54    0.35
   2   0   7    6.88    0.34
   2   0   7    5.69    0.29
  -3   0  -7    1.79    0.20
  -3   0  -7    1.89    0.19
   3   0   7    1.92    0.20
  -4   0  -7   12.37    0.71
  -4   0  -7   13.42    0.62
  -5   0  -7    1.70    0.23
  -6   0  -7    1.33    0.25
  -8   1   7    5.57    0.35
  -7   1   7    2.49    0.22
   6  -1  -7    3.07    0.24
  -6   1   7    3.01    0.23
   5  -1  -7    5.30    0.32
  -5   1   7    5.38    0.32
  -5   1   7    6.10    0.30
   4  -1  -7   11.79    0.56
  -4   1   7   12.33    0.54
  -4   1   7   12.33    0.58
  -4   1   7   11.65    0.62
   3  -1  -7   48.30    2.04
  -3   1   7   47.95    2.12
  -3   1   7   50.78    2.03
  -3   1   7   50.90    2.35
   2  -1  -7    9.51    0.48
  -2   1   7   11.60    0.54
  -2   1   7   10.07    0.53
  -2   1   7    9.93    0.46
  -2   1   7   10.11    0.49
   1  -1  -7    5.90    0.33
  -1   1   7    6.22    0.30
  -1   1   7    6.22    0.31
   0  -1  -7   58.41    2.50
   0   1   7   62.38    2.48
   0   1   7   61.34    2.58
  -1  -1  -7    0.03    0.15
   1   1   7   -0.05    0.10
   1   1   7    0.18    0.10
  -2  -1  -7    9.27    0.48
  -2  -1  -7    8.67    0.49
   2   1   7    9.97    0.46
   2   1   7    9.81    0.43
  -3  -1  -7    0.62    0.20
   3   1   7    0.77    0.14
  -4  -1  -7    7.40    0.45
   4   1   7    7.96    0.40
  -5  -1  -7    6.12    0.41
  -6  -1  -7   -0.16    0.24
  -8   2   7    3.25    0.27
  -7   2   7   15.64    0.71
  -6   2   7    1.05    0.17
   5  -2  -7   48.02    1.94
  -5   2   7   43.26    2.20
  -5   2   7   48.65    2.02
  -5   2   7   46.84    1.93
   4  -2  -7   12.07    0.59
  -4   2   7   12.42    0.57
  -4   2   7   13.15    0.65
  -4   2   7   13.08    0.62
   3  -2  -7    0.84    0.17
  -3   2   7    0.94    0.16
  -3   2   7    0.62    0.13
  -3   2   7    1.04    0.15
   2  -2  -7   39.82    1.74
  -2   2   7   40.37    1.80
  -2   2   7   42.31    1.72
  -2   2   7   44.23    2.10
   1  -2  -7    4.33    0.31
  -1   2   7    4.93    0.27
  -1   2   7    4.78    0.26
   0  -2  -7    6.99    0.38
   0   2   7    6.28    0.33
   0   2   7    6.50    0.36
  -1  -2  -7   15.49    0.74
   1   2   7   16.03    0.70
   1   2   7   16.27    0.73
  -2  -2  -7    2.46    0.25
   2   2   7    2.38    0.20
  -3  -2  -7    8.88    0.52
   3   2   7   10.51    0.49
  -4  -2  -7    0.09    0.22
   4   2   7    0.13    0.14
  -5  -2  -7    1.34    0.27
  -7   3   7    3.32    0.26
  -6   3   7   19.14    0.86
  -6   3   7   19.96    0.91
  -5   3   7    1.47    0.21
  -5   3   7    1.42    0.18
   4  -3  -7   18.66    0.88
  -4   3   7   21.28    0.99
  -4   3   7   20.28    0.91
  -4   3   7   19.31    0.86
   3  -3  -7    1.12    0.19
  -3   3   7    1.27    0.17
  -3   3   7    1.21    0.16
   2  -3  -7    7.38    0.42
  -2   3   7    7.05    0.36
  -2   3   7    6.75    0.39
   1  -3  -7   23.47    1.02
  -1   3   7   22.46    0.98
  -1   3   7   23.48    1.03
   0  -3  -7    0.68    0.20
   0   3   7    0.47    0.14
   0   3   7    0.65    0.14
  -1  -3  -7   15.76    0.74
   1   3   7   14.80    0.72
   1   3   7   16.10    0.69
  -2  -3  -7    2.85    0.29
   2   3   7    2.38    0.22
  -3  -3  -7    3.15    0.31
   3   3   7    2.83    0.24
  -4  -3  -7    1.24    0.28
   4   3   7    0.93    0.17
  -7   4   7    0.48    0.19
  -7   4   7    0.29    0.20
  -6   4   7   21.37    0.97
  -6   4   7   20.11    0.91
  -5   4   7    7.13    0.43
  -5   4   7    6.92    0.38
  -4   4   7    7.77    0.42
  -4   4   7    8.20    0.45
   3  -4  -7   13.80    0.67
  -3   4   7   14.19    0.63
  -3   4   7   13.50    0.67
   2  -4  -7    1.58    0.22
  -2   4   7    1.75    0.21
  -2   4   7    1.54    0.18
   1  -4  -7   25.74    1.14
  -1   4   7   26.48    1.16
  -1   4   7   25.42    1.10
   0  -4  -7    6.01    0.42
   0   4   7    5.97    0.36
   0   4   7    6.34    0.36
  -1  -4  -7    1.50    0.26
   1   4   7    1.18    0.17
   1   4   7    1.29    0.19
  -2  -4  -7   31.90    1.42
   2   4   7   32.85    1.42
  -3  -4  -7    0.25    0.25
   3   4   7    0.02    0.16
  -4  -4  -7    0.85    0.28
   4   4   7    1.01    0.19
  -6   5   7    2.93    0.26
  -6   5   7    3.38    0.30
  -5   5   7   17.99    0.85
  -5   5   7   17.29    0.80
  -4   5   7    5.13    0.33
  -4   5   7    5.21    0.36
  -3   5   7   30.10    1.28
  -3   5   7   30.06    1.35
  -2   5   7    4.50    0.30
  -2   5   7    3.99    0.29
  -2   5   7    3.90    0.33
   1  -5  -7    2.29    0.28
  -1   5   7    2.14    0.22
  -1   5   7    1.74    0.22
   0  -5  -7    9.21    0.52
   0   5   7    8.82    0.49
   0   5   7    9.03    0.47
  -1  -5  -7    3.49    0.34
   1   5   7    3.45    0.29
   1   5   7    3.46    0.28
  -2  -5  -7    0.52    0.28
   2   5   7    0.03    0.18
  -4   6   7   11.14    0.57
  -4   6   7   11.32    0.61
  -3   6   7    0.47    0.18
  -3   6   7    0.40    0.20
  -2   6   7   14.17    0.67
  -2   6   7   13.54    0.69
  -1   6   7    2.38    0.25
  -1   6   7    1.96    0.24
   0   6   7    3.86    0.31
   0   6   7    3.22    0.29
   3   9  -8    0.27    0.19
   3   9  -8    0.13    0.21
   2   9  -8    2.43    0.23
   2   9  -8    2.11    0.27
   1   9  -8    2.75    0.23
   1   9  -8    2.99    0.29
   0   9  -8    4.32    0.37
   0   9  -8    4.96    0.29
  -1   9  -8    0.88    0.22
  -1   9  -8    0.85    0.15
  -2   9  -8   -0.09    0.12
  -2   9  -8   -0.01    0.21
  -3   9  -8    2.52    0.25
  -3   9  -8    2.82    0.28
   5   8  -8    0.53    0.21
   5   8  -8    0.47    0.21
   4   8  -8    1.98    0.24
   4   8  -8    2.17    0.25
   3   8  -8    0.24    0.20
   3   8  -8    0.23    0.17
   2   8  -8   -0.25    0.16
   2   8  -8   -0.08    0.18
   1   8  -8    4.37    0.35
   1   8  -8    5.56    0.30
   0   8  -8    0.77    0.14
   0   8  -8    0.65    0.20
  -1   8  -8    2.97    0.20
  -1   8  -8    2.54    0.27
  -1   8  -8    2.59    0.23
  -2   8  -8    1.73    0.24
  -2   8  -8    1.49    0.13
  -2   8  -8    1.73    0.18
  -3   8  -8    0.55    0.16
  -3   8  -8    0.91    0.21
  -4   8  -8    1.76    0.23
  -4   8  -8    1.94    0.24
   6   7  -8    1.27    0.23
   6   7  -8    1.40    0.24
   5   7  -8    1.32    0.22
   5   7  -8    1.28    0.23
   4   7  -8    0.74    0.19
   3   7  -8    0.45    0.15
   2   7  -8    2.59    0.21
   1   7  -8    2.98    0.22
   0   7  -8    0.20    0.11
   0   7  -8    0.09    0.10
  -1   7  -8    0.10    0.10
  -1   7  -8    0.10    0.11
  -2   7  -8    3.57    0.26
  -2   7  -8    3.75    0.19
  -3   7  -8    2.75    0.23
  -3   7  -8    1.96    0.24
  -4   7  -8    1.44    0.21
  -4   7  -8    1.78    0.22
  -5   7  -8    0.73    0.19
   7   6  -8    5.90    0.43
   7   6  -8    5.84    0.40
   6   6  -8    0.10    0.19
   5   6  -8    6.58    0.39
   4   6  -8    8.65    0.44
   3   6  -8   53.75    2.22
   2   6  -8    1.04    0.15
   1   6  -8   -0.04    0.11
  -1  -6   8    0.15    0.15
   0   6  -8   14.65    0.59
   0   6  -8   13.19    0.79
   0   6  -8   12.94    0.63
   0  -6   8   13.60    0.77
  -1   6  -8    1.65    0.12
  -1   6  -8    1.63    0.24
  -1   6  -8    1.39    0.16
   1  -6   8    1.67    0.21
  -2   6  -8    7.34    0.41
  -2   6  -8    7.70    0.33
  -3   6  -8    4.02    0.29
  -4   6  -8    0.39    0.16
  -5   6  -8    3.12    0.18
  -5   6  -8    2.12    0.26
   7   5  -8    0.95    0.23
   6   5  -8    0.09    0.16
   6   5  -8    0.00    0.19
   5   5  -8    0.78    0.18
   5   5  -8    0.38    0.16
   4   5  -8   -0.12    0.13
   4   5  -8   -0.05    0.14
   3   5  -8    5.84    0.33
   3   5  -8    6.03    0.38
  -3  -5   8    6.71    0.41
   2   5  -8   13.95    0.62
   2   5  -8   14.04    0.74
  -2  -5   8   14.42    0.78
   1   5  -8    7.75    0.36
   1   5  -8    6.78    0.44
  -1  -5   8    7.92    0.47
   0   5  -8    0.10    0.09
   0   5  -8    0.09    0.10
   0   5  -8    0.12    0.14
   0   5  -8    0.19    0.14
   0  -5   8    0.23    0.13
  -1   5  -8   17.27    0.76
  -1   5  -8   17.34    0.83
  -1   5  -8   17.47    0.93
  -1   5  -8   18.76    1.01
  -1   5  -8   18.96    0.77
   1  -5   8   19.90    1.00
  -2   5  -8    0.06    0.08
  -2   5  -8    0.45    0.14
  -2   5  -8    0.07    0.15
  -2   5  -8   -0.04    0.07
  -2   5  -8   -0.04    0.15
  -3   5  -8    1.13    0.10
  -3   5  -8    0.98    0.17
  -3   5  -8    0.96    0.20
  -4   5  -8    3.26    0.20
  -4   5  -8    3.03    0.27
  -5   5  -8    0.12    0.12
  -5   5  -8   -0.04    0.17
  -6   5  -8    1.71    0.26
  -6   5  -8    1.80    0.19
   8   4  -8    0.91    0.23
   7   4  -8    0.83    0.21
   6   4  -8    8.70    0.49
   6   4  -8    8.15    0.45
   5   4  -8    1.35    0.19
   5   4  -8    1.20    0.18
   4   4  -8   15.02    0.76
   4   4  -8   14.21    0.66
  -4  -4   8   15.04    0.81
  -4  -4   8   14.91    0.64
   3   4  -8    5.44    0.35
   3   4  -8    5.48    0.30
  -3  -4   8    5.67    0.37
  -3  -4   8    5.24    0.26
   2   4  -8    7.57    0.44
   2   4  -8    7.34    0.37
   2   4  -8    7.82    0.38
  -2  -4   8    7.52    0.45
  -2  -4   8    7.98    0.34
   1   4  -8    9.86    0.47
   1   4  -8   10.12    0.46
   1   4  -8    9.55    0.55
  -1  -4   8   11.46    0.59
   0   4  -8    0.29    0.13
   0   4  -8    0.29    0.10
   0   4  -8    0.26    0.09
   0   4  -8    0.17    0.12
   0  -4   8    0.40    0.12
  -1   4  -8   15.39    0.88
  -1   4  -8   16.44    0.68
  -1   4  -8   15.58    0.83
  -1   4  -8   16.42    0.68
   1  -4   8   16.79    0.87
   1  -4   8   15.24    0.82
  -2   4  -8    3.58    0.29
  -2   4  -8    4.22    0.22
  -2   4  -8    3.30    0.26
  -2   4  -8    3.85    0.21
  -2   4  -8    3.67    0.31
   2  -4   8    4.38    0.30
  -3   4  -8    1.60    0.14
  -3   4  -8    1.43    0.21
  -3   4  -8    1.43    0.19
   3  -4   8    1.31    0.19
  -4   4  -8    4.00    0.35
  -4   4  -8    3.78    0.29
  -4   4  -8    3.96    0.24
  -5   4  -8    0.48    0.19
  -5   4  -8    0.48    0.15
  -6   4  -8    0.06    0.19
  -6   4  -8    0.16    0.18
   7   3  -8   -0.06    0.18
  -7  -3   8    0.11    0.16
   6   3  -8   14.01    0.68
   6   3  -8   15.35    0.76
  -6  -3   8   14.90    0.67
   5   3  -8    0.08    0.13
   5   3  -8    0.25    0.16
  -5  -3   8    0.03    0.11
   4   3  -8    1.47    0.17
   4   3  -8    1.53    0.17
  -4  -3   8    1.56    0.14
   3   3  -8   12.04    0.65
   3   3  -8   13.27    0.58
  -3  -3   8   13.27    0.55
  -3  -3   8   12.26    0.57
  -3  -3   8   13.06    0.70
   2   3  -8   45.06    1.83
   2   3  -8   43.32    2.11
   2   3  -8   43.80    1.83
  -2  -3   8   44.01    1.80
  -2  -3   8   45.42    2.26
   1   3  -8   69.77    3.54
   1   3  -8   71.09    3.06
   1   3  -8   78.05    3.06
  -1  -3   8   76.99    3.81
  -1  -3   8   80.43    3.56
   0   3  -8   10.06    0.58
   0   3  -8   11.31    0.49
   0   3  -8   11.09    0.50
   0  -3   8   11.64    0.61
  -1   3  -8    1.06    0.12
  -1   3  -8    0.83    0.15
  -1   3  -8    0.82    0.12
  -2   3  -8   20.01    0.82
  -2   3  -8   18.36    1.04
   2  -3   8   19.91    0.98
  -3   3  -8    1.26    0.15
  -3   3  -8    1.11    0.19
   3  -3   8    1.17    0.18
  -4   3  -8    2.22    0.23
  -4   3  -8    2.46    0.20
  -4   3  -8    2.38    0.25
  -5   3  -8    4.60    0.31
  -5   3  -8    4.03    0.35
  -6   3  -8    0.59    0.22
  -6   3  -8    0.77    0.21
  -8  -2   8    1.40    0.22
   7   2  -8    2.07    0.23
  -7  -2   8    2.15    0.22
   6   2  -8    2.06    0.22
   6   2  -8    2.24    0.21
  -6  -2   8    1.91    0.19
   5   2  -8   20.99    1.02
   5   2  -8   20.80    0.91
  -5  -2   8   20.59    0.89
   4   2  -8    2.15    0.20
   4   2  -8    2.08    0.19
  -4  -2   8    2.08    0.17
   3   2  -8   18.98    0.95
   3   2  -8   19.09    0.83
  -3  -2   8   18.72    0.95
  -3  -2   8   19.42    1.00
  -3  -2   8   19.53    0.81
   2   2  -8    1.02    0.13
  -2  -2   8    0.89    0.12
  -2  -2   8    1.18    0.16
  -2  -2   8    0.67    0.09
   1   2  -8    0.49    0.11
   1   2  -8    0.27    0.11
  -1  -2   8    0.54    0.10
  -1  -2   8    0.43    0.07
  -1  -2   8    0.32    0.07
  -1  -2   8    0.46    0.13
   0   2  -8    5.87    0.32
   0   2  -8    7.09    0.33
   0  -2   8    6.66    0.38
   0  -2   8    6.32    0.39
  -1   2  -8   14.13    0.57
  -1   2  -8   12.39    0.57
  -1   2  -8   12.03    0.69
  -2   2  -8    1.38    0.16
  -2   2  -8    1.57    0.16
   2  -2   8    1.41    0.18
  -3   2  -8   15.02    0.70
  -3   2  -8   15.30    0.86
   3  -2   8   17.19    0.83
  -4   2  -8    1.05    0.18
  -4   2  -8    0.94    0.18
  -5   2  -8    2.84    0.26
  -6   2  -8    2.54    0.27
  -8  -1   8   -0.35    0.17
   7   1  -8    9.67    0.50
  -7  -1   8    8.85    0.46
   6   1  -8    2.22    0.21
  -6  -1   8    1.84    0.18
   5   1  -8    5.21    0.31
  -5  -1   8    4.85    0.28
   4   1  -8   13.15    0.60
  -4  -1   8   13.45    0.58
  -4  -1   8   12.80    0.68
   3   1  -8    0.38    0.13
  -3  -1   8    0.31    0.12
  -3  -1   8    0.39    0.10
   2   1  -8    8.08    0.41
  -2  -1   8    8.28    0.47
  -2  -1   8    8.84    0.46
  -2  -1   8    8.24    0.38
   1   1  -8    7.50    0.40
  -1  -1   8    8.89    0.44
  -1  -1   8    7.74    0.36
  -1  -1   8    8.11    0.46
  -1  -1   8    7.77    0.36
   0   1  -8   15.17    0.69
   0   1  -8   16.57    0.70
   0  -1   8   15.46    0.66
   0  -1   8   16.39    0.81
  -1   1  -8   26.42    1.07
   1  -1   8   24.17    1.03
  -2   1  -8    0.11    0.14
  -2   1  -8   -0.07    0.09
   2  -1   8    0.05    0.13
  -3   1  -8    0.86    0.15
  -3   1  -8    1.22    0.18
  -4   1  -8    2.52    0.25
  -5   1  -8    0.11    0.20
  -6   1  -8    0.43    0.23
  -8   0   8    4.47    0.33
  -7   0   8    1.82    0.21
   6   0  -8   11.92    0.58
  -6   0   8   11.65    0.55
   5   0  -8   10.15    0.51
  -5   0   8   10.72    0.49
   4   0  -8   83.43    3.41
  -4   0   8   86.91    3.40
  -4   0   8   80.12    3.92
   3   0  -8   12.14    0.56
  -3   0   8   12.05    0.64
  -3   0   8   12.13    0.54
   2   0  -8    4.58    0.28
  -2   0   8    4.45    0.25
  -2   0   8    4.68    0.27
  -2   0   8    4.50    0.31
   1   0  -8   18.64    0.87
  -1   0   8   21.03    1.02
  -1   0   8   18.48    0.84
  -1   0   8   21.49    1.00
  -1   0   8   19.95    0.84
   0   0  -8    0.06    0.15
   0   0   8    1.18    0.16
   0   0   8    0.51    0.10
   0   0   8    0.34    0.13
  -1   0  -8   11.89    0.58
   1   0   8   13.89    0.67
   1   0   8   11.76    0.59
  -2   0  -8    4.95    0.33
  -3   0  -8    2.04    0.24
  -4   0  -8    4.86    0.34
  -5   0  -8    1.50    0.26
  -8   1   8    0.90    0.20
  -7   1   8    1.07    0.18
   6  -1  -8    5.25    0.34
  -6   1   8    5.52    0.33
   5  -1  -8    2.74    0.23
  -5   1   8    2.89    0.22
  -5   1   8    2.42    0.23
   4  -1  -8   17.10    0.75
  -4   1   8   17.08    0.73
  -4   1   8   15.64    0.83
   3  -1  -8   15.61    0.74
  -3   1   8   16.15    0.76
  -3   1   8   17.44    0.84
  -3   1   8   16.62    0.72
   2  -1  -8   13.67    0.66
  -2   1   8   14.36    0.68
  -2   1   8   13.51    0.63
  -2   1   8   15.79    0.75
  -2   1   8   14.58    0.74
   1  -1  -8    1.22    0.19
  -1   1   8    1.90    0.17
  -1   1   8    1.35    0.18
  -1   1   8    1.13    0.13
  -1   1   8    1.39    0.14
   0  -1  -8   26.47    1.17
   0   1   8   26.36    1.14
   0   1   8   28.46    1.34
   0   1   8   27.69    1.20
  -1  -1  -8    0.75    0.19
   1   1   8    0.53    0.14
  -2  -1  -8    2.94    0.28
   2   1   8    3.74    0.26
  -3  -1  -8    1.58    0.24
   3   1   8    1.54    0.18
  -4  -1  -8    0.21    0.24
   4   1   8    0.01    0.14
  -5  -1  -8    3.29    0.33
  -7   2   8    9.62    0.49
  -6   2   8    0.41    0.16
   5  -2  -8   17.48    0.80
  -5   2   8   18.10    0.83
  -5   2   8   17.29    0.78
   4  -2  -8    2.95    0.26
  -4   2   8    3.81    0.28
  -4   2   8    3.23    0.27
  -4   2   8    3.30    0.24
   3  -2  -8   10.36    0.53
  -3   2   8   10.17    0.49
  -3   2   8   10.19    0.53
  -3   2   8   11.82    0.58
   2  -2  -8   23.66    1.00
  -2   2   8   22.85    0.98
  -2   2   8   22.32    1.03
   1  -2  -8    5.64    0.39
  -1   2   8    6.04    0.35
  -1   2   8    6.50    0.33
   0  -2  -8    2.18    0.24
   0   2   8    2.26    0.20
   0   2   8    1.94    0.18
  -1  -2  -8    7.25    0.44
   1   2   8    7.40    0.40
  -2  -2  -8    1.84    0.25
   2   2   8    1.82    0.20
  -3  -2  -8    2.93    0.32
   3   2   8    3.55    0.27
  -4  -2  -8    0.48    0.25
   4   2   8    0.14    0.16
  -7   3   8    8.50    0.45
  -6   3   8    7.08    0.41
  -6   3   8    7.79    0.45
  -5   3   8    2.54    0.26
  -5   3   8    2.79    0.23
   4  -3  -8   16.79    0.81
  -4   3   8   17.38    0.78
  -4   3   8   16.90    0.82
  -4   3   8   19.25    0.90
   3  -3  -8    7.59    0.44
  -3   3   8    7.53    0.42
  -3   3   8    7.20    0.39
   2  -3  -8   12.27    0.62
  -2   3   8   12.02    0.60
  -2   3   8   12.17    0.56
   1  -3  -8   12.45    0.62
  -1   3   8   13.11    0.58
  -1   3   8   11.49    0.60
   0  -3  -8    0.28    0.23
   0   3   8    0.17    0.13
   0   3   8    0.21    0.16
  -1  -3  -8    9.63    0.53
   1   3   8    9.45    0.49
  -2  -3  -8    1.00    0.28
   2   3   8    1.34    0.19
  -3  -3  -8    2.13    0.30
   3   3   8    1.47    0.19
   4   3   8    1.93    0.22
  -6   4   8   11.03    0.56
  -6   4   8   12.03    0.63
  -5   4   8    3.03    0.28
  -5   4   8    2.93    0.26
  -4   4   8   11.00    0.54
  -4   4   8   11.36    0.59
  -3   4   8    0.40    0.17
  -3   4   8    0.33    0.19
   2  -4  -8    1.66    0.26
  -2   4   8    1.33    0.20
  -2   4   8    1.20    0.19
  -2   4   8    1.29    0.19
   1  -4  -8    6.52    0.42
  -1   4   8    6.44    0.38
  -1   4   8    5.87    0.35
   0  -4  -8    2.69    0.29
   0   4   8    1.82    0.22
   0   4   8    2.30    0.21
  -1  -4  -8    2.80    0.32
   1   4   8    2.38    0.25
  -2  -4  -8    8.21    0.52
   2   4   8    8.08    0.47
  -4   5   8    0.06    0.19
  -4   5   8   -0.15    0.19
  -3   5   8    8.97    0.47
  -3   5   8    8.74    0.50
  -2   5   8    3.68    0.32
  -2   5   8    4.00    0.30
  -1   5   8    4.00    0.32
  -1   5   8    4.26    0.33
   0   5   8   10.88    0.57
  -1  -5  -8    0.83    0.29
   1   5   8    0.66    0.21
   2   9  -9    0.87    0.20
   2   9  -9    0.60    0.23
   1   9  -9   -0.01    0.16
   1   9  -9   -0.23    0.21
   0   9  -9    0.07    0.15
   0   9  -9   -0.01    0.22
  -1   9  -9    2.67    0.20
  -1   9  -9    2.39    0.30
  -2   9  -9    0.83    0.24
  -2   9  -9    1.11    0.14
   4   8  -9   -0.10    0.19
   4   8  -9    0.08    0.19
   3   8  -9   -0.02    0.16
   3   8  -9   -0.02    0.18
   2   8  -9    0.66    0.18
   1   8  -9    2.23    0.20
   0   8  -9    0.08    0.13
  -1   8  -9    1.06    0.14
  -1   8  -9    0.82    0.22
  -2   8  -9    0.04    0.20
  -2   8  -9   -0.01    0.14
  -2   8  -9    0.19    0.10
  -3   8  -9    0.22    0.17
  -3   8  -9    0.20    0.18
   5   7  -9    1.46    0.23
   4   7  -9    0.05    0.17
   3   7  -9    0.64    0.17
   2   7  -9   -0.12    0.15
   1   7  -9    1.68    0.17
   0   7  -9    1.51    0.15
  -1   7  -9    0.10    0.11
  -1   7  -9   -0.19    0.12
  -2   7  -9   -0.11    0.14
  -2   7  -9   -0.04    0.09
  -3   7  -9    1.25    0.19
  -4   7  -9    0.14    0.18
  -4   7  -9    0.03    0.17
   6   6  -9    0.67    0.22
   5   6  -9    3.77    0.30
   4   6  -9    1.81    0.21
   3   6  -9    0.39    0.15
   2   6  -9    6.23    0.34
   1   6  -9    2.41    0.20
   0   6  -9    6.93    0.34
  -1   6  -9    1.10    0.15
  -1   6  -9    1.06    0.13
  -2   6  -9    1.97    0.20
  -2   6  -9    2.13    0.16
  -3   6  -9    0.73    0.11
  -3   6  -9    0.62    0.17
  -4   6  -9    0.04    0.11
  -4   6  -9    0.02    0.18
  -5   6  -9    0.66    0.22
  -5   6  -9    0.81    0.14
   7   5  -9   -0.07    0.23
   6   5  -9    0.50    0.20
   5   5  -9    1.04    0.19
   4   5  -9    6.86    0.39
   3   5  -9    0.52    0.16
   2   5  -9    8.38    0.41
  -2  -5   9    8.10    0.49
   1   5  -9    0.82    0.13
  -1  -5   9    1.14    0.17
   0   5  -9    0.19    0.11
   0  -5   9    0.35    0.14
  -1   5  -9    9.41    0.43
  -1   5  -9    9.08    0.57
   1  -5   9    9.53    0.56
  -2   5  -9    0.38    0.18
  -2   5  -9    0.41    0.15
  -2   5  -9    0.36    0.11
  -3   5  -9    6.74    0.32
  -3   5  -9    5.95    0.39
  -4   5  -9    0.04    0.12
  -4   5  -9   -0.02    0.16
  -5   5  -9    0.47    0.15
  -5   5  -9    0.30    0.19
   7   4  -9    1.63    0.24
   6   4  -9    2.81    0.27
   5   4  -9    1.05    0.18
   5   4  -9    0.98    0.20
   4   4  -9    2.42    0.22
   4   4  -9    2.90    0.25
  -4  -4   9    2.74    0.27
   3   4  -9    0.79    0.16
   3   4  -9    1.02    0.15
  -3  -4   9    0.94    0.15
   2   4  -9    0.07    0.12
   2   4  -9    0.24    0.14
  -2  -4   9    0.30    0.12
   1   4  -9    3.14    0.22
   1   4  -9    3.38    0.28
  -1  -4   9    3.41    0.26
   0   4  -9    5.59    0.37
   0   4  -9    5.37    0.30
   0  -4   9    6.56    0.38
   0  -4   9    5.67    0.38
  -1   4  -9    5.31    0.38
  -1   4  -9    5.62    0.29
  -2   4  -9    2.91    0.21
  -2   4  -9    2.84    0.28
  -3   4  -9    0.17    0.17
  -3   4  -9    0.28    0.13
  -4   4  -9    0.00    0.18
  -4   4  -9    0.02    0.14
  -5   4  -9    0.32    0.17
  -5   4  -9    0.61    0.21
   7   3  -9    1.62    0.25
   6   3  -9    3.33    0.27
   5   3  -9   13.06    0.68
   5   3  -9   12.97    0.61
   4   3  -9    1.09    0.17
   4   3  -9    0.78    0.16
  -4  -3   9    0.87    0.14
   3   3  -9   23.45    1.21
   3   3  -9   24.37    1.05
  -3  -3   9   25.66    1.28
   2   3  -9    0.14    0.13
   2   3  -9    0.28    0.13
  -2  -3   9    0.24    0.14
  -2  -3   9    0.24    0.11
   1   3  -9    8.17    0.49
   1   3  -9    8.82    0.42
  -1  -3   9    9.01    0.50
  -1  -3   9    8.44    0.50
   0   3  -9    7.15    0.37
   0  -3   9    7.29    0.45
   0  -3   9    7.97    0.45
  -1   3  -9    5.34    0.37
  -1   3  -9    5.77    0.30
   1  -3   9    5.81    0.39
  -2   3  -9   13.55    0.60
  -2   3  -9   13.23    0.75
  -3   3  -9    3.28    0.29
  -3   3  -9    3.40    0.26
  -4   3  -9    9.50    0.59
  -4   3  -9    9.67    0.48
  -5   3  -9    0.36    0.20
   7   2  -9    0.74    0.21
  -7  -2   9    0.84    0.18
   6   2  -9    0.66    0.20
  -6  -2   9    0.56    0.15
   5   2  -9    8.05    0.42
  -5  -2   9    7.61    0.38
   4   2  -9    0.00    0.14
  -4  -2   9    0.02    0.11
   3   2  -9    4.94    0.31
  -3  -2   9    4.90    0.34
  -3  -2   9    5.59    0.33
  -3  -2   9    5.31    0.27
   2   2  -9   28.02    1.16
  -2  -2   9   27.06    1.14
  -2  -2   9   26.64    1.35
  -2  -2   9   28.38    1.42
   1   2  -9    0.03    0.13
  -1  -2   9    0.03    0.13
  -1  -2   9   -0.05    0.09
   0   2  -9    6.88    0.36
   0  -2   9    7.43    0.41
   0  -2   9    6.53    0.43
  -1   2  -9    0.86    0.13
  -1   2  -9    0.89    0.16
   1  -2   9    0.72    0.17
  -2   2  -9    0.50    0.13
  -2   2  -9    0.42    0.15
  -3   2  -9    2.28    0.22
  -4   2  -9    3.29    0.27
  -5   2  -9    3.65    0.30
  -8  -1   9   -0.02    0.18
   7   1  -9    6.52    0.40
  -7  -1   9    5.87    0.35
   6   1  -9    4.89    0.33
  -6  -1   9    4.12    0.28
   5   1  -9    0.91    0.18
  -5  -1   9    0.79    0.15
   4   1  -9   14.41    0.67
  -4  -1   9   15.50    0.65
  -4  -1   9   14.30    0.76
   3   1  -9    0.09    0.15
  -3  -1   9    0.23    0.10
  -3  -1   9    0.07    0.10
  -3  -1   9    0.11    0.13
   2   1  -9   30.83    1.34
  -2  -1   9   31.30    1.31
  -2  -1   9   33.26    1.62
  -2  -1   9   31.19    1.55
   1   1  -9    1.82    0.19
  -1  -1   9    1.91    0.21
  -1  -1   9    2.19    0.17
   0   1  -9    2.20    0.20
   0  -1   9    2.06    0.22
  -1   1  -9    2.16    0.21
  -2   1  -9    1.56    0.20
  -3   1  -9    2.39    0.25
  -4   1  -9    1.45    0.24
  -5   1  -9    0.21    0.23
  -7   0   9    2.25    0.22
   6   0  -9   12.31    0.59
  -6   0   9   12.00    0.57
   5   0  -9    1.75    0.21
  -5   0   9    2.26    0.21
  -5   0   9    1.76    0.19
   4   0  -9   15.49    0.72
  -4   0   9   15.67    0.81
  -4   0   9   16.17    0.69
   3   0  -9    5.83    0.35
  -3   0   9    6.36    0.36
  -3   0   9    6.16    0.32
  -3   0   9    5.85    0.40
   2   0  -9    4.66    0.30
  -2   0   9    4.90    0.27
  -2   0   9    4.74    0.35
  -2   0   9    4.94    0.28
   1   0  -9   23.31    1.06
  -1   0   9   26.31    1.22
  -1   0   9   24.07    1.03
   0   0  -9    2.27    0.22
  -1   0  -9   25.85    1.12
  -2   0  -9    2.54    0.26
  -3   0  -9    1.25    0.24
  -4   0  -9    0.72    0.23
  -7   1   9   -0.05    0.17
  -6   1   9   10.34    0.51
   5  -1  -9    7.74    0.44
  -5   1   9    7.96    0.41
   4  -1  -9    2.95    0.26
  -4   1   9    3.22    0.25
  -4   1   9    3.06    0.28
   3  -1  -9   12.39    0.61
  -3   1   9   13.66    0.69
  -3   1   9   12.63    0.58
  -3   1   9   12.26    0.63
   2  -1  -9    3.65    0.29
  -2   1   9    3.76    0.30
  -2   1   9    3.80    0.25
  -2   1   9    4.40    0.32
   1  -1  -9    3.44    0.28
  -1   1   9    3.60    0.26
  -1   1   9    3.06    0.22
   0  -1  -9    9.85    0.54
   0   1   9   11.30    0.53
  -1  -1  -9    0.02    0.21
   1   1   9   -0.07    0.13
  -2  -1  -9    5.91    0.42
   2   1   9    6.72    0.38
  -3  -1  -9    0.20    0.24
   3   1   9    0.16    0.16
  -4  -1  -9    2.53    0.33
  -7   2   9    6.41    0.40
  -6   2   9    0.20    0.18
   5  -2  -9   11.26    0.58
  -5   2   9   11.69    0.55
   4  -2  -9    1.33    0.22
  -4   2   9    1.54    0.19
  -4   2   9    1.75    0.22
  -4   2   9    1.70    0.22
   3  -2  -9    2.15    0.25
  -3   2   9    2.47    0.24
  -3   2   9    2.13    0.20
  -3   2   9    2.18    0.23
   2  -2  -9    7.24    0.43
  -2   2   9    6.99    0.38
  -2   2   9    7.34    0.38
  -2   2   9    7.47    0.41
   1  -2  -9    0.44    0.21
  -1   2   9    0.40    0.14
  -1   2   9    0.20    0.16
   0  -2  -9    9.62    0.55
   0   2   9   10.75    0.53
  -1  -2  -9    3.68    0.34
   1   2   9    3.95    0.29
  -2  -2  -9    1.22    0.27
   2   2   9    1.03    0.18
  -3  -2  -9    1.62    0.31
   3   2   9    1.63    0.21
  -6   3   9    1.98    0.23
  -6   3   9    2.34    0.27
  -5   3   9    5.19    0.37
  -5   3   9    3.75    0.32
  -4   3   9   15.66    0.73
  -4   3   9   16.57    0.78
   3  -3  -9   -0.04    0.22
  -3   3   9    0.02    0.17
  -3   3   9    0.15    0.16
   2  -3  -9   22.60    1.02
  -2   3   9   21.63    1.02
  -2   3   9   22.05    0.98
  -2   3   9   23.52    0.98
   1  -3  -9    0.71    0.25
  -1   3   9    0.85    0.19
   0  -3  -9    5.38    0.44
   0   3   9    5.69    0.37
  -1  -3  -9    3.96    0.37
   1   3   9    4.22    0.31
  -2  -3  -9    2.38    0.34
   2   3   9    2.07    0.23
  -5   4   9    1.32    0.24
  -5   4   9    1.11    0.22
  -4   4   9    7.87    0.45
  -4   4   9    6.45    0.40
  -3   4   9   10.16    0.51
  -3   4   9   10.63    0.57
  -2   4   9    1.14    0.20
  -2   4   9    1.16    0.20
   1  -4  -9    1.57    0.30
  -1   4   9    1.53    0.22
   0  -4  -9    0.60    0.28
   0   4   9    0.67    0.20
  -1  -4  -9    2.40    0.34
   1   4   9    2.02    0.24
   3   8 -10    0.22    0.19
   2   8 -10    0.42    0.17
   1   8 -10    0.51    0.16
   0   8 -10    0.16    0.14
  -1   8 -10    1.40    0.16
  -2   8 -10    0.48    0.13
   5   7 -10    0.56    0.21
   4   7 -10    1.28    0.21
   3   7 -10    4.23    0.31
   2   7 -10    6.84    0.38
   1   7 -10    0.10    0.15
   0   7 -10    0.89    0.15
  -1   7 -10    1.02    0.17
  -1   7 -10    1.28    0.15
  -2   7 -10    0.02    0.16
  -2   7 -10    0.21    0.12
  -3   7 -10   -0.17    0.16
  -3   7 -10    0.03    0.12
   6   6 -10   -0.07    0.21
   5   6 -10   -0.19    0.20
   4   6 -10    0.78    0.20
   3   6 -10    0.14    0.17
   2   6 -10   16.92    0.76
   1   6 -10    4.19    0.27
   0   6 -10    2.31    0.19
  -1   6 -10    1.03    0.14
  -2   6 -10    2.16    0.23
  -2   6 -10    3.11    0.21
  -3   6 -10    0.17    0.14
  -3   6 -10   -0.03    0.16
  -4   6 -10    0.11    0.17
  -4   6 -10   -0.07    0.14
   6   5 -10    0.12    0.21
   5   5 -10    3.96    0.31
   4   5 -10    1.54    0.21
   3   5 -10    2.81    0.23
   2   5 -10    0.88    0.16
   1   5 -10   -0.09    0.13
  -1  -5  10   -0.02    0.13
   0   5 -10    7.89    0.40
   0  -5  10    8.11    0.49
  -1   5 -10    0.26    0.14
  -1   5 -10    0.47    0.18
  -2   5 -10    0.16    0.14
  -3   5 -10    1.43    0.17
  -4   5 -10    0.45    0.19
  -4   5 -10    0.42    0.16
   7   4 -10    0.11    0.24
   6   4 -10    0.21    0.21
   5   4 -10    0.91    0.19
   4   4 -10    0.69    0.18
   3   4 -10    1.68    0.19
  -3  -4  10    1.78    0.20
   2   4 -10    1.47    0.17
  -2  -4  10    1.52    0.18
   1   4 -10   16.53    0.74
  -1  -4  10   17.20    0.91
   0   4 -10    1.58    0.17
   0  -4  10    1.56    0.19
  -1   4 -10    1.11    0.16
  -1   4 -10    0.76    0.17
  -2   4 -10    3.07    0.30
  -2   4 -10    3.10    0.25
  -3   4 -10    5.59    0.32
  -3   4 -10    5.12    0.39
  -4   4 -10    0.24    0.17
   7   3 -10    0.57    0.24
   6   3 -10    4.31    0.33
   5   3 -10    5.49    0.37
   5   3 -10    5.60    0.36
   4   3 -10    6.43    0.38
   4   3 -10    6.61    0.41
  -4  -3  10    6.70    0.43
   3   3 -10    0.81    0.17
   3   3 -10    0.70    0.17
  -3  -3  10    0.84    0.15
   2   3 -10    1.78    0.19
  -2  -3  10    1.93    0.18
  -2  -3  10    1.67    0.22
   1   3 -10    3.80    0.26
  -1  -3  10    4.04    0.28
   0   3 -10   15.99    0.74
   0  -3  10   17.78    0.91
  -1   3 -10    0.08    0.14
  -1   3 -10    0.05    0.13
  -2   3 -10    1.39    0.18
  -3   3 -10    3.16    0.25
  -4   3 -10    4.81    0.35
   7   2 -10    1.95    0.26
   6   2 -10    1.92    0.24
   5   2 -10    2.73    0.25
   4   2 -10    3.44    0.27
  -4  -2  10    3.09    0.26
   3   2 -10    7.12    0.39
  -3  -2  10    7.11    0.45
  -3  -2  10    7.02    0.42
   2   2 -10    3.15    0.25
  -2  -2  10    3.29    0.31
  -2  -2  10    3.47    0.24
   1   2 -10    4.86    0.30
  -1  -2  10    5.03    0.32
   0   2 -10    7.71    0.41
  -1   2 -10    0.11    0.16
  -2   2 -10    6.76    0.38
  -3   2 -10    0.09    0.20
  -4   2 -10    0.32    0.23
   6   1 -10    0.74    0.22
   5   1 -10    3.72    0.29
   4   1 -10   12.70    0.63
  -4  -1  10   12.98    0.71
  -4  -1  10   13.93    0.72
  -3  -1  10    2.45    0.26
  -3  -1  10    2.66    0.22
   2   1 -10    5.35    0.33
  -2  -1  10    5.58    0.38
   1   1 -10    2.65    0.23
   0   1 -10    1.01    0.19
  -1   1 -10    0.98    0.20
  -2   1 -10    0.56    0.20
  -3   1 -10    0.84    0.23
  -4   1 -10    1.46    0.28
  -7   0  10    0.10    0.18
   6   0 -10    4.03    0.33
  -6   0  10    4.02    0.30
   5   0 -10    0.06    0.19
  -5   0  10    0.05    0.14
   4   0 -10    1.80    0.23
  -4   0  10    1.65    0.18
  -4   0  10    1.59    0.22
   3   0 -10   40.53    1.75
  -3   0  10   42.81    2.02
   2   0 -10    7.29    0.43
   1   0 -10   11.67    0.57
   0   0 -10    0.06    0.18
  -1   0 -10    3.01    0.28
  -2   0 -10    0.28    0.23
  -3   0 -10    0.26    0.24
  -6   1  10    6.21    0.37
   5  -1 -10    5.50    0.38
  -5   1  10    5.68    0.34
   4  -1 -10   11.73    0.61
  -4   1  10   12.68    0.69
  -4   1  10   12.69    0.58
   3  -1 -10    1.02    0.21
   2  -1 -10    0.07    0.19
   1  -1 -10    3.84    0.32
  -1   1  10    4.70    0.31
   0  -1 -10    0.93    0.23
   0   1  10    0.97    0.19
  -1  -1 -10    0.72    0.25
   1   1  10    0.71    0.19
  -2  -1 -10    8.27    0.50
  -3  -1 -10    0.43    0.27
  -6   2  10    0.31    0.19
  -5   2  10    9.51    0.50
   4  -2 -10    2.22    0.27
  -4   2  10    2.19    0.22
  -4   2  10    2.01    0.25
   3  -2 -10    3.08    0.29
  -3   2  10    2.50    0.26
   2  -2 -10    9.95    0.54
  -2   2  10    9.43    0.51
   1  -2 -10    0.66    0.25
  -1   2  10    1.05    0.20
   0  -2 -10    8.15    0.50
   0   2  10    8.22    0.47
  -1  -2 -10    0.26    0.28
   1   2  10    0.24    0.17
  -2  -2 -10    0.82    0.28
   2   2  10    1.40    0.22
  -4   3  10    6.86    0.40
  -4   3  10    6.75    0.43
   3  -3 -10    0.70    0.26
  -3   3  10    0.98    0.23
   2  -3 -10    0.55    0.27
  -2   3  10    0.31    0.20
   1  -3 -10    9.54    0.56
  -1   3  10    8.84    0.52
   0  -3 -10    0.60    0.28
   0   3  10    0.76    0.20
   2   8 -11   -0.09    0.19
   1   8 -11    0.46    0.18
   0   8 -11    0.15    0.16
   4   7 -11    0.27    0.20
   3   7 -11    5.84    0.37
   2   7 -11    0.88    0.19
   1   7 -11    0.61    0.17
   0   7 -11   -0.05    0.15
  -1   7 -11    1.45    0.17
  -2   7 -11    0.73    0.16
   5   6 -11    0.42    0.21
   4   6 -11    0.44    0.20
   3   6 -11    0.07    0.18
   2   6 -11    1.59    0.20
   1   6 -11   -0.09    0.14
   0   6 -11    1.99    0.20
  -1   6 -11    2.01    0.19
  -2   6 -11    4.57    0.30
  -3   6 -11    0.08    0.16
   5   5 -11    0.31    0.20
   4   5 -11    1.15    0.22
   3   5 -11    0.05    0.17
   2   5 -11    4.51    0.30
   1   5 -11    0.30    0.15
   0   5 -11    1.38    0.18
  -1   5 -11    1.33    0.18
  -2   5 -11   -0.07    0.16
  -3   5 -11    0.60    0.18
   6   4 -11    2.98    0.29
   5   4 -11    0.67    0.21
   4   4 -11    7.41    0.42
   3   4 -11   -0.07    0.17
  -3  -4  11    0.04    0.14
   2   4 -11    3.56    0.28
  -2  -4  11    3.98    0.31
   1   4 -11    3.92    0.28
  -1  -4  11    3.93    0.31
   0   4 -11    5.02    0.32
   0  -4  11    5.49    0.37
  -1   4 -11    1.67    0.20
  -2   4 -11    0.12    0.17
  -3   4 -11    2.22    0.23
   6   3 -11   -0.16    0.21
   5   3 -11    0.73    0.22
   4   3 -11    1.47    0.22
  -4  -3  11    1.38    0.19
   3   3 -11    2.30    0.23
  -3  -3  11    2.50    0.23
   2   3 -11    0.17    0.16
  -2  -3  11    0.24    0.13
   1   3 -11    5.85    0.35
  -1  -3  11    5.64    0.37
   0   3 -11    1.81    0.21
  -1   3 -11   -0.02    0.17
  -2   3 -11    1.11    0.21
  -3   3 -11    1.79    0.24
   6   2 -11    3.58    0.32
   5   2 -11    4.24    0.33
   4   2 -11   -0.07    0.19
   3   2 -11    6.32    0.38
   2   2 -11    0.21    0.17
   1   2 -11    1.43    0.20
   0   2 -11    1.72    0.22
  -1   2 -11    0.23    0.19
  -2   2 -11    0.89    0.22
  -3   2 -11    0.17    0.22
   6   1 -11    0.26    0.22
   5   1 -11    2.78    0.28
   4   1 -11    6.83    0.40
   3   1 -11    3.05    0.27
   2   1 -11    3.04    0.26
   1   1 -11    0.45    0.20
   0   1 -11    9.72    0.52
  -1   1 -11    4.03    0.32
  -2   1 -11    4.24    0.34
  -3   1 -11    0.49    0.24
   6   0 -11    0.43    0.22
   5   0 -11    0.74    0.23
   4   0 -11    0.77    0.22
   3   0 -11    5.38    0.37
   2   0 -11    0.76    0.21
   1   0 -11    2.49    0.26
   0   0 -11    1.62    0.26
  -1   0 -11    2.53    0.29
  -2   0 -11    1.11    0.27
   5  -1 -11    1.75    0.27
   4  -1 -11    3.25    0.31
   3  -1 -11    2.67    0.29
   2  -1 -11    0.09    0.22
   1  -1 -11    4.57    0.37
   0  -1 -11    0.11    0.24
  -1  -1 -11    0.43    0.26
   3  -2 -11    4.58    0.38
  -3   2  11    5.72    0.41
   2  -2 -11    2.27    0.30
  -2   2  11    2.11    0.25
   1  -2 -11    3.95    0.35
  -1   2  11    3.13    0.29
   0  -2 -11    0.50    0.28
   0   2  11    0.52    0.20
   2   7 -12   -0.06    0.18
   1   7 -12    4.36    0.31
   0   7 -12    0.45    0.18
   4   6 -12   -0.15    0.21
   3   6 -12   -0.09    0.19
   2   6 -12   -0.01    0.18
   1   6 -12    0.24    0.18
   0   6 -12    1.30    0.20
  -1   6 -12    0.26    0.18
   4   5 -12    0.20    0.20
   3   5 -12    0.02    0.19
   2   5 -12    0.55    0.19
   1   5 -12    0.18    0.18
   0   5 -12    0.39    0.19
  -1   5 -12    1.99    0.22
  -2   5 -12    0.16    0.19
   5   4 -12    0.65    0.22
   4   4 -12    4.43    0.34
   3   4 -12    0.04    0.18
   2   4 -12    0.86    0.20
   1   4 -12    0.45    0.19
   0   4 -12    0.90    0.20
  -1   4 -12    5.04    0.34
  -2   4 -12    0.22    0.20
   5   3 -12    0.85    0.23
   4   3 -12    0.39    0.20
   3   3 -12    4.47    0.34
   2   3 -12    0.61    0.19
   1   3 -12    1.74    0.23
   0   3 -12    0.93    0.21
  -1   3 -12    0.16    0.20
  -2   3 -12    0.78    0.22
   5   2 -12    2.02    0.27
   4   2 -12   -0.06    0.20
   3   2 -12    3.26    0.28
   2   2 -12    3.01    0.27
   1   2 -12    0.36    0.19
   0   2 -12    1.50    0.23
  -1   2 -12    0.13    0.20
   5   1 -12    2.31    0.28
   4   1 -12    1.29    0.25
   3   1 -12    0.37    0.21
   2   1 -12   12.24    0.62
   1   1 -12    0.41    0.22
   0   1 -12    1.35    0.26
  -1   1 -12    0.68    0.25
   4   0 -12    2.54    0.29
   3   0 -12    1.01    0.24
   2   0 -12    0.29    0.24
   1   0 -12    3.50    0.33
   0   0 -12    0.17    0.24
   2   4 -13    0.93    0.21
   1   4 -13    0.01    0.20
   3   3 -13    0.37    0.23
   2   3 -13    0.25    0.21
   1   3 -13    0.50    0.23
   2   2 -13    0.31    0.22
   0   0   0    0.00    0.00
;
_shelx_hkl_checksum              34589
loop_
_space_group_symop_operation_xyz
'x, y, z'
'-x, -y, -z'
loop_
_atom_site_label
_atom_site_type_symbol
_atom_site_fract_x
_atom_site_fract_y
_atom_site_fract_z
_atom_site_U_iso_or_equiv
_atom_site_adp_type
_atom_site_occupancy
_atom_site_site_symmetry_order
_atom_site_calc_flag
_atom_site_refinement_flags_posn
_atom_site_refinement_flags_adp
Br1 Br 0.69628(3) 0.86797(3) 0.52325(3) 0.05886(12) Uani 1 1 d . .
O2 O 1.1379(2) 0.6591(2) 0.14980(17) 0.0556(4) Uani 1 1 d . .
C8 C 0.5233(3) 0.0048(3) 0.1773(3) 0.0593(7) Uani 1 1 d . .
H8A H 0.4573 -0.0416 0.0878 0.071 Uiso 1 1 calc R U
H8B H 0.4557 -0.0191 0.2354 0.071 Uiso 1 1 calc R U
O1 O 0.5660(2) 0.1804(2) 0.21395(18) 0.0548(4) Uani 1 1 d . .
C14 C 1.3783(3) 0.5085(3) 0.1322(2) 0.0492(6) Uani 1 1 d . .
H14A H 1.4834 0.5804 0.1819 0.059 Uiso 1 1 calc R U
H14B H 1.4061 0.4105 0.0683 0.059 Uiso 1 1 calc R U
C13 C 1.2764(3) 0.4627(3) 0.2230(2) 0.0395(5) Uani 1 1 d . .
H13 H 1.3526 0.4513 0.2986 0.047 Uiso 1 1 calc R U
C12 C 1.1525(3) 0.3069(3) 0.1482(2) 0.0395(5) Uani 1 1 d . .
H12A H 1.0923 0.3145 0.0664 0.047 Uiso 1 1 calc R U
H12B H 1.2159 0.2123 0.1267 0.047 Uiso 1 1 calc R U
N1 N 1.0285(2) 0.2813(2) 0.22421(16) 0.0357(4) Uani 1 1 d . .
C11 C 0.9247(3) 0.1208(2) 0.1656(2) 0.0410(5) Uani 1 1 d . .
H11A H 0.9981 0.0358 0.1376 0.049 Uiso 1 1 calc R U
H11B H 0.8439 0.1188 0.0883 0.049 Uiso 1 1 calc R U
C10 C 0.8273(3) 0.0821(2) 0.2605(2) 0.0385(5) Uani 1 1 d . .
H10 H 0.9057 0.0649 0.3326 0.046 Uiso 1 1 calc R U
C7 C 0.7214(3) 0.2199(2) 0.3128(2) 0.0380(5) Uani 1 1 d . .
H7 H 0.6936 0.2160 0.3949 0.046 Uiso 1 1 calc R U
C15 C 1.2561(3) 0.5983(3) 0.0658(2) 0.0542(6) Uani 1 1 d . .
H15A H 1.3190 0.6896 0.0535 0.065 Uiso 1 1 calc R U
H15B H 1.1949 0.5230 -0.0196 0.065 Uiso 1 1 calc R U
C16 C 1.1804(3) 0.6118(3) 0.2652(2) 0.0389(5) Uani 1 1 d . .
H16 H 1.2570 0.7024 0.3355 0.047 Uiso 1 1 calc R U
C9 C 0.6903(3) -0.0694(3) 0.1881(2) 0.0485(6) Uani 1 1 d . .
H9A H 0.7108 -0.1305 0.1017 0.058 Uiso 1 1 calc R U
H9B H 0.6892 -0.1430 0.2380 0.058 Uiso 1 1 calc R U
C6 C 0.8019(2) 0.3909(2) 0.33558(19) 0.0330(4) Uani 1 1 d . .
C1 C 0.9502(2) 0.4153(2) 0.28769(18) 0.0308(4) Uani 1 1 d . .
C2 C 1.0203(2) 0.5792(2) 0.31138(19) 0.0325(4) Uani 1 1 d . .
C3 C 0.9447(3) 0.7114(2) 0.3814(2) 0.0372(5) Uani 1 1 d . .
H3 H 0.9918 0.8192 0.3971 0.045 Uiso 1 1 calc R U
C4 C 0.8005(3) 0.6850(3) 0.4279(2) 0.0379(5) Uani 1 1 d . .
C5 C 0.7308(3) 0.5263(3) 0.40618(19) 0.0371(5) Uani 1 1 d . .
H5 H 0.6346 0.5096 0.4393 0.045 Uiso 1 1 calc R U
loop_
_atom_site_aniso_label
_atom_site_aniso_U_11
_atom_site_aniso_U_22
_atom_site_aniso_U_33
_atom_site_aniso_U_23
_atom_site_aniso_U_13
_atom_site_aniso_U_12
Br1 0.06257(19) 0.04440(16) 0.06422(19) 0.00280(12) 0.02684(13) 0.02093(12)
O2 0.0604(11) 0.0620(11) 0.0607(11) 0.0350(9) 0.0244(9) 0.0169(8)
C8 0.0530(15) 0.0431(13) 0.0685(17) 0.0072(12) 0.0085(13) -0.0107(11)
O1 0.0369(9) 0.0413(9) 0.0745(12) 0.0126(8) -0.0009(8) -0.0029(7)
C14 0.0400(13) 0.0530(14) 0.0508(14) 0.0112(11) 0.0169(11) -0.0050(10)
C13 0.0316(11) 0.0474(12) 0.0373(11) 0.0119(9) 0.0081(9) 0.0031(9)
C12 0.0407(12) 0.0359(11) 0.0426(12) 0.0092(9) 0.0187(10) 0.0078(9)
N1 0.0379(9) 0.0294(8) 0.0386(9) 0.0066(7) 0.0153(8) 0.0042(7)
C11 0.0457(13) 0.0302(10) 0.0421(12) 0.0036(9) 0.0145(10) 0.0039(9)
C10 0.0444(12) 0.0325(10) 0.0369(11) 0.0114(9) 0.0068(9) 0.0016(9)
C7 0.0409(12) 0.0372(11) 0.0344(11) 0.0096(9) 0.0113(9) -0.0001(9)
C15 0.0584(15) 0.0575(15) 0.0494(14) 0.0201(12) 0.0197(12) -0.0056(12)
C16 0.0364(11) 0.0361(11) 0.0370(11) 0.0055(9) 0.0061(9) -0.0032(9)
C9 0.0575(15) 0.0344(11) 0.0490(14) 0.0086(10) 0.0148(11) -0.0049(10)
C6 0.0334(11) 0.0335(10) 0.0287(10) 0.0067(8) 0.0063(8) 0.0033(8)
C1 0.0319(10) 0.0313(10) 0.0260(10) 0.0065(8) 0.0042(8) 0.0052(8)
C2 0.0325(10) 0.0329(10) 0.0282(10) 0.0068(8) 0.0043(8) 0.0025(8)
C3 0.0406(12) 0.0302(10) 0.0350(11) 0.0057(8) 0.0045(9) 0.0030(9)
C4 0.0404(12) 0.0342(10) 0.0333(11) 0.0035(8) 0.0077(9) 0.0110(9)
C5 0.0326(11) 0.0434(12) 0.0317(11) 0.0073(9) 0.0084(9) 0.0060(9)
loop_
_atom_type_symbol
_atom_type_description
_atom_type_scat_dispersion_real
_atom_type_scat_dispersion_imag
_atom_type_scat_source
C C 0.0033 0.0016 'International Tables Vol C Tables 4.2.6.8 and 6.1.1.4'
H H 0.0000 0.0000 'International Tables Vol C Tables 4.2.6.8 and 6.1.1.4'
N N 0.0061 0.0033 'International Tables Vol C Tables 4.2.6.8 and 6.1.1.4'
O O 0.0106 0.0060 'International Tables Vol C Tables 4.2.6.8 and 6.1.1.4'
Br Br -0.2901 2.4595 'International Tables Vol C Tables 4.2.6.8 and 6.1.1.4'
loop_
_geom_angle_atom_site_label_1
_geom_angle_atom_site_label_2
_geom_angle_atom_site_label_3
_geom_angle
C15 O2 C16 108.64(17)
O1 C8 C9 107.35(18)
O1 C8 H8A 110.2
C9 C8 H8A 110.2
O1 C8 H8B 110.2
C9 C8 H8B 110.2
H8A C8 H8B 108.5
C8 O1 C7 104.37(17)
C15 C14 C13 102.90(18)
C15 C14 H14A 111.2
C13 C14 H14A 111.2
C15 C14 H14B 111.2
C13 C14 H14B 111.2
H14A C14 H14B 109.1
C12 C13 C16 110.60(17)
C12 C13 C14 110.87(18)
C16 C13 C14 101.38(18)
C12 C13 H13 111.2
C16 C13 H13 111.2
C14 C13 H13 111.2
N1 C12 C13 111.70(17)
N1 C12 H12A 109.3
C13 C12 H12A 109.3
N1 C12 H12B 109.3
C13 C12 H12B 109.3
H12A C12 H12B 107.9
C1 N1 C11 117.47(16)
C1 N1 C12 118.15(16)
C11 N1 C12 113.55(16)
N1 C11 C10 112.12(17)
N1 C11 H11A 109.2
C10 C11 H11A 109.2
N1 C11 H11B 109.2
C10 C11 H11B 109.2
H11A C11 H11B 107.9
C7 C10 C11 109.92(17)
C7 C10 C9 102.76(18)
C11 C10 C9 110.84(18)
C7 C10 H10 111.0
C11 C10 H10 111.0
C9 C10 H10 111.0
O1 C7 C6 109.30(17)
O1 C7 C10 104.62(16)
C6 C7 C10 115.43(17)
O1 C7 H7 109.1
C6 C7 H7 109.1
C10 C7 H7 109.1
O2 C15 C14 107.34(19)
O2 C15 H15A 110.2
C14 C15 H15A 110.2
O2 C15 H15B 110.2
C14 C15 H15B 110.2
H15A C15 H15B 108.5
O2 C16 C2 109.96(17)
O2 C16 C13 105.22(17)
C2 C16 C13 114.30(17)
O2 C16 H16 109.1
C2 C16 H16 109.1
C13 C16 H16 109.1
C8 C9 C10 104.06(18)
C8 C9 H9A 110.9
C10 C9 H9A 110.9
C8 C9 H9B 110.9
C10 C9 H9B 110.9
H9A C9 H9B 109.0
C5 C6 C1 119.90(18)
C5 C6 C7 119.37(18)
C1 C6 C7 120.73(17)
N1 C1 C6 120.40(17)
N1 C1 C2 121.16(17)
C6 C1 C2 118.39(17)
C3 C2 C1 120.04(18)
C3 C2 C16 119.50(18)
C1 C2 C16 120.42(17)
C4 C3 C2 120.66(19)
C4 C3 H3 119.7
C2 C3 H3 119.7
C5 C4 C3 120.12(19)
C5 C4 Br1 119.49(16)
C3 C4 Br1 120.39(16)
C4 C5 C6 120.88(19)
C4 C5 H5 119.6
C6 C5 H5 119.6
loop_
_geom_bond_atom_site_label_1
_geom_bond_atom_site_label_2
_geom_bond_distance
Br1 C4 1.909(2)
O2 C15 1.436(3)
O2 C16 1.454(3)
C8 O1 1.435(3)
C8 C9 1.517(4)
C8 H8A 0.9700
C8 H8B 0.9700
O1 C7 1.440(3)
C14 C15 1.520(4)
C14 C13 1.527(3)
C14 H14A 0.9700
C14 H14B 0.9700
C13 C12 1.513(3)
C13 C16 1.517(3)
C13 H13 0.9800
C12 N1 1.456(3)
C12 H12A 0.9700
C12 H12B 0.9700
N1 C1 1.384(2)
N1 C11 1.451(3)
C11 C10 1.516(3)
C11 H11A 0.9700
C11 H11B 0.9700
C10 C7 1.515(3)
C10 C9 1.541(3)
C10 H10 0.9800
C7 C6 1.496(3)
C7 H7 0.9800
C15 H15A 0.9700
C15 H15B 0.9700
C16 C2 1.502(3)
C16 H16 0.9800
C9 H9A 0.9700
C9 H9B 0.9700
C6 C5 1.386(3)
C6 C1 1.411(3)
C1 C2 1.412(3)
C2 C3 1.386(3)
C3 C4 1.376(3)
C3 H3 0.9300
C4 C5 1.374(3)
C5 H5 0.9300
loop_
_geom_torsion_atom_site_label_1
_geom_torsion_atom_site_label_2
_geom_torsion_atom_site_label_3
_geom_torsion_atom_site_label_4
_geom_torsion
C9 C8 O1 C7 -33.2(3)
C15 C14 C13 C12 81.9(2)
C15 C14 C13 C16 -35.6(2)
C16 C13 C12 N1 -55.6(2)
C14 C13 C12 N1 -167.24(18)
C13 C12 N1 C1 45.8(3)
C13 C12 N1 C11 -170.74(18)
C1 N1 C11 C10 -49.5(3)
C12 N1 C11 C10 166.74(18)
N1 C11 C10 C7 54.9(2)
N1 C11 C10 C9 167.83(18)
C8 O1 C7 C6 166.40(18)
C8 O1 C7 C10 42.2(2)
C11 C10 C7 O1 83.9(2)
C9 C10 C7 O1 -34.2(2)
C11 C10 C7 C6 -36.3(2)
C9 C10 C7 C6 -154.30(18)
C16 O2 C15 C14 0.0(2)
C13 C14 C15 O2 22.9(2)
C15 O2 C16 C2 -146.84(18)
C15 O2 C16 C13 -23.3(2)
C12 C13 C16 O2 -81.1(2)
C14 C13 C16 O2 36.5(2)
C12 C13 C16 C2 39.6(2)
C14 C13 C16 C2 157.28(18)
O1 C8 C9 C10 11.2(3)
C7 C10 C9 C8 13.7(2)
C11 C10 C9 C8 -103.7(2)
O1 C7 C6 C5 74.8(2)
C10 C7 C6 C5 -167.68(18)
O1 C7 C6 C1 -106.1(2)
C10 C7 C6 C1 11.4(3)
C11 N1 C1 C6 22.7(3)
C12 N1 C1 C6 164.76(18)
C11 N1 C1 C2 -160.21(19)
C12 N1 C1 C2 -18.1(3)
C5 C6 C1 N1 175.95(18)
C7 C6 C1 N1 -3.1(3)
C5 C6 C1 C2 -1.2(3)
C7 C6 C1 C2 179.67(18)
N1 C1 C2 C3 -176.49(18)
C6 C1 C2 C3 0.7(3)
N1 C1 C2 C16 1.4(3)
C6 C1 C2 C16 178.55(17)
O2 C16 C2 C3 -77.5(2)
C13 C16 C2 C3 164.47(18)
O2 C16 C2 C1 104.6(2)
C13 C16 C2 C1 -13.4(3)
C1 C2 C3 C4 -0.4(3)
C16 C2 C3 C4 -178.25(19)
C2 C3 C4 C5 0.6(3)
C2 C3 C4 Br1 -179.57(15)
C3 C4 C5 C6 -1.2(3)
Br1 C4 C5 C6 179.00(15)
C1 C6 C5 C4 1.5(3)
C7 C6 C5 C4 -179.39(19)
