#------------------------------------------------------------------------------
#$Date: 2019-11-11 18:58:34 +0200 (Mon, 11 Nov 2019) $
#$Revision: 226971 $
#$URL: file:///home/coder/svn-repositories/cod/cif/4/03/55/4035523.cif $
#------------------------------------------------------------------------------
#
# This file is available in the Crystallography Open Database (COD),
# http://www.crystallography.net/
#
# All data on this site have been placed in the public domain by the
# contributors.
#
data_4035523
loop_
_publ_author_name
'Liu, Peiye'
'Clark, Ronald J.'
'Zhu, Lei'
_publ_section_title
;
 Synthesis of 1-Cyanoalkynes and Their Ruthenium(II)-Catalyzed
 Cycloaddition with Organic Azides to Afford 4-Cyano-1,2,3-triazoles.
;
_journal_issue                   9
_journal_name_full               'The Journal of organic chemistry'
_journal_page_first              5092
_journal_page_last               5103
_journal_paper_doi               10.1021/acs.joc.8b00424
_journal_volume                  83
_journal_year                    2018
_chemical_formula_moiety         'C16 H12 N4'
_chemical_formula_sum            'C16 H12 N4'
_chemical_formula_weight         260.30
_space_group_crystal_system      triclinic
_space_group_IT_number           2
_space_group_name_Hall           '-P 1'
_space_group_name_H-M_alt        'P -1'
_atom_sites_solution_hydrogens   geom
_audit_creation_method           SHELXL-2014/7
_cell_angle_alpha                70.2601(7)
_cell_angle_beta                 80.8817(8)
_cell_angle_gamma                87.0438(8)
_cell_formula_units_Z            2
_cell_length_a                   7.1531(5)
_cell_length_b                   9.1337(6)
_cell_length_c                   11.3187(8)
_cell_measurement_reflns_used    4284
_cell_measurement_temperature    183(2)
_cell_measurement_theta_max      29.04
_cell_measurement_theta_min      2.37
_cell_volume                     687.25(8)
_computing_cell_refinement       'Bruker SAINT'
_computing_data_collection       'Bruker APEX2'
_computing_data_reduction        'Bruker SAINT'
_computing_molecular_graphics    'Bruker SHELXTL'
_computing_publication_material  'Bruker SHELXTL'
_computing_structure_refinement  'SHELXL-2014/7 (Sheldrick, 2014)'
_computing_structure_solution    'SHELXS-97 (Sheldrick 2008)'
_diffrn_ambient_temperature      183(2)
_diffrn_measured_fraction_theta_full 0.998
_diffrn_measured_fraction_theta_max 0.982
_diffrn_measurement_device_type  'Bruker APEX-II CCD'
_diffrn_measurement_method       '\f and \w scans'
_diffrn_radiation_type           MoK\a
_diffrn_radiation_wavelength     0.71073
_diffrn_reflns_av_R_equivalents  0.0200
_diffrn_reflns_av_unetI/netI     0.0214
_diffrn_reflns_Laue_measured_fraction_full 0.998
_diffrn_reflns_Laue_measured_fraction_max 0.982
_diffrn_reflns_limit_h_max       9
_diffrn_reflns_limit_h_min       -9
_diffrn_reflns_limit_k_max       12
_diffrn_reflns_limit_k_min       -12
_diffrn_reflns_limit_l_max       14
_diffrn_reflns_limit_l_min       -15
_diffrn_reflns_number            8446
_diffrn_reflns_point_group_measured_fraction_full 0.998
_diffrn_reflns_point_group_measured_fraction_max 0.982
_diffrn_reflns_theta_full        25.242
_diffrn_reflns_theta_max         28.282
_diffrn_reflns_theta_min         1.933
_exptl_absorpt_coefficient_mu    0.079
_exptl_absorpt_correction_T_max  0.7459
_exptl_absorpt_correction_T_min  0.7081
_exptl_absorpt_correction_type   empirical
_exptl_absorpt_process_details   SADABS
_exptl_crystal_colour            colorless
_exptl_crystal_density_diffrn    1.258
_exptl_crystal_description       irregular
_exptl_crystal_F_000             272
_exptl_crystal_size_max          0.331
_exptl_crystal_size_mid          0.304
_exptl_crystal_size_min          0.279
_refine_diff_density_max         0.247
_refine_diff_density_min         -0.188
_refine_diff_density_rms         0.046
_refine_ls_extinction_coef       0.037(5)
_refine_ls_extinction_expression Fc^*^=kFc[1+0.001xFc^2^\l^3^/sin(2\q)]^-1/4^
_refine_ls_extinction_method     'SHELXL-2014/7 (Sheldrick 2014'
_refine_ls_goodness_of_fit_ref   1.045
_refine_ls_hydrogen_treatment    constr
_refine_ls_matrix_type           full
_refine_ls_number_parameters     183
_refine_ls_number_reflns         3359
_refine_ls_number_restraints     0
_refine_ls_restrained_S_all      1.045
_refine_ls_R_factor_all          0.0456
_refine_ls_R_factor_gt           0.0400
_refine_ls_shift/su_max          0.005
_refine_ls_shift/su_mean         0.000
_refine_ls_structure_factor_coef Fsqd
_refine_ls_weighting_details
'w=1/[\s^2^(Fo^2^)+(0.0559P)^2^+0.1472P] where P=(Fo^2^+2Fc^2^)/3'
_refine_ls_weighting_scheme      calc
_refine_ls_wR_factor_gt          0.1075
_refine_ls_wR_factor_ref         0.1127
_reflns_Friedel_coverage         0.000
_reflns_number_gt                2922
_reflns_number_total             3359
_reflns_threshold_expression     'I > 2\s(I)'
_cod_data_source_file            jo8b00424_si_002.cif
_cod_data_source_block           zhu231
_cod_database_code               4035523
_shelx_shelxl_version_number     2014/7
_shelx_space_group_comment
; 
The symmetry employed for this shelxl refinement is uniquely defined 
by the following loop, which should always be used as a source of 
symmetry information in preference to the above space-group names. 
They are only intended as comments. 
;
_shelx_estimated_absorpt_t_min   0.974
_shelx_estimated_absorpt_t_max   0.978
_exptl_absorpt_special_details   SADABS
_shelx_res_file
; 
  
    zhu231.res created by SHELXL-2014/7 
  
TITL zhu231a in P-1 
CELL 0.71073   7.15310   9.13370  11.31870  70.2601  80.8817  87.0438 
ZERR    2.00   0.00050   0.00060   0.00080   0.0007   0.0008   0.0008 
LATT 1 
SFAC C  H  N 
UNIT 32  24  8 
L.S. 10 
ACTA 
BOND $H 
FMAP 2 
PLAN 15 
CONF 
SIZE 0.279 0.304 0.331 
TEMP -90.000 
WGHT    0.055900    0.147200 
EXTI    0.037083 
FVAR       0.48879 
MOLE 1 
C1    1    0.251791    0.120130    0.057120    11.00000    0.05146    0.03013 = 
         0.03919   -0.01601   -0.01825    0.00667 
AFIX  43 
H1    2    0.335835    0.166676   -0.019231    11.00000   -1.20000 
AFIX   0 
C2    1    0.190253   -0.031507    0.087967    11.00000    0.06859    0.03026 = 
         0.05948   -0.02280   -0.03456    0.01018 
AFIX  43 
H2    2    0.231858   -0.088866    0.032591    11.00000   -1.20000 
AFIX   0 
C3    1    0.068739   -0.099118    0.198927    11.00000    0.05829    0.02568 = 
         0.07900   -0.01284   -0.03586   -0.00319 
AFIX  43 
H3    2    0.026164   -0.202806    0.219395    11.00000   -1.20000 
AFIX   0 
C4    1    0.008227   -0.016898    0.280855    11.00000    0.04537    0.03472 = 
         0.06377   -0.00463   -0.00998   -0.01278 
AFIX  43 
H4    2   -0.074604   -0.064744    0.357512    11.00000   -1.20000 
AFIX   0 
C5    1    0.068312    0.135236    0.251228    11.00000    0.03831    0.03189 = 
         0.04598   -0.01189   -0.00356   -0.00575 
AFIX  43 
H5    2    0.026884    0.191760    0.307265    11.00000   -1.20000 
AFIX   0 
C6    1    0.190021    0.204272    0.138464    11.00000    0.03290    0.02435 = 
         0.03483   -0.01078   -0.01108   -0.00013 
C7    1    0.245102    0.368367    0.099847    11.00000    0.02620    0.02661 = 
         0.02779   -0.01276   -0.00231    0.00072 
C8    1    0.240855    0.487717   -0.013796    11.00000    0.02776    0.02831 = 
         0.02641   -0.01161   -0.00103    0.00052 
C9    1    0.184273    0.479649   -0.126980    11.00000    0.03016    0.03087 = 
         0.02804   -0.01150   -0.00087    0.00182 
C10   1    0.345074    0.375635    0.301819    11.00000    0.03021    0.02625 = 
         0.02504   -0.00869   -0.00379   -0.00485 
C11   1    0.480738    0.260271    0.328459    11.00000    0.03562    0.02915 = 
         0.03293   -0.01140   -0.00249    0.00042 
AFIX  43 
H11   2    0.542783    0.221964    0.264170    11.00000   -1.20000 
AFIX   0 
C12   1    0.524273    0.201698    0.451037    11.00000    0.03644    0.03089 = 
         0.03857   -0.00710   -0.00972    0.00008 
AFIX  43 
H12   2    0.617275    0.122549    0.470237    11.00000   -1.20000 
AFIX   0 
C13   1    0.434644    0.256369    0.546560    11.00000    0.03654    0.03680 = 
         0.03113   -0.00791   -0.00872   -0.00927 
C14   1    0.300569    0.373591    0.515878    11.00000    0.04285    0.04574 = 
         0.02986   -0.01785   -0.00534    0.00032 
AFIX  43 
H14   2    0.239471    0.413349    0.579531    11.00000   -1.20000 
AFIX   0 
C15   1    0.254369    0.433554    0.394088    11.00000    0.03640    0.03633 = 
         0.03185   -0.01518   -0.00595    0.00411 
AFIX  43 
H15   2    0.161941    0.513100    0.374366    11.00000   -1.20000 
AFIX   0 
C16   1    0.480938    0.190590    0.679859    11.00000    0.05340    0.05781 = 
         0.03656   -0.01057   -0.01841   -0.00416 
AFIX 137 
H16A  2    0.516034    0.275412    0.706820    11.00000   -1.50000 
H16B  2    0.586885    0.117740    0.682100    11.00000   -1.50000 
H16C  2    0.369990    0.135857    0.737315    11.00000   -1.50000 
AFIX   0 
N1    3    0.302073    0.440493    0.174658    11.00000    0.03070    0.02330 = 
         0.02572   -0.00980   -0.00221   -0.00189 
N2    3    0.330871    0.595582    0.110963    11.00000    0.03773    0.02369 = 
         0.02959   -0.00896   -0.00279   -0.00309 
N3    3    0.293136    0.624425   -0.003751    11.00000    0.03521    0.02765 = 
         0.02834   -0.00967   -0.00250   -0.00150 
N4    3    0.135894    0.472579   -0.216680    11.00000    0.04155    0.04685 = 
         0.03256   -0.01824   -0.00508    0.00205 
HKLF 4 
  
REM  zhu231a in P-1 
REM R1 =  0.0400 for    2922 Fo > 4sig(Fo)  and  0.0456 for all    3359 data 
REM    183 parameters refined using      0 restraints 
  
END 
  
WGHT      0.0561      0.1479 
  
REM Highest difference peak  0.247,  deepest hole -0.188,  1-sigma level  0.046 
Q1    1   0.3928  0.2386  0.7456  11.00000  0.05    0.25 
Q2    1   0.2456  0.4191  0.0369  11.00000  0.05    0.22 
Q3    1   0.3040  0.5440 -0.0182  11.00000  0.05    0.22 
Q4    1   0.2214  0.4816 -0.0616  11.00000  0.05    0.21 
Q5    1   0.2299  0.2852  0.1237  11.00000  0.05    0.21 
Q6    1   0.2963  0.3839  0.1351  11.00000  0.05    0.20 
Q7    1   0.3879  0.3036  0.3235  11.00000  0.05    0.20 
Q8    1   0.3601  0.3005  0.5359  11.00000  0.05    0.19 
Q9    1   0.4542  0.0788  0.7204  11.00000  0.05    0.19 
Q10   1   0.0760  0.0405  0.2783  11.00000  0.05    0.18 
Q11   1   0.3304  0.4254  0.3431  11.00000  0.05    0.17 
Q12   1   0.2520  0.3659  0.4653  11.00000  0.05    0.17 
Q13   1   0.3224  0.4048  0.2419  11.00000  0.05    0.17 
Q14   1   0.4530  0.2141  0.5039  11.00000  0.05    0.17 
Q15   1   0.0412  0.0575  0.2552  11.00000  0.05    0.17 
;
_shelx_res_checksum              25898
_shelx_hkl_file
; 
  -1   0   0   57.75    1.26 
   1   0   0   53.48    1.25 
  -2   0   0  252.69    5.87 
  -2   0   0  272.97    5.97 
  -2   0   0  267.81    5.92 
   2   0   0  263.01    5.98 
  -3   0   0    0.42    0.05 
  -3   0   0    0.63    0.07 
   3   0   0    0.42    0.07 
   3   0   0    0.44    0.05 
  -4   0   0  153.76    3.37 
  -4   0   0  148.42    3.42 
   4   0   0  148.87    3.44 
   4   0   0  148.22    3.39 
  -5   0   0   27.16    0.68 
  -5   0   0   26.55    0.75 
   5   0   0   26.29    0.71 
  -6   0   0    4.64    0.25 
   6   0   0    4.35    0.21 
   6   0   0    4.14    0.25 
  -7   0   0    0.37    0.11 
   7   0   0    0.28    0.11 
  -8   0   0    0.65    0.15 
   8   0   0    0.57    0.14 
  -9   0   0    0.03    0.11 
   9   0   0   -0.04    0.09 
   9  -1   0    0.15    0.11 
  -9   1   0    0.11    0.11 
   8  -1   0    0.65    0.15 
  -8   1   0    0.77    0.15 
   7  -1   0    4.81    0.29 
  -7   1   0    4.13    0.27 
   6  -1   0    0.70    0.12 
   6  -1   0    1.27    0.14 
  -6   1   0    0.61    0.11 
   5  -1   0   66.17    1.65 
   5  -1   0   70.40    1.71 
  -5   1   0   70.69    1.70 
   4  -1   0    6.33    0.23 
   4  -1   0    6.34    0.26 
  -4   1   0    6.50    0.19 
  -4   1   0    6.14    0.25 
   3  -1   0   49.43    1.19 
   3  -1   0   49.13    1.17 
  -3   1   0   50.22    1.12 
  -3   1   0   48.23    1.18 
   2  -1   0  832.28   18.60 
  -2   1   0  851.69   18.65 
  -2   1   0  807.80   18.63 
   1  -1   0  881.21   19.67 
  -1   1   0  916.44   19.70 
  -1   1   0  852.09   19.66 
   0  -1   0  340.14    7.88 
   0   1   0  363.42    7.89 
  -1  -1   0   34.17    0.79 
  -1  -1   0   33.81    0.80 
   1   1   0   33.98    0.80 
   1   1   0   33.81    0.79 
  -2  -1   0  883.90   19.75 
  -2  -1   0  893.64   19.78 
  -2  -1   0  909.52   19.71 
   2   1   0  848.78   19.75 
  -3  -1   0    5.84    0.22 
  -3  -1   0    5.78    0.21 
   3   1   0    6.41    0.20 
   3   1   0    5.95    0.21 
  -4  -1   0   19.40    0.56 
  -4  -1   0   20.43    0.54 
   4   1   0   19.04    0.52 
   4   1   0   20.12    0.56 
  -5  -1   0    2.64    0.15 
  -5  -1   0    2.83    0.18 
   5   1   0    2.56    0.14 
   5   1   0    2.48    0.16 
  -6  -1   0    1.14    0.14 
   6   1   0    1.09    0.15 
  -7  -1   0    3.89    0.25 
   7   1   0    3.80    0.26 
  -8  -1   0    0.29    0.12 
   8   1   0    0.25    0.12 
  -9  -1   0    0.82    0.18 
   9   1   0    1.00    0.19 
   9  -2   0    0.74    0.18 
  -9   2   0    0.74    0.17 
   8  -2   0    1.06    0.18 
  -8   2   0    1.18    0.19 
   7  -2   0    6.06    0.33 
  -7   2   0    6.54    0.34 
   6  -2   0    0.06    0.06 
   6  -2   0    0.03    0.06 
  -6   2   0    0.06    0.07 
   5  -2   0    1.52    0.13 
   5  -2   0    1.25    0.14 
  -5   2   0    1.78    0.15 
   4  -2   0    0.41    0.07 
   4  -2   0    0.47    0.08 
  -4   2   0    0.44    0.08 
   3  -2   0   68.25    1.59 
   3  -2   0   67.86    1.61 
  -3   2   0   66.98    1.61 
   2  -2   0  396.04    8.80 
  -2   2   0  388.97    8.71 
  -2   2   0  392.86    8.88 
   1  -2   0  214.52    5.03 
  -1   2   0  233.78    4.95 
  -1   2   0  225.73    5.03 
  -1   2   0  218.82    4.97 
   0  -2   0  133.50    2.95 
   0  -2   0  134.23    2.96 
   0   2   0  129.04    2.96 
  -1  -2   0  861.19   20.15 
  -1  -2   0  929.27   20.12 
   1   2   0  916.17   20.18 
  -2  -2   0  422.36    9.46 
  -2  -2   0  420.27    9.36 
   2   2   0  415.21    9.31 
   2   2   0  424.39    9.40 
  -3  -2   0   24.26    0.64 
  -3  -2   0   23.11    0.60 
  -3  -2   0   24.29    0.63 
   3   2   0   24.13    0.62 
  -4  -2   0    5.86    0.24 
  -4  -2   0    5.66    0.23 
   4   2   0    5.50    0.22 
  -5  -2   0    7.20    0.28 
  -5  -2   0    6.97    0.30 
   5   2   0    6.73    0.28 
   5   2   0    7.16    0.26 
  -6  -2   0    0.13    0.08 
  -6  -2   0    0.09    0.06 
   6   2   0    0.11    0.06 
  -7  -2   0    0.99    0.16 
   7   2   0    0.97    0.16 
  -8  -2   0    0.41    0.13 
   8   2   0    0.33    0.12 
  -9  -2   0    2.55    0.27 
   9   2   0    3.43    0.29 
  -9   3   0    4.36    0.34 
   8  -3   0    0.31    0.12 
  -8   3   0    0.48    0.14 
   7  -3   0    1.21    0.15 
   7  -3   0    1.36    0.18 
  -7   3   0    1.53    0.20 
   6  -3   0    0.15    0.07 
   6  -3   0    0.15    0.08 
  -6   3   0    0.07    0.07 
   5  -3   0    2.94    0.18 
  -5   3   0    2.53    0.18 
   4  -3   0    8.38    0.31 
   4  -3   0    7.84    0.31 
  -4   3   0    8.30    0.32 
   3  -3   0   12.56    0.39 
   3  -3   0   12.61    0.39 
  -3   3   0   12.29    0.40 
   2  -3   0    0.48    0.07 
   2  -3   0    0.42    0.06 
  -2   3   0    0.39    0.04 
  -2   3   0    0.39    0.06 
   1  -3   0   20.27    0.53 
   1  -3   0   19.74    0.50 
  -1   3   0   19.94    0.53 
   0  -3   0  149.87    3.29 
   0  -3   0  147.80    3.28 
   0   3   0  140.26    3.29 
  -1  -3   0   80.89    1.85 
  -1  -3   0   79.93    1.87 
   1   3   0   81.08    1.86 
  -2  -3   0    9.11    0.30 
  -2  -3   0    8.95    0.28 
   2   3   0    9.12    0.29 
   2   3   0    9.20    0.25 
  -3  -3   0  362.97    8.11 
   3   3   0  372.02    8.14 
   3   3   0  359.75    8.10 
  -4  -3   0   12.25    0.37 
  -4  -3   0   12.14    0.41 
   4   3   0   11.74    0.38 
   4   3   0   12.51    0.41 
  -5  -3   0    0.07    0.06 
   5   3   0    0.08    0.06 
   5   3   0    0.02    0.04 
  -6  -3   0    3.29    0.21 
   6   3   0    3.19    0.21 
   7   3   0   19.62    0.65 
   8   3   0   -0.07    0.07 
   9   3   0    0.06    0.12 
   9   3   0    0.00    0.11 
   8  -4   0    0.27    0.13 
  -8   4   0    0.12    0.12 
   7  -4   0    0.45    0.13 
   7  -4   0    0.36    0.11 
  -7   4   0    0.24    0.11 
   6  -4   0    4.13    0.25 
   6  -4   0    3.69    0.25 
  -6   4   0    4.10    0.26 
   5  -4   0   27.69    0.79 
   5  -4   0   26.75    0.79 
  -5   4   0   26.82    0.81 
   4  -4   0    2.12    0.16 
   4  -4   0    2.12    0.15 
  -4   4   0    2.25    0.17 
   3  -4   0  108.95    2.68 
   3  -4   0  121.47    2.66 
  -3   4   0  114.05    2.69 
   2  -4   0   11.23    0.33 
   2  -4   0   11.02    0.36 
  -2   4   0   10.67    0.36 
  -2   4   0   10.42    0.30 
   1  -4   0  122.51    2.86 
   1  -4   0  125.21    2.82 
   1  -4   0  121.53    2.79 
  -1   4   0  128.88    2.86 
   0  -4   0    6.55    0.24 
   0  -4   0    6.90    0.25 
  -1  -4   0  152.67    3.49 
  -1  -4   0  158.07    3.51 
   1   4   0  151.97    3.50 
  -2  -4   0  251.40    5.87 
  -2  -4   0  263.28    5.91 
   2   4   0  264.82    5.89 
   2   4   0  270.33    5.80 
  -3  -4   0  298.46    6.55 
  -3  -4   0  292.02    6.60 
   3   4   0  280.64    6.57 
   3   4   0  299.12    6.50 
  -4  -4   0    1.18    0.14 
  -4  -4   0    1.21    0.12 
   4   4   0    1.18    0.13 
   4   4   0    1.12    0.11 
  -5  -4   0   45.70    1.19 
  -5  -4   0   44.44    1.13 
   5   4   0   44.39    1.18 
   5   4   0   43.93    1.13 
  -6  -4   0    9.68    0.40 
   6   4   0    8.62    0.36 
   6   4   0    9.38    0.40 
  -7  -4   0    3.11    0.24 
   7   4   0    2.85    0.23 
   8   4   0    3.69    0.30 
   8  -5   0    0.02    0.11 
  -8   5   0    0.11    0.11 
   7  -5   0    0.93    0.16 
   7  -5   0    1.21    0.19 
  -7   5   0    0.63    0.15 
   6  -5   0    1.00    0.16 
   6  -5   0    1.33    0.18 
  -6   5   0    0.82    0.15 
   5  -5   0    2.30    0.19 
   5  -5   0    2.22    0.18 
  -5   5   0    2.52    0.20 
   4  -5   0    0.61    0.11 
   4  -5   0    0.65    0.10 
  -4   5   0    0.76    0.12 
   3  -5   0   17.21    0.51 
   3  -5   0   18.17    0.56 
  -3   5   0   18.05    0.57 
   2  -5   0   10.33    0.31 
   2  -5   0    9.99    0.36 
  -2   5   0    9.75    0.36 
  -2   5   0    9.32    0.30 
   1  -5   0   26.06    0.62 
   1  -5   0   24.86    0.71 
  -1   5   0   26.46    0.72 
   0  -5   0   68.03    1.69 
   0  -5   0   71.63    1.69 
   0   5   0   71.91    1.70 
  -1  -5   0   82.90    1.97 
  -1  -5   0   83.13    1.99 
   1   5   0   84.60    1.99 
  -2  -5   0    0.14    0.06 
  -2  -5   0    0.19    0.06 
   2   5   0    0.30    0.07 
  -3  -5   0   25.76    0.76 
  -3  -5   0   26.64    0.72 
   3   5   0   26.12    0.74 
  -4  -5   0   25.64    0.77 
  -4  -5   0   25.75    0.71 
   4   5   0   25.39    0.75 
  -5  -5   0    3.72    0.24 
   5   5   0    3.85    0.24 
  -6  -5   0   64.69    1.71 
   6   5   0   66.42    1.71 
  -7  -5   0    0.12    0.10 
   7   5   0    0.11    0.10 
   8   5   0    2.65    0.28 
   8  -6   0   -0.03    0.10 
   7  -6   0    0.51    0.14 
   7  -6   0    0.67    0.16 
  -7   6   0    0.59    0.15 
   6  -6   0    6.19    0.34 
   6  -6   0    6.42    0.34 
  -6   6   0    6.04    0.35 
   5  -6   0    2.20    0.23 
   5  -6   0    2.56    0.20 
  -5   6   0    2.13    0.22 
   4  -6   0   -0.07    0.05 
   4  -6   0   -0.03    0.05 
  -4   6   0   -0.01    0.07 
   3  -6   0    3.26    0.21 
   3  -6   0    3.77    0.18 
  -3   6   0    3.75    0.23 
   2  -6   0    3.19    0.20 
  -2   6   0    3.37    0.16 
   1  -6   0    0.09    0.06 
  -1   6   0    0.08    0.05 
  -1   6   0    0.14    0.07 
   0  -6   0    3.54    0.20 
   0  -6   0    3.48    0.19 
   0   6   0    3.20    0.20 
  -1  -6   0  104.24    2.56 
  -1  -6   0  111.14    2.55 
   1   6   0  109.03    2.56 
  -2  -6   0    0.55    0.09 
  -2  -6   0    0.65    0.12 
   2   6   0    0.62    0.10 
  -3  -6   0   13.79    0.49 
  -3  -6   0   13.24    0.45 
   3   6   0   13.43    0.47 
  -4  -6   0    1.96    0.21 
  -4  -6   0    2.77    0.18 
   4   6   0    1.89    0.19 
  -5  -6   0   23.74    0.77 
   5   6   0   23.26    0.74 
  -6  -6   0    3.45    0.27 
   6   6   0    2.89    0.24 
  -7  -6   0    0.06    0.11 
   7   6   0    0.08    0.10 
   8   6   0    5.65    0.38 
   7  -7   0    1.00    0.19 
  -7   7   0    0.61    0.16 
   6  -7   0    0.75    0.16 
  -6   7   0    0.76    0.16 
   5  -7   0    7.72    0.39 
  -5   7   0    7.81    0.40 
   4  -7   0    3.04    0.23 
  -4   7   0    3.05    0.23 
   3  -7   0    9.64    0.41 
  -3   7   0    9.69    0.42 
   2  -7   0   13.80    0.50 
  -2   7   0   14.34    0.51 
   1  -7   0    8.21    0.35 
  -1   7   0    7.01    0.33 
  -1   7   0    7.88    0.31 
   0  -7   0    6.75    0.30 
   0  -7   0    6.51    0.30 
   0   7   0    6.30    0.30 
  -1  -7   0    1.08    0.14 
  -1  -7   0    1.14    0.15 
   1   7   0    1.18    0.15 
  -2  -7   0    0.07    0.07 
  -2  -7   0    0.10    0.07 
   2   7   0    0.09    0.07 
  -3  -7   0   16.58    0.55 
  -3  -7   0   17.07    0.60 
   3   7   0   16.58    0.57 
  -4  -7   0    5.49    0.28 
  -4  -7   0    5.22    0.31 
   4   7   0    5.63    0.31 
  -5  -7   0    1.86    0.22 
   5   7   0    1.56    0.19 
  -6  -7   0    0.10    0.11 
   6   7   0    0.03    0.10 
  -7  -7   0    0.24    0.14 
   7   7   0    0.42    0.15 
   6  -8   0    3.34    0.33 
  -6   8   0    3.73    0.31 
   5  -8   0    3.12    0.27 
  -5   8   0    3.27    0.28 
   4  -8   0    7.65    0.39 
  -4   8   0    8.15    0.41 
   3  -8   0   23.58    0.77 
  -3   8   0   23.25    0.77 
   2  -8   0    7.64    0.36 
  -2   8   0    6.47    0.35 
   1  -8   0   15.39    0.57 
  -1   8   0   16.46    0.58 
  -1   8   0   16.39    0.54 
   0  -8   0   35.36    0.99 
   0   8   0   33.83    0.98 
   0   8   0   34.23    1.00 
  -1  -8   0   21.60    0.68 
  -1  -8   0   21.05    0.69 
   1   8   0   20.96    0.69 
  -2  -8   0    0.21    0.09 
  -2  -8   0    0.12    0.08 
   2   8   0    0.06    0.08 
  -3  -8   0    0.99    0.16 
  -3  -8   0    0.97    0.14 
   3   8   0    0.81    0.15 
  -4  -8   0    0.24    0.11 
   4   8   0    0.18    0.10 
  -5  -8   0    5.13    0.34 
   5   8   0    4.44    0.31 
  -6  -8   0    0.50    0.16 
   6   8   0    0.24    0.13 
   5  -9   0    1.46    0.22 
  -5   9   0    1.56    0.23 
   4  -9   0    1.82    0.23 
  -4   9   0    2.10    0.24 
   3  -9   0    2.05    0.23 
  -3   9   0    1.75    0.23 
   2  -9   0    0.15    0.10 
  -2   9   0    0.20    0.10 
   1  -9   0   20.16    0.71 
  -1   9   0   21.17    0.72 
   0  -9   0    0.28    0.10 
   0   9   0    0.35    0.12 
   0   9   0    0.37    0.11 
  -1  -9   0    0.38    0.11 
   1   9   0    0.13    0.09 
   1   9   0    0.37    0.12 
  -2  -9   0    3.23    0.26 
  -2  -9   0    3.09    0.24 
   2   9   0    3.20    0.25 
  -3  -9   0    3.32    0.25 
  -3  -9   0    3.80    0.29 
   3   9   0    3.81    0.28 
  -4  -9   0    0.15    0.11 
   4   9   0    0.06    0.10 
  -5  -9   0    0.96    0.20 
   5   9   0    0.94    0.18 
   4 -10   0    3.09    0.32 
  -4  10   0    3.31    0.33 
   3 -10   0    0.40    0.14 
  -3  10   0    0.43    0.14 
   2 -10   0    0.01    0.10 
  -2  10   0    0.17    0.12 
   1 -10   0    0.46    0.14 
  -1  10   0    0.17    0.12 
   0 -10   0    2.10    0.24 
   0  10   0    2.00    0.23 
   0  10   0    1.68    0.22 
  -1 -10   0    4.03    0.29 
   1  10   0    4.05    0.30 
   1  10   0    4.16    0.30 
  -2 -10   0    0.11    0.10 
   2  10   0    0.04    0.10 
   2  10   0   -0.03    0.09 
  -3 -10   0    0.32    0.12 
   3  10   0   -0.01    0.10 
   3  10   0    0.29    0.13 
   4  10   0    2.38    0.30 
   4  10   0    2.56    0.29 
   2 -11   0    3.38    0.34 
  -2  11   0    3.09    0.32 
   1 -11   0    0.35    0.14 
  -1  11   0    0.17    0.13 
   0 -11   0    2.33    0.26 
   0  11   0    2.67    0.29 
  -1 -11   0    1.64    0.23 
   1  11   0    1.88    0.25 
   1  11   0    2.17    0.27 
  -2 -11   0    0.91    0.19 
   2  11   0    0.90    0.19 
   2  11   0    1.15    0.21 
   1  11  -1    0.17    0.14 
   1  11  -1    0.16    0.12 
  -1 -11   1    0.20    0.13 
   0  11  -1    7.96    0.45 
   0 -11   1    7.90    0.45 
  -1  11  -1    0.29    0.15 
   1 -11   1    0.19    0.17 
   4  10  -1    4.58    0.35 
   3  10  -1    0.78    0.18 
   3  10  -1    0.88    0.18 
  -3 -10   1    0.94    0.18 
   2  10  -1    0.09    0.10 
   2  10  -1    0.15    0.11 
  -2 -10   1    0.10    0.11 
   1  10  -1    0.48    0.15 
   1  10  -1    0.34    0.12 
  -1 -10   1    0.55    0.15 
   0  10  -1    3.12    0.31 
   0  10  -1    3.70    0.29 
   0 -10   1    3.78    0.29 
  -1  10  -1    0.56    0.16 
   1 -10   1    0.50    0.15 
  -2  10  -1   15.01    0.62 
   2 -10   1   14.96    0.62 
  -3  10  -1    0.76    0.18 
   3 -10   1    0.77    0.18 
   4 -10   1    1.30    0.28 
   5   9  -1    1.86    0.24 
   5   9  -1    1.62    0.25 
   4   9  -1    1.87    0.24 
   4   9  -1    1.44    0.22 
   3   9  -1    4.56    0.31 
   3   9  -1    4.30    0.32 
  -3  -9   1    4.36    0.29 
   2   9  -1    6.76    0.36 
   2   9  -1    6.25    0.37 
  -2  -9   1    6.42    0.35 
   1   9  -1    0.38    0.12 
   1   9  -1    0.54    0.13 
  -1  -9   1    0.50    0.12 
   0   9  -1    0.04    0.10 
   0   9  -1    0.21    0.10 
   0  -9   1    0.18    0.10 
  -1   9  -1    5.30    0.32 
   1  -9   1    4.74    0.31 
  -2   9  -1    3.61    0.28 
   2  -9   1    3.46    0.27 
  -3   9  -1    0.68    0.16 
   3  -9   1    0.76    0.16 
  -4   9  -1    0.02    0.10 
   4  -9   1    0.03    0.09 
  -5   9  -1    7.05    0.42 
   5  -9   1    6.71    0.41 
   6   8  -1    3.29    0.32 
   6   8  -1    3.58    0.35 
   5   8  -1    0.60    0.16 
   5   8  -1    0.69    0.15 
   4   8  -1    1.89    0.22 
  -4  -8   1    1.63    0.20 
   3   8  -1    2.00    0.22 
  -3  -8   1    1.79    0.20 
   2   8  -1    3.84    0.27 
   2   8  -1    4.04    0.26 
  -2  -8   1    4.05    0.26 
   1   8  -1   25.59    0.80 
   1   8  -1   24.68    0.78 
  -1  -8   1   24.26    0.77 
   0   8  -1    7.56    0.36 
   0   8  -1    6.88    0.34 
   0  -8   1    7.34    0.35 
  -1   8  -1    4.07    0.26 
  -1   8  -1    4.09    0.25 
   1  -8   1    4.01    0.27 
  -2   8  -1    1.62    0.20 
   2  -8   1    1.67    0.21 
  -3   8  -1    4.48    0.29 
   3  -8   1    3.70    0.27 
  -4   8  -1    8.02    0.40 
   4  -8   1    7.96    0.40 
  -5   8  -1    5.73    0.36 
   5  -8   1    5.57    0.35 
  -6   8  -1    9.77    0.50 
   6  -8   1   10.44    0.50 
   7   7  -1    0.45    0.17 
   6   7  -1    0.43    0.13 
   5   7  -1    1.32    0.18 
  -5  -7   1    1.09    0.18 
   4   7  -1    3.68    0.25 
  -4  -7   1    3.62    0.24 
  -4  -7   1    3.60    0.27 
   3   7  -1    7.26    0.34 
  -3  -7   1    7.40    0.37 
  -3  -7   1    7.61    0.34 
   2   7  -1   16.46    0.57 
  -2  -7   1   16.58    0.59 
  -2  -7   1   17.37    0.57 
   1   7  -1   12.81    0.47 
   1   7  -1   12.47    0.48 
  -1  -7   1   13.45    0.48 
   0   7  -1   21.28    0.66 
   0   7  -1   21.32    0.65 
   0  -7   1   19.88    0.65 
  -1   7  -1    0.74    0.11 
  -1   7  -1    0.73    0.13 
   1  -7   1    0.72    0.13 
  -2   7  -1   -0.06    0.07 
   2  -7   1    0.04    0.06 
  -3   7  -1   21.68    0.72 
   3  -7   1   22.36    0.72 
  -4   7  -1    5.01    0.31 
   4  -7   1    5.15    0.30 
  -5   7  -1   14.51    0.59 
   5  -7   1   15.73    0.59 
  -6   7  -1    0.26    0.13 
   6  -7   1    0.02    0.10 
  -7   7  -1    2.27    0.29 
   7  -7   1    2.18    0.26 
   7   6  -1    0.45    0.14 
   7   6  -1    0.43    0.15 
   6   6  -1    1.58    0.20 
  -6  -6   1    1.58    0.22 
   5   6  -1    5.60    0.31 
  -5  -6   1    5.51    0.33 
   4   6  -1    1.22    0.16 
  -4  -6   1    1.24    0.15 
  -4  -6   1    1.43    0.19 
   3   6  -1   57.60    1.48 
  -3  -6   1   58.94    1.47 
  -3  -6   1   58.05    1.52 
   2   6  -1   17.49    0.55 
  -2  -6   1   17.33    0.55 
  -2  -6   1   17.53    0.58 
   1   6  -1    2.14    0.16 
  -1  -6   1    2.41    0.17 
  -1  -6   1    2.32    0.17 
   0   6  -1    6.05    0.28 
   0   6  -1    6.29    0.28 
   0  -6   1    6.46    0.28 
  -1   6  -1    2.71    0.16 
  -1   6  -1    2.44    0.18 
   1  -6   1    2.44    0.18 
  -2   6  -1    4.07    0.19 
  -2   6  -1    3.59    0.22 
   2  -6   1    4.09    0.23 
  -3   6  -1    9.44    0.39 
   3  -6   1    8.46    0.37 
  -4   6  -1    5.94    0.31 
   4  -6   1    5.81    0.28 
   4  -6   1    5.36    0.29 
  -5   6  -1   20.50    0.71 
   5  -6   1   21.61    0.66 
   5  -6   1   20.17    0.69 
  -6   6  -1    1.57    0.21 
   6  -6   1    1.87    0.20 
   6  -6   1    1.90    0.22 
  -7   6  -1    0.23    0.12 
   7  -6   1    0.16    0.11 
   7  -6   1    0.21    0.11 
   7   5  -1    0.45    0.13 
   6   5  -1    9.11    0.40 
  -6  -5   1    8.15    0.40 
   5   5  -1    8.15    0.36 
  -5  -5   1    8.60    0.35 
  -5  -5   1    8.70    0.39 
   4   5  -1   18.97    0.58 
  -4  -5   1   18.04    0.57 
  -4  -5   1   17.68    0.60 
   3   5  -1    0.02    0.04 
  -3  -5   1    0.07    0.06 
  -3  -5   1    0.08    0.06 
   2   5  -1    3.79    0.20 
  -2  -5   1    3.78    0.20 
  -2  -5   1    4.04    0.22 
   1   5  -1    0.24    0.07 
  -1  -5   1    0.19    0.06 
  -1  -5   1    0.28    0.07 
   0   5  -1   44.40    1.12 
   0   5  -1   43.95    1.12 
   0  -5   1   44.19    1.12 
  -1   5  -1  142.06    3.32 
  -1   5  -1  138.07    3.28 
   1  -5   1  143.47    3.33 
   1  -5   1  151.81    3.23 
  -2   5  -1    2.04    0.15 
  -2   5  -1    1.94    0.12 
   2  -5   1    1.86    0.11 
  -3   5  -1   28.30    0.81 
   3  -5   1   28.29    0.75 
   3  -5   1   28.65    0.80 
  -4   5  -1   11.81    0.45 
   4  -5   1   11.98    0.44 
   4  -5   1   12.16    0.42 
  -5   5  -1    0.58    0.13 
   5  -5   1    0.86    0.13 
   5  -5   1    0.83    0.14 
  -6   5  -1    0.05    0.08 
   6  -5   1   -0.05    0.06 
   6  -5   1    0.02    0.07 
  -7   5  -1    2.36    0.26 
   7  -5   1    2.22    0.24 
   7  -5   1    1.71    0.21 
  -8   5  -1    0.66    0.17 
   8  -5   1    0.82    0.18 
   8   4  -1    2.38    0.26 
   7   4  -1    0.13    0.09 
  -7  -4   1    0.12    0.09 
   6   4  -1    1.99    0.21 
  -6  -4   1    1.65    0.19 
   5   4  -1    5.08    0.25 
  -5  -4   1    4.41    0.23 
  -5  -4   1    4.46    0.26 
   4   4  -1   88.28    2.11 
   4   4  -1   93.09    2.17 
  -4  -4   1   91.43    2.15 
  -4  -4   1   90.65    2.20 
   3   4  -1   35.10    0.93 
   3   4  -1   35.96    0.87 
  -3  -4   1   37.02    0.97 
  -3  -4   1   35.97    0.93 
   2   4  -1    0.10    0.03 
   2   4  -1    0.07    0.04 
  -2  -4   1    0.16    0.06 
  -2  -4   1    0.03    0.04 
   1   4  -1   13.08    0.39 
  -1  -4   1   13.18    0.40 
   0   4  -1   91.28    2.13 
   0   4  -1   92.05    2.13 
   0  -4   1   90.94    2.13 
  -1   4  -1   46.89    1.12 
  -1   4  -1   47.83    1.15 
   1  -4   1   47.65    1.08 
   1  -4   1   44.07    1.15 
  -2   4  -1    5.40    0.19 
  -2   4  -1    5.23    0.23 
   2  -4   1    5.44    0.19 
   2  -4   1    5.26    0.23 
  -3   4  -1   12.84    0.43 
  -3   4  -1   12.53    0.34 
   3  -4   1   13.00    0.42 
   3  -4   1   12.60    0.40 
  -4   4  -1    1.32    0.15 
   4  -4   1    1.52    0.15 
   4  -4   1    1.42    0.14 
  -5   4  -1    6.47    0.32 
   5  -4   1    6.50    0.30 
   5  -4   1    6.11    0.28 
  -6   4  -1    7.50    0.37 
   6  -4   1    8.20    0.38 
   6  -4   1    7.76    0.35 
  -7   4  -1   11.43    0.50 
   7  -4   1   10.99    0.48 
   7  -4   1   11.12    0.50 
  -8   4  -1    0.14    0.11 
   8  -4   1    0.06    0.10 
   8   3  -1   -0.05    0.08 
   8   3  -1    0.14    0.10 
   7   3  -1    6.66    0.34 
   7   3  -1    7.09    0.35 
   6   3  -1    8.61    0.37 
   6   3  -1    8.81    0.36 
  -6  -3   1    8.81    0.37 
   5   3  -1   54.51    1.42 
   5   3  -1   57.41    1.40 
  -5  -3   1   55.73    1.43 
  -5  -3   1   57.01    1.40 
   4   3  -1   10.13    0.34 
   4   3  -1   10.04    0.35 
  -4  -3   1   10.31    0.37 
  -4  -3   1   10.16    0.35 
   3   3  -1    4.08    0.19 
   3   3  -1    4.55    0.17 
  -3  -3   1    4.45    0.19 
  -3  -3   1    4.37    0.21 
   2   3  -1    5.48    0.20 
  -2  -3   1    5.91    0.23 
  -2  -3   1    5.54    0.21 
   1   3  -1    0.21    0.04 
  -1  -3   1    0.20    0.05 
  -1  -3   1    0.24    0.02 
  -1  -3   1    0.19    0.05 
   0   3  -1   28.82    0.73 
   0   3  -1   29.07    0.73 
   0  -3   1   29.35    0.73 
  -1   3  -1  307.63    7.00 
  -1   3  -1  313.90    7.02 
   1  -3   1  322.14    7.02 
   1  -3   1  318.09    7.03 
  -2   3  -1    0.43    0.05 
  -2   3  -1    0.41    0.08 
   2  -3   1    0.31    0.05 
   2  -3   1    0.44    0.07 
  -3   3  -1   39.95    1.03 
  -3   3  -1   39.16    0.93 
   3  -3   1   40.59    1.00 
   3  -3   1   40.79    1.01 
  -4   3  -1    2.52    0.17 
   4  -3   1    2.71    0.16 
   4  -3   1    3.04    0.17 
  -5   3  -1    2.45    0.18 
   5  -3   1    2.42    0.16 
   5  -3   1    2.38    0.18 
  -6   3  -1    1.85    0.20 
   6  -3   1    2.35    0.22 
   6  -3   1    1.91    0.16 
  -7   3  -1    2.05    0.23 
   7  -3   1    2.14    0.23 
  -8   3  -1    2.67    0.28 
   8  -3   1    2.79    0.29 
  -9   3  -1    0.72    0.17 
   9   2  -1    0.23    0.13 
  -9  -2   1    0.05    0.12 
   8   2  -1    2.86    0.27 
  -8  -2   1    2.64    0.26 
   7   2  -1    2.79    0.22 
  -7  -2   1    2.56    0.24 
   6   2  -1    3.85    0.21 
   6   2  -1    4.07    0.23 
  -6  -2   1    4.91    0.26 
  -6  -2   1    3.76    0.22 
   5   2  -1    8.69    0.33 
   5   2  -1    8.81    0.32 
  -5  -2   1    8.33    0.33 
  -5  -2   1    8.29    0.32 
   4   2  -1    0.08    0.04 
  -4  -2   1    0.19    0.06 
  -4  -2   1    0.12    0.05 
  -4  -2   1    0.11    0.05 
   3   2  -1   37.45    0.91 
  -3  -2   1   36.13    0.90 
  -3  -2   1   36.14    0.92 
  -3  -2   1   36.70    0.91 
   2   2  -1   11.36    0.33 
  -2  -2   1   12.00    0.32 
  -2  -2   1   11.64    0.34 
  -2  -2   1   11.53    0.35 
   1   2  -1  286.32    6.49 
  -1  -2   1  282.14    6.49 
  -1  -2   1  288.70    6.36 
  -1  -2   1  284.59    6.46 
   0   2  -1  156.13    3.49 
   0   2  -1  154.93    3.48 
   0  -2   1  156.46    3.49 
  -1   2  -1   74.58    1.79 
  -1   2  -1   80.59    1.77 
   1  -2   1   78.84    1.79 
   1  -2   1   78.64    1.76 
  -2   2  -1    0.35    0.04 
  -2   2  -1    0.29    0.06 
   2  -2   1    0.28    0.05 
   2  -2   1    0.25    0.04 
  -3   2  -1  155.69    3.31 
  -3   2  -1  147.07    3.40 
   3  -2   1  146.86    3.37 
   3  -2   1  145.22    3.38 
  -4   2  -1    0.11    0.05 
   4  -2   1    0.18    0.06 
   4  -2   1    0.23    0.06 
  -5   2  -1    6.06    0.28 
   5  -2   1    6.03    0.25 
   5  -2   1    5.69    0.27 
  -6   2  -1    0.80    0.13 
   6  -2   1    0.72    0.13 
   6  -2   1    0.66    0.10 
  -7   2  -1    0.80    0.15 
   7  -2   1    1.14    0.18 
  -8   2  -1    1.86    0.23 
   8  -2   1    1.80    0.23 
  -9   2  -1   -0.08    0.11 
   9  -2   1    0.02    0.10 
   9   1  -1    4.01    0.33 
  -9  -1   1    4.05    0.32 
   8   1  -1    2.87    0.28 
  -8  -1   1    2.20    0.24 
   7   1  -1   -0.06    0.07 
  -7  -1   1    0.24    0.10 
   6   1  -1    1.87    0.19 
   6   1  -1    1.60    0.13 
  -6  -1   1    1.67    0.17 
   5   1  -1    0.50    0.09 
   5   1  -1    0.64    0.09 
  -5  -1   1    0.54    0.09 
  -5  -1   1    0.64    0.09 
   4   1  -1    1.18    0.10 
  -4  -1   1    1.20    0.12 
  -4  -1   1    1.26    0.10 
  -4  -1   1    1.43    0.11 
  -3  -1   1   46.33    1.09 
  -3  -1   1   45.91    1.10 
  -3  -1   1   43.10    1.09 
  -3  -1   1   45.87    1.09 
  -2  -1   1   46.41    1.11 
  -2  -1   1   46.93    1.10 
  -2  -1   1   47.47    1.11 
  -2  -1   1   47.95    1.11 
   1   1  -1   46.85    1.10 
  -1  -1   1   49.31    1.12 
  -1  -1   1   48.73    1.12 
  -1  -1   1   48.47    1.10 
   0   1  -1    0.97    0.05 
   0   1  -1    0.94    0.05 
   0  -1   1    0.90    0.05 
   0  -1   1    0.95    0.04 
  -1   1  -1    1.95    0.09 
  -1   1  -1    1.91    0.08 
   1  -1   1    1.88    0.08 
   1  -1   1    2.04    0.08 
  -2   1  -1  285.28    6.32 
  -2   1  -1  288.98    6.37 
   2  -1   1  285.36    6.45 
   2  -1   1  275.21    6.42 
  -3   1  -1  156.11    3.42 
  -3   1  -1  149.54    3.49 
   3  -1   1  157.60    3.49 
   3  -1   1  152.07    3.46 
  -4   1  -1    5.04    0.22 
  -4   1  -1    4.52    0.15 
   4  -1   1    4.59    0.18 
  -5   1  -1    0.65    0.11 
   5  -1   1    0.56    0.10 
   5  -1   1    0.66    0.09 
  -6   1  -1    0.47    0.10 
   6  -1   1    0.37    0.08 
   6  -1   1    0.56    0.12 
  -7   1  -1    8.74    0.40 
   7  -1   1    9.36    0.42 
  -8   1  -1    1.93    0.22 
   8  -1   1    1.51    0.21 
  -9   1  -1    0.40    0.15 
   9  -1   1    0.48    0.15 
   9   0  -1    0.14    0.12 
  -9   0   1    0.01    0.10 
   8   0  -1    3.04    0.26 
  -8   0   1    2.61    0.25 
   7   0  -1    0.21    0.10 
  -7   0   1    0.25    0.10 
   6   0  -1    2.52    0.20 
   6   0  -1    2.81    0.18 
  -6   0   1    3.23    0.21 
   5   0  -1   23.67    0.67 
   5   0  -1   24.67    0.71 
  -5   0   1   24.60    0.69 
  -5   0   1   24.50    0.67 
   4   0  -1  103.97    2.38 
  -4   0   1  104.96    2.35 
  -4   0   1   98.50    2.40 
  -4   0   1  104.49    2.40 
   3   0  -1    1.99    0.11 
  -3   0   1    2.05    0.12 
  -3   0   1    1.95    0.10 
  -3   0   1    1.88    0.11 
   2   0  -1  941.35   20.51 
  -2   0   1  905.96   20.44 
  -2   0   1  910.61   20.60 
  -2   0   1  914.30   20.48 
   1   0  -1  748.61   17.07 
  -1   0   1  716.35   17.27 
   0   0  -1  190.64    4.32 
   0   0   1  192.65    4.29 
  -1   0  -1   12.49    0.31 
  -1   0  -1   11.64    0.31 
   1   0   1   12.16    0.32 
  -2   0  -1  647.20   14.38 
  -2   0  -1  632.52   14.22 
   2   0   1  650.56   14.36 
   2   0   1  621.04   14.21 
  -3   0  -1   36.86    0.87 
  -3   0  -1   36.38    0.91 
   3   0   1   36.23    0.87 
   3   0   1   37.25    0.91 
  -4   0  -1   79.28    1.90 
  -4   0  -1   79.73    1.85 
   4   0   1   80.68    1.86 
   4   0   1   82.13    1.91 
  -5   0  -1    0.62    0.11 
  -5   0  -1    0.78    0.08 
   5   0   1    0.70    0.08 
   5   0   1    0.73    0.11 
  -6   0  -1   10.91    0.42 
   6   0   1   10.99    0.43 
  -7   0  -1    3.71    0.26 
   7   0   1    3.93    0.26 
  -8   0  -1    0.41    0.13 
   8   0   1    0.69    0.15 
  -9   0  -1   -0.11    0.09 
   9   0   1    0.05    0.10 
   9  -1  -1    0.23    0.12 
  -9   1   1    0.18    0.12 
   8  -1  -1    0.04    0.09 
  -8   1   1    0.12    0.10 
   7  -1  -1   -0.02    0.07 
   7  -1  -1    0.20    0.09 
  -7   1   1    0.07    0.08 
   6  -1  -1    9.28    0.40 
   6  -1  -1   10.35    0.38 
  -6   1   1    9.68    0.39 
   5  -1  -1    5.66    0.25 
   5  -1  -1    5.64    0.27 
  -5   1   1    5.72    0.26 
   4  -1  -1  135.01    3.11 
   4  -1  -1  139.47    3.04 
  -4   1   1  134.26    3.14 
  -4   1   1  135.02    3.12 
   3  -1  -1    3.93    0.16 
   3  -1  -1    3.98    0.12 
  -3   1   1    3.60    0.16 
  -3   1   1    3.73    0.18 
   2  -1  -1  939.17   21.74 
  -2   1   1  980.21   21.84 
  -2   1   1 1000.00   21.79 
  -1   1   1    0.31    0.04 
   0  -1  -1  243.01    5.63 
   0  -1  -1  258.79    5.61 
   0   1   1  244.08    5.59 
   0   1   1  256.64    5.60 
  -1  -1  -1   58.47    1.31 
  -1  -1  -1   57.83    1.31 
   1   1   1   56.37    1.30 
  -2  -1  -1  499.64   11.28 
  -2  -1  -1  503.84   11.27 
   2   1   1  491.48   11.10 
   2   1   1  501.50   11.26 
  -3  -1  -1   26.19    0.66 
  -3  -1  -1   25.96    0.68 
   3   1   1   25.87    0.67 
   3   1   1   26.88    0.63 
  -4  -1  -1   20.82    0.59 
  -4  -1  -1   21.43    0.57 
   4   1   1   21.63    0.60 
   4   1   1   20.65    0.54 
  -5  -1  -1    1.26    0.14 
  -5  -1  -1    1.27    0.10 
   5   1   1    1.25    0.14 
   5   1   1    1.21    0.09 
  -6  -1  -1   31.31    0.91 
   6   1   1   33.00    0.93 
  -7  -1  -1    5.24    0.29 
   7   1   1    5.12    0.29 
  -8  -1  -1    0.35    0.12 
   8   1   1    0.34    0.12 
  -9  -1  -1    0.16    0.12 
   9   1   1    0.06    0.11 
   9  -2  -1    0.13    0.11 
  -9   2   1    0.02    0.11 
   8  -2  -1    1.02    0.19 
  -8   2   1    0.88    0.16 
   7  -2  -1    0.82    0.14 
   7  -2  -1    0.79    0.13 
  -7   2   1    0.77    0.14 
   6  -2  -1    6.03    0.28 
   6  -2  -1    5.93    0.31 
  -6   2   1    6.28    0.30 
   5  -2  -1   -0.01    0.05 
   5  -2  -1    0.03    0.06 
  -5   2   1    0.01    0.06 
   4  -2  -1  180.84    4.23 
  -4   2   1  191.63    4.26 
  -4   2   1  186.74    4.25 
   3  -2  -1   68.15    1.62 
  -3   2   1   67.50    1.62 
  -3   2   1   69.98    1.63 
   2  -2  -1  348.38    7.68 
  -2   2   1  334.76    7.74 
  -2   2   1  354.37    7.75 
   1  -2  -1    2.01    0.10 
   1  -2  -1    2.00    0.07 
  -1   2   1    2.02    0.10 
  -1   2   1    2.05    0.09 
   0  -2  -1  709.73   16.88 
   0  -2  -1  740.34   16.92 
   0   2   1  793.40   16.83 
   0   2   1  791.33   16.98 
  -1  -2  -1  821.97   19.19 
  -1  -2  -1  870.29   19.04 
   1   2   1  842.87   19.16 
   1   2   1  891.47   19.01 
  -2  -2  -1  470.60   10.71 
  -2  -2  -1  486.03   10.65 
   2   2   1  475.18   10.70 
   2   2   1  476.17   10.71 
  -3  -2  -1    8.92    0.30 
  -3  -2  -1    9.01    0.25 
  -3  -2  -1    8.97    0.29 
   3   2   1    8.97    0.28 
  -4  -2  -1   14.04    0.43 
  -4  -2  -1   14.68    0.45 
   4   2   1   14.67    0.44 
   4   2   1   14.00    0.39 
  -5  -2  -1   18.50    0.54 
  -5  -2  -1   18.26    0.57 
   5   2   1   17.86    0.55 
   5   2   1   17.88    0.50 
  -6  -2  -1   14.12    0.48 
  -6  -2  -1   14.88    0.52 
   6   2   1   15.10    0.51 
  -7  -2  -1    3.55    0.25 
   7   2   1    3.63    0.25 
  -8  -2  -1    0.04    0.09 
   8   2   1    0.00    0.09 
  -9  -2  -1    1.57    0.23 
   9   2   1    1.73    0.24 
  -9   3   1    2.33    0.28 
   8  -3  -1    0.08    0.10 
  -8   3   1   -0.07    0.09 
   7  -3  -1    2.76    0.22 
   7  -3  -1    2.77    0.27 
  -7   3   1    2.73    0.23 
   6  -3  -1    5.15    0.29 
   6  -3  -1    5.45    0.28 
  -6   3   1    5.06    0.28 
   5  -3  -1    0.60    0.10 
   5  -3  -1    0.47    0.10 
  -5   3   1    0.42    0.10 
   4  -3  -1   78.81    1.87 
  -4   3   1   76.18    1.87 
  -4   3   1   78.10    1.88 
   3  -3  -1   15.10    0.45 
  -3   3   1   14.56    0.44 
  -3   3   1   14.62    0.45 
   2  -3  -1  118.47    2.77 
  -2   3   1  122.09    2.68 
  -2   3   1  118.95    2.77 
  -2   3   1  124.64    2.75 
   1  -3  -1    5.81    0.18 
   1  -3  -1    5.75    0.21 
  -1   3   1    6.12    0.21 
  -1   3   1    6.48    0.19 
   0  -3  -1    0.98    0.07 
   0  -3  -1    1.14    0.07 
   0   3   1    1.05    0.08 
   0   3   1    0.95    0.05 
  -1  -3  -1    2.55    0.11 
  -1  -3  -1    2.44    0.12 
   1   3   1    2.66    0.09 
   1   3   1    2.48    0.12 
  -2  -3  -1  122.57    2.80 
  -2  -3  -1  122.49    2.84 
   2   3   1  125.51    2.84 
   2   3   1  127.03    2.79 
  -3  -3  -1   94.70    2.13 
  -3  -3  -1   91.38    2.18 
   3   3   1   94.43    2.14 
   3   3   1   92.51    2.18 
  -4  -3  -1   68.21    1.57 
  -4  -3  -1   66.66    1.63 
   4   3   1   68.16    1.64 
   4   3   1   65.48    1.60 
  -5  -3  -1    1.38    0.15 
  -5  -3  -1    1.00    0.13 
   5   3   1    1.13    0.12 
  -6  -3  -1   12.19    0.44 
  -6  -3  -1   12.32    0.46 
   6   3   1   11.64    0.43 
  -7  -3  -1    0.14    0.09 
   7   3   1   -0.08    0.05 
  -8  -3  -1    0.49    0.14 
   8   3   1    0.55    0.14 
   9   3   1    7.28    0.42 
   8  -4  -1    0.31    0.13 
  -8   4   1    0.48    0.15 
   7  -4  -1    3.70    0.25 
   7  -4  -1    3.39    0.26 
  -7   4   1    3.72    0.27 
   6  -4  -1    0.10    0.07 
   6  -4  -1    0.16    0.08 
  -6   4   1    0.02    0.07 
   5  -4  -1   12.59    0.46 
   5  -4  -1   13.06    0.47 
  -5   4   1   13.09    0.47 
   4  -4  -1    0.37    0.08 
  -4   4   1    0.30    0.08 
   3  -4  -1    5.63    0.24 
  -3   4   1    5.04    0.24 
  -3   4   1    5.73    0.23 
   2  -4  -1  107.65    2.44 
  -2   4   1  100.42    2.40 
  -2   4   1  105.83    2.43 
   1  -4  -1   11.43    0.36 
   1  -4  -1   11.06    0.33 
  -1   4   1   10.98    0.36 
  -1   4   1   12.96    0.32 
   0  -4  -1    0.13    0.05 
   0  -4  -1    0.13    0.05 
   0   4   1    0.27    0.06 
  -1  -4  -1  535.07   12.27 
  -1  -4  -1  541.28   12.25 
   1   4   1  557.06   12.30 
   1   4   1  542.24   12.04 
  -2  -4  -1    1.59    0.12 
  -2  -4  -1    1.64    0.10 
   2   4   1    1.67    0.08 
   2   4   1    1.31    0.11 
  -3  -4  -1   20.59    0.61 
  -3  -4  -1   21.18    0.55 
   3   4   1   20.31    0.53 
   3   4   1   20.95    0.60 
  -4  -4  -1    0.11    0.05 
  -4  -4  -1    0.09    0.06 
   4   4   1    0.03    0.05 
   4   4   1    0.09    0.04 
  -5  -4  -1    8.12    0.34 
   5   4   1    7.64    0.33 
   5   4   1    7.56    0.30 
  -6  -4  -1    1.19    0.16 
   6   4   1    1.22    0.16 
   6   4   1    1.25    0.15 
  -7  -4  -1    0.13    0.08 
   7   4   1    0.06    0.09 
   7   4   1    0.03    0.07 
   8   4   1    6.37    0.38 
   8  -5  -1    0.63    0.16 
  -8   5   1    0.45    0.15 
   7  -5  -1    4.81    0.32 
   7  -5  -1    4.17    0.29 
  -7   5   1    4.51    0.31 
   6  -5  -1    0.76    0.14 
   6  -5  -1    0.78    0.14 
  -6   5   1    0.53    0.13 
   5  -5  -1   11.24    0.43 
   5  -5  -1   10.59    0.42 
  -5   5   1   11.04    0.44 
   4  -5  -1   11.79    0.41 
   4  -5  -1   11.42    0.43 
  -4   5   1   11.54    0.43 
   3  -5  -1    3.29    0.20 
  -3   5   1    3.59    0.21 
  -3   5   1    4.00    0.19 
   2  -5  -1    6.86    0.28 
  -2   5   1    6.62    0.28 
  -2   5   1    6.50    0.24 
   1  -5  -1  177.42    4.05 
   1  -5  -1  184.63    4.01 
  -1   5   1  175.94    4.06 
  -1   5   1  173.63    3.97 
   0  -5  -1    4.34    0.19 
   0  -5  -1    4.24    0.19 
   0   5   1    4.38    0.20 
   0   5   1    3.99    0.12 
  -1  -5  -1    0.29    0.07 
  -1  -5  -1    0.20    0.05 
   1   5   1    0.09    0.05 
  -2  -5  -1    0.12    0.06 
  -2  -5  -1    0.12    0.05 
   2   5   1    0.16    0.06 
  -3  -5  -1   55.11    1.31 
  -3  -5  -1   53.05    1.37 
   3   5   1   53.58    1.35 
  -4  -5  -1   74.54    1.86 
  -4  -5  -1   75.86    1.78 
   4   5   1   74.34    1.84 
  -5  -5  -1   87.01    2.16 
   5   5   1   86.95    2.14 
  -6  -5  -1    0.22    0.10 
   6   5   1    0.06    0.09 
  -7  -5  -1    4.84    0.31 
   7   5   1    4.90    0.32 
   8   5   1    5.11    0.35 
   8  -6  -1   -0.06    0.10 
   8  -6  -1    0.10    0.11 
  -8   6   1    0.00    0.11 
   7  -6  -1    1.02    0.18 
   7  -6  -1    1.41    0.21 
  -7   6   1    1.05    0.19 
   6  -6  -1   -0.10    0.07 
   6  -6  -1   -0.06    0.08 
  -6   6   1   -0.03    0.09 
   5  -6  -1    3.86    0.26 
   5  -6  -1    3.46    0.23 
  -5   6   1    3.61    0.26 
   4  -6  -1    0.40    0.10 
   4  -6  -1    0.34    0.09 
  -4   6   1    0.28    0.09 
   3  -6  -1    6.81    0.31 
   3  -6  -1    6.96    0.27 
  -3   6   1    6.82    0.31 
   2  -6  -1    6.70    0.24 
   2  -6  -1    6.02    0.28 
  -2   6   1    6.51    0.29 
   1  -6  -1  125.38    3.04 
   1  -6  -1  132.45    3.00 
  -1   6   1  134.17    3.06 
   0  -6  -1   10.38    0.37 
   0  -6  -1   10.75    0.37 
   0   6   1   10.80    0.38 
  -1  -6  -1   94.37    2.19 
  -1  -6  -1   88.30    2.20 
   1   6   1   94.05    2.21 
  -2  -6  -1    3.98    0.22 
  -2  -6  -1    4.00    0.20 
   2   6   1    3.75    0.21 
  -3  -6  -1   18.87    0.56 
  -3  -6  -1   18.94    0.61 
   3   6   1   18.81    0.60 
  -4  -6  -1   84.12    2.06 
  -4  -6  -1   80.23    1.96 
   4   6   1   81.90    2.03 
  -5  -6  -1    3.03    0.23 
   5   6   1    2.89    0.22 
  -6  -6  -1   24.26    0.81 
   6   6   1   25.09    0.81 
  -7  -6  -1    6.40    0.37 
   7   6   1    7.36    0.39 
  -8  -6  -1    0.06    0.12 
   8   6   1    0.15    0.13 
   7  -7  -1    3.61    0.29 
   7  -7  -1    3.81    0.31 
  -7   7   1    3.80    0.31 
   6  -7  -1   -0.14    0.07 
   6  -7  -1   -0.04    0.08 
  -6   7   1    0.00    0.09 
   5  -7  -1    0.27    0.11 
  -5   7   1    0.58    0.14 
   4  -7  -1    2.74    0.22 
  -4   7   1    2.27    0.23 
   3  -7  -1    0.30    0.09 
  -3   7   1   -0.01    0.06 
   2  -7  -1    0.86    0.13 
  -2   7   1    1.10    0.15 
   1  -7  -1   11.94    0.44 
   1  -7  -1   12.04    0.41 
   0  -7  -1    1.31    0.15 
   0  -7  -1    1.65    0.14 
   0   7   1    1.20    0.15 
  -1  -7  -1   58.58    1.45 
  -1  -7  -1   55.70    1.46 
   1   7   1   57.41    1.47 
  -2  -7  -1   40.26    1.04 
  -2  -7  -1   38.87    1.08 
   2   7   1   38.70    1.07 
  -3  -7  -1    6.00    0.31 
  -3  -7  -1    6.54    0.28 
   3   7   1    5.57    0.30 
  -4  -7  -1   10.98    0.46 
   4   7   1   10.67    0.45 
  -5  -7  -1    5.41    0.33 
   5   7   1    5.59    0.32 
  -6  -7  -1   38.58    1.16 
   6   7   1   38.07    1.14 
  -7  -7  -1    8.43    0.45 
   7   7   1    8.29    0.44 
   6  -8  -1    1.21    0.21 
  -6   8   1    0.87    0.18 
   5  -8  -1    2.49    0.26 
  -5   8   1    2.52    0.27 
   4  -8  -1   41.43    1.19 
  -4   8   1   40.87    1.19 
   3  -8  -1   17.55    0.62 
  -3   8   1   16.78    0.62 
   2  -8  -1   27.41    0.83 
  -2   8   1   26.61    0.83 
   1  -8  -1   33.26    0.95 
  -1   8   1   32.35    0.96 
   0  -8  -1    4.64    0.26 
   0  -8  -1    4.35    0.25 
   0   8   1    4.32    0.26 
  -1  -8  -1   16.25    0.53 
  -1  -8  -1   14.66    0.54 
   1   8   1   14.55    0.54 
  -2  -8  -1   17.29    0.56 
  -2  -8  -1   16.21    0.58 
   2   8   1   15.83    0.57 
  -3  -8  -1    6.78    0.36 
  -3  -8  -1    7.13    0.33 
   3   8   1    6.86    0.35 
  -4  -8  -1    1.90    0.24 
   4   8   1    2.95    0.24 
  -5  -8  -1    0.09    0.10 
   5   8   1   -0.01    0.09 
  -6  -8  -1    0.76    0.18 
   6   8   1    1.00    0.19 
  -7  -8  -1    1.36    0.27 
   7   8   1    1.11    0.21 
   5  -9  -1   10.84    0.51 
  -5   9   1   10.28    0.51 
   4  -9  -1    0.05    0.10 
  -4   9   1    0.21    0.11 
   3  -9  -1   14.20    0.57 
  -3   9   1   14.01    0.57 
   2  -9  -1    3.23    0.25 
  -2   9   1    2.86    0.27 
   1  -9  -1   11.19    0.48 
  -1   9   1   11.20    0.48 
   0  -9  -1    1.03    0.16 
   0  -9  -1    1.26    0.17 
   0   9   1    1.24    0.17 
  -1  -9  -1    0.06    0.08 
  -1  -9  -1   -0.04    0.06 
   1   9   1   -0.02    0.08 
  -2  -9  -1    7.04    0.34 
  -2  -9  -1    6.84    0.37 
   2   9   1    6.80    0.37 
  -3  -9  -1    0.08    0.09 
  -3  -9  -1    0.10    0.10 
   3   9   1    0.09    0.09 
  -4  -9  -1    4.18    0.31 
   4   9   1    4.65    0.31 
  -5  -9  -1    0.66    0.17 
   5   9   1    0.77    0.17 
  -6  -9  -1   -0.07    0.18 
   6   9   1    0.12    0.13 
   4 -10  -1    4.29    0.33 
  -4  10   1    3.91    0.32 
   3 -10  -1    4.37    0.32 
  -3  10   1    4.05    0.32 
   2 -10  -1    3.39    0.28 
  -2  10   1    3.09    0.30 
   1 -10  -1    0.44    0.13 
  -1  10   1    0.74    0.16 
   0 -10  -1    1.70    0.21 
   0  10   1    1.83    0.22 
   0  10   1    1.56    0.25 
  -1 -10  -1    0.32    0.13 
  -1 -10  -1    0.68    0.14 
   1  10   1    0.37    0.13 
  -2 -10  -1    1.16    0.17 
  -2 -10  -1    1.11    0.18 
   2  10   1    1.13    0.20 
  -3 -10  -1    0.16    0.11 
   3  10   1    0.04    0.10 
  -4 -10  -1    2.35    0.28 
   4  10   1    2.03    0.26 
   5  10   1    5.93    0.39 
   2 -11  -1    0.39    0.15 
  -2  11   1    0.42    0.15 
   1 -11  -1    6.86    0.41 
  -1  11   1    7.99    0.44 
   0 -11  -1    0.59    0.16 
   0  11   1    0.22    0.13 
  -1 -11  -1    0.04    0.10 
   1  11   1    0.16    0.11 
   1  11   1    0.43    0.14 
  -2 -11  -1    0.08    0.11 
   2  11   1    0.05    0.10 
   3  11   1    2.08    0.27 
   3  10  -2    0.47    0.16 
   3  10  -2    0.36    0.17 
  -3 -10   2    0.20    0.12 
   2  10  -2    0.07    0.12 
   2  10  -2    0.09    0.11 
  -2 -10   2    0.19    0.13 
   1  10  -2   -0.05    0.11 
   1  10  -2    0.06    0.10 
  -1 -10   2    0.04    0.10 
   0  10  -2    1.49    0.21 
   0  10  -2    1.33    0.21 
   0 -10   2    0.89    0.18 
  -1  10  -2    1.17    0.19 
   1 -10   2    1.25    0.20 
  -2  10  -2    0.73    0.18 
   2 -10   2    0.70    0.17 
  -3  10  -2    0.31    0.16 
   3 -10   2    0.33    0.14 
   4   9  -2    1.85    0.25 
  -4  -9   2    2.31    0.26 
   3   9  -2    5.08    0.33 
   3   9  -2    4.98    0.35 
  -3  -9   2    5.09    0.33 
   2   9  -2    8.59    0.42 
   2   9  -2    7.49    0.41 
  -2  -9   2    7.27    0.39 
   1   9  -2    0.33    0.12 
   1   9  -2    0.29    0.11 
  -1  -9   2    0.36    0.11 
   0   9  -2    5.93    0.34 
   0   9  -2    5.69    0.35 
   0  -9   2    5.92    0.35 
  -1   9  -2    5.36    0.33 
   1  -9   2    5.49    0.35 
  -2   9  -2    0.33    0.13 
   2  -9   2    0.33    0.12 
  -3   9  -2   -0.08    0.09 
   3  -9   2   -0.07    0.09 
  -4   9  -2    0.52    0.16 
   4  -9   2    0.53    0.16 
  -5   9  -2    0.66    0.19 
   5  -9   2    0.56    0.16 
   5   8  -2    4.77    0.35 
   4   8  -2    6.86    0.40 
   4   8  -2    6.91    0.37 
  -4  -8   2    7.45    0.38 
   3   8  -2    2.16    0.23 
   3   8  -2    1.65    0.22 
  -3  -8   2    2.02    0.22 
   2   8  -2    2.53    0.26 
   2   8  -2    2.71    0.25 
  -2  -8   2    2.42    0.24 
   1   8  -2    0.04    0.08 
   1   8  -2    0.11    0.09 
  -1  -8   2    0.06    0.08 
   0   8  -2    0.06    0.08 
   0   8  -2    0.28    0.11 
   0  -8   2    0.25    0.10 
  -1   8  -2    0.83    0.14 
  -1   8  -2    0.61    0.13 
   1  -8   2    0.82    0.15 
  -2   8  -2    7.33    0.37 
   2  -8   2    6.56    0.36 
  -3   8  -2    4.71    0.31 
   3  -8   2    4.75    0.31 
  -4   8  -2   -0.09    0.09 
   4  -8   2    0.07    0.10 
  -5   8  -2   11.64    0.53 
   5  -8   2   10.36    0.50 
  -6   8  -2    8.72    0.48 
   6  -8   2    9.30    0.47 
   6   7  -2    0.88    0.19 
   5   7  -2    2.95    0.24 
   5   7  -2    3.27    0.28 
   4   7  -2    8.50    0.39 
   4   7  -2    8.79    0.43 
  -4  -7   2    8.53    0.39 
   3   7  -2    7.29    0.35 
   3   7  -2    7.15    0.37 
  -3  -7   2    7.77    0.36 
   2   7  -2    4.04    0.25 
   2   7  -2    3.89    0.26 
  -2  -7   2    4.10    0.26 
   1   7  -2    0.32    0.10 
   1   7  -2    0.24    0.09 
  -1  -7   2    0.29    0.10 
   0   7  -2    7.56    0.34 
   0   7  -2    7.34    0.34 
   0  -7   2    7.38    0.34 
  -1   7  -2    8.16    0.36 
  -1   7  -2    8.51    0.35 
   1  -7   2    7.73    0.36 
  -2   7  -2    6.25    0.32 
   2  -7   2    6.48    0.33 
  -3   7  -2   -0.02    0.07 
   3  -7   2    0.00    0.08 
  -4   7  -2    9.81    0.45 
   4  -7   2   10.54    0.45 
  -5   7  -2    0.67    0.15 
   5  -7   2    0.59    0.14 
  -6   7  -2    8.27    0.44 
   6  -7   2    8.28    0.42 
   7  -7   2    3.88    0.31 
   7   6  -2    4.54    0.33 
   6   6  -2    2.17    0.26 
   5   6  -2    5.19    0.33 
   5   6  -2    5.34    0.29 
  -5  -6   2    4.91    0.28 
   4   6  -2   -0.05    0.07 
   4   6  -2   -0.02    0.06 
  -4  -6   2    0.02    0.06 
   3   6  -2   35.50    1.05 
   3   6  -2   36.91    1.00 
  -3  -6   2   36.67    1.01 
   2   6  -2   14.51    0.48 
   2   6  -2   13.46    0.51 
  -2  -6   2   14.35    0.49 
   1   6  -2    1.09    0.14 
   1   6  -2    0.72    0.11 
  -1  -6   2    1.03    0.14 
   0   6  -2    1.31    0.15 
   0   6  -2    1.26    0.14 
   0  -6   2    1.12    0.14 
  -1   6  -2    3.63    0.22 
  -1   6  -2    3.88    0.21 
   1  -6   2    4.05    0.23 
  -2   6  -2    0.13    0.06 
  -2   6  -2    0.01    0.06 
   2  -6   2    0.07    0.06 
  -3   6  -2    0.63    0.12 
   3  -6   2    0.63    0.12 
  -4   6  -2   24.62    0.79 
   4  -6   2   26.02    0.79 
  -5   6  -2    3.81    0.27 
   5  -6   2    3.73    0.25 
  -6   6  -2    1.80    0.23 
   6  -6   2    1.55    0.20 
   6  -6   2    1.93    0.22 
  -7   6  -2    0.31    0.14 
   7  -6   2    0.31    0.14 
   7  -6   2    0.67    0.16 
   7   5  -2    8.62    0.43 
   6   5  -2    0.97    0.17 
   6   5  -2    0.85    0.14 
   5   5  -2   36.11    1.05 
   5   5  -2   34.30    0.98 
  -5  -5   2   35.35    0.99 
   4   5  -2   49.20    1.34 
   4   5  -2   49.20    1.28 
  -4  -5   2   49.55    1.28 
   3   5  -2    0.60    0.10 
   3   5  -2    0.47    0.11 
  -3  -5   2    0.50    0.10 
   2   5  -2   19.31    0.61 
   2   5  -2   19.05    0.57 
  -2  -5   2   20.00    0.60 
   1   5  -2   26.17    0.72 
   1   5  -2   26.21    0.75 
  -1  -5   2   25.81    0.74 
   0   5  -2    6.71    0.27 
   0   5  -2    6.91    0.28 
   0  -5   2    6.57    0.28 
  -1   5  -2   40.75    1.04 
  -1   5  -2   40.47    1.03 
   1  -5   2   39.25    1.05 
  -2   5  -2    2.10    0.14 
  -2   5  -2    2.20    0.16 
   2  -5   2    2.10    0.16 
   2  -5   2    2.18    0.12 
  -3   5  -2   49.22    1.28 
   3  -5   2   49.76    1.28 
   3  -5   2   48.95    1.22 
  -4   5  -2    0.39    0.10 
   4  -5   2    0.39    0.09 
   4  -5   2    0.50    0.09 
  -5   5  -2    0.87    0.15 
   5  -5   2    0.52    0.11 
   5  -5   2    0.56    0.12 
  -6   5  -2    4.46    0.29 
   6  -5   2    3.94    0.26 
   6  -5   2    3.68    0.25 
  -7   5  -2    1.31    0.19 
   7  -5   2    1.78    0.21 
  -8   5  -2    5.13    0.36 
   8  -5   2    4.85    0.34 
   6   4  -2    2.57    0.20 
   6   4  -2    2.73    0.21 
   5   4  -2    0.29    0.10 
   5   4  -2    0.18    0.08 
  -5  -4   2    0.40    0.10 
   4   4  -2   20.79    0.63 
  -4  -4   2   21.91    0.64 
   3   4  -2    0.03    0.04 
  -3  -4   2    0.06    0.05 
   2   4  -2    2.17    0.16 
   2   4  -2    2.38    0.14 
  -2  -4   2    2.23    0.15 
   1   4  -2   53.80    1.36 
   1   4  -2   55.81    1.33 
  -1  -4   2   55.10    1.23 
  -1  -4   2   54.65    1.35 
   0   4  -2   10.84    0.36 
   0   4  -2   11.14    0.35 
   0  -4   2   10.78    0.36 
   0  -4   2   11.14    0.27 
  -1   4  -2   63.70    1.50 
  -1   4  -2   63.14    1.51 
   1  -4   2   61.23    1.43 
  -2   4  -2   35.32    0.91 
  -2   4  -2   34.68    0.87 
   2  -4   2   32.32    0.90 
   2  -4   2   36.14    0.85 
  -3   4  -2    0.40    0.06 
  -3   4  -2    0.67    0.10 
   3  -4   2    0.38    0.07 
   3  -4   2    0.41    0.08 
  -4   4  -2   -0.04    0.06 
   4  -4   2    0.07    0.06 
   4  -4   2    0.02    0.05 
  -5   4  -2   12.38    0.48 
   5  -4   2   13.62    0.46 
   5  -4   2   12.87    0.46 
  -6   4  -2   23.13    0.76 
   6  -4   2   22.65    0.72 
   6  -4   2   23.84    0.74 
  -7   4  -2    3.87    0.29 
   7  -4   2    3.91    0.28 
  -8   4  -2   -0.04    0.09 
   8  -4   2   -0.03    0.09 
   7   3  -2    1.51    0.18 
   7   3  -2    1.30    0.18 
   6   3  -2    0.93    0.13 
   6   3  -2    0.91    0.13 
   6   3  -2    0.91    0.14 
   6   3  -2    1.18    0.16 
   5   3  -2   65.69    1.63 
   5   3  -2   68.34    1.68 
   5   3  -2   66.00    1.65 
  -5  -3   2   66.78    1.66 
   4   3  -2    0.75    0.10 
  -4  -3   2    0.83    0.10 
  -4  -3   2    0.69    0.10 
   3   3  -2    1.14    0.11 
  -3  -3   2    0.89    0.10 
  -3  -3   2    1.09    0.09 
   2   3  -2    3.49    0.15 
   2   3  -2    3.41    0.18 
  -2  -3   2    3.70    0.14 
  -2  -3   2    3.47    0.17 
   1   3  -2   55.95    1.35 
   1   3  -2   55.38    1.32 
  -1  -3   2   54.68    1.34 
  -1  -3   2   56.86    1.26 
   0   3  -2    0.50    0.07 
   0   3  -2    0.55    0.08 
   0  -3   2    0.48    0.07 
   0  -3   2    0.49    0.04 
  -1   3  -2   42.26    1.01 
  -1   3  -2   40.47    1.01 
   1  -3   2   42.26    1.03 
   1  -3   2   40.95    0.97 
  -2   3  -2    0.01    0.04 
  -2   3  -2    0.08    0.04 
   2  -3   2    0.13    0.05 
   2  -3   2    0.23    0.05 
  -3   3  -2    0.17    0.04 
  -3   3  -2    0.15    0.06 
   3  -3   2    0.12    0.05 
   3  -3   2    0.11    0.05 
  -4   3  -2    2.44    0.17 
   4  -3   2    2.35    0.16 
   4  -3   2    2.57    0.16 
  -5   3  -2    3.98    0.24 
   5  -3   2    4.03    0.21 
   5  -3   2    4.13    0.23 
  -6   3  -2    0.87    0.15 
   6  -3   2    0.85    0.14 
   6  -3   2    1.01    0.13 
  -7   3  -2    5.16    0.32 
   7  -3   2    5.87    0.33 
  -8   3  -2    3.68    0.30 
   8  -3   2    3.61    0.29 
   8   2  -2   -0.02    0.08 
   7   2  -2   14.91    0.55 
  -7  -2   2   14.70    0.54 
   6   2  -2    0.72    0.12 
   6   2  -2    0.75    0.11 
   6   2  -2    0.85    0.13 
  -6  -2   2    0.86    0.13 
   5   2  -2    5.19    0.25 
   5   2  -2    5.34    0.25 
  -5  -2   2    5.20    0.24 
  -4  -2   2   14.20    0.45 
  -4  -2   2   14.20    0.44 
   3   2  -2    0.03    0.03 
  -3  -2   2    0.04    0.03 
  -3  -2   2    0.11    0.04 
   2   2  -2   67.94    1.62 
   2   2  -2   68.37    1.58 
  -2  -2   2   69.03    1.57 
  -2  -2   2   67.59    1.61 
   1   2  -2  223.28    4.95 
  -1  -2   2  222.51    4.96 
  -1  -2   2  221.82    4.98 
   0   2  -2    4.83    0.18 
   0   2  -2    4.96    0.16 
   0  -2   2    4.91    0.14 
  -1   2  -2    2.86    0.13 
  -1   2  -2    2.97    0.13 
   1  -2   2    3.27    0.14 
   1  -2   2    3.08    0.11 
  -2   2  -2   39.01    0.96 
  -2   2  -2   38.95    0.92 
   2  -2   2   37.91    0.94 
   2  -2   2   39.79    0.95 
  -3   2  -2   13.51    0.36 
  -3   2  -2   13.43    0.41 
   3  -2   2   13.35    0.40 
   3  -2   2   12.79    0.39 
  -4   2  -2    0.21    0.04 
  -4   2  -2    0.06    0.05 
   4  -2   2    0.03    0.04 
   4  -2   2    0.11    0.06 
  -5   2  -2    0.05    0.07 
   5  -2   2    0.00    0.04 
   5  -2   2   -0.01    0.05 
  -6   2  -2    0.63    0.12 
   6  -2   2    0.90    0.12 
   6  -2   2    0.80    0.13 
  -7   2  -2   11.85    0.49 
   7  -2   2   11.88    0.49 
  -8   2  -2    2.73    0.28 
   8  -2   2    2.32    0.26 
  -9   2  -2    0.09    0.12 
   9  -2   2   -0.03    0.10 
   9   1  -2    0.56    0.16 
   8   1  -2    3.52    0.28 
  -8  -1   2    2.92    0.27 
   7   1  -2   10.54    0.45 
  -7  -1   2   10.45    0.44 
   6   1  -2    1.45    0.15 
   6   1  -2    1.53    0.18 
  -6  -1   2    1.46    0.16 
   5   1  -2    2.11    0.15 
   5   1  -2    1.74    0.13 
  -5  -1   2    2.36    0.16 
  -5  -1   2    2.17    0.16 
   4   1  -2   72.72    1.72 
   4   1  -2   73.09    1.74 
  -4  -1   2   72.05    1.72 
  -4  -1   2   72.16    1.74 
   3   1  -2   39.03    0.96 
  -3  -1   2   38.87    0.96 
  -3  -1   2   38.60    0.96 
  -3  -1   2   37.78    0.94 
   2   1  -2    7.81    0.25 
  -2  -1   2    7.49    0.24 
  -2  -1   2    8.00    0.23 
  -2  -1   2    7.55    0.25 
   1   1  -2   39.13    0.91 
   1   1  -2   40.25    0.95 
  -1  -1   2   39.24    0.95 
  -1  -1   2   40.26    0.93 
   0   1  -2   59.06    1.30 
   0   1  -2   57.31    1.33 
   0  -1   2   55.43    1.33 
   0  -1   2   59.20    1.31 
  -1   1  -2  226.71    4.87 
  -1   1  -2  217.50    4.91 
   1  -1   2  213.61    4.87 
   1  -1   2  219.33    4.99 
  -2   1  -2  393.51    9.12 
  -2   1  -2  430.49    9.20 
   2  -1   2  408.15    9.19 
   2  -1   2  414.83    9.36 
  -3   1  -2  140.01    3.12 
  -3   1  -2  135.93    3.06 
   3  -1   2  140.50    3.08 
   3  -1   2  129.63    3.11 
  -4   1  -2    0.64    0.10 
  -4   1  -2    0.63    0.07 
   4  -1   2    0.61    0.07 
   4  -1   2    0.69    0.10 
  -5   1  -2   14.42    0.49 
   5  -1   2   15.11    0.49 
   5  -1   2   14.66    0.43 
  -6   1  -2    0.52    0.12 
   6  -1   2    0.43    0.11 
  -7   1  -2    0.26    0.10 
   7  -1   2    0.31    0.10 
  -8   1  -2    1.13    0.19 
   8  -1   2    1.01    0.18 
  -9   1  -2    0.23    0.14 
   9  -1   2    0.67    0.17 
   9   0  -2    0.39    0.15 
   8   0  -2    0.21    0.11 
  -8   0   2    0.14    0.11 
   7   0  -2    7.82    0.38 
   7   0  -2    7.49    0.34 
  -7   0   2    7.86    0.36 
   6   0  -2   19.82    0.65 
   6   0  -2   19.28    0.61 
  -6   0   2   19.53    0.62 
   5   0  -2    5.27    0.24 
  -5   0   2    5.26    0.26 
  -5   0   2    4.88    0.23 
   4   0  -2   66.84    1.56 
   4   0  -2   63.08    1.51 
  -4   0   2   64.06    1.57 
  -4   0   2   63.49    1.54 
   3   0  -2    8.50    0.24 
   3   0  -2    6.97    0.25 
  -3   0   2    6.91    0.26 
  -3   0   2    7.05    0.24 
   2   0  -2  611.71   13.59 
   2   0  -2  611.79   13.77 
  -2   0   2  596.69   13.73 
  -2   0   2  609.41   13.60 
   1   0  -2    4.82    0.15 
  -1   0   2    4.44    0.16 
  -1   0   2    4.64    0.13 
  -1   0   2    4.50    0.15 
   0   0  -2    1.23    0.07 
   0   0   2    1.31    0.06 
  -1   0  -2  878.05   19.63 
  -1   0  -2  881.65   19.67 
   1   0   2  889.65   19.70 
  -2   0  -2  354.04    7.95 
  -2   0  -2  363.19    8.02 
   2   0   2  341.08    8.03 
   2   0   2  360.27    7.93 
  -3   0  -2    4.64    0.19 
  -3   0  -2    4.45    0.17 
   3   0   2    4.68    0.19 
   3   0   2    5.19    0.16 
  -4   0  -2   32.34    0.79 
  -4   0  -2   30.82    0.83 
   4   0   2   31.42    0.83 
   4   0   2   32.00    0.77 
  -5   0  -2    5.56    0.21 
  -5   0  -2    4.70    0.24 
   5   0   2    5.12    0.20 
   5   0   2    5.20    0.25 
  -6   0  -2   10.41    0.41 
   6   0   2   10.29    0.41 
  -7   0  -2    0.22    0.09 
   7   0   2    0.04    0.08 
  -8   0  -2    0.79    0.16 
   8   0   2    0.56    0.14 
  -9   0  -2    2.01    0.25 
   9   0   2    1.76    0.23 
   9  -1  -2   -0.02    0.11 
  -9   1   2   -0.09    0.11 
   8  -1  -2    2.29    0.25 
  -8   1   2    2.75    0.26 
   7  -1  -2    9.34    0.43 
   7  -1  -2    9.68    0.40 
  -7   1   2    9.38    0.41 
   6  -1  -2   47.61    1.25 
  -6   1   2   47.60    1.25 
   5  -1  -2    0.29    0.07 
  -5   1   2    0.33    0.08 
  -5   1   2    0.24    0.08 
   4  -1  -2  268.38    5.96 
   4  -1  -2  273.17    5.88 
  -4   1   2  257.48    5.94 
  -4   1   2  259.35    5.97 
   3  -1  -2   32.44    0.76 
   3  -1  -2   31.69    0.82 
  -3   1   2   31.88    0.80 
  -3   1   2   33.38    0.84 
   2  -1  -2  249.78    5.46 
   2  -1  -2  245.45    5.43 
  -2   1   2  238.43    5.45 
  -2   1   2  239.73    5.43 
   1  -1  -2   -0.15    0.04 
   1  -1  -2    0.03    0.03 
  -1   1   2   -0.13    0.04 
  -1   1   2   -0.06    0.03 
   0  -1  -2  147.21    3.18 
   0  -1  -2  139.32    3.17 
   0   1   2  142.33    3.20 
   0   1   2  142.62    3.18 
  -1  -1  -2  232.57    5.22 
  -1  -1  -2  230.78    5.19 
   1   1   2  232.07    5.18 
  -2  -1  -2  111.13    2.53 
  -2  -1  -2  113.38    2.52 
   2   1   2  110.60    2.53 
  -3  -1  -2    5.11    0.19 
  -3  -1  -2    5.32    0.21 
   3   1   2    5.33    0.20 
   3   1   2    5.24    0.15 
  -4  -1  -2    0.06    0.05 
  -4  -1  -2    0.04    0.04 
   4   1   2    0.09    0.03 
   4   1   2    0.31    0.07 
  -5  -1  -2   24.40    0.65 
  -5  -1  -2   22.95    0.69 
   5   1   2   23.94    0.69 
  -6  -1  -2    3.22    0.21 
   6   1   2    3.70    0.23 
  -7  -1  -2    1.22    0.17 
   7   1   2    1.30    0.18 
  -8  -1  -2    0.00    0.09 
   8   1   2   -0.01    0.09 
  -9  -1  -2    0.10    0.12 
   9   1   2    0.22    0.13 
  -9   2   2    0.70    0.17 
   8  -2  -2    0.39    0.13 
  -8   2   2    0.39    0.13 
   7  -2  -2    2.13    0.21 
   7  -2  -2    1.59    0.20 
  -7   2   2    1.42    0.18 
   6  -2  -2   28.53    0.81 
  -6   2   2   26.40    0.80 
   5  -2  -2   10.09    0.38 
  -5   2   2   10.77    0.39 
  -5   2   2   10.46    0.40 
   4  -2  -2  175.34    4.12 
  -4   2   2  189.29    4.12 
  -4   2   2  177.75    4.14 
   3  -2  -2   18.91    0.42 
   3  -2  -2   18.05    0.51 
  -3   2   2   16.53    0.51 
  -3   2   2   17.98    0.50 
   2  -2  -2  157.41    3.36 
   2  -2  -2  151.34    3.44 
  -2   2   2  146.75    3.42 
  -2   2   2  152.42    3.44 
   1  -2  -2    0.82    0.07 
   1  -2  -2    0.91    0.05 
  -1   2   2    0.97    0.07 
  -1   2   2    0.92    0.06 
   0  -2  -2  112.00    2.39 
   0  -2  -2  103.27    2.38 
   0   2   2  104.68    2.38 
   0   2   2  104.51    2.38 
  -1  -2  -2    0.29    0.03 
  -1  -2  -2    0.30    0.05 
   1   2   2    0.30    0.05 
   1   2   2    0.31    0.04 
  -2  -2  -2   21.78    0.57 
  -2  -2  -2   21.69    0.51 
  -2  -2  -2   22.23    0.57 
   2   2   2   22.28    0.55 
  -3  -2  -2    2.47    0.13 
   3   2   2    2.43    0.13 
   3   2   2    2.46    0.09 
  -4  -2  -2   31.95    0.82 
  -4  -2  -2   30.38    0.83 
   4   2   2   31.25    0.74 
   4   2   2   31.40    0.82 
  -5  -2  -2   12.33    0.41 
  -5  -2  -2   12.66    0.43 
   5   2   2   12.70    0.43 
  -6  -2  -2    5.34    0.25 
  -6  -2  -2    5.54    0.28 
   6   2   2    5.78    0.28 
  -7  -2  -2    5.52    0.31 
   7   2   2    5.37    0.30 
  -8  -2  -2   -0.04    0.09 
   8   2   2    0.04    0.09 
  -9  -2  -2    0.90    0.18 
   9   2   2    0.66    0.17 
   8  -3  -2    9.75    0.48 
  -8   3   2    9.67    0.46 
   7  -3  -2    2.03    0.21 
   7  -3  -2    1.96    0.22 
  -7   3   2    2.30    0.24 
   6  -3  -2    6.48    0.31 
   6  -3  -2    5.96    0.32 
  -6   3   2    6.22    0.31 
   5  -3  -2    2.33    0.17 
  -5   3   2    2.18    0.18 
  -5   3   2    2.41    0.17 
   4  -3  -2  111.31    2.66 
  -4   3   2  115.12    2.66 
  -4   3   2  113.67    2.67 
   3  -3  -2   41.33    1.04 
  -3   3   2   41.21    1.04 
  -3   3   2   40.98    1.03 
   2  -3  -2    8.17    0.28 
   2  -3  -2    7.79    0.21 
  -2   3   2    8.82    0.28 
  -2   3   2    8.03    0.27 
   1  -3  -2   51.05    1.19 
   1  -3  -2   50.66    1.23 
  -1   3   2   51.90    1.22 
  -1   3   2   53.65    1.21 
   0  -3  -2  196.11    4.38 
   0  -3  -2  196.26    4.38 
   0   3   2  194.00    4.39 
   0   3   2  198.61    4.36 
  -1  -3  -2   21.99    0.58 
  -1  -3  -2   23.69    0.56 
   1   3   2   22.27    0.58 
   1   3   2   22.80    0.55 
  -2  -3  -2  210.06    4.59 
  -2  -3  -2  211.18    4.66 
   2   3   2  205.50    4.65 
   2   3   2  201.35    4.61 
  -3  -3  -2   16.96    0.50 
  -3  -3  -2   17.88    0.43 
   3   3   2   17.51    0.47 
   3   3   2   16.06    0.49 
  -4  -3  -2   23.35    0.58 
  -4  -3  -2   23.34    0.66 
  -4  -3  -2   22.94    0.65 
   4   3   2   23.14    0.64 
  -5  -3  -2   15.62    0.50 
  -5  -3  -2   16.18    0.52 
   5   3   2   15.97    0.50 
  -6  -3  -2    2.22    0.18 
  -6  -3  -2    2.43    0.19 
   6   3   2    1.94    0.19 
  -7  -3  -2    5.19    0.30 
   7   3   2    5.06    0.29 
  -8  -3  -2   16.13    0.61 
   8   3   2   14.96    0.59 
  -9  -3  -2    3.42    0.32 
   9   3   2    3.91    0.30 
   8  -4  -2    4.70    0.33 
   8  -4  -2    4.28    0.31 
  -8   4   2    3.87    0.30 
   7  -4  -2    1.56    0.20 
   7  -4  -2    2.06    0.24 
  -7   4   2    2.34    0.24 
   6  -4  -2    4.78    0.29 
   6  -4  -2    5.25    0.29 
  -6   4   2    5.24    0.29 
   5  -4  -2    1.02    0.14 
  -5   4   2    0.92    0.14 
  -5   4   2    0.87    0.13 
   4  -4  -2    6.22    0.28 
  -4   4   2    6.26    0.28 
  -4   4   2    6.17    0.28 
   3  -4  -2    3.23    0.18 
  -3   4   2    3.76    0.19 
  -3   4   2    3.05    0.18 
   2  -4  -2   15.61    0.38 
   2  -4  -2   14.79    0.45 
  -2   4   2   14.65    0.44 
  -2   4   2   14.30    0.43 
   1  -4  -2    9.76    0.28 
   1  -4  -2    9.48    0.31 
  -1   4   2   10.10    0.29 
  -1   4   2    9.17    0.31 
   0  -4  -2   19.17    0.53 
   0  -4  -2   20.83    0.53 
   0   4   2   19.66    0.54 
   0   4   2   20.53    0.50 
  -1  -4  -2   18.15    0.50 
  -1  -4  -2   17.82    0.47 
   1   4   2   17.46    0.50 
   1   4   2   17.77    0.44 
  -2  -4  -2   51.24    1.19 
  -2  -4  -2   51.77    1.25 
   2   4   2   48.68    1.23 
   2   4   2   50.79    1.18 
  -3  -4  -2  127.63    2.95 
  -3  -4  -2  123.79    2.86 
   3   4   2  126.48    2.94 
   3   4   2  129.38    2.88 
  -4  -4  -2   11.89    0.34 
  -4  -4  -2   11.98    0.41 
   4   4   2   11.59    0.37 
  -5  -4  -2   10.15    0.39 
   5   4   2   10.05    0.36 
   5   4   2    9.56    0.39 
  -6  -4  -2    0.18    0.09 
   6   4   2    0.04    0.05 
   6   4   2    0.26    0.10 
  -7  -4  -2   37.59    1.06 
   7   4   2   36.97    1.09 
   7   4   2   36.19    1.04 
   8   4   2    8.77    0.45 
   8   4   2    8.55    0.41 
   9   4   2    0.58    0.17 
   8  -5  -2    0.28    0.13 
   8  -5  -2    0.37    0.14 
  -8   5   2    0.42    0.15 
   7  -5  -2    3.43    0.27 
   7  -5  -2    3.24    0.27 
  -7   5   2    3.88    0.28 
   6  -5  -2    0.63    0.13 
   6  -5  -2    0.64    0.13 
  -6   5   2    0.69    0.14 
   5  -5  -2    8.16    0.36 
  -5   5   2    7.93    0.36 
   4  -5  -2    1.14    0.15 
  -4   5   2    0.93    0.13 
  -4   5   2    1.29    0.15 
   3  -5  -2   25.47    0.74 
  -3   5   2   27.37    0.73 
  -3   5   2   25.83    0.75 
   2  -5  -2   10.42    0.30 
   2  -5  -2   10.59    0.37 
  -2   5   2   10.48    0.37 
  -2   5   2   10.13    0.33 
   1  -5  -2   44.61    1.11 
   1  -5  -2   47.73    1.15 
  -1   5   2   44.94    1.09 
  -1   5   2   47.08    1.16 
   0  -5  -2   72.17    1.67 
   0  -5  -2   69.46    1.67 
   0   5   2   69.96    1.69 
   0   5   2   70.20    1.61 
  -1  -5  -2   22.17    0.60 
  -1  -5  -2   22.46    0.63 
   1   5   2   23.08    0.55 
   1   5   2   22.83    0.63 
  -2  -5  -2    3.26    0.18 
  -2  -5  -2    3.26    0.15 
   2   5   2    3.14    0.12 
   2   5   2    3.69    0.19 
  -3  -5  -2   64.23    1.59 
  -3  -5  -2   63.97    1.51 
   3   5   2   64.07    1.58 
   3   5   2   63.66    1.49 
  -4  -5  -2   17.51    0.57 
   4   5   2   16.40    0.55 
   4   5   2   17.45    0.49 
  -5  -5  -2   15.39    0.55 
   5   5   2   14.81    0.53 
  -6  -5  -2    4.36    0.27 
   6   5   2    4.27    0.28 
  -7  -5  -2   14.06    0.56 
   7   5   2   14.90    0.58 
   8   5   2    1.84    0.24 
   7  -6  -2    4.46    0.31 
   7  -6  -2    4.21    0.30 
  -7   6   2    4.31    0.31 
   6  -6  -2   -0.02    0.08 
   6  -6  -2   -0.03    0.08 
  -6   6   2    0.05    0.09 
   5  -6  -2    2.60    0.21 
   5  -6  -2    2.57    0.21 
  -5   6   2    2.58    0.22 
   4  -6  -2    0.57    0.12 
  -4   6   2    0.69    0.12 
  -4   6   2    0.68    0.12 
   3  -6  -2   19.40    0.63 
  -3   6   2   20.82    0.59 
  -3   6   2   19.21    0.62 
   2  -6  -2    1.94    0.16 
  -2   6   2    1.89    0.13 
   1  -6  -2   84.71    2.01 
   1  -6  -2   82.86    2.06 
  -1   6   2   88.33    1.98 
  -1   6   2   87.91    2.07 
   0  -6  -2    2.97    0.17 
   0  -6  -2    3.17    0.17 
   0   6   2    2.97    0.18 
  -1  -6  -2    1.74    0.14 
  -1  -6  -2    2.11    0.14 
   1   6   2    1.70    0.14 
  -2  -6  -2   34.51    0.92 
  -2  -6  -2   31.90    0.85 
   2   6   2   32.32    0.90 
  -3  -6  -2    7.57    0.28 
  -3  -6  -2    7.38    0.34 
   3   6   2    7.60    0.32 
  -4  -6  -2   -0.07    0.06 
   4   6   2   -0.10    0.06 
  -5  -6  -2   14.74    0.55 
   5   6   2   15.00    0.55 
  -6  -6  -2    0.48    0.13 
   6   6   2    0.26    0.11 
  -7  -6  -2    0.08    0.10 
   7   6   2    0.06    0.11 
  -8  -6  -2    0.84    0.18 
   8   6   2    1.08    0.20 
   7  -7  -2    2.37    0.26 
   7  -7  -2    2.20    0.27 
  -7   7   2    2.04    0.26 
   6  -7  -2    0.45    0.14 
   6  -7  -2    0.48    0.13 
  -6   7   2    0.43    0.14 
   5  -7  -2    0.72    0.15 
   5  -7  -2    0.51    0.12 
  -5   7   2    0.58    0.15 
   4  -7  -2    1.25    0.17 
   4  -7  -2    1.23    0.15 
  -4   7   2    1.27    0.17 
   3  -7  -2   23.00    0.73 
  -3   7   2   23.59    0.73 
   2  -7  -2   32.93    0.93 
  -2   7   2   32.08    0.92 
   1  -7  -2    0.65    0.11 
   1  -7  -2    0.56    0.09 
  -1   7   2    0.45    0.10 
   0  -7  -2   17.80    0.57 
   0  -7  -2   19.34    0.58 
   0   7   2   18.98    0.60 
  -1  -7  -2    6.73    0.29 
  -1  -7  -2    6.74    0.30 
   1   7   2    7.27    0.32 
  -2  -7  -2    2.32    0.16 
  -2  -7  -2    2.33    0.19 
   2   7   2    2.58    0.19 
  -3  -7  -2   13.81    0.51 
  -3  -7  -2   13.65    0.45 
   3   7   2   13.65    0.50 
  -4  -7  -2   39.51    1.11 
   4   7   2   37.33    1.08 
  -5  -7  -2   60.06    1.61 
   5   7   2   59.04    1.58 
  -6  -7  -2    6.06    0.36 
   6   7   2    5.97    0.35 
  -7  -7  -2   -0.05    0.10 
   7   7   2    0.24    0.13 
   6  -8  -2    2.57    0.29 
  -6   8   2    2.73    0.29 
   5  -8  -2    0.09    0.11 
  -5   8   2    0.22    0.12 
   4  -8  -2    4.07    0.29 
  -4   8   2    3.88    0.28 
   3  -8  -2    0.37    0.12 
  -3   8   2    0.23    0.10 
   2  -8  -2   62.91    1.59 
  -2   8   2   59.05    1.59 
   1  -8  -2   20.51    0.67 
   1  -8  -2   20.53    0.66 
  -1   8   2   19.84    0.67 
   0  -8  -2   15.63    0.53 
   0  -8  -2   14.72    0.51 
   0   8   2   15.01    0.54 
  -1  -8  -2    4.41    0.25 
  -1  -8  -2    4.88    0.26 
   1   8   2    4.35    0.27 
  -2  -8  -2   52.56    1.37 
  -2  -8  -2   49.22    1.31 
   2   8   2   51.32    1.37 
  -3  -8  -2    4.22    0.28 
  -3  -8  -2    4.30    0.24 
   3   8   2    4.58    0.28 
  -4  -8  -2   10.59    0.47 
   4   8   2   10.77    0.47 
  -5  -8  -2    4.07    0.30 
   5   8   2    3.82    0.29 
  -6  -8  -2    0.11    0.11 
   6   8   2    0.10    0.11 
  -7  -8  -2   13.15    0.60 
   7   8   2   13.56    0.60 
   5  -9  -2    7.54    0.43 
  -5   9   2    7.52    0.43 
   4  -9  -2    9.71    0.46 
  -4   9   2    9.13    0.45 
   3  -9  -2   32.38    0.99 
  -3   9   2   31.95    1.00 
   2  -9  -2    0.12    0.09 
  -2   9   2    0.07    0.09 
   1  -9  -2   -0.12    0.06 
  -1   9   2    0.01    0.08 
   0  -9  -2    4.83    0.28 
   0  -9  -2    4.25    0.26 
   0   9   2    4.49    0.29 
  -1  -9  -2    1.83    0.19 
  -1  -9  -2    2.28    0.23 
   1   9   2    1.97    0.21 
  -2  -9  -2    4.78    0.30 
  -2  -9  -2    4.62    0.27 
   2   9   2    4.95    0.30 
  -3  -9  -2   12.90    0.53 
   3   9   2   13.04    0.53 
  -4  -9  -2    0.00    0.08 
   4   9   2   -0.02    0.09 
  -5  -9  -2    0.18    0.12 
   5   9   2    0.11    0.12 
  -6  -9  -2    9.52    0.50 
   6   9   2    8.97    0.48 
   4 -10  -2    2.68    0.29 
  -4  10   2    2.52    0.28 
   3 -10  -2    0.23    0.12 
  -3  10   2    0.16    0.12 
   2 -10  -2    2.41    0.26 
  -2  10   2    3.01    0.29 
   1 -10  -2    0.00    0.08 
  -1  10   2   -0.04    0.08 
   0 -10  -2   -0.14    0.07 
   0  10   2   -0.04    0.07 
  -1 -10  -2    5.16    0.31 
  -1 -10  -2    4.89    0.30 
   1  10   2    4.54    0.31 
  -2 -10  -2    0.53    0.14 
  -2 -10  -2    0.44    0.12 
   2  10   2    0.45    0.14 
  -3 -10  -2    1.01    0.19 
   3  10   2    1.05    0.19 
  -4 -10  -2    0.49    0.16 
   4  10   2    0.16    0.12 
  -5 -10  -2   -0.13    0.10 
   5  10   2    0.14    0.12 
   3 -11  -2    0.12    0.13 
  -3  11   2    0.60    0.19 
   2 -11  -2    1.35    0.22 
  -2  11   2    1.19    0.21 
   1 -11  -2    0.15    0.11 
  -1  11   2    0.16    0.12 
   0 -11  -2    0.10    0.10 
   0  11   2   -0.13    0.09 
  -1 -11  -2   -0.12    0.08 
  -1 -11  -2    0.13    0.10 
   1  11   2   -0.13    0.09 
  -2 -11  -2    1.17    0.20 
   2  11   2    0.89    0.19 
  -3 -11  -2    3.39    0.34 
   3  11   2    3.95    0.32 
   2  10  -3    3.18    0.34 
  -2 -10   3    3.81    0.32 
   1  10  -3    0.89    0.19 
   1  10  -3    0.93    0.19 
  -1 -10   3    1.32    0.22 
   0  10  -3   -0.08    0.11 
   0  10  -3    0.05    0.11 
   0 -10   3   -0.06    0.09 
  -1  10  -3   -0.04    0.10 
   1 -10   3    0.02    0.11 
  -2  10  -3    0.06    0.12 
   2 -10   3    0.11    0.12 
  -4  -9   3    0.15    0.11 
   3   9  -3    1.32    0.23 
  -3  -9   3    1.56    0.22 
   2   9  -3    0.10    0.12 
   2   9  -3    0.41    0.13 
  -2  -9   3    0.46    0.14 
   1   9  -3    4.69    0.32 
   1   9  -3    5.59    0.35 
  -1  -9   3    4.61    0.33 
   0   9  -3   14.88    0.60 
   0   9  -3   14.59    0.58 
   0  -9   3   15.24    0.62 
  -1   9  -3    0.09    0.10 
   1  -9   3    0.21    0.11 
  -2   9  -3    0.05    0.11 
   2  -9   3   -0.03    0.10 
  -3   9  -3    4.18    0.31 
   3  -9   3    4.56    0.32 
  -4   9  -3   -0.09    0.11 
   4  -9   3    0.15    0.11 
   5   8  -3    2.19    0.28 
   4   8  -3    4.89    0.35 
  -4  -8   3    4.06    0.31 
   3   8  -3    0.46    0.14 
  -3  -8   3    0.85    0.16 
   2   8  -3    2.61    0.25 
   2   8  -3    2.03    0.24 
  -2  -8   3    2.24    0.24 
   1   8  -3    5.85    0.35 
   1   8  -3    6.25    0.34 
  -1  -8   3    5.95    0.34 
   0   8  -3    0.10    0.09 
   0   8  -3   -0.04    0.08 
   0  -8   3    0.10    0.09 
  -1   8  -3    1.65    0.20 
  -1   8  -3    1.67    0.20 
   1  -8   3    1.85    0.22 
  -2   8  -3    0.49    0.14 
   2  -8   3    0.42    0.13 
  -3   8  -3    5.47    0.33 
   3  -8   3    5.69    0.34 
  -4   8  -3    1.19    0.19 
   4  -8   3    0.88    0.17 
  -5   8  -3    4.98    0.35 
   5  -8   3    4.48    0.33 
   6  -8   3    1.66    0.23 
   6   7  -3    3.95    0.33 
   5   7  -3    2.71    0.29 
  -5  -7   3    2.65    0.26 
   4   7  -3    0.15    0.10 
  -4  -7   3    0.06    0.08 
   3   7  -3    2.03    0.22 
   3   7  -3    2.13    0.21 
  -3  -7   3    2.53    0.25 
   2   7  -3   11.11    0.48 
   2   7  -3   11.38    0.44 
  -2  -7   3   11.57    0.47 
   1   7  -3    3.58    0.23 
   1   7  -3    2.90    0.23 
  -1  -7   3    3.25    0.24 
   0   7  -3    2.60    0.20 
   0   7  -3    2.76    0.21 
   0  -7   3    2.35    0.20 
  -1   7  -3    5.25    0.28 
  -1   7  -3    5.01    0.28 
   1  -7   3    4.98    0.29 
  -2   7  -3   16.89    0.59 
  -2   7  -3   16.60    0.74 
   2  -7   3   16.40    0.59 
  -3   7  -3    1.32    0.18 
   3  -7   3    1.43    0.19 
  -4   7  -3    1.34    0.19 
   4  -7   3    1.09    0.18 
  -5   7  -3    3.37    0.28 
   5  -7   3    2.99    0.29 
  -6   7  -3    1.34    0.22 
   6  -7   3    1.18    0.19 
   7   6  -3    1.82    0.25 
   6   6  -3    2.83    0.28 
   5   6  -3    7.68    0.41 
  -5  -6   3    8.07    0.39 
   4   6  -3    2.19    0.24 
   4   6  -3    1.76    0.19 
  -4  -6   3    2.61    0.21 
   3   6  -3    0.18    0.08 
   3   6  -3    0.16    0.09 
  -3  -6   3    0.12    0.08 
   2   6  -3   14.51    0.50 
   2   6  -3   14.28    0.53 
  -2  -6   3   15.63    0.53 
   1   6  -3    1.10    0.16 
   1   6  -3    0.88    0.13 
  -1  -6   3    0.50    0.11 
   0   6  -3    5.63    0.27 
   0   6  -3    5.28    0.27 
   0  -6   3    4.88    0.27 
  -1   6  -3   -0.03    0.06 
  -1   6  -3   -0.06    0.05 
   1  -6   3    0.18    0.08 
  -2   6  -3    0.77    0.12 
  -2   6  -3    0.77    0.13 
   2  -6   3    0.89    0.14 
  -3   6  -3    8.13    0.37 
   3  -6   3    8.57    0.38 
  -4   6  -3    6.73    0.35 
   4  -6   3    6.77    0.34 
  -5   6  -3    5.60    0.33 
   5  -6   3    5.04    0.30 
  -6   6  -3    1.02    0.18 
   6  -6   3    0.84    0.16 
  -7   6  -3    1.18    0.21 
   7   5  -3    1.28    0.20 
   6   5  -3    8.03    0.41 
   5   5  -3    5.77    0.33 
  -5  -5   3    5.10    0.29 
   4   5  -3    9.54    0.38 
   4   5  -3    9.69    0.42 
  -4  -5   3    9.61    0.40 
   3   5  -3   14.28    0.47 
   3   5  -3   14.21    0.52 
  -3  -5   3   14.49    0.50 
   2   5  -3   31.93    0.92 
   2   5  -3   33.00    0.88 
  -2  -5   3   33.93    0.92 
   1   5  -3   66.30    1.65 
   1   5  -3   67.83    1.70 
  -1  -5   3   69.43    1.69 
   0   5  -3    1.22    0.14 
   0   5  -3    1.02    0.12 
   0  -5   3    1.29    0.14 
  -1   5  -3    0.13    0.06 
  -1   5  -3    0.22    0.07 
   1  -5   3    0.22    0.08 
  -2   5  -3   23.41    0.65 
  -2   5  -3   22.25    0.67 
   2  -5   3   22.11    0.68 
  -3   5  -3    5.28    0.27 
   3  -5   3    5.67    0.23 
   3  -5   3    5.33    0.27 
  -4   5  -3    6.30    0.32 
   4  -5   3    6.38    0.31 
   4  -5   3    6.39    0.28 
  -5   5  -3    0.37    0.11 
   5  -5   3    0.20    0.09 
   5  -5   3    0.21    0.08 
  -6   5  -3    1.60    0.21 
   6  -5   3    1.68    0.19 
   6  -5   3    2.05    0.21 
  -7   5  -3    0.72    0.17 
   7  -5   3    1.03    0.18 
  -8   5  -3    0.14    0.14 
   8  -5   3    0.15    0.13 
   6   4  -3    0.04    0.07 
  -6  -4   3    0.07    0.08 
   5   4  -3    1.85    0.20 
   5   4  -3    1.39    0.16 
  -5  -4   3    1.62    0.18 
   4   4  -3   13.25    0.44 
   4   4  -3   13.05    0.49 
  -4  -4   3   13.60    0.47 
   3   4  -3   73.73    1.82 
   3   4  -3   72.99    1.75 
  -3  -4   3   71.99    1.79 
   2   4  -3   16.51    0.48 
   2   4  -3   15.62    0.51 
  -2  -4   3   16.12    0.51 
   1   4  -3    6.94    0.29 
   1   4  -3    7.14    0.26 
  -1  -4   3    7.47    0.29 
   0   4  -3    6.30    0.24 
   0   4  -3    6.29    0.26 
   0  -4   3    6.26    0.26 
   0  -4   3    5.87    0.18 
  -1   4  -3   44.67    1.11 
  -1   4  -3   44.36    1.11 
   1  -4   3   44.37    1.04 
   1  -4   3   43.13    1.12 
  -2   4  -3    7.46    0.28 
  -2   4  -3    7.49    0.30 
   2  -4   3    7.30    0.30 
   2  -4   3    7.55    0.25 
  -3   4  -3    1.19    0.14 
  -3   4  -3    1.05    0.11 
   3  -4   3    1.25    0.12 
   3  -4   3    1.05    0.12 
  -4   4  -3    0.07    0.07 
   4  -4   3    0.11    0.06 
   4  -4   3    0.13    0.06 
  -5   4  -3    0.10    0.08 
   5  -4   3    0.02    0.06 
   5  -4   3    0.06    0.06 
  -6   4  -3    1.21    0.18 
   6  -4   3    1.17    0.16 
   6  -4   3    1.29    0.18 
  -7   4  -3    1.85    0.24 
   7  -4   3    1.72    0.22 
  -8   4  -3    2.19    0.27 
   8  -4   3    1.84    0.24 
   6   3  -3    7.81    0.47 
   6   3  -3    6.42    0.32 
   6   3  -3    6.70    0.33 
   5   3  -3   13.71    0.46 
   5   3  -3   12.63    0.48 
  -5  -3   3   13.56    0.46 
  -5  -3   3   13.76    0.48 
   4   3  -3    1.05    0.12 
   4   3  -3    1.59    0.16 
  -4  -3   3    1.23    0.13 
  -4  -3   3    1.02    0.13 
   3   3  -3   13.83    0.46 
   3   3  -3   14.69    0.42 
  -3  -3   3   13.51    0.45 
  -3  -3   3   13.62    0.41 
   2   3  -3    0.61    0.07 
   2   3  -3    0.57    0.09 
  -2  -3   3    0.48    0.08 
  -2  -3   3    0.51    0.06 
   1   3  -3   36.83    0.93 
   1   3  -3   34.91    0.87 
  -1  -3   3   35.22    0.92 
  -1  -3   3   35.85    0.85 
   0   3  -3   17.51    0.51 
   0   3  -3   17.15    0.48 
   0  -3   3   18.02    0.44 
  -1   3  -3    3.55    0.17 
  -1   3  -3    3.76    0.17 
   1  -3   3    4.12    0.19 
   1  -3   3    4.04    0.15 
  -2   3  -3    0.80    0.10 
  -2   3  -3    0.88    0.09 
   2  -3   3    0.82    0.10 
   2  -3   3    0.89    0.09 
  -3   3  -3    4.78    0.22 
  -3   3  -3    4.49    0.18 
   3  -3   3    4.37    0.20 
   3  -3   3    4.55    0.21 
  -4   3  -3    0.13    0.06 
   4  -3   3    0.09    0.06 
   4  -3   3    0.17    0.07 
  -5   3  -3    1.27    0.16 
   5  -3   3    1.60    0.15 
   5  -3   3    1.50    0.17 
  -6   3  -3    2.14    0.22 
   6  -3   3    1.57    0.19 
  -7   3  -3    0.02    0.09 
   7  -3   3   -0.03    0.08 
  -8   3  -3    0.21    0.11 
   8  -3   3    0.02    0.10 
   8   2  -3    3.87    0.29 
   7   2  -3    0.45    0.12 
   6   2  -3    3.33    0.22 
   6   2  -3    3.44    0.22 
   6   2  -3    3.45    0.21 
   5   2  -3    0.50    0.09 
   5   2  -3    0.45    0.09 
   5   2  -3    0.52    0.09 
  -5  -2   3    0.59    0.11 
   4   2  -3   10.73    0.34 
   4   2  -3    9.47    0.35 
  -4  -2   3    9.85    0.35 
  -4  -2   3   10.04    0.37 
   3   2  -3   60.51    1.47 
   3   2  -3   61.97    1.52 
  -3  -2   3   61.85    1.52 
  -3  -2   3   64.54    1.49 
   2   2  -3    5.55    0.23 
   2   2  -3    5.46    0.18 
  -2  -2   3    4.98    0.19 
  -2  -2   3    5.37    0.22 
   1   2  -3   40.99    1.01 
   1   2  -3   41.58    0.96 
  -1  -2   3   39.92    1.01 
  -1  -2   3   40.25    0.96 
   0   2  -3    4.72    0.19 
   0   2  -3    4.84    0.16 
   0  -2   3    5.16    0.19 
   0  -2   3    4.59    0.16 
  -1   2  -3   -0.06    0.03 
  -1   2  -3   -0.07    0.03 
   1  -2   3   -0.04    0.03 
   1  -2   3    0.00    0.04 
  -2   2  -3    1.35    0.10 
  -2   2  -3    1.60    0.10 
   2  -2   3    1.79    0.11 
   2  -2   3    1.30    0.10 
  -3   2  -3    0.60    0.07 
  -3   2  -3    0.76    0.10 
   3  -2   3    0.61    0.08 
   3  -2   3    0.62    0.08 
  -4   2  -3   39.13    0.98 
  -4   2  -3   41.48    1.06 
   4  -2   3   39.90    1.01 
   4  -2   3   41.81    1.06 
  -5   2  -3   41.92    1.15 
   5  -2   3   44.42    1.16 
   5  -2   3   43.95    1.10 
  -6   2  -3    1.01    0.15 
   6  -2   3    1.34    0.17 
  -7   2  -3    0.12    0.10 
   7  -2   3    0.23    0.10 
  -8   2  -3    1.77    0.23 
   8  -2   3    1.76    0.23 
  -9   2  -3    0.12    0.12 
   9  -2   3   -0.11    0.09 
   8   1  -3    8.15    0.43 
   7   1  -3    5.62    0.30 
   7   1  -3    5.63    0.32 
   6   1  -3    4.96    0.26 
  -6  -1   3    5.20    0.27 
  -6  -1   3    5.35    0.29 
   5   1  -3    5.53    0.26 
   5   1  -3    5.65    0.25 
  -5  -1   3    6.12    0.28 
  -5  -1   3    5.68    0.26 
   4   1  -3    0.23    0.06 
   4   1  -3    0.30    0.07 
  -4  -1   3    0.30    0.07 
  -4  -1   3    0.14    0.05 
   3   1  -3  149.07    3.38 
  -3  -1   3  141.43    3.33 
  -3  -1   3  149.78    3.38 
  -3  -1   3  151.40    3.39 
   2   1  -3   12.82    0.33 
   2   1  -3   11.94    0.37 
  -2  -1   3   11.73    0.35 
   1   1  -3   30.59    0.71 
   1   1  -3   30.76    0.77 
  -1  -1   3   30.67    0.74 
  -1  -1   3   30.04    0.76 
   0   1  -3   56.51    1.29 
   0   1  -3   56.07    1.34 
   0  -1   3   58.28    1.31 
   0  -1   3   56.18    1.33 
  -1   1  -3    8.01    0.25 
  -1   1  -3    7.92    0.23 
   1  -1   3    8.04    0.24 
   1  -1   3    8.18    0.24 
  -2   1  -3    4.27    0.17 
  -2   1  -3    4.60    0.17 
   2  -1   3    4.21    0.17 
   2  -1   3    4.45    0.16 
  -3   1  -3   43.87    1.06 
  -3   1  -3   43.13    1.09 
   3  -1   3   43.63    1.09 
   3  -1   3   45.99    1.05 
  -4   1  -3   97.87    2.21 
  -4   1  -3   93.44    2.27 
   4  -1   3   97.00    2.21 
   4  -1   3   96.93    2.28 
  -5   1  -3    4.92    0.25 
   5  -1   3    4.54    0.19 
   5  -1   3    4.57    0.24 
  -6   1  -3    1.33    0.17 
   6  -1   3    1.37    0.17 
  -7   1  -3    0.79    0.15 
   7  -1   3    0.60    0.14 
  -8   1  -3    1.64    0.22 
   8  -1   3    1.42    0.21 
  -9   1  -3    9.00    0.48 
   9  -1   3    9.71    0.49 
   8   0  -3   12.51    0.55 
   7   0  -3   15.91    0.57 
   7   0  -3   15.90    0.60 
  -7   0   3   15.82    0.56 
   6   0  -3    2.11    0.20 
  -6   0   3    2.13    0.17 
  -6   0   3    2.42    0.20 
   5   0  -3    4.86    0.24 
  -5   0   3    4.43    0.25 
  -5   0   3    4.57    0.22 
   4   0  -3   14.68    0.43 
   4   0  -3   15.06    0.47 
  -4   0   3   14.07    0.46 
  -4   0   3   14.97    0.44 
   3   0  -3   73.69    1.71 
   3   0  -3   72.00    1.74 
  -3   0   3   76.94    1.70 
  -3   0   3   70.12    1.73 
   2   0  -3   45.74    1.07 
  -2   0   3   44.56    1.09 
  -2   0   3   43.77    1.03 
  -2   0   3   44.75    1.08 
   1   0  -3   15.83    0.35 
   1   0  -3   14.32    0.40 
  -1   0   3   14.15    0.40 
  -1   0   3   14.59    0.40 
   0   0  -3    1.79    0.10 
   0   0   3    1.59    0.09 
  -1   0  -3  346.27    7.74 
  -1   0  -3  344.31    7.60 
   1   0   3  346.36    7.78 
   1   0   3  335.03    7.72 
  -2   0  -3    2.31    0.12 
  -2   0  -3    2.72    0.12 
   2   0   3    2.65    0.10 
   2   0   3    2.50    0.12 
  -3   0  -3  195.45    4.35 
  -3   0  -3  191.99    4.36 
   3   0   3  190.41    4.37 
   3   0   3  196.69    4.30 
  -4   0  -3  110.09    2.60 
  -4   0  -3  111.85    2.55 
   4   0   3  110.89    2.60 
   4   0   3  112.76    2.52 
  -5   0  -3    2.13    0.13 
  -5   0  -3    2.23    0.16 
   5   0   3    1.61    0.16 
  -6   0  -3    0.57    0.11 
   6   0   3    0.42    0.10 
  -7   0  -3    1.68    0.20 
   7   0   3    2.30    0.24 
  -8   0  -3   14.77    0.59 
   8   0   3   14.80    0.59 
  -9   0  -3    1.20    0.20 
   9   0   3    1.16    0.20 
   8  -1  -3   25.37    0.87 
   7  -1  -3    9.35    0.41 
   7  -1  -3    9.56    0.44 
  -7   1   3   10.35    0.42 
   6  -1  -3   25.37    0.75 
  -6   1   3   24.57    0.73 
  -6   1   3   23.91    0.77 
   5  -1  -3    3.49    0.21 
  -5   1   3    3.69    0.20 
  -5   1   3    3.80    0.22 
   4  -1  -3  103.28    2.38 
   4  -1  -3   99.10    2.30 
  -4   1   3   97.95    2.38 
  -4   1   3  102.81    2.35 
   3  -1  -3   32.20    0.78 
   3  -1  -3   32.37    0.83 
  -3   1   3   32.03    0.79 
  -3   1   3   31.68    0.84 
   2  -1  -3    0.01    0.02 
   2  -1  -3    0.06    0.04 
  -2   1   3   -0.02    0.02 
  -2   1   3    0.00    0.03 
   1  -1  -3   41.24    0.95 
   1  -1  -3   38.93    0.96 
  -1   1   3   40.11    0.96 
  -1   1   3   40.21    0.91 
   0  -1  -3   11.51    0.31 
   0  -1  -3   11.80    0.32 
   0   1   3   11.98    0.32 
   0   1   3   11.84    0.28 
  -1  -1  -3   35.99    0.86 
  -1  -1  -3   35.37    0.83 
   1   1   3   36.29    0.82 
   1   1   3   34.64    0.85 
  -2  -1  -3   41.26    0.98 
  -2  -1  -3   40.82    0.98 
   2   1   3   40.77    0.99 
  -3  -1  -3   34.47    0.87 
  -3  -1  -3   34.26    0.86 
   3   1   3   34.10    0.78 
   3   1   3   34.85    0.87 
  -4  -1  -3    1.30    0.11 
  -4  -1  -3    1.40    0.13 
   4   1   3    1.29    0.06 
   4   1   3    1.52    0.12 
  -5  -1  -3    0.31    0.07 
  -5  -1  -3    0.42    0.09 
   5   1   3    0.29    0.08 
  -6  -1  -3    5.03    0.27 
  -6  -1  -3    4.90    0.27 
   6   1   3    4.89    0.27 
  -7  -1  -3    1.10    0.16 
   7   1   3    1.19    0.17 
  -8  -1  -3    0.13    0.10 
   8   1   3    0.16    0.11 
  -9  -1  -3    0.20    0.13 
   9   1   3    0.13    0.10 
   8  -2  -3    7.73    0.43 
  -8   2   3    8.31    0.58 
   7  -2  -3    0.16    0.10 
   7  -2  -3    0.06    0.08 
  -7   2   3    0.03    0.08 
   6  -2  -3  148.98    3.38 
  -6   2   3  138.62    3.39 
  -6   2   3  139.84    3.35 
   5  -2  -3   56.34    1.45 
  -5   2   3   56.99    1.42 
  -5   2   3   57.78    1.47 
   4  -2  -3   37.65    0.98 
  -4   2   3   37.31    0.95 
  -4   2   3   36.93    0.99 
   3  -2  -3    3.11    0.17 
   3  -2  -3    2.96    0.11 
  -3   2   3    3.06    0.14 
  -3   2   3    3.29    0.17 
   2  -2  -3   17.11    0.48 
   2  -2  -3   17.28    0.43 
  -2   2   3   16.69    0.48 
  -2   2   3   17.03    0.45 
   1  -2  -3  644.27   14.40 
   1  -2  -3  619.84   14.46 
  -1   2   3  641.81   14.36 
  -1   2   3  664.07   14.35 
   0  -2  -3   78.63    1.81 
   0  -2  -3   79.19    1.82 
   0   2   3   80.98    1.82 
   0   2   3   79.92    1.80 
  -1  -2  -3    8.84    0.23 
   1   2   3    8.55    0.25 
   1   2   3    8.98    0.26 
  -2  -2  -3    6.06    0.21 
   2   2   3    6.00    0.21 
  -3  -2  -3   11.55    0.36 
  -3  -2  -3   11.57    0.36 
   3   2   3   11.66    0.36 
  -4  -2  -3    0.70    0.09 
  -4  -2  -3    0.58    0.09 
   4   2   3    0.69    0.09 
  -5  -2  -3    2.73    0.17 
  -5  -2  -3    2.91    0.18 
   5   2   3    3.30    0.19 
  -6  -2  -3    0.07    0.07 
  -6  -2  -3    0.11    0.06 
   6   2   3    0.08    0.07 
  -7  -2  -3    0.33    0.11 
   7   2   3    0.36    0.11 
  -8  -2  -3   -0.10    0.08 
   8   2   3    0.14    0.10 
  -9  -2  -3    0.47    0.15 
   9   2   3    0.41    0.15 
   8  -3  -3   23.90    0.85 
   8  -3  -3   23.93    0.81 
  -8   3   3   24.66    0.81 
   7  -3  -3    5.22    0.33 
   7  -3  -3    5.26    0.31 
  -7   3   3    5.44    0.31 
   6  -3  -3  141.37    3.42 
  -6   3   3  145.33    3.45 
  -6   3   3  147.20    3.41 
   5  -3  -3    1.21    0.15 
  -5   3   3    1.00    0.15 
  -5   3   3    1.03    0.13 
   4  -3  -3   57.36    1.46 
  -4   3   3   59.52    1.47 
  -4   3   3   57.79    1.43 
   3  -3  -3   11.49    0.39 
   3  -3  -3   13.20    0.31 
  -3   3   3   11.26    0.39 
  -3   3   3   11.81    0.38 
   2  -3  -3   21.87    0.52 
   2  -3  -3   20.46    0.59 
  -2   3   3   21.08    0.57 
  -2   3   3   22.22    0.59 
   1  -3  -3    7.35    0.22 
  -1   3   3    7.32    0.24 
  -1   3   3    7.47    0.24 
   0  -3  -3   35.23    0.83 
   0  -3  -3   34.15    0.82 
   0   3   3   33.28    0.82 
   0   3   3   34.10    0.83 
  -1  -3  -3    5.48    0.17 
   1   3   3    5.34    0.18 
   1   3   3    5.48    0.19 
  -2  -3  -3   17.80    0.51 
  -2  -3  -3   18.68    0.43 
   2   3   3   18.18    0.50 
   2   3   3   17.52    0.48 
  -3  -3  -3    2.10    0.08 
  -3  -3  -3    2.34    0.14 
   3   3   3    2.35    0.13 
   3   3   3    2.26    0.14 
  -4  -3  -3   18.65    0.57 
  -4  -3  -3   19.92    0.57 
   4   3   3   19.68    0.56 
  -5  -3  -3    7.48    0.31 
  -5  -3  -3    7.60    0.32 
   5   3   3    7.67    0.31 
  -6  -3  -3    5.53    0.28 
  -6  -3  -3    5.75    0.30 
   6   3   3    5.09    0.27 
  -7  -3  -3    0.40    0.12 
  -7  -3  -3    0.32    0.12 
   7   3   3    0.53    0.13 
  -8  -3  -3    2.65    0.26 
   8   3   3    2.90    0.27 
  -9  -3  -3   -0.03    0.10 
   9   3   3   -0.06    0.09 
   8  -4  -3    8.48    0.47 
   8  -4  -3    9.75    0.46 
  -8   4   3    9.18    0.45 
   7  -4  -3    1.07    0.18 
   7  -4  -3    0.74    0.16 
  -7   4   3    0.84    0.15 
   6  -4  -3    0.64    0.14 
  -6   4   3    0.63    0.13 
  -6   4   3    0.60    0.14 
   5  -4  -3   28.07    0.83 
  -5   4   3   28.28    0.81 
  -5   4   3   27.91    0.84 
   4  -4  -3   49.68    1.26 
  -4   4   3   47.35    1.24 
  -4   4   3   48.92    1.26 
   3  -4  -3    0.02    0.05 
  -3   4   3   -0.02    0.04 
  -3   4   3   -0.03    0.04 
   2  -4  -3  138.78    3.12 
   2  -4  -3  140.38    3.03 
  -2   4   3  125.13    3.10 
  -2   4   3  138.14    3.11 
   1  -4  -3    0.80    0.09 
   1  -4  -3    0.76    0.07 
  -1   4   3    0.74    0.08 
  -1   4   3    0.70    0.09 
   0  -4  -3    4.67    0.18 
   0  -4  -3    4.73    0.18 
   0   4   3    4.50    0.19 
   0   4   3    4.72    0.17 
  -1  -4  -3    4.97    0.18 
  -1  -4  -3    5.03    0.20 
   1   4   3    4.93    0.17 
   1   4   3    5.01    0.20 
  -2  -4  -3   40.79    1.04 
  -2  -4  -3   40.45    0.97 
   2   4   3   41.86    0.99 
   2   4   3   42.01    1.03 
  -3  -4  -3  110.28    2.45 
   3   4   3  111.41    2.55 
   3   4   3  105.09    2.49 
  -4  -4  -3    1.52    0.15 
   4   4   3    1.39    0.14 
   4   4   3    1.36    0.11 
  -5  -4  -3   21.70    0.66 
   5   4   3   20.77    0.66 
   5   4   3   21.51    0.63 
  -6  -4  -3    4.52    0.25 
   6   4   3    3.90    0.25 
   6   4   3    3.46    0.22 
  -7  -4  -3    7.92    0.38 
   7   4   3    7.98    0.40 
   7   4   3    9.20    0.39 
   8   4   3    1.43    0.21 
   8   4   3    1.59    0.20 
   9   4   3    6.72    0.42 
   9   4   3    6.49    0.40 
   8  -5  -3    0.94    0.19 
   8  -5  -3    1.14    0.20 
  -8   5   3    0.88    0.19 
   7  -5  -3    0.04    0.09 
   7  -5  -3    0.19    0.10 
  -7   5   3    0.00    0.08 
   6  -5  -3    2.75    0.26 
  -6   5   3    2.22    0.22 
  -6   5   3    3.07    0.25 
   5  -5  -3   16.07    0.58 
  -5   5   3   16.78    0.58 
  -5   5   3   17.64    0.58 
   4  -5  -3    0.02    0.06 
  -4   5   3   -0.05    0.06 
  -4   5   3    0.01    0.06 
   3  -5  -3   20.88    0.62 
  -3   5   3   20.39    0.60 
  -3   5   3   19.73    0.61 
   2  -5  -3    4.88    0.23 
   2  -5  -3    5.23    0.17 
  -2   5   3    4.79    0.21 
  -2   5   3    4.86    0.23 
   1  -5  -3    4.42    0.18 
   1  -5  -3    4.68    0.21 
  -1   5   3    4.10    0.20 
  -1   5   3    4.94    0.19 
   0  -5  -3    1.00    0.10 
   0  -5  -3    1.16    0.11 
   0   5   3    1.06    0.08 
   0   5   3    1.19    0.12 
  -1  -5  -3   21.01    0.56 
  -1  -5  -3   20.52    0.59 
   1   5   3   20.92    0.59 
   1   5   3   20.90    0.53 
  -2  -5  -3    0.03    0.04 
  -2  -5  -3    0.06    0.03 
   2   5   3    0.03    0.04 
   2   5   3    0.03    0.03 
  -3  -5  -3    3.65    0.21 
  -3  -5  -3    4.38    0.16 
   3   5   3    3.95    0.17 
   3   5   3    3.90    0.21 
  -4  -5  -3    1.41    0.16 
   4   5   3    0.92    0.12 
   4   5   3    1.13    0.11 
  -5  -5  -3    1.47    0.17 
   5   5   3    1.70    0.18 
   5   5   3    1.54    0.15 
  -6  -5  -3    3.38    0.24 
   6   5   3    3.10    0.20 
   6   5   3    3.07    0.23 
  -7  -5  -3    1.72    0.21 
   7   5   3    1.97    0.22 
   8   5   3    0.06    0.10 
   7  -6  -3    4.18    0.31 
   7  -6  -3    4.37    0.32 
  -7   6   3    4.59    0.32 
   6  -6  -3    2.07    0.24 
   6  -6  -3    1.61    0.21 
  -6   6   3    1.59    0.20 
   5  -6  -3   13.51    0.52 
  -5   6   3   13.37    0.51 
  -5   6   3   13.89    0.52 
   4  -6  -3   15.66    0.56 
  -4   6   3   16.85    0.55 
  -4   6   3   16.30    0.56 
   3  -6  -3  115.08    2.74 
  -3   6   3  113.85    2.70 
  -3   6   3  116.10    2.74 
   2  -6  -3   13.03    0.45 
  -2   6   3   12.54    0.44 
  -2   6   3   13.40    0.41 
   1  -6  -3   17.66    0.55 
   1  -6  -3   17.93    0.51 
  -1   6   3   19.53    0.51 
  -1   6   3   18.00    0.56 
   0  -6  -3   10.91    0.37 
   0  -6  -3   10.81    0.36 
   0   6   3   10.57    0.37 
   0   6   3    9.88    0.31 
  -1  -6  -3   14.93    0.45 
  -1  -6  -3   14.80    0.47 
   1   6   3   14.75    0.41 
   1   6   3   15.13    0.48 
  -2  -6  -3   18.19    0.57 
  -2  -6  -3   18.27    0.52 
   2   6   3   18.51    0.57 
  -3  -6  -3    0.73    0.12 
  -3  -6  -3    0.55    0.08 
   3   6   3    0.45    0.10 
  -4  -6  -3    0.25    0.09 
   4   6   3    0.25    0.09 
  -5  -6  -3    2.09    0.22 
   5   6   3    1.62    0.19 
  -6  -6  -3    0.98    0.17 
   6   6   3    0.52    0.14 
  -7  -6  -3    0.00    0.09 
   7   6   3   -0.02    0.09 
  -8  -6  -3    0.26    0.13 
   8   6   3    0.17    0.13 
   7  -7  -3    2.71    0.29 
   7  -7  -3    2.35    0.27 
  -7   7   3    2.43    0.28 
   6  -7  -3    5.00    0.34 
   6  -7  -3    5.32    0.32 
  -6   7   3    5.03    0.33 
   5  -7  -3   19.99    0.70 
  -5   7   3   19.36    0.68 
   4  -7  -3    4.71    0.28 
  -4   7   3    3.95    0.26 
  -4   7   3    4.74    0.26 
   3  -7  -3   67.83    1.65 
  -3   7   3   62.62    1.62 
  -3   7   3   58.70    1.56 
   2  -7  -3   24.41    0.74 
  -2   7   3   25.35    0.75 
   1  -7  -3   15.85    0.50 
   1  -7  -3   16.97    0.55 
  -1   7   3   17.00    0.55 
   0  -7  -3    2.24    0.16 
   0  -7  -3    2.31    0.17 
   0   7   3    2.22    0.17 
  -1  -7  -3   23.34    0.65 
  -1  -7  -3   21.76    0.67 
   1   7   3   22.29    0.68 
  -2  -7  -3    7.89    0.34 
  -2  -7  -3    7.61    0.29 
   2   7   3    7.87    0.34 
  -3  -7  -3    5.29    0.29 
   3   7   3    5.52    0.29 
  -4  -7  -3    8.38    0.40 
   4   7   3    8.86    0.39 
  -5  -7  -3    2.75    0.24 
   5   7   3    3.09    0.24 
  -6  -7  -3    0.10    0.10 
   6   7   3    0.21    0.11 
  -7  -7  -3    0.17    0.12 
   7   7   3    0.35    0.13 
   6  -8  -3    0.46    0.15 
  -6   8   3    0.39    0.14 
   5  -8  -3   12.41    0.53 
  -5   8   3   11.65    0.51 
   4  -8  -3    0.34    0.12 
  -4   8   3    0.48    0.13 
   3  -8  -3    3.11    0.24 
  -3   8   3    3.45    0.25 
   2  -8  -3    6.65    0.33 
  -2   8   3    6.26    0.33 
   1  -8  -3    0.06    0.07 
  -1   8   3   -0.04    0.07 
   0  -8  -3   78.95    1.90 
   0  -8  -3   75.30    1.91 
   0   8   3   77.78    1.94 
  -1  -8  -3    3.54    0.22 
  -1  -8  -3    3.54    0.23 
   1   8   3    3.72    0.24 
  -2  -8  -3    7.94    0.33 
  -2  -8  -3    7.92    0.37 
   2   8   3    8.53    0.38 
  -3  -8  -3   12.94    0.51 
   3   8   3   13.43    0.51 
  -4  -8  -3    3.47    0.26 
   4   8   3    3.45    0.26 
  -5  -8  -3    0.03    0.10 
   5   8   3    0.11    0.10 
  -6  -8  -3    5.14    0.35 
   6   8   3    5.81    0.36 
  -7  -8  -3    1.26    0.21 
   7   8   3    1.31    0.22 
  -6   9   3    0.99    0.21 
   5  -9  -3    4.11    0.33 
  -5   9   3    4.71    0.33 
   4  -9  -3    2.96    0.29 
  -4   9   3    2.72    0.27 
   3  -9  -3   19.79    0.71 
  -3   9   3   20.61    0.72 
   2  -9  -3    1.73    0.20 
  -2   9   3    2.09    0.24 
   1  -9  -3    0.34    0.11 
  -1   9   3    0.27    0.11 
   0  -9  -3    0.44    0.11 
   0  -9  -3    0.41    0.10 
   0   9   3    0.23    0.10 
  -1  -9  -3    0.70    0.13 
  -1  -9  -3    0.48    0.11 
   1   9   3    0.33    0.11 
  -2  -9  -3    3.29    0.25 
  -2  -9  -3    3.13    0.22 
   2   9   3    3.06    0.24 
  -3  -9  -3    0.29    0.11 
   3   9   3    0.21    0.11 
  -4  -9  -3    1.54    0.22 
   4   9   3    1.24    0.19 
  -5  -9  -3    5.99    0.37 
   5   9   3    5.58    0.36 
  -6  -9  -3    3.58    0.32 
   6   9   3    3.90    0.32 
   4 -10  -3   -0.03    0.09 
  -4  10   3   -0.11    0.08 
   3 -10  -3   -0.03    0.09 
  -3  10   3    0.00    0.10 
   2 -10  -3    1.16    0.18 
  -2  10   3    1.72    0.22 
   1 -10  -3    4.27    0.29 
  -1  10   3    4.10    0.30 
   0 -10  -3    1.12    0.18 
   0  10   3    1.02    0.17 
  -1 -10  -3    1.11    0.17 
  -1 -10  -3    1.32    0.18 
   1  10   3    0.96    0.17 
  -2 -10  -3    0.41    0.13 
   2  10   3    0.36    0.12 
  -3 -10  -3    0.33    0.13 
   3  10   3    0.48    0.15 
  -4 -10  -3    0.93    0.19 
   4  10   3    0.70    0.16 
  -5 -10  -3    0.10    0.11 
   5  10   3    0.05    0.11 
   3 -11  -3    0.22    0.14 
  -3  11   3    0.16    0.13 
   2 -11  -3    0.46    0.15 
  -2  11   3    0.50    0.17 
   1 -11  -3    3.44    0.29 
  -1  11   3    3.58    0.29 
   0 -11  -3    1.56    0.22 
   0  11   3    1.10    0.19 
  -1 -11  -3    0.20    0.12 
  -1 -11  -3    0.23    0.11 
   1  11   3    0.03    0.11 
  -2 -11  -3    0.89    0.18 
   2  11   3    0.83    0.19 
  -3 -11  -3    0.02    0.11 
   3  11   3   -0.09    0.10 
  -4 -11  -3    5.02    0.61 
   0 -12  -3    3.46    0.32 
  -1 -12  -3    2.45    0.28 
  -3  -9   4    3.86    0.31 
   2   9  -4    1.69    0.24 
  -2  -9   4    1.30    0.21 
   1   9  -4   16.07    0.66 
  -1  -9   4   16.72    0.67 
   0   9  -4    5.83    0.36 
   0   9  -4    5.21    0.37 
   0  -9   4    5.25    0.35 
  -1   9  -4    0.21    0.12 
   1  -9   4    0.43    0.14 
  -2   9  -4    5.11    0.34 
   2  -9   4    5.13    0.35 
  -3   9  -4   -0.10    0.10 
   3  -9   4    0.02    0.11 
  -4   9  -4    0.37    0.15 
   4  -9   4    0.25    0.14 
   4   8  -4    2.96    0.33 
  -4  -8   4    3.03    0.30 
   3   8  -4    0.01    0.10 
  -3  -8   4    0.13    0.10 
   2   8  -4    7.05    0.41 
  -2  -8   4    7.17    0.39 
   1   8  -4    0.04    0.09 
  -1  -8   4    0.14    0.10 
   0   8  -4    6.02    0.33 
   0   8  -4    6.40    0.36 
   0  -8   4    6.23    0.36 
  -1   8  -4    9.89    0.44 
  -1   8  -4    9.77    0.44 
   1  -8   4    8.89    0.44 
  -2   8  -4    1.49    0.20 
   2  -8   4    1.22    0.18 
  -3   8  -4    4.14    0.30 
   3  -8   4    3.81    0.30 
  -4   8  -4    0.34    0.13 
   4  -8   4    0.45    0.14 
  -5   8  -4    6.12    0.39 
   5  -8   4    6.01    0.38 
   5   7  -4    4.57    0.35 
  -5  -7   4    5.00    0.33 
   4   7  -4   13.56    0.59 
  -4  -7   4   13.23    0.55 
   3   7  -4    0.02    0.10 
  -3  -7   4    0.06    0.09 
   2   7  -4    1.43    0.20 
  -2  -7   4    1.71    0.21 
   1   7  -4   14.23    0.52 
   1   7  -4   14.81    0.57 
  -1  -7   4   15.23    0.57 
   0   7  -4   45.92    1.24 
   0   7  -4   46.28    1.28 
   0  -7   4   46.93    1.29 
  -1   7  -4   22.59    0.73 
  -1   7  -4   24.48    0.74 
   1  -7   4   21.81    0.74 
  -2   7  -4    1.05    0.16 
  -2   7  -4    1.31    0.17 
   2  -7   4    1.27    0.18 
  -3   7  -4    5.34    0.31 
   3  -7   4    5.05    0.31 
  -4   7  -4    6.97    0.38 
   4  -7   4    6.62    0.36 
  -5   7  -4    9.47    0.46 
   5  -7   4    9.34    0.45 
  -6   7  -4    1.07    0.20 
   6  -7   4    1.28    0.21 
   6   6  -4    0.08    0.12 
   5   6  -4   -0.05    0.10 
  -5  -6   4   -0.10    0.08 
   4   6  -4    2.83    0.28 
  -4  -6   4    2.38    0.24 
   3   6  -4   25.15    0.82 
  -3  -6   4   24.19    0.78 
   2   6  -4    0.11    0.09 
   2   6  -4    0.22    0.08 
  -2  -6   4    0.36    0.11 
   1   6  -4    1.35    0.16 
   1   6  -4    1.50    0.19 
  -1  -6   4    1.51    0.19 
   0   6  -4    0.11    0.07 
   0   6  -4    0.23    0.10 
   0  -6   4    0.22    0.09 
  -1   6  -4    5.20    0.28 
  -1   6  -4    5.40    0.28 
   1  -6   4    5.05    0.29 
  -2   6  -4   52.04    1.36 
  -2   6  -4   53.66    1.38 
   2  -6   4   52.01    1.40 
  -3   6  -4   46.92    1.26 
   3  -6   4   46.22    1.27 
  -4   6  -4    2.52    0.25 
   4  -6   4    3.08    0.23 
  -5   6  -4   10.07    0.46 
   5  -6   4    9.24    0.43 
  -6   6  -4    0.61    0.15 
   6  -6   4    0.65    0.15 
  -7   6  -4    2.08    0.26 
   7   5  -4    7.13    0.42 
   6   5  -4    8.39    0.44 
  -6  -5   4    8.06    0.41 
   5   5  -4   -0.13    0.08 
  -5  -5   4    0.04    0.08 
   4   5  -4    2.40    0.24 
  -4  -5   4    2.41    0.20 
   3   5  -4    1.64    0.19 
  -3  -5   4    1.54    0.17 
   2   5  -4   52.02    1.33 
   2   5  -4   53.44    1.42 
  -2  -5   4   54.20    1.40 
   1   5  -4    1.64    0.18 
   1   5  -4    1.96    0.15 
  -1  -5   4    1.81    0.18 
   0   5  -4   32.42    0.91 
   0   5  -4   32.23    0.88 
   0  -5   4   33.52    0.92 
  -1   5  -4    8.82    0.35 
  -1   5  -4    8.32    0.33 
   1  -5   4    7.72    0.34 
  -2   5  -4   76.91    1.88 
  -2   5  -4   76.48    1.86 
   2  -5   4   75.91    1.89 
  -3   5  -4   18.91    0.56 
  -3   5  -4   18.48    0.60 
   3  -5   4   17.62    0.59 
  -4   5  -4   19.41    0.66 
   4  -5   4   21.29    0.81 
   4  -5   4   20.30    0.66 
  -5   5  -4    1.17    0.18 
   5  -5   4    0.92    0.14 
   5  -5   4    0.74    0.13 
  -6   5  -4    0.20    0.10 
   6  -5   4    0.12    0.09 
   6  -5   4    0.08    0.09 
  -7   5  -4   -0.04    0.10 
   7  -5   4    0.08    0.10 
   6   4  -4    3.75    0.27 
  -6  -4   4    4.08    0.27 
   5   4  -4    0.02    0.08 
  -5  -4   4    0.09    0.09 
   4   4  -4    9.00    0.40 
  -4  -4   4    9.50    0.39 
   3   4  -4   41.18    1.12 
   3   4  -4   40.08    1.04 
  -3  -4   4   40.78    1.10 
   2   4  -4    7.25    0.33 
   2   4  -4    7.29    0.27 
  -2  -4   4    7.59    0.32 
   1   4  -4   92.61    2.18 
   1   4  -4   89.50    2.11 
  -1  -4   4   88.40    2.16 
   0   4  -4   13.52    0.47 
   0   4  -4   14.15    0.43 
   0  -4   4   14.76    0.47 
  -1   4  -4    0.47    0.09 
  -1   4  -4    0.60    0.09 
   1  -4   4    0.63    0.07 
   1  -4   4    0.60    0.10 
  -2   4  -4    0.14    0.06 
  -2   4  -4    0.12    0.06 
   2  -4   4    0.12    0.05 
   2  -4   4    0.12    0.06 
  -3   4  -4   53.60    1.35 
  -3   4  -4   52.75    1.30 
   3  -4   4   51.69    1.30 
   3  -4   4   51.83    1.33 
  -4   4  -4   11.98    0.46 
   4  -4   4   12.84    0.45 
   4  -4   4   12.52    0.43 
  -5   4  -4    3.31    0.23 
   5  -4   4    2.91    0.21 
   5  -4   4    2.65    0.20 
  -6   4  -4   -0.10    0.07 
   6  -4   4    0.07    0.08 
  -7   4  -4    1.23    0.19 
   7  -4   4    1.04    0.18 
  -8   4  -4    5.21    0.37 
   8  -4   4    4.83    0.34 
   6   3  -4    8.29    0.38 
   6   3  -4    7.10    0.36 
   5   3  -4   10.73    0.44 
  -5  -3   4   11.28    0.44 
   4   3  -4    0.01    0.06 
  -4  -3   4    0.04    0.05 
  -4  -3   4    0.06    0.06 
   3   3  -4   10.22    0.40 
   3   3  -4   10.30    0.33 
  -3  -3   4   10.15    0.34 
  -3  -3   4   10.43    0.39 
   2   3  -4   19.47    0.54 
   2   3  -4   20.34    0.61 
  -2  -3   4   20.54    0.61 
  -2  -3   4   20.43    0.54 
   1   3  -4   32.74    0.80 
   1   3  -4   31.70    0.86 
  -1  -3   4   32.37    0.78 
  -1  -3   4   30.35    0.85 
   0   3  -4   -0.01    0.03 
   0   3  -4   -0.01    0.04 
   0  -3   4    0.24    0.05 
   0  -3   4    0.00    0.04 
  -1   3  -4    1.64    0.11 
  -1   3  -4    1.73    0.13 
   1  -3   4    1.69    0.13 
   1  -3   4    1.65    0.10 
  -2   3  -4    0.19    0.06 
  -2   3  -4    0.14    0.05 
   2  -3   4    0.33    0.06 
   2  -3   4    0.24    0.06 
  -3   3  -4   23.49    0.63 
  -3   3  -4   23.05    0.66 
   3  -3   4   23.75    0.64 
   3  -3   4   21.98    0.65 
  -4   3  -4    1.37    0.11 
  -4   3  -4    1.35    0.15 
   4  -3   4    1.64    0.15 
   4  -3   4    1.30    0.14 
  -5   3  -4    8.11    0.37 
   5  -3   4    8.26    0.35 
   5  -3   4    8.33    0.33 
  -6   3  -4    3.03    0.23 
   6  -3   4    2.57    0.21 
  -7   3  -4    0.52    0.15 
   7  -3   4    0.63    0.14 
  -8   3  -4    2.23    0.27 
   8  -3   4    2.32    0.27 
   7   2  -4    3.76    0.27 
   7   2  -4    3.91    0.27 
   6   2  -4   -0.04    0.05 
  -6  -2   4   -0.03    0.07 
   5   2  -4   43.21    1.21 
   5   2  -4   45.50    1.20 
  -5  -2   4   45.53    1.19 
   4   2  -4    0.52    0.10 
   4   2  -4    0.61    0.08 
  -4  -2   4    0.71    0.11 
  -4  -2   4    0.70    0.12 
   3   2  -4   15.38    0.50 
   3   2  -4   15.68    0.44 
  -3  -2   4   15.13    0.46 
  -3  -2   4   15.89    0.50 
   2   2  -4    5.16    0.23 
   2   2  -4    4.80    0.17 
  -2  -2   4    4.59    0.22 
  -2  -2   4    4.78    0.19 
   1   2  -4   24.06    0.59 
   1   2  -4   23.10    0.66 
  -1  -2   4   24.05    0.61 
   0   2  -4   15.39    0.46 
   0   2  -4   14.72    0.40 
   0  -2   4   15.16    0.41 
  -1   2  -4  124.91    2.75 
  -1   2  -4  122.13    2.79 
   1  -2   4  120.97    2.78 
   1  -2   4  117.31    2.75 
  -2   2  -4   20.49    0.56 
  -2   2  -4   20.65    0.56 
   2  -2   4   19.98    0.55 
   2  -2   4   19.87    0.55 
  -3   2  -4    0.32    0.07 
  -3   2  -4    0.22    0.06 
   3  -2   4    0.28    0.06 
   3  -2   4    0.35    0.07 
  -4   2  -4   11.79    0.37 
  -4   2  -4   11.60    0.41 
   4  -2   4   12.04    0.41 
   4  -2   4   11.61    0.37 
  -5   2  -4   52.10    1.35 
   5  -2   4   50.96    1.28 
   5  -2   4   52.40    1.34 
  -6   2  -4   24.89    0.81 
   6  -2   4   27.68    0.82 
  -7   2  -4    1.30    0.19 
   7  -2   4    1.05    0.17 
  -8   2  -4    1.61    0.22 
   8  -2   4    1.88    0.23 
   9  -2   4    0.13    0.19 
   8   1  -4    0.42    0.14 
   7   1  -4    1.59    0.20 
   6   1  -4    2.71    0.21 
  -6  -1   4    2.44    0.20 
   5   1  -4   33.77    0.95 
   5   1  -4   33.01    0.91 
  -5  -1   4   34.17    0.94 
   4   1  -4    5.75    0.26 
   4   1  -4    6.51    0.29 
  -4  -1   4    6.72    0.24 
  -4  -1   4    5.98    0.27 
   3   1  -4   24.74    0.61 
   3   1  -4   23.54    0.66 
  -3  -1   4   23.34    0.67 
  -3  -1   4   23.01    0.65 
   2   1  -4    3.89    0.13 
   2   1  -4    3.49    0.17 
  -2  -1   4    3.58    0.17 
  -2  -1   4    3.69    0.18 
   1   1  -4   54.65    1.29 
   1   1  -4   53.49    1.20 
  -1  -1   4   52.83    1.26 
  -1  -1   4   50.67    1.28 
   0   1  -4   69.08    1.68 
   0   1  -4   73.69    1.61 
   0  -1   4   71.28    1.65 
   0  -1   4   71.27    1.67 
  -1   1  -4    1.76    0.09 
  -1   1  -4    1.41    0.10 
   1  -1   4    1.46    0.10 
   1  -1   4    1.27    0.09 
  -2   1  -4    0.84    0.09 
  -2   1  -4    0.99    0.09 
   2  -1   4    0.88    0.09 
   2  -1   4    0.83    0.08 
  -3   1  -4  282.26    6.27 
  -3   1  -4  280.46    6.29 
   3  -1   4  282.14    6.30 
   3  -1   4  277.48    6.25 
  -4   1  -4   28.74    0.76 
  -4   1  -4   29.36    0.81 
   4  -1   4   31.08    0.75 
   4  -1   4   29.67    0.81 
  -5   1  -4    8.36    0.35 
  -5   1  -4    9.01    0.31 
   5  -1   4    8.48    0.35 
  -6   1  -4    4.48    0.27 
  -7   1  -4    0.39    0.12 
   7  -1   4    0.22    0.10 
  -8   1  -4    1.73    0.23 
   8  -1   4    1.44    0.20 
  -9   1  -4    0.28    0.14 
   9  -1   4    0.16    0.12 
   8   0  -4    0.52    0.15 
   7   0  -4    6.34    0.34 
  -7   0   4    6.00    0.35 
   6   0  -4    5.48    0.29 
  -6   0   4    5.52    0.31 
   5   0  -4   10.75    0.42 
  -5   0   4   10.36    0.41 
  -5   0   4   11.87    0.38 
   4   0  -4   13.58    0.42 
   4   0  -4   13.98    0.46 
  -4   0   4   13.73    0.41 
  -4   0   4   14.29    0.47 
   3   0  -4   68.89    1.68 
   3   0  -4   67.69    1.65 
  -3   0   4   69.48    1.68 
  -3   0   4   72.23    1.61 
   2   0  -4   20.97    0.57 
  -2   0   4   21.49    0.58 
  -2   0   4   20.57    0.51 
   1   0  -4   99.63    2.30 
  -1   0   4  100.87    2.30 
  -1   0   4   99.94    2.31 
   0   0  -4   13.10    0.38 
   0   0   4   13.04    0.37 
   0   0   4   13.00    0.37 
  -1   0  -4   44.25    1.08 
  -1   0  -4   45.28    1.04 
   1   0   4   45.07    1.05 
   1   0   4   44.42    1.07 
  -2   0  -4  146.20    3.32 
  -2   0  -4  145.03    3.34 
   2   0   4  148.94    3.29 
   2   0   4  149.37    3.35 
  -3   0  -4   35.72    0.91 
  -3   0  -4   36.29    0.91 
   3   0   4   35.33    0.92 
   3   0   4   37.41    0.86 
  -4   0  -4   27.46    0.71 
  -4   0  -4   26.98    0.74 
   4   0   4   26.83    0.65 
   4   0   4   25.07    0.73 
  -5   0  -4   12.59    0.45 
  -5   0  -4   13.23    0.41 
  -6   0  -4    3.09    0.22 
   6   0   4    2.69    0.20 
  -7   0  -4    2.95    0.24 
   7   0   4    2.79    0.23 
  -8   0  -4    3.56    0.28 
   8   0   4    2.96    0.29 
  -9   0  -4    3.53    0.34 
   9   0   4    3.17    0.32 
   8  -1  -4    0.22    0.12 
   8  -1  -4    0.05    0.11 
   7  -1  -4    1.80    0.21 
  -7   1   4    1.77    0.21 
   6  -1  -4    3.15    0.23 
  -6   1   4    2.86    0.23 
   5  -1  -4    3.55    0.22 
  -5   1   4    4.04    0.24 
  -5   1   4    3.88    0.20 
   4  -1  -4   17.81    0.55 
   4  -1  -4   17.72    0.48 
  -4   1   4   16.61    0.54 
  -4   1   4   16.43    0.49 
   3  -1  -4    0.61    0.07 
   3  -1  -4    0.56    0.09 
  -3   1   4    0.66    0.07 
  -3   1   4    0.48    0.08 
   2  -1  -4    0.00    0.03 
   2  -1  -4    0.03    0.05 
  -2   1   4    0.00    0.04 
  -2   1   4    0.06    0.03 
   1  -1  -4    0.24    0.05 
   1  -1  -4    0.22    0.05 
  -1   1   4    0.30    0.03 
  -1   1   4    0.22    0.05 
   0  -1  -4   -0.07    0.03 
   0   1   4    0.00    0.04 
   0   1   4   -0.05    0.01 
   0   1   4   -0.04    0.03 
  -1  -1  -4    1.12    0.09 
  -1  -1  -4    1.15    0.07 
   1   1   4    1.13    0.09 
   1   1   4    1.17    0.07 
  -2  -1  -4   94.51    2.22 
  -2  -1  -4   99.72    2.25 
   2   1   4   98.66    2.17 
   2   1   4   96.90    2.25 
  -3  -1  -4    6.92    0.25 
  -3  -1  -4    6.99    0.25 
   3   1   4    6.97    0.18 
  -4  -1  -4    0.00    0.04 
  -4  -1  -4   -0.03    0.04 
   4   1   4   -0.04    0.03 
  -5  -1  -4    0.08    0.06 
  -5  -1  -4    0.01    0.05 
   5   1   4    0.01    0.05 
  -6  -1  -4    8.01    0.35 
  -6  -1  -4    8.00    0.31 
   6   1   4    7.90    0.35 
  -7  -1  -4    1.66    0.19 
   7   1   4    1.47    0.19 
  -8  -1  -4    1.34    0.20 
   8   1   4    1.27    0.20 
  -9  -1  -4   -0.09    0.09 
   9   1   4    0.03    0.10 
   8  -2  -4   11.25    0.52 
   8  -2  -4   12.13    0.55 
   7  -2  -4    9.82    0.45 
  -7   2   4    9.98    0.47 
   6  -2  -4   10.07    0.43 
  -6   2   4   10.20    0.45 
  -6   2   4   10.90    0.41 
   5  -2  -4    1.20    0.15 
  -5   2   4    1.19    0.13 
  -5   2   4    1.34    0.16 
   4  -2  -4    0.42    0.09 
  -4   2   4    0.41    0.07 
  -4   2   4    0.49    0.10 
   3  -2  -4   59.94    1.34 
   3  -2  -4   56.34    1.41 
  -3   2   4   56.10    1.36 
  -3   2   4   57.29    1.42 
   2  -2  -4  192.97    4.43 
   2  -2  -4  203.32    4.38 
  -2   2   4  195.97    4.44 
  -2   2   4  192.21    4.37 
   1  -2  -4    0.28    0.05 
   1  -2  -4    0.16    0.04 
  -1   2   4    0.08    0.04 
  -1   2   4    0.16    0.03 
   0  -2  -4   11.72    0.34 
   0  -2  -4   12.20    0.35 
   0   2   4   12.72    0.36 
   0   2   4   12.49    0.31 
  -1  -2  -4   27.02    0.69 
  -1  -2  -4   26.92    0.63 
   1   2   4   26.22    0.68 
   1   2   4   26.86    0.65 
  -2  -2  -4   37.85    0.91 
  -2  -2  -4   37.45    0.93 
   2   2   4   37.08    0.93 
  -3  -2  -4    0.06    0.04 
  -3  -2  -4    0.03    0.04 
   3   2   4   -0.01    0.04 
  -4  -2  -4    1.98    0.14 
  -4  -2  -4    2.02    0.14 
   4   2   4    1.91    0.14 
  -5  -2  -4    2.09    0.15 
  -5  -2  -4    2.22    0.17 
   5   2   4    2.03    0.16 
  -6  -2  -4    0.49    0.10 
  -6  -2  -4    0.49    0.11 
   6   2   4    0.38    0.09 
  -7  -2  -4    2.77    0.22 
   7   2   4    2.19    0.22 
  -8  -2  -4    1.68    0.22 
   8   2   4    1.97    0.23 
  -9  -2  -4    0.39    0.15 
   9   2   4    0.77    0.19 
   8  -3  -4   19.78    0.75 
   8  -3  -4   19.54    0.73 
   7  -3  -4   23.14    0.77 
  -7   3   4   22.69    0.80 
   6  -3  -4   23.24    0.76 
  -6   3   4   23.04    0.71 
  -6   3   4   23.41    0.77 
   5  -3  -4    2.03    0.20 
  -5   3   4    2.04    0.20 
  -5   3   4    1.93    0.16 
   4  -3  -4    5.96    0.29 
  -4   3   4    6.56    0.26 
  -4   3   4    6.64    0.30 
   3  -3  -4   15.44    0.41 
   3  -3  -4   14.86    0.49 
  -3   3   4   17.11    0.51 
  -3   3   4   16.86    0.46 
   2  -3  -4   11.72    0.33 
   2  -3  -4   12.83    0.39 
  -2   3   4   12.34    0.39 
  -2   3   4   12.00    0.35 
   1  -3  -4    0.16    0.04 
   1  -3  -4    0.21    0.05 
  -1   3   4    0.21    0.05 
  -1   3   4    0.14    0.04 
   0  -3  -4   -0.04    0.02 
   0  -3  -4   -0.01    0.03 
   0   3   4   -0.03    0.03 
   0   3   4   -0.03    0.02 
  -1  -3  -4  176.50    3.95 
  -1  -3  -4  171.84    3.90 
   1   3   4  177.71    3.94 
   1   3   4  174.32    3.93 
  -2  -3  -4    1.40    0.11 
  -2  -3  -4    1.23    0.06 
   2   3   4    1.35    0.10 
   2   3   4    1.31    0.10 
  -3  -3  -4    4.41    0.21 
   3   3   4    4.47    0.20 
   3   3   4    4.37    0.20 
  -4  -3  -4    0.20    0.07 
  -4  -3  -4    0.18    0.07 
   4   3   4    0.24    0.07 
  -5  -3  -4   21.00    0.63 
  -5  -3  -4   20.93    0.64 
   5   3   4   19.94    0.62 
  -6  -3  -4    5.49    0.28 
  -6  -3  -4    6.02    0.31 
   6   3   4    6.43    0.30 
  -7  -3  -4    0.54    0.12 
  -7  -3  -4    0.34    0.12 
   7   3   4    0.52    0.13 
  -8  -3  -4    0.44    0.14 
   8   3   4    0.63    0.15 
  -9  -3  -4    0.25    0.13 
   9   3   4    0.08    0.12 
   8  -4  -4   13.63    0.60 
   8  -4  -4   13.12    0.57 
   7  -4  -4    5.67    0.35 
  -7   4   4    6.20    0.37 
  -7   4   4    5.68    0.32 
   6  -4  -4    9.29    0.42 
  -6   4   4    8.77    0.42 
  -6   4   4    8.98    0.39 
   5  -4  -4   32.99    0.96 
  -5   4   4   34.02    0.97 
  -5   4   4   33.82    0.93 
   4  -4  -4   64.57    1.62 
  -4   4   4   62.93    1.61 
  -4   4   4   64.45    1.57 
   3  -4  -4    8.48    0.33 
  -3   4   4    8.29    0.30 
  -3   4   4    8.14    0.32 
   2  -4  -4   41.24    1.01 
   2  -4  -4   45.06    1.09 
  -2   4   4   42.40    1.07 
  -2   4   4   42.08    1.06 
   1  -4  -4   24.26    0.64 
   1  -4  -4   22.47    0.60 
  -1   4   4   23.64    0.62 
  -1   4   4   24.39    0.64 
   0  -4  -4  167.05    3.86 
   0  -4  -4  173.44    3.87 
   0   4   4  170.51    3.87 
   0   4   4  174.82    3.87 
  -1  -4  -4   70.51    1.66 
  -1  -4  -4   70.14    1.61 
   1   4   4   69.52    1.65 
   1   4   4   69.47    1.63 
  -2  -4  -4   19.00    0.55 
  -2  -4  -4   19.16    0.47 
   2   4   4   18.82    0.51 
   2   4   4   18.71    0.53 
  -3  -4  -4   19.18    0.57 
   3   4   4   18.86    0.54 
   3   4   4   19.42    0.57 
  -4  -4  -4   28.42    0.80 
   4   4   4   28.05    0.79 
   4   4   4   27.96    0.76 
  -5  -4  -4   18.41    0.59 
   5   4   4   18.55    0.57 
   5   4   4   17.19    0.58 
  -6  -4  -4    0.15    0.08 
   6   4   4    0.52    0.11 
  -7  -4  -4    0.62    0.13 
   7   4   4    0.49    0.12 
   8   4   4    8.96    0.43 
   9   4   4   15.75    0.64 
   9   4   4   15.92    0.74 
   8  -5  -4    3.36    0.34 
   8  -5  -4    3.14    0.41 
   7  -5  -4    0.43    0.15 
  -7   5   4    0.40    0.13 
   6  -5  -4    2.97    0.25 
  -6   5   4    3.00    0.25 
  -6   5   4    3.14    0.24 
   5  -5  -4    1.43    0.17 
  -5   5   4    1.73    0.21 
  -5   5   4    1.40    0.17 
   4  -5  -4    3.78    0.23 
  -4   5   4    3.90    0.23 
  -4   5   4    3.90    0.23 
   3  -5  -4   37.80    1.01 
  -3   5   4   36.18    0.99 
  -3   5   4   37.12    0.98 
   2  -5  -4   27.28    0.76 
   2  -5  -4   26.82    0.67 
  -2   5   4   27.44    0.74 
  -2   5   4   26.71    0.74 
   1  -5  -4    0.98    0.08 
   1  -5  -4    1.08    0.12 
  -1   5   4    0.99    0.11 
  -1   5   4    1.22    0.12 
   0  -5  -4    0.01    0.04 
   0  -5  -4    0.04    0.04 
   0   5   4    0.02    0.04 
   0   5   4    0.02    0.04 
  -1  -5  -4    0.16    0.06 
  -1  -5  -4    0.26    0.05 
   1   5   4    0.20    0.05 
   1   5   4    0.20    0.06 
  -2  -5  -4   17.07    0.52 
  -2  -5  -4   16.32    0.45 
   2   5   4   16.86    0.51 
   2   5   4   17.14    0.47 
  -3  -5  -4   49.56    1.30 
   3   5   4   51.30    1.29 
   3   5   4   52.24    1.24 
  -4  -5  -4    3.99    0.23 
   4   5   4    4.51    0.21 
   4   5   4    4.79    0.25 
  -5  -5  -4   -0.04    0.06 
   5   5   4    0.25    0.09 
   5   5   4    0.07    0.06 
  -6  -5  -4    2.10    0.21 
   6   5   4    1.21    0.17 
   6   5   4    1.82    0.18 
  -7  -5  -4    4.52    0.30 
   7   5   4    4.28    0.27 
   7   5   4    4.88    0.31 
   8   5   4    0.74    0.17 
   7  -6  -4    0.06    0.11 
   7  -6  -4    0.08    0.11 
  -7   6   4    0.09    0.11 
   6  -6  -4    0.14    0.11 
  -6   6   4    0.11    0.10 
  -6   6   4    0.07    0.09 
   5  -6  -4   14.04    0.55 
  -5   6   4   14.90    0.55 
  -5   6   4   14.97    0.54 
   4  -6  -4   20.48    0.67 
  -4   6   4   20.16    0.65 
  -4   6   4   20.17    0.64 
   3  -6  -4   14.29    0.50 
  -3   6   4   14.70    0.49 
  -3   6   4   13.06    0.46 
   2  -6  -4    8.45    0.34 
  -2   6   4    8.07    0.31 
  -2   6   4    7.69    0.32 
   1  -6  -4    0.04    0.05 
   1  -6  -4    0.00    0.04 
  -1   6   4    0.03    0.05 
  -1   6   4    0.10    0.04 
   0  -6  -4   62.64    1.47 
   0  -6  -4   60.37    1.46 
   0   6   4   57.77    1.42 
   0   6   4   58.44    1.47 
  -1  -6  -4    1.67    0.12 
  -1  -6  -4    1.75    0.14 
   1   6   4    1.64    0.15 
   1   6   4    1.63    0.11 
  -2  -6  -4   11.39    0.40 
  -2  -6  -4   10.78    0.34 
   2   6   4   10.96    0.33 
   2   6   4   10.88    0.40 
  -3  -6  -4    3.43    0.22 
   3   6   4    3.95    0.18 
   3   6   4    3.90    0.22 
  -4  -6  -4    0.10    0.07 
   4   6   4   -0.01    0.05 
  -5  -6  -4    5.20    0.30 
   5   6   4    5.27    0.29 
  -6  -6  -4    0.04    0.08 
   6   6   4    0.01    0.09 
  -7  -6  -4    1.09    0.18 
   7   6   4    1.16    0.20 
  -8  -6  -4    0.77    0.18 
   8   6   4    0.98    0.20 
   7  -7  -4   11.37    0.53 
   7  -7  -4   11.09    0.54 
  -7   7   4   11.04    0.51 
   6  -7  -4    0.11    0.11 
  -6   7   4    0.38    0.13 
  -6   7   4    0.24    0.12 
   5  -7  -4   12.04    0.51 
  -5   7   4   11.96    0.50 
  -5   7   4   12.19    0.50 
   4  -7  -4   -0.01    0.08 
  -4   7   4    0.05    0.08 
  -4   7   4    0.08    0.08 
   3  -7  -4    8.21    0.37 
  -3   7   4    8.05    0.34 
  -3   7   4    8.57    0.37 
   2  -7  -4   37.58    1.01 
  -2   7   4   36.47    1.00 
  -2   7   4   34.98    0.95 
   1  -7  -4    2.01    0.16 
   1  -7  -4    2.07    0.14 
  -1   7   4    1.91    0.18 
  -1   7   4    1.77    0.15 
   0  -7  -4   53.35    1.33 
   0  -7  -4   53.09    1.34 
   0   7   4   51.84    1.35 
  -1  -7  -4    9.69    0.37 
  -1  -7  -4    9.96    0.35 
   1   7   4    9.60    0.38 
  -2  -7  -4   -0.03    0.05 
  -2  -7  -4    0.07    0.05 
   2   7   4   -0.03    0.05 
  -3  -7  -4   13.36    0.50 
   3   7   4   13.80    0.50 
  -4  -7  -4   22.65    0.75 
   4   7   4   25.23    0.76 
  -5  -7  -4    0.17    0.10 
   5   7   4    0.19    0.10 
  -6  -7  -4    0.92    0.17 
   6   7   4    0.53    0.14 
  -7  -7  -4    0.03    0.10 
   7   7   4    0.03    0.10 
  -8  -7  -4    2.31    0.29 
   6  -8  -4    0.66    0.16 
   6  -8  -4    0.41    0.24 
  -6   8   4    0.43    0.15 
   5  -8  -4    0.54    0.14 
  -5   8   4    0.44    0.13 
   4  -8  -4    0.09    0.09 
  -4   8   4    0.18    0.10 
   3  -8  -4    2.98    0.24 
  -3   8   4    2.68    0.25 
   2  -8  -4   32.08    0.95 
  -2   8   4   33.05    0.95 
   1  -8  -4  136.01    3.21 
  -1   8   4  134.42    3.22 
   0  -8  -4   55.99    1.48 
   0  -8  -4   60.93    1.49 
   0   8   4   57.96    1.52 
  -1  -8  -4   14.23    0.48 
  -1  -8  -4   13.39    0.49 
   1   8   4   14.48    0.51 
  -2  -8  -4    0.84    0.11 
  -2  -8  -4    0.50    0.11 
   2   8   4    0.69    0.13 
  -3  -8  -4   24.68    0.78 
   3   8   4   24.20    0.77 
  -4  -8  -4    0.03    0.08 
   4   8   4    0.08    0.08 
  -5  -8  -4    0.69    0.16 
   5   8   4    1.08    0.18 
  -6  -8  -4    0.51    0.15 
   6   8   4    0.56    0.16 
  -7  -8  -4    3.08    0.32 
   7   8   4    3.32    0.33 
   5  -9  -4   12.52    0.56 
  -5   9   4   12.21    0.55 
   4  -9  -4   14.04    0.58 
  -4   9   4   13.00    0.55 
   3  -9  -4    0.36    0.13 
  -3   9   4    0.58    0.14 
   2  -9  -4   26.75    0.86 
  -2   9   4   28.66    0.88 
   1  -9  -4   11.84    0.46 
  -1   9   4   10.43    0.46 
   0  -9  -4   28.66    0.85 
   0  -9  -4   28.90    0.86 
   0   9   4   29.12    0.89 
  -1  -9  -4   35.03    0.99 
  -1  -9  -4   34.57    1.01 
   1   9   4   35.65    1.03 
  -2  -9  -4    0.07    0.09 
   2   9   4    0.21    0.09 
  -3  -9  -4    0.04    0.09 
   3   9   4    0.11    0.09 
  -4  -9  -4    0.67    0.15 
   4   9   4    0.82    0.16 
  -5  -9  -4    1.28    0.21 
   5   9   4    1.24    0.20 
  -6  -9  -4    0.15    0.14 
   6   9   4    0.41    0.15 
   4 -10  -4    5.85    0.38 
  -4  10   4    6.50    0.39 
   3 -10  -4    0.57    0.15 
  -3  10   4    0.55    0.16 
   2 -10  -4    1.55    0.20 
  -2  10   4    1.93    0.24 
   1 -10  -4   -0.05    0.07 
  -1  10   4    0.07    0.09 
   0 -10  -4   11.70    0.48 
   0  10   4   11.46    0.50 
  -1 -10  -4    1.34    0.19 
  -1 -10  -4    1.30    0.17 
   1  10   4    1.44    0.20 
  -2 -10  -4    0.10    0.10 
   2  10   4    0.12    0.10 
  -3 -10  -4    5.80    0.36 
   3  10   4    5.86    0.36 
  -4 -10  -4   -0.15    0.08 
   4  10   4   -0.08    0.09 
  -5 -10  -4    0.11    0.12 
   5  10   4    0.35    0.14 
   3 -11  -4    2.28    0.27 
  -3  11   4    1.89    0.26 
   2 -11  -4    0.76    0.17 
  -2  11   4    0.62    0.16 
   1 -11  -4    2.44    0.27 
  -1  11   4    2.88    0.30 
   0 -11  -4    0.09    0.11 
   0  11   4    0.01    0.10 
  -1 -11  -4    2.09    0.23 
  -1 -11  -4    2.00    0.24 
   1  11   4    2.46    0.27 
  -2 -11  -4   12.07    0.54 
   2  11   4   12.59    0.56 
  -3 -11  -4    0.38    0.15 
   3  11   4    0.54    0.15 
  -4 -11  -4   -0.09    0.10 
   4  11   4   -0.02    0.12 
   1 -12  -4    5.20    0.37 
   0 -12  -4   -0.01    0.11 
   1   9  -5    8.26    0.45 
  -1  -9   5    7.02    0.43 
   0   9  -5    0.84    0.19 
   0  -9   5    0.76    0.18 
   1  -9   5    0.16    0.12 
   2  -9   5    0.14    0.13 
  -3   9  -5    5.08    0.36 
   3   8  -5    1.01    0.20 
  -3  -8   5    1.14    0.20 
   2   8  -5    0.72    0.17 
  -2  -8   5    0.75    0.17 
   1   8  -5    1.44    0.22 
  -1  -8   5    1.28    0.21 
   0   8  -5    5.87    0.36 
   0  -8   5    5.36    0.35 
  -1   8  -5    3.31    0.27 
   1  -8   5    3.02    0.29 
  -2   8  -5    0.63    0.16 
   2  -8   5    0.75    0.16 
  -3   8  -5    0.14    0.11 
   3  -8   5    0.16    0.11 
  -4   8  -5    3.54    0.33 
   4  -8   5    2.77    0.30 
   5   7  -5    0.10    0.15 
  -5  -7   5    0.03    0.12 
   4   7  -5    0.69    0.18 
  -4  -7   5    0.65    0.16 
   3   7  -5    0.70    0.17 
  -3  -7   5    1.02    0.18 
   2   7  -5    2.87    0.29 
  -2  -7   5    2.77    0.28 
   1   7  -5   25.94    0.87 
  -1  -7   5   27.38    0.87 
   0   7  -5    0.32    0.11 
   0  -7   5    0.41    0.12 
  -1   7  -5    1.46    0.19 
  -1   7  -5    1.47    0.19 
   1  -7   5    1.08    0.17 
  -2   7  -5   -0.02    0.07 
  -2   7  -5   -0.03    0.08 
   2  -7   5    0.02    0.09 
  -3   7  -5    5.80    0.33 
   3  -7   5    6.43    0.36 
  -4   7  -5    3.86    0.29 
   4  -7   5    3.85    0.30 
  -5   7  -5    0.11    0.12 
   5  -7   5    0.02    0.10 
  -6   7  -5    0.01    0.11 
   5   6  -5    1.18    0.21 
  -5  -6   5    1.72    0.23 
   4   6  -5    0.88    0.19 
  -4  -6   5    0.70    0.15 
   3   6  -5    3.51    0.28 
  -3  -6   5    3.67    0.27 
   2   6  -5    1.80    0.22 
  -2  -6   5    2.15    0.23 
   1   6  -5    0.01    0.08 
  -1  -6   5   -0.02    0.07 
   0   6  -5    2.39    0.21 
   0   6  -5    2.13    0.18 
   0  -6   5    2.07    0.21 
  -1   6  -5  100.11    2.51 
  -1   6  -5  104.35    2.49 
   1  -6   5  104.66    2.54 
  -2   6  -5   28.76    0.84 
  -2   6  -5   29.48    0.84 
   2  -6   5   25.92    0.85 
  -3   6  -5    0.82    0.14 
   3  -6   5    0.60    0.13 
  -4   6  -5    6.40    0.35 
   4  -6   5    5.94    0.33 
  -5   6  -5   13.34    0.55 
   5  -6   5   12.65    0.52 
  -6   6  -5   11.48    0.53 
  -7   6  -5   -0.13    0.16 
   6   5  -5    0.35    0.14 
  -6  -5   5    0.50    0.14 
   5   5  -5    0.02    0.11 
  -5  -5   5    0.23    0.11 
   4   5  -5   13.94    0.57 
  -4  -5   5   13.42    0.53 
   3   5  -5    7.71    0.38 
  -3  -5   5    7.21    0.36 
   2   5  -5    0.05    0.07 
  -2  -5   5    0.02    0.07 
   1   5  -5   73.91    1.86 
  -1  -5   5   72.10    1.84 
   0   5  -5  107.46    2.56 
   0   5  -5  107.21    2.63 
   0  -5   5  111.91    2.63 
  -1   5  -5   84.63    2.07 
  -1   5  -5   83.00    2.03 
   1  -5   5   84.31    2.08 
  -2   5  -5    3.68    0.22 
  -2   5  -5    3.45    0.21 
   2  -5   5    3.89    0.24 
  -3   5  -5   24.26    0.72 
  -3   5  -5   24.73    0.74 
   3  -5   5   23.56    0.74 
  -4   5  -5    0.52    0.12 
   4  -5   5    0.42    0.11 
  -5   5  -5    2.88    0.24 
   5  -5   5    3.31    0.24 
  -6   5  -5    0.88    0.17 
   6  -5   5    0.62    0.20 
  -7   5  -5    2.54    0.29 
   7  -5   5    2.78    0.28 
   6   4  -5    3.12    0.27 
  -6  -4   5    3.04    0.26 
   5   4  -5    6.96    0.37 
  -5  -4   5    6.66    0.36 
   4   4  -5    1.97    0.22 
  -4  -4   5    1.87    0.20 
   3   4  -5    0.23    0.09 
  -3  -4   5    0.02    0.07 
   2   4  -5   95.06    2.37 
  -2  -4   5   99.63    2.37 
   1   4  -5    5.29    0.23 
   1   4  -5    5.45    0.28 
  -1  -4   5    5.35    0.27 
   0   4  -5    0.41    0.10 
   0   4  -5    0.42    0.08 
   0  -4   5    0.30    0.08 
  -1   4  -5    1.56    0.13 
  -1   4  -5    1.90    0.16 
   1  -4   5    1.63    0.17 
  -2   4  -5   42.71    1.11 
  -2   4  -5   42.15    1.09 
   2  -4   5   41.43    1.11 
   2  -4   5   42.49    1.06 
  -3   4  -5   40.54    1.10 
  -3   4  -5   40.75    1.08 
   3  -4   5   41.18    1.06 
   3  -4   5   42.20    1.10 
  -4   4  -5   47.56    1.28 
   4  -4   5   46.35    1.25 
   4  -4   5   50.31    1.25 
  -5   4  -5    3.59    0.25 
   5  -4   5    3.69    0.24 
   5  -4   5    3.49    0.23 
  -6   4  -5    1.47    0.20 
   6  -4   5    1.45    0.19 
  -7   4  -5    1.28    0.21 
   7  -4   5    1.29    0.20 
  -8   4  -5    0.21    0.14 
   8  -4   5    0.24    0.13 
   7   3  -5    1.57    0.21 
   6   3  -5    0.02    0.07 
   6   3  -5   -0.05    0.07 
   5   3  -5    0.88    0.15 
  -5  -3   5    0.86    0.15 
   4   3  -5    1.03    0.16 
  -4  -3   5    1.29    0.16 
   3   3  -5   17.94    0.59 
  -3  -3   5   18.11    0.68 
  -3  -3   5   16.91    0.57 
   2   3  -5   18.71    0.59 
  -2  -3   5   18.17    0.58 
  -2  -3   5   18.09    0.51 
   1   3  -5    7.44    0.31 
   1   3  -5    7.39    0.25 
  -1  -3   5    7.50    0.26 
  -1  -3   5    7.81    0.32 
   0   3  -5   16.96    0.54 
   0   3  -5   18.01    0.48 
   0  -3   5   17.36    0.54 
   0  -3   5   17.50    0.48 
  -1   3  -5    2.65    0.17 
  -1   3  -5    2.77    0.15 
   1  -3   5    2.77    0.17 
   1  -3   5    2.99    0.15 
  -2   3  -5   11.42    0.40 
  -2   3  -5   11.73    0.38 
   2  -3   5   11.58    0.39 
   2  -3   5   11.55    0.37 
  -3   3  -5   14.86    0.48 
  -3   3  -5   15.20    0.48 
   3  -3   5   14.69    0.47 
   3  -3   5   15.21    0.48 
  -4   3  -5    1.54    0.15 
  -4   3  -5    1.97    0.19 
   4  -3   5    1.68    0.14 
   4  -3   5    1.57    0.16 
  -5   3  -5    2.35    0.20 
   5  -3   5    2.43    0.19 
   5  -3   5    1.98    0.16 
  -6   3  -5    1.03    0.17 
   6  -3   5    1.03    0.16 
  -7   3  -5    0.27    0.12 
   7  -3   5    0.09    0.10 
  -8   3  -5    4.81    0.35 
   8  -3   5    3.99    0.31 
   7   2  -5    3.18    0.30 
   6   2  -5    3.98    0.27 
  -6  -2   5    4.09    0.26 
   5   2  -5   13.88    0.50 
   5   2  -5   14.04    0.53 
  -5  -2   5   13.89    0.50 
   4   2  -5    1.34    0.15 
  -4  -2   5    1.39    0.16 
  -4  -2   5    1.40    0.15 
   3   2  -5    4.04    0.23 
  -3  -2   5    4.28    0.21 
   2   2  -5    3.97    0.21 
  -2  -2   5    3.35    0.20 
  -2  -2   5    3.95    0.18 
   1   2  -5   22.30    0.65 
   1   2  -5   22.59    0.56 
  -1  -2   5   22.74    0.61 
  -1  -2   5   23.34    0.66 
   0   2  -5  153.91    3.44 
   0   2  -5  150.61    3.53 
   0  -2   5  156.21    3.48 
   0  -2   5  153.02    3.52 
  -1   2  -5   17.42    0.46 
  -1   2  -5   16.74    0.51 
   1  -2   5   17.29    0.50 
   1  -2   5   16.98    0.48 
  -2   2  -5    9.30    0.33 
  -2   2  -5    9.60    0.31 
   2  -2   5    8.54    0.31 
   2  -2   5    8.61    0.31 
  -3   2  -5   50.55    1.26 
  -3   2  -5   50.10    1.26 
   3  -2   5   52.15    1.25 
   3  -2   5   49.77    1.26 
  -4   2  -5   92.65    2.22 
  -4   2  -5   94.27    2.26 
   4  -2   5   91.41    2.26 
   4  -2   5   99.75    2.22 
  -5   2  -5   83.65    2.04 
   5  -2   5   81.20    2.03 
  -6   2  -5   22.02    0.71 
   6  -2   5   19.76    0.68 
  -7   2  -5    4.66    0.31 
   7  -2   5    4.38    0.30 
  -8   2  -5   10.19    0.50 
   8  -2   5    9.54    0.47 
   8   1  -5    0.46    0.15 
   7   1  -5    9.41    0.45 
  -7  -1   5    9.81    0.46 
   6   1  -5    0.84    0.15 
  -6  -1   5    0.67    0.14 
   5   1  -5    2.58    0.21 
   5   1  -5    2.39    0.17 
  -5  -1   5    2.63    0.20 
   4   1  -5    1.42    0.15 
  -4  -1   5    1.36    0.15 
   3   1  -5    0.55    0.09 
  -3  -1   5    0.56    0.10 
  -3  -1   5    0.38    0.08 
   2   1  -5    6.10    0.26 
   2   1  -5    6.35    0.19 
  -2  -1   5    6.24    0.27 
  -2  -1   5    6.46    0.25 
   1   1  -5   91.42    2.00 
   1   1  -5   89.79    2.12 
  -1  -1   5   88.65    2.11 
  -1  -1   5   88.53    2.08 
   0   1  -5   58.07    1.27 
   0   1  -5   54.98    1.37 
   0  -1   5   55.60    1.34 
   0  -1   5   55.12    1.35 
  -1   1  -5  197.74    4.35 
  -1   1  -5  199.62    4.42 
   1  -1   5  186.47    4.39 
   1  -1   5  195.71    4.39 
  -2   1  -5   41.05    1.00 
  -2   1  -5   40.78    1.04 
   2  -1   5   40.95    1.03 
   2  -1   5   41.23    1.00 
  -3   1  -5   37.47    0.95 
  -3   1  -5   37.10    0.95 
   3  -1   5   38.76    0.97 
   3  -1   5   35.55    0.91 
  -4   1  -5   59.85    1.46 
  -4   1  -5   59.45    1.49 
   4  -1   5   60.80    1.42 
   4  -1   5   59.88    1.50 
  -5   1  -5   44.33    1.18 
  -5   1  -5   44.52    1.12 
   5  -1   5   44.37    1.18 
  -6   1  -5    5.25    0.30 
   6  -1   5    5.11    0.29 
  -7   1  -5   17.26    0.63 
   7  -1   5   16.38    0.62 
  -8   1  -5    0.18    0.12 
   8  -1   5   -0.04    0.08 
  -9   1  -5    0.71    0.22 
   9  -1   5    0.59    0.18 
   8   0  -5    0.68    0.16 
   8   0  -5    0.77    0.19 
   7   0  -5    1.13    0.17 
  -7   0   5    1.33    0.20 
   6   0  -5    0.54    0.12 
  -6   0   5    0.64    0.14 
   5   0  -5    4.90    0.28 
  -5   0   5    4.91    0.27 
   4   0  -5    1.24    0.13 
   4   0  -5    1.29    0.15 
  -4   0   5    1.10    0.14 
   3   0  -5   -0.02    0.05 
   3   0  -5   -0.03    0.03 
  -3   0   5   -0.04    0.04 
   2   0  -5    6.67    0.18 
   2   0  -5    7.10    0.26 
  -2   0   5    6.63    0.27 
  -2   0   5    6.69    0.26 
   1   0  -5   -0.03    0.05 
  -1   0   5   -0.05    0.04 
  -1   0   5   -0.02    0.04 
   0   0  -5   48.13    1.18 
   0   0   5   47.16    1.16 
   0   0   5   48.50    1.17 
  -1   0  -5  207.90    4.61 
  -1   0  -5  211.44    4.68 
   1   0   5  202.24    4.65 
   1   0   5  208.44    4.67 
  -2   0  -5  140.61    3.15 
  -2   0  -5  138.49    3.19 
   2   0   5  140.12    3.14 
   2   0   5  138.57    3.19 
  -3   0  -5    5.60    0.22 
  -3   0  -5    5.76    0.23 
   3   0   5    5.57    0.24 
   3   0   5    5.07    0.18 
  -4   0  -5    7.22    0.28 
  -4   0  -5    7.07    0.28 
   4   0   5    7.13    0.30 
  -5   0  -5   16.37    0.54 
  -5   0  -5   16.22    0.51 
   5   0   5   17.40    0.56 
  -6   0  -5   85.43    2.14 
   6   0   5   88.09    2.16 
  -7   0  -5   18.76    0.66 
   7   0   5   18.54    0.66 
  -8   0  -5   -0.06    0.09 
   8   0   5   -0.05    0.08 
  -9   0  -5    1.22    0.22 
   9   0   5    1.30    0.22 
   8  -1  -5    1.41    0.21 
   7  -1  -5    5.03    0.32 
  -7   1   5    5.11    0.33 
   6  -1  -5    1.19    0.17 
  -6   1   5    1.50    0.20 
   5  -1  -5    2.73    0.20 
  -5   1   5    2.89    0.21 
   4  -1  -5    0.36    0.09 
   4  -1  -5    0.57    0.08 
  -4   1   5    0.48    0.09 
   3  -1  -5    1.41    0.14 
   3  -1  -5    1.36    0.10 
  -3   1   5    1.31    0.08 
  -3   1   5    1.04    0.12 
   2  -1  -5    1.97    0.13 
   2  -1  -5    1.84    0.11 
  -2   1   5    1.64    0.12 
  -2   1   5    1.73    0.07 
   1  -1  -5    1.55    0.11 
  -1   1   5    1.37    0.11 
   0  -1  -5   36.17    0.94 
   0   1   5   39.00    0.92 
  -1  -1  -5   63.85    1.42 
  -1  -1  -5   61.87    1.48 
   1   1   5   62.07    1.44 
   1   1   5   60.62    1.47 
  -2  -1  -5    0.08    0.04 
  -2  -1  -5    0.08    0.04 
   2   1   5    0.08    0.05 
   2   1   5    0.10    0.03 
  -3  -1  -5   26.96    0.74 
  -3  -1  -5   28.16    0.73 
   3   1   5   27.96    0.65 
   3   1   5   27.38    0.75 
  -4  -1  -5   90.14    2.15 
  -4  -1  -5   89.03    2.15 
   4   1   5   93.85    2.18 
  -5  -1  -5    5.57    0.27 
  -5  -1  -5    5.94    0.26 
   5   1   5    6.14    0.29 
  -6  -1  -5    5.26    0.29 
  -6  -1  -5    5.20    0.25 
   6   1   5    5.20    0.29 
  -7  -1  -5    0.05    0.08 
   7   1   5    0.04    0.08 
  -8  -1  -5   16.71    0.64 
   8   1   5   16.23    0.63 
  -9  -1  -5    0.52    0.17 
   9   1   5    0.28    0.13 
   8  -2  -5    0.77    0.19 
   7  -2  -5    4.55    0.31 
  -7   2   5    4.13    0.31 
   6  -2  -5   -0.01    0.08 
  -6   2   5   -0.04    0.08 
   5  -2  -5    1.22    0.16 
  -5   2   5    0.75    0.13 
   4  -2  -5   21.10    0.64 
  -4   2   5   20.28    0.57 
  -4   2   5   20.10    0.64 
   3  -2  -5   10.40    0.37 
   3  -2  -5    9.47    0.31 
  -3   2   5   10.57    0.37 
  -3   2   5   10.10    0.30 
   2  -2  -5   37.46    0.92 
   2  -2  -5   37.79    0.96 
  -2   2   5   36.47    0.88 
   1  -2  -5    3.91    0.18 
   1  -2  -5    3.98    0.17 
  -1   2   5    3.95    0.13 
  -1   2   5    3.99    0.18 
   0  -2  -5   -0.06    0.04 
   0  -2  -5   -0.05    0.03 
   0   2   5   -0.02    0.05 
   0   2   5   -0.04    0.02 
  -1  -2  -5   41.61    1.02 
  -1  -2  -5   41.78    0.97 
   1   2   5   40.77    1.02 
   1   2   5   40.83    0.97 
  -2  -2  -5    2.92    0.16 
  -2  -2  -5    3.02    0.14 
  -2  -2  -5    3.05    0.10 
  -3  -2  -5   10.20    0.33 
  -3  -2  -5    9.87    0.34 
   3   2   5    9.84    0.34 
  -4  -2  -5   38.18    1.00 
  -4  -2  -5   38.00    1.00 
   4   2   5   39.46    1.01 
  -5  -2  -5    0.71    0.12 
  -5  -2  -5    0.82    0.12 
   5   2   5    0.98    0.14 
  -6  -2  -5    0.93    0.13 
  -6  -2  -5    1.04    0.15 
   6   2   5    0.96    0.15 
  -7  -2  -5    6.19    0.34 
   7   2   5    6.20    0.34 
  -8  -2  -5    1.63    0.22 
   8   2   5    1.73    0.23 
  -9  -2  -5    0.68    0.17 
   9   2   5    0.50    0.16 
   8  -3  -5    2.06    0.26 
   7  -3  -5    1.36    0.21 
  -7   3   5    1.36    0.21 
   6  -3  -5   -0.02    0.09 
  -6   3   5    0.07    0.09 
   5  -3  -5    4.36    0.27 
  -5   3   5    4.45    0.27 
   4  -3  -5   11.88    0.44 
  -4   3   5   11.89    0.39 
  -4   3   5   12.28    0.45 
   3  -3  -5    0.96    0.08 
   3  -3  -5    0.74    0.11 
  -3   3   5    1.01    0.10 
  -3   3   5    1.18    0.14 
   2  -3  -5   10.50    0.33 
   2  -3  -5   11.57    0.39 
  -2   3   5   11.46    0.39 
  -2   3   5   12.47    0.34 
   1  -3  -5    0.02    0.04 
   1  -3  -5    0.14    0.05 
  -1   3   5    0.00    0.04 
  -1   3   5   -0.01    0.02 
   0  -3  -5  231.29    5.20 
   0  -3  -5  234.63    5.18 
   0   3   5  226.61    5.15 
   0   3   5  234.18    5.21 
  -1  -3  -5   45.51    1.13 
  -1  -3  -5   45.58    1.08 
   1   3   5   45.95    1.12 
   1   3   5   46.05    1.09 
  -2  -3  -5   11.76    0.30 
  -2  -3  -5   11.83    0.38 
   2   3   5   11.65    0.36 
   2   3   5   12.08    0.37 
  -3  -3  -5    0.02    0.05 
   3   3   5    0.18    0.06 
  -4  -3  -5   25.97    0.73 
  -4  -3  -5   25.32    0.72 
   4   3   5   25.24    0.72 
  -5  -3  -5    0.22    0.08 
  -5  -3  -5    0.13    0.07 
   5   3   5    0.27    0.08 
  -6  -3  -5   10.48    0.40 
  -6  -3  -5    9.82    0.42 
   6   3   5   10.01    0.41 
  -7  -3  -5    0.10    0.08 
  -7  -3  -5    0.26    0.10 
   7   3   5    0.08    0.08 
  -8  -3  -5    0.05    0.10 
   8   3   5    0.00    0.09 
  -9  -3  -5    6.42    0.40 
   9   3   5    6.26    0.40 
   8  -4  -5    4.15    0.33 
   7  -4  -5   -0.05    0.09 
  -7   4   5   -0.12    0.09 
   6  -4  -5    3.76    0.27 
  -6   4   5    3.60    0.28 
   5  -4  -5   25.22    0.79 
  -5   4   5   24.68    0.72 
  -5   4   5   24.62    0.78 
   4  -4  -5    5.92    0.29 
  -4   4   5    5.29    0.28 
  -4   4   5    5.34    0.25 
   3  -4  -5    0.34    0.08 
  -3   4   5    0.27    0.08 
  -3   4   5    0.48    0.08 
   2  -4  -5    0.65    0.10 
   2  -4  -5    0.37    0.06 
  -2   4   5    0.52    0.07 
  -2   4   5    0.74    0.10 
   1  -4  -5  205.76    4.71 
   1  -4  -5  203.66    4.67 
  -1   4   5  214.27    4.67 
  -1   4   5  208.43    4.71 
   0  -4  -5    9.43    0.32 
   0  -4  -5    9.82    0.31 
   0   4   5    9.65    0.32 
   0   4   5   10.03    0.31 
  -1  -4  -5    5.13    0.22 
  -1  -4  -5    4.97    0.18 
   1   4   5    4.87    0.20 
   1   4   5    4.81    0.20 
  -2  -4  -5    2.84    0.17 
  -2  -4  -5    3.00    0.11 
   2   4   5    3.09    0.16 
   2   4   5    2.91    0.15 
  -3  -4  -5    2.79    0.18 
   3   4   5    2.81    0.17 
   3   4   5    2.72    0.16 
  -4  -4  -5    6.07    0.28 
   4   4   5    6.20    0.27 
   4   4   5    5.90    0.27 
  -5  -4  -5   10.89    0.41 
   5   4   5   10.06    0.41 
   5   4   5   10.71    0.40 
  -6  -4  -5    8.99    0.39 
   6   4   5    8.19    0.37 
  -7  -4  -5   14.97    0.56 
  -7  -4  -5   14.57    0.57 
   7   4   5   15.62    0.57 
   8   4   5    3.66    0.29 
   9   4   5    7.41    0.43 
   7  -5  -5    1.03    0.19 
  -7   5   5    1.02    0.20 
   6  -5  -5    9.38    0.44 
  -6   5   5    9.69    0.46 
   5  -5  -5    0.43    0.12 
  -5   5   5    0.50    0.12 
  -5   5   5    0.44    0.11 
   4  -5  -5   23.64    0.74 
  -4   5   5   23.18    0.70 
  -4   5   5   24.77    0.74 
   3  -5  -5   20.21    0.62 
  -3   5   5   19.54    0.58 
  -3   5   5   19.23    0.61 
   2  -5  -5    0.14    0.05 
   2  -5  -5    0.04    0.05 
  -2   5   5    0.17    0.06 
  -2   5   5    0.24    0.07 
   1  -5  -5   11.68    0.36 
   1  -5  -5   11.21    0.38 
  -1   5   5   11.18    0.37 
  -1   5   5   11.25    0.37 
   0  -5  -5    0.33    0.07 
   0  -5  -5    0.32    0.07 
   0   5   5    0.34    0.07 
   0   5   5    0.27    0.07 
  -1  -5  -5   95.22    2.17 
  -1  -5  -5   93.15    2.22 
   1   5   5   93.62    2.19 
   1   5   5   94.59    2.21 
  -2  -5  -5    7.39    0.30 
  -2  -5  -5    7.59    0.24 
   2   5   5    7.46    0.27 
   2   5   5    7.08    0.28 
  -3  -5  -5    0.99    0.13 
   3   5   5    1.05    0.11 
   3   5   5    1.33    0.14 
  -4  -5  -5    0.70    0.12 
   4   5   5    0.78    0.11 
   4   5   5    0.38    0.08 
  -5  -5  -5    2.55    0.21 
   5   5   5    2.71    0.21 
   5   5   5    2.67    0.19 
  -6  -5  -5    0.68    0.14 
   6   5   5    0.60    0.12 
   6   5   5    0.46    0.12 
  -7  -5  -5   19.48    0.69 
   7   5   5   20.27    0.67 
   7   5   5   18.98    0.69 
  -8  -5  -5    2.40    0.26 
   8   5   5    2.20    0.25 
   8   5   5    2.27    0.27 
   7  -6  -5    0.80    0.19 
  -7   6   5    1.07    0.19 
   6  -6  -5    1.45    0.21 
  -6   6   5    2.05    0.24 
  -6   6   5    1.95    0.21 
   5  -6  -5    2.32    0.24 
  -5   6   5    1.56    0.20 
  -5   6   5    1.79    0.20 
   4  -6  -5   19.35    0.67 
  -4   6   5   21.19    0.65 
  -4   6   5   21.02    0.67 
   3  -6  -5   23.57    0.72 
  -3   6   5   22.21    0.68 
  -3   6   5   23.42    0.70 
   2  -6  -5    1.41    0.16 
  -2   6   5    1.41    0.14 
  -2   6   5    1.73    0.16 
   1  -6  -5    8.19    0.29 
   1  -6  -5    7.87    0.31 
  -1   6   5    7.93    0.30 
  -1   6   5    7.98    0.32 
   0  -6  -5    0.32    0.07 
   0  -6  -5    0.21    0.06 
   0   6   5    0.18    0.07 
   0   6   5    0.16    0.05 
  -1  -6  -5   59.27    1.40 
  -1  -6  -5   57.36    1.44 
   1   6   5   56.75    1.43 
   1   6   5   57.32    1.39 
  -2  -6  -5   30.02    0.83 
  -2  -6  -5   28.42    0.75 
   2   6   5   29.63    0.82 
   2   6   5   29.76    0.77 
  -3  -6  -5   31.26    0.89 
   3   6   5   30.68    0.82 
   3   6   5   31.78    0.88 
  -4  -6  -5    1.41    0.18 
   4   6   5    1.87    0.14 
   4   6   5    1.58    0.17 
  -5  -6  -5    3.08    0.23 
   5   6   5    2.96    0.23 
   5   6   5    2.90    0.22 
  -6  -6  -5    4.26    0.29 
   6   6   5    4.09    0.28 
  -7  -6  -5   13.39    0.55 
   7   6   5   13.14    0.56 
  -8  -6  -5    0.21    0.12 
   8   6   5    0.04    0.12 
   7  -7  -5    0.52    0.17 
   6  -7  -5    1.58    0.21 
  -6   7   5    2.32    0.26 
  -6   7   5    1.97    0.23 
   5  -7  -5    6.45    0.36 
  -5   7   5    6.29    0.35 
  -5   7   5    5.91    0.33 
   4  -7  -5    1.50    0.19 
  -4   7   5    1.16    0.16 
  -4   7   5    1.63    0.19 
   3  -7  -5    1.57    0.19 
  -3   7   5    0.94    0.14 
  -3   7   5    0.88    0.13 
   2  -7  -5   13.56    0.49 
  -2   7   5   13.62    0.46 
  -2   7   5   13.60    0.48 
   1  -7  -5   78.52    1.85 
   1  -7  -5   78.61    1.90 
  -1   7   5   74.67    1.84 
  -1   7   5   77.16    1.90 
   0  -7  -5    4.70    0.24 
   0  -7  -5    5.12    0.24 
   0   7   5    5.01    0.26 
   0   7   5    4.94    0.22 
  -1  -7  -5   23.30    0.68 
  -1  -7  -5   21.98    0.64 
   1   7   5   22.57    0.68 
  -2  -7  -5  109.91    2.64 
  -2  -7  -5  110.28    2.56 
   2   7   5  110.43    2.64 
  -3  -7  -5   11.63    0.44 
   3   7   5   10.08    0.42 
  -4  -7  -5    2.67    0.22 
   4   7   5    2.21    0.22 
  -5  -7  -5    6.75    0.36 
   5   7   5    7.46    0.36 
  -6  -7  -5    0.84    0.16 
   6   7   5    0.42    0.14 
  -7  -7  -5    0.11    0.11 
   7   7   5   -0.01    0.11 
  -8  -7  -5    0.11    0.12 
   6  -8  -5    2.77    0.30 
  -6   8   5    2.72    0.28 
  -6   8   5    3.14    0.30 
   5  -8  -5    0.39    0.13 
  -5   8   5    0.32    0.13 
  -5   8   5    0.22    0.11 
   4  -8  -5    1.05    0.17 
  -4   8   5    1.46    0.20 
  -4   8   5    1.19    0.17 
   3  -8  -5   20.43    0.70 
  -3   8   5   20.49    0.68 
   2  -8  -5   22.22    0.73 
  -2   8   5   22.88    0.72 
   1  -8  -5   17.74    0.59 
  -1   8   5   17.73    0.60 
   0  -8  -5   11.69    0.43 
   0  -8  -5   11.99    0.42 
   0   8   5   10.20    0.43 
  -1  -8  -5   28.09    0.80 
  -1  -8  -5   27.81    0.83 
   1   8   5   30.12    0.85 
  -2  -8  -5    1.81    0.20 
   2   8   5    1.85    0.19 
  -3  -8  -5    2.49    0.24 
   3   8   5    2.80    0.22 
  -4  -8  -5    1.56    0.20 
   4   8   5    2.11    0.23 
  -5  -8  -5    0.21    0.11 
   5   8   5    0.44    0.13 
  -6  -8  -5    9.12    0.46 
   6   8   5    8.09    0.43 
  -7  -8  -5    3.16    0.32 
   7   8   5    1.98    0.25 
   5  -9  -5    2.00    0.26 
  -5   9   5    2.58    0.28 
   4  -9  -5    1.19    0.20 
  -4   9   5    1.45    0.21 
   3  -9  -5    4.68    0.30 
  -3   9   5    4.81    0.31 
   2  -9  -5   19.26    0.68 
  -2   9   5   19.07    0.67 
   1  -9  -5   36.73    1.06 
  -1   9   5   37.11    1.08 
   0  -9  -5   18.68    0.63 
   0  -9  -5   20.52    0.65 
   0   9   5   19.79    0.67 
  -1  -9  -5    3.11    0.24 
  -1  -9  -5    3.84    0.23 
   1   9   5    3.40    0.25 
  -2  -9  -5    2.54    0.25 
   2   9   5    2.10    0.22 
  -3  -9  -5    2.51    0.25 
   3   9   5    2.08    0.22 
  -4  -9  -5    3.84    0.29 
   4   9   5    4.24    0.30 
  -5  -9  -5   14.35    0.61 
   5   9   5   14.04    0.59 
  -6  -9  -5    0.35    0.14 
   6   9   5    0.22    0.13 
   4 -10  -5    2.06    0.27 
  -4  10   5    2.68    0.28 
   3 -10  -5   12.02    0.54 
  -3  10   5   12.09    0.53 
   2 -10  -5    6.08    0.36 
  -2  10   5    5.90    0.35 
   1 -10  -5   24.14    0.81 
  -1  10   5   25.90    0.84 
   0 -10  -5    2.26    0.23 
   0  10   5    2.49    0.26 
  -1 -10  -5    5.28    0.31 
  -1 -10  -5    5.27    0.30 
   1  10   5    5.50    0.33 
  -2 -10  -5   14.88    0.59 
   2  10   5   15.37    0.60 
  -3 -10  -5    0.13    0.10 
   3  10   5   -0.07    0.07 
  -4 -10  -5    1.26    0.21 
   4  10   5    1.29    0.21 
  -5 -10  -5    0.88    0.20 
   5  10   5    0.85    0.19 
   3 -11  -5    2.74    0.30 
  -3  11   5    2.38    0.28 
   2 -11  -5    0.00    0.10 
  -2  11   5   -0.13    0.10 
   1 -11  -5    0.17    0.11 
  -1  11   5    0.06    0.10 
   0 -11  -5    1.21    0.18 
   0  11   5    1.32    0.21 
  -1 -11  -5   38.39    1.16 
   1  11   5   39.29    1.19 
  -2 -11  -5    2.63    0.28 
   2  11   5    3.02    0.31 
  -3 -11  -5    0.16    0.12 
   3  11   5   -0.01    0.10 
  -4 -11  -5    0.05    0.12 
   4  11   5    0.00    0.11 
   1 -12  -5    0.17    0.12 
   0 -12  -5    9.93    0.48 
   0  12   5    8.54    0.55 
   1  12   5    2.45    0.41 
  -2 -12  -5    2.84    0.30 
   2   8  -6    1.07    0.21 
  -2  -8   6    0.70    0.17 
   1   8  -6    2.31    0.28 
  -1  -8   6    2.21    0.27 
   0   8  -6    5.71    0.37 
   0  -8   6    5.75    0.37 
  -1   8  -6    0.10    0.11 
   1  -8   6    0.05    0.11 
   2  -8   6    0.73    0.17 
   3  -8   6    0.14    0.12 
  -4   8  -6    1.73    0.25 
   4  -8   6    1.48    0.24 
   4   7  -6    0.11    0.14 
  -4  -7   6    0.06    0.11 
   3   7  -6    0.15    0.12 
  -3  -7   6    0.38    0.15 
   2   7  -6    0.29    0.13 
  -2  -7   6    0.25    0.12 
   1   7  -6    0.42    0.14 
  -1  -7   6    0.21    0.12 
   0   7  -6    7.33    0.40 
   0  -7   6    7.74    0.41 
  -1   7  -6    0.19    0.10 
   1  -7   6    0.06    0.11 
  -2   7  -6    5.34    0.32 
   2  -7   6    5.62    0.34 
  -3   7  -6    0.29    0.12 
   3  -7   6    0.20    0.11 
  -4   7  -6    0.30    0.13 
   4  -7   6    0.39    0.14 
  -5   7  -6    0.90    0.18 
   5  -7   6    0.84    0.17 
   5   6  -6    0.96    0.21 
  -5  -6   6    1.51    0.23 
   4   6  -6    0.31    0.14 
  -4  -6   6    0.05    0.10 
   3   6  -6    0.68    0.16 
  -3  -6   6    0.70    0.15 
   2   6  -6    1.45    0.20 
  -2  -6   6    1.55    0.21 
   1   6  -6   -0.06    0.08 
  -1  -6   6    0.06    0.08 
   0   6  -6    6.15    0.34 
   0  -6   6    6.22    0.34 
  -1   6  -6    6.84    0.35 
   1  -6   6    6.22    0.35 
  -2   6  -6    6.43    0.33 
  -2   6  -6    5.66    0.30 
   2  -6   6    5.95    0.33 
  -3   6  -6    9.16    0.41 
   3  -6   6    8.81    0.42 
  -4   6  -6    3.78    0.27 
   4  -6   6    4.71    0.30 
  -5   6  -6    1.28    0.20 
   5  -6   6    1.32    0.19 
  -6   6  -6   -0.05    0.10 
   6   5  -6    0.62    0.17 
  -6  -5   6    0.30    0.15 
   5   5  -6    0.11    0.12 
  -5  -5   6    0.19    0.12 
   4   5  -6    4.09    0.31 
  -4  -5   6    4.11    0.30 
   3   5  -6    7.46    0.39 
  -3  -5   6    7.29    0.38 
   2   5  -6    0.31    0.11 
  -2  -5   6    0.10    0.10 
   1   5  -6   41.07    1.17 
  -1  -5   6   40.83    1.16 
   0   5  -6    6.42    0.33 
   0  -5   6    6.09    0.32 
  -1   5  -6   18.05    0.62 
   1  -5   6   19.03    0.64 
  -2   5  -6    0.01    0.06 
  -2   5  -6   -0.02    0.07 
   2  -5   6   -0.01    0.07 
  -3   5  -6   -0.01    0.06 
  -3   5  -6    0.03    0.08 
   3  -5   6   -0.04    0.07 
  -4   5  -6    1.00    0.16 
   4  -5   6    0.87    0.15 
  -5   5  -6   -0.09    0.08 
   5  -5   6    0.05    0.09 
  -6   5  -6    6.80    0.39 
  -7   5  -6    4.71    0.35 
   6   4  -6    2.12    0.25 
   5   4  -6   -0.02    0.10 
  -5  -4   6    0.04    0.09 
   4   4  -6    2.49    0.25 
  -4  -4   6    2.75    0.26 
   3   4  -6   11.63    0.48 
  -3  -4   6   11.40    0.47 
   2   4  -6    6.14    0.32 
  -2  -4   6    6.34    0.32 
   1   4  -6    6.42    0.32 
  -1  -4   6    5.82    0.30 
   0   4  -6    0.98    0.15 
   0  -4   6    1.27    0.16 
  -1   4  -6    2.23    0.18 
  -1   4  -6    2.09    0.15 
   1  -4   6    2.19    0.18 
  -2   4  -6   50.77    1.31 
  -2   4  -6   52.20    1.36 
   2  -4   6   52.88    1.36 
  -3   4  -6   24.26    0.71 
  -3   4  -6   22.67    0.70 
   3  -4   6   23.56    0.68 
   3  -4   6   23.84    0.72 
  -4   4  -6    3.81    0.24 
   4  -4   6    3.91    0.23 
   4  -4   6    3.87    0.23 
  -5   4  -6    6.07    0.33 
   5  -4   6    6.26    0.31 
  -6   4  -6    0.08    0.10 
   6  -4   6   -0.05    0.08 
  -7   4  -6   14.82    0.62 
   7  -4   6   14.66    0.59 
   7   3  -6    1.82    0.25 
   6   3  -6    1.04    0.18 
   6   3  -6    1.09    0.19 
   5   3  -6    0.21    0.10 
  -5  -3   6    0.38    0.13 
   4   3  -6    1.27    0.18 
  -4  -3   6    1.23    0.17 
   3   3  -6    6.77    0.33 
  -3  -3   6    6.54    0.33 
   2   3  -6    2.83    0.21 
  -2  -3   6    2.75    0.20 
   1   3  -6    3.37    0.22 
  -1  -3   6    2.77    0.20 
  -1  -3   6    3.24    0.17 
   0   3  -6    1.14    0.14 
   0  -3   6    1.30    0.15 
   0  -3   6    1.30    0.12 
  -1   3  -6    0.58    0.08 
  -1   3  -6    0.60    0.11 
   1  -3   6    0.69    0.09 
   1  -3   6    0.52    0.10 
  -2   3  -6   42.52    1.07 
  -2   3  -6   42.16    1.11 
   2  -3   6   39.38    1.08 
   2  -3   6   42.70    1.07 
  -3   3  -6    5.46    0.26 
  -3   3  -6    5.10    0.25 
   3  -3   6    5.17    0.25 
   3  -3   6    4.72    0.24 
  -4   3  -6    5.70    0.28 
  -4   3  -6    5.66    0.27 
   4  -3   6    6.58    0.28 
   4  -3   6    5.57    0.28 
  -5   3  -6   22.01    0.70 
   5  -3   6   21.26    0.69 
  -6   3  -6    4.36    0.29 
   6  -3   6    4.11    0.28 
  -7   3  -6    8.61    0.44 
   7  -3   6    7.86    0.41 
  -8   3  -6    0.83    0.20 
   8  -3   6    0.46    0.15 
   7   2  -6    2.87    0.30 
   6   2  -6   -0.02    0.08 
   5   2  -6    1.54    0.18 
   5   2  -6    1.02    0.17 
  -5  -2   6    1.35    0.17 
   4   2  -6    5.17    0.29 
  -4  -2   6    5.60    0.28 
  -4  -2   6    5.70    0.31 
   3   2  -6    0.81    0.13 
  -3  -2   6    0.76    0.13 
  -3  -2   6    0.71    0.11 
   2   2  -6    2.60    0.19 
  -2  -2   6    2.77    0.17 
  -2  -2   6    3.00    0.20 
   1   2  -6    2.02    0.16 
  -1  -2   6    2.39    0.17 
  -1  -2   6    2.44    0.15 
   0   2  -6   25.38    0.74 
   0  -2   6   25.54    0.69 
   0  -2   6   26.21    0.73 
  -1   2  -6    0.99    0.09 
  -1   2  -6    0.69    0.10 
   1  -2   6    0.79    0.10 
   1  -2   6    0.99    0.11 
  -2   2  -6   10.68    0.38 
  -2   2  -6   10.06    0.34 
   2  -2   6   10.26    0.36 
   2  -2   6   10.19    0.35 
  -3   2  -6   14.85    0.47 
  -3   2  -6   15.54    0.49 
   3  -2   6   15.48    0.49 
   3  -2   6   14.39    0.47 
  -4   2  -6   20.75    0.63 
  -4   2  -6   20.51    0.61 
   4  -2   6   19.15    0.62 
   4  -2   6   20.99    0.59 
  -5   2  -6    5.99    0.31 
   5  -2   6    6.17    0.31 
  -6   2  -6   30.75    0.93 
   6  -2   6   30.62    0.93 
  -7   2  -6   -0.04    0.09 
   7  -2   6    0.07    0.09 
  -8   2  -6    2.81    0.30 
   8  -2   6    2.34    0.27 
   7   1  -6    2.29    0.26 
  -7  -1   6    2.90    0.29 
   6   1  -6    0.86    0.16 
  -6  -1   6    1.00    0.17 
   5   1  -6    3.56    0.22 
   5   1  -6    3.29    0.24 
  -5  -1   6    3.07    0.23 
   4   1  -6    2.04    0.17 
  -4  -1   6    2.07    0.18 
   3   1  -6    0.41    0.09 
  -3  -1   6    0.53    0.10 
  -3  -1   6    0.39    0.10 
   2   1  -6    7.28    0.31 
  -2  -1   6    7.80    0.30 
   1   1  -6    0.00    0.05 
  -1  -1   6    0.05    0.05 
  -1  -1   6    0.05    0.04 
   0   1  -6   45.26    1.15 
   0  -1   6   44.71    1.12 
   0  -1   6   44.74    1.13 
  -1   1  -6   35.24    0.97 
  -1   1  -6   39.38    0.89 
   1  -1   6   37.73    0.95 
   1  -1   6   36.28    0.95 
  -2   1  -6    3.47    0.16 
  -2   1  -6    3.76    0.20 
   2  -1   6    3.59    0.17 
   2  -1   6    3.42    0.18 
  -3   1  -6    2.40    0.15 
  -3   1  -6    2.23    0.16 
   3  -1   6    2.50    0.14 
   3  -1   6    2.26    0.16 
  -4   1  -6   32.93    0.88 
  -4   1  -6   31.07    0.87 
   4  -1   6   32.49    0.90 
   4  -1   6   32.60    0.97 
  -5   1  -6    1.75    0.15 
  -5   1  -6    2.11    0.20 
   5  -1   6    1.71    0.18 
  -6   1  -6    4.96    0.29 
   6  -1   6    5.00    0.29 
  -7   1  -6   30.42    0.95 
   7  -1   6   29.63    0.95 
  -8   1  -6    1.67    0.23 
   8  -1   6    1.57    0.22 
   7   0  -6    1.39    0.21 
  -7   0   6    1.08    0.19 
   6   0  -6    0.44    0.13 
  -6   0   6    0.86    0.15 
   5   0  -6    0.15    0.09 
  -5   0   6    0.18    0.09 
   4   0  -6    0.36    0.08 
   4   0  -6    0.36    0.10 
  -4   0   6    0.30    0.09 
   3   0  -6    2.98    0.20 
   3   0  -6    2.82    0.17 
  -3   0   6    2.69    0.18 
   2   0  -6    4.34    0.21 
  -2   0   6    4.11    0.22 
  -2   0   6    4.37    0.21 
   1   0  -6   62.04    1.57 
  -1   0   6   65.25    1.56 
  -1   0   6   65.76    1.57 
   0   0  -6   14.81    0.48 
   0   0   6   16.26    0.47 
   0   0   6   16.30    0.47 
  -1   0  -6   41.00    1.04 
  -1   0  -6   40.52    0.94 
   1   0   6   39.41    1.00 
   1   0   6   40.42    1.02 
  -2   0  -6    0.03    0.05 
  -2   0  -6   -0.04    0.03 
   2   0   6    0.01    0.05 
   2   0   6    0.06    0.03 
  -3   0  -6    1.19    0.11 
  -3   0  -6    1.24    0.13 
   3   0   6    1.18    0.09 
   3   0   6    1.04    0.12 
  -4   0  -6   12.48    0.43 
  -4   0  -6   12.87    0.43 
   4   0   6   13.90    0.46 
  -5   0  -6  114.41    2.78 
  -5   0  -6  122.24    2.82 
   5   0   6  118.91    2.83 
  -6   0  -6   21.98    0.70 
   6   0   6   21.33    0.71 
  -7   0  -6    0.33    0.12 
   7   0   6    0.16    0.11 
  -8   0  -6    3.11    0.30 
   8   0   6    3.25    0.28 
  -9   0  -6    0.04    0.17 
   8  -1  -6    0.02    0.11 
  -8   1   6    0.12    0.14 
   7  -1  -6    1.09    0.18 
  -7   1   6    1.02    0.19 
   6  -1  -6    0.62    0.14 
  -6   1   6    0.41    0.12 
   5  -1  -6    0.02    0.07 
  -5   1   6    0.07    0.08 
   4  -1  -6    2.22    0.19 
   4  -1  -6    1.87    0.14 
  -4   1   6    2.32    0.19 
   3  -1  -6    5.27    0.25 
   3  -1  -6    4.38    0.21 
  -3   1   6    4.68    0.24 
   2  -1  -6    0.65    0.09 
   2  -1  -6    0.46    0.09 
  -2   1   6    0.69    0.10 
   1  -1  -6   20.67    0.59 
  -1   1   6   20.28    0.60 
  -1   1   6   22.58    0.60 
   0  -1  -6   49.81    1.24 
   0   1   6   50.58    1.24 
   0   1   6   49.76    1.22 
  -1  -1  -6    0.02    0.04 
  -1  -1  -6   -0.02    0.02 
   1   1   6   -0.05    0.04 
   1   1   6   -0.02    0.03 
  -2  -1  -6  111.87    2.47 
  -2  -1  -6  106.46    2.53 
   2   1   6  106.44    2.45 
   2   1   6  108.54    2.53 
  -3  -1  -6   89.46    2.10 
  -3  -1  -6   90.74    2.14 
   3   1   6   90.24    2.15 
   3   1   6   89.54    2.04 
  -4  -1  -6   11.62    0.40 
  -4  -1  -6   11.78    0.41 
   4   1   6   11.73    0.42 
  -5  -1  -6   14.22    0.47 
  -5  -1  -6   14.49    0.49 
   5   1   6   13.85    0.50 
  -6  -1  -6    7.32    0.35 
  -6  -1  -6    7.62    0.33 
   6   1   6    7.54    0.35 
  -7  -1  -6   27.62    0.86 
   7   1   6   26.38    0.86 
  -8  -1  -6   21.76    0.76 
   8   1   6   21.25    0.77 
  -9  -1  -6    3.47    0.33 
   9   1   6    2.48    0.29 
   8  -2  -6    1.18    0.22 
   7  -2  -6    0.20    0.11 
  -7   2   6    0.06    0.10 
   6  -2  -6    0.63    0.14 
  -6   2   6    0.54    0.13 
   5  -2  -6    0.71    0.14 
  -5   2   6    0.60    0.13 
   4  -2  -6   12.49    0.46 
  -4   2   6   12.83    0.47 
   3  -2  -6    5.16    0.25 
   3  -2  -6    4.68    0.20 
  -3   2   6    4.76    0.24 
   2  -2  -6    0.56    0.10 
   2  -2  -6    0.80    0.09 
  -2   2   6    0.74    0.11 
   1  -2  -6    0.05    0.05 
   1  -2  -6    0.05    0.04 
  -1   2   6    0.12    0.02 
  -1   2   6    0.06    0.05 
   0  -2  -6    0.16    0.05 
   0  -2  -6    0.11    0.04 
   0   2   6    0.12    0.05 
   0   2   6    0.18    0.03 
  -1  -2  -6    0.34    0.07 
  -1  -2  -6    0.44    0.06 
   1   2   6    0.56    0.09 
   1   2   6    0.41    0.05 
  -2  -2  -6   58.23    1.35 
  -2  -2  -6   55.51    1.40 
  -2  -2  -6   57.14    1.31 
   2   2   6   56.07    1.39 
  -3  -2  -6  209.06    4.72 
  -3  -2  -6  202.22    4.68 
   3   2   6  210.84    4.72 
  -4  -2  -6   13.33    0.44 
  -4  -2  -6   13.34    0.45 
   4   2   6   13.27    0.46 
  -5  -2  -6    7.46    0.32 
  -5  -2  -6    7.17    0.31 
   5   2   6    7.05    0.32 
  -6  -2  -6   20.17    0.66 
  -6  -2  -6   20.81    0.65 
   6   2   6   20.85    0.68 
  -7  -2  -6    2.05    0.23 
   7   2   6    2.16    0.24 
  -8  -2  -6   14.20    0.59 
   8   2   6   14.66    0.60 
  -9  -2  -6    0.03    0.12 
   9   2   6    0.15    0.13 
   7  -3  -6    0.31    0.14 
  -7   3   6    0.49    0.15 
   6  -3  -6    2.19    0.24 
  -6   3   6    2.03    0.24 
   5  -3  -6   30.93    0.92 
  -5   3   6   29.76    0.91 
   4  -3  -6    8.36    0.36 
  -4   3   6    8.07    0.36 
   3  -3  -6    4.80    0.25 
   3  -3  -6    4.89    0.20 
  -3   3   6    4.67    0.25 
   2  -3  -6   29.34    0.81 
   2  -3  -6   29.51    0.77 
  -2   3   6   30.16    0.82 
  -2   3   6   29.93    0.73 
   1  -3  -6    7.46    0.27 
   1  -3  -6    7.93    0.29 
  -1   3   6    7.87    0.23 
  -1   3   6    7.52    0.30 
   0  -3  -6   28.02    0.74 
   0  -3  -6   28.20    0.72 
   0   3   6   28.03    0.75 
   0   3   6   27.23    0.68 
  -1  -3  -6   27.97    0.68 
  -1  -3  -6   27.70    0.74 
   1   3   6   26.34    0.73 
   1   3   6   26.98    0.68 
  -2  -3  -6   68.54    1.53 
  -2  -3  -6   65.95    1.62 
   2   3   6   66.65    1.61 
   2   3   6   66.26    1.58 
  -3  -3  -6    5.55    0.25 
   3   3   6    5.22    0.22 
   3   3   6    5.12    0.24 
  -4  -3  -6   56.98    1.43 
  -4  -3  -6   56.19    1.44 
   4   3   6   58.52    1.44 
  -5  -3  -6   11.20    0.42 
  -5  -3  -6   10.43    0.41 
   5   3   6   10.37    0.41 
  -6  -3  -6    5.95    0.32 
  -6  -3  -6    6.44    0.31 
   6   3   6    6.52    0.32 
  -7  -3  -6    0.49    0.12 
  -7  -3  -6    0.42    0.13 
   7   3   6    0.68    0.14 
  -8  -3  -6    5.34    0.35 
   8   3   6    5.52    0.35 
  -9  -3  -6    3.66    0.49 
   9   3   6    3.75    0.31 
   7  -4  -6    3.56    0.30 
  -7   4   6    3.89    0.31 
   6  -4  -6    0.95    0.18 
  -6   4   6    0.71    0.15 
   5  -4  -6    1.22    0.17 
  -5   4   6    1.32    0.19 
   4  -4  -6    1.90    0.20 
   3  -4  -6    3.47    0.21 
  -3   4   6    2.99    0.20 
  -3   4   6    3.38    0.17 
   2  -4  -6   15.48    0.49 
   2  -4  -6   14.52    0.44 
  -2   4   6   15.35    0.44 
  -2   4   6   15.08    0.49 
   1  -4  -6    5.37    0.24 
   1  -4  -6    5.64    0.23 
  -1   4   6    5.47    0.20 
  -1   4   6    5.29    0.24 
   0  -4  -6    1.74    0.12 
   0  -4  -6    1.79    0.12 
   0   4   6    1.62    0.10 
   0   4   6    1.67    0.13 
  -1  -4  -6    1.19    0.13 
  -1  -4  -6    1.41    0.10 
   1   4   6    1.37    0.10 
   1   4   6    1.47    0.14 
  -2  -4  -6    0.23    0.04 
  -2  -4  -6    0.20    0.06 
   2   4   6    0.30    0.07 
   2   4   6    0.17    0.06 
  -3  -4  -6    1.72    0.15 
   3   4   6    1.82    0.14 
   3   4   6    1.88    0.14 
  -4  -4  -6   41.48    1.12 
   4   4   6   40.84    1.09 
   4   4   6   42.21    1.10 
  -5  -4  -6    0.17    0.09 
   5   4   6    0.18    0.08 
   5   4   6    0.07    0.07 
  -6  -4  -6   24.84    0.78 
   6   4   6   25.33    0.78 
  -7  -4  -6   14.43    0.55 
  -7  -4  -6   12.64    0.52 
   7   4   6   12.75    0.52 
  -8  -4  -6    3.97    0.30 
   8   4   6    4.28    0.31 
   9   4   6    0.03    0.11 
   7  -5  -6    0.34    0.14 
  -7   5   6    0.39    0.14 
   6  -5  -6    2.44    0.26 
  -6   5   6    1.81    0.23 
   5  -5  -6    0.22    0.11 
  -5   5   6    0.39    0.13 
   4  -5  -6    1.71    0.19 
  -4   5   6    1.70    0.19 
  -4   5   6    1.78    0.18 
   3  -5  -6    0.77    0.12 
  -3   5   6    0.73    0.12 
  -3   5   6    0.91    0.11 
   2  -5  -6    1.47    0.11 
   2  -5  -6    1.37    0.15 
  -2   5   6    1.60    0.16 
  -2   5   6    1.58    0.12 
   1  -5  -6    1.77    0.13 
   1  -5  -6    2.21    0.15 
  -1   5   6    1.99    0.13 
  -1   5   6    2.12    0.15 
   0  -5  -6    8.64    0.31 
   0  -5  -6    8.69    0.30 
   0   5   6    8.64    0.30 
   0   5   6    8.30    0.32 
  -1  -5  -6    0.60    0.10 
  -1  -5  -6    0.65    0.08 
   1   5   6    0.52    0.08 
   1   5   6    0.52    0.09 
  -2  -5  -6    0.07    0.03 
  -2  -5  -6    0.06    0.05 
   2   5   6    0.03    0.04 
   2   5   6    0.16    0.06 
  -3  -5  -6    0.36    0.09 
   3   5   6    0.30    0.08 
   3   5   6    0.33    0.08 
  -4  -5  -6    2.64    0.20 
   4   5   6    1.98    0.16 
   4   5   6    2.27    0.17 
  -5  -5  -6   61.34    1.59 
   5   5   6   59.66    1.57 
   5   5   6   62.16    1.56 
  -6  -5  -6   22.80    0.75 
   6   5   6   22.11    0.71 
   6   5   6   21.88    0.73 
  -7  -5  -6    2.55    0.25 
   7   5   6    2.43    0.25 
   7   5   6    2.33    0.24 
  -8  -5  -6    0.34    0.13 
   8   5   6    0.29    0.13 
   8   5   6    0.37    0.13 
   7  -6  -6    0.88    0.19 
  -7   6   6    0.78    0.18 
   6  -6  -6    0.38    0.13 
  -6   6   6    0.14    0.12 
   5  -6  -6    0.16    0.10 
  -5   6   6    0.20    0.11 
   4  -6  -6    2.17    0.22 
  -4   6   6    1.79    0.20 
  -4   6   6    2.20    0.18 
   3  -6  -6    3.09    0.22 
  -3   6   6    3.22    0.20 
  -3   6   6    3.08    0.21 
   2  -6  -6   11.94    0.44 
  -2   6   6   12.54    0.43 
  -2   6   6   11.69    0.41 
   1  -6  -6   15.30    0.44 
   1  -6  -6   13.74    0.46 
  -1   6   6   13.16    0.44 
  -1   6   6   13.26    0.45 
   0  -6  -6    7.54    0.29 
   0  -6  -6    7.71    0.30 
   0   6   6    7.51    0.29 
   0   6   6    7.33    0.29 
  -1  -6  -6    8.42    0.34 
  -1  -6  -6    8.41    0.30 
   1   6   6    9.15    0.33 
   1   6   6    8.41    0.31 
  -2  -6  -6   49.66    1.30 
   2   6   6   51.17    1.26 
   2   6   6   49.63    1.28 
  -3  -6  -6   13.71    0.49 
   3   6   6   13.36    0.47 
   3   6   6   13.46    0.44 
  -4  -6  -6   12.46    0.48 
   4   6   6   12.41    0.47 
   4   6   6   12.94    0.44 
  -5  -6  -6   38.66    1.13 
   5   6   6   39.05    1.06 
   5   6   6   39.39    1.11 
  -6  -6  -6    8.44    0.41 
   6   6   6    8.67    0.41 
   6   6   6    8.19    0.38 
  -7  -6  -6   16.90    0.66 
   7   6   6   17.69    0.67 
  -8  -6  -6    4.56    0.33 
   8   6   6    4.88    0.35 
   6  -7  -6    0.64    0.17 
  -6   7   6    0.64    0.16 
   5  -7  -6    1.42    0.20 
  -5   7   6    1.66    0.21 
   4  -7  -6    1.24    0.18 
  -4   7   6    1.01    0.15 
  -4   7   6    1.62    0.20 
   3  -7  -6   32.68    0.96 
  -3   7   6   31.04    0.91 
  -3   7   6   33.22    0.94 
   2  -7  -6    4.70    0.26 
  -2   7   6    4.25    0.24 
  -2   7   6    4.98    0.26 
   1  -7  -6    9.52    0.38 
   1  -7  -6    9.89    0.35 
  -1   7   6    9.10    0.36 
  -1   7   6   10.20    0.38 
   0  -7  -6    6.00    0.27 
   0  -7  -6    6.55    0.28 
   0   7   6    6.19    0.26 
   0   7   6    6.56    0.29 
  -1  -7  -6  107.59    2.55 
  -1  -7  -6  109.07    2.60 
   1   7   6  109.38    2.60 
   1   7   6  110.00    2.55 
  -2  -7  -6    0.48    0.11 
   2   7   6    0.95    0.11 
   2   7   6    0.55    0.11 
  -3  -7  -6    7.80    0.36 
   3   7   6    7.57    0.34 
  -4  -7  -6   -0.05    0.08 
   4   7   6    0.06    0.08 
  -5  -7  -6   12.80    0.52 
   5   7   6   13.36    0.52 
  -6  -7  -6    0.80    0.16 
   6   7   6    1.13    0.18 
  -7  -7  -6   16.29    0.65 
   7   7   6   16.57    0.66 
  -8  -7  -6    0.10    0.12 
   6  -8  -6    0.19    0.14 
  -6   8   6    0.14    0.12 
   5  -8  -6    2.01    0.25 
  -5   8   6    1.88    0.23 
  -5   8   6    1.63    0.22 
   4  -8  -6    0.41    0.14 
  -4   8   6    0.75    0.14 
  -4   8   6    0.36    0.12 
   3  -8  -6    0.72    0.15 
  -3   8   6    0.51    0.12 
  -3   8   6    0.67    0.13 
   2  -8  -6    0.49    0.12 
  -2   8   6    0.43    0.11 
   1  -8  -6    5.80    0.30 
  -1   8   6    5.00    0.28 
   0  -8  -6   20.93    0.64 
   0  -8  -6   20.41    0.63 
   0   8   6   20.56    0.66 
  -1  -8  -6    7.97    0.33 
  -1  -8  -6    8.76    0.36 
   1   8   6    7.91    0.35 
  -2  -8  -6    9.15    0.39 
   2   8   6    9.02    0.39 
  -3  -8  -6    1.25    0.18 
   3   8   6    0.95    0.15 
  -4  -8  -6    4.63    0.30 
   4   8   6    4.64    0.29 
  -5  -8  -6    0.19    0.11 
   5   8   6    0.21    0.11 
  -6  -8  -6    0.07    0.09 
   6   8   6   -0.07    0.09 
  -7  -8  -6    0.25    0.13 
   7   8   6    0.25    0.13 
   5  -9  -6    0.24    0.12 
  -5   9   6    0.03    0.11 
   4  -9  -6    3.36    0.28 
  -4   9   6    3.11    0.26 
   3  -9  -6    0.16    0.10 
  -3   9   6    0.16    0.10 
   2  -9  -6    5.49    0.32 
  -2   9   6    5.43    0.32 
   1  -9  -6    3.40    0.24 
  -1   9   6    3.06    0.24 
   0  -9  -6    5.49    0.29 
   0  -9  -6    6.18    0.31 
   0   9   6    5.78    0.32 
  -1  -9  -6    3.91    0.23 
  -1  -9  -6    3.64    0.25 
   1   9   6    3.56    0.25 
  -2  -9  -6    0.41    0.12 
   2   9   6    0.88    0.15 
  -3  -9  -6    9.31    0.44 
   3   9   6    9.99    0.44 
  -4  -9  -6   14.38    0.58 
   4   9   6   14.53    0.58 
  -5  -9  -6    4.08    0.31 
   5   9   6    3.66    0.30 
  -6  -9  -6    0.05    0.11 
   6   9   6   -0.03    0.10 
   4 -10  -6    0.63    0.16 
  -4  10   6    0.51    0.14 
   3 -10  -6    4.38    0.32 
  -3  10   6    4.89    0.32 
   2 -10  -6    3.50    0.28 
  -2  10   6    3.53    0.28 
   1 -10  -6    0.72    0.15 
  -1  10   6    0.88    0.17 
   0 -10  -6    4.64    0.28 
   0  10   6    4.69    0.31 
  -1 -10  -6    4.46    0.28 
   1  10   6    3.68    0.28 
  -2 -10  -6    0.37    0.13 
   2  10   6    0.47    0.14 
  -3 -10  -6   10.56    0.49 
   3  10   6   10.18    0.48 
  -4 -10  -6    0.47    0.14 
   4  10   6    0.38    0.14 
  -5 -10  -6    2.45    0.30 
   5  10   6    2.37    0.28 
   3 -11  -6    0.24    0.13 
  -3  11   6    0.11    0.12 
   2 -11  -6    0.23    0.12 
  -2  11   6    0.42    0.15 
   1 -11  -6    0.26    0.12 
  -1  11   6    0.44    0.14 
   0 -11  -6   19.36    0.69 
   0  11   6   19.53    0.73 
   1  11   6    2.90    0.29 
  -2 -11  -6    0.22    0.12 
   2  11   6    0.16    0.11 
  -3 -11  -6    0.19    0.13 
   3  11   6    0.34    0.14 
  -4 -11  -6   -0.06    0.10 
   4  11   6    0.03    0.11 
   0  12   6    0.28    0.15 
   1  12   6    0.09    0.13 
  -2 -12  -6    0.07    0.11 
   0   8  -7    1.63    0.24 
   0  -8   7    1.57    0.27 
  -1   8  -7    0.13    0.11 
   1  -8   7    0.00    0.10 
   2  -8   7    0.88    0.20 
  -3  -7   7    1.03    0.20 
   2   7  -7    0.72    0.18 
  -2  -7   7    0.67    0.17 
   1   7  -7    0.64    0.16 
  -1  -7   7    1.02    0.20 
   0   7  -7    1.78    0.24 
   0  -7   7    1.72    0.24 
  -1   7  -7    8.08    0.43 
   1  -7   7    8.79    0.45 
  -2   7  -7    4.78    0.32 
   2  -7   7    4.72    0.34 
   3  -7   7    0.43    0.14 
   4  -7   7    0.87    0.20 
   4   6  -7    0.24    0.14 
  -4  -6   7    0.49    0.15 
   3   6  -7   -0.01    0.09 
  -3  -6   7   -0.06    0.09 
   2   6  -7    0.04    0.09 
  -2  -6   7    0.00    0.09 
   1   6  -7    2.25    0.25 
  -1  -6   7    2.32    0.26 
   0   6  -7    1.11    0.18 
   0  -6   7    1.45    0.20 
  -1   6  -7    1.82    0.22 
   1  -6   7    2.10    0.24 
  -2   6  -7   12.18    0.51 
   2  -6   7   12.65    0.53 
   3  -6   7    0.59    0.15 
   4  -6   7    1.38    0.20 
  -5   6  -7   -0.07    0.09 
   5   5  -7   11.02    0.54 
  -5  -5   7    9.81    0.50 
   4   5  -7    1.71    0.24 
  -4  -5   7    1.99    0.24 
   3   5  -7    8.98    0.45 
  -3  -5   7    8.35    0.43 
   2   5  -7    1.81    0.23 
  -2  -5   7    1.98    0.22 
   1   5  -7   11.00    0.48 
  -1  -5   7   11.05    0.48 
   0   5  -7   26.56    0.86 
   0  -5   7   27.70    0.86 
  -1   5  -7   29.13    0.90 
   1  -5   7   28.77    0.89 
  -2   5  -7    0.06    0.08 
   2  -5   7    0.11    0.08 
  -3   5  -7    6.58    0.33 
   3  -5   7    6.58    0.35 
  -4   5  -7    0.12    0.09 
   4  -5   7   -0.08    0.07 
  -5   5  -7    0.06    0.09 
  -6   5  -7    2.54    0.28 
   6   4  -7    1.77    0.25 
   5   4  -7    8.36    0.45 
  -5  -4   7    8.65    0.45 
   4   4  -7   15.09    0.61 
  -4  -4   7   16.08    0.62 
   3   4  -7   18.15    0.66 
  -3  -4   7   17.67    0.65 
   2   4  -7    1.50    0.20 
  -2  -4   7    1.31    0.18 
   1   4  -7   12.32    0.50 
  -1  -4   7   12.62    0.49 
   0   4  -7    0.52    0.12 
   0  -4   7    0.51    0.12 
  -1   4  -7    0.02    0.07 
   1  -4   7    0.06    0.07 
  -2   4  -7    0.03    0.07 
   2  -4   7    0.01    0.07 
  -3   4  -7    0.06    0.07 
  -3   4  -7    0.03    0.07 
   3  -4   7    0.01    0.07 
  -4   4  -7    8.02    0.36 
   4  -4   7    8.95    0.38 
  -5   4  -7    9.23    0.42 
   5  -4   7    9.46    0.42 
  -6   4  -7    8.30    0.42 
   6  -4   7    8.29    0.41 
  -7   4  -7    1.45    0.24 
   7  -4   7    2.03    0.24 
   6   3  -7    2.63    0.28 
   5   3  -7    0.14    0.11 
  -5  -3   7    0.10    0.11 
   4   3  -7   13.58    0.54 
  -4  -3   7   13.24    0.54 
   3   3  -7   32.25    0.97 
  -3  -3   7   31.77    0.96 
   2   3  -7    0.04    0.08 
  -2  -3   7   -0.11    0.05 
   1   3  -7    0.55    0.12 
  -1  -3   7    0.49    0.11 
   0   3  -7    0.91    0.14 
   0  -3   7    0.83    0.13 
   0  -3   7    0.99    0.15 
  -1   3  -7    0.90    0.14 
   1  -3   7    0.80    0.12 
   1  -3   7    0.82    0.11 
  -2   3  -7    0.22    0.08 
   2  -3   7    0.35    0.08 
   2  -3   7    0.21    0.08 
  -3   3  -7   20.96    0.63 
  -3   3  -7   21.15    0.67 
   3  -3   7   21.30    0.65 
   3  -3   7   21.75    0.65 
  -4   3  -7   12.96    0.46 
  -4   3  -7   13.14    0.47 
   4  -3   7   12.32    0.47 
   4  -3   7   11.83    0.45 
  -5   3  -7    4.49    0.28 
   5  -3   7    4.29    0.27 
  -6   3  -7   12.01    0.51 
   6  -3   7   11.60    0.49 
  -7   3  -7    8.26    0.44 
   7  -3   7    7.50    0.41 
  -8   3  -7    0.42    0.16 
   8  -3   7    0.29    0.13 
   6   2  -7    3.43    0.32 
   5   2  -7    2.05    0.25 
   5   2  -7    2.27    0.24 
   4   2  -7    8.12    0.38 
  -4  -2   7    8.06    0.36 
  -4  -2   7    8.00    0.39 
   3   2  -7    4.95    0.29 
  -3  -2   7    4.78    0.25 
  -3  -2   7    5.01    0.29 
   2   2  -7   13.09    0.49 
  -2  -2   7   12.90    0.44 
  -2  -2   7   13.09    0.48 
   1   2  -7    0.59    0.11 
  -1  -2   7    0.75    0.12 
  -1  -2   7    0.74    0.10 
   0   2  -7   10.57    0.41 
   0  -2   7   10.20    0.39 
   0  -2   7   10.66    0.37 
  -1   2  -7    5.22    0.27 
   1  -2   7    5.84    0.25 
   1  -2   7    5.30    0.26 
  -2   2  -7    1.31    0.12 
  -2   2  -7    1.47    0.16 
   2  -2   7    1.47    0.14 
   2  -2   7    1.61    0.15 
  -3   2  -7    2.16    0.15 
  -3   2  -7    2.30    0.18 
   3  -2   7    2.06    0.16 
   3  -2   7    2.18    0.17 
  -4   2  -7   57.75    1.49 
  -4   2  -7   60.10    1.49 
   4  -2   7   58.42    1.51 
  -5   2  -7    4.34    0.26 
   5  -2   7    4.54    0.27 
  -6   2  -7    6.33    0.34 
   6  -2   7    5.62    0.32 
  -7   2  -7    0.34    0.13 
   7  -2   7    0.17    0.10 
  -8   2  -7   12.94    0.59 
   8  -2   7   13.42    0.60 
   7   1  -7    3.10    0.31 
  -7  -1   7    2.21    0.26 
   6   1  -7    1.77    0.23 
  -6  -1   7    2.25    0.25 
   5   1  -7    1.82    0.20 
   5   1  -7    1.93    0.22 
  -5  -1   7    1.83    0.20 
   4   1  -7    0.02    0.08 
  -4  -1   7    0.17    0.09 
   3   1  -7   18.95    0.60 
  -3  -1   7   18.16    0.57 
  -3  -1   7   16.70    0.59 
   2   1  -7    3.54    0.22 
  -2  -1   7    3.07    0.21 
  -2  -1   7    3.38    0.20 
   1   1  -7    3.14    0.20 
  -1  -1   7    2.97    0.18 
  -1  -1   7    3.25    0.20 
   0   1  -7   12.66    0.46 
   0  -1   7   14.04    0.45 
   0  -1   7   13.39    0.43 
  -1   1  -7    7.91    0.33 
   1  -1   7    7.85    0.30 
   1  -1   7    7.92    0.31 
  -2   1  -7   53.03    1.27 
  -2   1  -7   50.90    1.35 
   2  -1   7   55.51    1.33 
   2  -1   7   51.32    1.30 
  -3   1  -7   30.42    0.86 
  -3   1  -7   30.73    0.81 
   3  -1   7   30.84    0.81 
   3  -1   7   30.56    0.85 
  -4   1  -7   28.77    0.82 
  -4   1  -7   28.30    0.80 
   4  -1   7   29.55    0.84 
  -5   1  -7   23.04    0.73 
  -5   1  -7   24.19    0.72 
   5  -1   7   25.13    0.76 
  -6   1  -7   48.05    1.30 
   6  -1   7   46.34    1.30 
  -7   1  -7   21.61    0.75 
   7  -1   7   20.84    0.74 
  -8   1  -7    1.07    0.20 
   8  -1   7    1.35    0.21 
   7   0  -7    0.39    0.15 
  -7   0   7    0.35    0.14 
   6   0  -7    1.58    0.21 
  -6   0   7    1.33    0.19 
   5   0  -7    3.60    0.27 
  -5   0   7    3.30    0.25 
   4   0  -7    3.29    0.21 
   4   0  -7    2.59    0.22 
  -4   0   7    2.97    0.22 
   3   0  -7    6.27    0.29 
   3   0  -7    6.08    0.31 
  -3   0   7    6.10    0.29 
   2   0  -7    0.01    0.06 
  -2   0   7    0.11    0.06 
  -2   0   7    0.04    0.05 
   1   0  -7   45.69    1.20 
  -1   0   7   47.16    1.20 
  -1   0   7   46.78    1.19 
   0   0  -7   20.59    0.61 
   0   0   7   20.05    0.59 
   0   0   7   20.31    0.59 
  -1   0  -7    2.52    0.17 
   1   0   7    2.23    0.15 
   1   0   7    2.37    0.14 
  -2   0  -7    2.79    0.14 
  -2   0  -7    3.00    0.18 
   2   0   7    2.79    0.17 
   2   0   7    2.81    0.15 
  -3   0  -7    1.74    0.15 
  -3   0  -7    1.72    0.12 
   3   0   7    1.74    0.15 
   3   0   7    1.65    0.11 
  -4   0  -7    0.39    0.09 
  -4   0  -7    0.28    0.08 
   4   0   7    0.38    0.10 
  -5   0  -7   29.81    0.86 
  -5   0  -7   30.88    0.88 
   5   0   7   31.31    0.91 
  -6   0  -7    2.59    0.21 
   6   0   7    2.24    0.22 
  -7   0  -7    0.44    0.13 
   7   0   7    0.25    0.11 
  -8   0  -7    3.99    0.31 
   8   0   7    3.43    0.29 
   7  -1  -7   -0.02    0.10 
  -7   1   7   -0.04    0.11 
   6  -1  -7    0.09    0.10 
  -6   1   7    0.16    0.10 
   5  -1  -7    3.14    0.25 
  -5   1   7    3.44    0.25 
   4  -1  -7    3.12    0.23 
   4  -1  -7    2.58    0.18 
  -4   1   7    2.98    0.22 
   3  -1  -7   10.53    0.38 
   3  -1  -7    9.90    0.40 
  -3   1   7   10.43    0.40 
   2  -1  -7   21.08    0.63 
   2  -1  -7   22.25    0.65 
  -2   1   7   20.66    0.63 
   1  -1  -7   27.26    0.74 
  -1   1   7   26.26    0.74 
  -1   1   7   25.18    0.72 
   0  -1  -7    8.33    0.32 
   0   1   7    8.47    0.30 
   0   1   7    8.29    0.32 
  -1  -1  -7    7.36    0.21 
  -1  -1  -7    6.99    0.29 
   1   1   7    7.07    0.26 
   1   1   7    6.67    0.28 
  -2  -1  -7   36.84    0.99 
  -2  -1  -7   36.91    0.91 
   2   1   7   37.65    0.99 
   2   1   7   38.46    0.92 
  -3  -1  -7    1.27    0.14 
  -3  -1  -7    1.18    0.12 
   3   1   7    1.32    0.14 
  -4  -1  -7    0.12    0.07 
  -4  -1  -7    0.05    0.05 
   4   1   7    0.14    0.07 
  -5  -1  -7    0.10    0.07 
  -5  -1  -7    0.13    0.07 
   5   1   7    0.10    0.08 
  -6  -1  -7   24.02    0.76 
  -6  -1  -7   23.62    0.73 
   6   1   7   24.75    0.78 
  -7  -1  -7   21.14    0.73 
   7   1   7   21.41    0.74 
  -8  -1  -7    1.90    0.24 
   8   1   7    2.33    0.27 
   7  -2  -7    0.06    0.11 
  -7   2   7   -0.03    0.11 
   6  -2  -7    0.28    0.11 
  -6   2   7    0.22    0.11 
   5  -2  -7    1.88    0.21 
  -5   2   7    1.87    0.21 
   4  -2  -7    0.14    0.07 
  -4   2   7   -0.08    0.06 
   3  -2  -7   38.67    0.99 
   3  -2  -7   38.21    1.04 
  -3   2   7   36.20    1.03 
   2  -2  -7    4.76    0.22 
   2  -2  -7    4.43    0.23 
  -2   2   7    4.25    0.23 
   1  -2  -7    7.76    0.30 
   1  -2  -7    8.71    0.32 
  -1   2   7    8.19    0.32 
   0  -2  -7    2.12    0.15 
   0  -2  -7    2.05    0.14 
   0   2   7    2.10    0.15 
  -1  -2  -7   16.09    0.50 
  -1  -2  -7   15.67    0.44 
   1   2   7   15.15    0.40 
   1   2   7   15.46    0.49 
  -2  -2  -7    8.69    0.28 
  -2  -2  -7    8.96    0.27 
  -2  -2  -7    8.47    0.33 
   2   2   7    9.07    0.33 
  -3  -2  -7   28.43    0.78 
  -3  -2  -7   26.76    0.73 
   3   2   7   27.13    0.77 
  -4  -2  -7    4.76    0.23 
  -4  -2  -7    4.65    0.24 
   4   2   7    4.46    0.25 
  -5  -2  -7    7.47    0.33 
  -5  -2  -7    7.06    0.32 
   5   2   7    7.25    0.34 
  -6  -2  -7   27.22    0.84 
  -6  -2  -7   28.27    0.84 
   6   2   7   28.73    0.87 
  -7  -2  -7   18.48    0.65 
   7   2   7   17.64    0.66 
  -8  -2  -7    7.60    0.42 
   8   2   7    7.99    0.43 
   7  -3  -7    0.13    0.12 
  -7   3   7    0.07    0.12 
   6  -3  -7   -0.05    0.09 
  -6   3   7    0.02    0.09 
   5  -3  -7    1.75    0.21 
  -5   3   7    1.19    0.17 
   4  -3  -7    0.03    0.07 
  -4   3   7    0.13    0.09 
   3  -3  -7   19.67    0.62 
   3  -3  -7   20.05    0.61 
  -3   3   7   19.01    0.62 
   2  -3  -7   21.55    0.64 
   2  -3  -7   21.17    0.60 
  -2   3   7   20.30    0.64 
   1  -3  -7    3.86    0.20 
   1  -3  -7    3.55    0.19 
  -1   3   7    3.72    0.21 
   0  -3  -7    7.90    0.30 
   0  -3  -7    8.34    0.29 
   0   3   7    8.32    0.24 
   0   3   7    8.09    0.31 
  -1  -3  -7  122.83    2.95 
  -1  -3  -7  127.37    2.89 
   1   3   7  128.65    2.96 
   1   3   7  128.70    2.87 
  -2  -3  -7   35.29    0.96 
  -2  -3  -7   37.89    0.86 
   2   3   7   35.80    0.90 
   2   3   7   34.48    0.94 
  -3  -3  -7   22.35    0.68 
   3   3   7   23.08    0.64 
   3   3   7   23.45    0.68 
  -4  -3  -7    3.28    0.21 
  -4  -3  -7    3.49    0.20 
   4   3   7    3.39    0.21 
  -5  -3  -7   16.47    0.56 
  -5  -3  -7   16.04    0.54 
   5   3   7   16.05    0.56 
  -6  -3  -7   18.58    0.63 
  -6  -3  -7   18.68    0.64 
   6   3   7   19.29    0.65 
  -7  -3  -7    0.15    0.09 
  -7  -3  -7    0.12    0.11 
   7   3   7    0.22    0.10 
  -8  -3  -7   40.74    1.21 
   8   3   7   39.27    1.20 
   7  -4  -7    0.28    0.13 
  -7   4   7    0.43    0.15 
   6  -4  -7    2.29    0.26 
  -6   4   7    1.98    0.24 
   5  -4  -7    0.64    0.14 
  -5   4   7    0.70    0.15 
   4  -4  -7   16.32    0.58 
  -4   4   7   15.70    0.58 
   3  -4  -7    7.69    0.34 
  -3   4   7    7.93    0.35 
   2  -4  -7    1.39    0.15 
   2  -4  -7    1.43    0.14 
  -2   4   7    1.10    0.14 
   1  -4  -7    1.90    0.14 
   1  -4  -7    1.72    0.16 
  -1   4   7    1.82    0.10 
  -1   4   7    1.56    0.15 
   0  -4  -7   14.12    0.46 
   0  -4  -7   14.77    0.44 
   0   4   7   15.05    0.41 
   0   4   7   13.56    0.46 
  -1  -4  -7    0.25    0.05 
  -1  -4  -7    0.25    0.07 
   1   4   7    0.19    0.06 
   1   4   7    0.34    0.06 
  -2  -4  -7    2.34    0.17 
   2   4   7    2.06    0.15 
   2   4   7    2.30    0.14 
  -3  -4  -7    2.25    0.17 
   3   4   7    2.29    0.16 
   3   4   7    2.23    0.15 
  -4  -4  -7    1.19    0.16 
   4   4   7    0.83    0.12 
   4   4   7    1.05    0.13 
  -5  -4  -7    2.05    0.21 
   5   4   7    2.41    0.19 
   5   4   7    2.23    0.19 
  -6  -4  -7    0.78    0.14 
   6   4   7    0.85    0.15 
  -7  -4  -7    0.10    0.10 
  -7  -4  -7    0.04    0.09 
   7   4   7    0.23    0.11 
  -8  -4  -7    2.26    0.26 
   8   4   7    2.45    0.27 
   7  -5  -7   -0.02    0.12 
  -7   5   7   -0.03    0.10 
   6  -5  -7    0.55    0.15 
  -6   5   7    0.20    0.12 
   5  -5  -7    3.31    0.26 
  -5   5   7    3.61    0.27 
   4  -5  -7    0.77    0.15 
  -4   5   7    0.82    0.15 
   3  -5  -7    0.92    0.15 
  -3   5   7    0.62    0.12 
   2  -5  -7    0.67    0.12 
   2  -5  -7    0.75    0.12 
  -2   5   7    0.78    0.13 
   1  -5  -7    0.10    0.06 
   1  -5  -7    0.27    0.08 
  -1   5   7    0.29    0.07 
  -1   5   7    0.31    0.08 
   0  -5  -7    0.89    0.11 
   0  -5  -7    0.66    0.10 
   0   5   7    1.10    0.13 
   0   5   7    0.79    0.09 
  -1  -5  -7    0.33    0.06 
  -1  -5  -7    0.33    0.08 
   1   5   7    0.23    0.07 
   1   5   7    0.25    0.06 
  -2  -5  -7    4.93    0.25 
   2   5   7    4.20    0.21 
   2   5   7    4.52    0.22 
  -3  -5  -7   19.49    0.64 
   3   5   7   21.80    0.63 
   3   5   7   20.00    0.61 
  -4  -5  -7    1.92    0.20 
   4   5   7    2.37    0.18 
   4   5   7    1.98    0.17 
  -5  -5  -7    0.00    0.07 
   5   5   7    0.10    0.08 
   5   5   7   -0.03    0.06 
  -6  -5  -7    1.39    0.19 
   6   5   7    1.54    0.20 
   6   5   7    1.83    0.21 
  -7  -5  -7    5.27    0.34 
   7   5   7    5.38    0.34 
   7   5   7    5.99    0.35 
  -8  -5  -7    0.76    0.17 
   8   5   7    0.47    0.16 
   8   5   7    0.61    0.15 
   6  -6  -7    2.81    0.29 
  -6   6   7    3.30    0.28 
   5  -6  -7    7.41    0.39 
  -5   6   7    6.64    0.38 
   4  -6  -7    1.00    0.16 
  -4   6   7    1.14    0.17 
   3  -6  -7    0.01    0.07 
  -3   6   7    0.07    0.08 
   2  -6  -7    0.46    0.10 
  -2   6   7    0.80    0.11 
  -2   6   7    0.91    0.14 
   1  -6  -7    0.30    0.08 
   1  -6  -7    0.20    0.07 
  -1   6   7    0.09    0.06 
  -1   6   7    0.19    0.07 
   0  -6  -7    2.88    0.18 
   0  -6  -7    2.66    0.17 
   0   6   7    2.57    0.17 
   0   6   7    2.78    0.18 
  -1  -6  -7   -0.07    0.05 
  -1  -6  -7    0.01    0.04 
   1   6   7    0.10    0.06 
   1   6   7    0.04    0.05 
  -2  -6  -7   10.49    0.41 
   2   6   7   10.91    0.39 
   2   6   7   10.37    0.39 
  -3  -6  -7    1.32    0.16 
   3   6   7    1.62    0.17 
   3   6   7    1.29    0.15 
  -4  -6  -7   66.72    1.73 
   4   6   7   65.96    1.67 
   4   6   7   67.61    1.70 
  -5  -6  -7   19.89    0.69 
   5   6   7   20.52    0.65 
   5   6   7   20.05    0.68 
  -6  -6  -7    3.80    0.29 
   6   6   7    3.38    0.25 
   6   6   7    3.66    0.27 
  -7  -6  -7    0.33    0.13 
   7   6   7    0.55    0.15 
   7   6   7    0.47    0.14 
  -8  -6  -7    1.19    0.21 
   8   6   7    1.58    0.24 
   6  -7  -7    0.48    0.15 
  -6   7   7    0.39    0.15 
   5  -7  -7    0.45    0.14 
  -5   7   7    0.40    0.13 
   4  -7  -7    1.08    0.18 
  -4   7   7    0.89    0.16 
   3  -7  -7   12.81    0.51 
  -3   7   7   13.40    0.51 
  -3   7   7   12.83    0.48 
   2  -7  -7    0.94    0.14 
  -2   7   7    0.81    0.12 
  -2   7   7    0.73    0.12 
   1  -7  -7    7.95    0.35 
   1  -7  -7    8.06    0.34 
  -1   7   7    8.35    0.34 
  -1   7   7    8.61    0.35 
   0  -7  -7   10.64    0.40 
   0  -7  -7    9.98    0.38 
   0   7   7   11.18    0.40 
   0   7   7   10.91    0.40 
  -1  -7  -7   30.06    0.83 
  -1  -7  -7   32.09    0.89 
   1   7   7   30.93    0.85 
   1   7   7   30.64    0.86 
  -2  -7  -7   18.61    0.62 
   2   7   7   18.95    0.60 
   2   7   7   18.71    0.57 
  -3  -7  -7  109.97    2.69 
   3   7   7  108.93    2.61 
   3   7   7  112.75    2.67 
  -4  -7  -7    2.21    0.23 
   4   7   7    2.24    0.22 
  -5  -7  -7   17.80    0.66 
   5   7   7   17.39    0.63 
  -6  -7  -7    7.19    0.39 
   6   7   7    7.25    0.39 
  -7  -7  -7   -0.01    0.11 
   7   7   7   -0.01    0.10 
   5  -8  -7   -0.08    0.10 
  -5   8   7    0.31    0.13 
   4  -8  -7    6.27    0.36 
  -4   8   7    5.76    0.34 
   3  -8  -7    4.13    0.28 
  -3   8   7    4.48    0.28 
  -3   8   7    4.61    0.28 
   2  -8  -7    1.40    0.18 
  -2   8   7    1.42    0.17 
  -2   8   7    1.35    0.16 
   1  -8  -7    1.78    0.19 
  -1   8   7    1.33    0.15 
  -1   8   7    1.77    0.19 
   0  -8  -7    2.61    0.19 
   0  -8  -7    2.57    0.19 
   0   8   7    2.43    0.20 
  -1  -8  -7    3.06    0.22 
   1   8   7    3.32    0.22 
  -2  -8  -7    1.39    0.18 
   2   8   7    1.55    0.17 
  -3  -8  -7    0.40    0.12 
   3   8   7    0.35    0.11 
  -4  -8  -7    3.22    0.26 
   4   8   7    3.31    0.25 
  -5  -8  -7    4.74    0.32 
   5   8   7    5.15    0.32 
  -6  -8  -7    0.49    0.15 
   6   8   7    0.83    0.17 
  -7  -8  -7    2.46    0.29 
   7   8   7    2.20    0.27 
   5  -9  -7    0.13    0.13 
   4  -9  -7    0.12    0.10 
   3  -9  -7    0.13    0.10 
  -3   9   7    0.03    0.09 
   2  -9  -7    0.35    0.11 
  -2   9   7    0.07    0.09 
   1  -9  -7    1.34    0.18 
  -1   9   7    0.96    0.16 
   0  -9  -7    1.20    0.19 
   0  -9  -7    1.09    0.16 
   0   9   7    1.10    0.16 
  -1  -9  -7    2.33    0.20 
   1   9   7    2.11    0.21 
  -2  -9  -7    9.67    0.43 
   2   9   7   10.30    0.44 
  -3  -9  -7    2.91    0.25 
   3   9   7    3.23    0.25 
  -4  -9  -7   -0.08    0.08 
   4   9   7   -0.01    0.09 
  -5  -9  -7   -0.03    0.09 
   5   9   7    0.03    0.10 
  -6  -9  -7    0.10    0.11 
   6   9   7    0.25    0.13 
   4 -10  -7    0.24    0.14 
  -4  10   7    0.03    0.14 
   3 -10  -7    2.27    0.27 
  -3  10   7    2.67    0.27 
   2 -10  -7    9.23    0.45 
  -2  10   7    9.07    0.44 
   1 -10  -7    0.26    0.12 
  -1  10   7    0.22    0.11 
   0 -10  -7    0.44    0.12 
   0  10   7    0.58    0.14 
  -1 -10  -7    0.16    0.10 
   1  10   7    0.07    0.09 
  -2 -10  -7    3.18    0.26 
   2  10   7    3.36    0.26 
  -3 -10  -7    6.09    0.36 
   3  10   7    4.68    0.32 
  -4 -10  -7    0.07    0.10 
   4  10   7    0.10    0.10 
  -5 -10  -7    0.08    0.12 
   5  10   7   -0.07    0.09 
   3 -11  -7    2.91    0.36 
  -3  11   7    3.14    0.31 
   2 -11  -7    1.28    0.21 
  -2  11   7    0.91    0.18 
   1 -11  -7    0.58    0.14 
  -1  11   7    0.52    0.15 
   0  11   7    0.53    0.16 
   1  11   7    3.26    0.31 
  -2 -11  -7    0.97    0.19 
   2  11   7    1.20    0.20 
  -3 -11  -7    0.01    0.11 
   3  11   7    0.03    0.11 
  -4 -11  -7    0.02    0.11 
   4  11   7    0.02    0.11 
   0  12   7   -0.19    0.09 
   1  12   7    0.55    0.18 
   1   7  -8    0.49    0.17 
  -1  -7   8    0.90    0.20 
   0   7  -8    2.09    0.27 
   0  -7   8    1.88    0.26 
  -1   7  -8    2.03    0.26 
   1  -7   8    2.10    0.27 
  -2   7  -8    0.87    0.18 
   2  -7   8    0.77    0.18 
   3  -7   8    1.13    0.21 
   3   6  -8    1.39    0.24 
  -3  -6   8    1.21    0.21 
   2   6  -8    0.23    0.12 
  -2  -6   8   -0.02    0.10 
   1   6  -8    0.55    0.16 
  -1  -6   8    0.24    0.13 
   0   6  -8    1.28    0.20 
   0  -6   8    1.40    0.21 
  -1   6  -8   -0.03    0.09 
   1  -6   8    0.17    0.11 
  -2   6  -8    0.75    0.17 
   2  -6   8    0.63    0.15 
   3  -6   8    8.23    0.43 
   4  -6   8    5.74    0.36 
   4   5  -8    0.04    0.10 
  -4  -5   8    0.17    0.13 
   3   5  -8    3.79    0.32 
  -3  -5   8    3.86    0.31 
   2   5  -8   10.85    0.50 
  -2  -5   8   10.17    0.48 
   1   5  -8    0.23    0.12 
  -1  -5   8    0.32    0.12 
   0   5  -8    2.97    0.29 
   0  -5   8    2.35    0.25 
  -1   5  -8    2.01    0.23 
   1  -5   8    2.03    0.23 
  -2   5  -8    8.70    0.42 
   2  -5   8    8.64    0.42 
  -3   5  -8    0.67    0.14 
   3  -5   8    0.52    0.13 
   4  -5   8    0.73    0.15 
   5   4  -8   10.58    0.53 
  -5  -4   8   11.35    0.54 
   4   4  -8    8.07    0.44 
  -4  -4   8    8.85    0.46 
   3   4  -8    0.99    0.19 
  -3  -4   8    0.84    0.17 
   2   4  -8    2.33    0.25 
  -2  -4   8    2.46    0.26 
   1   4  -8    3.75    0.28 
  -1  -4   8    4.11    0.28 
   0   4  -8   12.13    0.50 
   0  -4   8   11.62    0.48 
  -1   4  -8    1.47    0.20 
   1  -4   8    1.08    0.17 
  -2   4  -8    5.02    0.29 
   2  -4   8    4.74    0.29 
  -3   4  -8    5.40    0.31 
   3  -4   8    5.41    0.30 
   4  -4   8    2.09    0.22 
  -5   4  -8    3.83    0.44 
  -6   4  -8    1.08    0.19 
   5   3  -8   38.94    1.17 
  -5  -3   8   37.28    1.17 
   4   3  -8   13.36    0.56 
  -4  -3   8   13.46    0.57 
   3   3  -8    0.72    0.16 
  -3  -3   8    0.62    0.13 
   2   3  -8   11.69    0.49 
  -2  -3   8   11.20    0.48 
   1   3  -8    8.86    0.41 
  -1  -3   8    8.98    0.40 
   0   3  -8   10.72    0.44 
   0  -3   8    9.91    0.43 
  -1   3  -8    8.82    0.40 
   1  -3   8    8.74    0.38 
  -2   3  -8    9.83    0.42 
   2  -3   8    9.62    0.37 
   2  -3   8    9.93    0.40 
  -3   3  -8   15.61    0.56 
   3  -3   8   16.74    0.55 
   3  -3   8   14.91    0.54 
  -4   3  -8    2.56    0.21 
   4  -3   8    2.82    0.21 
  -5   3  -8   11.50    0.47 
   5  -3   8   11.63    0.48 
  -6   3  -8    1.09    0.18 
   6  -3   8    1.01    0.17 
  -7   3  -8    0.50    0.15 
   7  -3   8    0.43    0.14 
   6   2  -8    3.25    0.33 
   5   2  -8    4.96    0.34 
   5   2  -8    4.07    0.29 
   4   2  -8    1.94    0.22 
  -4  -2   8    2.11    0.24 
   3   2  -8   38.64    1.10 
  -3  -2   8   37.19    1.10 
   2   2  -8   17.32    0.60 
  -2  -2   8   17.00    0.55 
  -2  -2   8   15.64    0.58 
   1   2  -8   10.31    0.44 
  -1  -2   8   11.38    0.44 
  -1  -2   8   11.11    0.40 
   0   2  -8    2.25    0.19 
   0  -2   8    1.73    0.18 
   0  -2   8    2.17    0.16 
  -1   2  -8    2.84    0.21 
   1  -2   8    3.06    0.19 
   1  -2   8    2.81    0.20 
  -2   2  -8    0.49    0.11 
   2  -2   8    0.82    0.13 
   2  -2   8    0.76    0.12 
  -3   2  -8    8.91    0.38 
   3  -2   8    8.58    0.35 
   3  -2   8    9.02    0.37 
  -4   2  -8   16.63    0.57 
  -4   2  -8   16.38    0.54 
   4  -2   8   16.16    0.57 
  -5   2  -8    0.59    0.13 
   5  -2   8    0.94    0.16 
  -6   2  -8   -0.14    0.07 
   6  -2   8    0.11    0.09 
  -7   2  -8    1.70    0.23 
   7  -2   8    2.06    0.25 
  -8   2  -8    0.01    0.12 
   8  -2   8    0.06    0.10 
   6   1  -8    0.09    0.12 
  -6  -1   8    0.18    0.11 
   5   1  -8    0.47    0.14 
  -5  -1   8    0.20    0.12 
   4   1  -8   12.62    0.53 
   4   1  -8   11.92    0.49 
  -4  -1   8   13.24    0.50 
   3   1  -8    4.32    0.27 
  -3  -1   8    4.23    0.27 
  -3  -1   8    4.28    0.25 
   2   1  -8    6.41    0.32 
  -2  -1   8    6.01    0.29 
  -2  -1   8    5.88    0.31 
   1   1  -8    0.13    0.07 
  -1  -1   8    0.03    0.06 
  -1  -1   8    0.25    0.08 
   0   1  -8    3.93    0.24 
   0  -1   8    5.10    0.25 
   0  -1   8    4.41    0.23 
  -1   1  -8    1.08    0.15 
   1  -1   8    1.10    0.13 
   1  -1   8    1.00    0.12 
  -2   1  -8   51.84    1.38 
   2  -1   8   54.21    1.36 
   2  -1   8   52.65    1.33 
  -3   1  -8   16.55    0.55 
   3  -1   8   15.94    0.54 
   3  -1   8   15.80    0.50 
  -4   1  -8   21.44    0.66 
  -4   1  -8   21.96    0.69 
   4  -1   8   22.78    0.71 
  -5   1  -8    2.10    0.20 
  -5   1  -8    1.77    0.19 
   5  -1   8    1.82    0.21 
  -6   1  -8    4.17    0.28 
   6  -1   8    4.29    0.29 
  -7   1  -8    1.15    0.19 
   7  -1   8    1.20    0.19 
  -8   1  -8    1.45    0.23 
   8  -1   8    1.15    0.20 
   6   0  -8    4.89    0.35 
  -6   0   8    4.83    0.33 
   5   0  -8    0.14    0.11 
  -5   0   8    0.08    0.09 
   4   0  -8    0.09    0.09 
   4   0  -8    0.10    0.09 
  -4   0   8    0.23    0.10 
   3   0  -8    7.79    0.38 
   3   0  -8    8.45    0.37 
  -3   0   8    8.47    0.36 
   2   0  -8   43.52    1.14 
  -2   0   8   41.40    1.12 
  -2   0   8   40.75    1.14 
   1   0  -8   39.26    1.05 
  -1   0   8   37.70    1.04 
  -1   0   8   38.13    1.03 
   0   0  -8    1.13    0.14 
   0   0   8    1.32    0.15 
   0   0   8    1.37    0.15 
  -1   0  -8   10.14    0.40 
   1   0   8   10.22    0.38 
   1   0   8   11.02    0.37 
  -2   0  -8   38.02    1.07 
   2   0   8   41.03    1.07 
   2   0   8   41.18    1.02 
  -3   0  -8    0.03    0.05 
  -3   0  -8    0.01    0.06 
   3   0   8    0.04    0.06 
  -4   0  -8    0.53    0.11 
  -4   0  -8    0.45    0.09 
   4   0   8    0.54    0.11 
  -5   0  -8    7.01    0.33 
  -5   0  -8    6.94    0.32 
   5   0   8    6.91    0.35 
  -6   0  -8    4.48    0.28 
   6   0   8    3.97    0.28 
  -7   0  -8    0.12    0.10 
   7   0   8    0.01    0.09 
  -8   0  -8    3.34    0.32 
   8   0   8    4.26    0.32 
   7  -1  -8    1.79    0.25 
  -7   1   8    2.84    0.31 
   6  -1  -8    6.74    0.39 
  -6   1   8    6.97    0.39 
   5  -1  -8    2.55    0.25 
  -5   1   8    2.73    0.27 
   4  -1  -8    5.72    0.33 
  -4   1   8    6.48    0.33 
   3  -1  -8    1.81    0.20 
   3  -1  -8    2.04    0.19 
  -3   1   8    1.92    0.19 
   2  -1  -8   77.15    1.88 
   2  -1  -8   73.56    1.86 
  -2   1   8   76.95    1.88 
   1  -1  -8    6.22    0.29 
  -1   1   8    7.08    0.30 
  -1   1   8    6.96    0.29 
   0  -1  -8   80.62    1.97 
   0   1   8   79.63    1.96 
   0   1   8   81.62    1.94 
  -1  -1  -8   11.76    0.42 
   1   1   8   11.23    0.41 
   1   1   8   11.95    0.39 
  -2  -1  -8   10.64    0.40 
   2   1   8   11.09    0.35 
   2   1   8   10.84    0.40 
  -3  -1  -8    0.14    0.06 
  -3  -1  -8    0.04    0.06 
   3   1   8    0.26    0.08 
  -4  -1  -8    0.75    0.12 
  -4  -1  -8    0.85    0.12 
   4   1   8    0.83    0.13 
  -5  -1  -8    5.25    0.28 
  -5  -1  -8    5.50    0.28 
   5   1   8    5.51    0.30 
  -6  -1  -8    7.29    0.35 
  -6  -1  -8    7.52    0.35 
   6   1   8    6.95    0.37 
  -7  -1  -8    0.31    0.12 
   7   1   8    0.18    0.11 
  -8  -1  -8    4.19    0.31 
   8   1   8    4.10    0.32 
   7  -2  -8    2.13    0.28 
  -7   2   8    2.24    0.28 
   6  -2  -8    0.15    0.11 
  -6   2   8    0.00    0.09 
   5  -2  -8   13.96    0.57 
  -5   2   8   14.89    0.57 
   4  -2  -8   26.47    0.83 
  -4   2   8   25.53    0.81 
   3  -2  -8    8.24    0.33 
   3  -2  -8    8.23    0.37 
  -3   2   8    7.98    0.36 
   2  -2  -8    0.15    0.08 
   2  -2  -8    0.24    0.08 
  -2   2   8    0.16    0.08 
   1  -2  -8    6.66    0.29 
   1  -2  -8    7.22    0.30 
  -1   2   8    6.35    0.29 
   0  -2  -8   51.64    1.32 
   0  -2  -8   50.17    1.28 
   0   2   8   52.63    1.32 
  -1  -2  -8   76.84    1.87 
  -1  -2  -8   77.17    1.81 
   1   2   8   75.47    1.87 
  -2  -2  -8    4.19    0.18 
   2   2   8    4.13    0.22 
   2   2   8    4.04    0.17 
  -3  -2  -8    8.52    0.35 
  -3  -2  -8    8.83    0.31 
   3   2   8    8.52    0.35 
  -4  -2  -8   38.01    0.99 
  -4  -2  -8   37.22    1.03 
   4   2   8   36.78    1.04 
  -5  -2  -8    0.02    0.07 
  -5  -2  -8    0.02    0.07 
   5   2   8   -0.02    0.07 
  -6  -2  -8   12.83    0.49 
  -6  -2  -8   12.74    0.49 
   6   2   8   12.78    0.52 
  -7  -2  -8    0.37    0.12 
   7   2   8    0.20    0.11 
  -8  -2  -8    0.36    0.13 
   8   2   8    0.16    0.12 
   7  -3  -8    0.55    0.17 
  -7   3   8    0.56    0.19 
   6  -3  -8   -0.07    0.09 
  -6   3   8    0.08    0.11 
   5  -3  -8    3.56    0.28 
  -5   3   8    4.46    0.29 
   4  -3  -8    0.01    0.08 
  -4   3   8    0.06    0.08 
   3  -3  -8    7.82    0.36 
  -3   3   8    8.15    0.37 
   2  -3  -8    9.49    0.38 
   2  -3  -8    9.58    0.36 
  -2   3   8    9.77    0.39 
   1  -3  -8   51.72    1.34 
   1  -3  -8   52.62    1.34 
  -1   3   8   54.99    1.37 
   0  -3  -8   26.07    0.72 
   0  -3  -8   24.33    0.69 
   0   3   8   24.15    0.72 
  -1  -3  -8   14.63    0.43 
   1   3   8   13.97    0.48 
  -2  -3  -8    6.50    0.29 
   2   3   8    6.26    0.28 
   2   3   8    6.04    0.23 
  -3  -3  -8   17.15    0.57 
   3   3   8   17.96    0.52 
   3   3   8   17.03    0.56 
  -4  -3  -8    6.02    0.30 
  -4  -3  -8    6.03    0.27 
   4   3   8    6.34    0.30 
  -5  -3  -8   15.57    0.55 
  -5  -3  -8   14.82    0.52 
   5   3   8   15.43    0.56 
  -6  -3  -8    9.89    0.43 
  -6  -3  -8   10.43    0.44 
   6   3   8   10.42    0.46 
  -7  -3  -8   11.60    0.49 
  -7  -3  -8   11.13    0.49 
   7   3   8   11.18    0.51 
  -8  -3  -8    0.57    0.15 
   8   3   8    0.76    0.18 
   6  -4  -8    0.68    0.17 
  -6   4   8    0.80    0.17 
   5  -4  -8    1.50    0.21 
  -5   4   8    1.16    0.18 
   4  -4  -8    3.07    0.24 
  -4   4   8    3.22    0.25 
   3  -4  -8    0.28    0.10 
  -3   4   8    0.07    0.07 
   2  -4  -8   25.49    0.71 
   2  -4  -8   25.26    0.76 
  -2   4   8   25.13    0.77 
   1  -4  -8   10.56    0.38 
   1  -4  -8    9.66    0.37 
  -1   4   8   10.35    0.40 
   0  -4  -8    4.39    0.22 
   0  -4  -8    4.46    0.23 
   0   4   8    5.17    0.25 
  -1  -4  -8    7.23    0.26 
  -1  -4  -8    7.46    0.32 
   1   4   8    7.25    0.25 
   1   4   8    6.85    0.31 
  -2  -4  -8   14.92    0.50 
   2   4   8   14.46    0.49 
   2   4   8   14.65    0.44 
  -3  -4  -8   12.71    0.46 
   3   4   8   12.78    0.42 
   3   4   8   12.17    0.45 
  -4  -4  -8    9.79    0.40 
   4   4   8   10.00    0.38 
   4   4   8    9.49    0.39 
  -5  -4  -8    7.78    0.37 
   5   4   8    8.59    0.37 
   5   4   8    7.52    0.36 
  -6  -4  -8    5.56    0.32 
   6   4   8    5.31    0.32 
  -7  -4  -8    1.10    0.18 
   7   4   8    1.15    0.20 
   8   4   8    0.98    0.19 
   6  -5  -8    4.60    0.34 
  -6   5   8    4.38    0.33 
   5  -5  -8    0.68    0.15 
  -5   5   8    0.51    0.15 
   4  -5  -8    0.71    0.14 
  -4   5   8    1.02    0.17 
   3  -5  -8    0.29    0.09 
  -3   5   8    0.20    0.09 
   2  -5  -8    0.21    0.08 
  -2   5   8    0.25    0.09 
   1  -5  -8    0.11    0.07 
   1  -5  -8    0.14    0.06 
  -1   5   8    0.27    0.09 
   0  -5  -8    4.26    0.21 
   0  -5  -8    4.09    0.22 
   0   5   8    4.10    0.23 
  -1  -5  -8    2.73    0.15 
  -1  -5  -8    2.81    0.19 
   1   5   8    2.54    0.15 
   1   5   8    2.60    0.18 
  -2  -5  -8    0.07    0.06 
   2   5   8    0.13    0.06 
   2   5   8    0.03    0.05 
  -3  -5  -8   60.17    1.55 
   3   5   8   59.39    1.52 
   3   5   8   60.09    1.49 
  -4  -5  -8    1.66    0.19 
   4   5   8    2.16    0.18 
   4   5   8    1.86    0.19 
  -5  -5  -8    6.58    0.34 
   5   5   8    6.30    0.32 
   5   5   8    6.65    0.33 
  -6  -5  -8    2.05    0.23 
   6   5   8    1.82    0.21 
   6   5   8    2.26    0.23 
  -7  -5  -8   -0.13    0.08 
   7   5   8   -0.08    0.09 
   7   5   8    0.01    0.09 
  -8  -5  -8   -0.10    0.10 
   8   5   8   -0.02    0.10 
   8   5   8   -0.15    0.10 
   6  -6  -8    8.55    0.46 
  -6   6   8    7.94    0.45 
   5  -6  -8    0.92    0.18 
  -5   6   8    0.43    0.14 
   4  -6  -8    0.53    0.13 
  -4   6   8    0.33    0.12 
   3  -6  -8    0.53    0.12 
  -3   6   8    0.34    0.11 
   2  -6  -8   -0.02    0.06 
  -2   6   8    0.08    0.08 
   1  -6  -8   -0.06    0.05 
   1  -6  -8    0.03    0.06 
  -1   6   8   -0.03    0.05 
   0  -6  -8   11.53    0.42 
   0  -6  -8   12.01    0.41 
   0   6   8   11.65    0.43 
   0   6   8   11.67    0.39 
  -1  -6  -8   14.21    0.51 
  -1  -6  -8   15.15    0.46 
   1   6   8   15.20    0.50 
   1   6   8   14.68    0.47 
  -2  -6  -8    0.00    0.06 
   2   6   8    0.03    0.06 
   2   6   8    0.05    0.06 
  -3  -6  -8    1.97    0.21 
   3   6   8    2.58    0.18 
   3   6   8    2.49    0.18 
  -4  -6  -8   11.43    0.47 
   4   6   8   11.73    0.44 
   4   6   8   11.36    0.45 
  -5  -6  -8    0.36    0.12 
   5   6   8    0.30    0.11 
   5   6   8    0.17    0.09 
  -6  -6  -8    5.82    0.35 
   6   6   8    6.25    0.35 
   6   6   8    6.23    0.34 
  -7  -6  -8    0.06    0.11 
   7   6   8   -0.02    0.09 
   7   6   8    0.00    0.10 
  -8  -6  -8    0.39    0.14 
   8   6   8    0.39    0.17 
   8   6   8    0.25    0.14 
  -6   7   8    0.02    0.11 
   5  -7  -8    3.27    0.32 
  -5   7   8    3.57    0.29 
   4  -7  -8    5.74    0.35 
  -4   7   8    6.16    0.36 
   3  -7  -8    0.01    0.07 
  -3   7   8    0.03    0.08 
   2  -7  -8   10.25    0.42 
  -2   7   8    9.86    0.42 
   1  -7  -8   14.70    0.51 
  -1   7   8   14.63    0.52 
  -1   7   8   14.20    0.48 
   0  -7  -8    8.21    0.34 
   0  -7  -8    8.59    0.36 
   0   7   8    8.92    0.35 
   0   7   8    8.31    0.36 
  -1  -7  -8   36.51    1.02 
   1   7   8   36.53    1.00 
   1   7   8   36.18    0.99 
  -2  -7  -8   54.98    1.47 
   2   7   8   56.64    1.43 
   2   7   8   56.40    1.44 
  -3  -7  -8   79.48    2.06 
   3   7   8   83.14    2.01 
   3   7   8   82.08    2.03 
  -4  -7  -8    0.33    0.11 
   4   7   8    0.34    0.11 
   4   7   8    0.31    0.10 
  -5  -7  -8   12.59    0.54 
   5   7   8   13.23    0.52 
   5   7   8   13.55    0.56 
  -6  -7  -8    0.40    0.14 
   6   7   8    0.76    0.16 
  -7  -7  -8    0.16    0.11 
   7   7   8    0.10    0.11 
   5  -8  -8   10.33    0.52 
  -5   8   8   10.14    0.50 
   4  -8  -8    2.32    0.26 
  -4   8   8    1.99    0.23 
   3  -8  -8    7.95    0.40 
  -3   8   8    7.95    0.40 
   2  -8  -8   -0.04    0.08 
  -2   8   8   -0.04    0.07 
   1  -8  -8    5.72    0.30 
  -1   8   8    5.66    0.30 
  -1   8   8    5.93    0.30 
   0  -8  -8    2.59    0.20 
   0  -8  -8    2.65    0.20 
   0   8   8    2.67    0.20 
   0   8   8    2.75    0.21 
  -1  -8  -8   36.68    1.04 
   1   8   8   37.11    1.03 
  -2  -8  -8    3.20    0.24 
   2   8   8    3.55    0.24 
  -3  -8  -8    2.58    0.26 
   3   8   8    2.87    0.22 
  -4  -8  -8    0.38    0.12 
   4   8   8    0.30    0.11 
  -5  -8  -8    0.69    0.16 
   5   8   8    0.87    0.17 
  -6  -8  -8    1.45    0.22 
   6   8   8    1.37    0.21 
  -7  -8  -8    3.78    0.33 
   7   8   8    4.37    0.34 
   4  -9  -8    1.76    0.24 
   3  -9  -8    8.66    0.44 
   2  -9  -8    7.45    0.39 
  -2   9   8    8.07    0.46 
   1  -9  -8    7.26    0.36 
  -1   9   8    7.13    0.36 
   0  -9  -8    4.57    0.26 
   0   9   8    4.31    0.27 
  -1  -9  -8    6.50    0.35 
   1   9   8    7.26    0.36 
  -2  -9  -8    1.38    0.19 
   2   9   8    1.48    0.19 
  -3  -9  -8    5.08    0.33 
   3   9   8    5.25    0.32 
  -4  -9  -8    0.30    0.13 
   4   9   8    0.46    0.13 
  -5  -9  -8    2.63    0.29 
   5   9   8    3.06    0.31 
  -6  -9  -8    0.16    0.13 
   6   9   8   -0.03    0.10 
   3 -10  -8    6.18    0.38 
   2 -10  -8    0.55    0.15 
  -2  10   8    1.00    0.17 
   1 -10  -8    4.00    0.29 
  -1  10   8    4.00    0.29 
   0  10   8    0.09    0.08 
  -1 -10  -8    0.44    0.13 
   1  10   8    0.30    0.11 
  -2 -10  -8    0.05    0.09 
   2  10   8    0.05    0.09 
  -3 -10  -8    0.07    0.10 
   3  10   8    0.05    0.10 
  -4 -10  -8    0.78    0.17 
   4  10   8    0.85    0.18 
  -5 -10  -8    0.47    0.16 
   5  10   8    0.59    0.16 
   2 -11  -8    0.13    0.13 
  -2  11   8    0.41    0.15 
   1 -11  -8    2.64    0.28 
  -1  11   8    2.49    0.27 
   0  11   8    6.08    0.37 
   1  11   8    4.38    0.32 
  -2 -11  -8    1.90    0.24 
   2  11   8    1.89    0.24 
  -3 -11  -8    0.08    0.11 
   3  11   8    0.19    0.12 
  -4 -11  -8   12.54    0.68 
   4  11   8   14.18    0.69 
   1   6  -9    0.35    0.14 
  -1  -6   9    0.02    0.11 
   0   6  -9    0.36    0.14 
   0  -6   9    0.40    0.14 
  -1   6  -9    0.00    0.11 
   1  -6   9    0.06    0.10 
  -2   6  -9    3.24    0.28 
   2  -6   9    3.17    0.32 
   3  -6   9   24.85    0.87 
   3   5  -9    0.29    0.14 
  -3  -5   9    0.30    0.14 
   2   5  -9   -0.04    0.09 
  -2  -5   9    0.03    0.11 
   1   5  -9    4.04    0.31 
  -1  -5   9    3.78    0.30 
   0   5  -9   -0.08    0.08 
   0  -5   9    0.02    0.09 
  -1   5  -9    2.25    0.25 
   1  -5   9    2.23    0.25 
  -2   5  -9    5.59    0.35 
   2  -5   9    5.05    0.33 
  -3   5  -9    3.66    0.29 
   3  -5   9    3.82    0.29 
   4   4  -9    0.15    0.12 
  -4  -4   9   -0.03    0.10 
   3   4  -9    2.19    0.27 
  -3  -4   9    2.46    0.28 
   2   4  -9    0.10    0.10 
  -2  -4   9    0.11    0.10 
   1   4  -9    1.44    0.22 
  -1  -4   9    1.54    0.21 
   0   4  -9    1.58    0.22 
   0  -4   9    1.86    0.22 
  -1   4  -9    0.21    0.10 
   1  -4   9    0.08    0.09 
  -2   4  -9    1.49    0.20 
   2  -4   9    1.60    0.20 
  -3   4  -9    4.70    0.31 
   3  -4   9    5.06    0.30 
   5   3  -9   -0.09    0.11 
   4   3  -9    0.29    0.14 
  -4  -3   9    0.52    0.15 
   3   3  -9    0.06    0.09 
  -3  -3   9   -0.09    0.08 
   2   3  -9    5.08    0.33 
  -2  -3   9    5.64    0.34 
   1   3  -9    5.51    0.33 
  -1  -3   9    5.22    0.32 
   0   3  -9    5.03    0.31 
   0  -3   9    4.72    0.29 
  -1   3  -9    3.22    0.25 
   1  -3   9    3.05    0.24 
  -2   3  -9    8.99    0.42 
   2  -3   9    9.32    0.40 
  -3   3  -9    8.52    0.40 
   3  -3   9    9.25    0.40 
   3  -3   9    8.34    0.53 
  -4   3  -9    3.47    0.25 
   4  -3   9    3.59    0.25 
   5  -3   9    4.04    0.28 
   6  -3   9    0.69    0.16 
   5   2  -9    1.92    0.26 
   5   2  -9    1.54    0.22 
   4   2  -9   14.22    0.59 
  -4  -2   9   15.33    0.61 
   3   2  -9    8.99    0.44 
  -3  -2   9    9.28    0.44 
   2   2  -9    5.63    0.33 
  -2  -2   9    5.59    0.33 
   1   2  -9    2.52    0.25 
  -1  -2   9    2.61    0.25 
  -1  -2   9    2.57    0.20 
   0   2  -9    8.94    0.41 
   0  -2   9    9.68    0.38 
   0  -2   9    9.58    0.41 
  -1   2  -9   53.56    1.45 
   1  -2   9   52.49    1.40 
   1  -2   9   56.56    1.43 
  -2   2  -9   25.86    0.81 
   2  -2   9   24.80    0.76 
   2  -2   9   25.72    0.77 
  -3   2  -9    7.31    0.37 
   3  -2   9    8.35    0.37 
   3  -2   9    8.10    0.35 
  -4   2  -9    0.12    0.09 
   4  -2   9    0.11    0.08 
  -5   2  -9    1.08    0.17 
   5  -2   9    1.04    0.17 
  -6   2  -9    0.14    0.16 
   6  -2   9    0.23    0.12 
  -7   2  -9    0.32    0.13 
   7  -2   9    0.37    0.14 
   6   1  -9   -0.04    0.13 
   5   1  -9    0.66    0.17 
  -5  -1   9    0.56    0.21 
   4   1  -9   11.03    0.51 
   4   1  -9   11.73    0.49 
  -4  -1   9   11.79    0.48 
   3   1  -9   21.71    0.73 
  -3  -1   9   21.15    0.75 
  -3  -1   9   22.44    0.71 
   2   1  -9    0.52    0.12 
  -2  -1   9    0.36    0.11 
  -2  -1   9    0.31    0.10 
   1   1  -9   26.06    0.81 
  -1  -1   9   25.36    0.79 
  -1  -1   9   25.47    0.76 
   0   1  -9    9.26    0.41 
   0  -1   9    9.65    0.38 
   0  -1   9    9.48    0.39 
  -1   1  -9   31.23    0.93 
   1  -1   9   32.28    0.89 
   1  -1   9   30.73    0.89 
  -2   1  -9   31.84    0.96 
   2  -1   9   32.93    0.91 
   2  -1   9   33.94    0.93 
  -3   1  -9    4.16    0.26 
   3  -1   9    4.20    0.25 
  -4   1  -9   15.56    0.57 
   4  -1   9   15.32    0.56 
  -5   1  -9    0.83    0.15 
   5  -1   9    0.46    0.13 
  -6   1  -9    1.10    0.18 
   6  -1   9    0.60    0.15 
  -7   1  -9    3.12    0.30 
   7  -1   9    3.46    0.33 
   6   0  -9    1.33    0.23 
  -6   0   9    1.41    0.22 
   5   0  -9    1.10    0.19 
  -5   0   9    0.71    0.16 
   4   0  -9    0.15    0.10 
   4   0  -9    0.16    0.10 
  -4   0   9    0.17    0.10 
   3   0  -9    2.57    0.25 
   3   0  -9    2.41    0.21 
  -3   0   9    2.74    0.21 
   2   0  -9   16.19    0.57 
  -2   0   9   16.69    0.57 
  -2   0   9   16.64    0.59 
   1   0  -9   57.74    1.50 
  -1   0   9   56.36    1.48 
  -1   0   9   57.70    1.47 
   0   0  -9   30.59    0.91 
   0   0   9   32.63    0.89 
   0   0   9   30.86    0.88 
  -1   0  -9    3.86    0.24 
   1   0   9    3.89    0.22 
   1   0   9    4.21    0.24 
  -2   0  -9    0.76    0.13 
   2   0   9    0.81    0.11 
   2   0   9    0.69    0.11 
  -3   0  -9   47.02    1.24 
   3   0   9   43.82    1.22 
  -4   0  -9    0.33    0.10 
   4   0   9    0.77    0.14 
  -5   0  -9    0.04    0.07 
  -5   0  -9   -0.02    0.07 
   5   0   9    0.00    0.07 
  -6   0  -9    1.32    0.18 
  -6   0  -9    1.41    0.18 
   6   0   9    1.89    0.24 
  -7   0  -9    0.59    0.15 
   7   0   9    0.76    0.17 
  -8   0  -9    0.20    0.13 
   8   0   9    0.33    0.15 
   6  -1  -9    0.51    0.16 
  -6   1   9    0.49    0.16 
   5  -1  -9   -0.06    0.09 
  -5   1   9   -0.10    0.08 
   4  -1  -9    4.29    0.29 
  -4   1   9    4.33    0.29 
   3  -1  -9    5.74    0.30 
   3  -1  -9    6.25    0.33 
  -3   1   9    6.23    0.32 
   2  -1  -9    0.04    0.08 
   2  -1  -9    0.08    0.07 
  -2   1   9    0.07    0.07 
   1  -1  -9    4.91    0.27 
  -1   1   9    5.14    0.27 
   0  -1  -9   13.90    0.50 
   0   1   9   13.72    0.48 
   0   1   9   14.10    0.48 
  -1  -1  -9   24.32    0.75 
   1   1   9   24.49    0.73 
   1   1   9   24.77    0.70 
  -2  -1  -9    0.02    0.06 
   2   1   9    0.06    0.07 
   2   1   9    0.10    0.05 
  -3  -1  -9    8.13    0.36 
   3   1   9    7.67    0.35 
  -4  -1  -9    4.30    0.27 
   4   1   9    4.36    0.27 
  -5  -1  -9    8.25    0.35 
  -5  -1  -9    8.26    0.38 
   5   1   9    8.12    0.39 
  -6  -1  -9    0.19    0.09 
  -6  -1  -9    0.26    0.10 
   6   1   9    0.39    0.13 
  -7  -1  -9    1.04    0.18 
   7   1   9    0.70    0.16 
  -8  -1  -9    0.22    0.12 
   8   1   9    0.11    0.12 
   6  -2  -9    5.59    0.38 
  -6   2   9    6.35    0.39 
   5  -2  -9    0.12    0.11 
  -5   2   9    0.24    0.12 
   4  -2  -9    0.55    0.13 
  -4   2   9    0.38    0.11 
   3  -2  -9   -0.09    0.06 
   3  -2  -9   -0.03    0.07 
  -3   2   9   -0.04    0.07 
   2  -2  -9   47.44    1.29 
   2  -2  -9   48.27    1.27 
  -2   2   9   48.93    1.29 
   1  -2  -9   11.08    0.41 
   1  -2  -9   10.38    0.41 
  -1   2   9   10.12    0.41 
   0  -2  -9   89.58    2.13 
   0  -2  -9   87.51    2.17 
   0   2   9   88.95    2.16 
  -1  -2  -9   31.00    0.89 
  -1  -2  -9   31.60    0.83 
   1   2   9   30.24    0.88 
  -2  -2  -9   10.57    0.42 
   2   2   9   10.36    0.40 
  -3  -2  -9    8.28    0.37 
   3   2   9    8.03    0.36 
  -4  -2  -9   98.64    2.32 
  -4  -2  -9   97.11    2.39 
   4   2   9   95.55    2.39 
  -5  -2  -9   19.34    0.62 
  -5  -2  -9   18.50    0.64 
   5   2   9   19.60    0.67 
  -6  -2  -9   10.53    0.44 
  -6  -2  -9   10.50    0.46 
   6   2   9   10.88    0.49 
  -7  -2  -9    0.90    0.25 
  -7  -2  -9    0.11    0.10 
   7   2   9   -0.06    0.09 
  -8  -2  -9    0.11    0.12 
   8   2   9   -0.15    0.09 
   6  -3  -9    1.45    0.23 
  -6   3   9    1.33    0.22 
   5  -3  -9    1.26    0.20 
  -5   3   9    1.46    0.21 
   4  -3  -9    3.35    0.26 
  -4   3   9    3.35    0.26 
   3  -3  -9   11.09    0.46 
  -3   3   9   12.40    0.49 
   2  -3  -9    1.76    0.17 
   2  -3  -9    1.68    0.19 
  -2   3   9    2.13    0.21 
   1  -3  -9   86.04    2.07 
   1  -3  -9   82.77    2.06 
  -1   3   9   85.67    2.10 
   0  -3  -9    0.62    0.11 
   0  -3  -9    0.58    0.10 
   0   3   9    0.53    0.12 
  -1  -3  -9   29.00    0.85 
  -1  -3  -9   29.48    0.78 
   1   3   9   29.49    0.85 
  -2  -3  -9  145.41    3.37 
   2   3   9  140.22    3.36 
  -3  -3  -9    4.45    0.26 
   3   3   9    4.89    0.27 
  -4  -3  -9   21.33    0.70 
   4   3   9   21.44    0.69 
  -5  -3  -9   -0.01    0.07 
  -5  -3  -9    0.00    0.06 
   5   3   9    0.10    0.08 
  -6  -3  -9    6.90    0.35 
  -6  -3  -9    6.56    0.35 
   6   3   9    7.04    0.37 
  -7  -3  -9    7.18    0.39 
  -7  -3  -9    7.31    0.39 
   7   3   9    7.67    0.42 
  -8  -3  -9    0.06    0.12 
   8   3   9    0.08    0.12 
   6  -4  -9    0.87    0.19 
  -6   4   9    1.03    0.20 
   5  -4  -9    0.01    0.09 
  -5   4   9    0.14    0.11 
   4  -4  -9   11.64    0.50 
  -4   4   9   12.71    0.52 
   3  -4  -9   48.99    1.36 
  -3   4   9   51.12    1.37 
   2  -4  -9    6.47    0.31 
   2  -4  -9    5.69    0.27 
  -2   4   9    6.14    0.32 
   1  -4  -9    1.44    0.16 
   1  -4  -9    1.38    0.16 
  -1   4   9    1.39    0.18 
   0  -4  -9    8.83    0.35 
   0  -4  -9    9.63    0.38 
   0   4   9    9.87    0.39 
  -1  -4  -9   35.79    1.02 
  -1  -4  -9   38.47    0.96 
   1   4   9   36.57    1.02 
  -2  -4  -9   64.24    1.61 
   2   4   9   60.98    1.59 
  -3  -4  -9   20.19    0.65 
   3   4   9   19.50    0.58 
   3   4   9   19.38    0.64 
  -4  -4  -9   20.67    0.68 
   4   4   9   20.59    0.63 
   4   4   9   20.11    0.67 
  -5  -4  -9    0.06    0.08 
   5   4   9    0.06    0.08 
   5   4   9    0.22    0.09 
  -6  -4  -9    2.73    0.24 
   6   4   9    2.72    0.23 
   6   4   9    2.47    0.26 
  -7  -4  -9    0.69    0.16 
   7   4   9    0.67    0.16 
   8   4   9    1.02    0.21 
   6  -5  -9    0.01    0.11 
  -6   5   9    0.00    0.10 
   5  -5  -9    1.67    0.23 
  -5   5   9    1.68    0.22 
   4  -5  -9    5.47    0.33 
  -4   5   9    4.87    0.32 
   3  -5  -9    3.44    0.25 
  -3   5   9    3.12    0.24 
   2  -5  -9   12.29    0.48 
  -2   5   9   12.77    0.49 
   1  -5  -9    4.73    0.25 
   1  -5  -9    4.04    0.24 
  -1   5   9    4.08    0.26 
   0  -5  -9    0.42    0.09 
   0  -5  -9    0.55    0.11 
   0   5   9    0.39    0.10 
  -1  -5  -9   12.16    0.46 
   1   5   9   13.41    0.47 
  -2  -5  -9    0.38    0.11 
   2   5   9    0.36    0.09 
   2   5   9    0.37    0.10 
  -3  -5  -9    5.46    0.31 
   3   5   9    5.83    0.30 
   3   5   9    6.03    0.27 
  -4  -5  -9   31.40    0.95 
   4   5   9   31.37    0.89 
   4   5   9   31.42    0.93 
  -5  -5  -9   15.19    0.58 
   5   5   9   15.38    0.57 
   5   5   9   15.50    0.55 
  -6  -5  -9    0.69    0.15 
   6   5   9    0.64    0.15 
   6   5   9    1.23    0.18 
  -7  -5  -9    2.25    0.26 
   7   5   9    2.79    0.28 
   7   5   9    2.77    0.28 
  -8  -5  -9    0.66    0.17 
   8   5   9    0.26    0.13 
   8   5   9    0.49    0.16 
   5  -6  -9    0.33    0.14 
  -5   6   9    0.35    0.14 
   4  -6  -9    0.63    0.15 
  -4   6   9    0.71    0.16 
   3  -6  -9    3.16    0.24 
  -3   6   9    2.93    0.24 
   2  -6  -9    8.91    0.39 
  -2   6   9    8.54    0.40 
   1  -6  -9    0.18    0.08 
   1  -6  -9    0.13    0.07 
  -1   6   9    0.16    0.08 
   0  -6  -9    0.21    0.08 
   0  -6  -9    0.13    0.08 
   0   6   9    0.14    0.08 
  -1  -6  -9   10.71    0.43 
   1   6   9   11.63    0.43 
  -2  -6  -9    4.84    0.28 
   2   6   9    5.42    0.29 
   2   6   9    5.52    0.26 
  -3  -6  -9    5.89    0.32 
   3   6   9    5.50    0.27 
   3   6   9    6.03    0.31 
  -4  -6  -9    5.90    0.34 
   4   6   9    6.26    0.32 
   4   6   9    6.41    0.33 
  -5  -6  -9   35.72    1.08 
   5   6   9   35.89    1.04 
   5   6   9   35.89    1.05 
  -6  -6  -9    9.80    0.47 
   6   6   9    8.98    0.44 
   6   6   9    9.12    0.43 
  -7  -6  -9    1.26    0.20 
   7   6   9    1.03    0.19 
   7   6   9    0.95    0.19 
   5  -7  -9    0.04    0.11 
  -5   7   9    0.15    0.12 
   4  -7  -9    0.09    0.10 
  -4   7   9   -0.06    0.09 
   3  -7  -9    0.10    0.09 
  -3   7   9    0.20    0.11 
   2  -7  -9   10.00    0.44 
  -2   7   9   10.65    0.45 
   1  -7  -9   26.21    0.78 
  -1   7   9   24.67    0.78 
   0  -7  -9   42.69    1.17 
   0  -7  -9   43.17    1.15 
   0   7   9   43.93    1.19 
  -1  -7  -9   11.42    0.44 
   1   7   9   10.05    0.39 
   1   7   9   10.46    0.42 
  -2  -7  -9    8.46    0.40 
   2   7   9    9.22    0.37 
   2   7   9    8.90    0.38 
  -3  -7  -9    6.70    0.36 
   3   7   9    7.10    0.34 
   3   7   9    7.02    0.34 
  -4  -7  -9   67.71    1.78 
   4   7   9   65.79    1.72 
   4   7   9   66.56    1.71 
  -5  -7  -9    0.31    0.12 
   5   7   9    0.13    0.10 
   5   7   9    0.31    0.11 
  -6  -7  -9    1.11    0.20 
   6   7   9    0.82    0.16 
   6   7   9    0.89    0.18 
  -7  -7  -9    0.05    0.11 
   7   7   9    0.05    0.11 
  -5   8   9    0.01    0.11 
   4  -8  -9    2.25    0.26 
  -4   8   9    2.44    0.26 
   3  -8  -9    3.22    0.27 
  -3   8   9    3.21    0.27 
   2  -8  -9    1.34    0.19 
  -2   8   9    1.37    0.19 
   1  -8  -9   39.75    1.12 
  -1   8   9   39.26    1.11 
   0  -8  -9    6.35    0.31 
   0  -8  -9    6.38    0.32 
   0   8   9    6.26    0.32 
  -1  -8  -9   16.20    0.58 
   1   8   9   15.89    0.55 
   1   8   9   16.48    0.57 
  -2  -8  -9    1.41    0.19 
   2   8   9    1.22    0.16 
   2   8   9    1.15    0.16 
  -3  -8  -9    3.92    0.28 
   3   8   9    3.95    0.27 
  -4  -8  -9    0.68    0.16 
   4   8   9    0.53    0.13 
  -5  -8  -9   11.41    0.52 
   5   8   9   11.18    0.50 
  -6  -8  -9    0.34    0.15 
   6   8   9    0.37    0.14 
   4  -9  -9    7.87    0.45 
  -4   9   9    7.81    0.43 
   3  -9  -9    3.01    0.29 
  -3   9   9    2.58    0.27 
   2  -9  -9    4.18    0.30 
   1  -9  -9    8.92    0.41 
   0   9   9    5.78    0.34 
  -1  -9  -9   19.95    0.69 
   1   9   9   20.90    0.69 
  -2  -9  -9    4.20    0.29 
   2   9   9    4.23    0.28 
  -3  -9  -9    1.80    0.23 
   3   9   9    1.47    0.20 
  -4  -9  -9    0.62    0.16 
   4   9   9    0.71    0.16 
  -5  -9  -9    0.44    0.15 
   5   9   9    0.71    0.17 
   6   9   9    0.18    0.12 
   3 -10  -9    3.66    0.34 
   2 -10  -9    2.00    0.24 
   1 -10  -9    6.65    0.38 
   0  10   9    3.82    0.28 
  -1 -10  -9    1.23    0.19 
   1  10   9    1.38    0.19 
  -2 -10  -9    2.69    0.28 
   2  10   9    2.82    0.28 
  -3 -10  -9    1.95    0.25 
   3  10   9    1.80    0.24 
  -4 -10  -9   -0.01    0.09 
   4  10   9   -0.07    0.11 
   5  10   9    0.09    0.12 
   0  11   9    0.71    0.15 
   1  11   9    0.08    0.11 
  -2 -11  -9    2.86    0.31 
   2  11   9    3.00    0.30 
  -3 -11  -9    1.73    0.24 
   3  11   9    1.44    0.22 
   1   5 -10    0.44    0.15 
  -1  -5  10    0.55    0.16 
   0   5 -10    0.24    0.13 
   0  -5  10    0.22    0.13 
  -1   5 -10    7.51    0.43 
   1  -5  10    8.12    0.44 
  -2   5 -10    0.92    0.18 
   2  -5  10    0.90    0.18 
  -3   5 -10    1.52    0.22 
   3  -5  10    1.38    0.22 
   3   4 -10   -0.12    0.09 
  -3  -4  10   -0.02    0.13 
   2   4 -10    0.04    0.11 
  -2  -4  10   -0.02    0.10 
   1   4 -10    0.11    0.11 
  -1  -4  10    0.18    0.12 
   0   4 -10    0.02    0.11 
   0  -4  10    0.05    0.10 
  -1   4 -10    8.30    0.44 
   1  -4  10    8.70    0.43 
  -2   4 -10    0.57    0.15 
   2  -4  10    0.44    0.14 
  -3   4 -10    5.17    0.33 
   3  -4  10    5.03    0.33 
   4   3 -10    2.09    0.28 
  -4  -3  10    2.50    0.42 
   3   3 -10    0.93    0.18 
  -3  -3  10    1.29    0.21 
   2   3 -10    0.13    0.11 
  -2  -3  10    0.17    0.12 
   1   3 -10    3.82    0.30 
  -1  -3  10    3.48    0.28 
   0   3 -10    0.27    0.11 
   0  -3  10    0.09    0.10 
  -1   3 -10    2.60    0.26 
   1  -3  10    2.00    0.22 
  -2   3 -10    0.26    0.11 
   2  -3  10    0.42    0.13 
  -3   3 -10    1.66    0.21 
  -4   3 -10    1.68    0.22 
   6  -3  10    3.15    0.32 
   4   2 -10    2.15    0.25 
   3   2 -10    0.14    0.11 
  -3  -2  10    0.19    0.12 
   2   2 -10    1.60    0.22 
  -2  -2  10    1.32    0.20 
   1   2 -10    1.08    0.18 
  -1  -2  10    0.79    0.15 
   0   2 -10   19.66    0.70 
   0  -2  10   18.93    0.66 
  -1   2 -10    2.17    0.24 
   1  -2  10    2.96    0.23 
   1  -2  10    2.76    0.22 
  -2   2 -10    1.81    0.22 
   2  -2  10    2.02    0.20 
   2  -2  10    1.79    0.20 
  -3   2 -10    2.28    0.24 
   3  -2  10    2.20    0.22 
  -4   2 -10    3.55    0.27 
   4  -2  10    3.75    0.26 
  -5   2 -10    0.04    0.09 
   5  -2  10    0.05    0.10 
   6  -2  10    2.35    0.27 
   5   1 -10    1.86    0.26 
   4   1 -10    2.03    0.25 
   4   1 -10    2.03    0.24 
   3   1 -10    4.44    0.31 
  -3  -1  10    4.44    0.29 
  -3  -1  10    3.86    0.29 
   2   1 -10   30.16    0.94 
  -2  -1  10   29.63    0.94 
  -2  -1  10   30.88    0.91 
   1   1 -10   13.17    0.53 
  -1  -1  10   12.47    0.51 
  -1  -1  10   12.87    0.49 
   0   1 -10   23.48    0.79 
   0  -1  10   24.62    0.76 
   0  -1  10   23.93    0.74 
  -1   1 -10    3.77    0.26 
   1  -1  10    3.92    0.25 
   1  -1  10    3.96    0.25 
  -2   1 -10    2.87    0.23 
   2  -1  10    2.72    0.21 
   2  -1  10    2.98    0.21 
  -3   1 -10    3.35    0.25 
   3  -1  10    3.16    0.23 
  -4   1 -10    0.64    0.14 
   4  -1  10    0.70    0.14 
  -5   1 -10    2.96    0.25 
   5  -1  10    3.27    0.26 
   6  -1  10    1.46    0.21 
   7  -1  10   -0.08    0.09 
   5   0 -10    2.26    0.28 
  -5   0  10    2.36    0.26 
   4   0 -10    1.09    0.18 
   4   0 -10    1.01    0.19 
  -4   0  10    0.77    0.16 
   3   0 -10   20.19    0.70 
   3   0 -10   20.32    0.72 
  -3   0  10   20.20    0.69 
   2   0 -10   46.47    1.29 
  -2   0  10   46.16    1.27 
  -2   0  10   46.99    1.29 
   1   0 -10    6.27    0.33 
  -1   0  10    5.91    0.32 
  -1   0  10    5.89    0.31 
   0   0 -10   13.75    0.53 
   0   0  10   13.82    0.51 
   0   0  10   14.33    0.52 
  -1   0 -10   10.87    0.45 
   1   0  10    9.94    0.43 
   1   0  10   11.39    0.42 
  -2   0 -10    5.17    0.30 
   2   0  10    5.77    0.30 
   2   0  10    5.15    0.26 
  -3   0 -10    2.73    0.22 
   3   0  10    2.80    0.22 
  -4   0 -10    0.30    0.11 
   4   0  10    0.08    0.08 
  -5   0 -10    0.61    0.14 
   5   0  10    0.75    0.15 
  -6   0 -10    0.00    0.09 
   6   0  10    0.13    0.11 
   7   0  10    0.65    0.16 
   5  -1 -10    0.88    0.19 
  -5   1  10    0.49    0.15 
   4  -1 -10    6.63    0.39 
  -4   1  10    7.00    0.38 
   3  -1 -10    8.28    0.39 
   3  -1 -10    8.22    0.41 
  -3   1  10    8.45    0.40 
   2  -1 -10   22.32    0.73 
   2  -1 -10   22.66    0.74 
  -2   1  10   22.62    0.73 
   1  -1 -10    8.22    0.38 
   1  -1 -10    8.11    0.37 
  -1   1  10    8.01    0.37 
   0  -1 -10   39.06    1.10 
   0   1  10   39.67    1.07 
   0   1  10   37.94    1.08 
  -1  -1 -10    0.10    0.08 
   1   1  10    0.11    0.08 
   1   1  10    0.05    0.06 
  -2  -1 -10   10.54    0.45 
   2   1  10   11.25    0.44 
  -3  -1 -10    0.54    0.13 
   3   1  10    0.52    0.12 
  -4  -1 -10    0.45    0.13 
   4   1  10    0.39    0.11 
  -5  -1 -10    3.93    0.28 
   5   1  10    3.76    0.27 
  -6  -1 -10    3.16    0.25 
   6   1  10    2.83    0.28 
  -7  -1 -10    0.38    0.13 
   7   1  10    0.56    0.15 
  -6   2  10    2.74    0.32 
   5  -2 -10    2.66    0.29 
  -5   2  10    2.65    0.28 
   4  -2 -10    6.93    0.39 
  -4   2  10    7.05    0.38 
   3  -2 -10    1.10    0.17 
   3  -2 -10    0.69    0.13 
  -3   2  10    1.01    0.17 
   2  -2 -10    6.13    0.31 
   2  -2 -10    5.83    0.32 
  -2   2  10    5.79    0.32 
   1  -2 -10   90.85    2.22 
   1  -2 -10   91.24    2.24 
  -1   2  10   89.71    2.24 
   0  -2 -10   21.18    0.66 
   0  -2 -10   21.42    0.69 
   0   2  10   21.46    0.69 
  -1  -2 -10   39.27    1.13 
  -1  -2 -10   41.60    1.07 
   1   2  10   41.25    1.13 
  -2  -2 -10   23.98    0.78 
   2   2  10   25.77    0.78 
  -3  -2 -10   19.58    0.67 
   3   2  10   19.35    0.65 
  -4  -2 -10    0.61    0.13 
   4   2  10    0.63    0.13 
  -5  -2 -10    2.40    0.24 
   5   2  10    2.48    0.26 
  -6  -2 -10    1.81    0.22 
  -6  -2 -10    1.69    0.20 
   6   2  10    1.64    0.22 
  -7  -2 -10    0.52    0.15 
  -7  -2 -10    0.66    0.15 
   7   2  10    0.48    0.15 
  -8  -2 -10    0.16    0.12 
   5  -3 -10    0.43    0.14 
  -5   3  10    0.57    0.16 
   4  -3 -10    0.10    0.10 
  -4   3  10    0.16    0.10 
   3  -3 -10    0.82    0.15 
  -3   3  10    0.71    0.15 
   2  -3 -10    8.04    0.37 
   2  -3 -10    7.85    0.35 
  -2   3  10    8.07    0.38 
   1  -3 -10    8.24    0.36 
   1  -3 -10    8.49    0.37 
  -1   3  10    7.61    0.37 
   0  -3 -10   69.92    1.79 
   0  -3 -10   71.85    1.74 
   0   3  10   68.65    1.78 
  -1  -3 -10   31.33    0.86 
  -1  -3 -10   31.98    0.93 
   1   3  10   32.46    0.93 
  -2  -3 -10    7.92    0.37 
   2   3  10    8.13    0.37 
  -3  -3 -10    3.66    0.25 
   3   3  10    3.83    0.25 
  -4  -3 -10   12.34    0.50 
   4   3  10   12.14    0.49 
  -5  -3 -10    1.33    0.19 
   5   3  10    1.71    0.22 
  -6  -3 -10    8.59    0.40 
  -6  -3 -10    8.63    0.42 
   6   3  10    8.64    0.43 
  -7  -3 -10    0.01    0.09 
  -7  -3 -10    0.02    0.09 
   7   3  10    0.19    0.12 
  -8  -3 -10    0.68    0.18 
   5  -4 -10    3.56    0.30 
  -5   4  10    3.90    0.32 
   4  -4 -10    0.10    0.10 
  -4   4  10    0.19    0.11 
   3  -4 -10    0.74    0.14 
  -3   4  10    0.65    0.15 
   2  -4 -10    1.54    0.17 
   2  -4 -10    1.67    0.19 
  -2   4  10    1.45    0.20 
   1  -4 -10    0.50    0.11 
   1  -4 -10    0.50    0.11 
  -1   4  10    0.57    0.13 
   0  -4 -10   79.21    1.99 
   0  -4 -10   80.15    1.94 
   0   4  10   78.81    2.00 
  -1  -4 -10   80.21    1.97 
   1   4  10   76.39    1.96 
  -2  -4 -10    9.01    0.40 
   2   4  10    9.20    0.40 
  -3  -4 -10    8.77    0.40 
   3   4  10    8.55    0.39 
  -4  -4 -10    1.45    0.19 
   4   4  10    1.56    0.20 
  -5  -4 -10   13.92    0.55 
   5   4  10   13.63    0.54 
   5   4  10   12.71    0.49 
  -6  -4 -10    9.00    0.43 
   6   4  10    8.19    0.40 
   6   4  10    8.04    0.42 
  -7  -4 -10    0.08    0.10 
   7   4  10    0.29    0.13 
   7   4  10    0.32    0.13 
   5  -5 -10    2.74    0.30 
  -5   5  10    2.89    0.30 
   4  -5 -10    0.06    0.09 
  -4   5  10    0.07    0.10 
   3  -5 -10    7.17    0.37 
  -3   5  10    7.54    0.39 
   2  -5 -10    9.34    0.41 
  -2   5  10    9.76    0.44 
   1  -5 -10    7.74    0.35 
   1  -5 -10    7.39    0.34 
  -1   5  10    8.18    0.38 
   0  -5 -10   28.19    0.78 
   0  -5 -10   26.36    0.81 
   0   5  10   25.74    0.82 
  -1  -5 -10   10.42    0.43 
   1   5  10    9.78    0.42 
  -2  -5 -10   93.06    2.34 
   2   5  10   96.64    2.34 
  -3  -5 -10   61.77    1.62 
   3   5  10   60.48    1.60 
  -4  -5 -10    4.91    0.30 
   4   5  10    4.64    0.27 
   4   5  10    4.76    0.29 
  -5  -5 -10    3.81    0.28 
   5   5  10    4.41    0.27 
   5   5  10    3.79    0.27 
  -6  -5 -10    0.11    0.10 
   6   5  10   -0.01    0.09 
   6   5  10    0.00    0.09 
  -7  -5 -10   11.17    0.53 
   7   5  10   11.09    0.52 
   7   5  10   11.53    0.51 
   5  -6 -10    2.30    0.28 
  -5   6  10    2.38    0.28 
   4  -6 -10    4.11    0.31 
  -4   6  10    3.76    0.30 
   3  -6 -10    0.49    0.14 
  -3   6  10    0.54    0.14 
   2  -6 -10    6.08    0.33 
  -2   6  10    5.81    0.33 
   1  -6 -10   12.25    0.46 
   1  -6 -10   11.47    0.47 
  -1   6  10   13.03    0.50 
   0  -6 -10   17.81    0.62 
   0  -6 -10   18.92    0.60 
   0   6  10   18.90    0.64 
  -1  -6 -10    1.41    0.18 
   1   6  10    1.41    0.18 
  -2  -6 -10   49.17    1.37 
   2   6  10   51.16    1.36 
  -3  -6 -10    8.15    0.39 
   3   6  10    6.90    0.35 
  -4  -6 -10    7.03    0.38 
   4   6  10    7.72    0.38 
   4   6  10    7.55    0.35 
  -5  -6 -10    1.66    0.22 
   5   6  10    2.02    0.21 
   5   6  10    1.93    0.22 
  -6  -6 -10    0.71    0.17 
   6   6  10    0.75    0.17 
   6   6  10    0.70    0.15 
  -7  -6 -10    1.82    0.25 
   7   6  10    2.05    0.26 
   7   6  10    1.37    0.20 
  -5   7  10    0.21    0.13 
   4  -7 -10    0.37    0.13 
  -4   7  10    0.70    0.17 
   3  -7 -10    1.83    0.23 
  -3   7  10    2.56    0.27 
   2  -7 -10    2.04    0.22 
  -2   7  10    2.25    0.24 
   1  -7 -10    0.17    0.08 
  -1   7  10    0.11    0.09 
   0  -7 -10    0.43    0.11 
   0   7  10    0.30    0.11 
  -1  -7 -10    4.75    0.29 
   1   7  10    4.95    0.29 
  -2  -7 -10    2.31    0.24 
   2   7  10    2.17    0.22 
  -3  -7 -10   32.35    1.00 
   3   7  10   32.24    0.94 
   3   7  10   32.05    0.96 
  -4  -7 -10    0.32    0.12 
   4   7  10    0.57    0.13 
   4   7  10    0.57    0.13 
  -5  -7 -10   10.38    0.50 
   5   7  10   11.26    0.48 
   5   7  10   10.75    0.46 
  -6  -7 -10   13.26    0.58 
   6   7  10   12.53    0.55 
   6   7  10   13.49    0.56 
  -7  -7 -10    1.75    0.25 
   7   7  10    1.18    0.20 
   4  -8 -10    0.55    0.16 
  -4   8  10    0.77    0.18 
   3  -8 -10    7.45    0.41 
  -3   8  10    7.24    0.41 
   2  -8 -10    9.15    0.43 
  -2   8  10    9.02    0.43 
   1  -8 -10    5.83    0.32 
  -1   8  10    6.16    0.34 
   0  -8 -10    0.21    0.10 
   0   8  10    0.09    0.09 
  -1  -8 -10    0.02    0.08 
   1   8  10    0.16    0.10 
  -2  -8 -10    0.04    0.08 
   2   8  10   -0.04    0.07 
  -3  -8 -10    7.60    0.41 
   3   8  10    8.42    0.38 
   3   8  10    7.56    0.37 
  -4  -8 -10    7.36    0.41 
   4   8  10    7.50    0.38 
  -5  -8 -10    2.58    0.28 
   5   8  10    3.24    0.30 
  -6  -8 -10    6.59    0.41 
   6   8  10    6.88    0.40 
   3  -9 -10    8.55    0.45 
  -3   9  10    8.11    0.44 
   2  -9 -10    5.53    0.34 
  -2   9  10    5.08    0.32 
   1  -9 -10    6.99    0.37 
  -1   9  10    8.58    0.52 
  -1  -9 -10    8.63    0.42 
  -2  -9 -10    0.16    0.11 
   2   9  10    0.16    0.16 
  -3  -9 -10    2.06    0.25 
   3   9  10    2.24    0.24 
  -4  -9 -10    0.77    0.18 
   4   9  10    0.91    0.17 
  -5  -9 -10   13.93    0.64 
   5   9  10   14.84    0.61 
   2 -10 -10    0.11    0.10 
  -1 -10 -10    0.23    0.11 
  -2 -10 -10    5.23    0.35 
   2  10  10    5.18    0.33 
  -3 -10 -10   14.66    0.63 
   3  10  10   13.89    0.58 
  -4 -10 -10    1.42    0.24 
   4  10  10    2.16    0.26 
  -2 -11 -10    0.53    0.15 
   2  11  10    0.71    0.17 
   1   4 -11    5.82    0.41 
  -1  -4  11    6.23    0.39 
   0   4 -11    0.20    0.13 
   0  -4  11    0.21    0.14 
  -1   4 -11    1.98    0.25 
   1  -4  11    1.77    0.23 
  -2   4 -11   -0.04    0.10 
   2  -4  11    0.11    0.12 
  -3   4 -11    1.20    0.20 
   3   3 -11    2.98    0.38 
   2   3 -11    0.02    0.11 
  -2  -3  11    0.32    0.14 
   1   3 -11    6.57    0.40 
  -1  -3  11    7.11    0.41 
   0   3 -11    1.18    0.20 
   0  -3  11    1.05    0.19 
  -1   3 -11    5.94    0.37 
   1  -3  11    5.60    0.35 
  -2   3 -11    0.98    0.19 
   2  -3  11    1.08    0.18 
  -3   3 -11    4.83    0.34 
  -4   3 -11    0.64    0.16 
   3   2 -11    1.05    0.20 
  -3  -2  11    1.17    0.21 
   2   2 -11    0.51    0.15 
  -2  -2  11    0.52    0.15 
   1   2 -11    2.23    0.26 
  -1  -2  11    2.57    0.27 
   0   2 -11    0.10    0.11 
   0  -2  11    0.16    0.11 
  -1   2 -11   -0.01    0.09 
   1  -2  11   -0.01    0.08 
  -2   2 -11    0.20    0.10 
   2  -2  11    0.23    0.11 
   2  -2  11    0.04    0.09 
  -3   2 -11    0.06    0.08 
   3  -2  11    0.17    0.10 
  -4   2 -11    1.52    0.21 
   4  -2  11    1.34    0.20 
  -5   2 -11    6.03    0.37 
   5  -2  11    6.10    0.37 
   6  -2  11    6.22    0.40 
   4   1 -11    5.00    0.37 
   4   1 -11    5.52    0.36 
   3   1 -11    2.77    0.28 
   2   1 -11    3.54    0.28 
  -2  -1  11    3.78    0.27 
  -2  -1  11    4.25    0.31 
   1   1 -11    8.16    0.42 
  -1  -1  11    7.88    0.40 
  -1  -1  11    7.66    0.38 
   0   1 -11    2.48    0.26 
   0  -1  11    2.46    0.24 
   0  -1  11    2.56    0.22 
  -1   1 -11    0.07    0.08 
   1  -1  11    0.15    0.09 
   1  -1  11    0.14    0.08 
  -2   1 -11    0.32    0.12 
   2  -1  11    0.32    0.12 
  -3   1 -11    1.13    0.18 
   3  -1  11    0.87    0.16 
  -4   1 -11    1.51    0.22 
   4  -1  11    1.27    0.19 
  -5   1 -11    6.97    0.39 
   5  -1  11    6.21    0.38 
   6  -1  11    5.07    0.35 
   4   0 -11    2.42    0.28 
  -4   0  11    2.85    0.29 
   3   0 -11    7.49    0.40 
   3   0 -11    7.79    0.42 
  -3   0  11    6.97    0.38 
   2   0 -11    5.18    0.32 
  -2   0  11    4.26    0.29 
   1   0 -11    3.28    0.26 
  -1   0  11    3.91    0.26 
  -1   0  11    3.44    0.26 
   0   0 -11    0.48    0.13 
   0   0  11    0.41    0.12 
   0   0  11    0.46    0.12 
  -1   0 -11    0.42    0.12 
   1   0  11    0.48    0.12 
   1   0  11    0.33    0.11 
  -2   0 -11    2.47    0.25 
   2   0  11    2.71    0.22 
  -3   0 -11    3.33    0.26 
   3   0  11    3.16    0.24 
  -4   0 -11    0.10    0.09 
   4   0  11    0.03    0.08 
  -5   0 -11    0.22    0.11 
   5   0  11    0.07    0.10 
  -6   0 -11    7.52    0.41 
   6   0  11    7.54    0.42 
  -5   1  11   -0.06    0.11 
   4  -1 -11    3.86    0.32 
  -4   1  11    4.18    0.31 
   3  -1 -11    1.73    0.22 
   3  -1 -11    1.92    0.23 
  -3   1  11    1.81    0.22 
   2  -1 -11   11.22    0.48 
   2  -1 -11   10.31    0.47 
  -2   1  11   11.51    0.48 
   1  -1 -11    0.02    0.07 
   1  -1 -11   -0.03    0.07 
  -1   1  11    0.03    0.08 
   0  -1 -11    2.88    0.24 
   0   1  11    2.96    0.22 
   0   1  11    3.09    0.23 
  -1  -1 -11   13.25    0.54 
   1   1  11   13.39    0.49 
   1   1  11   13.62    0.52 
  -2  -1 -11    1.24    0.18 
   2   1  11    1.46    0.19 
  -3  -1 -11    7.37    0.39 
   3   1  11    7.55    0.37 
  -4  -1 -11    1.92    0.24 
   4   1  11    2.09    0.24 
  -5  -1 -11    0.16    0.11 
   5   1  11    0.24    0.11 
  -6  -1 -11    4.69    0.32 
   6   1  11    4.70    0.33 
   7   1  11    0.42    0.15 
   5  -2 -11    0.91    0.19 
  -5   2  11    0.67    0.18 
   4  -2 -11   14.71    0.62 
  -4   2  11   16.45    0.64 
   3  -2 -11    2.47    0.24 
   3  -2 -11    2.23    0.24 
  -3   2  11    2.35    0.25 
   2  -2 -11    4.32    0.28 
   2  -2 -11    4.46    0.29 
  -2   2  11    4.92    0.30 
   1  -2 -11    0.24    0.10 
   1  -2 -11    0.23    0.10 
  -1   2  11    0.27    0.11 
   0  -2 -11    4.26    0.28 
   0  -2 -11    3.81    0.24 
   0   2  11    4.43    0.28 
  -1  -2 -11    7.98    0.38 
  -1  -2 -11    6.84    0.32 
   1   2  11    6.91    0.35 
  -2  -2 -11    1.29    0.19 
   2   2  11    1.39    0.19 
  -3  -2 -11    0.83    0.15 
   3   2  11    0.66    0.13 
  -4  -2 -11    0.13    0.09 
   4   2  11    0.01    0.09 
  -5  -2 -11    3.64    0.27 
   5   2  11    3.43    0.27 
  -6  -2 -11    0.06    0.09 
   6   2  11    0.36    0.13 
  -7  -2 -11    8.64    0.45 
   7   2  11    8.63    0.47 
   5  -3 -11    0.43    0.16 
  -5   3  11    0.65    0.18 
   4  -3 -11    1.40    0.21 
  -4   3  11    1.37    0.21 
   3  -3 -11    0.76    0.16 
  -3   3  11    0.79    0.17 
   2  -3 -11    0.64    0.13 
   2  -3 -11    0.69    0.14 
  -2   3  11    0.74    0.15 
   1  -3 -11   15.57    0.55 
   1  -3 -11   15.50    0.56 
  -1   3  11   14.40    0.57 
   0  -3 -11   20.26    0.64 
   0  -3 -11   19.92    0.68 
   0   3  11   19.19    0.67 
  -1  -3 -11    2.47    0.22 
   1   3  11    2.27    0.23 
  -2  -3 -11   11.03    0.47 
   2   3  11   10.60    0.45 
  -3  -3 -11    0.12    0.09 
   3   3  11    0.18    0.09 
  -4  -3 -11    0.16    0.10 
   4   3  11    0.11    0.09 
  -5  -3 -11    0.07    0.09 
   5   3  11    0.07    0.09 
  -6  -3 -11    0.05    0.09 
   6   3  11   -0.02    0.08 
  -7  -3 -11    0.03    0.11 
   7   3  11    0.31    0.14 
   5  -4 -11    2.42    0.29 
  -5   4  11    3.37    0.35 
   4  -4 -11    0.12    0.11 
  -4   4  11   -0.04    0.09 
   3  -4 -11    3.70    0.29 
  -3   4  11    4.31    0.31 
   2  -4 -11    6.54    0.34 
   2  -4 -11    6.72    0.34 
  -2   4  11    6.89    0.37 
   1  -4 -11    4.06    0.25 
   1  -4 -11    4.05    0.26 
  -1   4  11    4.31    0.29 
   0  -4 -11    3.86    0.23 
   0  -4 -11    4.04    0.27 
   0   4  11    3.72    0.26 
  -1  -4 -11    0.10    0.08 
   1   4  11    0.28    0.09 
  -2  -4 -11    0.34    0.11 
   2   4  11    0.41    0.11 
  -3  -4 -11    0.00    0.09 
   3   4  11    0.06    0.09 
  -4  -4 -11   10.04    0.46 
   4   4  11    9.56    0.44 
  -5  -4 -11    0.03    0.09 
   5   4  11    0.01    0.08 
  -6  -4 -11    0.81    0.17 
   6   4  11    0.59    0.16 
  -7  -4 -11   -0.01    0.11 
   7   4  11   -0.09    0.10 
   4  -5 -11    2.71    0.29 
  -4   5  11    2.45    0.27 
   3  -5 -11    1.59    0.21 
  -3   5  11    1.49    0.21 
   2  -5 -11   11.78    0.48 
  -2   5  11   11.02    0.50 
   1  -5 -11    7.50    0.35 
   1  -5 -11    6.53    0.33 
  -1   5  11    5.94    0.35 
   0  -5 -11    8.77    0.40 
   0  -5 -11    8.50    0.36 
   0   5  11    8.65    0.41 
  -1  -5 -11   15.42    0.58 
   1   5  11   16.05    0.58 
  -2  -5 -11   11.36    0.48 
   2   5  11   10.89    0.47 
  -3  -5 -11    0.41    0.13 
   3   5  11    0.23    0.10 
  -4  -5 -11    4.33    0.30 
   4   5  11    3.81    0.28 
  -5  -5 -11    1.25    0.20 
   5   5  11    1.41    0.20 
  -6  -5 -11   12.47    0.56 
   6   5  11   12.74    0.56 
  -7  -5 -11    0.82    0.19 
   7   5  11    0.94    0.18 
   7   5  11    0.88    0.19 
   4  -6 -11    0.23    0.13 
  -4   6  11    0.17    0.12 
   3  -6 -11    1.65    0.22 
  -3   6  11    1.11    0.20 
   2  -6 -11    4.52    0.30 
  -2   6  11    4.57    0.31 
   1  -6 -11   19.32    0.64 
   1  -6 -11   17.98    0.63 
  -1   6  11   17.80    0.66 
   0  -6 -11   12.40    0.49 
   0   6  11   12.39    0.51 
  -1  -6 -11   14.01    0.54 
   1   6  11   13.50    0.54 
  -2  -6 -11    1.54    0.21 
   2   6  11    1.27    0.18 
  -3  -6 -11   -0.02    0.08 
   3   6  11   -0.07    0.08 
  -4  -6 -11    8.31    0.43 
   4   6  11    8.53    0.41 
  -5  -6 -11    0.00    0.10 
   5   6  11   -0.02    0.09 
  -6  -6 -11    0.19    0.12 
   6   6  11   -0.02    0.09 
   6   6  11    0.10    0.12 
  -7  -6 -11    8.39    0.48 
   7   6  11    9.10    0.48 
   7   6  11    9.07    0.46 
   4  -7 -11    0.22    0.12 
  -4   7  11    0.20    0.13 
   3  -7 -11    8.38    0.43 
  -3   7  11    8.45    0.44 
   2  -7 -11    4.00    0.28 
  -2   7  11    3.97    0.30 
   1  -7 -11    5.16    0.30 
  -1   7  11    6.00    0.34 
   0  -7 -11   -0.05    0.08 
   0   7  11    0.11    0.10 
  -1  -7 -11    0.42    0.12 
   1   7  11    0.28    0.11 
  -2  -7 -11    3.67    0.27 
   2   7  11    3.17    0.25 
  -3  -7 -11    6.02    0.36 
   3   7  11    6.91    0.36 
  -4  -7 -11   37.56    1.18 
   4   7  11   40.28    1.15 
  -5  -7 -11    5.83    0.38 
   5   7  11    5.69    0.35 
  -6  -7 -11   14.05    0.62 
   6   7  11   14.33    0.60 
   6   7  11   14.14    0.58 
   3  -8 -11    8.22    0.44 
  -3   8  11    8.89    0.46 
   2  -8 -11    0.23    0.11 
  -2   8  11    0.10    0.11 
   1  -8 -11    2.01    0.22 
  -1   8  11    1.64    0.22 
   0  -8 -11    0.09    0.09 
   0   8  11   -0.08    0.08 
  -1  -8 -11    0.21    0.10 
   1   8  11    0.32    0.12 
  -2  -8 -11    0.28    0.12 
   2   8  11    0.12    0.09 
  -3  -8 -11    1.45    0.22 
   3   8  11    1.42    0.20 
  -4  -8 -11    2.38    0.28 
   4   8  11    2.60    0.27 
  -5  -8 -11    9.83    0.51 
   5   8  11    9.70    0.46 
   6   8  11    0.93    0.19 
   3  -9 -11    2.35    0.28 
  -3   9  11    1.84    0.26 
   2  -9 -11    4.03    0.30 
  -2   9  11    3.96    0.31 
  -1   9  11    0.07    0.11 
   0   9  11    0.25    0.11 
  -1  -9 -11    1.95    0.23 
  -2  -9 -11    2.49    0.27 
  -3  -9 -11    0.85    0.18 
  -4  -9 -11    3.24    0.32 
   5   9  11   20.01    0.75 
  -2 -10 -11    8.79    0.46 
  -3 -10 -11    0.20    0.14 
  -1  -3  12    2.45    0.29 
   0   3 -12    0.30    0.14 
   0  -3  12    0.53    0.16 
  -1   3 -12    0.70    0.17 
   1  -3  12    0.83    0.18 
  -2   3 -12    2.44    0.29 
  -3   3 -12   -0.01    0.09 
   2   2 -12    0.44    0.15 
  -2  -2  12    0.39    0.15 
   1   2 -12    3.22    0.33 
  -1  -2  12    3.13    0.31 
   0   2 -12    0.57    0.16 
   0  -2  12    0.32    0.12 
  -1   2 -12    4.84    0.35 
   1  -2  12    3.93    0.29 
  -2   2 -12    0.87    0.17 
  -3   2 -12    0.45    0.14 
  -4   2 -12    0.05    0.10 
   3   1 -12    3.00    0.36 
   3   1 -12    2.66    0.30 
   2   1 -12    0.44    0.14 
  -2  -1  12    0.27    0.14 
   1   1 -12    0.25    0.13 
  -1  -1  12    0.34    0.13 
   0   1 -12   -0.06    0.08 
   0  -1  12   -0.08    0.08 
   0  -1  12   -0.13    0.07 
  -1   1 -12    0.27    0.12 
   1  -1  12    0.20    0.10 
   1  -1  12    0.17    0.10 
  -2   1 -12    1.16    0.20 
   2  -1  12    1.18    0.19 
  -3   1 -12    2.63    0.28 
   3  -1  12    2.43    0.26 
  -4   1 -12    0.01    0.10 
   4  -1  12   -0.02    0.09 
  -5   1 -12    0.02    0.11 
   5  -1  12   -0.07    0.10 
   3   0 -12    2.53    0.28 
   3   0 -12    2.32    0.27 
  -3   0  12    3.25    0.30 
   2   0 -12    0.29    0.12 
   2   0 -12    0.21    0.13 
  -2   0  12    0.29    0.13 
   1   0 -12    0.17    0.12 
  -1   0  12    0.34    0.13 
  -1   0  12    0.19    0.11 
   0   0 -12    0.32    0.13 
   0   0  12    0.17    0.10 
   0   0  12    0.26    0.11 
  -1   0 -12    0.00    0.09 
   1   0  12    0.03    0.08 
   1   0  12    0.10    0.09 
  -2   0 -12    0.68    0.16 
   2   0  12    0.87    0.17 
  -3   0 -12   -0.04    0.09 
   3   0  12   -0.05    0.08 
  -4   0 -12    0.08    0.10 
   4   0  12    0.17    0.10 
  -5   0 -12    0.35    0.13 
   5   0  12    0.38    0.14 
  -6   0 -12    0.21    0.14 
   6   0  12    0.19    0.13 
  -4   1  12    5.61    0.38 
   3  -1 -12    0.90    0.18 
   3  -1 -12    0.95    0.18 
  -3   1  12    0.88    0.18 
   2  -1 -12    0.50    0.15 
   2  -1 -12    0.74    0.16 
  -2   1  12    0.60    0.16 
   1  -1 -12    0.26    0.12 
   1  -1 -12    0.22    0.10 
  -1   1  12    0.20    0.11 
   0  -1 -12    0.50    0.14 
   0  -1 -12    0.43    0.12 
   0   1  12    0.60    0.14 
  -1  -1 -12    9.05    0.44 
   1   1  12    8.49    0.41 
  -2  -1 -12    0.46    0.13 
   2   1  12    0.43    0.13 
  -3  -1 -12    6.63    0.39 
   3   1  12    7.17    0.38 
  -4  -1 -12   13.45    0.58 
   4   1  12   13.24    0.56 
  -5  -1 -12    0.55    0.16 
   5   1  12    0.68    0.16 
  -6  -1 -12    0.67    0.16 
   6   1  12    0.44    0.15 
   4  -2 -12    2.54    0.29 
  -4   2  12    2.22    0.27 
   3  -2 -12   11.67    0.53 
  -3   2  12   11.37    0.52 
   2  -2 -12    3.93    0.28 
   2  -2 -12    3.55    0.28 
  -2   2  12    4.17    0.30 
   1  -2 -12    0.55    0.13 
   1  -2 -12    0.30    0.12 
  -1   2  12    0.45    0.13 
   0  -2 -12    0.79    0.14 
   0  -2 -12    0.68    0.15 
   0   2  12    0.58    0.14 
  -1  -2 -12    0.15    0.10 
   1   2  12    0.10    0.10 
  -2  -2 -12   16.33    0.63 
   2   2  12   16.25    0.62 
  -3  -2 -12    7.66    0.41 
   3   2  12    6.68    0.37 
  -4  -2 -12    3.04    0.30 
   4   2  12    2.41    0.26 
  -5  -2 -12    4.00    0.31 
   5   2  12    4.25    0.31 
  -6  -2 -12    4.38    0.33 
   6   2  12    4.11    0.33 
   4  -3 -12    0.44    0.14 
  -4   3  12    0.27    0.13 
   3  -3 -12   11.26    0.51 
  -3   3  12   10.61    0.51 
   2  -3 -12    3.31    0.27 
   2  -3 -12    3.35    0.26 
  -2   3  12    3.30    0.28 
   1  -3 -12    4.33    0.28 
   1  -3 -12    4.87    0.30 
  -1   3  12    4.89    0.32 
   0  -3 -12    3.51    0.24 
   0  -3 -12    3.41    0.26 
   0   3  12    3.73    0.28 
  -1  -3 -12    3.86    0.28 
   1   3  12    4.42    0.29 
  -2  -3 -12    1.36    0.20 
   2   3  12    1.65    0.22 
  -3  -3 -12    0.36    0.12 
   3   3  12    0.33    0.12 
  -4  -3 -12    0.02    0.09 
   4   3  12    0.09    0.09 
  -5  -3 -12    4.25    0.31 
   5   3  12    4.27    0.31 
  -6  -3 -12    0.24    0.13 
   6   3  12    0.36    0.14 
   4  -4 -12    0.81    0.19 
  -4   4  12    1.54    0.24 
   3  -4 -12    1.66    0.23 
  -3   4  12    1.62    0.23 
   2  -4 -12   19.18    0.67 
  -2   4  12   17.42    0.68 
   1  -4 -12   12.75    0.50 
   1  -4 -12   12.81    0.52 
  -1   4  12   12.35    0.54 
   0  -4 -12    2.91    0.28 
   0  -4 -12    3.28    0.38 
   0   4  12    3.01    0.29 
  -1  -4 -12   -0.07    0.08 
   1   4  12   -0.02    0.07 
  -2  -4 -12    0.03    0.09 
   2   4  12   -0.12    0.07 
  -3  -4 -12    1.39    0.21 
   3   4  12    1.57    0.20 
  -4  -4 -12    1.23    0.20 
   4   4  12    1.18    0.19 
  -5  -4 -12    0.43    0.14 
   5   4  12    0.55    0.15 
  -6  -4 -12    0.18    0.12 
   6   4  12    0.02    0.10 
   4  -5 -12   16.26    0.66 
  -4   5  12   14.84    0.67 
   3  -5 -12    9.71    0.47 
  -3   5  12    9.64    0.49 
   2  -5 -12   28.36    0.90 
  -2   5  12   28.04    0.93 
   1  -5 -12    1.70    0.21 
   1  -5 -12    1.63    0.20 
  -1   5  12    1.67    0.22 
   0  -5 -12    6.13    0.34 
   0   5  12    5.83    0.35 
  -1  -5 -12    0.65    0.15 
   1   5  12    0.79    0.17 
  -2  -5 -12    3.75    0.28 
   2   5  12    2.96    0.25 
  -3  -5 -12    2.96    0.26 
   3   5  12    3.73    0.28 
  -4  -5 -12    0.98    0.18 
   4   5  12    1.01    0.18 
  -5  -5 -12    1.19    0.20 
   5   5  12    1.40    0.22 
  -6  -5 -12    0.09    0.11 
   6   5  12    0.07    0.11 
   4  -6 -12   24.88    1.17 
   3  -6 -12    2.50    0.28 
  -3   6  12    3.20    0.32 
   2  -6 -12    4.64    0.31 
  -2   6  12    5.50    0.35 
   1  -6 -12    0.05    0.09 
  -1   6  12    0.22    0.11 
   0  -6 -12    2.81    0.24 
   0   6  12    2.18    0.24 
  -1  -6 -12    4.48    0.30 
   1   6  12    4.90    0.32 
  -2  -6 -12    0.12    0.11 
   2   6  12    0.00    0.08 
  -3  -6 -12   -0.05    0.09 
   3   6  12    0.07    0.09 
  -4  -6 -12    0.10    0.10 
   4   6  12    0.13    0.10 
  -5  -6 -12    0.45    0.15 
   5   6  12    0.33    0.13 
  -6  -6 -12    5.01    0.37 
   6   6  12    5.29    0.36 
   3  -7 -12    0.21    0.13 
  -3   7  12    0.29    0.14 
   2  -7 -12    7.13    0.40 
  -2   7  12    7.18    0.41 
  -1   7  12    0.58    0.15 
   0  -7 -12   -0.09    0.07 
   0   7  12   -0.05    0.09 
   1   7  12    4.23    0.30 
  -2  -7 -12    7.83    0.41 
   2   7  12    7.13    0.38 
  -3  -7 -12    2.21    0.26 
   3   7  12    2.70    0.28 
  -4  -7 -12    1.51    0.23 
   4   7  12    1.74    0.23 
  -5  -7 -12    2.66    0.31 
   5   7  12    3.42    0.32 
   6   7  12    1.73    0.25 
   2  -8 -12    4.42    0.32 
  -2   8  12    4.30    0.33 
  -1   8  12    0.18    0.12 
   0   8  12    1.78    0.24 
  -1  -8 -12    1.81    0.23 
   1   8  12    1.42    0.20 
  -2  -8 -12    2.78    0.29 
   2   8  12    2.68    0.27 
  -3  -8 -12   -0.04    0.10 
   3   8  12    0.10    0.10 
  -4  -8 -12    1.60    0.23 
   4   8  12    1.32    0.20 
  -5  -8 -12    0.10    0.15 
   5   8  12    0.16    0.11 
   2  -9 -12    2.53    0.28 
  -2   9  12    3.02    0.31 
  -1   9  12   11.99    0.55 
   0   9  12    1.64    0.22 
  -1  -9 -12    2.57    0.27 
   1   9  12    2.34    0.26 
  -2  -9 -12    3.75    0.30 
  -3  -9 -12    0.15    0.12 
  -4  -9 -12    5.27    0.39 
  -2 -10 -12    0.10    0.12 
   0  -2  13    5.38    0.38 
   1  -2  13   -0.01    0.11 
   1   1 -13    2.37    0.30 
  -1  -1  13    2.60    0.29 
   0   1 -13    0.33    0.14 
   0  -1  13    0.23    0.13 
  -1   1 -13    2.22    0.27 
  -2   1 -13    0.53    0.16 
   2  -1  13    0.55    0.15 
  -3   1 -13    0.10    0.11 
   3  -1  13   -0.12    0.10 
  -4   1 -13    0.48    0.15 
   4  -1  13    0.56    0.17 
   2   0 -13    0.20    0.12 
   2   0 -13   -0.08    0.11 
  -2   0  13    0.07    0.12 
   1   0 -13    0.23    0.12 
   1   0 -13    0.04    0.10 
  -1   0  13    0.14    0.12 
   0   0 -13    3.74    0.32 
   0   0  13    4.08    0.30 
   0   0  13    3.91    0.30 
  -1   0 -13    4.43    0.33 
   1   0  13    4.17    0.30 
  -2   0 -13    0.37    0.14 
   2   0  13    0.38    0.14 
  -3   0 -13    4.22    0.33 
   3   0  13    4.59    0.33 
  -4   0 -13    2.60    0.30 
   4   0  13    2.55    0.29 
  -5   0 -13    0.09    0.13 
   5   0  13    0.22    0.13 
   2  -1 -13    1.75    0.25 
   2  -1 -13    1.96    0.25 
  -2   1  13    2.17    0.26 
   1  -1 -13    2.97    0.31 
   1  -1 -13    2.91    0.28 
  -1   1  13    2.47    0.27 
   0  -1 -13    0.36    0.13 
   0  -1 -13    0.32    0.13 
   0   1  13    0.46    0.14 
  -1  -1 -13    0.08    0.10 
   1   1  13    0.20    0.12 
  -2  -1 -13    0.75    0.18 
   2   1  13    0.98    0.18 
  -3  -1 -13    8.08    0.44 
   3   1  13    6.92    0.40 
  -4  -1 -13   -0.09    0.11 
   4   1  13    0.03    0.11 
  -5  -1 -13    1.07    0.21 
   5   1  13    0.69    0.17 
   3  -2 -13    5.63    0.37 
  -3   2  13    4.85    0.36 
   2  -2 -13    0.17    0.11 
   2  -2 -13    0.19    0.12 
  -2   2  13    0.13    0.11 
   1  -2 -13    2.29    0.25 
   1  -2 -13    2.31    0.26 
  -1   2  13    2.80    0.29 
   0  -2 -13    1.42    0.19 
   0  -2 -13    1.23    0.20 
   0   2  13    1.29    0.20 
  -1  -2 -13    0.59    0.16 
   1   2  13    0.69    0.15 
  -2  -2 -13   30.00    0.99 
   2   2  13   30.12    0.97 
  -3  -2 -13    0.28    0.14 
   3   2  13    0.23    0.13 
  -4  -2 -13    6.07    0.39 
   4   2  13    6.47    0.38 
  -5  -2 -13    0.99    0.20 
   5   2  13    1.42    0.22 
   3  -3 -13    0.02    0.12 
  -3   3  13    0.05    0.12 
   2  -3 -13    0.08    0.12 
   2  -3 -13   -0.02    0.10 
  -2   3  13    0.05    0.11 
   1  -3 -13    1.66    0.22 
   1  -3 -13    1.43    0.20 
  -1   3  13    1.67    0.23 
   0  -3 -13    1.41    0.21 
   0   3  13    1.36    0.20 
  -1  -3 -13    2.91    0.30 
   1   3  13    2.66    0.28 
  -2  -3 -13    0.18    0.11 
   2   3  13    0.08    0.10 
  -3  -3 -13    8.12    0.43 
   3   3  13    7.07    0.40 
  -4  -3 -13    0.89    0.19 
   4   3  13    1.08    0.19 
  -5  -3 -13    0.12    0.11 
   5   3  13    0.04    0.10 
  -6  -3 -13    1.58    0.25 
   3  -4 -13    2.61    0.28 
  -3   4  13    2.10    0.27 
   2  -4 -13    3.46    0.28 
  -2   4  13    4.31    0.33 
   1  -4 -13    0.89    0.17 
   1  -4 -13    0.85    0.16 
  -1   4  13    1.03    0.20 
   0  -4 -13    0.84    0.17 
   0   4  13    1.00    0.18 
  -1  -4 -13    1.23    0.19 
   1   4  13    1.13    0.19 
  -2  -4 -13    1.10    0.19 
   2   4  13    0.82    0.17 
  -3  -4 -13    2.33    0.28 
   3   4  13    2.05    0.25 
  -4  -4 -13    0.16    0.12 
   4   4  13    0.16    0.10 
  -5  -4 -13    0.21    0.13 
   5   4  13    0.31    0.13 
  -6  -4 -13   -0.07    0.11 
   3  -5 -13    6.32    0.39 
  -3   5  13    5.63    0.45 
   2  -5 -13    0.30    0.13 
  -2   5  13    0.31    0.13 
   1  -5 -13    4.96    0.31 
   1  -5 -13    4.93    0.32 
  -1   5  13    5.10    0.35 
   0  -5 -13    2.84    0.28 
   0   5  13    3.17    0.30 
  -1  -5 -13    0.02    0.09 
   1   5  13    0.10    0.10 
  -2  -5 -13    1.40    0.22 
   2   5  13    1.67    0.22 
  -3  -5 -13    0.98    0.18 
   3   5  13    0.98    0.19 
  -4  -5 -13    0.17    0.12 
   4   5  13    0.24    0.13 
  -5  -5 -13    3.73    0.32 
   5   5  13    3.97    0.31 
   3  -6 -13    1.24    0.22 
   2  -6 -13    1.44    0.22 
  -2   6  13    1.12    0.21 
  -1   6  13    5.04    0.34 
   0  -6 -13   16.55    0.64 
   0   6  13   16.43    0.66 
  -1  -6 -13    1.19    0.20 
   1   6  13    1.04    0.19 
  -2  -6 -13    1.09    0.20 
   2   6  13    0.54    0.14 
  -3  -6 -13    4.95    0.34 
   3   6  13    4.37    0.33 
  -4  -6 -13    1.81    0.25 
   4   6  13    1.89    0.26 
  -5  -6 -13    0.35    0.15 
   5   6  13    0.40    0.15 
   2  -7 -13    1.19    0.20 
  -2   7  13    1.74    0.25 
  -1   7  13    1.24    0.20 
   0  -7 -13    2.38    0.26 
   0   7  13    2.36    0.27 
  -1  -7 -13    3.60    0.29 
   1   7  13    3.98    0.31 
  -2  -7 -13    4.59    0.33 
   2   7  13    4.67    0.33 
  -3  -7 -13    1.91    0.25 
   3   7  13    1.65    0.24 
  -4  -7 -13    0.04    0.11 
   4   7  13   -0.08    0.10 
   5   7  13    0.54    0.17 
  -1   8  13    1.34    0.22 
   0   8  13    0.12    0.12 
  -1  -8 -13    2.78    0.29 
   1   8  13    2.85    0.29 
  -2  -8 -13    2.79    0.30 
   2   8  13    3.19    0.31 
  -3  -8 -13    0.56    0.16 
   3   8  13    0.78    0.18 
  -4  -8 -13    0.08    0.15 
   4   8  13    0.25    0.13 
   0   9  13    4.46    0.33 
  -1  -9 -13    0.47    0.15 
   1   9  13    0.45    0.15 
  -2  -9 -13   -0.01    0.10 
   2   9  13   -0.02    0.11 
   0   0  14    2.12    0.26 
   1   0  14    3.34    0.32 
   2   0  14    0.83    0.19 
   3   0  14    0.33    0.15 
   1  -1 -14    3.77    0.32 
   1  -1 -14    2.73    0.30 
  -1   1  14    3.54    0.33 
   0  -1 -14    0.02    0.10 
   0   1  14   -0.03    0.10 
  -1  -1 -14    1.96    0.26 
   1   1  14    1.74    0.24 
  -2  -1 -14    2.57    0.31 
   2   1  14    2.50    0.28 
  -3  -1 -14    0.05    0.10 
   3   1  14   -0.05    0.11 
   4   1  14    4.85    0.40 
   1  -2 -14    0.58    0.16 
   1  -2 -14    0.74    0.17 
  -1   2  14    0.51    0.17 
   0  -2 -14   11.76    0.55 
   0   2  14   11.99    0.55 
  -1  -2 -14   10.55    0.52 
   1   2  14    8.87    0.48 
  -2  -2 -14    0.08    0.11 
   2   2  14   -0.01    0.09 
  -3  -2 -14    1.20    0.22 
   3   2  14    1.35    0.23 
  -4  -2 -14    6.44    0.42 
   4   2  14    6.46    0.41 
   2  -3 -14    0.05    0.12 
   2  -3 -14    0.29    0.13 
   1  -3 -14    0.46    0.16 
   1  -3 -14    0.50    0.14 
  -1   3  14    0.42    0.15 
   0  -3 -14    3.95    0.32 
   0   3  14    4.19    0.32 
  -1  -3 -14    0.38    0.14 
   1   3  14    0.22    0.13 
  -2  -3 -14    6.19    0.41 
   2   3  14    5.84    0.38 
  -3  -3 -14    0.97    0.20 
   3   3  14    1.27    0.22 
  -4  -3 -14    3.88    0.33 
   4   3  14    4.34    0.34 
   2  -4 -14    0.16    0.12 
   1  -4 -14    0.11    0.12 
  -1   4  14   -0.08    0.09 
   0  -4 -14    2.32    0.28 
   0   4  14    2.47    0.28 
  -1  -4 -14    4.58    0.34 
   1   4  14    4.50    0.33 
  -2  -4 -14    3.58    0.31 
   2   4  14    2.77    0.30 
  -3  -4 -14    0.21    0.14 
   3   4  14    0.44    0.15 
  -4  -4 -14    1.28    0.22 
   4   4  14    1.35    0.23 
   1  -5 -14    0.67    0.16 
  -1   5  14    0.75    0.18 
   0  -5 -14    0.36    0.14 
   0   5  14    0.38    0.15 
  -1  -5 -14    2.81    0.31 
   1   5  14    3.34    0.33 
  -2  -5 -14    0.87    0.19 
   2   5  14    0.56    0.15 
  -3  -5 -14    0.68    0.17 
   3   5  14    0.94    0.20 
  -4  -5 -14    2.12    0.28 
   4   5  14    2.03    0.27 
  -1   6  14    1.64    0.25 
   0  -6 -14    0.09    0.11 
   0   6  14    0.13    0.12 
  -1  -6 -14    0.10    0.12 
   1   6  14    0.31    0.14 
  -2  -6 -14    0.29    0.13 
   2   6  14    0.22    0.13 
  -3  -6 -14    5.67    0.38 
   3   6  14    4.84    0.36 
   4   6  14    0.56    0.16 
   0  -7 -14    4.82    0.34 
   0   7  14    5.21    0.37 
  -1  -7 -14    1.17    0.21 
   1   7  14    0.78    0.18 
  -2  -7 -14    2.20    0.27 
   2   7  14    2.24    0.28 
  -3  -7 -14    0.04    0.11 
   3   7  14   -0.05    0.10 
  -1  -8 -14    0.25    0.13 
   1   8  14    0.01    0.11 
  -2  -8 -14    0.29    0.14 
   2   8  14    0.32    0.14 
  -1  -4 -15    2.04    0.32 
  -1  -5 -15    1.53    0.24 
   0   0   0    0.00    0.00 
;
_shelx_hkl_checksum              9213
loop_
_space_group_symop_operation_xyz
'x, y, z'
'-x, -y, -z'
loop_
_atom_site_label
_atom_site_type_symbol
_atom_site_fract_x
_atom_site_fract_y
_atom_site_fract_z
_atom_site_U_iso_or_equiv
_atom_site_adp_type
_atom_site_occupancy
_atom_site_site_symmetry_order
_atom_site_calc_flag
_atom_site_refinement_flags_posn
_atom_site_refinement_flags_adp
C1 C 0.25179(19) 0.12013(13) 0.05712(12) 0.0380(3) Uani 1 1 d . .
H1 H 0.3358 0.1667 -0.0192 0.046 Uiso 1 1 calc R U
C2 C 0.1903(2) -0.03151(14) 0.08797(14) 0.0483(3) Uani 1 1 d . .
H2 H 0.2319 -0.0889 0.0326 0.058 Uiso 1 1 calc R U
C3 C 0.0687(2) -0.09912(15) 0.19893(16) 0.0525(4) Uani 1 1 d . .
H3 H 0.0262 -0.2028 0.2194 0.063 Uiso 1 1 calc R U
C4 C 0.0082(2) -0.01690(15) 0.28085(15) 0.0503(3) Uani 1 1 d . .
H4 H -0.0746 -0.0647 0.3575 0.060 Uiso 1 1 calc R U
C5 C 0.06831(17) 0.13524(14) 0.25123(12) 0.0391(3) Uani 1 1 d . .
H5 H 0.0269 0.1918 0.3073 0.047 Uiso 1 1 calc R U
C6 C 0.19002(15) 0.20427(12) 0.13846(10) 0.0298(2) Uani 1 1 d . .
C7 C 0.24510(14) 0.36837(12) 0.09985(9) 0.0261(2) Uani 1 1 d . .
C8 C 0.24086(14) 0.48772(12) -0.01380(10) 0.0272(2) Uani 1 1 d . .
C9 C 0.18427(15) 0.47965(12) -0.12698(10) 0.0297(2) Uani 1 1 d . .
C10 C 0.34507(15) 0.37563(12) 0.30182(9) 0.0270(2) Uani 1 1 d . .
C11 C 0.48074(16) 0.26027(13) 0.32846(11) 0.0326(2) Uani 1 1 d . .
H11 H 0.5428 0.2220 0.2642 0.039 Uiso 1 1 calc R U
C12 C 0.52427(17) 0.20170(13) 0.45104(11) 0.0360(3) Uani 1 1 d . .
H12 H 0.6173 0.1225 0.4702 0.043 Uiso 1 1 calc R U
C13 C 0.43464(16) 0.25637(14) 0.54656(11) 0.0349(3) Uani 1 1 d . .
C14 C 0.30057(17) 0.37359(15) 0.51588(11) 0.0382(3) Uani 1 1 d . .
H14 H 0.2395 0.4133 0.5795 0.046 Uiso 1 1 calc R U
C15 C 0.25437(16) 0.43355(14) 0.39409(10) 0.0339(3) Uani 1 1 d . .
H15 H 0.1619 0.5131 0.3744 0.041 Uiso 1 1 calc R U
C16 C 0.4809(2) 0.19059(17) 0.67986(12) 0.0491(3) Uani 1 1 d . .
H16A H 0.5160 0.2754 0.7068 0.074 Uiso 1 1 calc R U
H16B H 0.5869 0.1177 0.6821 0.074 Uiso 1 1 calc R U
H16C H 0.3700 0.1359 0.7373 0.074 Uiso 1 1 calc R U
N1 N 0.30207(12) 0.44049(10) 0.17466(8) 0.0263(2) Uani 1 1 d . .
N2 N 0.33087(13) 0.59558(10) 0.11096(8) 0.0305(2) Uani 1 1 d . .
N3 N 0.29314(13) 0.62442(10) -0.00375(8) 0.0305(2) Uani 1 1 d . .
N4 N 0.13589(15) 0.47258(13) -0.21668(9) 0.0392(2) Uani 1 1 d . .
loop_
_atom_site_aniso_label
_atom_site_aniso_U_11
_atom_site_aniso_U_22
_atom_site_aniso_U_33
_atom_site_aniso_U_23
_atom_site_aniso_U_13
_atom_site_aniso_U_12
C1 0.0515(7) 0.0301(6) 0.0392(6) -0.0160(5) -0.0183(5) 0.0067(5)
C2 0.0686(9) 0.0303(6) 0.0595(8) -0.0228(6) -0.0346(7) 0.0102(6)
C3 0.0583(8) 0.0257(6) 0.0790(10) -0.0128(6) -0.0359(8) -0.0032(5)
C4 0.0454(7) 0.0347(7) 0.0638(9) -0.0046(6) -0.0100(6) -0.0128(5)
C5 0.0383(6) 0.0319(6) 0.0460(7) -0.0119(5) -0.0036(5) -0.0057(5)
C6 0.0329(5) 0.0244(5) 0.0348(5) -0.0108(4) -0.0111(4) -0.0001(4)
C7 0.0262(5) 0.0266(5) 0.0278(5) -0.0128(4) -0.0023(4) 0.0007(4)
C8 0.0278(5) 0.0283(5) 0.0264(5) -0.0116(4) -0.0010(4) 0.0005(4)
C9 0.0302(5) 0.0309(5) 0.0280(5) -0.0115(4) -0.0009(4) 0.0018(4)
C10 0.0302(5) 0.0263(5) 0.0250(5) -0.0087(4) -0.0038(4) -0.0048(4)
C11 0.0356(6) 0.0291(5) 0.0329(5) -0.0114(4) -0.0025(4) 0.0004(4)
C12 0.0364(6) 0.0309(5) 0.0386(6) -0.0071(5) -0.0097(5) 0.0001(4)
C13 0.0365(6) 0.0368(6) 0.0311(5) -0.0079(5) -0.0087(4) -0.0093(5)
C14 0.0429(6) 0.0457(7) 0.0299(6) -0.0178(5) -0.0053(5) 0.0003(5)
C15 0.0364(6) 0.0363(6) 0.0318(6) -0.0152(5) -0.0060(4) 0.0041(4)
C16 0.0534(8) 0.0578(8) 0.0366(7) -0.0106(6) -0.0184(6) -0.0042(6)
N1 0.0307(4) 0.0233(4) 0.0257(4) -0.0098(3) -0.0022(3) -0.0019(3)
N2 0.0377(5) 0.0237(4) 0.0296(5) -0.0090(3) -0.0028(4) -0.0031(4)
N3 0.0352(5) 0.0276(4) 0.0283(4) -0.0097(4) -0.0025(4) -0.0015(4)
N4 0.0416(5) 0.0468(6) 0.0326(5) -0.0182(4) -0.0051(4) 0.0020(4)
loop_
_atom_type_symbol
_atom_type_description
_atom_type_scat_dispersion_real
_atom_type_scat_dispersion_imag
_atom_type_scat_source
C C 0.0033 0.0016 'International Tables Vol C Tables 4.2.6.8 and 6.1.1.4'
H H 0.0000 0.0000 'International Tables Vol C Tables 4.2.6.8 and 6.1.1.4'
N N 0.0061 0.0033 'International Tables Vol C Tables 4.2.6.8 and 6.1.1.4'
loop_
_geom_angle_atom_site_label_1
_geom_angle_atom_site_label_2
_geom_angle_atom_site_label_3
_geom_angle
C2 C1 C6 119.86(12)
C2 C1 H1 120.1
C6 C1 H1 120.1
C3 C2 C1 120.04(12)
C3 C2 H2 120.0
C1 C2 H2 120.0
C2 C3 C4 120.46(12)
C2 C3 H3 119.8
C4 C3 H3 119.8
C3 C4 C5 120.20(13)
C3 C4 H4 119.9
C5 C4 H4 119.9
C4 C5 C6 119.40(12)
C4 C5 H5 120.3
C6 C5 H5 120.3
C5 C6 C1 120.02(11)
C5 C6 C7 120.74(10)
C1 C6 C7 119.13(10)
N1 C7 C8 103.09(9)
N1 C7 C6 126.39(9)
C8 C7 C6 130.39(9)
N3 C8 C7 109.99(9)
N3 C8 C9 122.26(9)
C7 C8 C9 127.70(10)
N4 C9 C8 178.86(11)
C15 C10 C11 121.43(10)
C15 C10 N1 119.20(9)
C11 C10 N1 119.33(9)
C10 C11 C12 118.63(10)
C10 C11 H11 120.7
C12 C11 H11 120.7
C11 C12 C13 121.48(11)
C11 C12 H12 119.3
C13 C12 H12 119.3
C14 C13 C12 118.25(10)
C14 C13 C16 120.62(11)
C12 C13 C16 121.13(11)
C15 C14 C13 121.26(11)
C15 C14 H14 119.4
C13 C14 H14 119.4
C10 C15 C14 118.94(10)
C10 C15 H15 120.5
C14 C15 H15 120.5
C13 C16 H16A 109.5
C13 C16 H16B 109.5
H16A C16 H16B 109.5
C13 C16 H16C 109.5
H16A C16 H16C 109.5
H16B C16 H16C 109.5
C7 N1 N2 111.25(8)
C7 N1 C10 129.53(9)
N2 N1 C10 119.08(8)
N3 N2 N1 107.66(8)
N2 N3 C8 108.01(8)
loop_
_geom_bond_atom_site_label_1
_geom_bond_atom_site_label_2
_geom_bond_distance
C1 C2 1.3862(17)
C1 C6 1.3956(15)
C1 H1 0.9500
C2 C3 1.378(2)
C2 H2 0.9500
C3 C4 1.386(2)
C3 H3 0.9500
C4 C5 1.3889(16)
C4 H4 0.9500
C5 C6 1.3948(16)
C5 H5 0.9500
C6 C7 1.4685(14)
C7 N1 1.3531(13)
C7 C8 1.3804(14)
C8 N3 1.3673(13)
C8 C9 1.4289(14)
C9 N4 1.1457(14)
C10 C15 1.3837(14)
C10 C11 1.3840(15)
C10 N1 1.4362(13)
C11 C12 1.3880(16)
C11 H11 0.9500
C12 C13 1.3933(17)
C12 H12 0.9500
C13 C14 1.3911(17)
C13 C16 1.5075(16)
C14 C15 1.3875(16)
C14 H14 0.9500
C15 H15 0.9500
C16 H16A 0.9800
C16 H16B 0.9800
C16 H16C 0.9800
N1 N2 1.3645(12)
N2 N3 1.3042(12)
loop_
_geom_torsion_atom_site_label_1
_geom_torsion_atom_site_label_2
_geom_torsion_atom_site_label_3
_geom_torsion_atom_site_label_4
_geom_torsion
C6 C1 C2 C3 -0.18(19)
C1 C2 C3 C4 -0.5(2)
C2 C3 C4 C5 0.6(2)
C3 C4 C5 C6 0.0(2)
C4 C5 C6 C1 -0.60(18)
C4 C5 C6 C7 175.51(11)
C2 C1 C6 C5 0.72(17)
C2 C1 C6 C7 -175.46(10)
C5 C6 C7 N1 45.87(16)
C1 C6 C7 N1 -137.98(11)
C5 C6 C7 C8 -129.27(12)
C1 C6 C7 C8 46.88(16)
N1 C7 C8 N3 -0.30(11)
C6 C7 C8 N3 175.68(10)
N1 C7 C8 C9 -177.80(10)
C6 C7 C8 C9 -1.81(18)
C15 C10 C11 C12 0.49(16)
N1 C10 C11 C12 178.31(9)
C10 C11 C12 C13 0.05(17)
C11 C12 C13 C14 -0.75(17)
C11 C12 C13 C16 179.18(11)
C12 C13 C14 C15 0.95(18)
C16 C13 C14 C15 -178.98(11)
C11 C10 C15 C14 -0.30(17)
N1 C10 C15 C14 -178.12(10)
C13 C14 C15 C10 -0.44(18)
C8 C7 N1 N2 0.15(11)
C6 C7 N1 N2 -176.05(9)
C8 C7 N1 C10 -175.46(10)
C6 C7 N1 C10 8.34(17)
C15 C10 N1 C7 -125.96(12)
C11 C10 N1 C7 56.17(15)
C15 C10 N1 N2 58.72(13)
C11 C10 N1 N2 -119.15(11)
C7 N1 N2 N3 0.05(11)
C10 N1 N2 N3 176.18(8)
N1 N2 N3 C8 -0.24(11)
C7 C8 N3 N2 0.34(12)
C9 C8 N3 N2 178.00(9)
