#------------------------------------------------------------------------------
#$Date: 2019-11-11 20:27:02 +0200 (Mon, 11 Nov 2019) $
#$Revision: 227264 $
#$URL: file:///home/coder/svn-repositories/cod/cif/4/03/58/4035852.cif $
#------------------------------------------------------------------------------
#
# This file is available in the Crystallography Open Database (COD),
# http://www.crystallography.net/
#
# All data on this site have been placed in the public domain by the
# contributors.
#
data_4035852
loop_
_publ_author_name
'Vila, Carlos'
'Rostoll-Berenguer, Jaume'
'S\'anchez-Garc\'ia, Rub\'en'
'Blay, Gonzalo'
'Fern\'andez, Isabel'
'Mu\~noz, M Carmen'
'Pedro, Jos\'e R'
_publ_section_title
;
 Enantioselective Synthesis of 2-Amino-1,1-diarylalkanes Bearing a
 Carbocyclic Ring Substituted Indole through Asymmetric Catalytic Reaction
 of Hydroxyindoles with Nitroalkenes.
;
_journal_issue                   12
_journal_name_full               'The Journal of organic chemistry'
_journal_page_first              6397
_journal_page_last               6407
_journal_paper_doi               10.1021/acs.joc.8b00612
_journal_volume                  83
_journal_year                    2018
_chemical_absolute_configuration ad
_chemical_formula_sum            'C16 H12 Br N2 O3'
_chemical_formula_weight         360.19
_space_group_crystal_system      monoclinic
_space_group_IT_number           4
_space_group_name_Hall           'P 2yb'
_space_group_name_H-M_alt        'P 1 21 1'
_atom_sites_solution_hydrogens   difmap
_audit_creation_method           SHELXL-2014
_cell_angle_alpha                90
_cell_angle_beta                 103.299(3)
_cell_angle_gamma                90
_cell_formula_units_Z            2
_cell_length_a                   8.2991(3)
_cell_length_b                   5.68602(17)
_cell_length_c                   15.9291(4)
_cell_measurement_reflns_used    3391
_cell_measurement_temperature    200(1)
_cell_measurement_theta_max      23.1970
_cell_measurement_theta_min      3.8040
_cell_volume                     731.52(4)
_computing_cell_refinement       'CrysAlisPro, Agilent Technologies'
_computing_data_collection       'CrysAlisPro, Agilent Technologies'
_computing_data_reduction        'CrysAlisPro, Agilent Technologies'
_computing_structure_refinement  'SHELXL-2014 (Sheldrick, 2014)'
_computing_structure_solution    'SHELXS-2014 (Sheldrick, 2014)'
_diffrn_ambient_temperature      200(1)
_diffrn_measured_fraction_theta_full 0.996
_diffrn_measured_fraction_theta_max 0.929
_diffrn_measurement_device_type  'SuperNova Sapphire3'
_diffrn_radiation_type           MoK\a
_diffrn_radiation_wavelength     0.71073
_diffrn_reflns_av_R_equivalents  0.0492
_diffrn_reflns_av_unetI/netI     0.0669
_diffrn_reflns_Laue_measured_fraction_full 0.996
_diffrn_reflns_Laue_measured_fraction_max 0.929
_diffrn_reflns_limit_h_max       10
_diffrn_reflns_limit_h_min       -11
_diffrn_reflns_limit_k_max       7
_diffrn_reflns_limit_k_min       -7
_diffrn_reflns_limit_l_max       21
_diffrn_reflns_limit_l_min       -21
_diffrn_reflns_number            11372
_diffrn_reflns_point_group_measured_fraction_full 0.998
_diffrn_reflns_point_group_measured_fraction_max 0.903
_diffrn_reflns_theta_full        25.000
_diffrn_reflns_theta_max         29.912
_diffrn_reflns_theta_min         3.817
_exptl_absorpt_coefficient_mu    2.824
_exptl_absorpt_correction_T_max  1.00000
_exptl_absorpt_correction_T_min  0.84366
_exptl_absorpt_correction_type   multi-scan
_exptl_absorpt_process_details   'Empirical absorption correction'
_exptl_crystal_colour            red
_exptl_crystal_density_diffrn    1.635
_exptl_crystal_description       prismatic
_exptl_crystal_F_000             362
_exptl_crystal_size_max          0.150
_exptl_crystal_size_mid          0.060
_exptl_crystal_size_min          0.060
_refine_diff_density_max         0.440
_refine_diff_density_min         -0.424
_refine_diff_density_rms         0.074
_refine_ls_abs_structure_details
;
 Flack x determined using 1082 quotients [(I+)-(I-)]/[(I+)+(I-)]
 (Parsons, Flack and Wagner, Acta Cryst. B69 (2013) 249-259).
;
_refine_ls_abs_structure_Flack   -0.006(7)
_refine_ls_extinction_method     none
_refine_ls_goodness_of_fit_ref   0.985
_refine_ls_hydrogen_treatment    refall
_refine_ls_matrix_type           full
_refine_ls_number_parameters     247
_refine_ls_number_reflns         3814
_refine_ls_number_restraints     1
_refine_ls_restrained_S_all      0.985
_refine_ls_R_factor_all          0.0622
_refine_ls_R_factor_gt           0.0414
_refine_ls_shift/su_max          0.000
_refine_ls_shift/su_mean         0.000
_refine_ls_structure_factor_coef Fsqd
_refine_ls_weighting_details
'w=1/[\s^2^(Fo^2^)+(0.0304P)^2^] where P=(Fo^2^+2Fc^2^)/3'
_refine_ls_weighting_scheme      calc
_refine_ls_wR_factor_gt          0.0705
_refine_ls_wR_factor_ref         0.0802
_reflns_Friedel_coverage         0.777
_reflns_Friedel_fraction_full    1.000
_reflns_Friedel_fraction_max     0.872
_reflns_number_gt                3019
_reflns_number_total             3814
_reflns_threshold_expression     'I > 2\s(I)'
_cod_data_source_file            jo8b00612_si_003.cif
_cod_data_source_block           shelx
_cod_original_sg_symbol_H-M      'P 21'
_cod_database_code               4035852
_shelx_space_group_comment
;
The symmetry employed for this shelxl refinement is uniquely defined
by the following loop, which should always be used as a source of
symmetry information in preference to the above space-group names.
They are only intended as comments.
;
_shelx_estimated_absorpt_t_min   0.677
_shelx_estimated_absorpt_t_max   0.849
_shelxl_version_number           2014-1
_shelx_res_file
;
TITL  in P2(1)
CELL 0.71073  8.299098   5.686019  15.929101    90.0000   103.2987    90.0000
zerr 2   0.000254   0.000166   0.000444     0.0000     0.0029     0.0000
LATT  -1
SYMM  - X, 1/2 + Y, - Z
SFAC  C    H    N    O    BR
UNIT  32   24   4    6    2
MERG   2
OMIT    -3.00 180.00
FMAP   2
PLAN   25
SIZE     0.060   0.060   0.150
ACTA    50.00
L.S.   8
WGHT    0.030400
FVAR       5.25079
BR    5    0.633464    0.555149    0.045589    11.00000    0.03436    0.04724 =
         0.03029    0.00032    0.00366   -0.01086
O1    4    1.068060    1.585964    0.323781    11.00000    0.04219    0.02765 =
         0.02749    0.00622    0.00815    0.01094
O2    4    1.594440    1.345022    0.272751    11.00000    0.03487    0.04915 =
         0.04558   -0.00847    0.00150    0.00500
O3    4    1.426657    1.625127    0.220790    11.00000    0.04483    0.03462 =
         0.06187   -0.00930    0.01556   -0.00032
N1    3    1.285075    1.195710    0.581177    11.00000    0.03902    0.04671 =
         0.02275    0.00643    0.00174   -0.00589
N2    3    1.464184    1.418612    0.230012    11.00000    0.03277    0.03583 =
         0.02732   -0.00975    0.01585   -0.00563
C1    1    1.182378    1.257005    0.219915    11.00000    0.03069    0.02525 =
         0.02717   -0.00264    0.01195   -0.00060
C2    1    1.052253    1.081285    0.174117    11.00000    0.02798    0.02842 =
         0.01856    0.00197    0.00650    0.00186
C3    1    0.891949    1.100774    0.187482    11.00000    0.03493    0.04084 =
         0.03164   -0.00967    0.01188    0.00177
C4    1    0.769538    0.947196    0.149471    11.00000    0.02518    0.04530 =
         0.03899   -0.00494    0.00893    0.00046
C5    1    0.803959    0.770529    0.097880    11.00000    0.03032    0.03326 =
         0.02289    0.00441   -0.00031   -0.00324
C6    1    0.958167    0.743206    0.082237    11.00000    0.03259    0.03217 =
         0.02469   -0.00479    0.00706    0.00017
C7    1    1.083134    0.901652    0.121296    11.00000    0.02523    0.03910 =
         0.03036   -0.00215    0.00912    0.00120
C8    1    1.338820    1.238022    0.185754    11.00000    0.03411    0.03300 =
         0.03171   -0.00971    0.01334   -0.00362
C9    1    1.216597    1.232356    0.316792    11.00000    0.02704    0.02664 =
         0.02314    0.00264    0.00887   -0.00083
C10   1    1.304288    1.035102    0.358965    11.00000    0.03235    0.02387 =
         0.03510   -0.00282    0.01267    0.00324
C11   1    1.336840    1.006534    0.447304    11.00000    0.02554    0.02895 =
         0.04085    0.00509    0.00534    0.00381
C12   1    1.276920    1.178294    0.494580    11.00000    0.02276    0.02961 =
         0.02670    0.00275    0.00524   -0.00518
C13   1    1.209198    1.397945    0.597313    11.00000    0.04320    0.05059 =
         0.02629   -0.01218    0.01392   -0.01181
C14   1    1.150395    1.514261    0.523070    11.00000    0.03750    0.03025 =
         0.03267   -0.00908    0.01419   -0.00318
C15   1    1.191237    1.379267    0.455629    11.00000    0.02277    0.02432 =
         0.02517   -0.00167    0.00927   -0.00450
C16   1    1.159496    1.400534    0.365375    11.00000    0.02586    0.02064 =
         0.02375   -0.00171    0.00643   -0.00196
H8A   2    1.393780    1.091795    0.200121    11.00000    0.01789
H6    2    0.983202    0.618593    0.046401    11.00000    0.02408
H3    2    0.877886    1.244444    0.222256    11.00000    0.04932
H1    2    1.138101    1.427911    0.203038    11.00000    0.02478
H10   2    1.342177    0.925586    0.324735    11.00000    0.02410
H13   2    1.214215    1.446643    0.652688    11.00000    0.03500
H8B   2    1.320191    1.275776    0.125101    11.00000    0.04153
H4    2    0.658982    0.968512    0.150424    11.00000    0.05288
H11   2    1.390553    0.855041    0.472345    11.00000    0.04279
H14   2    1.101130    1.642784    0.518240    11.00000    0.02876
H1N   2    1.328421    1.121761    0.617425    11.00000    0.02932
H7    2    1.197677    0.860890    0.113162    11.00000    0.03465
HKLF    4

REM   in P2(1)
REM R1 =  0.0414 for    3019 Fo > 4sig(Fo)  and  0.0622 for all    3814 data
REM    247 parameters refined using      1 restraints

END

WGHT      0.0262      0.0000

REM Highest difference peak  0.440,  deepest hole -0.424,  1-sigma level  0.074
Q1    1   1.2564  1.0370  0.4730  11.00000  0.05    0.39
Q2    1   0.8922  1.0443  0.1414  11.00000  0.05    0.39
Q3    1   0.6492  0.4736  0.1019  11.00000  0.05    0.34
Q4    1   0.9824  1.0527  0.1907  11.00000  0.05    0.32
Q5    1   0.6141  0.6410  0.0997  11.00000  0.05    0.31
Q6    1   0.5998  0.5616 -0.0194  11.00000  0.05    0.30
Q7    1   1.3492  1.0563  0.2586  11.00000  0.05    0.29
Q8    1   0.7065  0.2771 -0.0028  11.00000  0.05    0.28
Q9    1   1.0734  0.3417  0.0620  11.00000  0.05    0.28
Q10   1   0.4986  0.4741  0.0543  11.00000  0.05    0.28
Q11   1   1.1338  1.5197  0.3529  11.00000  0.05    0.28
Q12   1   1.0195  1.0707  0.1350  11.00000  0.05    0.27
Q13   1   1.4008  1.7817  0.1338  11.00000  0.05    0.27
Q14   1   1.1630  1.3869  0.4079  11.00000  0.05    0.27
Q15   1   1.0015  0.5684 -0.0296  11.00000  0.05    0.26
Q16   1   1.1716  1.3262  0.3417  11.00000  0.05    0.26
Q17   1   0.6433  0.7688  0.0520  11.00000  0.05    0.26
Q18   1   1.3847  0.9929  0.3913  11.00000  0.05    0.25
Q19   1   0.6549  0.4402 -0.0075  11.00000  0.05    0.25
Q20   1   0.9255  0.5540  0.0213  11.00000  0.05    0.25
Q21   1   0.6751  0.6196  0.0985  11.00000  0.05    0.24
Q22   1   1.0247  1.5612  0.2945  11.00000  0.05    0.24
Q23   1   1.2183  1.2651  0.2770  11.00000  0.05    0.24
Q24   1   1.5822  1.5533  0.1660  11.00000  0.05    0.24
Q25   1   1.2008  1.2580  0.4667  11.00000  0.05    0.24
;
_shelx_res_checksum              15090
_shelx_hkl_file
;
   0  -7   0 429.694 420.184   1
   0  -7  -1 698.023 523.340   1
   0  -7   1 136.599 408.521   1
   0  -7   2-91.3244 311.136   1
   0  -7  -2 67.7629 342.805   1
   0  -7   2 806.375 493.094   2
   0  -7  -3 62.5387 388.945   1
   0  -7   3 362.413 389.241   2
   0  -7   3 923.738 591.031   1
   0  -7   4-231.156 415.921   1
   0  -7  -4 379.819 467.351   1
   0  -7   5 836.323 528.318   2
   0  -7  -5 3386.95 933.839   1
   0  -7   5 2215.96 830.516   1
   0  -7   6 3102.14 914.711   2
   0  -7   6 3541.82 1076.75   1
   0  -7  -6 2797.96 877.719   1
   0  -7   7 2922.13 976.253   2
   0  -7   8 300.749 459.864   2
   0  -6   0 17519.3 1885.69   1
   0  -6   0 16442.6 1519.35   2
   0  -6   1 3077.90 807.088   1
   0  -6  -1 5267.75 1039.61   1
   0  -6   1 3535.52 740.109   2
   0  -6  -1 3475.28 707.256   2
   0  -6  -2 6604.68 1163.04   1
   0  -6   2 7347.85 1140.06   2
   0  -6   2 6389.79 1198.18   1
   0  -6   3 3077.48 788.636   2
   0  -6   3 3356.19 926.845   1
   0  -6  -3 2177.10 721.373   1
   0  -6  -4 244.107 310.123   1
   0  -6   4 1337.85 633.311   1
   0  -6   4 978.400 561.529   2
   0  -6   5 510.331 436.335   2
   0  -6  -5 392.669 355.836   1
   0  -6  -6-478.198 401.273   1
   0  -6   6 122.903 458.421   2
   0  -6  -7 2235.65 799.590   1
   0  -6   7 874.185 551.317   2
   0  -6  -8 972.404 556.892   1
   0  -6   8 2182.65 767.094   2
   0  -6   9 1753.38 769.276   2
   0  -6  -9 3313.28 872.810   1
   0  -6 -10 2687.90 875.676   1
   0  -6  10 2211.37 851.753   2
   0  -6  11 510.304 667.651   2
   0  -6 -11 1058.52 516.940   7
   0  -6 -11 2029.85 797.347   1
   0  -6 -12 1148.38 643.490   1
   0  -5   0 125.487 239.328   2
   0  -5   0-113.347 339.015   1
   0  -5   1 1130.40 512.985   1
   0  -5   1 1140.62 395.729   2
   0  -5  -1 990.841 486.204   1
   0  -5  -1 416.833 221.797   2
   0  -5  -2 5822.32 1000.46   1
   0  -5  -2 4770.65 697.812   2
   0  -5   2 7000.39 997.165   2
   0  -5   2 7133.81 1093.08   1
   0  -5  -3 14776.8 1565.59   1
   0  -5  -3 11987.4 1038.09   2
   0  -5   3 13382.5 1388.67   2
   0  -5   4 18610.7 1689.14   2
   0  -5  -4 18704.1 1231.83   2
   0  -5  -4 17439.2 1694.01   1
   0  -5   5 12662.2 1439.54   2
   0  -5  -5 12060.3 1433.36   1
   0  -5  -6 1937.47 655.460   1
   0  -5   6-456.550 450.676   2
   0  -5  -7 4685.93 948.507   1
   0  -5   7 3737.16 866.779   2
   0  -5  -8 12505.2 1501.04   1
   0  -5   8 11696.0 1517.30   2
   0  -5   9 2673.45 793.825   2
   0  -5  -9 3790.76 852.597   1
   0  -5  10 112.654 371.932   2
   0  -5 -10-417.865 385.936   1
   0  -5  11 826.087 588.097   2
   0  -5 -11 499.158 396.671   7
   0  -5 -11-44.8080 326.904   1
   0  -5 -12 990.596 520.150   7
   0  -5 -12-172.682 391.910   1
   0  -5  12-688.060 712.153   2
   0  -5 -13 395.164 282.976   7
   0  -5  13 1.31302 342.611   2
   0  -5 -13 744.440 438.184   1
   0  -5 -14 2836.06 726.700   7
   0  -5 -14 3584.60 930.853   1
   0  -5  14 1631.14 791.069   2
   0  -4   0 16097.9 1199.25   2
   0  -4   0 13695.8 1313.87   1
   0  -4   1 26494.0 1603.34   2
   0  -4  -1 25676.9 1429.09   2
   0  -4  -1 27529.0 1837.13   1
   0  -4   1 27206.6 1848.46   1
   0  -4   2 14565.8 1240.39   2
   0  -4   2 12200.0 756.761   6
   0  -4  -2 12275.0 952.075   2
   0  -4  -2 16208.3 1428.31   1
   0  -4  -3 16008.3 1030.51   2
   0  -4   3 15298.8 802.110   9
   0  -4   3 17644.3 1425.74   2
   0  -4  -3 15856.2 1411.82   1
   0  -4  -4 3131.87 671.182   1
   0  -4   4 3394.68 661.799   2
   0  -4   4 3324.14 363.406   9
   0  -4  -4 2863.02 433.230   2
   0  -4   5 577.724 345.896   2
   0  -4  -5 1113.88 431.085   1
   0  -4  -6 525.717 298.522   1
   0  -4   6-132.866 326.622   2
   0  -4   7 3825.48 791.672   2
   0  -4  -7 3128.68 690.999   1
   0  -4  -8 15235.4 1460.96   1
   0  -4   8 15605.4 1594.96   2
   0  -4   9 10404.0 1333.25   2
   0  -4  -9 7531.16 1041.51   1
   0  -4  10 8022.44 1218.36   2
   0  -4 -10 10761.7 1267.45   1
   0  -4 -10 9639.64 1093.46   7
   0  -4  11 1128.38 526.049   2
   0  -4 -11 1466.84 551.084   1
   0  -4 -11 1942.43 552.834   7
   0  -4  12 6860.46 1198.14   2
   0  -4 -12 6018.97 952.066   7
   0  -4 -12 8645.48 1215.17   1
   0  -4  13 3552.14 889.978   2
   0  -4 -13 4169.10 898.036   1
   0  -4 -13 4712.56 865.755   7
   0  -4 -14 4633.80 898.474   7
   0  -4  14 6160.03 1190.20   2
   0  -4 -15 581.086 438.063   7
   0  -4  15 180.543 332.138   2
   0  -4  16 398.879 332.583   2
   0  -4 -16 1546.88 648.136   7
   0  -4  17-166.751 471.945   2
   0  -3   0 230.478 244.227   1
   0  -3   0-52.0628 132.956   2
   0  -3   1 11330.3 906.569   2
   0  -3   1 9910.69 616.119   9
   0  -3  -1 10619.7 981.652   1
   0  -3  -1 10306.6 768.520   2
   0  -3   1 9896.08 554.929   6
   0  -3   2 24531.9 905.121   9
   0  -3  -2 22441.8 1435.48   1
   0  -3   2 23821.7 1371.46   2
   0  -3   2 24152.7 1000.49   6
   0  -3  -2 23500.8 1088.94   2
   0  -3   3 7823.53 491.791   9
   0  -3  -3 7610.12 842.995   1
   0  -3   3 7067.17 797.746   2
   0  -3  -3 7473.44 575.870   2
   0  -3   3 6872.16 601.368   6
   0  -3   4 58603.3 2350.65   2
   0  -3  -4 55464.2 2284.06   1
   0  -3   4 52571.6 1264.30   9
   0  -3  -4 55212.3 1444.15   2
   0  -3  -5 8709.25 570.833   4
   0  -3   5 8742.92 979.128   2
   0  -3   5 7816.79 515.591   9
   0  -3  -5 9341.09 959.640   1
   0  -3   6 26770.0 1739.10   2
   0  -3  -6 24453.3 1577.43   1
   0  -3  -6 25492.9 776.510   4
   0  -3  -6 24158.7 1952.71   5
   0  -3  -7 29219.2 1754.14   1
   0  -3  -7 30908.1 2298.03   5
   0  -3   7 26677.3 1785.54   2
   0  -3  -8 21847.5 1543.81   1
   0  -3   8 17667.6 1521.80   2
   0  -3  -8 19832.5 1954.80   5
   0  -3  -9 1493.92 431.620   7
   0  -3  -9 1976.85 526.926   1
   0  -3  -9 955.372 540.081   5
   0  -3   9 1818.28 586.266   2
   0  -3 -10 19052.9 1414.70   7
   0  -3 -10 19958.6 2066.83   5
   0  -3  10 17165.8 1580.39   2
   0  -3 -10 17884.9 1481.62   1
   0  -3 -11 937.693 407.710   7
   0  -3 -11 1033.65 461.811   1
   0  -3 -11 539.324 569.470   5
   0  -3  11 975.232 445.560   2
   0  -3 -12 9153.84 1513.54   5
   0  -3  12 11053.5 1367.52   2
   0  -3 -12 8820.24 1050.35   7
   0  -3 -13 1179.19 419.814   7
   0  -3  13 1655.63 612.366   2
   0  -3 -13 491.625 419.964   5
   0  -3 -14 9459.02 1679.95   5
   0  -3  14 10592.5 1438.89   2
   0  -3 -14 11346.2 1284.85   7
   0  -3 -15 12522.6 1949.58   5
   0  -3  15 11330.6 1502.28   2
   0  -3 -15 10663.7 1323.32   7
   0  -3 -16 2896.82 967.008   5
   0  -3  16 2252.49 724.767   2
   0  -3 -16 3194.01 780.653   7
   0  -3 -17 4396.26 931.969   7
   0  -3 -17 6061.18 1384.89   5
   0  -3  17 3417.24 894.306   2
   0  -3  18 2481.28 778.302   2
   0  -3 -18 4191.04 957.422   7
   0  -3  19-439.236 512.237   2
   0  -2   0 73153.1 1471.53   9
   0  -2   0 69268.9 1067.72   6
   0  -2   0 73816.6 1754.30   2
   0  -2   0 75633.7 1861.07   8
   0  -2   1 29598.0 832.391   9
   0  -2   1 30753.3 1223.09   2
   0  -2  -1 29658.5 1027.11   2
   0  -2   1 29983.4 859.680   6
   0  -2  -1 29663.0 1157.09   8
   0  -2  -1 29281.8 1311.64   1
   0  -2   2 48816.0 1302.04   6
   0  -2  -2 50070.8 1488.65   8
   0  -2  -2 51031.5 1746.56   1
   0  -2  -2 47322.1 1173.41   2
   0  -2   2 49321.9 1021.28   9
   0  -2   2 48037.0 1652.69   2
   0  -2   3 20090.0 955.720   6
   0  -2  -3 17922.6 1274.20   5
   0  -2  -3 19990.3 693.795   2
   0  -2   3 19807.0 1125.75   2
   0  -2  -3 23308.7 1212.52   1
   0  -2  -3 19668.0 932.990   8
   0  -2   3 20071.0 674.618   9
   0  -2  -4 14561.9 982.612   1
   0  -2  -4 12907.3 1161.33   5
   0  -2  -4 13390.6 529.715   4
   0  -2   4 13409.5 983.142   2
   0  -2  -4 13071.0 776.259   8
   0  -2  -5 7702.76 965.243   5
   0  -2  -5 8880.57 803.134   1
   0  -2   5 9261.23 855.386   2
   0  -2  -6 15194.0 1060.36   1
   0  -2  -6 14196.3 1352.68   5
   0  -2   6 14421.3 1115.33   2
   0  -2   7 17545.0 1291.04   2
   0  -2  -7 17426.2 1554.25   5
   0  -2  -7 18240.7 1112.57   7
   0  -2  -7 18798.9 1217.91   1
   0  -2  -8 34483.0 2255.66   5
   0  -2  -8 34361.6 1722.16   1
   0  -2  -8 34757.8 1591.48   7
   0  -2   8 33831.3 1867.06   2
   0  -2  -9 20117.7 1802.11   5
   0  -2  -9 19929.2 1277.95   7
   0  -2   9 19109.4 1452.32   2
   0  -2  -9 21054.6 1410.26   1
   0  -2 -10 47748.9 2879.21   5
   0  -2  10 50867.7 2456.21   2
   0  -2 -10 49747.4 2138.18   7
   0  -2  11 22736.9 1712.73   2
   0  -2 -11 25896.0 2196.18   5
   0  -2 -11 25794.3 1614.25   7
   0  -2 -12 19021.8 1502.03   7
   0  -2  12 20921.7 1703.28   2
   0  -2 -12 22661.8 2167.43   5
   0  -2  13 10252.3 1246.48   2
   0  -2 -13 11105.7 1190.18   7
   0  -2 -13 11712.8 1591.88   5
   0  -2  14 7345.56 1075.21   2
   0  -2 -14 6364.51 936.797   7
   0  -2 -14 6521.91 1252.30   5
   0  -2 -15 2213.82 643.740   7
   0  -2 -15 1927.41 755.044   5
   0  -2  15 2783.75 693.503   2
   0  -2 -16 1140.64 534.747   7
   0  -2  16 128.909 305.709   2
   0  -2 -16 735.822 501.490   5
   0  -2  17 1272.63 490.986   2
   0  -2 -17 1397.51 574.984   7
   0  -2 -17 1198.10 705.184   5
   0  -2  18 662.543 487.332   2
   0  -2 -18-1.56214 457.981   5
   0  -2 -18 220.700 312.621   7
   0  -2 -19 991.796 670.692   5
   0  -2  19 3167.09 865.121   2
   0  -2 -19 1658.67 600.975   7
   0  -2 -20 2971.74 974.630   5
   0  -1   0-14.7026 66.1813   8
   0  -1   0 72.6131 74.9120   2
   0  -1   0-5.36139 77.4410   3
   0  -1   0 61.5200 52.3710   9
   0  -1  -1 14570.0 563.805   8
   0  -1  -1 14503.7 461.383   2
   0  -1   1 15023.1 674.411   7
   0  -1   1 14721.6 505.486   6
   0  -1   1 14722.3 631.514   2
   0  -1  -1 13910.7 734.164   5
   0  -1   1 14444.0 393.488   9
   0  -1  -1 13870.9 638.457   1
   0  -1  -1 14445.7 652.601   3
   0  -1  -2 10033.5 701.650   5
   0  -1  -2 9447.63 471.015   8
   0  -1   2 11181.4 567.199   6
   0  -1  -2 10011.9 541.567   3
   0  -1   2 10388.3 594.529   2
   0  -1  -2 9306.55 552.925   1
   0  -1   2 10219.2 595.966   7
   0  -1   3 120022. 2204.29   2
   0  -1  -3 116860. 1779.32   8
   0  -1  -3 115770. 2612.66   5
   0  -1  -3 116643. 2074.90   1
   0  -1  -3 115767. 1866.05   3
   0  -1   3 122557. 2219.62   7
   0  -1   3 117973. 2158.30   6
   0  -1   4 194794. 3133.42   6
   0  -1  -4 188434. 2546.34   7
   0  -1  -4 193294. 2820.41   1
   0  -1  -4 197846. 2535.24   8
   0  -1  -4 190190. 2443.78   3
   0  -1  -4 185705. 3552.40   5
   0  -1   4 187417. 2980.70   2
   0  -1  -5 155083. 2717.99   1
   0  -1  -5 151227. 2274.38   3
   0  -1  -5 152716. 3475.93   5
   0  -1  -5 154172. 2514.20   8
   0  -1  -5 151835. 2540.07   7
   0  -1   5 151273. 2866.38   2
   0  -1  -6 94091.9 1899.61   3
   0  -1  -6 89770.5 2872.98   5
   0  -1   6 89444.1 2366.31   2
   0  -1  -6 97999.1 2354.37   1
   0  -1  -6 101206. 2254.03   7
   0  -1  -7 25139.8 1034.00   3
   0  -1   7 26225.2 1355.40   2
   0  -1  -7 26826.8 1661.43   5
   0  -1  -7 25141.7 1222.75   7
   0  -1   8 14325.0 1058.43   2
   0  -1  -8 13195.6 785.540   3
   0  -1  -8 11395.7 1170.52   5
   0  -1  -8 13877.9 979.661   7
   0  -1   9 7878.58 839.402   2
   0  -1  -9 7471.32 991.102   5
   0  -1  -9 8366.02 822.824   7
   0  -1  10 21391.4 1413.64   2
   0  -1 -10 22091.2 1420.73   7
   0  -1 -10 20590.9 1701.90   5
   0  -1 -11 1344.24 426.207   7
   0  -1 -11 1603.01 610.764   5
   0  -1  11 465.625 300.275   2
   0  -1  12 4135.83 701.972   2
   0  -1 -12 5211.88 927.499   5
   0  -1 -12 5693.71 808.507   7
   0  -1 -13 11360.0 1202.97   7
   0  -1  13 10528.5 1137.22   2
   0  -1 -13 10510.2 1376.75   5
   0  -1 -14 3044.57 839.225   5
   0  -1 -14 3750.15 762.479   7
   0  -1  14 3896.99 741.675   2
   0  -1 -15 9572.63 1205.60   7
   0  -1 -15 7045.29 1236.30   5
   0  -1  15 7344.08 1015.60   2
   0  -1 -16 6340.04 1041.58   7
   0  -1 -16 6373.40 1185.17   5
   0  -1  16 6382.57 987.507   2
   0  -1  17 10065.6 1248.03   2
   0  -1 -17 10013.6 1355.84   7
   0  -1 -17 13449.4 1810.66   5
   0  -1  18 7873.86 1160.89   2
   0  -1  18 8965.84 1361.10   8
   0  -1 -18 4903.78 1118.25   5
   0  -1 -18 7316.43 1214.14   7
   0  -1 -19 1697.03 765.654   5
   0  -1 -19 3818.63 926.361   7
   0  -1  19 3479.02 914.521   8
   0  -1 -20-181.696 389.007   7
   0  -1  20 1188.53 571.067   8
   0  -1 -21 1195.23 640.559   7
   0  -1  21 2940.33 942.099   8
   0   0  -3 3044.35 333.987   6
   0   0   3 3305.86 335.278   6
   0   0   3 3011.50 290.513   7
   0   0   3 3367.27 264.562   2
   0   0  -3 2916.95 293.199   7
   0   0  -3 3051.25 251.575   2
   0   0  -3 3158.67 326.318   5
   0   0  -4 7830.20 465.219   2
   0   0   4 7722.49 596.622   6
   0   0  -4 7085.27 569.401   5
   0   0  -4 7341.81 586.612   6
   0   0  -4 7019.14 511.683   7
   0   0   4 7592.01 518.332   7
   0   0   4 7436.75 454.015   2
   0   0  -5 3566.06 466.883   5
   0   0  -5 3191.17 334.420   2
   0   0   5 3642.34 357.866   2
   0   0  -5 3465.83 410.957   7
   0   0   5 3870.50 428.995   7
   0   0  -6 183.757 184.469   7
   0   0   6 34.6898 104.527   2
   0   0  -6 23.9490 105.776   2
   0   0  -6-15.5043 158.288   5
   0   0   7 49867.1 1547.42   2
   0   0  -7 52407.2 2010.31   5
   0   0  -7 52564.1 1851.25   7
   0   0  -8 37186.7 1825.30   5
   0   0   8 35914.5 1407.44   2
   0   0  -8 38309.1 1689.75   7
   0   0   9 9793.54 784.370   2
   0   0  -9 8659.93 868.976   7
   0   0  -9 8403.35 931.505   5
   0   0 -10 18444.5 1438.85   5
   0   0  10 18019.2 1119.14   2
   0   0 -10 18185.0 1320.75   7
   0   0  11 29387.6 1504.69   2
   0   0 -11 31497.9 1974.32   5
   0   0 -11 29923.6 1778.81   7
   0   0 -12 16979.9 1512.62   5
   0   0  12 15118.2 1139.91   2
   0   0 -12 17296.3 1427.00   7
   0   0  13 13320.8 1318.71   8
   0   0 -13 15222.5 1503.75   5
   0   0  13 11875.6 1057.89   2
   0   0 -13 13072.1 1305.63   7
   0   0 -14 10433.0 1223.77   7
   0   0  14 8507.49 938.500   2
   0   0 -14 8797.89 1202.97   5
   0   0  14 9547.52 1166.15   8
   0   0  15 3674.55 654.330   2
   0   0  15 5007.77 904.326   8
   0   0 -15 2227.52 703.733   5
   0   0 -15 4298.12 859.306   7
   0   0  16 790.937 344.431   2
   0   0 -16 633.732 394.226   7
   0   0 -16 666.721 485.490   5
   0   0  16 992.954 462.904   8
   0   0 -17 385.079 442.336   7
   0   0 -17 422.428 377.202   5
   0   0  17 704.674 461.591   8
   0   0  18 1131.23 622.987   8
   0   0 -18 1889.23 700.516   7
   0   0  19 2615.79 822.517   8
   0   0 -19 3149.67 869.594   7
   0   0  20 794.528 487.525   8
   0   0 -20-238.394 466.351   7
   0   0  21 458.269 444.612   8
   0   0  21 1633.91 788.918   9
   0   0 -21 1646.07 783.294   7
   0   1   0 9.90762 92.0229   3
   0   1   0-34.9576 55.6551   2
   0   1   0 1.44542 55.1685   9
   0   1  -1 11550.0 557.775   2
   0   1  -1 12006.4 658.725   3
   0   1  -1 11298.8 438.695   6
   0   1   1 11079.1 488.395   9
   0   1   1 11477.7 586.829   1
   0   1   1 11620.5 576.295   3
   0   1   1 11490.5 413.033   2
   0   1   1 11612.7 499.825   8
   0   1   1 12077.9 684.255   5
   0   1   2 14501.2 831.486   5
   0   1   2 15154.2 597.417   8
   0   1  -2 15216.8 715.898   2
   0   1   2 14688.3 638.024   3
   0   1  -2 14691.4 638.359   6
   0   1  -2 14383.7 713.615   7
   0   1   2 14491.9 692.789   1
   0   1  -3 143419. 2338.86   6
   0   1  -3 143870. 2383.49   2
   0   1   3 141948. 2322.73   1
   0   1  -3 141949. 2426.39   7
   0   1   3 141157. 1963.60   3
   0   1   3 138768. 1951.42   8
   0   1   3 139011. 1968.37   6
   0   1   3 149696. 2896.45   5
   0   1   4 194359. 2417.73   3
   0   1   4 190084. 2550.28   8
   0   1  -4 188891. 3080.80   7
   0   1   4 192374. 2906.42   1
   0   1   4 187491. 2706.38   6
   0   1  -4 191605. 2978.34   2
   0   1  -4 189330. 3068.36   6
   0   1   5 145513. 2222.72   3
   0   1   5 146361. 2703.68   6
   0   1  -5 151733. 2944.96   7
   0   1   5 157284. 2548.92   8
   0   1   5 145378. 1503.86   2
   0   1  -5 147607. 3003.69   6
   0   1  -6 91587.1 2491.22   7
   0   1   6 93544.0 2153.69   8
   0   1  -6 88834.2 2539.72   6
   0   1   6 92956.5 1404.39   2
   0   1  -7 16568.9 1201.91   6
   0   1   7 17725.5 699.174   2
   0   1   7 15227.2 525.133   4
   0   1  -7 16294.5 1126.65   7
   0   1   7 15716.2 968.943   8
   0   1   8 14564.3 1001.11   8
   0   1   8 15118.3 718.339   2
   0   1  -8 15451.1 1159.18   7
   0   1   8 13906.7 580.208   4
   0   1   9 6081.05 501.427   2
   0   1  -9 6565.52 736.335   5
   0   1   9 5407.63 652.752   8
   0   1  -9 5332.31 744.819   7
   0   1   9 6502.79 441.718   4
   0   1  10 20971.7 863.907   4
   0   1  10 22172.8 1024.90   2
   0   1 -10 19745.3 1455.02   7
   0   1  10 19373.3 1306.23   8
   0   1 -10 23040.3 1463.50   5
   0   1  11 958.467 366.450   8
   0   1  11 781.020 218.513   2
   0   1 -11 1574.16 433.705   5
   0   1 -11 1108.73 452.292   7
   0   1  11 830.498 195.069   4
   0   1 -12 5411.04 807.124   5
   0   1 -12 4132.92 743.795   7
   0   1  12 4518.61 725.279   8
   0   1  12 5668.69 589.155   2
   0   1 -13 8098.12 1013.71   5
   0   1  13 8998.70 790.664   2
   0   1  13 9597.50 1086.61   8
   0   1 -13 8340.87 1102.65   7
   0   1 -14 4987.42 845.715   5
   0   1 -14 3968.40 820.531   7
   0   1  14 4573.88 597.365   2
   0   1  14 5165.07 872.420   8
   0   1 -15 6629.20 1008.32   5
   0   1 -15 7469.16 1132.76   7
   0   1  15 7932.26 1094.46   8
   0   1 -16 6228.46 1102.16   7
   0   1  16 6507.45 1034.59   8
   0   1  17 12562.6 1470.65   8
   0   1 -17 12166.9 1556.99   7
   0   1 -18 7579.16 1317.90   7
   0   1  18 8227.93 1249.67   8
   0   1  19 3875.30 917.456   8
   0   1 -19 1449.10 679.065   7
   0   1  20-266.982 401.364   8
   0   1  20 504.372 604.354   9
   0   1 -20 277.971 463.022   7
   0   1 -21 1071.24 557.705   7
   0   2   0 73010.4 2155.67   3
   0   2   0 71910.6 1032.82   6
   0   2   0 73248.7 1443.01   9
   0   2   0 73375.1 1746.74   2
   0   2   0 72959.5 2167.21   5
   0   2   1 32771.9 1403.02   3
   0   2   1 35476.7 1132.05   2
   0   2  -1 31100.5 1463.61   3
   0   2   1 32678.1 1083.50   9
   0   2   1 33452.0 1198.39   8
   0   2  -1 33053.8 901.416   6
   0   2  -1 34376.5 910.868   9
   0   2   2 46302.4 1188.89   2
   0   2   2 46032.7 1423.82   9
   0   2  -2 45481.5 1266.11   6
   0   2   2 45881.1 1414.91   8
   0   2  -2 47529.6 1868.81   3
   0   2   2 45336.7 1616.44   3
   0   2  -3 19176.8 929.426   6
   0   2   3 19201.8 1006.15   9
   0   2   3 19508.7 940.851   8
   0   2   3 19643.4 692.341   2
   0   2  -3 18655.2 1225.91   3
   0   2   3 19570.0 1038.37   3
   0   2  -4 14697.3 1041.83   7
   0   2   4 15672.3 872.997   8
   0   2   4 15502.4 543.192   2
   0   2   4 15761.9 993.738   9
   0   2   4 15362.8 726.386   6
   0   2  -4 16812.4 977.742   6
   0   2   4 15210.4 905.753   3
   0   2   5 8733.19 632.971   6
   0   2  -5 8524.91 840.604   7
   0   2  -5 8979.75 779.195   6
   0   2   5 9377.84 715.723   8
   0   2   5 9775.87 733.453   3
   0   2   5 9355.15 364.982   2
   0   2   6 15721.9 954.200   8
   0   2  -6 15435.7 1105.48   6
   0   2   6 16434.3 964.470   3
   0   2  -6 15928.7 1207.99   7
   0   2   7 22079.8 1188.50   8
   0   2   7 22725.8 1153.63   3
   0   2  -7 21268.5 1402.19   6
   0   2  -7 20601.1 1411.68   7
   0   2  -8 39067.0 2043.42   7
   0   2   8 37993.8 1651.91   8
   0   2   8 42070.9 1619.24   3
   0   2   9 18626.4 521.273   2
   0   2   9 19734.8 1272.10   8
   0   2  -9 18889.6 1499.05   7
   0   2  10 38395.7 855.260   2
   0   2  10 41631.2 1942.06   8
   0   2 -10 41901.2 2309.95   7
   0   2  11 25468.1 769.772   2
   0   2  11 27573.6 1647.74   8
   0   2 -11 26900.7 1936.78   7
   0   2  12 14827.2 1297.39   8
   0   2 -12 16565.1 1283.24   5
   0   2 -12 18000.9 1664.35   7
   0   2 -13 11266.8 1388.21   7
   0   2  13 9993.97 1121.13   8
   0   2 -13 13737.6 1223.09   5
   0   2 -14 5759.04 1056.36   7
   0   2  14 6279.24 918.993   8
   0   2 -15 1001.84 552.920   7
   0   2  15 2283.10 590.148   8
   0   2  16-36.3591 264.007   8
   0   2 -16 312.345 349.911   7
   0   2  17 773.684 457.306   8
   0   2  17 1516.89 631.429   9
   0   2 -17 553.458 472.024   7
   0   2 -18 333.859 449.732   7
   0   2  18 776.458 677.998   9
   0   2  19 2416.60 907.979   9
   0   2 -19 2306.41 823.742   7
   0   2 -20 1583.12 696.117   7
   0   3   0 27.5592 54.9538   6
   0   3   0 163.196 269.645   3
   0   3   0 46.9662 109.641   9
   0   3   1 11455.3 757.945   9
   0   3  -1 13298.3 636.158   6
   0   3  -1 11262.7 1088.89   3
   0   3   1 13084.2 1117.43   3
   0   3  -1 13505.4 715.805   9
   0   3   2 22373.1 1141.72   9
   0   3  -2 20705.7 916.114   6
   0   3   2 20422.1 1160.88   8
   0   3   2 17487.9 1281.25   3
   0   3  -2 22066.7 1554.99   3
   0   3   3 6038.89 642.254   8
   0   3   3 5473.43 310.506   6
   0   3   3 5620.50 627.726   9
   0   3   3 7048.73 806.061   3
   0   3  -3 6670.51 592.855   6
   0   3   3 5150.77 307.604   6
   0   3   3 6218.95 528.148   2
   0   3  -3 5609.91 811.164   3
   0   3   4 46726.7 1134.45   6
   0   3  -4 49057.6 1771.84   6
   0   3   4 52677.9 1890.24   8
   0   3   4 52022.8 2129.14   3
   0   3   4 49774.8 1963.07   9
   0   3  -4 52412.3 2490.40   3
   0   3   4 49776.4 1375.05   2
   0   3   5 10679.6 642.383   6
   0   3  -5 11107.4 1185.82   3
   0   3   5 9480.93 918.405   9
   0   3   5 11594.8 910.421   8
   0   3  -5 9552.95 864.638   6
   0   3   5 10736.0 950.522   3
   0   3   5 9680.65 550.062   2
   0   3   6 22254.2 1349.47   3
   0   3  -6 22202.6 1396.68   6
   0   3   6 22503.2 723.288   2
   0   3   6 23154.9 1518.93   9
   0   3  -6 21898.4 1681.64   3
   0   3   6 24048.5 1336.15   8
   0   3   6 21046.8 1028.11   6
   0   3   7 28969.9 1549.06   3
   0   3   7 26919.2 1729.75   9
   0   3   7 29052.2 1515.94   8
   0   3  -7 28600.1 1975.68   3
   0   3  -7 32600.6 1995.28   7
   0   3   8 19821.4 1557.16   9
   0   3  -8 19369.1 1665.56   3
   0   3  -8 19683.6 1619.10   7
   0   3   8 19476.3 1284.50   3
   0   3   8 21372.9 1344.12   8
   0   3   9 2853.04 654.499   9
   0   3  -9 1684.05 581.612   7
   0   3   9 2893.92 532.099   3
   0   3   9 2280.31 471.498   8
   0   3  -9 2265.60 636.731   3
   0   3 -10 20490.0 1777.52   7
   0   3  10 15973.4 1535.00   9
   0   3  10 20192.1 1363.13   3
   0   3  10 18915.9 1374.41   8
   0   3 -10 14683.0 1523.69   3
   0   3  11 1531.08 571.153   9
   0   3 -11 1013.93 488.528   7
   0   3  11 973.351 384.786   8
   0   3 -11 1003.27 476.269   3
   0   3 -12 10181.4 1379.94   7
   0   3  12 11263.6 1418.56   9
   0   3 -12 9291.43 1279.33   3
   0   3  12 10304.4 1107.00   8
   0   3  13 2472.01 611.015   8
   0   3  13 2351.16 699.971   9
   0   3 -13 2880.53 791.020   7
   0   3 -13 2411.74 698.893   3
   0   3 -14 10396.2 1381.96   3
   0   3  14 9235.26 1124.58   8
   0   3 -14 9681.69 1412.09   7
   0   3  14 10954.3 1521.32   9
   0   3 -15 8428.62 1307.92   3
   0   3  15 9485.26 1197.75   8
   0   3 -15 10115.6 1498.48   7
   0   3  15 11882.3 1648.67   9
   0   3 -16 2149.71 726.982   7
   0   3  16 2601.08 897.199   9
   0   3 -16 2554.84 770.087   3
   0   3  17 5714.39 1246.18   9
   0   3 -17 5250.42 1202.03   7
   0   3  18 3990.87 1107.49   9
   0   3 -18 4105.03 1110.58   7
   0   4   0 16412.6 970.335   9
   0   4   0 15198.1 1431.88   3
   0   4   1 25621.4 1293.42   9
   0   4  -1 26070.5 1915.84   3
   0   4  -1 26728.5 1179.02   9
   0   4   1 26787.6 1872.46   3
   0   4   2 10665.8 896.382   9
   0   4   2 10831.6 1190.55   3
   0   4  -2 10925.3 1267.96   3
   0   4   3 15667.3 1396.91   3
   0   4   3 17082.7 1195.07   9
   0   4  -3 15261.6 1535.01   3
   0   4  -4 4448.37 875.543   3
   0   4   4 3745.68 672.390   3
   0   4   4 4001.55 604.054   8
   0   4   4 4047.31 628.385   9
   0   4   5 1070.00 161.245   6
   0   4   5 1640.14 428.670   8
   0   4  -5 954.928 436.822   3
   0   4   5 705.702 366.511   9
   0   4   5 1406.16 439.395   3
   0   4  -6 635.340 446.550   3
   0   4   6 404.665 251.505   3
   0   4   6 46.7204 233.515   9
   0   4   6 259.450 239.967   8
   0   4  -7 1933.49 686.931   3
   0   4   7 3144.53 627.283   3
   0   4   7 3116.78 579.347   8
   0   4   7 3285.59 673.827   9
   0   4   8 12052.6 1184.35   3
   0   4   8 10331.9 1199.89   9
   0   4  -8 12873.6 1541.42   3
   0   4   8 11015.2 1074.23   8
   0   4   9 7544.16 1085.17   9
   0   4   9 9886.02 1038.49   8
   0   4   9 9622.59 1050.90   3
   0   4  -9 10358.3 1421.22   3
   0   4  10 11271.5 1138.61   8
   0   4  10 11139.9 1148.86   3
   0   4  10 12651.9 1462.61   9
   0   4 -10 8640.15 1343.01   3
   0   4  11 1248.90 435.282   3
   0   4 -11 1876.64 689.208   3
   0   4  11 1945.36 674.151   9
   0   4  11 1567.26 488.629   8
   0   4  12 6876.72 953.956   8
   0   4 -12 4790.99 1070.55   3
   0   4  12 8691.99 1336.85   9
   0   4 -12 7727.02 1299.39   7
   0   4 -13 4291.93 961.718   3
   0   4  13 5776.29 1138.12   9
   0   4 -13 4535.13 1074.57   7
   0   4  14 2927.28 838.780   9
   0   4 -14 4791.65 1030.07   3
   0   4 -14 5520.18 1196.54   7
   0   4 -15 1306.19 730.893   7
   0   4 -15 263.679 432.063   3
   0   4  15-384.369 551.875   9
   0   4  16 187.859 470.227   9
   0   4 -16 265.135 477.913   7
   0   4 -16-305.433 542.106   3
   0   4  17 285.838 576.488   9
   0   4 -17-1169.01 687.834   7
   0   5   0 153.464 186.782   9
   0   5   0 849.512 533.164   3
   0   5   1 922.819 307.257   9
   0   5   1 1371.70 549.197   3
   0   5  -1 1239.80 536.035   3
   0   5   2 5695.94 729.694   9
   0   5   2 5953.60 1042.34   3
   0   5  -2 4899.17 984.428   3
   0   5  -3 11380.5 1483.56   3
   0   5   3 9819.65 1307.56   3
   0   5   3 13777.2 1169.83   9
   0   5   4 17024.4 1367.65   9
   0   5  -4 20721.1 2035.28   3
   0   5   4 16443.5 1622.32   3
   0   5   5 12735.0 1248.78   9
   0   5   5 12882.0 1439.17   3
   0   5  -5 13424.9 1671.31   3
   0   5   6 538.942 264.157   8
   0   5   6 1429.10 413.944   9
   0   5   6 1107.07 456.709   3
   0   5  -6 645.842 489.519   3
   0   5   7 5676.05 944.036   3
   0   5  -7 6089.25 1186.23   3
   0   5   7 5259.87 889.393   9
   0   5   7 3680.08 694.327   8
   0   5   8 9760.35 1182.63   3
   0   5   8 7737.49 1120.79   9
   0   5   8 10029.6 1113.52   8
   0   5  -8 9503.87 1508.48   3
   0   5   9 3348.58 803.634   9
   0   5   9 4496.39 761.353   8
   0   5  -9 2355.80 802.183   3
   0   5   9 4680.17 842.654   3
   0   5  10-30.9804 313.636   9
   0   5 -10 724.646 610.791   3
   0   5  10-83.4463 310.838   3
   0   5 -11 348.835 358.643   3
   0   5  11 217.048 426.204   9
   0   5  12 234.085 485.240   9
   0   5 -12 487.057 475.050   3
   0   5  13 103.472 444.815   9
   0   5 -13 918.016 534.808   3
   0   5  14 1519.84 801.338   9
   0   5 -14 1005.07 664.434   3
   0   5  15 1512.04 651.377   9
   0   5 -15 1045.57 589.350   3
   0   5 -16-734.014 543.289   3
   0   6   0 19228.8 2087.37   3
   0   6   1 5231.46 1125.75   3
   0   6  -1 4774.89 1087.99   3
   0   6  -2 5435.86 1177.58   3
   0   6   2 5991.06 1153.77   3
   0   6  -3 1874.50 746.068   3
   0   6   3 5528.27 1111.90   3
   0   6  -4 1726.32 780.462   3
   0   6   4 1139.51 533.726   3
   0   6   5 349.062 447.680   3
   0   6  -5 949.825 636.506   3
   0   6   5 685.812 341.016   9
   0   6   6 121.832 329.237   9
   0   6   6 355.170 321.473   3
   0   6   7 1830.68 630.992   9
   0   6   7 1823.89 620.473   3
   0   6  -7 1026.44 629.598   3
   0   6   8 2507.52 747.670   9
   0   6   8 1509.11 593.369   3
   0   6  -8 2283.77 860.445   3
   0   6  -9 2028.54 821.471   3
   0   6   9 1153.08 582.870   3
   0   6   9 2245.15 712.990   9
   0   6 -10 1261.67 695.033   3
   0   6  10 2528.28 792.699   9
   0   6 -11 1434.51 774.929   3
   0   6  11 1325.82 592.887   9
   0   6 -12 1021.40 666.990   3
   0   6  12 1817.56 712.883   9
   0   6  13 1319.52 708.161   9
   0   7   0-297.151 523.732   3
   0   7  -1 160.730 475.191   3
   0   7   1-194.602 603.197   3
   0   7   2 136.577 485.538   3
   0   7  -2 244.015 488.344   3
   0   7  -3 678.908 573.138   3
   0   7   3 2357.76 814.675   3
   0   7  -4 358.318 641.253   3
   0   7   4 1010.65 663.586   3
   0   7  -5 684.355 584.450   3
   0   7   5 2322.64 848.191   3
   0   7   6 1577.20 600.400   3
   0   7  -6 255.069 494.233   3
   0   7   7 1891.35 691.909   3
   0   7   8 946.161 633.415   3
  -1  -7   8 1385.76 678.991   2
  -1  -7   7-297.965 572.104   2
   1  -7  -6 879.583 759.877   1
  -1  -7   6 236.019 410.081   2
  -1  -7   6 109.216 510.637   1
  -1  -7   5 711.716 463.428   2
   1  -7  -5-155.109 581.196   1
  -1  -7   5 5.58386 379.890   1
   1  -7  -4 427.675 451.003   1
  -1  -7   4 671.635 438.859   2
  -1  -7   4-399.865 443.672   1
  -1  -7   3 901.836 639.816   1
   1  -7  -3 247.764 324.543   1
  -1  -7   3 466.958 438.156   2
   1  -7  -2-203.151 495.349   1
  -1  -7   2 332.876 479.632   1
  -1  -7   1 1384.94 700.965   1
   1  -7  -1 951.450 635.605   1
  -1  -7   0 219.753 482.835   1
   1  -7   0 658.776 557.400   1
   1  -7   1 1230.14 604.340   2
  -1  -7  -1 334.855 537.969   1
   1  -7   1 283.019 400.250   1
   1  -7   2 2868.09 866.319   1
   1  -7   2 3492.24 953.687   2
  -1  -7  -2 3289.20 1011.57   1
  -1  -7  -3 2733.91 927.378   1
   1  -7   3 1419.47 558.619   2
   1  -7   3 3038.13 917.793   1
   1  -7   4 1776.83 806.532   1
  -1  -7  -4 514.180 444.445   1
   1  -7   4 1977.16 756.752   2
   1  -7   5 91.5849 484.955   1
   1  -7   5 629.662 464.037   2
  -1  -7  -5 408.724 478.554   1
  -1  -7  -6-6.70253 457.354   1
   1  -7   6 25.3618 367.173   2
   1  -7   6 1249.79 789.854   1
   1  -7   7-312.704 484.162   2
   1  -6 -14 2697.50 820.082   7
   1  -6 -13 105.579 337.470   7
  -1  -6  12 299.273 422.916   2
   1  -6 -12 750.142 492.456   1
   1  -6 -11 723.771 541.952   1
  -1  -6  11 750.014 593.435   2
   1  -6 -10 1485.44 742.372   1
  -1  -6  10 628.794 531.920   2
   1  -6  -9 1502.27 720.453   1
  -1  -6   9 802.394 512.852   2
  -1  -6   8 283.031 417.085   2
   1  -6  -8 1201.08 584.719   1
   1  -6  -7-214.742 408.254   1
  -1  -6   7 200.790 407.938   2
  -1  -6   6 1634.02 644.777   2
   1  -6  -6 2804.81 813.148   1
   1  -6  -5 6198.29 1149.55   1
  -1  -6   5 6455.48 1117.37   2
   1  -6  -4 4476.85 987.859   1
  -1  -6   4 2275.08 754.467   1
  -1  -6   4 3421.59 795.585   2
  -1  -6   3 4032.66 871.690   2
  -1  -6   3 3924.46 961.640   1
   1  -6  -3 4041.39 945.064   1
  -1  -6   2 4565.81 1054.70   1
   1  -6  -2 5326.18 862.761   2
   1  -6  -2 4339.78 950.669   1
  -1  -6   2 2638.84 693.074   2
   1  -6  -1 732.913 406.842   2
  -1  -6   1 1631.92 520.025   2
  -1  -6   1 1089.24 608.941   1
   1  -6  -1 1995.39 717.927   1
   1  -6   0 2031.82 618.042   2
  -1  -6   0 1484.52 509.993   2
   1  -6   0 1706.07 666.787   1
  -1  -6   0 2221.81 763.931   1
  -1  -6  -1 4819.61 1012.36   1
   1  -6   1 3215.40 857.783   1
   1  -6   1 3525.58 801.507   2
   1  -6   2 883.564 525.143   1
  -1  -6  -2-127.126 400.110   1
   1  -6   2-273.690 318.786   2
   1  -6   3 965.292 490.564   2
  -1  -6  -3 1217.83 602.809   1
   1  -6   3 890.659 515.321   1
  -1  -6  -4 580.765 468.049   1
   1  -6   4 1459.51 664.409   1
   1  -6   4 1060.51 518.789   2
   1  -6   5 2733.82 810.917   1
  -1  -6  -5 3880.72 940.778   1
   1  -6   5 2603.39 817.049   2
   1  -6   6 1778.90 656.302   2
  -1  -6  -6 4676.80 1066.47   1
   1  -6   7 761.359 537.679   2
  -1  -6  -7 592.650 395.534   1
  -1  -6  -8 5009.48 1097.76   1
   1  -6   8 3965.55 1047.46   2
   1  -6   9 860.379 601.102   2
  -1  -6  -9 1372.37 613.751   1
  -1  -6 -10 2871.50 895.837   1
   1  -6  10 1500.12 700.068   2
  -1  -6 -11-34.5983 305.108   1
   1  -6  11 541.988 556.375   2
  -1  -6 -12 410.903 514.540   1
   1  -5 -16 692.000 401.398   7
  -1  -5  15-587.297 467.729   2
   1  -5 -15 357.869 381.527   7
   1  -5 -14-261.800 493.875   1
  -1  -5  14 92.3451 341.145   2
   1  -5 -13 486.982 429.245   7
  -1  -5  13 274.307 507.503   2
   1  -5 -13 69.5796 331.931   1
  -1  -5  12 1002.16 607.552   2
   1  -5 -12 1084.79 476.640   7
   1  -5 -12 942.521 491.016   1
   1  -5 -11 2565.83 739.535   1
  -1  -5  11 1957.14 760.427   2
   1  -5 -11 2441.82 655.955   7
  -1  -5  10 3981.73 986.680   2
   1  -5 -10 3359.70 825.654   1
   1  -5  -9 6234.75 1107.25   1
  -1  -5   9 7086.91 1229.43   2
   1  -5  -8 17109.0 1737.21   1
  -1  -5   8 14356.8 1658.42   2
   1  -5  -7 8854.71 1269.52   1
  -1  -5   7 9480.22 1318.78   2
  -1  -5   6 3636.58 804.372   2
   1  -5  -6 4575.14 938.518   1
   1  -5  -5 3601.27 795.695   1
  -1  -5   5 3313.86 768.254   2
   1  -5  -4 3353.12 573.309   2
  -1  -5   4 3245.86 733.598   2
   1  -5  -4 3947.64 836.432   1
   1  -5  -3 448.142 325.602   2
   1  -5  -3 522.896 389.380   1
  -1  -5   3 282.688 329.703   2
   1  -5  -2 3868.81 810.109   1
  -1  -5   2 3905.38 849.724   1
   1  -5  -2 2122.50 500.392   2
  -1  -5   2 2793.73 643.169   2
   1  -5  -1 9200.48 1240.91   1
  -1  -5   1 10911.4 1142.53   2
  -1  -5   1 9621.82 1263.41   1
   1  -5  -1 11589.1 1168.70   2
  -1  -5   0 22833.7 1921.86   1
   1  -5   0 18255.1 1706.83   1
   1  -5   0 20462.0 1589.91   2
  -1  -5   0 21108.0 1510.09   2
  -1  -5  -1 22864.1 1923.46   1
   1  -5   1 19625.3 1768.89   1
   1  -5   1 16474.8 1482.78   2
  -1  -5  -1 17393.1 1314.53   2
  -1  -5  -2 2970.80 726.819   1
   1  -5   2 3077.29 677.734   2
   1  -5   2 3928.78 815.644   1
  -1  -5  -2 3302.74 561.076   2
  -1  -5  -3 6758.96 1069.47   1
   1  -5   3 9454.90 1201.53   2
   1  -5   3 8147.82 1151.84   1
  -1  -5  -3 5911.12 694.469   2
  -1  -5  -4 4846.45 919.078   1
   1  -5   4 4426.30 872.061   2
   1  -5   5 7022.17 1126.02   2
  -1  -5  -5 6871.66 1096.71   1
   1  -5   6 592.898 442.121   2
  -1  -5  -6 2853.64 723.981   1
  -1  -5  -7 985.882 454.595   1
   1  -5   7 721.186 549.809   2
   1  -5   8 1275.48 672.945   2
  -1  -5  -8 354.720 412.549   1
  -1  -5  -9 95.6340 354.879   1
   1  -5   9-409.575 496.117   2
  -1  -5 -10 2032.00 659.499   1
   1  -5  10 967.860 518.024   2
  -1  -5 -10 1940.74 559.928   7
   1  -5  11 306.058 413.621   2
  -1  -5 -11 916.955 452.389   7
  -1  -5 -12 2184.54 712.443   1
   1  -5  12 4437.88 1136.07   2
   1  -5  13 2476.88 838.083   2
  -1  -5 -13 1752.21 647.535   1
   1  -5  14 3499.90 1046.93   2
  -1  -5 -14 2584.74 762.496   1
   1  -4 -18-426.833 498.428   7
  -1  -4  17 571.119 477.453   2
   1  -4 -17-385.910 554.251   7
  -1  -4  16 1057.44 595.393   2
   1  -4 -16 2101.43 647.694   7
  -1  -4  15 3088.30 894.008   2
   1  -4 -15 3415.92 790.156   7
   1  -4 -14 5453.18 971.616   7
  -1  -4  14 3631.49 945.310   2
   1  -4 -13 9537.15 1215.76   7
  -1  -4  13 9136.40 1430.74   2
   1  -4 -13 9953.72 1324.88   1
   1  -4 -12 8416.35 1121.41   7
   1  -4 -12 10014.0 1319.43   1
  -1  -4  12 10213.6 1448.91   2
   1  -4 -11-81.4785 336.679   7
   1  -4 -11 623.682 374.381   1
  -1  -4  11 48.1520 304.063   2
   1  -4 -10 6534.92 942.398   7
  -1  -4  10 7416.82 1178.36   2
   1  -4 -10 6683.38 1026.74   1
  -1  -4   9 1731.51 559.747   2
   1  -4  -9 1355.30 545.960   1
  -1  -4   8 2880.04 704.968   2
   1  -4  -8 3907.56 779.619   1
   1  -4  -7 7834.42 1053.68   1
  -1  -4   7 6771.28 1037.99   2
   1  -4  -6 5971.87 924.584   1
  -1  -4   6 5444.44 890.708   2
  -1  -4   5 13300.4 1309.29   2
   1  -4  -5 13858.1 1339.54   1
  -1  -4   4 18621.6 1487.42   2
   1  -4  -4 18591.1 1157.35   2
   1  -4  -4 17899.2 1507.43   1
  -1  -4   3 24084.9 1629.72   2
   1  -4  -3 22713.5 1340.18   2
   1  -4  -3 23878.4 1723.59   1
  -1  -4   3 19901.4 928.294   6
   1  -4  -2 41007.1 2233.45   1
  -1  -4   2 36025.7 1009.45   6
   1  -4  -2 38569.4 1797.31   2
  -1  -4   2 40032.9 2002.58   2
   1  -4  -1 12747.7 1260.79   1
  -1  -4   1 10961.2 1016.07   2
   1  -4  -1 11794.1 1033.53   2
  -1  -4   0 3400.96 542.750   2
   1  -4   0 3705.46 702.198   1
   1  -4   0 4242.72 671.055   2
  -1  -4   0 4340.31 762.006   1
   1  -4   1 4539.12 698.950   2
   1  -4   1 3261.35 659.200   1
  -1  -4  -1 3639.89 538.030   2
  -1  -4  -1 4119.65 747.131   1
  -1  -4  -2 610.278 227.260   2
  -1  -4  -2 1007.01 443.809   1
   1  -4   2 513.160 283.805   2
  -1  -4  -3 3259.06 446.932   2
   1  -4   3 3345.17 657.852   2
  -1  -4  -3 3419.90 686.339   1
  -1  -4  -4 15464.5 857.527   2
   1  -4   4 15727.3 1429.32   2
  -1  -4  -4 17181.5 1481.37   1
  -1  -4  -5 13035.6 1302.63   1
  -1  -4  -5 11329.3 652.833   2
   1  -4   5 11870.1 1283.23   2
  -1  -4  -6 16024.9 1819.06   5
  -1  -4  -6 17718.9 1541.54   1
   1  -4   6 15382.6 1502.07   2
  -1  -4  -7 8696.35 1104.63   1
  -1  -4  -7 7551.69 1313.54   5
   1  -4   7 7581.95 1097.45   2
  -1  -4  -8 2187.57 754.100   5
   1  -4   8 3025.40 759.667   2
  -1  -4  -8 2883.92 675.390   1
   1  -4   9 16281.2 1687.24   2
  -1  -4  -9 16647.7 2057.47   5
  -1  -4  -9 15646.4 1286.44   7
  -1  -4  -9 15631.4 1494.70   1
  -1  -4 -10 6632.10 1018.78   1
   1  -4  10 5724.83 1049.26   2
  -1  -4 -10 5770.39 816.731   7
  -1  -4 -10 5037.87 1182.00   5
   1  -4  11 4854.23 1004.37   2
  -1  -4 -11 5637.82 1320.89   5
  -1  -4 -11 3845.78 694.956   7
  -1  -4 -11 5322.40 930.475   1
  -1  -4 -12 3277.18 1027.73   5
  -1  -4 -12 4096.31 736.203   7
   1  -4  12 4953.97 1066.50   2
  -1  -4 -12 3999.82 834.511   1
  -1  -4 -13 2898.84 1139.32   5
  -1  -4 -13 1725.36 535.913   7
  -1  -4 -13 1089.37 511.410   1
   1  -4  13 1516.19 612.719   2
   1  -4  14 696.261 568.278   2
  -1  -4 -14 2446.10 1023.89   5
  -1  -4 -15 2258.19 1018.79   5
   1  -4  15 2070.38 759.673   2
  -1  -4 -16 4659.81 1324.29   5
   1  -4  16 3430.64 1017.72   2
   1  -4  17 495.507 529.499   2
   1  -3 -20 4866.49 1150.45   7
   1  -3 -19 4028.23 1007.18   7
  -1  -3  19 2687.91 874.168   2
  -1  -3  18 2506.16 822.584   2
   1  -3 -18 3021.25 866.206   7
   1  -3 -17 1460.49 627.721   7
  -1  -3  17 2036.47 750.275   2
  -1  -3  16 1879.61 716.586   2
   1  -3 -16 524.408 433.241   7
  -1  -3  15 363.388 493.455   2
   1  -3 -15 158.822 288.515   7
   1  -3 -14 495.302 359.310   7
  -1  -3  14 662.376 523.830   2
   1  -3 -13 141.391 291.866   7
  -1  -3  13 508.604 506.988   2
   1  -3 -12 16926.8 1482.95   7
  -1  -3  12 14699.0 1556.55   2
   1  -3 -11 1216.44 468.030   1
  -1  -3  11 1047.10 465.321   2
   1  -3 -11 1364.88 432.548   7
   1  -3 -10 14718.4 1292.50   7
   1  -3 -10 15507.5 1400.39   1
  -1  -3  10 13819.5 1412.72   2
   1  -3  -9 17860.3 1373.07   7
   1  -3  -9 20493.6 1560.10   1
  -1  -3   9 18902.3 1619.19   2
   1  -3  -8 12836.7 1206.92   1
  -1  -3   8 14281.6 1351.29   2
   1  -3  -7 32696.0 809.600   4
  -1  -3   7 37954.5 2111.07   2
   1  -3  -7 34101.1 1920.04   1
  -1  -3   6 29613.8 1798.73   2
   1  -3  -6 32076.8 1798.61   1
  -1  -3   5 1339.83 442.813   2
   1  -3  -5 980.596 416.291   1
  -1  -3   4 6011.51 766.928   2
   1  -3  -4 7388.82 861.935   1
   1  -3  -3 434.971 247.183   1
  -1  -3   3 390.055 230.214   2
  -1  -3   3 348.658 147.633   6
   1  -3  -3 213.534 141.521   2
   1  -3  -2 695.088 280.569   1
   1  -3  -2 819.993 242.108   2
  -1  -3   2 917.344 306.500   2
  -1  -3   2 1216.53 193.128   6
   1  -3  -1 19928.0 1340.82   1
  -1  -3   1 20701.3 1189.04   2
   1  -3  -1 19723.0 1154.94   2
  -1  -3   1 19732.5 567.223   6
   1  -3   0 6934.44 789.993   1
  -1  -3   0 7960.61 856.717   1
  -1  -3   0 7792.68 711.228   2
   1  -3   0 7651.89 744.963   2
   1  -3   1 10504.1 917.449   2
  -1  -3  -1 10546.8 749.898   2
  -1  -3  -1 10317.5 982.971   1
   1  -3   1 8760.78 676.631   6
  -1  -3  -2 82702.4 2718.11   1
  -1  -3  -2 82100.3 3082.00   5
  -1  -3  -2 83380.0 1931.63   2
   1  -3   2 81132.5 2623.54   2
  -1  -3  -3 74642.6 2612.84   1
  -1  -3  -3 74904.9 3098.51   5
   1  -3   3 71190.1 2555.91   2
  -1  -3  -3 69724.6 1581.92   2
  -1  -3  -4 4657.33 683.665   1
  -1  -3  -4 6112.33 538.455   4
  -1  -3  -4 5516.13 392.776   2
  -1  -3  -4 6114.53 965.120   5
   1  -3   4 4699.30 707.231   2
  -1  -3  -5 34624.9 1842.70   1
  -1  -3  -5 35433.0 1147.91   4
   1  -3   5 32239.9 643.351   9
   1  -3   5 35657.7 1963.90   2
  -1  -3  -5 34042.7 2275.67   5
  -1  -3  -6 12490.7 1466.14   5
  -1  -3  -6 14770.0 1212.01   1
   1  -3   6 14016.4 1292.49   2
  -1  -3  -6 13513.9 603.160   4
  -1  -3  -7 9154.45 993.415   1
  -1  -3  -7 6155.22 287.647   4
   1  -3   7 6647.81 924.622   2
  -1  -3  -7 6737.55 1102.16   5
  -1  -3  -8 3250.05 612.186   1
  -1  -3  -8 4910.67 1026.94   5
   1  -3   8 2090.34 530.855   2
  -1  -3  -8 3565.92 546.340   7
  -1  -3  -9 10663.6 973.655   7
   1  -3   9 10180.1 1222.32   2
  -1  -3  -9 8261.95 1322.73   5
  -1  -3  -9 9587.66 1052.76   1
   1  -3  10 49235.9 2726.52   2
  -1  -3 -10 45671.2 2335.12   1
  -1  -3 -10 42785.3 3096.86   5
  -1  -3 -10 46538.6 2087.94   7
  -1  -3 -11 1385.10 480.281   1
  -1  -3 -11 1506.35 404.450   7
  -1  -3 -11 711.630 577.781   5
   1  -3  11 1499.09 582.626   2
  -1  -3 -12 15805.2 1996.08   5
  -1  -3 -12 16334.6 1371.04   7
   1  -3  12 14444.2 1567.70   2
   1  -3  13 3386.55 848.523   2
  -1  -3 -13 1750.07 489.624   7
  -1  -3 -13 3403.08 1014.21   5
  -1  -3 -14 6183.10 944.731   7
   1  -3  14 7016.06 1187.61   2
  -1  -3 -14 4694.74 1206.59   5
  -1  -3 -15 6091.07 976.679   7
   1  -3  15 3927.78 905.098   2
  -1  -3 -15 5894.78 1421.17   5
   1  -3  16 4372.42 986.236   2
  -1  -3 -16 4886.10 1323.51   5
   1  -3  17 465.303 619.236   2
  -1  -3 -17 148.590 483.487   5
  -1  -3 -18-203.934 507.558   5
   1  -3  18 777.802 522.450   2
   1  -3  19 721.682 587.195   2
   1  -2 -21 539.217 568.523   7
  -1  -2  20 991.879 604.221   8
  -1  -2  20 693.544 505.321   2
   1  -2 -20 621.279 523.327   7
   1  -2 -19 948.313 599.090   7
  -1  -2  19 94.0643 304.534   2
  -1  -2  18 591.099 518.991   2
   1  -2 -18 928.102 531.349   7
   1  -2 -17 1480.17 561.986   7
  -1  -2  17 3183.78 841.920   2
  -1  -2  16 6906.58 1163.40   2
   1  -2 -16 6441.90 1105.25   7
   1  -2 -15 13081.6 1432.83   7
  -1  -2  15 15495.9 1619.98   2
   1  -2 -14 6711.93 1021.79   7
   1  -2 -14 8672.53 1433.45   5
  -1  -2  14 9129.66 1204.66   2
   1  -2 -13 14115.2 1378.33   7
   1  -2 -13 9807.03 1418.30   5
  -1  -2  13 11449.6 1300.42   2
   1  -2 -12 30386.6 2422.10   5
  -1  -2  12 34261.4 2138.31   2
   1  -2 -12 33780.6 1997.33   7
  -1  -2  11 5990.65 892.567   2
   1  -2 -11 3825.24 841.285   5
   1  -2 -11 5917.30 818.348   7
   1  -2 -10 4379.49 875.344   5
  -1  -2  10 5932.00 882.572   2
   1  -2 -10 5090.03 537.870   3
   1  -2 -10 6114.39 795.908   7
   1  -2  -9 2326.45 483.770   7
   1  -2  -9 2599.03 386.052   3
  -1  -2   9 2446.79 559.483   2
   1  -2  -9 2629.52 566.080   1
   1  -2  -8 2298.33 452.439   7
   1  -2  -8 2366.53 358.265   3
   1  -2  -8 3010.93 560.756   1
  -1  -2   8 2202.41 509.060   2
  -1  -2   7 10782.3 1018.53   2
   1  -2  -7 10155.6 888.446   7
   1  -2  -7 9525.79 716.501   3
   1  -2  -7 9740.68 902.963   1
   1  -2  -6 1382.17 287.491   3
  -1  -2   6 1950.25 441.202   2
   1  -2  -6 1316.14 139.744   4
   1  -2  -6 1396.55 361.417   1
   1  -2  -5 42074.7 1491.39   3
   1  -2  -5 43048.9 1761.97   1
  -1  -2   5 40182.7 1767.93   2
   1  -2  -5 41541.4 942.594   4
   1  -2  -4 20506.2 1169.65   1
  -1  -2   4 19577.7 1013.77   6
   1  -2  -4 21119.6 1077.81   3
  -1  -2   4 18494.0 1141.45   2
  -1  -2   3 40727.6 1602.81   2
   1  -2  -3 46748.2 1705.86   1
  -1  -2   3 42745.7 1324.48   6
  -1  -2   3 44830.4 1321.15   9
  -1  -2   2 134829. 2017.60   6
  -1  -2   2 135461. 2273.07   9
   1  -2  -2 135910. 2869.06   1
   1  -2  -2 136281. 2401.67   2
  -1  -2   2 136334. 2726.54   2
  -1  -2   1 60039.0 1041.17   6
  -1  -2   1 60831.7 1557.25   9
   1  -2  -1 57989.6 1833.63   1
  -1  -2   1 61498.4 1703.01   2
   1  -2  -1 56639.1 1622.28   2
  -1  -2   0 18034.8 1066.26   5
   1  -2   0 17825.2 947.197   2
   1  -2   0 17581.1 815.591   6
   1  -2   0 18130.9 1028.43   1
  -1  -2   0 18570.8 811.295   8
  -1  -2   0 20177.5 898.927   2
  -1  -2   0 19542.3 1018.17   4
  -1  -2   0 17774.4 884.626   9
  -1  -2  -1 25596.3 1087.12   4
  -1  -2  -1 22949.3 1181.56   1
  -1  -2  -1 25674.1 915.010   2
   1  -2   1 25133.5 1187.52   2
   1  -2   1 23423.6 1007.95   6
  -1  -2  -1 24101.3 1342.06   5
  -1  -2  -1 24753.5 910.513   8
   1  -2   2 14049.0 841.171   6
  -1  -2  -2 15394.9 688.929   8
   1  -2   2 16254.7 1004.79   2
  -1  -2  -2 14723.8 944.468   1
  -1  -2  -2 14834.6 764.765   4
  -1  -2  -2 15723.5 1156.32   5
  -1  -2  -2 16187.2 637.046   2
  -1  -2  -3 23846.7 883.110   4
   1  -2   3 22985.6 1261.65   2
  -1  -2  -3 20192.4 1404.98   5
  -1  -2  -3 22634.9 1184.00   1
  -1  -2  -3 22691.6 619.182   2
  -1  -2  -3 23227.1 830.919   8
  -1  -2  -4 3961.03 691.642   5
  -1  -2  -4 4143.15 364.932   8
  -1  -2  -4 3928.26 525.716   1
  -1  -2  -4 4485.93 336.878   4
   1  -2   4 4629.12 610.657   2
   1  -2   5 11276.1 978.498   2
  -1  -2  -5 12148.4 918.933   1
  -1  -2  -5 12026.1 662.028   8
  -1  -2  -5 11228.4 1184.45   5
  -1  -2  -5 11897.7 489.119   4
  -1  -2  -6 68336.0 3001.62   5
  -1  -2  -6 72890.1 1944.72   7
   1  -2   6 65458.7 2428.30   2
  -1  -2  -6 71179.9 2247.16   1
   1  -2   7 88828.8 2937.82   2
  -1  -2  -7 86026.1 3487.12   5
  -1  -2  -7 85357.4 2560.05   1
  -1  -2  -7 88385.1 2270.95   7
   1  -2   8 19747.0 1449.05   2
  -1  -2  -8 23003.7 1256.22   7
  -1  -2  -8 22204.0 1353.89   1
  -1  -2  -8 23038.7 1919.59   5
   1  -2   9 12720.1 1220.87   2
  -1  -2  -9 13452.0 1015.54   7
  -1  -2  -9 14271.5 1135.33   1
  -1  -2  -9 13269.5 1523.74   5
  -1  -2 -10 16470.6 1739.09   5
  -1  -2 -10 18929.8 1284.11   7
   1  -2  10 16990.4 1453.01   2
  -1  -2 -11 15641.0 1764.59   5
   1  -2  11 15221.2 1424.53   2
  -1  -2 -11 16072.3 1254.70   7
  -1  -2 -12 11508.6 1577.44   5
   1  -2  12 8202.90 1107.78   2
  -1  -2 -12 11122.4 1102.55   7
  -1  -2 -13 152.039 276.530   7
   1  -2  13 444.931 264.974   2
  -1  -2 -13 339.899 398.760   5
   1  -2  14 2636.12 729.995   2
  -1  -2 -14 2406.42 846.297   5
  -1  -2 -15 1969.23 710.142   5
  -1  -2 -15 1291.87 511.886   7
   1  -2  15 1485.42 633.291   2
  -1  -2 -16 1622.77 548.464   7
  -1  -2 -16 1409.01 797.861   5
   1  -2  16 1008.13 483.389   2
  -1  -2 -17 924.944 457.210   7
   1  -2  17 1416.57 539.385   2
  -1  -2 -17 1608.37 757.179   5
  -1  -2 -18 3965.41 1160.79   5
   1  -2  18 5474.70 1082.51   2
  -1  -2 -19 5309.40 1366.83   5
  -1  -2 -20 3382.17 1167.61   5
  -1  -1  21 2082.42 775.768   8
   1  -1 -21 1055.63 632.140   7
   1  -1 -20 4770.07 1118.66   7
  -1  -1  20 3395.06 966.694   8
  -1  -1  19 2353.83 734.785   2
  -1  -1  19 2063.63 810.691   8
   1  -1 -19 2345.99 761.275   7
   1  -1 -18 3830.24 897.737   7
   1  -1 -18 2396.15 808.606   5
  -1  -1  18 4399.55 1000.06   8
  -1  -1  18 3981.99 871.736   2
   1  -1 -17 5038.16 1060.33   5
  -1  -1  17 5277.88 1013.75   8
  -1  -1  17 4685.09 893.075   2
   1  -1 -17 5798.25 1087.61   7
  -1  -1  16 14451.6 1446.26   2
   1  -1 -16 14178.2 1714.64   5
   1  -1 -16 15945.0 1657.67   7
   1  -1 -15 216.260 261.299   5
  -1  -1  15-78.0037 257.454   2
   1  -1 -15 34.9560 264.375   7
  -1  -1  14 1382.75 481.903   2
   1  -1 -14 906.402 454.610   7
   1  -1 -14 1802.04 596.308   5
  -1  -1  13 8863.84 1048.45   2
   1  -1 -13 7802.11 1009.51   7
   1  -1 -13 9293.01 1275.28   5
  -1  -1  12 3833.94 651.185   2
   1  -1 -12 3346.62 670.059   7
   1  -1 -12 4457.75 856.261   5
  -1  -1  11 15598.3 1261.30   2
   1  -1 -11 16579.9 1559.94   5
   1  -1 -11 14164.9 1231.54   7
   1  -1 -11 14372.7 754.068   3
  -1  -1  10 24103.1 1503.17   2
   1  -1 -10 20162.5 849.612   3
   1  -1 -10 22204.3 1481.38   7
   1  -1 -10 21077.6 1651.66   5
   1  -1  -9 37488.8 1093.81   3
   1  -1  -9 36585.6 2076.94   5
   1  -1  -9 41240.7 1855.18   7
  -1  -1   9 40059.5 1849.63   2
   1  -1  -8 53556.2 1227.65   3
   1  -1  -8 55347.9 2018.43   7
   1  -1  -8 51008.2 2339.45   5
  -1  -1   8 54335.6 2071.15   2
   1  -1  -7 37628.5 1559.61   7
   1  -1  -7 38190.1 1899.98   5
  -1  -1   7 37774.7 1631.96   2
   1  -1  -7 37118.1 965.893   3
   1  -1  -6 82434.5 2203.90   1
   1  -1  -6 83009.9 1362.12   3
   1  -1  -6 82092.8 2657.34   5
  -1  -1   6 82651.1 2295.13   2
   1  -1  -6 79677.7 2118.50   7
  -1  -1   5 61898.2 1875.81   2
   1  -1  -5 64209.6 1773.45   7
   1  -1  -5 65051.5 1075.31   4
   1  -1  -5 63820.1 1806.20   1
   1  -1  -5 63071.8 1145.90   3
   1  -1  -4 6150.64 320.850   4
   1  -1  -4 7037.68 564.009   8
  -1  -1   4 6434.44 573.150   2
   1  -1  -4 6223.31 527.336   1
   1  -1  -4 6269.05 369.356   3
   1  -1  -3 28773.8 1039.41   1
  -1  -1   3 28564.1 1103.99   2
   1  -1  -3 27218.1 1033.75   8
   1  -1  -3 29262.6 726.105   4
  -1  -1   3 26582.6 1027.14   3
  -1  -1   3 30688.0 1091.86   7
   1  -1  -2 24947.1 921.546   1
  -1  -1   2 25899.3 900.646   7
  -1  -1   2 23833.3 921.829   2
   1  -1  -2 23585.6 919.859   8
  -1  -1   2 25844.8 975.549   3
  -1  -1   2 25406.4 1038.01   4
  -1  -1   1 1424.00 196.992   5
  -1  -1   1 1080.00 166.693   7
  -1  -1   1 1034.10 172.989   9
   1  -1  -1 944.480 190.192   1
   1  -1  -1 1248.39 204.867   2
  -1  -1   1 1056.30 216.266   3
  -1  -1   1 1045.24 214.421   4
  -1  -1   1 910.327 177.551   2
   1  -1  -1 1100.58 211.288   8
  -1  -1   0 165965. 1906.81   2
   1  -1   0 167652. 2229.92   6
   1  -1   0 166480. 2150.05   1
  -1  -1   0 164386. 2450.43   5
  -1  -1   0 167785. 2481.45   3
   1  -1   0 168807. 2417.55   8
   1  -1   0 164612. 2276.28   2
  -1  -1   0 166788. 2219.12   9
  -1  -1   0 168303. 2250.97   4
  -1  -1   0 168133. 1839.42   7
   1  -1   1 159057. 2350.72   2
   1  -1   1 160100. 2331.76   6
  -1  -1  -1 163582. 2476.12   3
  -1  -1  -1 163672. 1602.24   6
   1  -1   1 164289. 2410.28   8
  -1  -1  -1 159566. 2767.25   5
  -1  -1  -1 167893. 2358.26   9
  -1  -1  -1 162193. 1996.39   4
  -1  -1  -1 157890. 2145.02   1
  -1  -1  -1 164740. 1591.65   2
  -1  -1  -2 259810. 2842.48   1
  -1  -1  -2 262980. 2488.60   6
  -1  -1  -2 260070. 2316.86   4
  -1  -1  -2 244680. 3821.41   5
   1  -1   2 257778. 3213.79   2
   1  -1   2 271800. 3280.84   7
   1  -1   2 270165. 3316.86   6
  -1  -1  -2 262397. 3213.47   3
  -1  -1  -2 257126. 3213.77   9
  -1  -1  -3 58382.0 1045.77   4
  -1  -1  -3 55796.6 1108.45   7
  -1  -1  -3 58265.1 1405.15   6
  -1  -1  -3 56362.5 1554.77   3
   1  -1   3 61340.5 1736.41   6
   1  -1   3 59935.2 1624.63   7
   1  -1   3 59679.0 1649.63   2
  -1  -1  -3 58515.4 2047.35   5
  -1  -1  -3 58325.4 1412.78   1
  -1  -1  -4 38573.2 1783.60   5
  -1  -1  -4 38423.4 1242.77   1
  -1  -1  -4 39490.5 1355.21   3
   1  -1   4 39194.3 1426.81   2
  -1  -1  -4 39439.9 1319.95   6
  -1  -1  -4 40216.7 1078.96   7
  -1  -1  -5 46909.1 786.682   2
  -1  -1  -5 50830.2 2194.77   5
  -1  -1  -5 48954.1 1630.63   6
  -1  -1  -5 47747.3 1336.58   7
   1  -1   5 46473.4 1656.45   2
  -1  -1  -5 48636.3 1483.28   1
  -1  -1  -6 23283.8 1579.31   5
  -1  -1  -6 22047.4 1228.08   6
  -1  -1  -6 22572.2 1034.29   7
  -1  -1  -6 22968.4 1097.67   1
  -1  -1  -6 22982.2 656.487   2
   1  -1   6 23023.5 1229.04   2
   1  -1   7 1858.33 394.852   2
  -1  -1  -7 1958.25 424.658   6
  -1  -1  -7 1572.79 199.918   2
  -1  -1  -7 1953.58 511.579   5
  -1  -1  -7 2105.87 350.273   7
  -1  -1  -8 1294.00 208.623   2
  -1  -1  -8 2162.72 600.961   5
  -1  -1  -8 1291.74 333.137   7
  -1  -1  -8 1274.74 393.680   6
   1  -1   8 1791.82 431.089   2
   1  -1   9 1782.29 419.023   2
  -1  -1  -9 1883.46 388.498   7
  -1  -1  -9 1983.33 586.126   5
  -1  -1  -9 2766.43 316.151   2
   1  -1  10 10689.4 1016.80   2
  -1  -1 -10 13109.4 1424.53   5
  -1  -1 -10 12024.6 1040.46   7
  -1  -1 -11 6438.33 1077.64   5
   1  -1  11 3994.69 664.594   2
  -1  -1 -11 5683.05 770.924   7
  -1  -1 -12 18138.5 1408.88   7
   1  -1  12 16875.4 1375.50   2
  -1  -1 -12 15655.6 1691.27   5
  -1  -1 -13 24677.0 1714.42   7
   1  -1  13 23875.1 1722.12   2
  -1  -1 -13 26858.0 2273.16   5
   1  -1  14 13312.9 1315.94   2
  -1  -1 -14 14717.8 1779.30   5
  -1  -1 -14 13339.4 1337.89   7
  -1  -1 -15 13008.4 1382.80   7
  -1  -1 -15 14419.7 1827.52   5
   1  -1  15 13167.7 1370.49   2
   1  -1  16 6589.32 998.305   2
  -1  -1 -16 8788.82 1479.04   5
  -1  -1 -16 8030.34 1134.47   7
   1  -1  17 2195.71 636.805   2
  -1  -1 -17 2574.19 713.721   7
  -1  -1 -17 1525.23 671.694   5
   1  -1  17 3425.51 849.590   9
   1  -1  18-43.9482 372.043   9
  -1  -1 -18 553.279 687.451   5
  -1  -1 -18-111.103 342.542   7
   1  -1  19-32.6965 389.814   8
   1  -1  19 77.8827 364.898   9
  -1  -1 -19-596.417 589.854   5
  -1  -1 -20 371.939 647.387   5
   1  -1  20 377.632 540.049   8
   1  -1  20 769.332 574.251   9
   1   0 -21 1513.52 709.696   7
  -1   0  21 2506.08 825.069   8
  -1   0  20 366.518 429.188   8
   1   0 -20 563.774 648.571   7
   1   0 -19 2468.10 829.105   7
  -1   0  19 2484.83 865.242   8
  -1   0  18 388.954 366.090   8
   1   0 -18 1262.81 610.238   7
   1   0 -17 4341.47 911.340   5
  -1   0  17 4316.12 773.280   2
  -1   0  17 3950.91 884.119   8
   1   0 -17 4686.09 956.511   7
   1   0 -16 11714.7 1424.54   7
  -1   0  16 9659.38 1111.23   2
   1   0 -16 9465.64 1273.68   5
  -1   0  16 12361.8 1455.40   8
  -1   0  15 3825.55 670.162   2
   1   0 -15 4593.17 864.289   7
   1   0 -15 6548.96 1028.21   5
  -1   0  15 6192.24 992.300   8
  -1   0  14 14114.0 1429.32   8
   1   0 -14 14388.9 1461.37   7
   1   0 -14 15934.9 1524.77   5
  -1   0  14 15993.9 1295.60   2
   1   0 -13 5879.50 906.872   5
  -1   0  13 6034.61 774.410   2
  -1   0  13 6307.13 932.644   8
   1   0 -13 6541.26 978.085   7
  -1   0  12 31376.5 1941.23   8
  -1   0  12 30585.4 1634.52   2
   1   0 -12 30020.1 1901.32   7
   1   0 -12 26658.7 1793.77   5
  -1   0  11 27392.3 1733.79   8
   1   0 -11 27305.9 1739.18   7
  -1   0  11 25768.7 1441.19   2
   1   0 -11 25367.7 1657.29   5
  -1   0  10 27505.6 1421.66   2
   1   0 -10 25670.0 1587.29   5
   1   0 -10 27514.4 1646.71   7
  -1   0  10 27256.8 1639.60   8
   1   0  -9 8593.08 858.071   5
  -1   0   9 8383.43 753.074   2
  -1   0   9 8244.50 871.988   8
   1   0  -9 8260.04 874.551   7
   1   0  -8 70330.3 2297.25   5
  -1   0   8 79552.4 2162.20   2
  -1   0   8 80472.4 2496.01   8
   1   0  -8 83445.2 2549.01   7
   1   0  -7 942.706 320.546   7
   1   0  -7 514.762 228.938   5
  -1   0   7 999.870 291.813   5
  -1   0   7 376.555 245.829   8
  -1   0   7 1228.94 261.942   4
  -1   0   7 977.350 246.477   2
  -1   0   6 1064.56 246.537   2
   1   0  -6 806.445 253.719   5
  -1   0   6 987.491 210.680   4
   1   0  -6 1485.16 321.166   7
  -1   0   6 1034.17 269.438   8
  -1   0   6 657.411 188.902   5
  -1   0   5 167861. 2867.76   8
  -1   0   5 168945. 2494.37   4
  -1   0   5 175479. 2564.79   2
   1   0  -5 167494. 2691.58   5
   1   0  -5 163950. 2823.83   7
  -1   0   5 176302. 2723.11   5
  -1   0   4 261797. 2870.43   4
   1   0  -4 256842. 3155.57   7
  -1   0   4 258091. 3243.56   8
  -1   0   4 251144. 3074.01   7
   1   0  -4 255734. 2826.02   4
  -1   0   4 264977. 2928.52   5
   1   0  -3 210238. 2484.65   7
  -1   0   3 209285. 2313.99   4
  -1   0   3 212032. 2561.88   8
   1   0  -3 209054. 2313.37   4
  -1   0   3 200562. 2416.69   7
   1   0   2 29578.0 784.775   2
  -1   0  -2 28565.4 943.140   6
  -1   0  -2 27856.4 757.376   2
   1   0   2 30197.8 989.885   6
  -1   0  -2 29066.6 681.863   7
  -1   0  -2 28833.1 855.312   9
   1   0   2 29784.6 858.372   9
   1   0   2 29364.3 682.067   7
   1   0   3 26210.8 800.498   7
   1   0   3 23922.7 894.279   9
   1   0   3 24779.3 787.554   2
  -1   0  -3 25010.3 1009.04   6
  -1   0  -3 24493.2 775.119   7
  -1   0  -3 25342.9 791.629   2
   1   0   3 23754.0 999.152   6
   1   0   4 7273.60 551.750   9
  -1   0  -4 7473.64 477.081   2
  -1   0  -4 7694.83 511.678   7
   1   0   4 8332.20 524.340   7
  -1   0  -4 8235.50 649.373   6
   1   0   4 8409.64 509.233   2
   1   0   4 8670.38 670.252   6
   1   0   5 12782.1 686.005   2
  -1   0  -5 13127.8 751.215   7
  -1   0  -5 14649.5 954.328   6
   1   0   5 14419.1 777.679   7
  -1   0  -5 14201.4 715.170   2
  -1   0  -6 68753.8 1895.97   7
   1   0   6 75708.0 1805.98   2
  -1   0  -6 79766.5 1805.81   2
  -1   0  -6 77297.8 2363.11   6
  -1   0  -7 5597.38 702.872   6
  -1   0  -7 4718.05 558.861   7
   1   0   7 4686.02 492.921   2
  -1   0  -8 96699.9 3228.98   5
   1   0   8 94748.3 2312.21   2
  -1   0  -8 94318.8 2598.63   7
  -1   0  -8 94967.0 3012.74   6
  -1   0  -9 18507.7 1505.79   5
  -1   0  -9 20178.4 1496.03   6
   1   0   9 18486.2 1086.77   2
  -1   0  -9 18250.5 1220.55   7
  -1   0 -10 21283.2 1609.08   6
  -1   0 -10 19401.3 1606.35   5
   1   0  10 17895.3 1128.58   2
  -1   0 -10 20992.6 1394.91   7
  -1   0 -11 11238.7 1084.15   7
  -1   0 -11 11471.1 1308.15   5
   1   0  11 11649.5 964.956   2
  -1   0 -12 8437.34 976.699   7
  -1   0 -12 6990.13 1087.01   5
   1   0  12 7280.40 803.006   2
  -1   0 -13 6979.39 968.812   7
  -1   0 -13 8290.95 1223.95   5
   1   0  13 5747.87 727.524   2
  -1   0 -14 10391.7 1229.46   7
   1   0  14 10300.8 1028.80   2
  -1   0 -14 10081.8 1387.44   5
  -1   0 -15 323.121 375.571   7
   1   0  15 789.569 348.887   2
   1   0  15 371.456 372.054   8
  -1   0 -16 3485.04 917.956   5
   1   0  16 2150.25 634.520   9
   1   0  16 3254.46 774.817   8
  -1   0 -16 1873.56 622.169   7
  -1   0 -17 7023.79 1136.56   7
   1   0  17 7164.33 1140.30   8
   1   0  17 6759.99 1187.40   9
  -1   0 -17 5620.66 1136.45   5
   1   0  18 11715.3 1615.39   9
  -1   0 -18 9740.95 1401.81   7
   1   0  18 8357.94 1264.72   8
  -1   0 -18 8707.87 1460.49   5
   1   0  19 5723.79 1107.48   8
  -1   0 -19 6070.25 1163.92   7
   1   0  19 7148.93 1303.24   9
   1   0  20 8549.04 1392.11   8
  -1   0 -20 7931.80 1356.63   7
   1   0  20 8766.06 1504.20   9
  -1   1  21 1285.16 626.508   8
   1   1 -21 1607.37 704.329   7
  -1   1  20 3644.49 956.182   8
   1   1 -20 3657.26 1016.95   7
   1   1 -19 3226.16 980.950   7
  -1   1  19 3059.56 840.480   8
   1   1 -18 3748.72 955.391   7
  -1   1  18 4225.50 949.858   8
  -1   1  17 6177.24 1080.28   8
   1   1 -17 5332.33 1044.82   7
  -1   1  16 14074.9 1537.03   8
   1   1 -16 12963.9 1560.14   7
   1   1 -15-64.2721 441.937   7
  -1   1  15-57.3063 168.479   2
  -1   1  15 414.522 342.963   8
   1   1 -15 293.315 286.009   5
  -1   1  14 1066.20 339.763   2
   1   1 -14 1284.43 424.520   5
   1   1 -14 1498.28 597.335   7
  -1   1  14 374.366 284.582   8
   1   1 -13 9035.54 962.611   5
  -1   1  13 8968.30 818.835   2
   1   1 -13 7748.52 1078.07   7
  -1   1  13 9311.27 1111.19   8
  -1   1  12 3161.66 653.114   8
  -1   1  12 3032.99 463.228   2
   1   1 -12 2830.39 534.553   5
   1   1 -12 3040.57 676.460   7
  -1   1  11 16202.1 809.183   4
   1   1 -11 19424.8 1251.47   5
  -1   1  11 21032.9 1137.15   2
  -1   1  11 17293.8 1375.36   8
   1   1 -11 16112.7 1395.44   7
  -1   1  10 19182.3 1356.88   8
  -1   1  10 19102.3 826.780   4
   1   1 -10 19559.1 1159.04   5
   1   1 -10 19823.1 1463.18   7
  -1   1  10 19132.5 1026.26   2
  -1   1   9 38115.9 1802.41   8
   1   1  -9 36522.5 1876.90   7
  -1   1   9 38289.9 1083.10   4
   1   1  -9 37337.4 1480.24   5
  -1   1   9 38434.3 1371.58   2
  -1   1   8 56446.7 1538.08   2
  -1   1   8 58405.7 2111.30   8
   1   1  -8 53893.9 1593.19   5
   1   1  -8 51206.1 2105.59   7
  -1   1   8 53393.3 1175.28   4
   1   1  -7 46180.4 1292.25   5
   1   1  -7 43418.6 1818.19   7
  -1   1   7 46524.3 1292.53   2
  -1   1   7 44629.9 994.351   4
  -1   1   7 45795.9 1759.22   8
   1   1  -6 84132.4 2083.03   3
  -1   1   6 85750.9 1249.37   4
   1   1  -6 84493.3 1477.24   5
   1   1  -6 83463.1 2377.80   7
  -1   1   6 86338.7 2252.83   8
   1   1  -5 58152.0 1665.83   3
  -1   1   5 59143.9 1031.18   3
  -1   1   5 59398.5 984.861   4
  -1   1   5 57151.9 1737.05   8
   1   1  -5 63698.2 1919.47   7
  -1   1   4 6107.50 642.873   5
   1   1  -4 5133.02 510.516   7
  -1   1   4 6007.53 524.558   8
  -1   1   4 6109.63 323.415   4
   1   1  -4 6079.40 511.293   3
  -1   1   4 6172.35 348.286   3
  -1   1   3 27156.9 785.624   3
   1   1  -3 28450.4 1079.10   2
  -1   1   3 28057.2 1045.74   8
   1   1  -3 29148.9 1090.59   7
  -1   1   3 28634.6 1066.62   1
   1   1  -3 27526.0 1039.92   3
   1   1  -2 28552.4 1026.72   3
  -1   1   2 29304.1 885.037   2
  -1   1   2 27676.1 979.130   1
  -1   1   2 29295.3 1031.07   8
   1   1  -2 27123.4 937.639   7
  -1   1   2 29139.8 901.546   3
   1   1  -2 29551.8 997.068   2
  -1   1   1 671.363 161.731   2
   1   1  -1 732.472 150.460   2
  -1   1   1 622.807 180.482   8
   1   1  -1 801.644 168.338   9
   1   1  -1 942.110 163.558   7
  -1   1   1 572.541 160.788   1
   1   1  -1 901.625 205.971   3
  -1   1   0 186226. 2514.26   8
   1   1   0 186789. 2558.36   3
  -1   1   0 191303. 2419.40   2
   1   1   0 193320. 2339.71   9
   1   1   0 186291. 2390.81   4
  -1   1   0 186554. 2330.06   6
   1   1   1 144348. 2290.73   3
   1   1   1 147870. 1579.29   6
   1   1   1 146514. 2207.63   9
  -1   1  -1 151627. 2303.00   2
  -1   1  -1 145468. 2173.99   6
   1   1   1 147705. 1955.81   4
   1   1   2 254086. 2385.07   4
   1   1   2 259239. 3171.86   3
   1   1   2 250502. 3153.58   9
   1   1   2 257102. 2467.25   6
  -1   1  -2 252519. 3167.47   6
   1   1   2 254896. 2873.56   1
  -1   1  -2 260978. 3223.11   2
   1   1   3 49738.6 1356.90   1
   1   1   3 49694.4 1276.84   6
  -1   1  -3 49651.7 1492.46   2
   1   1   3 48365.2 1524.50   9
  -1   1  -3 47294.7 1511.13   6
  -1   1  -3 50262.9 1509.66   7
   1   1   3 49701.1 1466.71   3
   1   1   3 49129.6 1006.20   4
   1   1   3 49786.8 917.636   8
   1   1   4 24999.5 785.628   8
   1   1   4 25191.7 1052.12   6
   1   1   4 24199.6 1019.40   1
   1   1   4 23793.7 1150.32   9
  -1   1  -4 23943.4 1188.61   6
  -1   1  -4 24643.9 1124.30   7
   1   1   4 24040.5 1086.25   3
   1   1   4 23515.5 693.622   4
   1   1   5 48634.5 1015.54   4
  -1   1  -5 47555.1 1795.43   6
   1   1   5 53045.6 1866.34   9
   1   1   5 48577.6 1275.72   8
  -1   1  -5 50326.0 1733.59   7
   1   1   5 46628.9 790.039   2
  -1   1  -6 26282.1 1335.59   7
  -1   1  -6 26465.0 1444.50   6
   1   1   6 26152.7 1411.94   9
   1   1   6 24611.6 675.293   2
   1   1   6 26562.5 794.219   4
   1   1   6 24485.0 1019.47   8
  -1   1  -7 1345.13 353.361   7
  -1   1  -7 2928.06 558.524   6
   1   1   7 2739.84 280.909   4
   1   1   7 2317.93 250.910   2
   1   1   7 1608.45 320.996   8
   1   1   7 2410.46 505.477   9
  -1   1  -8 1405.29 458.993   6
   1   1   8 1476.67 227.632   4
  -1   1  -8 1348.80 398.281   7
   1   1   8 1278.06 214.224   2
   1   1   8 973.232 263.180   8
   1   1   9 1393.34 339.128   8
   1   1   9 1400.86 247.992   2
  -1   1  -9 914.635 366.420   6
   1   1   9 1656.60 256.989   4
  -1   1  -9 1354.88 404.154   7
   1   1  10 8886.34 610.044   4
   1   1  10 8018.71 595.552   2
  -1   1 -10 10689.4 1204.66   6
   1   1  10 8768.96 860.581   8
  -1   1 -10 9396.86 1020.62   7
  -1   1 -11 6504.42 983.825   6
   1   1  11 5957.81 522.798   4
   1   1  11 8558.80 899.718   8
   1   1  11 6217.54 563.831   2
  -1   1 -11 5361.13 805.555   7
   1   1  12 15705.7 1271.49   8
   1   1  12 14506.8 905.638   2
   1   1  12 14825.0 860.269   4
  -1   1 -12 15733.6 1446.28   7
  -1   1 -12 15102.8 1463.52   5
   1   1  13 25646.2 2019.80   9
   1   1  13 22642.9 1188.74   2
  -1   1 -13 27099.0 2020.32   5
   1   1  13 23877.9 1655.57   8
  -1   1 -13 25778.3 1908.06   7
  -1   1 -14 10960.2 1329.67   7
   1   1  14 13827.6 1317.97   8
   1   1  14 11531.2 1446.26   9
  -1   1 -14 12016.6 1400.18   5
   1   1  15 12274.4 1522.41   9
  -1   1 -15 13243.8 1540.56   5
  -1   1 -15 12244.7 1450.64   7
   1   1  15 14068.9 1406.53   8
   1   1  16 8701.29 1351.88   9
  -1   1 -16 9878.43 1367.11   5
   1   1  16 9010.01 1170.94   8
  -1   1 -16 7956.61 1220.10   7
  -1   1 -17 2252.43 720.287   7
   1   1  17 2806.04 732.890   8
  -1   1 -18-497.813 465.536   7
   1   1  18-229.341 407.767   8
   1   1  18 588.412 573.723   9
   1   1  19 75.1489 349.729   9
  -1   1 -19 174.055 374.861   7
  -1   1 -20 212.569 377.042   7
   1   1  20 218.338 433.540   9
  -1   2  20 806.163 599.917   8
   1   2 -20 1360.25 648.180   7
  -1   2  19-66.9206 442.934   8
   1   2 -19-525.224 498.667   7
  -1   2  18 8.18168 315.915   8
   1   2 -18 1422.41 633.030   7
   1   2 -17 1152.61 531.162   7
  -1   2  17 2417.08 722.424   8
  -1   2  16 6939.34 1100.12   8
   1   2 -16 8090.03 1294.72   7
  -1   2  15 13765.6 1476.60   8
   1   2 -15 14027.2 1374.00   3
   1   2 -15 11255.9 1479.49   7
   1   2 -14 5873.72 901.084   3
   1   2 -14 6864.30 1114.21   7
  -1   2  14 7588.90 1050.79   8
  -1   2  13 12219.7 1283.18   8
   1   2 -13 15209.1 1378.35   3
   1   2 -13 13789.8 1505.11   7
  -1   2  12 31396.9 1953.49   8
   1   2 -12 30914.4 1396.99   5
  -1   2  12 30288.5 1208.96   2
   1   2 -12 29384.9 1863.65   3
   1   2 -12 27964.2 2043.48   7
  -1   2  11 6452.44 539.966   2
   1   2 -11 5644.18 894.378   7
   1   2 -11 6372.27 600.099   5
  -1   2  11 7080.40 904.051   8
   1   2 -11 7084.85 898.847   3
   1   2 -10 5663.87 524.163   5
  -1   2  10 6692.45 843.119   8
   1   2 -10 4614.38 718.611   3
   1   2 -10 4494.64 797.528   7
  -1   2  10 5787.87 487.883   2
   1   2  -9 2171.24 534.206   7
   1   2  -9 2235.23 306.483   5
   1   2  -9 2183.24 500.676   3
  -1   2   9 2070.93 280.527   2
  -1   2   9 2682.28 509.691   8
  -1   2   8 2865.07 505.368   8
   1   2  -8 2621.40 568.368   7
  -1   2   8 2783.47 369.239   3
   1   2  -8 2664.72 299.769   5
   1   2  -8 2581.28 516.096   3
  -1   2   7 10474.1 894.004   8
   1   2  -7 10437.9 1011.56   7
  -1   2   7 8524.87 619.948   3
   1   2  -7 7488.59 828.606   3
  -1   2   6 1743.57 247.873   2
  -1   2   6 1510.23 371.411   8
   1   2  -6 1631.03 413.716   7
   1   2  -6 1329.15 374.288   3
  -1   2   6 1306.75 260.878   3
   1   2  -5 49295.8 1983.57   3
  -1   2   5 49558.0 1529.69   3
  -1   2   5 49817.7 1324.19   2
  -1   2   5 47384.4 1753.75   8
   1   2  -5 48101.3 1935.76   7
   1   2  -4 16212.3 675.750   5
  -1   2   4 14441.9 859.599   3
   1   2  -4 16356.2 1078.83   7
  -1   2   4 15027.4 745.020   2
  -1   2   4 15075.5 978.583   8
   1   2  -4 15478.6 1087.23   3
   1   2  -3 52340.2 1807.20   7
  -1   2   3 50849.7 1665.12   3
   1   2  -3 57123.9 1416.62   5
  -1   2   3 51207.1 1403.08   2
   1   2  -3 52481.4 1941.22   3
  -1   2   3 52236.4 1746.11   8
   1   2  -2 139374. 3106.91   3
  -1   2   2 140785. 2424.79   2
  -1   2   2 139828. 2841.33   8
  -1   2   2 136484. 2855.97   3
   1   2  -2 140125. 2459.26   5
  -1   2   1 53469.5 1575.57   2
   1   2  -1 54625.2 1593.24   2
  -1   2   1 52805.9 1361.36   6
   1   2  -1 55408.7 1706.58   5
  -1   2   1 55674.3 1758.74   8
   1   2  -1 57167.0 1955.24   3
   1   2  -1 55277.8 1493.24   9
  -1   2   1 53767.1 1870.56   3
   1   2   0 18293.2 1092.97   3
  -1   2   0 15681.3 948.764   8
   1   2   0 18097.9 1074.32   5
  -1   2   0 17323.8 543.892   9
  -1   2   0 17774.1 807.391   6
   1   2   0 16900.0 852.986   9
   1   2   0 17121.9 828.428   2
  -1   2  -1 22988.3 980.235   6
   1   2   1 26010.5 1292.78   3
   1   2   1 26316.8 1134.75   9
   1   2   1 24667.1 895.781   2
   1   2   2 17164.5 1039.42   3
   1   2   2 15638.9 466.781   6
  -1   2  -2 15883.9 879.089   6
   1   2   2 16110.4 950.259   9
   1   2   2 16250.3 697.007   8
   1   2   2 16524.0 628.376   2
  -1   2  -3 23288.6 1150.93   6
   1   2   3 24834.0 887.266   8
   1   2   3 23441.1 1219.89   3
   1   2   3 25597.6 785.849   6
   1   2   3 24421.8 1237.19   9
   1   2   4 5843.46 655.241   9
   1   2   4 5330.66 436.123   6
  -1   2  -4 6282.24 656.945   6
   1   2   4 5675.55 446.597   8
   1   2   4 5906.38 627.699   3
  -1   2  -5 13547.5 1077.97   7
   1   2   5 14497.8 997.130   3
  -1   2  -5 12835.4 996.770   6
   1   2   5 12543.8 772.856   6
   1   2   5 12754.2 1019.84   9
   1   2   5 12925.7 716.836   8
   1   2   6 70086.1 1773.37   8
  -1   2  -6 71100.8 2537.36   7
  -1   2  -6 69668.1 2472.35   6
   1   2   6 72734.9 2561.76   9
   1   2   6 73342.5 2284.04   3
   1   2   7 80047.3 2857.62   9
  -1   2  -7 85608.3 2904.94   6
  -1   2  -7 81258.2 2841.99   7
   1   2   7 81923.2 2066.36   8
   1   2   7 83924.7 2518.73   3
  -1   2  -8 16195.6 1355.33   6
   1   2   8 16217.5 995.768   8
   1   2   8 17782.9 1409.71   9
  -1   2  -8 16464.7 1338.44   7
  -1   2  -9 14097.3 1312.84   7
  -1   2  -9 13631.4 1303.60   6
   1   2   9 15137.9 1027.34   8
   1   2   9 13350.8 1304.86   9
  -1   2 -10 16728.4 1542.38   6
  -1   2 -10 14896.8 1393.98   7
   1   2  10 16777.3 1533.15   9
   1   2  10 18732.2 1216.32   8
   1   2  11 14813.9 1488.41   9
  -1   2 -11 15036.8 1448.07   7
   1   2  11 13991.1 1123.15   8
  -1   2 -11 18630.4 1680.72   6
  -1   2 -12 12119.3 1383.31   7
  -1   2 -12 13503.7 1503.82   6
   1   2  12 12341.0 1435.46   9
   1   2  12 10610.4 1030.82   8
   1   2  13 346.574 318.358   8
  -1   2 -13 726.128 521.715   7
   1   2  13 390.314 429.737   9
  -1   2 -14 3884.08 899.461   7
  -1   2 -14 3327.58 734.513   5
   1   2  14 3211.95 813.929   9
   1   2  14 3770.40 713.758   8
   1   2  15 1457.70 641.823   9
  -1   2 -15 2376.00 744.058   7
   1   2  15 2231.18 552.448   8
  -1   2 -16 3820.74 903.746   7
   1   2  16 2222.68 813.272   9
   1   2  17 2864.88 880.166   9
  -1   2 -17 2465.03 846.464   7
   1   2  18 2124.01 748.524   9
  -1   2 -18 3435.47 896.098   7
   1   2  19 4236.25 1104.90   9
  -1   2 -19 2335.62 863.052   7
  -1   2 -20 4449.03 1164.97   7
   1   3 -19 2951.04 959.092   7
  -1   3  18 3914.75 1079.04   9
   1   3 -18 3329.78 1007.05   7
  -1   3  17 2596.72 747.200   8
   1   3 -17 2784.56 865.642   7
   1   3 -16 1270.41 645.665   7
   1   3 -16 2053.02 663.349   3
  -1   3  16 601.192 374.954   8
   1   3 -15 406.414 493.046   7
  -1   3  15 360.951 398.164   8
   1   3 -15 482.581 398.040   3
   1   3 -14 711.521 396.275   3
   1   3 -14 616.426 520.521   7
  -1   3  14 393.104 331.837   8
   1   3 -13-323.919 365.487   3
   1   3 -13 327.473 373.162   7
  -1   3  13 322.174 347.730   8
   1   3 -12 12851.4 1497.08   7
  -1   3  12 14744.7 1394.92   8
   1   3 -12 15190.7 1538.89   3
  -1   3  11 1979.67 527.997   8
  -1   3  11 2533.74 456.117   3
   1   3 -11 1621.14 524.263   3
   1   3 -11 1614.83 572.214   7
  -1   3  10 11656.5 936.209   3
   1   3 -10 12112.0 1316.16   3
  -1   3  10 12036.4 581.184   2
  -1   3  10 11655.8 1155.79   8
   1   3 -10 12462.4 1389.78   7
   1   3  -9 21222.1 1725.50   7
  -1   3   9 19323.9 1181.96   3
  -1   3   9 20099.4 1461.95   8
   1   3  -9 17875.1 1570.48   3
  -1   3   8 13729.1 999.782   3
  -1   3   8 10938.2 646.069   2
   1   3  -8 12832.7 1302.96   7
  -1   3   8 12272.7 1106.91   8
   1   3  -8 10744.2 1223.58   3
  -1   3   7 29824.7 1111.90   2
   1   3  -7 32187.5 2009.73   3
  -1   3   7 30715.8 1501.37   3
  -1   3   7 31520.6 1713.27   8
   1   3  -7 26737.3 1802.70   7
  -1   3   6 29574.8 1156.54   2
  -1   3   6 29684.2 1503.23   3
   1   3  -6 31693.8 1219.73   5
  -1   3   6 31172.0 1657.16   8
   1   3  -6 26846.5 1796.11   3
   1   3  -6 27191.8 1728.98   7
  -1   3   5 2525.57 487.714   8
   1   3  -5 2383.17 567.562   3
  -1   3   5 2197.51 426.555   3
   1   3  -5 2788.59 552.016   7
   1   3  -5 2546.29 367.259   5
  -1   3   4 4249.94 559.599   9
  -1   3   4 4064.90 592.061   3
  -1   3   4 4938.24 653.023   8
   1   3  -4 4801.67 540.636   5
   1   3  -4 4660.50 751.935   3
  -1   3   3 6.57620 110.544   9
  -1   3   3 336.911 207.501   8
  -1   3   3 30.5761 166.389   3
  -1   3   3 314.659 146.378   6
   1   3  -3 493.238 310.182   3
  -1   3   2 1048.47 261.594   9
  -1   3   2 771.702 304.320   3
  -1   3   2 1058.78 218.476   6
   1   3  -2 1065.16 378.561   3
  -1   3   2 1522.71 392.254   8
   1   3  -1 16263.6 1288.28   3
  -1   3   1 16477.3 807.974   9
  -1   3   1 15800.8 780.023   6
  -1   3   1 19394.6 1242.96   8
  -1   3   1 19606.0 1388.77   3
   1   3  -1 17213.0 970.466   9
  -1   3   0 7215.69 555.411   6
   1   3   0 6304.83 794.404   3
  -1   3   0 7009.15 458.807   9
  -1   3   0 6787.26 848.198   3
   1   3   0 6079.67 607.480   9
   1   3   1 11362.6 860.060   9
  -1   3  -1 10035.5 701.325   6
   1   3   1 11035.7 1040.40   3
  -1   3  -1 11018.9 1120.06   3
  -1   3  -1 10504.4 460.529   9
  -1   3  -2 87035.0 2210.39   6
   1   3   2 85461.6 2464.96   9
  -1   3  -2 89155.4 3195.21   3
   1   3   2 84892.8 2817.51   3
   1   3   2 88515.8 2002.00   2
   1   3   3 67550.3 2292.85   9
  -1   3  -3 68203.3 2127.86   6
   1   3   3 67672.9 1559.94   2
   1   3   3 67305.1 2485.48   3
   1   3   4 3415.00 576.356   3
  -1   3  -4 4492.62 594.831   6
   1   3   4 5223.70 698.709   9
   1   3   4 3888.83 460.932   8
   1   3   4 4558.91 343.457   2
   1   3   4 4121.28 307.335   6
   1   3   5 35543.3 1122.40   6
  -1   3  -5 34731.6 1725.45   6
   1   3   5 34585.2 1381.50   8
   1   3   5 34148.8 1763.57   3
   1   3   5 36535.8 1877.79   9
   1   3   6 14863.4 849.702   6
  -1   3  -6 16182.5 1263.06   6
   1   3   6 14834.5 1255.91   9
   1   3   6 15294.6 952.861   8
   1   3   6 13708.0 1132.45   3
   1   3   7 7215.34 942.098   9
  -1   3  -7 6884.06 862.041   6
   1   3   7 7201.50 684.792   8
   1   3   7 7607.69 871.506   3
  -1   3  -8 3122.80 644.882   6
   1   3   8 3599.94 516.898   8
   1   3   8 1995.15 468.732   3
   1   3   8 3446.71 734.443   9
  -1   3  -9 12566.2 1364.05   7
   1   3   9 10735.5 1074.23   3
  -1   3  -9 9774.36 1174.26   6
   1   3   9 11166.2 1266.17   9
   1   3   9 9573.55 859.073   8
  -1   3 -10 45288.9 2643.13   7
   1   3  10 45392.8 2639.35   9
  -1   3 -10 48339.4 2671.41   6
   1   3  10 45956.9 1955.39   8
  -1   3 -11 1553.31 576.560   6
   1   3  11 2715.09 741.372   9
   1   3  11 2194.98 466.327   8
  -1   3 -11 2402.33 669.201   7
  -1   3 -12 12061.7 1482.26   7
   1   3  12 11518.6 1451.86   9
   1   3  12 12474.4 1128.42   8
  -1   3 -13 3908.32 911.140   7
   1   3  13 2669.23 749.537   9
  -1   3 -14 4595.36 1007.85   7
   1   3  14 6639.85 1238.71   9
   1   3  15 4574.05 1084.57   9
  -1   3 -15 3992.14 993.894   7
   1   3  16 5759.98 1232.02   9
  -1   3 -16 4800.19 1105.03   7
   1   3  17 1363.32 808.123   9
  -1   3 -17 196.519 491.552   7
  -1   3 -18-378.651 386.879   7
  -1   4  17-36.1344 561.124   9
   1   4 -17 142.232 352.314   7
   1   4 -16 3252.04 870.030   3
  -1   4  16 1311.01 774.394   9
   1   4 -16 2486.00 853.159   7
   1   4 -15 2533.05 910.325   7
   1   4 -15 4822.69 1029.80   3
  -1   4  14 2755.38 836.636   9
   1   4 -14 3312.30 873.123   3
  -1   4  14 3647.37 793.327   8
   1   4 -14 3706.00 972.871   7
   1   4 -13 8165.53 1287.66   3
  -1   4  13 7592.72 1095.99   8
  -1   4  13 7226.55 1265.42   9
   1   4 -13 7377.84 1301.15   7
  -1   4  12 5504.17 1055.70   9
   1   4 -12 7873.02 1268.91   7
  -1   4  12 8255.03 1120.78   8
   1   4 -12 7338.21 1226.06   3
  -1   4  11 735.167 450.891   9
   1   4 -11 388.136 366.937   3
   1   4 -11 499.467 464.501   7
  -1   4  11 620.839 376.156   8
   1   4 -10 5163.52 973.976   3
  -1   4  10 6604.46 844.881   3
  -1   4  10 5516.18 976.379   9
  -1   4  10 5055.80 836.129   8
   1   4 -10 4903.09 978.635   7
   1   4  -9 1658.33 617.919   7
   1   4  -9 1667.89 607.572   3
  -1   4   9 1464.96 437.278   3
  -1   4   9 1262.00 484.013   9
  -1   4   9 1696.75 517.093   8
  -1   4   8 3835.51 745.468   9
  -1   4   8 2536.93 525.295   3
   1   4  -8 2419.95 693.017   3
  -1   4   8 3346.72 650.816   8
  -1   4   7 5636.45 785.076   3
  -1   4   7 3591.30 673.430   9
   1   4  -7 5802.03 1006.04   3
  -1   4   7 5625.16 824.418   8
  -1   4   6 3068.35 610.167   9
   1   4  -6 3346.01 757.421   3
  -1   4   6 3942.92 695.229   3
  -1   4   6 3994.40 694.667   8
  -1   4   5 11327.3 1040.15   9
   1   4  -5 13008.1 1435.58   3
  -1   4   5 11819.2 751.629   6
  -1   4   5 12270.2 1161.50   8
  -1   4   5 10099.8 1117.04   3
   1   4  -4 19612.4 1706.53   3
  -1   4   4 19438.6 899.336   6
  -1   4   4 18833.5 1256.46   9
  -1   4   4 18615.3 1404.11   8
  -1   4   4 20883.2 1588.18   3
  -1   4   3 21198.3 1638.58   3
  -1   4   3 19842.7 857.717   6
  -1   4   3 20027.4 1197.12   9
  -1   4   3 19892.9 1433.53   8
   1   4  -3 21629.3 1768.27   3
   1   4  -2 37904.5 2327.15   3
  -1   4   2 34386.1 1127.45   6
  -1   4   2 36293.1 2184.95   3
  -1   4   2 35516.2 1468.76   9
  -1   4   1 14006.9 856.265   9
   1   4  -1 13367.6 1359.83   3
  -1   4   1 15445.6 1453.20   3
  -1   4   1 14286.7 760.240   6
   1   4  -1 13164.8 965.406   9
  -1   4   0 4058.84 443.732   6
  -1   4   0 4879.54 851.940   3
   1   4   0 4591.93 816.422   3
  -1   4   0 4114.01 412.371   9
   1   4   0 4178.22 566.209   9
  -1   4  -1 4352.09 853.415   3
   1   4   1 4737.01 827.899   3
  -1   4  -1 4447.16 378.442   9
   1   4   1 5238.78 659.929   9
  -1   4  -1 4291.56 492.304   6
  -1   4  -2 951.888 278.420   6
   1   4   2 679.124 403.182   3
  -1   4  -2 526.062 371.406   3
   1   4   2 1133.00 324.934   9
  -1   4  -3 2153.21 648.604   3
   1   4   3 2332.67 490.409   9
  -1   4  -3 2853.54 476.836   6
   1   4   3 3336.28 674.689   3
   1   4   4 14509.2 1244.71   9
  -1   4  -4 15287.9 1603.25   3
  -1   4  -4 15252.8 1133.80   6
   1   4   4 15040.2 1362.31   3
   1   4   5 12886.4 1277.75   3
   1   4   5 14293.6 1282.74   9
  -1   4  -5 15141.2 1203.13   6
  -1   4  -5 14550.0 1587.79   3
   1   4   5 12348.9 955.442   8
   1   4   6 17930.5 1488.75   3
  -1   4  -6 20900.9 1956.37   3
   1   4   6 21371.7 1639.23   9
  -1   4  -6 19933.4 1466.09   6
   1   4   6 21520.4 1270.30   8
   1   4   7 8627.59 826.374   8
  -1   4  -7 8220.95 1002.29   6
   1   4   7 7828.23 1039.48   9
  -1   4  -7 9827.56 1370.39   3
   1   4   7 9720.04 1115.01   3
   1   4   8 2689.82 687.579   9
  -1   4  -8 1837.57 554.583   6
   1   4   8 2664.20 485.197   8
  -1   4  -8 3074.59 827.851   3
   1   4   8 2964.77 645.068   3
  -1   4  -9 15759.0 1538.08   6
   1   4   9 13780.2 1507.85   9
   1   4   9 14904.5 1398.81   3
  -1   4  -9 10330.4 1458.44   3
   1   4   9 14911.3 1153.53   8
   1   4  10 5103.78 982.772   9
   1   4  10 5470.17 895.302   3
  -1   4 -10 6323.20 1039.21   6
  -1   4 -10 4190.74 921.949   3
   1   4  11 6386.16 1138.45   9
   1   4  11 5497.13 878.462   3
  -1   4 -11 2995.42 860.861   3
  -1   4 -12 4591.28 1018.89   3
   1   4  12 3502.94 883.328   9
   1   4  13 973.118 503.368   9
  -1   4 -13 1032.64 611.689   3
   1   4  14 391.593 582.620   9
  -1   4 -14 574.472 403.400   3
  -1   4 -15 755.530 553.666   3
   1   4  15 2320.98 845.352   9
  -1   4 -16 2527.23 920.201   3
   1   4  16 1209.06 663.740   9
  -1   4 -17 1499.94 782.838   3
   1   5 -16 559.686 557.687   3
   1   5 -15 1124.24 604.310   3
  -1   5  15 1107.86 700.293   9
   1   5 -14 1154.60 551.458   3
  -1   5  14-631.088 550.144   9
  -1   5  13 216.104 490.607   9
   1   5 -13-389.929 435.164   3
   1   5 -12 1443.13 684.809   3
  -1   5  12 1031.86 618.768   9
  -1   5  11 991.596 456.546   8
  -1   5  11 2166.80 700.276   9
   1   5 -11 2913.36 892.028   3
  -1   5  10 3154.20 814.571   9
  -1   5  10 2960.25 655.919   3
   1   5 -10 2409.95 789.656   3
  -1   5  10 2540.50 656.018   8
  -1   5   9 6072.91 946.586   3
   1   5  -9 4903.55 1078.82   3
  -1   5   9 7638.81 1072.98   8
  -1   5   9 5783.49 983.570   9
  -1   5   8 13171.7 1355.09   3
  -1   5   8 12819.1 1377.87   9
   1   5  -8 10159.9 1503.26   3
  -1   5   8 12996.0 1376.44   8
   1   5  -7 9949.86 1466.29   3
  -1   5   7 6009.78 967.594   3
  -1   5   7 6298.67 923.764   9
  -1   5   7 6397.31 964.138   8
   1   5  -6 5550.27 1087.27   3
  -1   5   6 5338.63 806.171   9
  -1   5   6 4733.07 821.474   8
  -1   5   6 4176.72 795.026   3
  -1   5   5 4361.36 839.623   3
   1   5  -5 4414.20 952.412   3
  -1   5   5 5726.21 879.193   8
  -1   5   5 5106.16 751.572   9
   1   5  -4 3698.80 868.856   3
  -1   5   4 4311.73 668.242   9
  -1   5   4 3464.02 771.095   3
  -1   5   3-104.196 332.630   3
  -1   5   3 402.076 214.441   9
   1   5  -3-101.163 374.292   3
   1   5  -2 2607.54 731.744   3
  -1   5   2 1238.71 482.072   3
  -1   5   2 3206.77 494.243   9
  -1   5   1 11202.6 1405.31   3
  -1   5   1 11211.1 831.184   9
   1   5  -1 13542.4 1590.15   3
   1   5   0 21104.8 1947.00   3
   1   5   0 20769.2 1370.32   9
  -1   5   0 20945.0 1959.55   3
   1   5   1 23514.1 2031.38   3
   1   5   1 21358.0 1443.48   9
  -1   5  -1 22264.0 2051.76   3
   1   5   2 6738.50 851.565   9
  -1   5  -2 7055.23 1193.81   3
   1   5   2 6462.71 1070.69   3
  -1   5  -3 5456.03 665.014   6
   1   5   3 5451.06 807.237   9
  -1   5  -3 5194.59 1070.72   3
   1   5   3 6648.86 1074.92   3
   1   5   4 3623.63 686.326   9
  -1   5  -4 4975.00 1060.74   3
  -1   5  -4 2778.67 523.559   6
   1   5   4 4587.79 902.800   3
   1   5   5 6894.85 985.481   9
   1   5   5 5534.86 977.102   3
  -1   5  -5 5846.69 1182.80   3
  -1   5  -5 4342.27 692.392   6
  -1   5  -6 1845.68 682.131   3
   1   5   6 2086.87 653.135   3
  -1   5  -6 1825.75 498.248   6
   1   5   6 2514.04 645.834   9
   1   5   7 998.154 486.883   3
  -1   5  -7 605.762 529.148   3
   1   5   7 395.965 308.257   9
  -1   5  -7 266.209 283.429   6
  -1   5  -8 1127.17 559.707   3
   1   5   8 581.148 418.873   3
   1   5   8 639.044 407.430   9
  -1   5  -9 451.454 517.809   3
   1   5   9 331.471 297.499   3
   1   5   9 439.118 407.023   9
   1   5  10 2235.13 642.753   3
   1   5  10 2646.60 790.564   9
   1   5  11 577.640 459.701   9
   1   5  11 1709.95 562.786   3
  -1   5 -11 1012.23 559.783   3
   1   5  12 2198.74 797.645   9
  -1   5 -12 1041.18 657.755   3
  -1   5 -13 1892.22 824.838   3
   1   5  13 2918.57 905.038   9
   1   5  14 2694.50 907.709   9
  -1   5 -14 5560.19 1285.25   3
  -1   5 -15 2361.42 962.567   3
  -1   6  14 2166.99 771.493   9
  -1   6  13 929.634 582.620   9
   1   6 -13 1449.16 764.357   3
  -1   6  12 713.035 531.017   9
   1   6 -12 900.277 685.064   3
  -1   6  11 2170.08 758.688   9
   1   6 -11 1866.39 727.021   3
  -1   6  10 1037.16 522.649   9
   1   6 -10 2264.33 884.308   3
   1   6  -9 1244.45 611.122   3
  -1   6   9 584.207 385.974   9
  -1   6   8 1430.24 569.879   9
  -1   6   8 798.910 427.341   3
  -1   6   8 533.368 411.773   8
   1   6  -8 592.809 414.935   3
   1   6  -7 221.268 415.425   3
  -1   6   7 92.5912 279.959   3
  -1   6   6 1588.93 649.024   3
   1   6  -6 3778.65 1003.93   3
   1   6  -5 4623.01 1101.83   3
  -1   6   5 8165.74 1282.61   3
  -1   6   4 4730.21 1043.41   3
   1   6  -4 2840.24 841.397   3
  -1   6   3 3089.01 859.185   3
   1   6  -3 4931.77 1120.14   3
  -1   6   2 5181.32 1077.93   3
   1   6  -2 5224.66 1117.70   3
  -1   6   1 258.454 407.729   3
   1   6  -1 317.127 449.158   3
   1   6   0 790.864 584.074   3
  -1   6   0 290.566 331.581   3
   1   6   1 4617.17 1065.47   3
  -1   6  -1 3506.12 970.138   3
   1   6   2 945.277 587.264   3
  -1   6  -2 178.840 366.960   3
   1   6   3 1197.58 443.727   9
  -1   6  -3 1023.26 527.151   3
   1   6   3 781.106 481.416   3
   1   6   4 265.857 363.534   3
   1   6   4 508.737 348.889   9
  -1   6  -4 136.233 526.284   3
   1   6   5 2158.82 696.883   3
  -1   6  -5 3784.45 1065.69   3
   1   6   5 2713.72 688.556   9
   1   6   6 2485.11 753.906   3
  -1   6  -6 1693.69 810.655   3
   1   6   6 2990.66 727.760   9
   1   6   7-273.778 471.118   3
  -1   6  -7 987.978 656.740   3
   1   6   7 605.535 427.087   9
   1   6   8 3489.87 885.548   3
   1   6   8 4917.30 990.827   9
  -1   6  -8 4271.77 1143.12   3
   1   6   9 811.701 493.327   9
   1   6   9 1992.16 716.272   3
  -1   6  -9 1406.45 786.048   3
   1   6  10 2391.53 811.688   9
  -1   6 -10 2932.72 971.037   3
   1   6  10 2059.40 719.475   3
  -1   6 -11 135.042 510.627   3
   1   6  11 1502.94 638.362   9
   1   6  12 433.278 459.763   9
  -1   7   7 783.043 546.691   3
   1   7  -6-276.423 758.851   3
  -1   7   6 279.959 391.228   3
  -1   7   5 1074.30 607.387   3
   1   7  -5 1190.35 769.968   3
  -1   7   4 576.790 579.792   3
   1   7  -4-180.505 488.118   3
   1   7  -3-172.926 470.157   3
  -1   7   3 160.219 430.054   3
   1   7  -2-552.798 587.371   3
  -1   7   2 71.2723 537.953   3
  -1   7   1 1301.56 712.080   3
   1   7  -1 38.4964 535.729   3
   1   7   0 1340.35 698.909   3
  -1   7   0-121.029 497.654   3
   1   7   1 2473.78 927.172   3
  -1   7  -1-853.943 612.229   3
   1   7   2 2558.07 923.807   3
  -1   7  -2 3206.75 1011.24   3
  -1   7  -3 2821.57 937.019   3
   1   7   3 2508.67 842.736   3
  -1   7  -4 1375.09 819.849   3
   1   7   4 2433.36 864.873   3
   1   7   5 1009.79 617.685   3
  -1   7  -5 2516.16 1000.84   3
   1   7   6 1086.97 690.541   3
   1   7   7-358.886 480.457   3
   1   7   8 80.2178 506.433   3
  -2  -7   8-124.837 468.040   2
  -2  -7   7-306.178 524.067   2
  -2  -7   6-797.481 488.396   1
   2  -7  -6 710.600 561.230   1
  -2  -7   6 315.795 546.125   2
  -2  -7   5 1120.64 600.160   2
   2  -7  -5 882.612 534.401   1
  -2  -7   5 394.257 513.030   1
  -2  -7   4 841.946 561.158   2
   2  -7  -4 214.156 444.946   1
  -2  -7   4 1037.61 697.641   1
   2  -7  -3 2569.15 883.903   1
  -2  -7   3 1269.60 637.721   1
   2  -7  -2 794.125 485.260   1
  -2  -7   2 2255.59 775.047   1
   2  -7  -1 1691.72 729.282   1
  -2  -7   1 3123.47 994.954   1
   2  -7   0 2492.04 804.239   2
  -2  -7   0 3664.81 1051.33   1
   2  -7   0 3910.81 1040.09   1
  -2  -7  -1 1407.23 734.519   1
   2  -7   1 1581.91 645.109   1
   2  -7   1 2553.01 806.516   2
   2  -7   2 729.450 533.823   2
   2  -7   2 747.006 573.709   1
  -2  -7  -2 413.919 487.834   1
  -2  -7  -3 429.580 463.621   1
   2  -7   3 999.026 542.161   1
   2  -7   3 1563.83 677.821   2
   2  -7   4 873.156 573.726   2
  -2  -7  -4 639.352 517.446   1
   2  -7   4-252.110 434.771   1
  -2  -7  -5-415.468 492.016   1
   2  -7   5-799.155 573.789   1
   2  -7   5 172.217 520.569   2
   2  -7   6-356.987 475.118   2
  -2  -7  -6 297.724 506.368   1
   2  -7   6-615.374 708.062   1
   2  -6 -13 495.952 464.469   7
   2  -6 -12-419.840 454.603   7
   2  -6 -12 759.733 702.987   1
  -2  -6  12-416.635 555.734   2
   2  -6 -11 337.717 576.526   1
  -2  -6  11-430.667 640.458   2
  -2  -6  10 1514.71 687.202   2
   2  -6 -10 388.774 492.026   1
  -2  -6   9 1412.38 628.202   2
   2  -6  -9 2110.24 878.551   1
  -2  -6   8 1016.17 536.025   2
   2  -6  -8 2840.66 893.891   1
   2  -6  -7 3527.94 906.373   1
  -2  -6   7 5509.63 1131.36   2
   2  -6  -6 2103.79 706.361   1
  -2  -6   6 3625.87 935.186   2
  -2  -6   5 3210.69 872.618   2
   2  -6  -5 2636.94 835.825   1
  -2  -6   4 1743.13 629.048   2
   2  -6  -4 1698.68 653.137   1
   2  -6  -3 1593.18 660.625   1
  -2  -6   3 376.353 418.915   1
  -2  -6   3 1285.84 562.422   2
   2  -6  -3 1381.44 499.346   2
   2  -6  -2 1103.92 642.473   1
  -2  -6   2-351.528 617.439   1
   2  -6  -2 857.826 386.307   2
  -2  -6   2 735.295 466.908   2
  -2  -6   1 3135.44 718.202   2
  -2  -6   1 4061.38 934.338   1
   2  -6  -1 3799.61 810.888   2
   2  -6  -1 4942.87 1033.93   1
   2  -6   0 1936.37 686.830   1
  -2  -6   0 1600.88 650.408   1
   2  -6   0 2729.34 705.215   2
  -2  -6  -1-496.425 473.124   1
   2  -6   1-249.228 437.503   2
   2  -6   2 2635.26 766.286   2
  -2  -6  -2 3734.82 889.702   1
   2  -6   2 2758.63 791.252   1
  -2  -6  -3 4173.04 978.051   1
   2  -6   3 4124.73 980.009   1
   2  -6   3 4464.60 942.880   2
   2  -6   4 2842.30 795.211   1
  -2  -6  -4 4813.58 1124.53   1
   2  -6   4 3155.35 917.841   2
  -2  -6  -5 5142.29 1096.18   1
   2  -6   5 6376.97 1183.79   1
   2  -6   5 5651.61 1141.12   2
   2  -6   6 1784.30 701.268   2
  -2  -6  -6 3102.20 838.218   1
   2  -6   6 1617.35 623.816   1
  -2  -6  -7 499.340 471.769   1
   2  -6   7 2909.79 918.158   2
   2  -6   8 546.573 530.286   2
  -2  -6  -8 309.419 364.991   1
   2  -6   9 968.572 641.535   2
  -2  -6  -9 1937.76 744.379   1
   2  -6  10-137.582 585.547   2
  -2  -6 -10-106.725 475.215   1
  -2  -6 -11 304.120 395.423   1
  -2  -6 -12 1725.24 797.254   1
   2  -5 -16 428.227 487.208   7
  -2  -5  15 551.338 598.010   2
   2  -5 -15 346.798 454.095   7
  -2  -5  14 710.514 550.909   2
   2  -5 -14-184.270 545.869   1
   2  -5 -14 1512.60 649.488   7
   2  -5 -13 3371.11 818.509   7
  -2  -5  13 3327.64 978.774   2
   2  -5 -13 4431.60 1016.50   1
   2  -5 -12 8619.50 1296.26   7
  -2  -5  12 6484.41 1260.30   2
   2  -5 -12 6747.26 1228.45   1
  -2  -5  11 3041.60 899.724   2
   2  -5 -11 2369.22 750.626   1
   2  -5 -10 8886.01 1281.55   1
  -2  -5  10 6643.71 1206.81   2
  -2  -5   9 2434.90 772.583   2
   2  -5  -9 2550.31 784.747   1
  -2  -5   8 1735.88 670.163   2
   2  -5  -8 2650.33 734.655   1
   2  -5  -7 1261.78 537.480   1
  -2  -5   7 1283.72 568.302   2
   2  -5  -6-125.000 315.643   1
  -2  -5   6 422.328 359.176   2
  -2  -5   5 2119.17 665.575   2
   2  -5  -5 1882.66 670.871   1
   2  -5  -4 768.101 464.688   1
  -2  -5   4 1925.38 634.793   2
   2  -5  -3 10364.0 1308.38   1
   2  -5  -3 9522.40 1057.14   2
  -2  -5   3 9568.54 1163.64   2
  -2  -5   2 8693.42 1073.99   2
   2  -5  -2 8661.86 1038.41   2
   2  -5  -2 8958.81 1229.80   1
  -2  -5   2 9891.62 1284.98   1
   2  -5  -1 2191.91 644.263   1
   2  -5  -1 3159.11 683.746   2
  -2  -5   1 3768.53 694.964   2
   2  -5   0 14663.2 1519.18   1
   2  -5   0 13001.3 1345.10   2
  -2  -5   0 14993.8 1597.13   1
  -2  -5   0 14198.7 1236.51   2
   2  -5   1 4698.65 914.354   1
  -2  -5  -1 5634.46 750.226   2
   2  -5   1 6427.94 976.205   2
  -2  -5  -1 6826.70 1048.26   1
   2  -5   2 611.178 301.027   2
  -2  -5  -2 689.736 328.212   1
   2  -5   2 654.226 380.707   1
  -2  -5  -2 1146.74 354.595   2
   2  -5   3 3034.03 702.420   2
  -2  -5  -3 3876.27 860.350   1
   2  -5   3 3053.72 756.231   1
   2  -5   4 5737.86 1012.40   2
  -2  -5  -4 6219.98 1029.21   1
   2  -5   4 6764.31 1097.08   1
  -2  -5  -5 958.503 517.215   1
   2  -5   5 813.305 417.755   2
  -2  -5  -6 2261.48 644.328   1
   2  -5   6 1958.34 654.696   2
   2  -5   7 2840.99 839.856   2
  -2  -5  -7 3253.82 1053.96   5
  -2  -5  -7 1041.72 454.133   1
   2  -5   8 2226.10 736.801   2
  -2  -5  -8 3758.77 872.379   1
  -2  -5  -8 3984.43 1060.15   5
   2  -5   9 6075.32 1223.49   2
  -2  -5  -9 8244.14 1249.68   1
  -2  -5  -9 7190.58 1517.00   5
  -2  -5 -10 6337.71 1090.86   1
  -2  -5 -10 7146.96 1539.28   5
   2  -5  10 8184.72 1413.54   2
  -2  -5 -11 2662.89 747.427   1
   2  -5  11 3008.05 910.841   2
  -2  -5 -11 1057.01 741.658   5
  -2  -5 -12 5099.90 1037.41   1
   2  -5  12 5469.07 1262.51   2
  -2  -5 -12 5527.45 1427.64   5
   2  -5  13 2866.25 887.568   2
  -2  -5 -13 1604.63 646.932   1
  -2  -5 -14 2139.09 781.785   1
   2  -4 -18 2446.34 786.888   7
   2  -4 -17 6092.21 1185.34   7
  -2  -4  17 7819.38 1452.11   2
   2  -4 -16 1616.04 625.134   7
  -2  -4  16 1355.10 665.820   2
   2  -4 -15 3467.82 841.035   7
  -2  -4  15 1734.54 716.511   2
   2  -4 -14 2918.25 770.775   7
  -2  -4  14 1628.60 679.408   2
   2  -4 -13 562.651 339.500   1
   2  -4 -13 772.625 439.079   7
  -2  -4  13 1784.82 756.975   2
   2  -4 -12 1431.05 523.368   7
   2  -4 -12 1236.09 507.586   1
  -2  -4  12 1036.80 631.433   2
  -2  -4  11 3135.71 853.062   2
   2  -4 -11 2886.86 809.531   1
   2  -4 -11 1812.82 590.937   7
   2  -4 -10 6466.21 1024.91   1
  -2  -4  10 5230.72 1008.59   2
   2  -4  -9 1835.77 636.907   1
  -2  -4   9 877.682 444.565   2
  -2  -4   8 8875.50 1205.55   2
   2  -4  -8 8878.54 1152.48   1
  -2  -4   7 23987.5 1879.31   2
   2  -4  -7 25590.6 1876.41   1
   2  -4  -7 24256.3 1165.44   4
  -2  -4   6 29560.7 2024.26   2
   2  -4  -6 29562.4 1988.36   1
  -2  -4   5 14887.2 1388.45   2
   2  -4  -5 17917.4 1526.92   1
   2  -4  -4 12934.4 1282.86   1
  -2  -4   4 13587.8 1273.02   2
  -2  -4   3 2890.48 591.743   2
   2  -4  -3 2482.11 506.859   2
   2  -4  -3 2867.79 622.148   1
   2  -4  -2 12576.1 1246.51   1
   2  -4  -2 13378.7 1158.23   2
  -2  -4   2 15469.1 1263.62   2
  -2  -4   1 2008.63 449.787   2
   2  -4  -1 1824.80 438.084   2
   2  -4  -1 1564.77 496.183   1
  -2  -4   0 9207.62 891.478   2
  -2  -4   0 8269.13 1038.09   1
   2  -4   0 11163.5 1113.50   2
   2  -4   0 9257.33 1082.01   1
  -2  -4  -1 9784.81 1120.89   1
   2  -4   1 9286.53 1051.32   2
  -2  -4  -1 10550.3 894.080   2
   2  -4   1 9713.80 1109.45   1
   2  -4   2 5637.97 855.400   1
  -2  -4  -2 5948.06 889.748   1
  -2  -4  -2 7435.04 1085.48   5
   2  -4   2 6348.50 914.519   2
  -2  -4  -2 6328.10 650.066   2
   2  -4   3 6608.83 945.319   2
  -2  -4  -3 5712.13 873.507   1
  -2  -4  -3 6899.15 1121.19   5
  -2  -4  -3 5829.43 572.711   2
  -2  -4  -4 17139.6 1484.46   1
  -2  -4  -4 17781.6 1832.03   5
   2  -4   4 16109.1 1489.96   2
  -2  -4  -4 18093.7 884.459   2
   2  -4   5 18534.6 1640.10   2
  -2  -4  -5 17967.7 1529.43   1
  -2  -4  -5 15112.2 1732.01   5
  -2  -4  -6 13758.3 1745.49   5
  -2  -4  -6 15680.1 1428.14   1
   2  -4   6 16134.0 1558.48   2
   2  -4   7 4118.44 870.342   2
  -2  -4  -7 4542.40 788.599   1
  -2  -4  -7 4041.29 1040.99   5
  -2  -4  -8 11444.0 1270.82   1
  -2  -4  -8 12176.6 1049.00   7
   2  -4   8 14662.4 1620.76   2
  -2  -4  -8 13461.6 1830.98   5
  -2  -4  -9 4393.53 672.184   7
   2  -4   9 3975.37 873.865   2
  -2  -4  -9 4965.20 1148.16   5
  -2  -4  -9 4036.96 763.885   1
  -2  -4 -10 1483.67 421.576   7
   2  -4  10 1228.28 510.172   2
  -2  -4 -10 2547.27 642.981   1
  -2  -4 -10 1559.34 722.113   5
   2  -4  11 1079.92 527.154   2
  -2  -4 -11 493.206 409.889   1
  -2  -4 -11 112.700 551.684   5
   2  -4  12 9011.42 1403.41   2
  -2  -4 -12 8143.75 1175.21   1
  -2  -4 -12 8547.37 1672.26   5
  -2  -4 -13 2054.02 909.476   5
   2  -4  13 610.252 594.231   2
  -2  -4 -14 4123.70 1273.53   5
   2  -4  14 987.197 676.969   2
   2  -4  15 2872.83 858.790   2
  -2  -4 -15 2855.70 1140.43   5
   2  -4  16 4225.53 1120.74   2
   2  -3 -20-66.9482 322.444   7
  -2  -3  19 3073.67 908.002   2
   2  -3 -19 2436.70 825.794   7
   2  -3 -18 80.3601 404.742   7
  -2  -3  18 829.879 477.049   2
   2  -3 -17-205.733 366.620   7
  -2  -3  17-204.038 432.519   2
  -2  -3  16-114.581 381.601   2
   2  -3 -16-117.152 329.425   7
  -2  -3  15 1027.52 493.475   2
   2  -3 -15 2025.45 642.526   7
   2  -3 -14 3363.32 764.961   7
  -2  -3  14 4067.19 929.388   2
   2  -3 -13 1905.99 608.310   7
  -2  -3  13 1515.74 581.082   2
  -2  -3  12 21157.8 1872.64   2
   2  -3 -12 21642.8 1720.27   7
   2  -3 -11 23659.3 1748.69   7
   2  -3 -11 24528.0 1814.52   1
  -2  -3  11 23688.4 1927.16   2
   2  -3 -10 15288.4 1423.35   1
  -2  -3  10 14285.7 1480.35   2
   2  -3 -10 14507.3 1324.52   7
   2  -3  -9 4939.73 348.150   4
   2  -3  -9 5357.66 823.756   1
  -2  -3   9 5993.73 942.540   2
   2  -3  -8 3947.00 701.742   1
  -2  -3   8 4078.18 762.013   2
   2  -3  -8 4750.50 397.076   4
   2  -3  -7 9598.13 1033.53   1
  -2  -3   7 8797.31 1041.04   2
   2  -3  -7 7745.85 568.734   4
  -2  -3   6 1940.06 507.147   2
   2  -3  -6 2049.98 324.962   4
   2  -3  -6 1686.14 471.219   1
   2  -3  -5 5396.98 746.286   1
   2  -3  -5 5187.63 533.131   4
  -2  -3   5 3622.44 629.119   2
   2  -3  -4 9355.40 949.973   1
  -2  -3   4 9992.44 980.992   2
  -2  -3   3 5240.34 699.772   2
   2  -3  -3 6755.33 806.968   1
  -2  -3   3 5987.50 524.537   6
  -2  -3   2 55150.2 1367.19   6
   2  -3  -2 55915.7 2077.34   2
   2  -3  -2 58752.9 2296.92   1
  -2  -3   2 60736.9 2183.76   2
  -2  -3   1 61600.2 1181.51   6
   2  -3  -1 63356.9 2269.99   2
  -2  -3   1 67118.7 2431.06   5
   2  -3  -1 68635.6 2456.53   1
  -2  -3   1 64979.6 2144.54   2
  -2  -3   0 39707.9 1573.74   2
  -2  -3   0 40085.1 2023.68   5
   2  -3   0 40434.0 1854.38   2
   2  -3   0 39944.3 1869.72   1
  -2  -3  -1 26345.0 1556.77   1
   2  -3   1 23877.5 1452.35   1
  -2  -3  -1 28271.3 1796.36   5
  -2  -3  -1 24468.9 1060.59   8
  -2  -3  -1 27980.6 1242.73   2
   2  -3   1 26602.0 1553.29   2
   2  -3   2 6627.95 820.542   2
  -2  -3  -2 9180.96 913.991   1
  -2  -3  -2 7454.32 556.860   8
  -2  -3  -2 5320.76 824.379   5
  -2  -3  -2 7560.63 600.286   2
   2  -3   3 27245.3 1666.75   2
  -2  -3  -3 32562.9 1722.52   1
  -2  -3  -3 30024.4 1033.65   8
  -2  -3  -3 27367.4 1931.68   5
  -2  -3  -3 31078.3 1081.19   2
  -2  -3  -4 5951.91 748.885   1
   2  -3   4 6061.44 825.517   2
  -2  -3  -4 6347.70 413.413   2
  -2  -3  -4 6070.90 453.745   8
  -2  -3  -4 7041.95 1043.28   5
   2  -3   5 4587.87 763.351   2
  -2  -3  -5 3059.46 320.991   8
  -2  -3  -5 2874.05 539.607   1
  -2  -3  -5 3429.03 765.938   5
  -2  -3  -6 4351.61 667.837   1
  -2  -3  -6 3969.68 879.609   5
   2  -3   6 4135.81 758.595   2
  -2  -3  -6 3435.84 382.594   4
  -2  -3  -7 9588.36 799.579   7
  -2  -3  -7 11636.4 1095.93   1
   2  -3   7 9806.60 1155.26   2
   2  -3   7 8789.41 447.616   9
  -2  -3  -7 8975.79 1350.65   5
  -2  -3  -8 14418.6 1231.87   1
  -2  -3  -8 16193.0 1817.17   5
   2  -3   8 14946.1 729.255   9
   2  -3   8 17956.7 1590.97   2
  -2  -3  -8 16614.2 1088.90   7
  -2  -3  -9 706.471 290.447   7
  -2  -3  -9 482.338 294.970   1
  -2  -3  -9 1270.57 635.856   5
   2  -3   9 919.324 541.892   2
  -2  -3 -10 10711.2 966.660   7
  -2  -3 -10 9251.67 1053.48   1
   2  -3  10 8757.67 1188.16   2
  -2  -3 -10 9405.90 1529.66   5
  -2  -3 -11 19874.1 1384.09   7
  -2  -3 -11 18317.9 2138.92   5
   2  -3  11 18354.7 1773.84   2
  -2  -3 -11 19177.3 1549.14   1
   2  -3  12 4719.79 931.466   2
  -2  -3 -12 4282.49 686.520   7
  -2  -3 -12 4733.81 1157.19   5
   2  -3  13 5845.53 1087.32   2
  -2  -3 -13 6969.37 1468.44   5
   2  -3  14 3477.45 888.592   2
  -2  -3 -14 1906.24 820.483   5
  -2  -3 -15 408.882 533.007   5
   2  -3  15 646.679 504.793   2
   2  -3  16 82.7966 437.666   2
  -2  -3 -16 730.332 690.269   5
   2  -3  17 179.589 508.995   2
  -2  -3 -17-159.871 767.207   5
   2  -3  18 1683.58 734.233   2
  -2  -2  21 882.079 598.222   2
   2  -2 -20 4253.16 1102.64   7
  -2  -2  20 2465.35 797.823   8
  -2  -2  20 3279.79 887.169   2
   2  -2 -19 1161.84 588.883   7
  -2  -2  19 2703.30 818.676   2
  -2  -2  19 1579.54 706.037   8
   2  -2 -18 1378.57 626.872   7
  -2  -2  18 3636.75 884.439   2
  -2  -2  17 7849.39 1242.77   2
   2  -2 -17 7797.23 1232.95   7
   2  -2 -16 7157.88 1140.52   7
  -2  -2  16 5015.67 962.282   2
  -2  -2  15 14752.9 1569.44   2
   2  -2 -15 12484.1 1457.93   7
  -2  -2  14 11022.9 1333.09   2
   2  -2 -14 12675.5 1382.28   7
   2  -2 -13 3921.58 747.224   7
  -2  -2  13 4094.86 797.645   2
  -2  -2  12 7582.09 1022.95   2
   2  -2 -12 6413.14 921.342   7
  -2  -2  11 2960.32 670.569   2
   2  -2 -11 2687.61 600.414   7
  -2  -2  10 14522.2 1321.51   2
   2  -2 -10 13452.6 1192.76   7
  -2  -2   9 7890.72 958.102   2
   2  -2  -9 7911.53 883.592   7
   2  -2  -9 8212.04 501.472   4
   2  -2  -9 8135.23 919.025   1
  -2  -2   8 14245.6 1235.43   2
   2  -2  -8 13817.8 659.219   4
   2  -2  -8 13616.4 1110.27   7
   2  -2  -8 13546.7 1124.96   1
  -2  -2   7 31044.6 1721.13   2
   2  -2  -7 31603.6 1035.27   4
   2  -2  -7 28641.5 1563.76   1
   2  -2  -6 59239.6 2132.57   1
  -2  -2   6 59001.1 2291.40   2
   2  -2  -6 59492.2 1466.56   4
   2  -2  -5 26032.9 1387.96   1
   2  -2  -5 26407.5 1021.06   4
  -2  -2   5 27314.8 1495.45   2
   2  -2  -4 79771.1 2314.57   1
   2  -2  -4 77894.0 1831.69   4
  -2  -2   4 78344.6 2397.49   2
   2  -2  -3 30476.4 1389.09   1
  -2  -2   3 29950.9 1412.01   2
  -2  -2   3 33070.2 1099.66   5
  -2  -2   2 18762.5 1063.26   2
  -2  -2   2 18360.2 950.997   5
   2  -2  -2 17106.9 1021.42   1
   2  -2  -1 1150.51 294.305   2
   2  -2  -1 1261.17 287.070   1
  -2  -2   1 1439.74 317.191   5
  -2  -2   1 1006.69 256.671   2
  -2  -2   1 1831.96 298.305   7
  -2  -2   0 5446.90 640.390   5
   2  -2   0 5453.25 564.566   1
  -2  -2   0 4798.32 473.890   2
   2  -2   0 5405.03 615.147   2
  -2  -2   0 5769.67 484.024   7
  -2  -2   0 5325.57 384.880   6
  -2  -2  -1 7861.28 416.012   8
  -2  -2  -1 7463.42 544.001   2
   2  -2   1 8267.12 759.507   2
  -2  -2  -1 7766.40 688.365   1
  -2  -2  -1 7723.32 822.984   5
  -2  -2  -1 8430.95 472.856   6
  -2  -2  -1 8270.92 558.574   7
  -2  -2  -2 86490.7 1617.26   6
  -2  -2  -2 82967.6 1136.24   8
  -2  -2  -2 84137.7 2226.69   1
  -2  -2  -2 82558.1 1637.77   2
   2  -2   2 82596.2 2464.45   2
  -2  -2  -2 81862.7 2807.40   5
  -2  -2  -3 55830.6 1458.17   6
  -2  -2  -3 56574.8 1844.44   1
  -2  -2  -3 53620.8 831.257   8
  -2  -2  -3 55474.8 2469.02   5
  -2  -2  -3 56140.1 1185.40   2
   2  -2   3 54341.0 2067.90   2
  -2  -2  -3 58060.5 1604.66   4
  -2  -2  -4 77515.2 2193.31   1
  -2  -2  -4 77885.9 1926.31   6
  -2  -2  -4 77655.4 1768.50   4
   2  -2   4 77281.3 2539.47   2
  -2  -2  -4 76759.8 3062.56   5
   2  -2   4 75589.5 1119.38   9
  -2  -2  -4 75341.2 1161.00   2
   2  -2   5 11190.8 547.576   9
  -2  -2  -5 13272.8 1377.80   5
  -2  -2  -5 11852.1 671.782   4
   2  -2   5 11560.9 1023.86   2
  -2  -2  -5 11724.6 881.210   1
  -2  -2  -5 11529.7 818.586   6
  -2  -2  -5 11694.3 665.797   7
  -2  -2  -6 26313.3 1368.07   1
  -2  -2  -6 29122.3 1418.28   6
   2  -2   6 25080.2 1580.18   2
  -2  -2  -6 29714.3 2081.27   5
   2  -2   6 27839.7 1006.02   9
  -2  -2  -6 29015.5 1141.75   7
  -2  -2  -7 24148.0 1135.50   7
  -2  -2  -7 25662.8 1441.74   6
   2  -2   7 25970.3 1659.31   2
  -2  -2  -7 24125.9 2001.68   5
   2  -2   7 25604.4 1100.66   9
  -2  -2  -7 25944.5 1399.89   1
  -2  -2  -8 34400.9 1795.64   6
  -2  -2  -8 37228.4 2532.39   5
  -2  -2  -8 36534.9 1497.15   7
   2  -2   8 32663.6 1919.76   2
   2  -2   8 32919.8 1387.56   9
  -2  -2  -8 35586.2 1692.33   1
  -2  -2  -9-21.6351 214.777   6
   2  -2   9 252.560 279.591   2
   2  -2   9 349.869 234.948   9
  -2  -2  -9 212.847 176.281   7
  -2  -2  -9 383.576 387.247   5
  -2  -2 -10 7297.31 788.631   7
   2  -2  10 5673.19 881.148   2
   2  -2  10 7633.55 791.514   9
  -2  -2 -10 6110.30 1118.35   5
   2  -2  11 2959.05 659.013   2
   2  -2  11 3581.09 586.703   9
  -2  -2 -11 4244.58 1033.02   5
  -2  -2 -11 4396.07 670.752   7
  -2  -2 -12 4923.00 727.165   7
  -2  -2 -12 3765.32 968.302   5
   2  -2  12 3996.01 672.808   9
   2  -2  12 3497.37 745.705   2
  -2  -2 -13 1226.42 432.493   7
   2  -2  13 449.575 362.841   2
   2  -2  13 1071.26 407.248   9
  -2  -2 -13 1499.20 703.696   5
   2  -2  14 1460.15 540.236   2
   2  -2  14 1622.25 506.028   9
  -2  -2 -14 1905.59 819.407   5
  -2  -2 -14 1528.10 485.926   7
   2  -2  15 8049.43 1233.21   2
  -2  -2 -15 9156.03 1610.26   5
  -2  -2 -16 6885.52 1484.61   5
   2  -2  16 7505.81 1169.59   2
  -2  -2 -17 2607.61 992.061   5
   2  -2  17 3442.48 876.666   2
  -2  -2 -18 5456.51 1354.16   5
  -2  -2 -19 2025.71 919.343   5
   2  -1 -21 2346.24 875.117   7
   2  -1 -20 5572.02 1191.06   7
  -2  -1  20 3445.41 950.713   8
   2  -1 -19 2850.26 902.828   7
  -2  -1  19 2219.98 702.122   2
  -2  -1  19 3180.08 941.092   8
   2  -1 -18 225.007 455.272   7
  -2  -1  18 491.405 402.188   8
  -2  -1  18 398.080 357.814   2
  -2  -1  17 23.9913 376.047   8
  -2  -1  17-174.672 280.025   2
   2  -1 -17-209.262 354.335   7
   2  -1 -16 267.312 329.907   7
  -2  -1  16 1458.75 506.123   2
  -2  -1  16 968.403 444.716   8
  -2  -1  15 3113.51 646.877   2
  -2  -1  15 4156.03 891.397   8
   2  -1 -15 4794.30 893.144   7
  -2  -1  14 13176.1 1313.47   2
   2  -1 -14 11785.8 1320.20   7
  -2  -1  14 11144.1 1341.45   8
  -2  -1  13 19286.9 1540.41   2
   2  -1 -13 20918.8 1694.06   7
   2  -1 -12 8767.31 1034.32   7
  -2  -1  12 8330.07 1000.90   2
  -2  -1  11 15498.8 1292.21   2
   2  -1 -11 15208.0 1300.55   7
   2  -1 -10 53127.8 2296.36   7
  -2  -1  10 51345.1 2251.88   2
  -2  -1   9 43254.2 1974.73   2
   2  -1  -9 43471.4 1966.59   7
   2  -1  -8 17479.4 1196.44   7
   2  -1  -8 16870.4 864.093   4
  -2  -1   8 16830.1 1186.59   2
   2  -1  -7 13182.7 737.308   4
   2  -1  -7 13157.5 983.596   7
  -2  -1   7 12444.1 982.318   2
  -2  -1   6 7770.77 746.583   2
   2  -1  -6 8087.33 724.847   7
   2  -1  -6 7722.47 550.177   4
   2  -1  -5 4275.62 511.436   7
   2  -1  -5 3552.32 373.368   4
  -2  -1   5 3858.01 432.827   3
   2  -1  -5 3453.97 440.304   1
  -2  -1   5 4137.42 529.169   2
  -2  -1   4 19907.8 1029.90   2
   2  -1  -4 18389.5 818.969   4
   2  -1  -4 19315.6 939.326   1
  -2  -1   4 17712.6 892.937   3
  -2  -1   3 83098.2 1914.20   3
   2  -1  -3 83431.3 1756.56   4
   2  -1  -3 84094.8 1832.24   1
  -2  -1   3 85181.5 1853.20   7
  -2  -1   2 161131. 2690.03   3
  -2  -1   2 161754. 2687.25   9
   2  -1  -2 152641. 2306.20   1
   2  -1  -2 149583. 2443.95   4
  -2  -1   2 156526. 2217.04   7
  -2  -1   1 9431.98 659.275   3
  -2  -1   1 9931.18 679.168   4
   2  -1  -1 8743.76 521.192   1
  -2  -1   1 8937.28 634.316   9
   2  -1  -1 9236.01 663.585   8
   2  -1  -1 9984.78 657.870   4
  -2  -1   1 9580.48 471.728   7
   2  -1   0 259791. 3671.05   6
  -2  -1   0 254844. 3076.20   6
  -2  -1   0 254408. 3288.62   4
   2  -1   0 263013. 3496.28   8
  -2  -1   0 258811. 3552.58   3
  -2  -1   0 260172. 1845.32   8
   2  -1   0 255633. 2647.44   1
  -2  -1   0 270090. 1979.22   7
  -2  -1  -1 40384.6 1229.57   6
   2  -1   1 41579.1 1412.35   8
  -2  -1  -1 41750.4 1103.94   1
   2  -1   1 39896.6 1413.28   2
  -2  -1  -1 39790.8 1255.15   4
  -2  -1  -2 57657.1 1477.99   4
   2  -1   2 59062.3 1781.52   2
  -2  -1  -2 57408.0 1533.79   6
   2  -1   2 60617.3 1682.28   7
   2  -1   2 58504.3 1156.41   9
  -2  -1  -2 57402.1 1300.87   1
  -2  -1  -3 26156.0 639.239   7
  -2  -1  -3 28552.4 968.047   1
  -2  -1  -3 28047.4 1158.95   6
   2  -1   3 28187.6 892.085   9
   2  -1   3 27416.1 1266.93   2
  -2  -1  -3 27939.8 1029.00   4
  -2  -1  -4 13840.8 874.210   6
   2  -1   4 12833.1 678.869   9
  -2  -1  -4 13179.8 702.193   1
  -2  -1  -4 11923.7 546.768   2
  -2  -1  -4 12658.2 695.058   4
   2  -1   4 12493.2 883.929   2
  -2  -1  -4 12324.2 550.408   7
  -2  -1  -5 793.862 176.945   7
   2  -1   5 913.924 307.183   2
  -2  -1  -5 779.193 212.250   1
  -2  -1  -5 999.696 281.107   6
  -2  -1  -5 1000.42 390.889   5
   2  -1   5 714.045 200.067   9
  -2  -1  -5 794.675 148.689   2
   2  -1   6 5645.32 558.949   9
  -2  -1  -6 5799.72 497.452   7
   2  -1   6 6382.11 686.936   2
  -2  -1  -6 6109.45 417.394   2
  -2  -1  -6 5935.52 683.851   6
  -2  -1  -6 5652.73 887.580   5
  -2  -1  -7 19069.0 1636.56   5
  -2  -1  -7 19433.4 1305.64   6
   2  -1   7 18859.3 1232.95   2
  -2  -1  -7 19241.3 780.750   2
   2  -1   7 18951.0 1103.19   9
  -2  -1  -7 19926.9 1020.99   7
  -2  -1  -8 56129.7 2345.62   6
   2  -1   8 52152.4 2124.86   2
  -2  -1  -8 52119.7 2788.12   5
   2  -1   8 55062.3 2022.13   9
  -2  -1  -8 55388.2 1408.63   2
  -2  -1  -8 54572.1 1829.93   7
  -2  -1  -9 22064.0 1578.91   6
   2  -1   9 23504.2 1420.09   9
  -2  -1  -9 19524.1 1781.29   5
   2  -1   9 19154.0 1357.28   2
  -2  -1  -9 20751.2 926.899   2
  -2  -1  -9 23648.7 1301.03   7
  -2  -1 -10 17288.6 1191.03   7
  -2  -1 -10 17012.6 1460.98   6
   2  -1  10 18880.9 1390.17   2
   2  -1  10 17679.7 1317.43   9
  -2  -1 -10 20247.0 1886.45   5
  -2  -1 -11 12016.4 1306.22   6
   2  -1  11 13152.3 1209.87   9
  -2  -1 -11 13695.2 1656.01   5
   2  -1  11 12341.0 1184.20   2
  -2  -1 -11 14263.5 1150.63   7
  -2  -1 -12 29791.5 2129.67   6
   2  -1  12 25764.2 1747.50   2
  -2  -1 -12 29406.8 2435.72   5
   2  -1  12 24406.0 1719.12   9
  -2  -1 -12 29397.7 1738.61   7
   2  -1  13 11584.0 1255.27   9
   2  -1  13 11341.8 1211.14   2
  -2  -1 -13 13325.4 1714.95   5
  -2  -1 -13 14391.5 1288.72   7
  -2  -1 -14 3828.05 711.952   7
   2  -1  14 3175.64 678.145   2
  -2  -1 -14 2807.68 871.356   5
   2  -1  14 3125.60 711.843   9
  -2  -1 -15 329.312 283.240   7
   2  -1  15 727.622 414.747   2
   2  -1  15 31.1852 305.507   9
  -2  -1 -15-12.8751 372.386   5
   2  -1  16 4060.65 879.182   9
   2  -1  16 1893.64 575.323   2
  -2  -1 -16 2828.71 695.603   7
  -2  -1 -16 2859.88 931.110   5
  -2  -1 -17 1037.53 647.171   5
   2  -1  17 89.3354 333.583   9
   2  -1  18 1116.82 619.292   9
  -2  -1 -18 748.230 607.191   5
  -2  -1 -19 1999.93 891.507   5
  -2  -1 -20 2612.07 941.101   5
   2   0 -21 1524.57 796.932   7
  -2   0  21 865.110 620.421   8
   2   0 -20 568.861 475.562   7
  -2   0  20 808.470 552.467   8
   2   0 -19 4045.47 1012.95   7
  -2   0  19 2470.79 792.918   8
   2   0 -18 4719.13 1028.34   7
  -2   0  18 5931.38 921.143   2
  -2   0  18 4844.60 1017.98   8
   2   0 -17 8302.31 1299.85   7
  -2   0  17 8691.61 1079.57   2
  -2   0  17 8175.71 1258.88   8
   2   0 -16 6876.65 1134.35   7
  -2   0  16 6576.75 1113.53   8
  -2   0  16 6858.48 954.136   2
   2   0 -15 14001.0 1531.15   7
  -2   0  15 12604.4 1450.56   8
  -2   0  15 12869.5 1241.14   2
  -2   0  14 12904.3 1404.59   8
   2   0 -14 12718.6 1397.49   7
  -2   0  14 12116.7 1176.30   2
   2   0 -13 3532.56 365.549   3
  -2   0  13 5174.82 744.496   2
  -2   0  13 4339.31 799.532   8
   2   0 -13 4844.81 851.211   7
  -2   0  12 441.726 338.970   8
   2   0 -12 565.956 149.566   3
  -2   0  12 389.432 242.404   2
   2   0 -12 464.419 324.535   7
  -2   0  11-173.503 195.932   2
  -2   0  11 69.9251 274.709   8
   2   0 -11 234.212 310.786   7
   2   0 -11 12.1018 59.5118   3
   2   0 -10 9019.34 463.288   3
  -2   0  10 8276.93 938.739   8
  -2   0  10 9399.55 870.832   2
   2   0 -10 9616.88 1017.52   7
   2   0  -9 26528.1 710.507   3
  -2   0   9 26395.1 1381.81   2
   2   0  -9 26070.8 1568.37   7
  -2   0   9 24894.7 1537.96   8
  -2   0   8 64295.7 2041.76   2
   2   0  -8 60259.0 965.132   3
  -2   0   8 61010.2 2252.68   8
   2   0  -8 62698.7 2269.91   7
  -2   0   7 19592.6 1067.43   5
  -2   0   7 20425.9 1230.43   8
  -2   0   7 19218.1 1053.40   2
   2   0  -7 19859.1 1190.50   7
   2   0  -6 14718.7 880.121   4
  -2   0   6 13908.5 847.420   5
  -2   0   6 14311.9 972.226   8
   2   0  -6 13887.9 939.362   7
   2   0  -5 28532.8 613.044   3
  -2   0   5 28242.6 654.523   3
   2   0  -5 28074.3 1164.82   4
  -2   0   5 29880.5 1294.66   8
  -2   0   5 30535.5 1201.83   4
   2   0  -5 30955.7 1268.58   7
  -2   0   4 285914. 2205.98   3
   2   0  -4 281911. 3527.78   4
  -2   0   4 287566. 3434.46   7
  -2   0   4 295770. 3539.36   4
  -2   0   4 284461. 3689.40   8
   2   0  -4 284112. 3527.75   7
  -2   0   3 41594.7 936.637   3
   2   0  -3 39409.0 1270.59   4
   2   0  -3 45001.8 1319.88   8
  -2   0   3 43634.0 1318.32   4
  -2   0   3 41807.8 1289.45   8
   2   0  -3 42686.6 1207.77   7
  -2   0   3 43859.3 1198.42   7
  -2   0   2 36995.9 973.980   3
   2   0  -2 38124.3 1112.89   8
   2   0  -2 37552.6 1200.40   4
  -2   0   2 37585.2 1193.94   4
  -2   0   2 36113.4 1086.50   8
   2   0  -2 37456.1 991.583   7
   2   0  -1 98649.6 1926.22   4
   2   0  -1 100899. 1673.72   8
  -2   0   1 97034.7 1635.77   8
  -2   0   1 100118. 1902.73   4
  -2   0   0 50783.9 1364.32   4
  -2   0   0 47801.5 1447.01   6
   2   0   0 49144.4 1252.35   9
  -2   0   0 49948.8 1281.65   9
   2   0   0 51515.0 1132.22   8
   2   0   0 50259.7 1374.86   4
  -2   0   0 49713.6 1118.00   8
   2   0   1 11478.8 737.240   6
  -2   0  -1 10547.5 606.747   9
   2   0   1 11417.0 536.375   8
  -2   0  -1 10890.4 513.766   8
   2   0   1 11454.3 679.018   4
  -2   0  -1 11985.1 749.908   6
  -2   0  -1 11832.0 674.735   4
   2   0   1 12327.3 650.743   9
   2   0   2 62784.4 1786.63   6
  -2   0  -2 60881.1 1743.17   6
   2   0   2 61187.7 1265.69   8
  -2   0  -2 62401.1 1547.16   9
  -2   0  -2 61875.2 1505.77   2
   2   0   2 62384.6 1533.33   9
   2   0   2 63811.3 1068.68   7
   2   0   2 59922.4 1583.84   4
  -2   0  -3 25565.5 1206.90   6
  -2   0  -3 27500.5 1107.32   9
   2   0   3 26556.5 1024.18   2
   2   0   3 27142.7 1096.46   9
  -2   0  -3 26166.7 815.478   7
  -2   0  -3 26281.7 999.285   2
   2   0   3 26452.6 1102.51   4
   2   0   3 27949.7 826.098   7
   2   0   3 27606.7 713.832   1
   2   0   4 83154.9 1495.37   1
   2   0   4 84559.4 1912.76   2
   2   0   4 84192.7 2075.34   9
  -2   0  -4 84973.0 1663.91   7
   2   0   4 91442.7 1708.45   7
  -2   0  -4 84412.2 2323.10   6
  -2   0  -4 84315.6 1868.42   2
  -2   0  -5 40089.7 1716.82   6
   2   0   5 39053.5 1529.92   9
   2   0   5 34232.2 1109.65   1
  -2   0  -5 38112.1 1307.99   2
  -2   0  -5 39102.8 1275.90   7
   2   0   5 35749.1 1306.75   2
   2   0   5 40885.0 1291.50   7
  -2   0  -6 31691.4 1270.76   7
  -2   0  -6 30170.1 1598.36   6
   2   0   6 30629.0 1454.54   9
   2   0   6 32567.5 1307.54   2
  -2   0  -7 37626.9 1883.44   6
  -2   0  -7 37769.2 1509.47   7
   2   0   7 38562.3 1493.22   2
   2   0   7 40768.4 1787.12   9
  -2   0  -8 47920.9 2233.36   6
  -2   0  -8 44950.8 1775.57   7
   2   0   8 46779.9 2048.63   9
   2   0   8 46619.0 1724.93   2
  -2   0  -9 8187.27 1006.98   6
   2   0   9 6244.77 664.389   2
  -2   0  -9 8558.57 835.556   7
   2   0   9 6682.65 841.547   9
  -2   0 -10 3877.53 733.159   6
  -2   0 -10 5335.06 937.875   5
   2   0  10 5572.87 799.979   9
  -2   0 -10 5580.84 717.328   7
   2   0  10 5077.20 624.882   2
   2   0  11 1777.64 414.101   2
  -2   0 -11 2048.58 582.275   6
   2   0  11 1512.11 481.251   9
  -2   0 -11 2140.54 662.369   5
  -2   0 -11 1863.66 457.851   7
   2   0  12 1626.17 403.286   2
  -2   0 -12 2760.24 699.344   6
  -2   0 -12 1463.91 637.122   5
   2   0  12 2413.82 634.265   9
  -2   0 -12 2878.43 598.764   7
  -2   0 -13 12518.6 1508.38   6
  -2   0 -13 13420.0 1633.69   5
   2   0  13 12430.0 1384.44   9
  -2   0 -13 13117.9 1298.73   7
   2   0  13 11708.5 1071.25   2
  -2   0 -14 7214.55 1026.04   7
   2   0  14 6150.94 825.832   2
  -2   0 -14 8769.95 1371.12   5
   2   0  14 5604.60 970.555   9
  -2   0 -15 13315.0 1424.33   7
   2   0  15 13569.9 1574.37   9
  -2   0 -15 14701.7 1818.03   5
  -2   0 -16 7763.30 1371.00   5
  -2   0 -16 9270.04 1247.08   7
   2   0  16 8723.18 1329.25   9
   2   0  16 7399.89 1102.99   8
   2   0  17 7275.01 1241.18   9
  -2   0 -17 10146.2 1618.64   5
   2   0  17 8786.88 1242.42   8
  -2   0 -17 9118.62 1303.39   7
  -2   0 -18 7724.70 1454.95   5
   2   0  18 5615.44 1136.01   9
   2   0  19 581.486 542.785   9
   2   0  20 2716.32 939.084   9
  -2   1  21 2897.98 959.013   8
   2   1 -20 3079.81 962.412   7
  -2   1  20 3687.44 1009.77   8
   2   1 -19 826.406 460.613   7
  -2   1  19 2644.52 871.666   8
   2   1 -18-259.424 438.579   7
  -2   1  18 432.765 356.007   8
  -2   1  17 538.394 401.406   8
   2   1 -17 356.430 498.450   7
  -2   1  16 157.270 350.643   8
  -2   1  16 954.670 339.557   2
   2   1 -16 377.323 633.021   7
   2   1 -15 3334.30 789.700   7
  -2   1  15 2308.30 648.579   8
  -2   1  15 3512.73 589.451   2
   2   1 -14 12222.1 972.488   3
  -2   1  14 12687.1 1083.73   2
  -2   1  14 13354.3 1434.65   8
   2   1 -14 14371.6 1545.46   7
   2   1 -13 21169.0 1766.95   7
  -2   1  13 19306.5 1637.42   8
  -2   1  13 20950.5 1329.26   2
   2   1 -13 17254.2 1126.77   3
   2   1 -12 8437.59 1077.93   7
   2   1 -12 5407.78 616.978   3
  -2   1  12 6369.75 951.486   8
  -2   1  12 5833.14 684.132   2
   2   1 -11 21014.1 1156.23   3
  -2   1  11 20025.8 1535.96   8
   2   1 -11 18549.2 1528.41   7
  -2   1  11 21335.6 1230.53   2
   2   1 -10 46276.3 1666.26   3
  -2   1  10 46778.4 1472.27   4
  -2   1  10 47240.4 2226.85   8
  -2   1  10 49980.6 1783.22   2
   2   1 -10 49734.7 2347.68   7
   2   1  -9 40494.7 1489.50   3
  -2   1   9 42796.7 2019.02   8
  -2   1   9 40207.1 1324.30   4
   2   1  -9 37229.8 1925.76   7
   2   1  -8 11297.4 1030.74   7
  -2   1   8 12390.9 1042.79   8
   2   1  -8 12469.3 803.219   3
  -2   1   8 12146.6 704.345   4
   2   1  -7 15157.9 860.678   3
  -2   1   7 15025.9 758.578   4
  -2   1   7 14260.2 1071.28   8
   2   1  -7 15107.8 1102.56   7
  -2   1   6 8074.35 757.705   8
   2   1  -6 7972.80 608.148   3
  -2   1   6 8404.90 551.940   4
   2   1  -6 7497.92 735.844   7
   2   1  -5 5220.92 491.802   3
  -2   1   5 5030.75 301.219   3
  -2   1   5 4919.02 419.666   4
  -2   1   5 5318.45 581.241   8
   2   1  -5 5548.52 586.300   7
  -2   1   4 12885.0 859.701   8
   2   1  -4 13611.4 776.841   3
   2   1  -4 12333.8 884.490   4
   2   1  -4 15449.7 885.567   7
  -2   1   4 14008.8 710.364   4
   2   1  -3 82764.1 1873.91   3
  -2   1   3 80906.5 1844.38   1
  -2   1   3 77950.9 2023.99   8
   2   1  -3 83312.7 2170.77   4
  -2   1   3 82273.6 1751.16   4
   2   1  -3 86126.9 1866.59   7
   2   1  -2 151485. 2559.01   3
  -2   1   2 153791. 2356.78   1
   2   1  -2 156103. 2858.31   4
  -2   1   2 148204. 2708.55   8
   2   1  -2 156921. 2231.18   7
  -2   1   1 15343.3 851.753   8
   2   1  -1 14857.1 831.125   3
  -2   1   1 15759.5 891.612   6
  -2   1   1 15456.7 703.263   1
   2   1  -1 15791.8 605.494   7
  -2   1   1 15288.4 826.828   2
   2   1  -1 15828.7 872.974   4
  -2   1   0 250410. 3583.15   6
   2   1   0 245711. 1945.13   7
   2   1   0 244333. 3437.41   3
   2   1   0 232849. 3254.06   9
  -2   1   0 248297. 3415.47   8
   2   1   0 242453. 3325.22   4
   2   1   1 48442.7 1432.60   4
   2   1   1 47466.4 1347.60   6
  -2   1  -1 48121.2 1493.56   8
   2   1   1 45691.1 1478.72   9
  -2   1  -1 46932.1 997.712   9
   2   1   1 49671.4 1603.55   3
  -2   1  -1 45643.9 1586.14   6
   2   1   2 57443.6 1740.94   9
   2   1   2 61274.5 1884.67   3
   2   1   2 59740.0 1368.46   1
   2   1   2 60184.2 1604.66   6
  -2   1  -2 60915.5 1202.50   9
  -2   1  -2 59298.1 1869.90   6
   2   1   2 60357.0 1565.83   4
  -2   1  -3 22082.9 1199.74   6
   2   1   3 21787.9 1041.19   6
   2   1   3 20957.3 1124.23   9
   2   1   3 22913.0 909.222   1
  -2   1  -3 22555.0 817.328   9
   2   1   3 22805.6 960.780   4
   2   1   4 12620.7 487.893   8
   2   1   4 13516.7 752.711   1
  -2   1  -4 12413.0 970.325   6
   2   1   4 12888.4 933.706   9
   2   1   4 11999.3 702.856   4
   2   1   5 892.635 297.227   9
  -2   1  -5 446.697 240.619   6
  -2   1  -5 813.369 258.334   7
   2   1   5 918.676 219.175   4
  -2   1  -6 4539.50 577.409   7
   2   1   6 3991.65 589.912   9
   2   1   6 5075.87 479.185   4
  -2   1  -6 5282.74 722.426   6
   2   1   7 12506.5 772.313   8
  -2   1  -7 15033.7 1270.52   6
   2   1   7 16162.1 1237.17   9
   2   1   7 14126.1 808.291   4
  -2   1  -7 16659.3 1146.18   7
   2   1   8 60405.0 1508.28   2
   2   1   8 63380.5 2573.66   9
  -2   1  -8 58506.8 2580.79   6
   2   1   8 58504.6 1695.79   4
   2   1   8 56343.8 1795.34   8
  -2   1  -8 61013.2 2319.01   7
  -2   1  -9 22624.4 1684.40   6
   2   1   9 20828.9 1558.78   9
  -2   1  -9 20848.7 1437.11   7
   2   1   9 19307.4 1132.60   8
   2   1   9 19979.8 1029.75   4
   2   1   9 20246.6 941.247   2
   2   1  10 16202.8 1442.06   9
  -2   1 -10 17344.3 1563.22   6
   2   1  10 17783.9 934.107   2
   2   1  10 16997.9 986.418   4
  -2   1 -10 18733.6 1437.89   7
   2   1  10 18169.3 1189.37   8
   2   1  11 15561.4 1496.86   9
  -2   1 -11 12232.0 1367.61   6
   2   1  11 13528.6 914.769   4
   2   1  11 13921.7 1096.76   8
   2   1  11 14530.9 885.174   2
  -2   1 -11 14134.9 1305.26   7
   2   1  12 25971.1 1246.23   2
  -2   1 -12 28126.2 2168.57   6
   2   1  12 25178.0 1271.99   4
   2   1  12 28302.2 2093.19   9
   2   1  12 29933.1 1700.07   8
  -2   1 -12 27226.0 1904.97   7
   2   1  13 16581.5 1344.64   8
  -2   1 -13 17509.0 1787.73   5
   2   1  13 15151.5 1607.44   9
  -2   1 -13 17560.6 1801.96   6
  -2   1 -13 17199.7 1582.17   7
  -2   1 -14 2613.19 780.013   6
  -2   1 -14 3578.80 768.484   7
  -2   1 -14 3922.90 921.212   5
   2   1  14 3096.45 790.242   9
   2   1  14 3677.58 683.432   8
  -2   1 -15 395.994 408.497   7
  -2   1 -15 969.628 612.960   5
   2   1  15-75.3681 349.781   9
   2   1  15 837.029 394.318   8
  -2   1 -16 3867.57 885.668   7
  -2   1 -16 3111.13 879.357   5
   2   1  16 3680.82 931.504   9
  -2   1 -17 1235.07 604.016   7
  -2   1 -17 1142.43 600.760   5
   2   1  17 785.270 598.175   9
   2   1  18-806.390 626.785   9
  -2   1 -18-5.63699 297.075   7
   2   1  19 2684.24 943.490   9
  -2   2  21 104.059 395.940   8
   2   2 -20 2524.66 936.968   7
  -2   2  20 1775.35 713.572   8
  -2   2  19 1591.32 719.046   8
   2   2 -19 1316.44 740.645   7
   2   2 -18 3101.53 922.025   7
  -2   2  18 3387.23 883.744   8
   2   2 -17 8583.54 1373.92   7
  -2   2  17 4998.31 1012.86   8
  -2   2  16 5846.57 1076.61   8
   2   2 -16 7105.25 1229.11   7
  -2   2  15 10891.5 1354.16   8
   2   2 -15 13129.5 1615.98   7
   2   2 -14 8950.17 1017.70   3
   2   2 -14 12935.6 1543.22   7
  -2   2  14 9422.46 1224.62   8
   2   2 -13 1577.05 538.087   7
  -2   2  13 2347.96 636.118   8
   2   2 -13 2256.72 539.986   3
  -2   2  13 2069.66 402.359   2
   2   2 -12 6038.61 787.485   3
  -2   2  12 7144.57 688.721   2
  -2   2  12 7247.73 1004.64   8
   2   2 -12 6875.23 1043.66   7
   2   2 -11 1710.69 562.385   7
   2   2 -11 2045.05 447.904   3
  -2   2  11 2561.49 405.248   2
  -2   2  11 2892.58 590.470   8
   2   2 -10 10504.5 1006.97   3
   2   2 -10 11575.9 1227.95   7
  -2   2  10 14270.5 1272.69   8
   2   2  -9 6431.28 895.254   7
   2   2  -9 5958.58 745.106   3
  -2   2   9 6680.50 462.703   3
  -2   2   9 5709.23 795.928   8
  -2   2   8 13654.9 677.042   3
   2   2  -8 15149.4 1146.93   3
   2   2  -8 14821.8 1253.37   7
  -2   2   8 13141.6 1119.83   8
  -2   2   7 35904.8 1784.33   8
  -2   2   7 35366.9 1146.98   3
   2   2  -7 32723.5 1644.92   3
   2   2  -7 34000.8 1813.99   7
  -2   2   6 58785.5 1586.83   3
   2   2  -6 60754.9 2209.62   3
  -2   2   6 59027.1 2207.88   8
   2   2  -6 61145.9 2287.19   7
   2   2  -5 29937.0 1507.09   7
  -2   2   5 30367.0 1539.94   8
  -2   2   5 31526.6 1239.06   3
   2   2  -5 29242.4 1509.26   3
   2   2  -4 73632.3 2351.37   3
  -2   2   4 66257.4 1932.48   3
  -2   2   4 72763.2 2351.80   8
   2   2  -4 69613.1 2157.91   7
   2   2  -3 32641.0 1549.22   3
  -2   2   3 31797.6 1407.03   3
   2   2  -3 29589.6 1341.85   7
  -2   2   3 34878.6 1582.74   8
   2   2  -2 13176.2 991.292   3
  -2   2   2 13619.4 881.942   6
  -2   2   2 13056.4 972.387   8
   2   2  -2 13214.8 840.414   7
   2   2  -1 826.506 273.904   3
  -2   2   1 1212.95 261.978   6
   2   2  -1 950.260 270.259   9
  -2   2   1 893.428 291.819   8
   2   2   0 5022.71 604.661   3
   2   2   0 5152.84 561.025   9
  -2   2   0 4022.93 504.073   6
   2   2   0 4779.65 560.194   4
  -2   2   0 4276.43 551.516   8
  -2   2  -1 5674.83 594.644   6
   2   2   1 5362.35 588.380   9
   2   2   1 4445.39 600.673   3
   2   2   1 3912.71 502.767   4
   2   2   2 81064.1 1639.64   6
  -2   2  -2 76206.2 2262.58   6
   2   2   2 77060.1 2034.65   4
   2   2   2 77023.6 2389.81   3
   2   2   2 75457.6 2281.65   9
   2   2   3 56684.0 2099.90   3
   2   2   3 57637.0 1523.40   6
  -2   2  -3 55994.2 2034.40   6
   2   2   3 54042.7 1650.33   4
   2   2   3 57720.1 2089.75   9
   2   2   4 86871.6 2650.88   3
   2   2   4 83094.9 2014.12   6
   2   2   4 82422.5 2620.15   9
   2   2   4 79004.6 1172.74   8
   2   2   4 81733.1 1960.06   4
  -2   2  -4 86045.8 2652.95   6
  -2   2  -5 10401.8 982.877   6
   2   2   5 10642.2 687.783   4
   2   2   5 9688.96 483.566   8
   2   2   5 10256.5 949.194   3
   2   2   5 10669.4 996.805   9
   2   2   6 24846.9 1520.22   3
  -2   2  -6 26395.0 1633.26   6
   2   2   6 24612.9 1004.65   4
   2   2   6 25863.8 895.551   8
   2   2   6 25897.9 1601.55   9
   2   2   7 24633.7 1638.88   9
  -2   2  -7 26076.7 1698.43   6
   2   2   7 25786.3 1012.75   8
  -2   2  -7 26671.7 1671.21   7
   2   2   7 24777.6 976.389   4
   2   2   8 36292.8 2108.25   9
  -2   2  -8 32944.7 2025.53   6
   2   2   8 33525.7 1117.09   4
   2   2   8 37457.8 1353.60   8
  -2   2  -8 34917.7 1970.80   7
   2   2   9 343.325 177.669   8
  -2   2  -9 546.191 327.019   7
   2   2   9 103.933 306.186   9
   2   2   9 705.886 169.701   4
  -2   2  -9 482.161 410.587   6
  -2   2 -10 8387.45 1055.88   7
   2   2  10 6505.51 992.485   9
  -2   2 -10 9534.50 1223.67   6
   2   2  10 7921.03 736.604   8
   2   2  10 5954.63 447.970   4
   2   2  11 4344.10 895.998   9
  -2   2 -11 5855.48 1015.57   6
  -2   2 -11 5698.72 932.949   7
   2   2  11 4914.63 629.869   8
   2   2  12 5135.20 954.327   9
  -2   2 -12 5077.04 922.544   7
   2   2  12 4733.24 665.825   8
  -2   2 -12 4318.26 908.088   6
  -2   2 -13 766.631 450.502   6
   2   2  13 885.271 470.614   9
  -2   2 -13 1695.84 613.618   7
   2   2  14 882.035 471.714   9
  -2   2 -14-143.778 516.429   6
  -2   2 -14 975.737 458.289   7
  -2   2 -15 8898.81 1324.67   7
  -2   2 -15 9418.24 1350.98   5
   2   2  15 8760.48 1414.19   9
   2   2  16 6883.88 1314.98   9
  -2   2 -16 4207.10 961.003   7
   2   2  17 4049.68 1090.59   9
  -2   2 -17 4780.34 1095.02   7
  -2   2 -18 3409.28 936.395   7
   2   2  18 4658.77 1176.07   9
  -2   2 -19 2155.99 829.528   7
  -2   3  19 1979.23 738.663   8
   2   3 -19 2128.03 881.912   7
  -2   3  18 878.697 535.201   8
   2   3 -18 702.643 533.934   7
  -2   3  17-188.787 408.102   8
   2   3 -17 472.221 415.168   7
  -2   3  16 120.618 361.745   8
   2   3 -16-77.7238 393.495   7
  -2   3  15 2825.74 758.228   8
   2   3 -15 1335.42 619.478   7
   2   3 -15 1271.94 531.339   3
   2   3 -14 2705.51 691.945   3
  -2   3  14 2050.14 643.172   8
   2   3 -14 2400.57 737.097   7
   2   3 -13 2813.88 684.516   3
  -2   3  13 2156.86 636.302   8
   2   3 -13 2657.18 814.477   7
   2   3 -12 20539.9 1721.48   3
  -2   3  12 19602.6 1711.76   8
   2   3 -12 18896.6 1815.69   7
   2   3 -11 22308.8 1748.95   3
  -2   3  11 25866.7 1871.15   8
   2   3 -11 23318.7 1944.08   7
  -2   3  10 13392.0 890.705   3
   2   3 -10 11618.4 1243.05   3
  -2   3  10 14607.2 1380.61   8
   2   3 -10 13127.4 1429.25   7
  -2   3   9 5064.60 554.798   3
   2   3  -9 5891.81 896.159   3
  -2   3   9 7315.28 976.378   8
   2   3  -9 7244.91 1017.34   7
  -2   3   8 3884.15 518.344   3
   2   3  -8 4541.48 762.366   3
  -2   3   8 3629.83 674.673   8
   2   3  -8 3442.78 684.637   7
  -2   3   7 6913.20 710.634   3
   2   3  -7 9034.71 1056.35   3
  -2   3   7 7601.04 919.918   8
   2   3  -7 7224.19 933.391   7
   2   3  -6 2196.47 536.354   3
   2   3  -6 1999.49 506.465   7
  -2   3   6 1755.61 486.517   8
  -2   3   6 1864.96 371.290   3
   2   3  -5 2980.59 588.124   3
  -2   3   5 3470.16 556.555   3
  -2   3   5 2367.61 525.979   8
   2   3  -5 3158.42 578.946   7
   2   3  -4 9190.30 1006.54   3
  -2   3   4 7412.63 815.179   3
   2   3  -4 6909.11 618.365   5
  -2   3   4 9206.88 949.665   8
   2   3  -4 7975.82 863.404   7
  -2   3   3 10124.6 996.641   3
   2   3  -3 8139.12 948.620   3
  -2   3   3 7407.76 857.758   8
  -2   3   3 8407.63 731.782   6
   2   3  -2 57980.6 2454.58   3
  -2   3   2 57965.4 1911.64   6
  -2   3   2 58929.1 2446.60   3
  -2   3   2 55138.5 2281.44   8
   2   3  -1 67988.4 2647.23   3
  -2   3   1 69537.9 2091.73   6
  -2   3   1 76216.9 2847.09   3
  -2   3   1 68269.1 2505.28   8
   2   3  -1 70137.4 2234.36   9
  -2   3   1 70926.7 1509.61   9
   2   3   0 42380.4 2068.87   3
  -2   3   0 40476.0 1628.06   6
  -2   3   0 41964.4 904.514   9
   2   3   0 43904.7 1815.76   9
   2   3   1 25580.0 1430.36   9
  -2   3  -1 24114.9 1303.26   6
   2   3   1 25149.7 1591.86   3
   2   3   2 4065.67 654.770   3
  -2   3  -2 5348.99 648.768   6
   2   3   2 5542.49 707.573   9
   2   3   3 30966.1 1756.10   3
  -2   3  -3 28840.1 1547.47   6
   2   3   3 33133.1 1752.38   9
   2   3   4 7637.25 522.270   6
   2   3   4 7459.64 887.024   3
  -2   3  -4 6276.14 770.406   6
   2   3   4 8739.82 965.148   9
   2   3   5 3007.32 330.561   8
   2   3   5 3129.24 617.623   3
   2   3   5 3058.73 386.372   6
  -2   3  -5 3065.79 625.648   6
   2   3   5 3510.98 654.085   9
   2   3   6 2537.77 568.176   3
   2   3   6 4082.15 730.069   9
  -2   3  -6 4194.78 713.576   6
   2   3   6 3314.04 369.132   8
   2   3   7 10582.9 1117.37   3
   2   3   7 9386.25 654.695   8
  -2   3  -7 10685.8 1173.74   6
   2   3   7 10824.7 1198.30   9
   2   3   8 16209.1 1402.49   3
  -2   3  -8 15664.1 1464.66   6
   2   3   8 17956.9 1582.08   9
   2   3   8 16032.7 909.962   8
  -2   3  -9 1274.27 484.791   6
   2   3   9 954.503 492.908   9
   2   3   9 1192.26 283.647   8
  -2   3 -10 7406.03 1121.70   6
   2   3  10 7962.10 1157.67   9
  -2   3 -11 18937.6 1833.31   6
   2   3  11 19960.5 1878.89   9
  -2   3 -12 3393.50 807.291   6
   2   3  12 3755.34 886.672   9
  -2   3 -12 4369.83 916.096   7
  -2   3 -13 7321.92 1272.29   6
   2   3  13 6398.34 1159.05   9
  -2   3 -13 6119.28 1118.68   7
   2   3  14 4459.12 1038.91   9
  -2   3 -14 2903.23 850.975   7
  -2   3 -14 2935.85 888.038   6
  -2   3 -15 104.674 403.711   7
   2   3  15 761.117 610.358   9
   2   3  16 199.380 420.692   9
  -2   3 -16-16.2887 482.630   7
   2   3  17 761.433 628.661   9
  -2   3 -17-361.065 454.248   7
  -2   3 -18 93.2987 450.811   7
  -2   4  17 6621.55 1405.91   9
  -2   4  17 7877.44 1326.16   8
   2   4 -17 5851.75 1326.41   7
  -2   4  16 699.307 527.159   8
   2   4 -16 906.961 655.059   7
   2   4 -15 3103.57 820.361   3
  -2   4  15 3904.98 892.659   8
   2   4 -15 3783.41 1015.09   7
   2   4 -14 2775.13 782.826   3
  -2   4  14 2058.83 643.112   8
   2   4 -14 3876.53 1013.58   7
   2   4 -13 1164.42 513.519   3
  -2   4  13 878.753 495.012   8
   2   4 -13 1203.81 661.275   7
   2   4 -12 1050.54 572.810   3
   2   4 -12 402.056 336.686   7
  -2   4  12 661.044 460.790   8
  -2   4  11 544.454 381.407   8
   2   4 -11 1051.30 471.708   3
   2   4 -11 1019.92 473.709   7
  -2   4  10 4204.48 637.591   3
   2   4 -10 4589.66 933.932   3
  -2   4  10 7083.68 1033.70   8
   2   4 -10 5832.42 1031.78   7
   2   4  -9 2814.66 723.364   7
  -2   4   9 2404.63 501.063   3
   2   4  -9 2507.37 674.567   3
  -2   4   9 2779.72 674.570   8
  -2   4   8 6222.14 814.226   3
   2   4  -8 6810.32 1073.16   3
   2   4  -8 8063.86 1153.46   7
  -2   4   8 5984.53 908.772   8
  -2   4   7 25208.3 1640.36   3
   2   4  -7 25641.5 2020.98   3
  -2   4   7 22955.9 1744.71   8
  -2   4   6 28563.0 1806.87   3
   2   4  -6 30465.5 2161.97   3
  -2   4   6 26264.6 1821.82   8
  -2   4   5 15282.8 1046.87   6
   2   4  -5 15488.0 1527.58   3
  -2   4   5 16569.3 1391.54   3
  -2   4   5 16726.3 1220.78   9
  -2   4   5 15363.6 1403.22   8
   2   4  -4 15932.9 1571.64   3
  -2   4   4 14969.8 1011.31   6
  -2   4   4 14543.1 1373.68   3
  -2   4   4 15910.1 1101.94   9
  -2   4   4 12283.1 1241.39   8
  -2   4   3 4879.29 575.403   6
   2   4  -3 5782.73 915.300   3
  -2   4   3 3642.16 739.116   3
  -2   4   3 5921.10 621.253   9
  -2   4   3 4076.16 746.480   8
   2   4  -2 11626.1 1288.28   3
  -2   4   2 11878.7 882.808   6
  -2   4   2 13836.6 1389.52   3
  -2   4   2 11375.9 771.120   9
  -2   4   2 11920.1 1206.19   8
  -2   4   1 2514.71 639.256   3
   2   4  -1 2765.75 507.071   9
   2   4  -1 2549.40 658.166   3
  -2   4   1 2170.55 404.989   6
  -2   4   1 3070.99 350.697   9
   2   4   0 9979.55 1181.60   3
  -2   4   0 8954.01 811.660   6
   2   4   0 9278.74 939.772   9
  -2   4   0 8682.82 1160.83   3
  -2   4   0 8995.06 470.333   9
  -2   4  -1 9941.46 1270.87   3
  -2   4  -1 9496.08 859.506   6
   2   4   1 9019.68 1123.10   3
   2   4   1 9704.56 974.050   9
  -2   4  -2 7637.63 808.969   6
  -2   4  -2 7277.66 1101.26   3
   2   4   2 7464.40 1009.29   3
   2   4   2 8012.49 928.550   9
  -2   4  -3 9020.61 920.807   6
   2   4   3 10455.3 1084.92   9
   2   4   3 8969.37 1092.01   3
  -2   4  -3 9064.45 1257.39   3
  -2   4  -4 18597.4 1386.31   6
   2   4   4 16377.8 1412.45   9
   2   4   4 18211.1 1564.89   3
  -2   4  -5 18276.3 1447.44   6
   2   4   5 16019.0 1443.45   9
   2   4   5 15708.2 1448.64   3
  -2   4  -6 10061.9 1123.18   6
   2   4   6 10629.2 1217.05   3
   2   4   6 10721.1 1235.50   9
   2   4   7 6342.61 1016.88   9
   2   4   7 5841.22 928.406   3
  -2   4  -7 6056.63 923.579   6
   2   4   8 12783.4 1367.69   3
  -2   4  -8 13942.5 1426.60   6
   2   4   8 13306.3 1483.09   9
   2   4   9 3953.21 796.925   3
  -2   4  -9 2965.73 716.703   6
   2   4   9 3419.85 816.622   9
   2   4  10 1784.34 584.564   3
  -2   4 -10 2169.62 659.903   6
   2   4  10 847.385 497.736   9
  -2   4 -11 149.443 344.735   6
   2   4  11 288.189 347.724   9
   2   4  12 8848.29 1399.46   9
  -2   4 -12 5260.60 1053.48   6
   2   4  13 1850.51 792.167   9
  -2   4 -13 734.616 565.251   6
   2   4  14 2864.16 885.422   9
   2   4  15 3372.46 991.397   9
  -2   5  16 18.6545 415.562   9
   2   5 -15-729.662 467.700   3
  -2   5  15-343.386 438.958   9
   2   5 -15-1200.42 667.713   7
  -2   5  14 424.390 367.339   9
  -2   5  14 2119.33 721.742   8
   2   5 -14 1189.69 648.587   3
   2   5 -13 3201.91 933.132   3
  -2   5  13 4349.23 1008.86   9
  -2   5  13 5121.65 1016.94   8
   2   5 -12 6960.95 1287.56   3
  -2   5  12 5428.96 1030.74   8
  -2   5  12 5823.43 1114.10   9
   2   5 -11 2655.90 859.400   3
  -2   5  11 2579.79 707.233   9
  -2   5  11 1226.01 538.872   8
   2   5 -10 7914.54 1369.67   3
  -2   5  10 9887.75 1331.21   8
  -2   5  10 7942.51 1178.36   9
  -2   5   9 2011.66 642.509   8
  -2   5   9 1698.29 507.936   3
   2   5  -9 2176.59 712.581   3
  -2   5   9 2492.56 677.050   9
   2   5  -8 2642.52 824.290   3
  -2   5   8 2961.19 687.324   9
  -2   5   8 4496.62 820.505   3
  -2   5   8 3263.33 804.861   8
  -2   5   7 299.582 280.183   3
   2   5  -7 969.524 526.569   3
  -2   5   7 1399.04 443.448   9
  -2   5   7 741.438 440.114   8
  -2   5   6-165.846 271.466   3
   2   5  -6 483.237 534.365   3
  -2   5   6-56.1569 215.028   9
  -2   5   6-367.250 402.098   8
   2   5  -5 924.819 534.757   3
  -2   5   5 1683.20 599.587   3
  -2   5   5 1157.56 370.771   9
  -2   5   5 2178.66 647.361   8
  -2   5   4 1214.25 367.341   9
   2   5  -4 1751.92 645.649   3
  -2   5   4 841.296 451.013   3
  -2   5   4 1071.16 479.805   8
   2   5  -3 12267.0 1502.44   3
  -2   5   3 12848.3 1496.28   3
   2   5  -2 10820.6 1446.92   3
  -2   5   2 9603.42 1327.80   3
   2   5  -1 3374.90 808.501   3
  -2   5   1 3157.95 821.243   3
  -2   5   0 12629.8 966.209   6
  -2   5   0 13792.0 1626.41   3
   2   5   0 12463.2 1194.50   9
   2   5   0 15557.6 1659.56   3
   2   5   1 5736.41 816.595   9
   2   5   1 5447.37 983.542   3
  -2   5  -1 5741.67 697.617   6
  -2   5  -1 5768.90 1096.99   3
   2   5   2 521.935 347.404   3
  -2   5  -2 613.996 255.748   6
  -2   5  -2 961.985 555.373   3
   2   5   2 544.519 274.686   9
   2   5   3 4669.66 933.480   3
  -2   5  -3 2947.67 555.309   6
  -2   5  -3 5491.63 1119.01   3
   2   5   3 3266.50 664.456   9
   2   5   4 5749.70 1009.71   3
  -2   5  -4 6721.22 1250.11   3
  -2   5  -4 5219.16 754.042   6
   2   5   4 5007.23 872.603   9
  -2   5  -5 616.547 355.581   6
   2   5   5 728.294 341.182   9
  -2   5  -5 120.934 462.514   3
   2   5   6 2931.04 774.263   3
  -2   5  -6 1418.00 477.285   6
   2   5   6 1571.43 509.324   9
  -2   5  -6 1823.84 750.209   3
   2   5   7 1752.11 584.886   3
  -2   5  -7 2152.14 585.785   6
   2   5   7 2069.08 627.452   9
  -2   5  -7 2798.20 822.187   3
   2   5   8 2516.38 699.328   3
  -2   5  -8 2434.05 684.488   6
   2   5   8 3543.93 870.340   9
  -2   5  -8 2151.30 823.555   3
   2   5   9 8056.40 1222.75   3
   2   5   9 8260.01 1278.77   9
  -2   5  -9 8333.26 1223.90   6
  -2   5  -9 7772.48 1453.27   3
  -2   5 -10 4402.82 1149.85   3
   2   5  10 3783.53 900.593   3
  -2   5 -10 6168.30 1103.30   6
   2   5  10 4817.37 1077.50   9
  -2   5 -11 1369.50 804.054   3
   2   5  11 3190.23 835.191   3
   2   5  11 3050.15 920.031   9
  -2   5 -11 2039.75 697.318   6
  -2   5 -12 4672.65 1252.50   3
   2   5  12 4660.82 1129.16   9
   2   5  13 2323.44 834.659   9
  -2   5 -13 2359.91 878.169   3
  -2   5 -14 1035.91 493.619   3
  -2   6  14 505.548 532.844   9
   2   6 -14-154.677 440.011   3
  -2   6  13 410.267 463.927   9
   2   6 -13 529.869 549.098   3
   2   6 -12-1240.47 684.023   3
  -2   6  12-204.389 473.364   9
   2   6 -11 106.583 400.728   3
  -2   6  11-25.3459 383.995   9
   2   6 -10 3062.02 943.975   3
  -2   6  10 378.757 463.213   8
  -2   6   9 2338.03 729.443   8
   2   6  -9 1643.12 814.840   3
   2   6  -8 1584.07 706.001   3
  -2   6   8 2448.81 741.112   3
  -2   6   8 1060.38 454.923   8
   2   6  -7 5170.43 1204.39   3
  -2   6   7 4304.34 934.352   3
  -2   6   7 4132.98 916.855   8
  -2   6   6 1176.25 532.813   3
   2   6  -6 1231.76 705.769   3
  -2   6   5 2360.70 726.139   3
   2   6  -5 1988.33 818.691   3
  -2   6   4 2313.52 800.307   3
   2   6  -4 2353.43 739.597   3
  -2   6   3 939.973 470.075   3
   2   6  -3 1521.58 760.571   3
   2   6  -2 1.20794 490.829   3
  -2   6   2 889.881 471.679   3
   2   6  -1 2964.66 871.049   3
  -2   6   1 3260.19 944.162   3
   2   6   0 1060.55 719.912   3
  -2   6   0 2455.72 849.879   3
   2   6   1 1275.94 638.632   3
   2   6   1 137.485 264.341   9
  -2   6  -1 1235.28 714.398   3
   2   6   2 1768.32 527.488   9
   2   6   2 2799.19 827.786   3
  -2   6  -2 3796.04 1045.12   3
   2   6   3 4208.79 829.432   9
   2   6   3 5353.65 1079.58   3
  -2   6  -3 6142.34 1308.72   3
  -2   6  -4 3660.09 1084.83   3
   2   6   4 1025.75 550.234   3
   2   6   4 3285.60 774.999   9
  -2   6  -5 3779.50 1099.52   3
   2   6   5 6888.17 1088.37   9
   2   6   5 5178.31 1062.73   3
  -2   6  -6 2172.29 956.786   3
   2   6   6 1689.93 614.905   3
   2   6   6 2579.79 740.191   9
   2   6   7 3388.21 834.727   9
   2   6   7 4117.27 983.225   3
  -2   6  -7 4469.65 1170.86   3
  -2   6  -8-467.395 542.787   3
   2   6   8 309.907 465.897   3
   2   6   9 1455.49 583.448   3
   2   6   9 1908.40 740.191   9
  -2   6  -9 112.028 587.644   3
   2   6  10 551.472 392.203   3
   2   6  10 951.844 584.916   9
  -2   6 -10 2085.49 1008.42   3
   2   6  11 2271.53 880.540   9
  -2   7   6 878.687 590.451   3
   2   7  -6 866.783 695.256   3
   2   7  -5 82.0672 443.405   3
  -2   7   5 874.406 399.005   3
   2   7  -4 1620.53 905.766   3
  -2   7   4 582.077 533.125   3
   2   7  -3 1256.66 639.722   3
  -2   7   3 1480.44 687.242   3
   2   7  -2 789.108 734.876   3
  -2   7   2 1666.17 720.272   3
   2   7  -1 3177.66 986.600   3
  -2   7   1 2083.25 800.620   3
   2   7   0 2630.40 913.323   3
  -2   7   0 4516.08 1218.48   3
   2   7   1 3226.28 1002.53   3
  -2   7  -1 1839.89 948.079   3
  -2   7  -2 1403.41 744.747   3
   2   7   2 158.897 599.072   3
   2   7   3 1661.35 829.772   3
  -2   7  -3 1430.39 864.350   3
   2   7   4 1221.83 606.727   3
  -2   7  -4 872.399 687.317   3
   2   7   5-19.0409 431.563   3
   2   7   6 655.542 609.033   3
   2   7   7 1463.97 681.750   3
   2   7   8 2003.18 781.050   3
  -3  -7   8 345.822 453.492   2
  -3  -7   7 553.680 516.097   2
  -3  -7   6 259.857 410.685   2
   3  -7  -5 1750.16 725.464   1
  -3  -7   5 1943.78 764.689   2
  -3  -7   5 1244.56 727.645   1
   3  -7  -4 764.469 580.535   1
  -3  -7   4-122.419 562.622   1
  -3  -7   3 319.331 573.649   1
   3  -7  -3 1654.90 740.080   1
   3  -7  -2 1222.90 600.653   1
  -3  -7   2 699.563 492.486   1
   3  -7  -1 597.306 505.574   2
  -3  -7   1 1094.05 604.437   1
   3  -7  -1 1142.14 654.823   1
  -3  -7   0 284.755 454.700   1
   3  -7   0 870.946 557.577   2
   3  -7   0 1782.57 713.828   1
   3  -7   1 3388.14 1024.21   1
  -3  -7  -1 2563.94 906.541   1
   3  -7   1 623.860 521.858   2
   3  -7   2 1178.01 596.516   1
   3  -7   2 896.523 685.045   2
  -3  -7  -2 683.228 519.745   1
  -3  -7  -3 508.454 440.708   1
   3  -7   3 2238.38 820.467   1
   3  -7   3 1085.13 621.342   2
   3  -7   4 577.118 478.776   2
  -3  -7  -4 917.810 678.487   1
   3  -7   4 1483.75 698.416   1
  -3  -7  -5 335.885 419.920   1
   3  -7   5 88.0512 461.825   1
   3  -6 -12-116.599 517.165   7
  -3  -6  12 719.249 519.514   2
  -3  -6  11 505.969 504.161   2
   3  -6 -11 132.684 366.869   1
  -3  -6  10 3830.33 1086.22   2
   3  -6 -10 518.958 416.389   1
  -3  -6   9 4034.34 1022.05   2
   3  -6  -9 3295.59 888.956   1
   3  -6  -8 2333.70 772.899   1
  -3  -6   8 2159.15 807.226   2
   3  -6  -7 4051.93 979.530   1
  -3  -6   7 3684.74 947.298   2
   3  -6  -6 654.816 452.880   1
  -3  -6   6 1030.02 516.692   2
   3  -6  -5 1913.59 697.934   1
  -3  -6   5 1893.84 708.913   2
  -3  -6   4 1412.20 618.168   2
   3  -6  -4 1144.14 546.651   1
  -3  -6   3 52.2960 389.357   1
  -3  -6   3 1104.07 541.195   2
   3  -6  -3 12.6126 401.982   1
  -3  -6   2-178.858 303.109   2
   3  -6  -2 163.062 369.804   1
  -3  -6   2 189.048 310.252   1
  -3  -6   1 4175.78 952.847   1
   3  -6  -1 2614.03 753.863   1
   3  -6  -1 3611.16 816.582   2
   3  -6   0 3815.16 887.461   1
  -3  -6   0 3057.17 893.285   1
   3  -6   0 2864.44 779.414   2
   3  -6   1 8207.85 1287.02   1
  -3  -6  -1 7327.05 1275.56   1
   3  -6   1 9915.38 1388.97   2
   3  -6   2 1331.46 561.115   2
  -3  -6  -2 2796.02 791.428   1
   3  -6   2 2835.64 798.327   1
  -3  -6  -3 3013.79 874.415   1
   3  -6   3 822.394 556.604   2
   3  -6   3 1926.11 708.787   1
   3  -6   4 2627.03 864.542   2
   3  -6   4 2067.69 694.123   1
  -3  -6  -4 4662.21 1035.09   1
  -3  -6  -5 2679.63 811.176   1
   3  -6   5 2725.66 814.677   1
   3  -6   5 1185.53 601.621   2
   3  -6   6 547.932 435.341   2
  -3  -6  -6 2587.66 784.820   1
   3  -6   6 1962.60 807.758   1
  -3  -6  -7 587.900 477.178   1
   3  -6   7-91.7666 379.355   1
   3  -6   7 621.159 524.647   2
   3  -6   8 213.954 573.242   2
   3  -6   8 607.412 627.946   1
  -3  -6  -8 1485.44 717.485   1
   3  -6   9 1052.11 675.921   2
  -3  -6  -9 505.773 443.498   1
  -3  -6 -10 1029.44 568.170   1
  -3  -6 -11 995.920 585.423   1
   3  -5 -16 3398.90 939.587   7
   3  -5 -15 1011.68 691.115   7
  -3  -5  15 664.146 586.739   2
   3  -5 -14 2066.60 715.574   7
  -3  -5  14 1338.18 726.479   2
   3  -5 -14 2199.86 736.246   1
   3  -5 -13 2911.06 871.117   7
  -3  -5  13 3785.62 970.438   2
   3  -5 -13 5599.07 1134.59   1
   3  -5 -12 5990.42 1110.84   7
  -3  -5  12 6863.00 1283.91   2
   3  -5 -12 8566.43 1357.89   1
  -3  -5  11-226.475 387.911   2
   3  -5 -11 317.047 410.972   1
  -3  -5  10-166.806 389.992   2
   3  -5 -10-780.564 499.666   1
  -3  -5   9 2218.51 753.959   2
   3  -5  -9 3031.73 871.334   1
  -3  -5   8 436.575 437.858   2
   3  -5  -8 5.57256 288.322   1
   3  -5  -7 710.300 487.285   1
  -3  -5   7 649.599 397.457   2
   3  -5  -6 2006.80 643.498   1
  -3  -5   6 1550.75 575.392   2
   3  -5  -5 11503.4 1383.98   1
  -3  -5   5 12813.5 1433.82   2
   3  -5  -4 19995.3 1800.10   1
  -3  -5   4 17698.2 1622.49   2
  -3  -5   3 1671.95 519.542   2
   3  -5  -3 2029.05 625.107   1
  -3  -5   2 10226.1 1153.55   2
   3  -5  -2 8995.27 1146.98   2
   3  -5  -2 10096.6 1270.09   1
  -3  -5   2 11178.3 1379.64   1
   3  -5  -1 6062.57 1007.71   1
  -3  -5   1 6199.26 876.455   2
   3  -5  -1 5978.06 952.431   2
  -3  -5   1 6850.10 1119.46   1
   3  -5   0 3947.73 848.406   1
  -3  -5   0 4220.25 848.102   1
  -3  -5   0 5338.02 779.252   2
   3  -5   0 5265.80 925.653   2
  -3  -5  -1 786.397 295.968   2
   3  -5   1 1150.27 503.364   1
  -3  -5  -1 344.567 259.721   1
   3  -5   1 973.992 481.689   2
   3  -5   2 2780.96 724.551   1
  -3  -5  -2 2202.12 674.907   1
   3  -5   2 2646.99 664.395   2
   3  -5   3 679.098 499.846   2
  -3  -5  -3-416.796 543.011   5
   3  -5   3 44.8686 289.803   1
  -3  -5  -3-19.0870 279.844   1
   3  -5   4 1154.36 528.060   2
   3  -5   4 386.299 366.113   1
  -3  -5  -4 120.257 411.320   5
  -3  -5  -4 328.430 345.058   1
   3  -5   5 4007.71 910.893   2
  -3  -5  -5 3795.62 825.602   1
  -3  -5  -5 5497.28 1206.19   5
   3  -5   5 4559.23 917.934   1
   3  -5   6 7021.09 1207.82   2
  -3  -5  -6 9264.34 1255.97   1
  -3  -5  -6 9145.45 1569.87   5
  -3  -5  -7 6096.75 1052.40   1
  -3  -5  -7 5219.64 1262.36   5
   3  -5   7 4362.74 1017.97   2
  -3  -5  -8 3111.82 787.891   1
   3  -5   8 987.372 560.072   2
  -3  -5  -8 1885.25 769.454   5
   3  -5   9 2567.64 807.917   2
  -3  -5  -9 3859.45 1189.05   5
  -3  -5  -9 6057.54 1061.16   1
  -3  -5 -10 3050.81 1119.03   5
   3  -5  10 2537.02 859.579   2
  -3  -5 -10 4316.51 918.919   1
  -3  -5 -11 43.1996 480.360   5
  -3  -5 -11 851.754 437.078   1
   3  -5  12-138.206 536.143   2
  -3  -5 -12 1244.32 599.485   1
  -3  -5 -12 953.131 692.966   5
  -3  -5 -13-389.273 466.342   1
   3  -4 -18 551.207 425.368   7
   3  -4 -17 2851.42 841.922   7
  -3  -4  17 2893.65 916.487   2
   3  -4 -16 2205.43 739.835   7
  -3  -4  16 2203.63 847.679   2
   3  -4 -15 210.716 413.444   7
  -3  -4  15 186.338 514.570   2
   3  -4 -14 317.778 323.796   7
  -3  -4  14 417.111 484.496   2
   3  -4 -13 647.793 427.399   7
  -3  -4  13 2148.46 692.685   2
   3  -4 -13 1171.08 602.557   1
   3  -4 -12 3662.91 846.815   7
  -3  -4  12 4962.46 1062.08   2
   3  -4 -12 5039.48 1007.97   1
   3  -4 -11 5107.41 953.810   7
   3  -4 -11 3691.49 810.160   1
  -3  -4  11 3232.69 866.239   2
   3  -4 -10 21464.9 1829.94   1
  -3  -4  10 24398.6 2080.06   2
   3  -4  -9 12570.7 1375.44   1
  -3  -4   9 11928.7 1440.63   2
   3  -4  -8 11846.1 1312.34   1
  -3  -4   8 13258.3 1474.09   2
  -3  -4   7 4809.21 893.754   2
   3  -4  -7 4355.43 578.940   4
   3  -4  -7 3608.02 774.278   1
   3  -4  -6 9616.54 1162.60   1
  -3  -4   6 8990.39 1150.88   2
   3  -4  -6 8409.92 833.251   4
   3  -4  -5 5167.28 674.219   4
   3  -4  -5 5485.53 881.479   1
  -3  -4   5 5215.75 828.921   2
   3  -4  -4 730.015 357.108   1
  -3  -4   4 1039.75 418.882   2
  -3  -4   3 879.638 382.396   2
   3  -4  -3 1298.99 409.897   1
  -3  -4   2 1548.58 241.421   6
  -3  -4   2 2433.07 533.031   2
   3  -4  -2 2319.74 568.886   1
   3  -4  -2 1562.17 457.870   2
   3  -4  -1 2755.17 600.842   1
  -3  -4   1 1877.94 508.747   5
  -3  -4   1 2468.94 491.656   2
   3  -4  -1 2562.81 558.043   2
   3  -4   0 20637.6 1586.65   1
  -3  -4   0 20882.4 1639.21   1
  -3  -4   0 18837.2 1648.30   5
   3  -4   0 21799.4 1658.57   2
  -3  -4   0 20187.5 1330.80   2
   3  -4   1 19916.3 1563.71   1
  -3  -4  -1 19199.1 1588.69   1
  -3  -4  -1 19940.8 1761.58   5
  -3  -4  -1 19377.6 1234.38   2
   3  -4   1 19230.7 1596.21   2
   3  -4   2 9992.58 1106.37   1
  -3  -4  -2 9671.80 1288.80   5
  -3  -4  -2 9138.63 1096.58   1
  -3  -4  -2 11628.9 895.551   2
   3  -4   2 11860.6 1278.41   2
  -3  -4  -3 22436.2 1691.62   1
   3  -4   3 23663.3 1852.51   2
   3  -4   3 17784.7 1486.93   1
  -3  -4  -3 21332.3 2005.20   5
  -3  -4  -3 22655.0 1148.46   2
   3  -4   4 2329.35 654.066   2
  -3  -4  -4 3840.04 712.039   1
  -3  -4  -4 2959.61 848.684   5
   3  -4   5 11177.6 1339.70   2
  -3  -4  -5 12863.5 1288.00   1
  -3  -4  -5 12466.6 1664.54   5
   3  -4   6 3718.96 827.505   2
  -3  -4  -6 5310.50 836.282   1
  -3  -4  -6 5182.00 1140.92   5
  -3  -4  -7 58.0851 284.431   1
  -3  -4  -7-294.793 374.784   5
   3  -4   7 533.946 498.752   2
   3  -4   8 3404.63 864.903   2
  -3  -4  -8 1967.22 824.896   5
  -3  -4  -8 2850.41 659.427   1
   3  -4   9 126.089 392.151   2
  -3  -4  -9 1513.01 488.709   1
  -3  -4  -9 583.007 605.692   5
   3  -4  10 4813.83 1006.88   2
  -3  -4 -10 5597.77 919.245   1
  -3  -4 -10 2984.42 951.792   5
  -3  -4 -11 1952.44 894.841   5
   3  -4  11 721.924 479.330   2
  -3  -4 -11 1698.85 564.754   1
   3  -4  12 6890.62 1266.80   2
  -3  -4 -12 6200.25 1021.09   1
  -3  -4 -12 7709.33 1643.51   5
   3  -4  13 4289.78 1029.40   2
  -3  -4 -13 3169.04 1165.18   5
   3  -4  14 2885.43 902.005   2
  -3  -4 -14 5777.24 1463.77   5
   3  -4  15 812.714 600.558   2
   3  -3 -19-499.727 509.649   7
  -3  -3  19 655.708 567.932   2
   3  -3 -18 670.262 495.747   7
  -3  -3  18 711.936 575.928   2
   3  -3 -17 1569.74 658.041   7
  -3  -3  17 1445.72 646.541   2
   3  -3 -16 3209.89 811.218   7
  -3  -3  16 4658.50 1008.46   2
  -3  -3  15 17680.8 1894.30   2
   3  -3 -15 17984.0 1819.47   7
   3  -3 -14 5976.74 1049.71   7
  -3  -3  14 6448.59 1132.96   2
   3  -3 -13 6212.90 994.214   7
  -3  -3  13 5455.32 1030.23   2
   3  -3 -12 3222.28 717.794   7
  -3  -3  12 2701.87 742.498   2
   3  -3 -11 5383.93 872.612   7
  -3  -3  11 5884.97 998.036   2
   3  -3 -11 5365.30 888.771   1
   3  -3 -10 2804.64 635.231   7
  -3  -3  10 2764.26 717.682   2
   3  -3 -10 3392.87 709.867   1
   3  -3  -9 1321.50 278.488   4
  -3  -3   9 1368.27 508.528   2
   3  -3  -9 1444.33 479.097   1
   3  -3  -8 206.169 254.524   1
  -3  -3   8 538.031 325.549   2
   3  -3  -8 370.426 178.769   4
  -3  -3   7 7565.66 1001.35   2
   3  -3  -7 6903.63 658.589   4
   3  -3  -7 7319.89 911.565   1
   3  -3  -6 15210.2 1260.88   1
   3  -3  -6 14260.3 976.807   4
  -3  -3   6 14409.4 1303.84   2
   3  -3  -5 29430.0 1722.26   1
   3  -3  -5 33025.6 1519.93   4
  -3  -3   5 31421.8 1845.85   2
   3  -3  -4 33481.2 1781.68   1
  -3  -3   4 30952.4 1358.36   5
   3  -3  -4 34842.4 1614.15   4
  -3  -3   4 31707.3 1783.81   2
  -3  -3   3 17034.4 1264.46   2
   3  -3  -3 19543.9 1348.13   1
  -3  -3   3 19234.6 1200.66   5
   3  -3  -2 33488.0 1726.60   1
  -3  -3   2 36243.7 1768.50   5
  -3  -3   2 35350.6 1728.83   2
  -3  -3   1 16413.7 839.603   6
   3  -3  -1 12931.8 1067.24   1
  -3  -3   1 14849.4 1219.54   5
   3  -3  -1 14783.5 1216.51   2
  -3  -3   1 15895.3 1120.47   2
  -3  -3   0 4340.99 411.044   6
  -3  -3   0 4754.71 758.448   5
  -3  -3   0 4613.65 434.342   8
   3  -3   0 4560.21 637.203   1
  -3  -3   0 4305.73 650.741   1
   3  -3   0 4220.74 684.301   2
  -3  -3   0 4412.97 583.947   2
   3  -3   1 2008.05 448.739   1
  -3  -3  -1 2902.01 324.368   6
  -3  -3  -1 2386.76 508.295   1
   3  -3   1 2694.18 546.748   2
  -3  -3  -1 2783.20 603.601   5
  -3  -3  -1 2687.83 426.618   2
  -3  -3  -1 2734.96 307.281   8
   3  -3   2 434.068 336.889   2
  -3  -3  -2 421.917 147.182   6
  -3  -3  -2 569.710 295.189   1
  -3  -3  -2 677.584 208.112   2
   3  -3   2 549.301 275.473   1
  -3  -3  -2 414.461 108.595   8
  -3  -3  -2 427.907 337.405   5
   3  -3   3 3078.05 651.296   2
  -3  -3  -3 2692.56 360.778   2
  -3  -3  -3 2788.22 349.847   6
  -3  -3  -3 2332.84 656.905   5
  -3  -3  -3 2604.42 512.083   1
   3  -3   4 2570.85 599.614   2
  -3  -3  -4 2357.51 702.414   5
  -3  -3  -4 2479.19 366.438   6
  -3  -3  -4 2308.94 298.833   2
  -3  -3  -4 2385.92 494.466   1
   3  -3   5 6239.96 920.461   2
  -3  -3  -5 5710.28 601.482   6
  -3  -3  -5 5922.43 750.462   1
  -3  -3  -5 6042.57 1078.15   5
  -3  -3  -5 5890.16 389.023   2
  -3  -3  -6 14057.0 831.923   7
  -3  -3  -6 14820.8 1032.83   6
   3  -3   6 13617.1 1384.27   2
  -3  -3  -6 12903.7 1601.35   5
  -3  -3  -6 12715.1 1115.97   1
  -3  -3  -7 25545.1 1591.97   1
   3  -3   7 25311.6 1925.62   2
  -3  -3  -7 25212.9 1453.07   6
  -3  -3  -7 29025.6 2436.06   5
  -3  -3  -7 25511.5 1176.88   7
  -3  -3  -8 12121.8 1107.93   1
   3  -3   8 9953.46 1284.39   2
  -3  -3  -8 9770.94 967.516   6
  -3  -3  -8 11846.0 1637.07   5
  -3  -3  -8 11420.4 845.388   7
  -3  -3  -9 19048.9 1429.92   1
   3  -3   9 19418.1 1769.40   2
  -3  -3  -9 18939.8 2109.10   5
   3  -3  10 2356.95 707.235   2
  -3  -3 -10 3106.75 624.228   1
  -3  -3 -10 2980.75 969.904   5
   3  -3  11 10003.4 1365.74   2
  -3  -3 -11 11292.2 1736.63   5
   3  -3  12 2863.95 844.486   2
  -3  -3 -12 2174.37 893.188   5
   3  -3  13 322.016 389.431   2
  -3  -3 -13 835.984 669.024   5
  -3  -3 -14 2212.31 966.071   5
   3  -3  14-95.9391 445.122   2
   3  -3  15-427.022 548.425   2
  -3  -3 -15 26.5159 553.790   5
   3  -3  16 2154.72 756.627   2
  -3  -3 -16 6047.38 1534.86   5
   3  -3  17 2440.88 829.285   2
  -3  -2  21 1652.56 675.995   2
   3  -2 -20 5341.20 1176.57   7
  -3  -2  20 5681.58 1160.79   2
   3  -2 -19 8677.84 1432.19   7
  -3  -2  19 11486.5 1588.99   2
  -3  -2  19 6560.84 1291.46   8
   3  -2 -18 6046.75 1159.51   7
  -3  -2  18 6665.17 1305.11   8
  -3  -2  18 7954.66 1283.72   2
  -3  -2  17 1708.50 622.855   2
   3  -2 -17 825.883 493.394   7
  -3  -2  17 1122.63 539.485   8
   3  -2 -16 2331.08 735.274   7
  -3  -2  16 3404.36 826.422   2
  -3  -2  16 4458.97 971.369   8
   3  -2 -15-444.896 470.798   7
  -3  -2  15 853.106 536.426   2
   3  -2 -14-126.584 348.787   7
  -3  -2  14-122.108 423.522   2
   3  -2 -13 596.500 398.038   7
  -3  -2  13 555.220 354.845   2
   3  -2 -12 17428.2 1537.58   7
  -3  -2  12 19338.3 1676.95   2
  -3  -2  11 15722.7 1458.19   2
   3  -2 -11 16937.2 959.172   4
   3  -2 -11 17390.4 1458.77   7
   3  -2 -10 20246.4 1056.33   4
  -3  -2  10 21868.2 1661.16   2
   3  -2 -10 21498.5 1559.96   7
   3  -2  -9 16093.3 940.281   4
  -3  -2   9 14966.5 1344.74   2
   3  -2  -9 15881.7 1307.00   7
   3  -2  -8 31580.4 1309.78   4
   3  -2  -8 33964.4 1815.32   7
  -3  -2   8 30100.8 1840.90   2
   3  -2  -8 29926.6 1683.12   1
   3  -2  -7 16426.9 1201.10   1
   3  -2  -7 16219.6 953.232   4
  -3  -2   7 16454.9 1324.15   2
   3  -2  -6 27661.4 1267.28   4
   3  -2  -6 29724.1 1531.78   1
  -3  -2   6 29153.8 1672.49   2
   3  -2  -5 12955.8 987.848   1
   3  -2  -5 11353.7 821.429   4
  -3  -2   5 12148.9 580.911   5
  -3  -2   5 11020.0 982.045   2
  -3  -2   4 3800.02 564.399   2
  -3  -2   4 3867.65 413.359   5
   3  -2  -4 2964.55 437.289   4
   3  -2  -4 2388.13 427.005   1
   3  -2  -3 8137.51 734.908   1
  -3  -2   3 7670.35 662.120   5
   3  -2  -3 8407.77 749.402   4
  -3  -2   3 7909.77 770.814   2
   3  -2  -2 3924.32 501.656   1
  -3  -2   2 4227.71 550.959   5
   3  -2  -2 4703.85 582.354   4
  -3  -2   2 4659.14 553.979   2
   3  -2  -1 44525.4 1595.62   1
  -3  -2   1 39546.3 1779.99   5
  -3  -2   1 42413.4 1579.57   2
  -3  -2   1 46404.5 1348.77   7
  -3  -2   0 76912.5 1983.34   6
   3  -2   0 73601.6 2022.95   1
  -3  -2   0 70783.2 2552.66   5
   3  -2   0 71995.0 2420.81   2
  -3  -2   0 79477.0 1612.81   7
  -3  -2  -1 7695.24 623.972   6
   3  -2   1 8631.04 700.389   1
  -3  -2  -1 7601.34 679.767   1
  -3  -2  -1 9031.29 968.393   5
  -3  -2  -1 8047.71 469.689   7
   3  -2   1 7063.95 790.009   2
  -3  -2  -2 45566.2 1541.20   6
  -3  -2  -2 47860.9 1669.87   1
  -3  -2  -2 44234.1 2289.07   5
   3  -2   2 48511.4 2071.21   2
  -3  -2  -2 47254.5 1075.17   7
  -3  -2  -3 88742.0 2241.02   6
  -3  -2  -3 90091.0 2300.45   1
  -3  -2  -3 87033.2 3332.46   5
   3  -2   3 90997.2 2917.57   2
  -3  -2  -4 8267.99 711.113   1
  -3  -2  -4 8832.57 750.889   6
  -3  -2  -4 8936.80 1136.59   5
   3  -2   4 8176.80 483.216   9
  -3  -2  -4 8301.49 443.091   7
   3  -2   4 9583.22 992.926   2
  -3  -2  -5 16984.0 1616.46   5
  -3  -2  -5 14008.0 936.930   1
  -3  -2  -5 13677.1 998.861   6
  -3  -2  -5 14365.6 649.133   7
   3  -2   5 15059.3 1279.39   2
  -3  -2  -5 13133.3 636.078   2
   3  -2   5 14716.7 720.802   9
   3  -2   6 7796.01 940.424   2
  -3  -2  -6 9922.07 820.846   1
   3  -2   6 8853.08 619.012   9
  -3  -2  -6 10534.7 1345.24   5
  -3  -2  -6 10343.7 927.876   6
  -3  -2  -6 8814.61 474.330   2
  -3  -2  -6 8664.63 570.304   7
   3  -2   7 747.420 335.646   2
  -3  -2  -7 453.187 108.332   2
  -3  -2  -7 763.079 295.245   6
  -3  -2  -7 1236.97 586.618   5
   3  -2   7 405.289 169.719   9
  -3  -2  -7 492.365 223.680   1
  -3  -2  -7 546.735 162.164   7
  -3  -2  -8 789.549 220.340   7
  -3  -2  -8 771.512 372.676   6
  -3  -2  -8 551.733 235.520   1
  -3  -2  -8 351.854 506.607   5
   3  -2   8 814.549 267.789   9
   3  -2   8 521.085 315.545   2
  -3  -2  -9-67.8766 142.888   7
   3  -2   9 239.259 330.729   2
   3  -2   9 54.2052 167.337   9
  -3  -2  -9 248.594 248.494   6
  -3  -2  -9-164.894 517.445   5
   3  -2  10 11450.7 1285.94   2
  -3  -2 -10 12063.1 1253.43   6
   3  -2  10 12140.2 1023.05   9
  -3  -2 -10 11153.7 1569.93   5
  -3  -2 -10 11413.6 917.356   7
   3  -2  11 5450.04 933.921   2
  -3  -2 -11 4726.49 858.117   6
  -3  -2 -11 6230.92 1248.76   5
   3  -2  11 5195.75 733.501   9
   3  -2  12 8922.24 1202.95   2
  -3  -2 -12 8807.47 1186.44   6
  -3  -2 -12 12028.9 1757.79   5
   3  -2  12 9806.62 1027.72   9
   3  -2  13 7614.53 1161.94   2
  -3  -2 -13 9891.81 1645.52   5
  -3  -2 -14 11315.5 1812.07   5
   3  -2  14 11149.9 1425.03   2
   3  -2  15 7145.00 1177.16   2
  -3  -2 -15 6899.50 1436.49   5
   3  -2  16 5295.25 1066.71   2
  -3  -2 -16 6649.22 1565.38   5
   3  -2  17 1736.47 646.662   2
  -3  -2 -17 2023.15 995.079   5
   3  -1 -20 345.954 366.502   7
  -3  -1  20-201.376 323.329   2
  -3  -1  20-126.556 534.574   8
   3  -1 -19 1044.09 663.568   7
  -3  -1  19 789.691 533.252   2
  -3  -1  19 586.608 602.502   8
  -3  -1  18 2265.60 705.721   2
   3  -1 -18 1530.05 760.161   7
  -3  -1  18 2496.85 805.357   8
  -3  -1  17 1722.26 704.612   8
   3  -1 -17 2873.64 811.357   7
  -3  -1  17 3424.76 783.269   2
   3  -1 -16 7402.67 1182.58   7
  -3  -1  16 6481.34 1042.12   2
  -3  -1  16 6431.25 1123.38   8
   3  -1 -15 5092.00 950.445   7
  -3  -1  15 4917.13 873.741   2
  -3  -1  15 5251.67 1014.48   8
  -3  -1  14 32798.9 2317.51   8
  -3  -1  14 30729.3 2063.26   2
   3  -1 -14 31337.8 2202.51   7
   3  -1 -13 4544.75 836.709   7
  -3  -1  13 6087.66 993.955   8
  -3  -1  13 3979.74 732.142   2
  -3  -1  12 31642.1 2100.16   8
  -3  -1  12 29812.9 1905.28   2
   3  -1 -12 30140.2 1968.69   7
   3  -1 -11 717.335 350.706   7
  -3  -1  11 1033.26 413.775   8
  -3  -1  11 810.764 363.596   2
   3  -1 -10 6298.40 824.735   7
  -3  -1  10 6045.82 858.924   8
   3  -1 -10 5064.25 601.374   4
  -3  -1  10 6273.74 836.720   2
  -3  -1   9 16446.2 1320.58   8
  -3  -1   9 15463.6 764.439   5
   3  -1  -9 15668.8 1008.83   4
  -3  -1   9 14047.0 1172.57   2
   3  -1  -9 16271.4 1263.25   7
   3  -1  -8 19901.0 1110.57   4
  -3  -1   8 19995.5 804.504   5
  -3  -1   8 19322.0 1357.85   8
  -3  -1   8 18840.6 1299.84   2
   3  -1  -8 20864.8 1343.86   7
  -3  -1   7 49205.6 2032.62   8
  -3  -1   7 45544.3 1560.03   3
  -3  -1   7 47734.0 1211.01   5
   3  -1  -7 46813.7 1666.47   4
  -3  -1   7 48853.1 2014.60   2
   3  -1  -7 47617.3 1929.62   7
  -3  -1   6 7396.05 624.689   3
   3  -1  -6 7845.98 754.506   7
  -3  -1   6 8893.86 827.192   8
  -3  -1   6 8416.96 806.335   2
   3  -1  -6 7955.59 685.749   4
  -3  -1   5 50271.4 1802.06   8
   3  -1  -5 48383.4 1655.55   4
   3  -1  -5 48761.1 1760.75   7
   3  -1  -4 42709.9 1550.69   4
  -3  -1   4 40983.6 1494.31   8
   3  -1  -4 39652.8 1385.26   1
   3  -1  -3 42752.9 1329.38   1
   3  -1  -3 43912.9 1585.50   4
  -3  -1   3 42161.0 1317.10   7
  -3  -1   3 45707.5 1460.41   8
  -3  -1   2 96493.9 1743.76   7
   3  -1  -2 95042.7 1818.56   1
   3  -1  -2 96852.2 2382.98   4
  -3  -1   2 94982.9 1880.36   8
   3  -1  -1 85163.9 1592.54   1
  -3  -1   1 85158.5 1564.81   8
   3  -1  -1 83946.2 2258.17   4
  -3  -1   1 86371.4 1379.39   7
  -3  -1   0 54226.5 1788.61   6
   3  -1   0 54860.5 1198.09   1
   3  -1   0 55891.2 1898.11   4
  -3  -1   0 53586.5 1059.39   8
  -3  -1   0 53046.3 786.430   7
  -3  -1  -1 43273.9 1598.76   6
  -3  -1  -1 42916.7 802.520   8
   3  -1   1 43556.5 1054.24   1
  -3  -1  -1 44887.7 1120.17   1
   3  -1   1 46438.1 1782.31   4
  -3  -1  -2 17515.5 1067.50   6
  -3  -1  -2 17611.8 689.474   1
   3  -1   2 19375.1 867.027   9
   3  -1   2 17233.8 1107.34   2
   3  -1   3 11205.5 906.464   2
  -3  -1  -3 11519.4 585.496   1
  -3  -1  -3 11213.1 883.246   6
   3  -1   3 10761.6 678.722   9
  -3  -1  -4 43685.6 1785.83   6
   3  -1   4 43975.7 1861.75   2
  -3  -1  -4 44559.6 1400.31   2
  -3  -1  -4 42824.9 802.839   7
  -3  -1  -4 45885.0 1234.50   1
   3  -1   4 45266.6 1465.99   9
  -3  -1  -5 27226.0 1086.09   2
  -3  -1  -5 25999.7 1462.58   6
   3  -1   5 27058.6 1490.04   2
   3  -1   5 28379.7 1253.88   9
  -3  -1  -5 26996.0 827.750   7
  -3  -1  -6 29703.8 1630.35   6
  -3  -1  -6 29059.6 1137.13   2
   3  -1   6 26561.8 1296.24   9
  -3  -1  -6 31686.4 1058.82   7
   3  -1   6 31512.2 1675.31   2
   3  -1   7 10052.4 860.942   9
  -3  -1  -7 11546.0 1091.26   6
  -3  -1  -7 9561.92 660.595   7
   3  -1   7 10069.9 986.048   2
  -3  -1  -8 33101.0 1908.72   6
  -3  -1  -8 34781.3 2420.03   5
   3  -1   8 35624.8 1706.09   9
   3  -1   8 38567.7 1960.93   2
  -3  -1  -8 33522.0 1356.16   7
  -3  -1  -9 25607.6 1778.09   6
  -3  -1  -9 23449.5 2078.92   5
   3  -1   9 24666.0 1502.62   9
   3  -1   9 25991.8 1671.04   2
  -3  -1  -9 24094.5 1262.65   7
  -3  -1 -10 25056.8 1861.52   6
  -3  -1 -10 24133.0 2195.95   5
   3  -1  10 25704.4 1623.56   9
   3  -1  10 22572.6 1620.54   2
  -3  -1 -10 23906.2 1345.50   7
  -3  -1 -11 5159.79 686.014   7
  -3  -1 -11 4442.75 828.969   6
   3  -1  11 4427.85 735.160   9
  -3  -1 -11 5297.13 1098.79   5
   3  -1  11 4361.22 750.022   2
  -3  -1 -12 954.635 375.870   7
   3  -1  12 502.500 321.475   2
  -3  -1 -12 681.658 351.160   6
  -3  -1 -12 88.1006 490.743   5
   3  -1  12 296.816 222.869   9
  -3  -1 -13 3978.41 682.802   7
   3  -1  13 3647.99 731.157   9
   3  -1  13 3323.75 697.365   2
  -3  -1 -13 4828.27 959.922   6
  -3  -1 -13 3703.45 1000.32   5
  -3  -1 -14 2803.63 938.876   5
   3  -1  14 2353.34 640.410   2
  -3  -1 -14 3712.60 934.393   6
   3  -1  14 2337.10 656.768   9
   3  -1  15 3121.99 731.227   2
   3  -1  15 2191.19 635.623   9
  -3  -1 -15 1296.01 639.305   5
  -3  -1 -16 1677.83 783.419   5
   3  -1  16 1394.91 517.110   9
  -3  -1 -17 4279.84 1190.56   5
  -3  -1 -18 6476.19 1488.80   5
  -3  -1 -19 1117.68 774.933   5
  -3   0  21 2287.83 805.681   8
  -3   0  20 6006.92 1255.53   8
   3   0 -20 3127.01 958.039   7
   3   0 -19 2521.26 862.388   7
  -3   0  19 3837.33 961.806   8
  -3   0  18 5670.22 936.390   2
  -3   0  18 6462.08 1221.07   8
   3   0 -18 6241.98 1182.64   7
   3   0 -17 1242.46 648.830   7
  -3   0  17 803.952 387.783   2
  -3   0  17 120.365 365.493   8
   3   0 -16 4139.34 917.296   7
  -3   0  16 4591.38 816.454   2
  -3   0  16 4428.79 966.693   8
   3   0 -15-59.6145 314.802   7
  -3   0  15 194.159 312.272   8
  -3   0  15 488.375 398.244   2
   3   0 -14 443.376 374.967   7
  -3   0  14-95.4604 249.225   2
  -3   0  14 209.479 341.756   8
  -3   0  13 7862.56 949.709   2
  -3   0  13 9437.01 1189.19   8
   3   0 -13 10335.5 1238.88   7
   3   0 -12 8473.99 1076.81   7
  -3   0  12 6726.32 993.175   8
  -3   0  12 7861.67 919.196   2
  -3   0  11 8509.05 1039.90   8
  -3   0  11 10484.2 1001.18   2
   3   0 -11 12320.3 1213.84   7
   3   0 -10 1645.40 477.576   7
  -3   0  10 2204.79 431.416   2
  -3   0  10 1931.26 530.400   8
   3   0  -9 75557.3 2498.62   4
   3   0  -9 72942.8 2669.75   7
  -3   0   9 80471.8 2888.49   8
  -3   0   8 67448.6 2513.58   8
   3   0  -8 69029.5 2307.94   4
   3   0  -8 67725.0 2415.78   7
  -3   0   7 27069.0 763.070   3
  -3   0   7 30087.3 1576.27   8
   3   0  -7 28101.8 1417.84   4
   3   0  -7 29121.5 1499.03   7
  -3   0   6 5516.29 382.790   3
  -3   0   6 6026.57 690.236   8
   3   0  -6 5490.41 616.487   7
   3   0  -6 5824.26 634.723   4
  -3   0   5 42230.3 1105.00   3
   3   0  -5 43273.9 1663.10   4
   3   0  -5 45106.0 1611.12   7
  -3   0   5 46518.8 1736.81   8
  -3   0   4 45971.7 1255.67   3
   3   0  -4 44534.3 1664.62   4
  -3   0   4 46242.3 1627.48   8
   3   0  -4 45192.6 1486.79   7
  -3   0   3 11894.7 679.933   3
   3   0  -3 12357.5 854.217   4
  -3   0   3 11910.6 775.100   8
   3   0  -3 12385.0 708.248   7
  -3   0   2 41357.1 1354.36   3
   3   0  -2 43018.7 1577.06   4
   3   0  -2 43206.8 1377.43   8
  -3   0   2 40979.5 1348.52   8
   3   0  -2 42627.7 1181.11   7
  -3   0   1 88751.8 2403.08   6
   3   0  -1 89924.1 2266.18   4
  -3   0   1 83768.1 1843.03   8
  -3   0   1 88538.9 1177.62   1
   3   0  -1 89439.0 1891.04   8
  -3   0   0 28774.0 1380.23   6
   3   0   0 28272.5 1286.41   4
   3   0   0 30022.2 1060.04   8
  -3   0   0 27645.5 1034.55   8
  -3   0  -1 24394.6 1294.70   6
   3   0   1 24731.2 959.019   8
   3   0   1 24916.3 1120.71   9
   3   0   1 23442.1 1184.83   4
  -3   0  -1 21685.8 894.565   8
  -3   0  -2 63240.6 2112.21   6
   3   0   2 65049.1 1853.87   9
   3   0   2 63896.0 1564.64   8
   3   0   2 63314.9 1971.10   4
   3   0   2 65554.2 1233.08   7
  -3   0  -3 43461.5 1806.03   6
   3   0   3 43528.6 778.190   1
   3   0   3 44390.2 1349.03   8
   3   0   3 42390.5 1568.13   9
   3   0   3 45423.5 1099.42   7
   3   0   3 45352.6 1706.92   4
   3   0   4 61362.7 1183.49   1
  -3   0  -4 58005.4 2176.89   6
   3   0   4 59612.7 1959.90   9
   3   0   4 57289.0 1595.00   8
   3   0   4 60466.1 2024.51   4
   3   0   4 64293.8 1438.15   7
   3   0   5 44160.2 1183.68   1
  -3   0  -5 42274.8 1953.18   6
   3   0   5 45063.5 1803.80   4
   3   0   5 47184.6 1831.32   9
  -3   0  -5 44993.3 1364.00   7
   3   0   5 47739.9 1383.59   7
  -3   0  -6 8908.52 959.642   6
   3   0   6 8216.06 755.034   2
   3   0   6 7264.64 776.266   9
   3   0   6 9648.07 864.348   4
  -3   0  -6 8341.98 646.770   7
   3   0   6 8608.29 594.975   1
  -3   0  -7 11039.1 1122.34   6
   3   0   7 12579.5 1060.98   9
   3   0   7 12237.2 1010.68   4
   3   0   7 12877.9 966.782   2
  -3   0  -7 11925.7 848.768   7
  -3   0  -8 6835.54 940.570   6
   3   0   8 4751.06 620.456   2
   3   0   8 5049.22 678.807   4
  -3   0  -8 5761.27 645.036   7
   3   0   8 5258.07 734.290   9
   3   0   9 7908.95 860.423   4
  -3   0  -9 8692.47 1095.68   6
   3   0   9 9826.21 1044.76   9
   3   0   9 7490.26 802.564   2
  -3   0  -9 8370.59 819.030   7
   3   0  10 36757.9 1895.90   4
  -3   0 -10 32596.6 2171.64   6
   3   0  10 33258.2 1991.57   9
   3   0  10 36256.6 1792.59   2
  -3   0 -10 33535.3 1734.97   7
  -3   0 -11 4018.64 656.831   7
  -3   0 -11 3970.19 810.333   6
   3   0  11 4261.22 790.687   9
   3   0  11 4132.07 671.038   4
   3   0  11 6298.53 786.123   2
   3   0  12 2399.87 521.717   2
   3   0  12 2036.16 511.670   4
  -3   0 -12 2279.32 721.119   6
  -3   0 -12 1464.15 614.662   5
   3   0  12 4162.74 816.401   9
  -3   0 -12 3104.90 617.632   7
  -3   0 -13 30118.1 2377.56   6
  -3   0 -13 30857.5 2607.16   5
   3   0  13 27156.8 1710.58   2
   3   0  13 27873.0 1791.95   4
   3   0  13 28954.5 2129.23   9
  -3   0 -13 28379.5 1868.54   7
  -3   0 -14 9446.25 1385.42   6
  -3   0 -14 9226.95 1495.52   5
   3   0  14 9794.43 1311.02   9
  -3   0 -14 8180.96 1071.16   7
  -3   0 -15 6465.87 1226.85   6
  -3   0 -15 7765.00 1424.83   5
   3   0  15 3911.51 873.808   9
  -3   0 -16 800.056 598.512   5
   3   0  16 227.572 398.714   9
   3   0  17 391.534 517.709   9
  -3   0 -17 763.022 716.371   5
   3   0  18-204.003 423.974   9
  -3   0 -18 93.9715 463.947   5
   3   0  19 1151.89 588.045   9
  -3   0 -19-169.642 469.335   5
  -3   1  21 496.214 505.841   8
   3   1 -20 1116.67 758.099   7
  -3   1  20 726.538 474.199   8
   3   1 -19 293.418 470.814   7
  -3   1  19 953.498 514.579   8
   3   1 -18 2675.13 832.574   7
  -3   1  18 4191.95 1049.07   8
   3   1 -17 2593.10 837.583   7
  -3   1  17 2121.88 720.873   8
   3   1 -16 5861.46 1071.45   7
  -3   1  16 5955.78 858.079   2
  -3   1  16 7639.16 1205.15   8
   3   1 -15 4090.60 871.061   7
  -3   1  15 5592.33 797.393   2
  -3   1  15 6162.81 1078.02   8
  -3   1  14 25144.6 2017.35   8
  -3   1  14 28898.3 1732.53   2
   3   1 -14 31677.6 2273.34   7
   3   1 -13 7346.28 1075.59   7
   3   1 -13 6379.34 597.528   3
  -3   1  13 6346.48 796.272   2
  -3   1  13 6167.61 971.046   8
   3   1 -12 29148.2 1259.43   3
  -3   1  12 31095.0 2073.99   8
   3   1 -12 32336.2 2106.92   7
  -3   1  12 33508.1 1718.61   2
   3   1 -11 504.398 372.196   7
   3   1 -11 305.720 173.283   3
  -3   1  11 49.1676 243.616   8
   3   1 -10 4792.66 507.415   3
  -3   1  10 5843.94 858.729   8
   3   1 -10 5634.08 811.694   7
   3   1  -9 14597.6 869.546   3
  -3   1   9 14391.9 1263.80   8
   3   1  -9 14123.5 1231.80   7
   3   1  -8 19492.7 985.371   3
  -3   1   8 21973.3 1467.91   8
   3   1  -8 18575.6 1316.39   7
   3   1  -7 45975.2 1506.15   3
   3   1  -7 43914.1 2003.20   4
  -3   1   7 47126.9 2066.19   8
   3   1  -7 41253.4 1835.48   7
   3   1  -6 9507.45 916.882   4
   3   1  -6 11022.9 746.586   3
   3   1  -6 11500.9 926.892   7
  -3   1   6 10262.5 920.541   8
   3   1  -5 59649.4 1736.78   3
   3   1  -5 58114.0 2163.41   4
   3   1  -5 55493.9 1854.79   7
  -3   1   5 58332.3 2094.29   8
   3   1  -4 40516.1 1465.74   3
  -3   1   4 39475.2 1663.61   8
   3   1  -4 40436.8 1744.07   4
   3   1  -4 39167.4 1441.04   7
   3   1  -3 47417.2 1615.80   3
  -3   1   3 44397.8 1410.47   1
  -3   1   3 45469.4 1716.68   8
   3   1  -3 49135.6 1870.38   4
   3   1  -3 48521.5 1436.41   7
   3   1  -2 92938.5 2348.60   3
  -3   1   2 89629.5 1857.87   1
   3   1  -2 92666.8 2512.88   4
  -3   1   2 91174.3 2381.36   8
   3   1  -2 95589.7 1775.77   7
   3   1  -1 93008.7 2399.02   3
  -3   1   1 94050.3 2590.03   6
   3   1  -1 95863.7 2488.32   4
  -3   1   1 93610.9 1754.09   1
   3   1  -1 98165.0 1507.99   7
  -3   1   1 88905.5 2326.59   8
   3   1   0 42607.0 1681.12   3
  -3   1   0 43703.4 1797.15   6
   3   1   0 40518.0 1589.38   9
  -3   1   0 44859.0 1320.55   9
  -3   1   0 40788.7 1569.11   8
   3   1   0 44222.9 1665.58   4
   3   1   0 41830.4 756.603   7
  -3   1  -1 46980.7 1895.57   6
  -3   1  -1 45748.8 1316.92   9
   3   1   1 45639.7 1720.68   9
   3   1   1 43935.1 1631.84   4
  -3   1  -1 42918.1 1586.89   8
   3   1   1 44636.9 789.140   8
  -3   1  -2 17241.6 1187.24   6
  -3   1  -2 18542.3 864.527   9
   3   1   2 18259.6 1126.62   9
   3   1   2 17344.4 1029.73   4
   3   1   3 9338.57 759.471   4
  -3   1  -3 11710.7 1019.82   6
  -3   1  -3 11453.8 709.791   9
   3   1   3 10421.4 589.775   1
   3   1   3 9408.53 344.013   8
   3   1   3 10163.4 869.166   9
  -3   1  -4 46564.6 2062.15   6
   3   1   4 46055.0 1342.29   1
   3   1   4 43518.9 1874.27   9
   3   1   4 44287.4 1641.22   4
   3   1   4 42701.7 901.456   8
  -3   1  -5 27675.7 1667.85   6
   3   1   5 27633.1 1126.53   1
   3   1   5 27099.8 1553.45   9
   3   1   5 27080.0 1309.31   4
  -3   1  -6 32023.6 1867.83   6
   3   1   6 30507.5 1721.69   9
   3   1   6 30140.2 1387.27   4
  -3   1  -7 15534.4 1360.75   6
   3   1   7 16582.7 1321.28   9
   3   1   7 15540.2 1034.67   4
  -3   1  -7 16166.0 1142.65   7
  -3   1  -8 30932.8 2007.88   6
   3   1   8 32127.1 1492.47   4
   3   1   8 33665.8 1978.01   9
  -3   1  -8 30670.3 1662.91   7
  -3   1  -9 26588.3 1943.71   6
   3   1   9 24650.3 1774.40   9
   3   1   9 26004.8 1385.34   4
  -3   1  -9 28768.3 1691.82   7
  -3   1 -10 25616.8 1991.42   6
   3   1  10 26671.7 1910.98   9
   3   1  10 28405.5 1443.04   8
  -3   1 -10 27423.7 1733.05   7
   3   1  10 25601.0 1399.47   4
   3   1  11 3035.93 536.601   8
  -3   1 -11 3761.96 815.602   6
   3   1  11 2960.57 705.280   9
   3   1  11 2478.75 473.900   4
  -3   1 -11 2759.77 605.233   7
  -3   1 -12 323.096 373.550   6
  -3   1 -12-177.765 245.450   7
   3   1  12 220.608 309.369   9
   3   1  12 93.2197 173.307   8
  -3   1 -13 3293.01 859.457   6
   3   1  13 3067.07 798.981   9
  -3   1 -13 3611.48 733.040   7
  -3   1 -14 1558.50 718.297   5
   3   1  14 1744.29 664.165   9
  -3   1 -14 3450.57 993.982   6
  -3   1 -14 2733.59 697.263   7
  -3   1 -15 1511.94 659.199   6
   3   1  15 531.330 451.506   9
  -3   1 -15 690.616 439.622   7
  -3   1 -16 387.677 559.481   6
  -3   1 -16 1660.77 694.909   5
   3   1  16 268.425 426.724   9
  -3   1 -16 410.392 396.213   7
  -3   1 -17 3774.05 979.091   5
   3   1  17 3321.39 947.370   9
   3   1  18 4061.53 1048.69   9
  -3   2  21 157.234 447.238   8
  -3   2  20 4120.51 1052.12   8
   3   2 -19 9079.03 1578.24   7
  -3   2  19 6947.10 1302.07   8
   3   2 -18 5552.59 1215.21   7
  -3   2  18 3823.37 948.005   8
   3   2 -17 2100.04 820.439   7
  -3   2  17 1669.94 632.598   8
   3   2 -16 3406.42 862.220   7
  -3   2  16 3071.80 827.353   8
   3   2 -15 804.083 466.887   7
  -3   2  15 148.755 351.014   8
   3   2 -14 121.419 355.952   7
   3   2 -14-219.138 247.116   3
  -3   2  14 165.874 310.286   8
  -3   2  14 555.322 288.907   2
  -3   2  13 68.9785 227.656   2
   3   2 -13 191.663 255.925   3
   3   2 -13 95.9575 303.738   7
  -3   2  13 426.637 403.846   8
   3   2 -12 14856.4 1193.23   3
  -3   2  12 17379.8 1592.16   8
   3   2 -12 11822.4 1357.77   7
   3   2 -11 17275.3 1266.72   3
   3   2 -11 16513.6 1536.16   7
  -3   2  11 16886.5 1520.24   8
   3   2 -10 21917.0 1407.87   3
  -3   2  10 22179.3 1669.88   8
   3   2 -10 20225.2 1609.61   7
  -3   2   9 18146.5 622.449   3
   3   2  -9 17913.5 1259.84   3
  -3   2   9 19037.5 1506.46   8
   3   2  -9 18964.5 1480.29   7
  -3   2   8 27929.1 940.134   3
   3   2  -8 29204.1 1594.17   3
  -3   2   8 28102.6 1751.54   8
   3   2  -8 26058.8 1672.05   7
   3   2  -7 16706.3 1186.82   3
  -3   2   7 17279.2 838.372   3
  -3   2   7 15886.7 1286.89   8
   3   2  -7 17721.0 1295.20   7
   3   2  -6 28874.9 1532.82   3
  -3   2   6 27068.6 1173.22   3
  -3   2   6 27170.3 1633.33   8
   3   2  -6 28530.8 1552.70   7
   3   2  -5 8376.10 822.529   3
   3   2  -5 7579.26 769.561   7
  -3   2   5 8969.19 926.568   8
   3   2  -4 4047.71 594.399   3
  -3   2   4 3590.60 590.434   8
   3   2  -4 4461.72 555.924   7
   3   2  -3 5633.83 743.424   4
   3   2  -3 7878.06 799.798   3
  -3   2   3 8204.09 852.758   8
   3   2  -3 8478.88 702.003   7
  -3   2   2 2968.93 523.940   6
   3   2  -2 3602.71 567.045   3
   3   2  -2 2678.17 504.532   4
  -3   2   2 3331.28 555.953   8
   3   2  -2 3475.98 433.582   7
   3   2  -1 38698.3 1786.92   3
  -3   2   1 39298.4 1798.04   6
   3   2  -1 37299.0 1770.61   4
  -3   2   1 38283.6 1802.04   8
   3   2  -1 39627.9 1731.09   9
   3   2   0 79681.1 2594.65   3
  -3   2   0 83530.2 2630.44   6
   3   2   0 82989.3 2518.56   9
   3   2   0 84177.5 2562.10   4
  -3   2   0 87742.2 2676.74   8
   3   2   1 5470.88 679.111   9
   3   2   1 4846.35 667.911   3
  -3   2  -1 5756.08 714.460   6
  -3   2  -1 4910.10 346.612   9
   3   2   1 4278.92 582.496   4
  -3   2  -1 5555.98 689.510   8
   3   2   2 57017.8 2280.94   3
  -3   2  -2 55565.3 2216.55   6
   3   2   2 59178.2 2222.34   9
  -3   2  -2 56601.8 1137.37   9
   3   2   2 56210.8 2004.28   4
   3   2   3 93318.1 2988.94   3
  -3   2  -3 87845.2 2885.55   6
   3   2   3 90117.0 2485.09   4
   3   2   3 88328.4 2832.25   9
  -3   2  -4 8369.93 936.959   6
   3   2   4 6746.42 853.111   3
   3   2   4 9254.03 981.577   9
   3   2   4 8904.85 772.536   4
  -3   2  -5 13221.2 1220.72   6
   3   2   5 13058.2 1185.37   9
   3   2   5 14302.3 963.807   4
  -3   2  -6 8686.84 1031.75   6
   3   2   6 7712.69 710.463   4
   3   2   6 8273.22 994.930   9
  -3   2  -7 786.166 416.003   6
   3   2   7 465.644 202.172   4
   3   2   7 403.784 117.752   8
   3   2   7-131.261 268.348   9
  -3   2  -8 544.242 332.813   6
   3   2   8 372.988 135.274   8
   3   2   8 302.535 363.137   9
   3   2   8 598.866 207.197   4
  -3   2  -9-8.83692 309.097   6
   3   2   9 333.450 365.090   9
   3   2   9 182.540 129.357   8
   3   2   9 262.802 149.807   4
  -3   2 -10 11919.1 1438.17   6
   3   2  10 13179.4 1460.51   9
  -3   2 -11 6458.04 1093.55   6
   3   2  11 4342.06 938.172   9
  -3   2 -11 4243.72 814.144   7
  -3   2 -12 9854.24 1384.24   6
   3   2  12 12258.2 1516.46   9
  -3   2 -12 12080.6 1394.65   7
   3   2  13 6567.02 1145.99   9
  -3   2 -13 5945.12 1129.01   6
  -3   2 -13 7810.02 1180.52   7
  -3   2 -14 9664.16 1507.93   6
   3   2  14 11659.8 1591.91   9
  -3   2 -14 11083.3 1428.72   7
  -3   2 -15 8053.98 1403.85   6
   3   2  15 7740.68 1359.21   9
  -3   2 -15 5716.63 1094.22   7
  -3   2 -16 5101.12 1248.64   6
   3   2  16 5895.71 1236.52   9
  -3   2 -16 3797.94 904.921   7
   3   2  17 1420.62 712.254   9
  -3   2 -17 155.925 386.515   7
  -3   3  20-761.950 569.794   8
  -3   3  19 99.8702 325.164   8
   3   3 -18-168.745 420.937   7
  -3   3  18 1067.20 546.894   8
  -3   3  17 432.015 523.635   8
   3   3 -17-15.4800 457.649   7
  -3   3  16 6340.19 1183.17   8
   3   3 -16 3971.78 1040.79   7
   3   3 -15 19542.9 2046.90   7
  -3   3  15 20125.9 1968.25   8
   3   3 -14 4854.89 845.578   3
  -3   3  14 5226.87 1017.97   8
   3   3 -14 5157.30 1012.35   7
   3   3 -13 6977.46 1003.79   3
  -3   3  13 6420.32 1065.23   8
   3   3 -13 4704.99 948.599   7
   3   3 -12 1800.35 520.365   3
  -3   3  12 2774.09 700.301   8
   3   3 -12 1714.22 574.783   7
  -3   3  11 2472.48 657.783   8
   3   3 -11 4034.82 831.564   7
   3   3 -11 3507.63 713.840   3
  -3   3  10 3691.81 440.794   3
   3   3 -10 3156.35 646.441   3
  -3   3  10 4555.04 860.536   8
   3   3 -10 3730.15 771.343   7
  -3   3   9 2113.13 371.765   3
   3   3  -9 2016.68 534.753   3
  -3   3   9 3029.21 679.644   8
   3   3  -9 1374.18 458.057   7
   3   3  -8 303.964 317.111   3
  -3   3   8 199.132 151.540   3
  -3   3   8 624.759 414.987   8
   3   3  -8 212.492 268.391   7
  -3   3   7 8036.77 785.489   3
   3   3  -7 6342.76 886.334   3
  -3   3   7 8777.72 1056.74   8
   3   3  -7 8490.90 1012.47   7
   3   3  -6 10245.4 1101.22   3
  -3   3   6 13010.4 1040.57   3
  -3   3   6 10297.2 1119.38   8
   3   3  -6 12005.7 1147.33   7
   3   3  -5 31924.9 1925.62   3
  -3   3   5 29922.3 1661.22   3
  -3   3   5 28455.1 1828.90   8
   3   3  -5 28215.7 1657.69   7
   3   3  -4 32922.6 1933.30   3
  -3   3   4 31040.1 1641.69   6
  -3   3   4 32779.9 1798.59   3
  -3   3   4 33212.8 1919.01   8
   3   3  -4 30853.6 1664.58   7
   3   3  -3 22022.1 1575.42   3
  -3   3   3 21137.5 1356.57   6
  -3   3   3 22059.6 1574.29   8
   3   3  -2 35992.5 1990.95   3
  -3   3   2 32084.4 1665.95   6
  -3   3   2 34223.2 1911.50   8
   3   3  -1 15905.8 1330.12   3
  -3   3   1 16029.3 1190.49   6
  -3   3   1 15929.5 1308.15   8
   3   3  -1 17358.1 1263.56   9
   3   3   0 3765.96 623.420   9
  -3   3   0 2985.87 534.827   6
   3   3   0 3258.30 623.726   3
  -3   3   0 2881.63 582.015   8
   3   3   1 3661.78 660.884   3
  -3   3  -1 2633.98 533.619   6
   3   3   1 2828.41 551.174   9
   3   3   2 458.068 369.950   3
  -3   3  -2 411.524 322.185   6
   3   3   2 359.345 201.397   9
   3   3   3 2733.45 599.614   3
  -3   3  -3 1971.71 471.064   6
   3   3   3 2171.20 527.068   9
   3   3   3 1571.76 390.157   4
   3   3   4 1898.21 506.624   3
  -3   3  -4 1241.86 418.452   6
   3   3   4 1489.45 354.857   4
   3   3   4 2546.41 573.449   9
   3   3   5 7088.24 969.579   3
   3   3   5 6482.12 916.631   9
  -3   3  -5 7155.01 950.417   6
   3   3   5 5844.23 673.375   4
   3   3   6 14332.4 1368.49   3
  -3   3  -6 14205.1 1376.73   6
   3   3   6 15289.6 1425.60   9
   3   3   6 13350.1 978.481   4
   3   3   7 24509.8 1834.40   3
  -3   3  -7 21276.5 1729.04   6
   3   3   7 23879.2 1839.58   9
   3   3   7 21183.1 1179.76   4
  -3   3  -8 14770.5 1521.46   6
   3   3   8 8729.41 1162.51   9
  -3   3  -9 18336.6 1736.18   6
   3   3   9 18051.9 1741.77   9
  -3   3 -10 2389.25 699.984   6
   3   3  10 2402.20 668.347   9
  -3   3 -11 7720.33 1254.08   6
   3   3  11 8402.19 1297.92   9
  -3   3 -12 3785.73 973.783   6
   3   3  12 5568.75 1091.03   9
  -3   3 -13 146.825 453.625   6
   3   3  13-276.710 391.782   9
   3   3  14 1878.45 769.641   9
  -3   3 -14-78.3274 438.758   6
  -3   3 -15 348.906 618.344   6
   3   3  15 102.244 412.136   9
  -3   3 -16 2290.49 868.861   6
   3   3  16 2150.99 819.715   9
  -3   4  18 1806.37 772.098   8
   3   4 -17 1655.82 748.897   7
  -3   4  17 3330.68 924.172   8
  -3   4  16 2104.18 806.523   8
   3   4 -16 1142.62 659.842   7
  -3   4  15 590.762 517.998   8
   3   4 -15 450.780 530.889   7
   3   4 -14-693.010 490.510   3
  -3   4  14 97.7065 363.588   8
   3   4 -14-140.543 486.007   7
   3   4 -13 263.525 381.808   3
  -3   4  13 454.082 460.144   8
   3   4 -13 760.421 518.975   7
   3   4 -12 3427.54 814.215   3
  -3   4  12 5526.58 1015.34   8
   3   4 -12 5182.55 1047.22   7
   3   4 -11 3978.12 877.539   3
  -3   4  11 4493.71 902.080   8
   3   4 -11 4106.71 896.528   7
   3   4 -10 17810.8 1750.88   3
  -3   4  10 19728.2 1810.20   8
   3   4 -10 17387.3 1776.52   7
  -3   4   9 8808.58 926.475   3
   3   4  -9 11339.7 1381.82   3
  -3   4   9 10319.7 1306.48   8
   3   4  -9 11264.6 1355.62   7
   3   4  -8 13667.5 1496.54   3
  -3   4   8 14242.7 1217.62   3
   3   4  -8 12224.4 1379.92   7
  -3   4   8 13661.7 1484.47   8
   3   4  -7 3918.41 828.855   3
  -3   4   7 5003.33 765.132   3
  -3   4   7 6154.92 981.277   8
   3   4  -7 4143.39 792.246   7
  -3   4   6 8829.11 1164.31   8
  -3   4   6 6356.43 790.747   6
   3   4  -6 6684.19 1017.76   3
  -3   4   6 6965.25 929.066   3
  -3   4   5 6167.00 779.000   6
   3   4  -5 8150.77 1134.74   3
  -3   4   5 6742.26 938.672   3
  -3   4   5 5248.15 910.576   8
  -3   4   4 937.197 351.820   6
   3   4  -4 1230.40 483.047   3
  -3   4   4 1008.75 423.618   3
  -3   4   4 1675.61 533.026   8
  -3   4   3 985.330 326.571   6
   3   4  -3 1274.68 508.307   3
  -3   4   3 2097.03 594.981   3
  -3   4   3 1309.28 515.162   8
  -3   4   2 1702.58 430.608   6
   3   4  -2 1465.64 548.065   3
  -3   4   2 1472.34 275.803   9
  -3   4   2 502.314 307.442   3
  -3   4   2 1251.05 407.585   8
   3   4  -1 5370.95 780.276   9
  -3   4   1 3892.24 605.656   6
   3   4  -1 4662.96 829.754   3
  -3   4   1 4653.05 385.587   9
  -3   4   1 5497.00 966.138   3
   3   4   0 19012.0 1655.20   3
  -3   4   0 21598.8 1444.06   6
  -3   4   0 23158.0 1956.95   3
   3   4   0 21789.5 1557.53   9
  -3   4  -1 19113.8 1389.77   6
   3   4   1 21328.4 1580.02   9
   3   4   1 20439.3 1716.03   3
  -3   4  -2 10171.2 1062.50   6
   3   4   2 9736.02 1211.11   3
   3   4   2 9172.16 1066.56   9
   3   4   3 21114.1 1632.52   9
  -3   4  -3 22112.3 1596.49   6
   3   4   3 24782.0 1886.21   3
   3   4   4 3586.78 752.162   3
  -3   4  -4 3017.63 619.116   6
   3   4   4 2889.07 649.263   9
  -3   4  -5 10795.9 1200.77   6
   3   4   5 10843.8 1283.58   3
   3   4   5 10698.8 1262.77   9
   3   4   6 4741.55 892.592   3
  -3   4  -6 4944.45 869.370   6
   3   4   6 4082.35 816.363   9
   3   4   7 538.048 412.678   3
  -3   4  -7 163.389 248.415   6
   3   4   7-83.2042 288.518   9
   3   4   8 2956.45 760.386   3
  -3   4  -8 3530.70 838.110   6
   3   4   8 2732.29 724.364   9
  -3   4  -9 297.658 259.528   6
   3   4   9 1095.05 516.896   9
  -3   4 -10 5695.14 1104.52   6
   3   4  10 5337.70 1048.79   9
  -3   4 -11 2620.59 767.017   6
   3   4  11 4616.98 1047.26   9
  -3   4 -12 5883.35 1172.70   6
   3   4  12 8432.33 1454.61   9
  -3   4 -13 3931.45 998.076   6
   3   4  13 4591.79 1113.26   9
  -3   4 -14 5080.52 1150.50   6
   3   4  14 5072.96 1161.10   9
  -3   4 -15 889.022 647.630   6
  -3   5  16 1428.21 725.293   9
  -3   5  16 285.535 392.368   8
   3   5 -15 1138.68 592.093   3
  -3   5  15 844.955 526.901   9
   3   5 -15 874.965 549.494   7
  -3   5  15 429.234 398.134   8
   3   5 -14 1772.73 708.211   3
  -3   5  14 1909.15 731.346   9
  -3   5  14 2041.67 734.578   8
   3   5 -13 3927.25 999.914   3
  -3   5  13 2419.76 782.729   9
  -3   5  13 4883.72 1024.94   8
   3   5 -13 5412.06 1178.06   7
   3   5 -12 6025.17 1196.69   3
  -3   5  12 6786.51 1182.26   9
  -3   5  12 4036.67 912.120   8
   3   5 -11 1423.40 720.025   3
  -3   5  11 873.159 470.172   9
  -3   5  11 581.408 463.591   8
  -3   5  10 283.874 498.039   8
   3   5 -10 230.103 440.869   3
  -3   5  10-3.49071 315.450   9
   3   5  -9 2929.91 856.452   3
  -3   5   9 2746.22 678.558   9
  -3   5   8 851.101 429.924   3
   3   5  -8 800.282 504.667   3
  -3   5   8 1195.27 439.613   9
  -3   5   8 682.527 492.201   8
   3   5  -7 1045.82 562.149   3
  -3   5   7 1216.74 492.532   3
  -3   5   7 2466.83 574.393   9
  -3   5   7 1437.51 585.759   8
   3   5  -6 2280.98 693.822   3
  -3   5   6 2756.81 658.348   3
  -3   5   6 1498.63 430.902   9
  -3   5   6 1843.93 607.342   8
  -3   5   5 13884.6 1513.54   3
   3   5  -5 11234.6 1520.34   3
  -3   5   5 12088.1 1425.92   8
   3   5  -4 16355.3 1813.11   3
  -3   5   4 20181.0 1883.58   3
  -3   5   4 18594.6 1758.49   8
   3   5  -3 1129.66 544.968   3
  -3   5   3 805.238 550.167   3
  -3   5   3 893.235 458.251   8
  -3   5   2 9670.46 959.206   6
   3   5  -2 10876.2 1423.92   3
  -3   5   2 11604.2 1482.87   3
  -3   5   1 4953.31 996.656   3
  -3   5   1 4246.41 670.653   6
   3   5  -1 4806.49 968.113   3
   3   5   0 4078.15 858.258   3
  -3   5   0 3941.41 651.292   6
  -3   5   0 5810.33 1131.09   3
   3   5   0 4618.71 779.538   9
   3   5   1 1117.39 519.498   3
  -3   5  -1 834.066 328.030   6
  -3   5  -1 722.998 531.970   3
   3   5   1 730.965 392.217   9
   3   5   2 2493.07 735.800   3
  -3   5  -2 3130.89 626.340   6
  -3   5  -2 3653.93 940.148   3
   3   5   2 1554.77 499.503   9
   3   5   3 925.725 591.312   3
  -3   5  -3 787.092 365.343   6
  -3   5  -3 905.290 598.564   3
   3   5   3 278.050 314.518   9
  -3   5  -4 1221.39 616.996   3
   3   5   4 347.015 420.812   3
  -3   5  -4 1799.14 549.206   6
   3   5   4 1296.26 502.297   9
  -3   5  -5 3880.83 1034.37   3
   3   5   5 3660.84 807.986   9
   3   5   5 3929.84 897.076   3
  -3   5  -5 4692.00 831.463   6
   3   5   6 7867.41 1213.02   9
   3   5   6 7580.53 1228.43   3
  -3   5  -6 8009.17 1135.11   6
  -3   5  -6 8841.37 1509.21   3
   3   5   7 3535.95 836.758   9
   3   5   7 3969.97 918.925   3
  -3   5  -7 4447.25 888.076   6
  -3   5  -7 3544.77 983.985   3
   3   5   8 3285.37 871.020   3
  -3   5  -8 2301.45 692.399   6
   3   5   8 2861.17 794.372   9
   3   5   9 4943.30 1074.86   3
   3   5   9 5574.53 1134.28   9
  -3   5  -9 4073.88 897.667   6
   3   5  10 4931.70 1043.51   3
  -3   5 -10 2502.11 749.240   6
   3   5  10 5352.01 1145.37   9
  -3   5 -11 563.587 447.608   6
   3   5  11 273.486 411.159   9
   3   5  12 504.691 538.650   9
  -3   5 -12 501.912 517.637   6
  -3   5 -13 454.714 519.528   6
   3   6 -14 690.941 508.661   3
   3   6 -13 698.482 493.164   3
  -3   6  13 839.432 559.681   8
   3   6 -12 119.465 382.239   3
  -3   6  12 131.105 374.336   8
   3   6 -11-15.7714 486.486   3
  -3   6  11 1952.85 776.783   8
   3   6 -10 1963.88 772.476   3
  -3   6  10 240.345 472.564   8
   3   6  -9 3035.84 991.834   3
  -3   6   9 4051.82 937.553   8
   3   6  -8 2268.21 886.562   3
  -3   6   8 1635.43 677.716   8
  -3   6   7 3266.03 835.564   8
   3   6  -7 3426.03 975.760   3
  -3   6   7 2278.49 748.313   3
   3   6  -6 300.072 442.341   3
  -3   6   6 889.803 470.161   8
   3   6  -5 3415.85 945.105   3
  -3   6   5 2611.90 833.574   3
   3   6  -4 228.410 446.539   3
  -3   6   4 606.332 494.376   3
   3   6  -3-20.9229 410.273   3
  -3   6   3-560.445 468.310   3
   3   6  -2 768.805 525.684   3
  -3   6   2 361.983 509.313   3
   3   6  -1 4209.12 997.582   3
  -3   6   1 3850.58 1023.09   3
   3   6   0 1631.70 642.708   3
  -3   6   0 3060.20 941.362   3
   3   6   1 4648.29 1094.62   3
  -3   6  -1 6607.23 1320.30   3
   3   6   1 6509.89 993.973   9
   3   6   2 3322.37 949.918   3
  -3   6  -2 2893.38 1045.89   3
   3   6   2 2781.71 696.511   9
   3   6   3 2489.45 801.319   3
  -3   6  -3 1913.38 813.905   3
   3   6   3 900.259 445.207   9
   3   6   4 829.299 529.564   3
  -3   6  -4 1617.00 733.241   3
   3   6   4 2736.48 686.075   9
   3   6   5 1541.94 613.173   9
   3   6   5 2061.59 755.185   3
  -3   6  -5 2448.19 907.071   3
   3   6   6 4530.19 1070.64   3
  -3   6  -6 4737.66 1268.53   3
  -3   6  -7 223.807 601.801   3
   3   6   7-219.945 361.667   9
   3   6   8 270.847 456.532   3
  -3   6  -8 15.2657 480.512   3
   3   6   8 552.224 539.275   9
   3   6   9 530.590 449.207   3
  -3   6  -9 85.6260 612.225   3
   3   6   9 1216.22 646.393   9
   3   6  10-247.182 521.642   3
   3   6  10 9.29152 431.698   9
  -3   7   5 1588.61 667.480   3
   3   7  -4 819.677 596.617   3
  -3   7   4 171.419 493.127   3
   3   7  -3 576.875 597.298   3
  -3   7   3 956.346 623.963   3
   3   7  -2 548.416 410.981   3
  -3   7   2 1460.98 750.029   3
   3   7  -1 2985.17 1028.28   3
  -3   7   1 1487.26 773.003   3
   3   7   0 1330.81 727.785   3
  -3   7   0-22.2238 463.613   3
   3   7   1 2287.21 863.153   3
  -3   7  -1 862.178 673.272   3
   3   7   2 187.648 449.583   3
  -3   7  -2 1472.65 859.570   3
   3   7   3 1361.40 680.736   3
  -3   7  -3 2672.84 1048.98   3
   3   7   4 1309.09 788.350   3
   3   7   7 977.669 566.990   9
  -4  -7   8-1198.56 633.155   2
  -4  -7   7 3141.44 960.608   2
  -4  -7   6 1759.66 679.675   2
   4  -7  -4 582.534 542.411   1
  -4  -7   4 573.168 583.274   1
  -4  -7   3 2263.31 813.593   1
   4  -7  -3 1188.73 645.549   1
   4  -7  -2-469.940 465.294   1
  -4  -7   2 680.163 682.076   1
   4  -7  -1 2417.72 883.218   1
  -4  -7   1 1291.66 675.641   1
  -4  -7   0 2693.83 866.863   1
   4  -7   0 3126.91 913.634   1
  -4  -7  -1 958.385 583.658   1
   4  -7   1 1360.30 674.819   1
   4  -7   1 11.6614 382.858   2
  -4  -7  -2 1553.49 718.242   1
   4  -7   2 758.014 460.675   2
   4  -7   2 921.934 610.904   1
   4  -7   3 1834.16 760.209   1
  -4  -7  -3 3504.47 1048.24   1
   4  -7   4 1138.75 617.378   1
  -4  -7  -4 410.712 484.701   1
  -4  -6  11 1710.39 735.437   2
   4  -6 -11 1311.71 628.312   1
  -4  -6  10 1396.30 625.709   2
   4  -6 -10 1873.50 655.571   1
  -4  -6   9 1981.95 729.615   2
   4  -6  -9 1060.23 541.055   1
  -4  -6   8 1868.51 724.950   2
   4  -6  -8 785.595 514.141   1
   4  -6  -7 1559.00 687.624   1
  -4  -6   7 513.213 407.191   2
   4  -6  -6 334.504 457.947   1
  -4  -6   6 870.199 508.266   2
   4  -6  -5 2190.91 775.114   1
  -4  -6   5 1478.43 591.853   2
   4  -6  -4 1120.04 529.952   1
  -4  -6   4 1541.79 590.025   2
  -4  -6   4 1920.75 748.265   1
  -4  -6   3 3559.36 775.554   2
   4  -6  -3 2317.74 692.697   1
  -4  -6   3 3655.98 966.590   1
  -4  -6   2 1712.73 690.897   1
   4  -6  -2 1708.33 588.441   1
  -4  -6   1 2915.81 842.756   1
   4  -6  -1 3120.71 839.708   1
  -4  -6   0 2241.25 763.694   1
   4  -6   0 1415.39 560.958   1
   4  -6   0 2033.24 755.306   2
   4  -6   1 3837.30 931.499   1
  -4  -6  -1 4507.96 1022.86   1
   4  -6   1 1827.10 707.099   2
  -4  -6  -2 4413.04 1069.61   1
   4  -6   2 4141.70 948.760   1
   4  -6   2 3121.50 858.742   2
   4  -6   3 885.241 562.757   1
  -4  -6  -3 147.664 377.632   1
   4  -6   3 1321.99 623.277   2
  -4  -6  -4 139.273 322.400   1
   4  -6   4 185.374 300.959   1
   4  -6   4-171.637 534.313   2
   4  -6   5 2.24155 459.872   1
  -4  -6  -5-237.054 396.322   1
   4  -6   5 292.991 519.227   2
  -4  -6  -6 77.9466 318.953   1
   4  -6   6-9.21686 357.846   1
   4  -6   6-118.798 475.489   2
   4  -6   7 283.577 509.750   2
  -4  -6  -7 1183.14 628.256   1
  -4  -6  -7-238.265 438.676   5
   4  -6   7 601.785 490.963   1
   4  -6   8 576.594 516.315   1
  -4  -6  -8 627.424 654.685   5
  -4  -6  -8 1473.20 655.066   1
   4  -5 -15 3231.27 943.576   7
   4  -5 -14-134.065 535.719   7
  -4  -5  14-266.569 458.870   2
   4  -5 -14-31.9541 376.731   1
   4  -5 -13 487.109 420.506   7
  -4  -5  13 720.350 532.983   2
   4  -5 -13 1060.03 559.357   1
   4  -5 -12 167.968 436.793   7
   4  -5 -12 535.119 506.552   1
  -4  -5  12 23.8593 330.339   2
  -4  -5  11 1368.94 580.300   2
   4  -5 -11 2077.79 760.160   1
  -4  -5  10 5026.86 1106.49   2
   4  -5 -10 3763.83 915.021   1
  -4  -5   9 4276.20 996.677   2
   4  -5  -9 6438.92 1092.47   1
  -4  -5   8 7066.59 1199.00   2
   4  -5  -8 8107.45 1227.75   1
  -4  -5   7 3874.70 907.773   2
   4  -5  -7 4841.65 929.958   1
   4  -5  -6 3408.96 655.855   4
   4  -5  -6 4371.24 907.381   1
  -4  -5   6 3768.44 859.126   2
   4  -5  -5 5112.12 836.260   4
   4  -5  -5 4821.93 908.883   1
  -4  -5   5 4326.75 905.431   2
   4  -5  -4 12872.8 1443.19   1
   4  -5  -4 12807.1 1306.22   4
  -4  -5   4 12185.6 1376.26   2
   4  -5  -3 2024.61 629.182   1
  -4  -5   3 3087.73 702.879   2
  -4  -5   2 294.142 307.094   2
  -4  -5   2 733.023 416.598   1
   4  -5  -2 991.859 493.165   1
  -4  -5   1 182.597 272.774   2
   4  -5  -1-66.1959 319.652   1
  -4  -5   1 58.0161 426.783   1
  -4  -5   0 387.181 390.259   1
  -4  -5   0 274.375 255.367   2
  -4  -5   0 502.576 485.055   5
   4  -5   0 270.046 382.810   2
   4  -5   0-71.9187 333.688   1
   4  -5   1 1182.72 444.441   1
  -4  -5  -1 955.732 504.521   5
  -4  -5  -1 1177.80 476.891   1
   4  -5   1 667.489 456.973   2
  -4  -5  -2 6581.50 1075.02   1
  -4  -5  -2 7095.46 1284.22   5
   4  -5   2 6102.05 1005.30   1
   4  -5   2 6849.74 1123.03   2
  -4  -5  -3 3197.74 898.234   5
  -4  -5  -3 3317.79 785.276   1
   4  -5   3 2293.72 629.421   1
   4  -5   3 2973.23 782.646   2
   4  -5   4 4753.77 902.248   1
  -4  -5  -4 6523.82 1309.56   5
  -4  -5  -4 4598.80 917.820   1
   4  -5   4 5650.02 1098.96   2
   4  -5   5 6886.50 1192.05   2
  -4  -5  -5 6313.93 1054.85   1
  -4  -5  -5 5254.52 1199.50   5
   4  -5   5 6906.30 1104.69   1
   4  -5   6 4316.90 1016.66   2
   4  -5   6 4686.19 921.856   1
  -4  -5  -6 4386.08 862.650   1
  -4  -5  -6 5214.57 1245.36   5
   4  -5   7 3158.80 930.218   2
  -4  -5  -7 1448.96 554.094   1
   4  -5   7 2110.64 663.608   1
  -4  -5  -7 1278.22 753.667   5
   4  -5   8 2199.71 818.786   2
  -4  -5  -8 3787.06 833.433   1
  -4  -5  -8 1629.38 856.356   5
   4  -5   9-101.695 308.313   2
  -4  -5  -9-459.617 722.084   5
  -4  -5  -9 239.722 399.313   1
   4  -5  10 132.544 454.586   2
  -4  -5 -10 961.595 713.086   5
   4  -5  11 542.304 659.162   2
  -4  -5 -11 847.603 773.083   5
   4  -4 -17-233.995 469.672   7
  -4  -4  17 1295.58 743.830   2
   4  -4 -16-78.1956 464.967   7
  -4  -4  16 2.63015 443.939   2
   4  -4 -15 1376.60 634.073   7
  -4  -4  15 742.233 493.483   2
   4  -4 -14 6632.09 1203.21   7
  -4  -4  14 3228.92 948.763   2
   4  -4 -13 5105.92 1030.36   7
  -4  -4  13 3695.95 956.520   2
   4  -4 -12 8881.86 1267.88   7
  -4  -4  12 6572.42 1169.98   2
   4  -4 -12 7305.50 1158.06   1
   4  -4 -11 8245.59 1214.39   7
  -4  -4  11 8352.04 1292.44   2
   4  -4 -11 9813.24 1306.47   1
  -4  -4  10 4739.50 983.428   2
   4  -4 -10 3563.87 814.507   1
   4  -4  -9 6355.65 1000.54   1
  -4  -4   9 7771.99 1193.77   2
  -4  -4   8 2972.42 755.150   2
   4  -4  -8 3595.52 768.098   1
   4  -4  -8 2868.37 521.053   4
  -4  -4   7 1540.64 553.112   2
   4  -4  -7 1905.38 562.942   1
   4  -4  -7 751.386 305.701   4
  -4  -4   6 185.275 338.665   2
   4  -4  -6 249.439 245.865   4
   4  -4  -6 514.510 377.747   1
   4  -4  -5 1847.75 458.955   4
   4  -4  -5 2176.54 586.736   1
  -4  -4   5 1128.09 471.645   2
   4  -4  -4 14994.5 1381.36   1
   4  -4  -4 17003.6 1381.26   4
  -4  -4   4 15484.6 1431.51   2
   4  -4  -3 3025.99 639.142   1
  -4  -4   3 4328.84 732.123   2
  -4  -4   3 4014.25 681.799   5
   4  -4  -2 22767.0 1668.34   1
  -4  -4   2 23734.8 1742.73   5
  -4  -4   2 22529.7 1589.06   2
  -4  -4   1 1861.91 522.203   1
  -4  -4   1 2049.55 564.810   5
  -4  -4   1 1936.74 476.243   2
   4  -4  -1 2137.88 535.790   1
   4  -4   0 21458.7 1752.10   2
   4  -4   0 19271.7 1521.90   1
  -4  -4   0 23820.1 1768.15   1
  -4  -4   0 20156.5 1793.85   5
  -4  -4   0 21900.2 1446.99   2
   4  -4   1 15921.4 1541.87   2
   4  -4   1 16631.3 1405.99   1
  -4  -4  -1 15861.1 1436.11   1
  -4  -4  -1 12297.4 1477.82   5
  -4  -4  -1 14732.9 1128.27   2
  -4  -4  -2 3294.43 676.229   1
  -4  -4  -2 3792.73 554.990   2
  -4  -4  -2 3159.20 822.353   5
   4  -4   2 3245.95 648.691   1
   4  -4   2 3824.71 805.756   2
   4  -4   3 1247.21 411.027   1
  -4  -4  -3 1940.94 721.002   5
  -4  -4  -3 1466.97 490.963   1
   4  -4   3 1138.73 528.870   2
   4  -4   4 5807.43 873.866   1
  -4  -4  -4 6257.63 1173.12   5
  -4  -4  -4 4781.87 785.961   1
   4  -4   4 6684.74 1084.14   2
   4  -4   5-2.77759 348.320   2
  -4  -4  -5 836.622 415.298   1
   4  -4   5 356.617 253.192   1
  -4  -4  -5 303.564 438.654   5
   4  -4   6 835.335 522.003   2
  -4  -4  -6 979.351 414.436   1
  -4  -4  -6 861.428 611.450   5
   4  -4   7 1245.79 573.391   2
  -4  -4  -7 1933.31 558.957   1
  -4  -4  -7 1571.71 748.009   5
   4  -4   8 9644.70 1426.59   2
  -4  -4  -8 7694.59 1454.70   5
  -4  -4  -8 9626.11 1127.12   1
   4  -4   9 6871.84 1232.19   2
  -4  -4  -9 6836.47 1444.22   5
  -4  -4  -9 6504.79 938.996   1
  -4  -4 -10 6864.69 1492.77   5
  -4  -4 -10 5918.09 923.366   1
   4  -4  10 7222.82 1283.47   2
   4  -4  11 8503.42 1400.08   2
  -4  -4 -11 8669.08 1741.92   5
   4  -4  12 748.987 475.994   2
  -4  -4 -12 913.275 828.011   5
   4  -4  13 1799.12 779.203   2
  -4  -4 -13 1123.50 916.668   5
   4  -4  14 427.839 432.170   2
  -4  -3  19 3352.96 966.557   2
   4  -3 -18 601.647 491.687   7
  -4  -3  18 1519.36 703.107   2
   4  -3 -17 4993.28 1107.82   7
  -4  -3  17 2902.65 842.587   2
  -4  -3  17 2835.06 896.609   8
   4  -3 -16 2541.09 790.806   7
  -4  -3  16 3880.22 971.795   2
  -4  -3  16 3938.92 1002.03   8
   4  -3 -15 1441.34 620.747   7
  -4  -3  15 2083.68 761.239   2
   4  -3 -14 2446.22 739.794   7
  -4  -3  14 2492.12 807.570   2
   4  -3 -13 1417.61 540.676   7
  -4  -3  13 775.655 508.633   2
   4  -3 -12 332.192 339.425   7
  -4  -3  12 900.354 509.833   2
   4  -3 -11-81.9732 405.111   7
  -4  -3  11 178.691 380.144   2
  -4  -3  10 11976.9 1400.47   2
   4  -3 -10 11245.0 926.693   4
   4  -3 -10 12027.3 1314.16   7
   4  -3 -10 11781.0 1253.54   1
  -4  -3   9 5778.66 969.466   2
   4  -3  -9 6260.56 908.093   1
   4  -3  -9 6477.09 714.045   4
   4  -3  -8 13117.3 1257.35   1
   4  -3  -8 10899.2 942.653   4
  -4  -3   8 9824.72 1178.76   2
   4  -3  -7 10564.4 1090.30   1
   4  -3  -7 14264.5 1094.11   4
  -4  -3   7 13559.0 1331.10   2
  -4  -3   6 19453.8 898.716   5
   4  -3  -6 18943.1 1284.82   4
  -4  -3   6 20805.8 1610.67   2
   4  -3  -6 22052.5 1517.59   1
   4  -3  -5 22562.9 1502.09   1
  -4  -3   5 21419.5 1144.05   5
   4  -3  -5 21876.8 1411.65   4
  -4  -3   5 24387.1 1684.14   2
   4  -3  -4 6894.92 820.857   4
   4  -3  -4 5992.11 784.696   1
  -4  -3   4 6633.44 722.632   5
  -4  -3   4 6356.02 846.603   2
   4  -3  -3 7560.47 844.590   1
  -4  -3   3 8045.53 857.732   5
   4  -3  -3 7999.04 910.285   4
  -4  -3   3 7598.35 887.530   2
  -4  -3   2 14943.5 1027.31   6
   4  -3  -2 14965.2 1152.80   1
  -4  -3   2 14162.4 1223.74   5
   4  -3  -2 16281.0 1311.68   4
  -4  -3   2 12657.5 1088.20   2
  -4  -3   1 179.170 133.942   6
  -4  -3   1 32.2732 187.255   2
  -4  -3   1-106.418 225.047   5
   4  -3  -1 324.886 241.833   1
  -4  -3   0 1793.20 432.259   1
  -4  -3   0 1226.14 304.190   6
  -4  -3   0 1719.23 520.117   5
  -4  -3   0 1853.70 244.938   8
  -4  -3   0 1705.67 385.462   2
  -4  -3   0 1555.45 220.940   8
   4  -3   0 1653.13 385.506   1
  -4  -3  -1 6558.53 778.274   1
  -4  -3  -1 5929.61 591.102   6
  -4  -3  -1 5643.96 286.471   8
   4  -3   1 7124.76 780.840   1
  -4  -3  -1 7182.77 1040.15   5
  -4  -3  -1 5336.02 266.046   8
  -4  -3  -1 6583.49 701.185   2
  -4  -3  -1 5841.64 508.212   7
   4  -3   1 7541.76 973.212   2
  -4  -3  -2 10920.9 819.320   6
  -4  -3  -2 11752.5 1040.61   1
   4  -3   2 12060.6 1025.82   1
  -4  -3  -2 10370.3 1290.69   5
  -4  -3  -2 10249.0 821.187   2
  -4  -3  -2 12457.0 698.837   7
   4  -3   2 11613.2 1249.47   2
   4  -3   3 22643.3 1751.39   2
  -4  -3  -3 19794.7 1131.43   6
  -4  -3  -3 20621.5 1365.44   1
   4  -3   3 17400.7 1248.57   1
  -4  -3  -3 19112.5 1800.38   5
  -4  -3  -3 19207.6 1062.41   2
  -4  -3  -4 21649.1 1242.93   6
  -4  -3  -4 20525.2 1348.56   1
  -4  -3  -4 19411.4 1919.29   5
   4  -3   4 22513.2 1787.53   2
  -4  -3  -4 21312.2 1043.63   2
  -4  -3  -4 21234.0 778.997   7
  -4  -3  -5 18536.8 1293.79   1
  -4  -3  -5 16225.9 1140.49   6
  -4  -3  -5 16133.4 1783.00   5
   4  -3   5 15804.7 1536.10   2
  -4  -3  -5 16046.5 821.940   2
  -4  -3  -6 19947.2 1350.40   1
  -4  -3  -6 19609.5 1316.55   6
  -4  -3  -6 19480.8 2017.04   5
   4  -3   6 18760.0 1699.71   2
   4  -3   7 5674.36 991.194   2
  -4  -3  -7 5516.78 747.129   6
  -4  -3  -7 6591.64 1256.35   5
  -4  -3  -7 5663.51 733.205   1
   4  -3   8 3425.32 772.514   2
  -4  -3  -8 3193.33 625.487   6
  -4  -3  -8 2413.35 783.085   5
  -4  -3  -8 3698.05 623.753   1
   4  -3   9 694.217 479.353   2
  -4  -3  -9 559.672 290.129   1
  -4  -3  -9 993.196 390.510   6
  -4  -3  -9 179.541 430.800   5
   4  -3  10 889.645 548.612   2
  -4  -3 -10 1241.08 487.221   6
  -4  -3 -10 1843.23 802.499   5
   4  -3  11-140.499 350.288   2
  -4  -3 -11-82.6989 254.805   6
   4  -3  12 993.225 544.492   2
  -4  -3 -12 387.505 551.595   5
   4  -3  13 1587.50 700.003   2
  -4  -3 -13 47.1864 613.690   5
  -4  -3 -14 2969.51 1053.21   5
   4  -3  14 2959.80 810.248   2
   4  -3  15 2184.78 718.525   2
  -4  -3 -15 2830.28 1093.70   5
   4  -3  16 3376.21 953.922   2
  -4  -2  20 754.547 518.835   2
   4  -2 -19 167.998 446.982   7
  -4  -2  19 376.401 432.207   2
  -4  -2  19-139.972 526.034   8
   4  -2 -18-114.820 348.598   7
  -4  -2  18 483.637 439.728   2
  -4  -2  18 403.102 575.114   8
   4  -2 -17 635.784 541.760   7
  -4  -2  17 565.287 496.724   8
  -4  -2  17-55.6916 305.742   2
   4  -2 -16 1305.73 652.120   7
  -4  -2  16 1148.32 541.164   2
  -4  -2  16 864.412 615.143   8
   4  -2 -15 5211.47 1021.23   7
  -4  -2  15 4832.56 1058.10   8
  -4  -2  15 4032.01 922.254   2
   4  -2 -14 13740.4 1526.68   7
  -4  -2  14 17691.7 1776.63   8
  -4  -2  14 16908.2 1702.57   2
   4  -2 -13 8582.65 1174.00   7
  -4  -2  13 9493.31 1247.20   2
  -4  -2  13 6079.78 1034.73   8
   4  -2 -12 6360.42 1002.65   7
  -4  -2  12 6731.32 1067.83   2
  -4  -2  12 7203.95 1075.28   8
   4  -2 -12 6768.94 738.314   4
  -4  -2  11 9620.19 1204.60   2
   4  -2 -11 10168.3 900.943   4
  -4  -2  11 10834.3 1252.57   8
   4  -2 -11 12655.8 1294.93   7
   4  -2 -10 12561.3 998.889   4
  -4  -2  10 12004.0 1248.23   8
   4  -2 -10 12398.3 1271.12   7
  -4  -2  10 10798.2 1236.12   2
  -4  -2   9 11414.8 1187.23   8
   4  -2  -9 8322.27 812.304   4
  -4  -2   9 9177.11 1098.07   2
   4  -2  -9 10584.4 1118.12   7
   4  -2  -8 2787.08 565.090   7
  -4  -2   8 3404.60 661.001   8
  -4  -2   8 3379.95 681.298   2
   4  -2  -8 2387.27 452.208   4
  -4  -2   7 21841.6 759.581   5
  -4  -2   7 21887.8 1471.84   8
   4  -2  -7 21770.2 1301.85   4
  -4  -2   7 22188.0 1560.10   2
   4  -2  -7 20807.5 1357.53   1
   4  -2  -6 1090.27 339.885   4
   4  -2  -6 833.966 311.792   1
  -4  -2   6 984.566 308.567   8
  -4  -2   6 270.768 225.229   2
   4  -2  -5 12162.9 951.846   1
  -4  -2   5 10762.4 916.205   8
   4  -2  -5 10783.8 932.589   4
  -4  -2   5 10886.6 1020.49   2
   4  -2  -4 13167.2 962.263   1
   4  -2  -4 12998.8 1047.94   4
  -4  -2   4 12521.9 909.220   8
  -4  -2   4 13148.1 1081.29   2
   4  -2  -3 8184.58 738.309   1
  -4  -2   3 7360.21 646.892   8
   4  -2  -3 7234.39 796.680   4
  -4  -2   2 93663.2 2042.75   8
   4  -2  -2 92539.0 2350.23   1
   4  -2  -2 94543.4 2891.10   4
  -4  -2   2 84828.3 1960.45   7
  -4  -2   1 22953.3 1327.17   6
   4  -2  -1 23300.5 1146.85   1
  -4  -2   1 22320.9 881.452   8
   4  -2  -1 22375.7 1446.34   4
  -4  -2   1 21197.6 868.685   7
  -4  -2   0 51531.5 1956.50   6
   4  -2   0 46321.3 1574.19   1
   4  -2   0 48565.3 2153.47   4
  -4  -2   0 44320.6 998.404   8
  -4  -2   0 43085.4 1048.84   7
  -4  -2  -1 29793.6 1479.10   6
   4  -2   1 32321.2 1303.66   1
  -4  -2  -1 31077.3 1360.17   1
   4  -2   1 30502.8 1771.29   4
  -4  -2  -1 27769.4 628.730   7
  -4  -2  -2 10950.0 908.393   6
   4  -2   2 10634.9 1095.46   2
  -4  -2  -2 11740.6 821.350   1
   4  -2   2 11094.0 775.879   1
  -4  -2  -3 9652.60 877.832   6
  -4  -2  -3 11520.1 803.907   1
  -4  -2  -3 13187.6 1403.84   5
   4  -2   3 11326.8 794.058   1
   4  -2   3 10935.2 1103.07   2
  -4  -2  -4 1723.84 327.298   1
  -4  -2  -4 2947.72 522.060   6
  -4  -2  -4 2304.06 688.986   5
   4  -2   4 2499.98 597.679   2
  -4  -2  -5 3462.15 585.278   6
  -4  -2  -5 4753.61 949.698   5
   4  -2   5 3176.93 405.445   9
  -4  -2  -5 4187.45 501.986   1
   4  -2   5 2902.61 621.513   2
  -4  -2  -6 4639.99 547.924   1
  -4  -2  -6 4659.23 697.559   6
  -4  -2  -6 3560.98 872.899   5
   4  -2   6 4857.29 525.599   9
  -4  -2  -6 3939.29 256.284   7
   4  -2   6 4881.22 828.823   2
   4  -2   7 3413.99 739.501   2
  -4  -2  -7 3466.94 637.521   6
  -4  -2  -7 4095.05 954.831   5
  -4  -2  -7 3028.32 469.378   1
   4  -2   7 2762.80 430.987   9
  -4  -2  -8 24179.0 1696.87   6
  -4  -2  -8 24612.3 2278.84   5
   4  -2   8 27962.2 1397.93   9
   4  -2   8 28770.1 2020.81   2
  -4  -2  -9 8871.27 1090.94   6
  -4  -2  -9 7680.35 1352.05   5
   4  -2   9 9174.53 873.873   9
   4  -2   9 9534.46 1217.91   2
   4  -2  10 8016.83 1137.13   2
  -4  -2 -10 8387.81 1115.88   6
  -4  -2 -10 8361.54 1501.58   5
   4  -2  10 9050.49 927.174   9
  -4  -2 -11 17402.5 1657.37   6
  -4  -2 -11 16877.9 2093.05   5
   4  -2  11 14659.5 1581.85   2
   4  -2  12 7073.19 1113.23   2
  -4  -2 -12 8970.59 1260.44   6
  -4  -2 -12 10021.5 1634.12   5
   4  -2  13 4153.62 919.706   2
  -4  -2 -13 2256.15 675.754   6
  -4  -2 -13 1583.53 846.458   5
   4  -2  14 1413.94 593.073   2
  -4  -2 -14 1692.66 555.428   6
  -4  -2 -14 1331.63 830.076   5
   4  -2  15 262.169 478.669   2
  -4  -2 -15 952.961 693.353   5
  -4  -2 -16 97.4842 499.696   5
  -4  -1  21 398.217 432.222   2
  -4  -1  20-766.251 501.127   2
  -4  -1  20 762.797 593.555   8
   4  -1 -19 4316.86 1040.30   7
  -4  -1  19 3681.77 904.650   2
  -4  -1  19 4560.40 1123.67   8
   4  -1 -18 6742.04 1271.05   7
  -4  -1  18 7056.11 1179.03   2
  -4  -1  18 4530.19 1061.82   8
   4  -1 -17 15916.3 1824.18   7
  -4  -1  17 18773.8 1819.92   2
  -4  -1  17 17767.9 1960.64   8
   4  -1 -16 5412.70 1052.17   7
  -4  -1  16 5762.23 1108.84   8
  -4  -1  16 5204.14 974.296   2
   4  -1 -15 967.016 516.897   7
  -4  -1  15 2113.23 670.580   8
  -4  -1  15 2486.95 668.506   2
   4  -1 -14 4826.54 926.380   7
  -4  -1  14 7876.68 1116.99   2
  -4  -1  14 7394.45 1162.26   8
   4  -1 -13 5437.31 951.655   7
  -4  -1  13 5614.94 923.561   2
  -4  -1  13 4196.47 874.743   8
   4  -1 -12 8140.60 1082.50   7
   4  -1 -12 6592.01 801.326   4
  -4  -1  12 5882.61 922.126   8
  -4  -1  12 7787.07 1020.47   2
   4  -1 -11 385.109 371.744   7
  -4  -1  11 570.601 412.008   8
   4  -1 -11 857.250 327.989   4
  -4  -1  11 1026.13 448.785   2
  -4  -1  10 9690.31 693.574   5
   4  -1 -10 10423.8 961.738   4
  -4  -1  10 11294.5 1183.26   8
  -4  -1  10 11286.7 1149.35   2
   4  -1 -10 11870.1 1172.88   7
   4  -1  -9 28634.9 1748.07   7
  -4  -1   9 28206.9 1171.76   5
   4  -1  -9 27372.9 1519.53   4
  -4  -1   9 29964.2 1835.14   8
  -4  -1   9 30143.9 1780.82   2
  -4  -1   8 21314.1 1481.31   8
   4  -1  -8 20920.5 1321.33   4
  -4  -1   8 22535.7 1492.91   2
   4  -1  -8 22750.2 1468.61   7
   4  -1  -7 38590.1 1752.12   4
   4  -1  -7 38062.5 1816.24   7
  -4  -1   7 34572.5 1773.00   8
  -4  -1   6 58154.9 2157.89   8
   4  -1  -6 57281.1 2104.89   4
   4  -1  -6 56796.1 2099.48   7
   4  -1  -5 2069.61 403.807   7
  -4  -1   5 3102.49 496.231   8
   4  -1  -5 2390.97 455.905   4
  -4  -1   4 58860.6 1917.75   8
   4  -1  -4 57759.4 2117.12   4
  -4  -1   3 47578.1 1603.78   8
   4  -1  -3 51136.0 1992.56   4
  -4  -1   3 46938.5 1394.69   7
   4  -1  -2 400.034 244.918   4
  -4  -1   2 258.448 111.924   7
   4  -1  -2 238.763 122.762   1
  -4  -1   2 219.855 137.945   8
   4  -1  -1 10637.6 559.169   1
  -4  -1   1 11653.1 984.452   6
   4  -1  -1 11635.7 979.780   4
  -4  -1   1 10583.1 645.400   8
   4  -1   0 51280.7 1103.07   1
  -4  -1   0 52810.7 2092.01   6
  -4  -1   0 49985.8 1272.79   8
   4  -1   0 55009.9 2163.65   4
   4  -1   1 4571.47 669.156   4
   4  -1   1 4093.77 293.777   1
  -4  -1  -1 4551.64 635.694   6
  -4  -1  -1 4021.80 324.136   1
  -4  -1  -1 3972.90 325.386   8
  -4  -1  -2 25451.3 769.698   1
  -4  -1  -2 22794.8 1407.95   6
   4  -1   2 25113.7 724.319   1
   4  -1   2 26803.2 1579.47   4
   4  -1   3 6813.20 828.397   4
  -4  -1  -3 6735.15 404.120   1
  -4  -1  -3 7387.35 829.805   6
   4  -1   3 6738.76 411.233   1
   4  -1   3 7612.89 667.663   9
  -4  -1  -4 48104.3 2129.66   6
   4  -1   4 48038.9 1738.07   9
   4  -1   4 52185.8 2279.37   4
  -4  -1  -5 37747.7 1954.29   6
   4  -1   5 38629.9 1616.95   9
   4  -1   5 38244.4 1942.27   2
   4  -1   5 37986.1 2012.25   4
  -4  -1  -6 23097.4 1598.48   6
   4  -1   6 20792.2 1475.29   2
   4  -1   6 20031.6 1520.86   4
   4  -1   6 22312.5 1298.54   9
  -4  -1  -7 9584.05 1086.67   6
   4  -1   7 8837.32 868.846   9
   4  -1   7 9091.93 1010.91   2
  -4  -1  -7 9542.92 590.113   7
  -4  -1  -8 22645.0 1723.36   6
   4  -1   8 20001.7 1377.79   9
   4  -1   8 18123.5 1453.56   2
  -4  -1  -8 20593.6 987.573   7
  -4  -1  -9 7319.35 1049.41   6
   4  -1   9 5330.74 756.639   9
  -4  -1  -9 5004.31 544.886   7
   4  -1   9 4599.73 781.238   2
  -4  -1 -10 1887.31 592.487   6
  -4  -1 -10 2646.72 850.306   5
   4  -1  10 2195.69 528.722   9
   4  -1  10 3450.02 702.200   2
  -4  -1 -11 1080.44 485.648   6
  -4  -1 -11 2184.46 745.936   5
   4  -1  11 1369.71 502.130   9
   4  -1  11 1151.62 448.211   2
  -4  -1 -12 3483.49 824.989   6
  -4  -1 -12 2600.51 848.115   5
   4  -1  12 5692.20 910.182   9
   4  -1  12 4822.99 831.618   2
   4  -1  13 4660.03 902.942   4
  -4  -1 -13 3981.51 903.822   6
  -4  -1 -13 6367.30 1316.36   5
   4  -1  13 4039.25 797.244   9
   4  -1  13 4874.54 900.102   2
   4  -1  14 4868.01 935.797   4
  -4  -1 -14 3062.28 938.405   6
  -4  -1 -14 4296.37 1200.24   5
   4  -1  14 1664.34 580.550   9
   4  -1  14 3705.91 790.089   2
   4  -1  15 6122.78 1056.84   4
  -4  -1 -15 8746.10 1402.88   6
   4  -1  15 8459.81 1256.31   9
  -4  -1 -16 3670.02 1167.02   5
  -4  -1 -17 1342.08 695.546   5
   4   0 -20 1773.35 808.001   7
  -4   0  20 2360.73 836.594   8
   4   0 -19 255.723 460.461   7
  -4   0  19 544.220 475.144   8
  -4   0  19 140.279 284.021   2
   4   0 -18 1035.95 648.442   7
  -4   0  18 285.726 495.159   8
  -4   0  18-290.366 329.312   2
   4   0 -17-65.4556 418.771   7
  -4   0  17 273.560 420.498   8
  -4   0  17 125.053 295.638   2
   4   0 -16-416.031 446.457   7
  -4   0  16 393.043 352.860   2
  -4   0  16 68.1514 433.159   8
   4   0 -15 668.181 413.229   7
  -4   0  15 37.7453 296.764   2
  -4   0  15-429.447 345.912   8
  -4   0  14 1276.22 569.829   8
   4   0 -14 3924.88 826.886   7
  -4   0  14 3025.95 666.803   2
  -4   0  13 42146.5 2570.69   8
  -4   0  13 49261.8 2448.20   2
   4   0 -13 49606.4 2742.95   7
  -4   0  12 63067.8 3008.86   8
  -4   0  12 67954.4 2757.30   2
   4   0 -12 63587.0 2964.43   7
   4   0 -11 3722.34 725.970   7
  -4   0  11 3372.28 732.106   8
  -4   0  11 3580.33 642.488   2
   4   0 -10 6219.23 872.382   7
  -4   0  10 6439.73 932.113   8
   4   0 -10 6500.68 819.917   4
  -4   0   9 17365.1 668.334   3
   4   0  -9 23744.5 1524.07   4
  -4   0   9 19974.9 1506.46   8
   4   0  -9 20229.7 1453.83   7
  -4   0   8 29318.4 965.552   3
  -4   0   8 33977.5 1859.58   8
   4   0  -8 28278.3 1623.19   4
   4   0  -8 29495.6 1662.79   7
  -4   0   7 9461.73 597.189   3
   4   0  -7 9872.80 958.918   4
  -4   0   7 9355.26 957.618   8
   4   0  -7 9236.45 883.136   7
  -4   0   6 25379.8 1034.84   3
   4   0  -6 23420.4 1423.14   4
  -4   0   6 25238.1 1463.90   8
   4   0  -6 25063.5 1344.51   7
  -4   0   5 53903.1 1593.69   3
  -4   0   5 51577.0 1971.20   8
   4   0  -5 51557.0 2069.10   4
   4   0  -5 56287.0 1889.23   7
   4   0  -4 13144.6 1043.78   4
   4   0  -4 13518.5 868.106   7
  -4   0   4 14407.1 995.245   8
  -4   0   3 6397.17 649.569   8
   4   0  -3 5626.58 694.433   4
   4   0  -3 5842.92 525.365   7
  -4   0   3 6265.28 475.662   1
  -4   0   2 23709.6 1164.42   8
   4   0  -2 24339.4 1401.81   4
   4   0  -2 24021.0 977.166   7
  -4   0   2 24966.4 819.678   1
  -4   0   1 38388.8 808.091   1
  -4   0   1 42331.6 1936.81   6
  -4   0   1 37845.4 1436.03   8
   4   0  -1 41211.7 1798.73   4
   4   0  -1 39262.2 1149.83   7
  -4   0   0 61281.0 2361.67   6
   4   0   0 62777.7 2231.77   4
  -4   0   0 60923.7 1777.71   8
  -4   0  -1 46697.3 2058.83   6
   4   0   1 45481.2 1757.85   9
   4   0   1 46039.1 1938.33   4
  -4   0  -1 45932.8 1506.46   8
  -4   0  -2 9941.92 985.440   6
   4   0   2 11565.9 910.870   9
   4   0   2 9928.59 917.799   4
   4   0   2 10957.1 560.164   7
  -4   0  -3 17353.0 1320.00   6
   4   0   3 17751.1 1144.04   9
   4   0   3 18605.6 1263.85   4
   4   0   3 19586.1 759.398   7
  -4   0  -4 14980.7 1270.18   6
   4   0   4 13585.1 436.679   1
   4   0   4 16709.7 1212.60   4
   4   0   4 16288.2 1137.62   9
   4   0   4 14829.1 702.484   7
   4   0   5 8743.73 471.715   1
  -4   0  -5 8895.06 1004.26   6
   4   0   5 8686.41 871.537   9
   4   0   5 9186.08 935.646   4
   4   0   5 9070.71 600.485   7
   4   0   6 15335.7 733.828   1
  -4   0  -6 16075.8 1380.82   6
   4   0   6 16306.2 1228.98   9
   4   0   6 17177.6 1294.53   4
   4   0   6 15829.0 860.912   7
  -4   0  -7 7123.92 960.905   6
   4   0   7 6586.91 846.053   9
   4   0   7 5929.83 801.864   4
  -4   0  -8 7298.42 1042.70   6
   4   0   8 8162.22 981.122   9
  -4   0  -8 6376.40 662.838   7
   4   0   8 6502.01 859.901   4
  -4   0  -9 17233.1 1620.50   6
   4   0   9 14591.5 1352.37   9
   4   0   9 13558.5 1251.57   4
  -4   0  -9 13350.9 1014.47   7
  -4   0 -10 32090.8 2289.88   6
   4   0  10 33935.8 2122.52   9
   4   0  10 28425.9 1833.35   4
  -4   0 -10 32445.1 1678.81   7
   4   0  11 3813.34 723.433   4
  -4   0 -11 4891.50 1002.45   6
   4   0  11 3695.08 781.158   9
  -4   0 -11 3703.09 630.453   7
  -4   0 -12 11301.2 1495.84   6
   4   0  12 10757.9 1319.23   9
   4   0  12 9875.45 1138.14   4
  -4   0 -13 1768.45 667.551   6
  -4   0 -13 2375.36 848.260   5
   4   0  13 2206.81 662.194   9
   4   0  13 2153.48 596.359   4
   4   0  14 7026.26 1147.78   9
  -4   0 -14 6918.84 1297.08   6
  -4   0 -14 7935.70 1514.65   5
  -4   0 -15-197.669 348.876   6
  -4   0 -15 900.964 706.847   5
   4   0  15-112.408 318.826   9
  -4   0 -16 266.756 376.434   6
  -4   0 -16 1160.23 709.646   5
  -4   0 -17 422.108 541.339   5
   4   0  17-225.101 360.170   9
   4   0  18 386.020 462.253   9
  -4   0 -18 1288.23 877.095   5
   4   1 -20 1260.66 666.525   7
  -4   1  20 2128.64 893.276   8
   4   1 -19 810.078 614.033   7
  -4   1  19 2165.21 830.483   8
   4   1 -18 4767.46 1078.68   7
  -4   1  18 5671.92 1187.43   8
   4   1 -17 14967.8 1775.77   7
  -4   1  17 16232.2 1865.25   8
  -4   1  17 13349.0 1369.07   2
   4   1 -16 4235.13 990.131   7
  -4   1  16 6762.22 1227.17   8
  -4   1  16 3870.93 730.837   2
   4   1 -15 3403.19 849.571   7
  -4   1  15 4253.01 929.210   8
  -4   1  15 3346.38 669.448   2
   4   1 -14 6886.39 1126.99   7
  -4   1  14 8393.79 1229.48   8
  -4   1  14 7354.60 940.133   2
   4   1 -13 5519.84 959.451   7
  -4   1  13 3671.98 816.091   8
  -4   1  13 4141.50 710.007   2
   4   1 -12 8192.80 1095.73   7
   4   1 -12 7220.15 597.711   3
  -4   1  12 7856.31 1131.81   8
   4   1 -11 816.275 390.967   7
   4   1 -11 464.861 179.526   3
  -4   1  11 504.985 315.406   8
   4   1 -10 10508.0 747.991   3
  -4   1  10 15222.7 1421.68   8
   4   1 -10 12569.9 1234.42   7
   4   1  -9 35084.4 1386.74   3
   4   1  -9 32370.2 1945.66   4
  -4   1   9 35649.4 2046.64   8
   4   1  -9 34483.6 1926.71   7
   4   1  -8 20867.2 1524.26   4
   4   1  -8 17540.8 1004.65   3
  -4   1   8 19075.6 588.967   3
  -4   1   8 20666.5 1496.21   8
   4   1  -8 20477.3 1415.15   7
  -4   1   7 37920.3 1061.54   3
   4   1  -7 33966.1 1416.50   3
   4   1  -7 37964.8 2002.95   4
  -4   1   7 35138.5 1888.77   8
   4   1  -7 36524.0 1787.80   7
   4   1  -6 51735.3 1798.12   3
   4   1  -6 52303.3 2300.94   4
  -4   1   6 51010.8 2208.85   8
   4   1  -6 48097.2 1924.31   7
   4   1  -5 1998.49 382.504   7
   4   1  -5 2928.02 443.726   3
  -4   1   5 2448.75 479.277   8
   4   1  -5 2915.97 563.365   4
   4   1  -4 56502.9 1969.89   3
   4   1  -4 56779.3 2291.41   4
  -4   1   4 56708.6 2163.79   8
   4   1  -4 52582.6 1720.83   7
   4   1  -3 45850.4 1849.25   3
  -4   1   3 44957.7 1900.41   8
   4   1  -3 49552.3 2112.34   4
   4   1  -3 46670.0 1483.72   7
   4   1  -2 382.411 166.810   7
   4   1  -2 55.5247 173.979   3
  -4   1   2 76.5288 178.270   6
  -4   1   2 138.986 210.490   8
   4   1  -2 4.11649 213.275   4
  -4   1   2 200.102 101.557   1
  -4   1   1 8832.88 944.154   6
  -4   1   1 7672.54 769.263   8
  -4   1   1 9023.02 555.444   1
   4   1  -1 9793.77 614.637   8
   4   1  -1 9735.10 938.220   4
   4   1  -1 9967.93 505.233   7
  -4   1   0 51640.0 2248.67   6
   4   1   0 51144.0 2023.76   9
   4   1   0 51323.3 1255.62   8
   4   1   0 51633.8 2073.61   4
  -4   1   0 47696.7 1877.55   8
   4   1   0 48580.8 818.311   7
   4   1   1 3722.20 579.584   9
   4   1   1 3259.30 290.137   8
  -4   1  -1 3983.65 644.332   6
  -4   1  -1 3141.41 491.307   8
   4   1   1 2964.29 519.238   4
  -4   1  -2 27157.0 1668.43   6
   4   1   2 26310.2 1507.37   9
   4   1   2 25682.5 1448.32   4
   4   1   2 25593.1 741.584   8
  -4   1  -3 4750.58 741.442   6
   4   1   3 3647.95 567.673   9
   4   1   3 4729.03 318.045   8
   4   1   3 4438.16 616.462   4
  -4   1  -4 51418.0 2420.25   6
   4   1   4 53309.1 2259.73   9
   4   1   4 52152.4 1116.74   8
   4   1   4 52407.1 2113.50   4
  -4   1  -5 36363.3 2106.13   6
   4   1   5 35587.8 1212.61   1
   4   1   5 38167.0 1973.28   9
   4   1   5 39886.9 1849.27   4
   4   1   5 37411.9 1049.24   8
  -4   1  -6 19795.8 1621.92   6
   4   1   6 20259.3 1508.19   9
   4   1   6 19527.9 1306.29   4
   4   1   6 17351.0 796.138   8
   4   1   7 10305.0 670.706   8
  -4   1  -7 9537.85 1153.99   6
   4   1   7 11498.9 1201.39   9
   4   1   7 10965.1 1019.96   4
  -4   1  -8 18407.1 1667.70   6
   4   1   8 18685.7 1562.45   9
   4   1   8 16990.6 1266.92   4
  -4   1  -9 3049.86 754.854   6
   4   1   9 4735.97 847.020   9
   4   1   9 4044.38 657.734   4
  -4   1 -10 2871.52 772.253   6
   4   1  10 2686.88 660.993   9
   4   1  10 1667.86 426.724   4
  -4   1 -11 709.775 429.415   6
   4   1  11 428.443 335.506   9
   4   1  11 417.125 246.715   4
  -4   1 -12 3251.74 905.939   6
   4   1  12 5177.45 1010.50   9
  -4   1 -12 4120.23 745.571   7
  -4   1 -13 6039.75 1154.89   6
   4   1  13 5872.78 1110.33   9
  -4   1 -13 6421.72 967.251   7
  -4   1 -14 1777.44 702.356   6
   4   1  14 2010.29 661.474   9
  -4   1 -15 5362.93 1204.49   6
   4   1  15 5110.03 1077.84   9
  -4   1 -16 3198.55 1025.91   6
  -4   1 -16 3735.65 1066.66   5
   4   1  16 4603.90 1099.77   9
  -4   1 -17 1249.18 699.183   5
   4   1  17 19.8315 383.761   9
  -4   2  20 474.437 436.529   8
   4   2 -19-99.5389 530.637   7
  -4   2  19 804.913 599.477   8
   4   2 -18 668.463 621.555   7
  -4   2  18-364.967 496.914   8
   4   2 -17 311.975 430.683   7
  -4   2  17 1322.60 706.175   8
   4   2 -16 659.775 500.835   7
  -4   2  16 2237.92 750.565   8
   4   2 -15 3274.17 839.757   7
  -4   2  15 2596.82 793.836   8
  -4   2  15 2607.34 600.690   2
  -4   2  14 15598.9 1712.55   8
   4   2 -14 16771.8 1751.57   7
   4   2 -13 5179.34 972.890   7
   4   2 -13 5705.97 732.306   3
  -4   2  13 8348.85 1217.09   8
   4   2 -12 7242.14 810.231   3
   4   2 -12 7865.76 1112.20   7
  -4   2  12 6491.05 1043.93   8
   4   2 -11 8206.89 1105.61   7
   4   2 -11 10822.7 988.594   3
  -4   2  11 12683.7 1390.48   8
   4   2 -10 9658.89 1122.98   7
   4   2 -10 10278.3 961.496   3
  -4   2  10 8408.10 1143.82   8
   4   2  -9 10458.4 969.523   3
  -4   2   9 9940.45 529.833   3
  -4   2   9 13414.8 1331.21   8
   4   2  -9 10474.9 1141.79   7
   4   2  -8 3299.24 619.130   7
  -4   2   8 2206.03 325.278   3
   4   2  -8 2611.21 504.589   3
  -4   2   8 1144.21 432.056   8
   4   2  -7 22562.7 1412.39   3
  -4   2   7 18979.0 1506.03   8
   4   2  -7 22276.4 1466.26   7
   4   2  -6 1184.79 380.104   7
   4   2  -6 1273.74 383.511   3
   4   2  -6 833.325 412.866   4
  -4   2   6 947.008 395.740   8
   4   2  -5 12704.3 1232.09   4
   4   2  -5 11798.4 1049.38   3
  -4   2   5 15090.6 1291.15   8
   4   2  -5 13576.2 1030.64   7
   4   2  -4 11322.6 1034.46   3
   4   2  -4 11070.4 1136.27   4
  -4   2   4 11093.7 1075.60   8
   4   2  -4 11662.3 882.408   7
   4   2  -3 7605.15 856.582   3
  -4   2   3 7112.18 869.827   6
   4   2  -3 5957.12 829.004   4
  -4   2   3 7235.22 876.175   8
   4   2  -3 8226.02 686.546   7
   4   2  -2 90866.6 2940.12   3
  -4   2   2 89278.8 3024.87   6
   4   2  -2 90616.4 3071.54   4
  -4   2   2 88680.9 2968.20   8
   4   2  -2 85837.7 2029.02   7
   4   2  -1 29896.5 1720.70   3
  -4   2   1 28801.4 1727.05   6
   4   2  -1 29089.8 1722.52   4
  -4   2   1 30660.5 1734.21   8
   4   2   0 51932.1 2304.06   3
  -4   2   0 43578.3 2157.47   6
  -4   2   0 45515.4 1427.58   9
   4   2   0 47879.9 2122.20   9
   4   2   0 46649.4 2116.01   4
  -4   2   0 44928.2 2079.50   8
   4   2   1 30345.2 1820.10   3
  -4   2  -1 31901.6 1869.65   6
  -4   2  -1 29962.3 1120.47   9
   4   2   1 32994.6 1796.52   9
   4   2   1 30281.9 1686.13   4
  -4   2  -1 30979.5 1735.58   8
   4   2   2 8498.32 989.528   3
   4   2   2 7511.42 886.400   9
  -4   2  -2 7513.38 934.970   6
  -4   2  -2 7837.67 576.488   9
   4   2   2 8054.57 878.334   4
  -4   2  -3 10098.6 1109.20   6
  -4   2  -3 8965.08 625.920   9
   4   2   3 8178.77 950.454   9
   4   2   3 8539.27 885.127   4
  -4   2  -4 2099.12 553.060   6
   4   2   4 1520.33 450.529   9
   4   2   4 2083.00 450.423   4
  -4   2  -5 3244.93 686.453   6
   4   2   5 2480.07 628.187   9
   4   2   5 3312.75 547.255   4
  -4   2  -6 3811.38 755.852   6
   4   2   6 4565.00 779.191   9
   4   2   6 4630.40 644.548   4
  -4   2  -7 2855.11 704.551   6
   4   2   7 1398.87 584.686   9
   4   2   7 1918.51 425.690   4
  -4   2  -8 29970.6 2197.84   6
   4   2   8 31042.4 2141.60   9
   4   2   8 26127.7 1495.94   4
  -4   2  -9 6092.04 1074.46   6
   4   2   9 8038.84 1167.78   9
   4   2   9 6843.79 773.987   4
  -4   2 -10 12070.5 1520.29   6
   4   2  10 12851.2 1503.41   9
  -4   2 -11 19848.5 1994.72   6
   4   2  11 17123.4 1783.96   9
  -4   2 -12 8797.46 1402.51   6
   4   2  12 7719.57 1245.92   9
  -4   2 -13 1805.17 740.228   6
   4   2  13 2463.48 796.360   9
  -4   2 -14 1012.52 682.022   6
   4   2  14 622.812 502.022   9
  -4   2 -15-988.829 668.028   6
   4   2  15 439.227 467.697   9
  -4   2 -16 390.351 454.607   6
   4   2  16-39.6389 446.092   9
  -4   3  19 3426.90 997.225   8
  -4   3  18 1332.93 591.711   8
   4   3 -18 1634.95 798.731   7
  -4   3  17 3742.54 939.136   8
   4   3 -17 2612.49 803.775   7
  -4   3  16 3564.14 969.053   8
   4   3 -16 3056.19 893.708   7
  -4   3  15 501.800 535.362   8
   4   3 -15 1122.89 513.950   7
  -4   3  14 1959.77 643.724   8
   4   3 -14 3004.71 828.214   7
   4   3 -13 1116.05 435.811   3
  -4   3  13 2084.59 721.087   8
   4   3 -13 937.944 485.369   7
   4   3 -12 570.716 349.785   3
  -4   3  12 994.790 493.794   8
   4   3 -12-318.359 494.959   7
   4   3 -11 1046.12 443.005   3
  -4   3  11 503.586 452.764   8
   4   3 -11 1109.66 502.937   7
   4   3 -10 8868.39 1090.74   3
  -4   3  10 8021.23 1126.14   8
   4   3 -10 9384.63 1200.83   7
  -4   3   9 5739.22 606.271   3
   4   3  -9 5432.94 839.614   3
  -4   3   9 5310.90 934.089   8
   4   3  -9 5498.38 911.100   7
  -4   3   8 8850.64 820.849   3
   4   3  -8 7946.20 993.383   3
  -4   3   8 8128.46 1125.86   8
   4   3  -8 7269.58 957.410   7
   4   3  -7 12980.8 1269.80   3
  -4   3   7 12145.2 1024.83   3
  -4   3   7 14884.7 1444.24   8
   4   3  -7 12962.4 1228.24   7
   4   3  -6 19590.9 1533.51   3
  -4   3   6 20592.5 1404.74   3
  -4   3   6 17138.3 1521.58   8
   4   3  -6 19149.5 1433.91   7
   4   3  -5 22667.0 1653.70   3
  -4   3   5 24186.7 1652.57   6
  -4   3   5 24632.0 1806.54   8
   4   3  -5 23334.3 1505.78   7
  -4   3   4 3983.71 696.583   6
   4   3  -4 6328.53 894.563   3
  -4   3   4 4790.69 812.884   8
   4   3  -4 5073.65 669.602   7
  -4   3   3 7983.06 961.999   6
   4   3  -3 9026.06 1059.26   3
  -4   3   3 9010.96 1072.19   8
   4   3  -2 14541.7 1338.14   3
  -4   3   2 13741.5 1249.64   6
  -4   3   2 13115.7 1290.73   8
   4   3  -1-10.3316 231.408   3
  -4   3   1 617.896 341.104   6
   4   3  -1 535.795 273.462   9
   4   3  -1 854.485 392.023   4
  -4   3   1 720.999 399.007   8
  -4   3   0 1314.80 468.559   8
   4   3   0 815.280 377.847   3
  -4   3   0 978.293 406.790   6
  -4   3   0 1342.75 212.722   9
   4   3   0 589.421 286.340   4
   4   3   0 1210.15 401.158   9
   4   3   1 8860.66 1081.81   3
  -4   3  -1 6070.72 881.394   6
  -4   3  -1 6913.87 398.495   9
   4   3   1 5550.51 831.622   9
   4   3   1 8873.24 1009.95   4
   4   3   2 12348.9 1289.52   3
  -4   3  -2 10371.8 1142.64   6
   4   3   2 12068.9 1140.97   4
   4   3   2 12543.7 1233.60   9
   4   3   3 16889.1 1515.13   3
  -4   3  -3 16952.3 1477.91   6
   4   3   3 20487.9 1616.63   9
   4   3   3 16107.9 1298.90   4
   4   3   4 25945.3 1914.74   3
  -4   3  -4 24295.3 1808.78   6
   4   3   4 23591.0 1763.08   9
   4   3   4 23979.9 1556.30   4
   4   3   5 19264.6 1687.88   3
  -4   3  -5 18523.1 1642.32   6
   4   3   5 19823.8 1393.03   4
   4   3   5 18886.6 1635.11   9
  -4   3  -6 17511.9 1647.13   6
   4   3   6 16988.6 1603.22   9
   4   3   6 16720.1 1259.10   4
  -4   3  -7 5520.15 971.239   6
   4   3   7 6566.46 1034.87   9
   4   3   7 4726.09 664.991   4
  -4   3  -8 3526.63 801.945   6
   4   3   8 3640.23 856.881   9
   4   3   9 550.010 400.481   9
  -4   3  -9 800.523 507.150   6
  -4   3 -10 250.794 393.078   6
   4   3  10 1826.90 716.855   9
  -4   3 -11 573.330 528.282   6
   4   3  11 351.215 412.341   9
  -4   3 -12 1119.64 700.938   6
   4   3  12 1509.08 649.205   9
  -4   3 -13 1048.54 499.114   6
   4   3  13 1896.40 713.242   9
  -4   3 -14 2615.67 859.862   6
   4   3  14 1568.83 730.774   9
  -4   3 -15 4440.78 1111.61   6
   4   3  15 4681.07 1170.74   9
  -4   4  18 949.527 656.840   8
  -4   4  17 99.7368 424.646   8
   4   4 -17-336.144 522.582   7
  -4   4  16 203.756 526.642   8
   4   4 -16 252.711 463.319   7
  -4   4  15 644.508 499.810   8
   4   4 -15 492.854 405.774   7
   4   4 -14 3396.11 786.741   3
  -4   4  14 3686.20 913.061   8
   4   4 -14 5019.22 1102.42   7
   4   4 -13 7385.30 1172.12   3
  -4   4  13 5924.67 1152.22   8
   4   4 -13 6887.66 1258.33   7
   4   4 -12 5511.52 992.254   3
  -4   4  12 4579.41 977.816   8
   4   4 -12 5322.36 1052.49   7
   4   4 -11 8538.06 1211.48   3
  -4   4  11 7743.83 1221.05   8
   4   4 -11 9782.91 1347.80   7
   4   4 -10 2714.06 690.092   3
  -4   4  10 4136.68 891.370   8
   4   4 -10 4022.14 883.016   7
   4   4  -9 4165.61 816.695   3
  -4   4   9 6027.16 1069.96   8
   4   4  -9 5341.84 958.493   7
   4   4  -8 4390.42 868.549   3
  -4   4   8 3087.80 601.634   3
  -4   4   8 4463.96 920.675   8
   4   4  -8 4039.00 812.501   7
  -4   4   7 602.708 305.044   6
   4   4  -7 1108.31 500.711   3
  -4   4   7 1256.67 424.255   3
  -4   4   7 476.782 304.797   8
   4   4  -7 1364.13 505.641   7
  -4   4   6-32.5613 225.825   6
   4   4  -6 265.000 302.011   3
  -4   4   6 417.746 342.796   3
  -4   4   6-264.596 298.413   8
  -4   4   5 1053.80 407.785   6
   4   4  -5 672.870 435.814   3
  -4   4   5 780.071 407.106   3
  -4   4   5 1250.48 496.347   8
   4   4  -4 15207.9 1525.28   3
  -4   4   4 15016.5 1337.44   6
  -4   4   4 15353.0 1507.50   3
  -4   4   4 13732.8 1480.19   8
  -4   4   3 4483.43 735.460   6
   4   4  -3 5570.34 940.838   3
  -4   4   3 6405.20 1012.00   3
  -4   4   3 5431.64 923.429   8
   4   4  -2 19646.4 1747.22   3
  -4   4   2 20667.6 1552.57   6
  -4   4   2 21245.3 1792.97   8
   4   4  -1 2281.69 637.449   3
  -4   4   1 2831.18 599.106   6
  -4   4   1 2638.08 722.361   8
   4   4   0 22912.6 1889.11   3
  -4   4   0 23522.0 1706.40   6
   4   4   0 22130.6 1705.24   9
   4   4   1 17862.9 1677.00   3
  -4   4  -1 16572.8 1451.06   6
   4   4   1 16949.7 1509.18   9
   4   4   2 3170.59 732.039   3
  -4   4  -2 2431.30 626.350   6
   4   4   2 2110.12 612.253   9
   4   4   3 1229.91 556.381   3
  -4   4  -3 2055.34 601.483   6
   4   4   3 997.485 439.438   9
   4   4   4 5018.63 961.658   3
  -4   4  -4 3891.89 807.269   6
   4   4   4 5328.94 922.940   9
   4   4   5 138.347 302.235   3
  -4   4  -5 519.472 336.193   6
   4   4   5 396.645 381.805   9
   4   4   6 768.421 442.936   3
  -4   4  -6 1125.99 520.741   6
   4   4   6 1016.01 537.133   9
   4   4   7 1409.55 589.547   3
  -4   4  -7 1949.05 585.444   6
   4   4   7 1840.59 655.780   9
  -4   4  -8 6913.28 1182.45   6
   4   4   8 8885.68 1326.59   9
  -4   4  -9 8227.67 1284.11   6
   4   4   9 8412.50 1334.23   9
   4   4  10 4944.11 1133.58   9
  -4   4 -10 7436.20 1309.39   6
  -4   4 -11 10013.9 1535.39   6
   4   4  11 9119.36 1463.49   9
  -4   4 -12 1816.26 753.498   6
   4   4  12 1793.92 750.563   9
  -4   4 -13 2347.24 869.200   6
   4   4  13 1888.91 767.293   9
  -4   4 -14 212.620 337.029   6
  -4   5  16 1542.35 663.231   8
  -4   5  15 2311.70 791.913   8
   4   5 -15 1586.88 687.122   7
   4   5 -14 313.157 398.097   3
  -4   5  14 903.201 530.636   8
   4   5 -14 788.497 547.157   7
   4   5 -13 1787.41 675.870   3
  -4   5  13 1606.04 654.441   8
   4   5 -13 558.978 414.011   7
   4   5 -12 365.219 416.407   3
  -4   5  12-48.5462 401.919   8
   4   5 -12 210.892 412.276   7
   4   5 -11 1440.07 644.415   3
  -4   5  11 317.040 434.028   8
   4   5 -10 3398.89 887.706   3
  -4   5  10 2882.16 827.832   8
   4   5  -9 4440.62 1022.88   3
  -4   5   9 4684.17 1009.73   8
   4   5  -8 6623.41 1177.57   3
  -4   5   8 5040.73 1035.66   8
   4   5  -7 4037.47 965.032   3
  -4   5   7 3850.23 818.643   3
  -4   5   7 3261.17 829.064   8
   4   5  -6 4665.23 986.411   3
  -4   5   6 2925.29 719.108   3
  -4   5   6 2380.43 726.547   8
   4   5  -5 3794.04 915.509   3
  -4   5   5 5020.96 956.719   3
  -4   5   5 3482.99 849.726   8
  -4   5   4 9361.78 1075.49   6
   4   5  -4 10203.3 1416.60   3
  -4   5   4 9042.63 1320.46   3
  -4   5   4 10961.5 1409.22   8
  -4   5   3 2903.55 623.084   6
   4   5  -3 4895.51 1063.63   3
  -4   5   3 3290.21 839.741   3
  -4   5   3 3139.55 781.239   8
  -4   5   2 533.355 271.538   6
   4   5  -2 1333.69 582.359   3
  -4   5   2 1457.23 621.115   3
   4   5  -1-407.842 358.369   3
  -4   5   1-233.980 268.431   6
  -4   5   1 4.46798 352.142   3
   4   5   0-148.715 308.210   3
  -4   5   0 126.784 265.991   6
  -4   5   0 215.152 456.701   3
   4   5   0 167.943 372.974   9
   4   5   1 2334.65 787.375   3
  -4   5  -1 1502.30 482.006   6
  -4   5  -1 1703.00 644.305   3
   4   5   1 1564.05 527.883   9
  -4   5  -2 6407.42 1257.03   3
   4   5   2 4350.80 991.054   3
  -4   5  -2 7200.61 1020.22   6
   4   5   2 6159.07 1032.39   9
   4   5   3 2417.94 745.456   3
  -4   5  -3 3331.22 744.658   6
   4   5   3 3753.60 838.086   9
   4   5   4 4345.97 941.189   3
  -4   5  -4 2452.57 692.742   6
   4   5   4 2943.70 772.712   9
   4   5   5 7454.38 1262.08   3
  -4   5  -5 8825.71 1220.62   6
   4   5   5 7463.10 1203.49   9
   4   5   6 5324.27 1099.56   3
  -4   5  -6 5108.94 963.322   6
   4   5   6 5253.05 1039.89   9
   4   5   7 2163.11 701.005   3
  -4   5  -7 3284.87 852.315   6
   4   5   7 4718.85 1024.58   9
   4   5   8 2817.60 892.881   3
   4   5   8 1881.26 701.884   9
  -4   5  -8 1955.69 687.318   6
  -4   5  -9 244.470 382.199   6
   4   5   9 712.888 531.549   9
  -4   5 -10 485.986 455.793   6
   4   5  10 425.300 594.642   9
  -4   5 -11-539.741 605.792   6
   4   5  11-658.875 729.597   9
  -4   5 -12 1178.79 666.012   6
   4   6 -13 4721.57 1187.07   3
  -4   6  13 4117.22 1060.15   8
   4   6 -12 2499.20 944.593   3
  -4   6  12 2534.93 828.196   8
   4   6 -11 1513.71 759.547   3
  -4   6  11 1226.92 674.566   8
   4   6 -10 3415.94 980.912   3
  -4   6  10 948.261 587.369   8
   4   6  -9 687.702 633.859   3
  -4   6   9 1338.65 611.480   8
   4   6  -8 4342.67 1148.59   3
  -4   6   8 740.296 498.278   8
   4   6  -7 1016.18 747.945   3
  -4   6   7 1622.07 642.159   8
   4   6  -6 224.577 507.455   3
  -4   6   6-45.4610 387.666   3
  -4   6   6 589.161 483.809   8
   4   6  -5 2567.81 832.336   3
  -4   6   5 1808.92 687.849   3
   4   6  -4 1635.02 735.047   3
  -4   6   4 2074.83 785.934   3
   4   6  -3 3093.26 896.526   3
  -4   6   3 3858.26 952.214   3
   4   6  -2 2075.40 773.871   3
  -4   6   2 1507.16 696.434   3
   4   6  -1 2745.78 859.209   3
  -4   6   1 2677.00 887.800   3
   4   6   0 2041.55 827.808   3
  -4   6   0 1556.37 767.487   3
   4   6   1 2549.63 853.051   3
  -4   6  -1 4148.54 1133.64   3
   4   6   1 3013.93 748.666   9
   4   6   2 1991.15 640.384   9
  -4   6  -2 3328.80 1075.13   3
   4   6   3 1120.89 632.319   3
  -4   6  -3 2440.53 963.705   3
   4   6   3 2186.08 724.588   9
   4   6   4-1272.22 676.991   3
  -4   6  -4-245.607 497.999   3
   4   6   4 582.454 545.944   9
   4   6   5 64.8486 418.098   3
  -4   6  -5-68.9949 550.571   3
   4   6   5 357.404 308.745   9
   4   6   6-334.991 470.332   3
  -4   6  -6 133.802 483.803   3
   4   6   6-350.080 413.248   9
   4   6   7 1234.41 734.512   3
  -4   6  -7 82.0712 590.946   3
   4   6   7 1393.18 694.583   9
   4   6   8 219.949 470.837   3
   4   6   8-21.8213 514.068   9
   4   6   9 3993.23 1109.56   3
  -4   7   4 462.999 498.875   3
  -4   7   3 1872.57 822.202   3
  -4   7   2 623.356 626.950   3
  -4   7   1 1736.80 812.234   3
  -4   7   0 569.393 627.166   3
  -4   7  -1 370.314 596.465   3
   4   7   5 1329.47 582.944   9
   5  -7  -2-350.841 433.892   1
   5  -7  -1 527.254 395.193   1
  -5  -7   1 739.971 536.732   1
  -5  -7   0 1549.21 741.510   1
   5  -7   0 386.983 571.737   1
   5  -7   1 2113.11 836.120   1
  -5  -7  -1 2192.32 851.594   1
   5  -7   2-76.4751 441.686   1
  -5  -6  10 166.904 438.290   2
   5  -6 -10 528.828 585.753   1
  -5  -6   9-236.981 414.663   2
   5  -6  -9-285.466 455.231   1
  -5  -6   8-526.385 530.838   2
   5  -6  -8-56.6556 317.050   1
  -5  -6   7 1913.28 696.188   2
   5  -6  -7 1744.80 669.467   1
   5  -6  -6 647.455 518.466   1
  -5  -6   6 520.399 432.152   2
   5  -6  -5 1118.88 527.954   1
  -5  -6   5 1119.48 563.745   2
   5  -6  -4 3114.29 804.718   1
  -5  -6   4 4999.36 1012.23   2
  -5  -6   4 4084.05 964.909   1
   5  -6  -3 1948.16 636.298   4
  -5  -6   3 1111.93 528.602   1
   5  -6  -3 1076.28 599.523   1
   5  -6  -2 4652.12 1013.51   4
   5  -6  -2 3466.45 840.945   1
  -5  -6   2 2984.56 902.334   1
   5  -6  -1 410.754 361.170   1
  -5  -6   1 209.055 344.112   1
  -5  -6   0 1964.77 757.632   1
   5  -6   0 2638.32 806.404   1
  -5  -6  -1 599.069 557.032   1
   5  -6   1-248.393 366.975   1
  -5  -6  -2 911.946 576.681   5
  -5  -6  -2 1536.77 676.581   1
   5  -6   3 736.071 441.417   1
  -5  -6  -3 192.586 335.706   1
  -5  -6  -3-308.321 492.533   5
   5  -6   3-44.4767 383.643   2
   5  -6   4 567.166 447.335   1
  -5  -6  -4 134.108 395.483   1
  -5  -6  -4 1613.35 885.868   5
   5  -6   4 719.944 542.175   2
  -5  -6  -5 1619.54 898.259   5
   5  -6   5 1179.62 801.061   2
  -5  -6  -6-569.031 577.849   5
  -5  -6  -7 1434.73 863.701   5
   5  -5 -13 1392.50 681.521   7
  -5  -5  13 2621.07 902.085   2
   5  -5 -13 908.082 552.724   1
   5  -5 -12 3509.18 895.049   7
  -5  -5  12 2879.71 848.653   2
   5  -5 -12 3976.28 1009.01   1
  -5  -5  11 3023.39 807.041   2
   5  -5 -11 2668.51 759.558   1
  -5  -5  10 307.547 370.385   2
   5  -5 -10 1035.49 463.532   1
  -5  -5   9 4648.90 1036.08   2
   5  -5  -9 5206.83 1032.30   1
  -5  -5   8 2970.13 848.115   2
   5  -5  -8 4946.30 984.958   1
  -5  -5   7 2496.54 721.544   2
   5  -5  -7 1817.53 569.898   1
  -5  -5   6 300.585 428.294   2
   5  -5  -6 445.626 302.615   1
   5  -5  -6-59.6635 304.567   4
   5  -5  -5 1855.59 561.306   4
   5  -5  -5 1874.43 619.477   1
  -5  -5   5 2197.60 698.769   2
   5  -5  -4 1009.68 458.056   4
   5  -5  -4 372.338 320.121   1
  -5  -5   4 1062.01 493.101   2
   5  -5  -3 632.864 441.507   4
   5  -5  -3-165.451 330.617   1
  -5  -5   3 615.803 436.574   2
   5  -5  -2 2713.90 729.892   4
   5  -5  -2 4164.28 848.133   1
  -5  -5   2 1596.87 530.946   2
  -5  -5   2 2990.21 794.056   1
  -5  -5   1 990.700 434.060   2
  -5  -5   1 1098.08 543.633   1
   5  -5  -1 1034.44 470.163   1
  -5  -5   1 1130.15 598.865   5
  -5  -5   0 2687.79 761.194   5
   5  -5   0 2266.33 650.809   1
  -5  -5   0 3681.22 836.262   1
  -5  -5  -1 3190.87 776.587   1
  -5  -5  -1 4735.48 1080.44   5
   5  -5   1 2290.01 633.527   1
  -5  -5  -2 5414.61 965.186   1
   5  -5   2 4439.96 854.514   1
  -5  -5  -2 3789.33 972.087   5
   5  -5   2 4685.03 997.355   2
   5  -5   3 9470.78 1241.33   1
  -5  -5  -3 9143.89 1504.83   5
  -5  -5  -3 8659.14 1214.91   1
   5  -5   3 8192.84 1337.87   2
  -5  -5  -4 3071.45 770.514   1
  -5  -5  -4 5066.47 1144.83   5
   5  -5   4 2956.12 742.152   1
   5  -5   4 3496.36 921.806   2
  -5  -5  -5 2217.62 688.966   1
  -5  -5  -5 1330.04 743.439   5
   5  -5   5 1095.50 485.166   1
   5  -5   5 2323.15 781.621   2
  -5  -5  -6-79.1206 447.813   5
   5  -5   6 1240.22 622.913   2
  -5  -5  -7-511.779 591.083   5
   5  -5   7 342.548 492.904   2
  -5  -5  -8-3.52984 568.917   5
   5  -5   8-551.312 700.963   2
  -5  -5  -9-366.405 713.273   5
   5  -5   9 775.617 559.196   2
   5  -4 -16 2293.58 841.983   7
  -5  -4  16 1837.71 821.918   2
  -5  -4  16 983.998 670.569   8
   5  -4 -15 4532.45 1042.35   7
  -5  -4  15 4092.56 1055.17   2
  -5  -4  15 4934.27 1120.41   8
   5  -4 -14 3255.83 905.336   7
  -5  -4  14 2765.87 911.694   2
   5  -4 -13 3486.88 939.957   7
  -5  -4  13 3458.92 944.870   2
   5  -4 -12 1320.92 608.375   7
  -5  -4  12 1354.25 704.351   2
   5  -4 -11 4329.01 919.269   7
   5  -4 -11 4745.46 946.196   1
  -5  -4  11 2972.68 829.645   2
   5  -4 -10 906.731 396.899   1
  -5  -4  10 1129.30 565.323   2
  -5  -4   9 3447.98 818.998   2
   5  -4  -9 4871.06 921.124   1
  -5  -4   8 3204.81 811.969   2
   5  -4  -8 3186.61 723.883   1
   5  -4  -8 3113.77 624.667   4
  -5  -4   7 5248.95 972.624   2
   5  -4  -7 6792.08 1006.46   1
   5  -4  -7 7617.34 964.116   4
  -5  -4   6 2746.67 721.580   2
   5  -4  -6 1775.98 538.636   1
   5  -4  -6 2271.80 560.203   4
  -5  -4   5 1664.59 547.365   2
   5  -4  -5 854.537 377.583   1
   5  -4  -5 684.364 319.784   4
   5  -4  -4 13330.7 1316.64   1
   5  -4  -4 15520.7 1453.91   4
  -5  -4   4 14406.7 1416.84   2
   5  -4  -3 10019.6 1187.18   4
   5  -4  -3 7763.84 987.474   1
  -5  -4   3 8399.73 1052.22   5
  -5  -4   3 7645.22 1000.96   2
   5  -4  -2 10639.3 1233.21   4
   5  -4  -2 10137.6 1122.72   1
  -5  -4   2 12150.6 1322.00   5
  -5  -4   2 8613.47 1047.69   2
   5  -4  -1 10865.8 1267.11   4
   5  -4  -1 9858.14 1080.60   1
  -5  -4   1 8188.41 979.191   2
  -5  -4   1 9328.17 1217.48   5
  -5  -4   1 9917.53 1170.67   1
  -5  -4   0 3405.29 686.492   1
  -5  -4   0 3474.01 816.685   5
  -5  -4   0 2600.96 553.554   2
   5  -4   0 4721.17 768.846   1
  -5  -4  -1 4754.93 799.291   1
  -5  -4  -1 4192.26 645.029   2
  -5  -4  -1 2157.42 695.577   5
   5  -4   1 2365.02 557.766   1
  -5  -4  -2 103.046 202.454   1
   5  -4   2 49.9485 263.337   1
  -5  -4  -2-476.936 409.553   5
   5  -4   3 6284.27 892.309   1
  -5  -4  -3 5749.90 1149.94   5
  -5  -4  -3 5443.70 839.155   1
   5  -4   3 3937.91 896.360   2
  -5  -4  -4 3304.29 666.217   1
  -5  -4  -4 4404.23 1049.71   5
   5  -4   4 4098.14 744.792   1
   5  -4   4 3597.21 846.628   2
  -5  -4  -5 3663.66 687.329   1
   5  -4   5 3607.31 682.453   1
  -5  -4  -5 3749.97 1050.18   5
   5  -4   5 3966.74 930.178   2
   5  -4   6 7819.83 1013.81   1
  -5  -4  -6 9245.40 1065.56   1
  -5  -4  -6 8374.80 1500.16   5
   5  -4   6 9682.12 1408.04   2
  -5  -4  -7 8482.63 1534.51   5
   5  -4   7 8468.13 1377.08   2
  -5  -4  -8 4669.30 1222.46   5
   5  -4   8 5002.92 1090.48   2
  -5  -4  -9 3568.17 1145.88   5
   5  -4   9 3268.81 947.538   2
  -5  -4 -10-382.982 700.624   5
   5  -4  10 1056.76 590.826   2
  -5  -4 -11 2403.36 944.590   5
   5  -4  11 2347.82 838.413   2
   5  -4  12 581.865 646.143   2
   5  -3 -18 889.589 576.419   7
  -5  -3  18 1161.54 684.402   2
  -5  -3  18 2477.37 876.570   8
   5  -3 -17-794.338 611.291   7
  -5  -3  17 511.258 607.880   2
  -5  -3  17-279.654 425.469   8
   5  -3 -16 2994.42 858.291   7
  -5  -3  16 4447.16 1057.25   8
  -5  -3  16 3892.70 1004.15   2
   5  -3 -15 49.3690 368.201   7
  -5  -3  15 153.955 460.464   2
  -5  -3  15 766.713 454.576   8
   5  -3 -14-578.541 418.475   7
  -5  -3  14 266.981 535.964   2
  -5  -3  14 145.146 369.354   8
   5  -3 -13 3308.77 839.070   7
  -5  -3  13 2036.00 705.421   8
  -5  -3  13 2304.70 780.035   2
   5  -3 -12 2964.80 756.298   7
  -5  -3  12 2497.68 712.355   2
  -5  -3  12 1228.22 547.016   8
   5  -3 -11 6808.17 1091.41   7
  -5  -3  11 4654.25 891.546   8
  -5  -3  11 5963.78 1050.02   2
  -5  -3  10 15175.9 1518.07   8
   5  -3 -10 18184.4 1359.16   4
  -5  -3  10 17856.6 1737.35   2
   5  -3 -10 18740.0 1686.37   7
   5  -3  -9 3638.76 732.253   1
  -5  -3   9 4536.76 871.172   2
  -5  -3   9 2162.60 567.749   8
   5  -3  -9 3545.42 619.502   4
  -5  -3   8 12319.9 1247.16   8
   5  -3  -8 13264.6 1186.78   4
  -5  -3   8 11472.4 1335.47   2
   5  -3  -8 12883.6 1242.68   1
   5  -3  -7 13315.7 1230.57   1
  -5  -3   7 8712.72 1017.09   8
   5  -3  -7 10598.6 1084.57   4
  -5  -3   7 11563.4 1266.82   2
   5  -3  -6 20402.8 1473.39   1
  -5  -3   6 21104.7 1179.69   5
  -5  -3   6 19263.6 1394.98   8
   5  -3  -6 19704.3 1473.45   4
  -5  -3   6 18211.7 1552.51   2
   5  -3  -5 11052.5 1062.44   1
  -5  -3   5 11249.4 979.636   5
  -5  -3   5 11118.5 1000.49   8
   5  -3  -5 10589.7 1098.77   4
  -5  -3   5 9317.36 1082.38   2
  -5  -3   4 460.767 249.324   5
  -5  -3   4 164.339 173.839   8
  -5  -3   4 469.685 304.610   2
   5  -3  -4 793.828 327.557   1
   5  -3  -4-97.8491 322.811   4
   5  -3  -3 13363.0 1105.43   1
  -5  -3   3 13217.6 1145.65   6
  -5  -3   3 12486.3 1192.57   5
  -5  -3   3 12521.1 901.396   8
   5  -3  -3 11783.8 1202.01   4
  -5  -3   3 12680.4 1197.27   2
  -5  -3   2 15988.9 1235.26   6
   5  -3  -2 16390.3 1202.23   1
  -5  -3   2 14232.2 1346.30   5
  -5  -3   2 16195.5 916.813   8
   5  -3  -2 16817.1 1454.42   4
  -5  -3   2 15045.0 1251.55   2
   5  -3  -1 5103.47 836.977   4
  -5  -3   1 4568.91 664.084   6
   5  -3  -1 3324.23 568.881   1
  -5  -3   1 4288.33 815.821   5
  -5  -3   1 4033.43 403.499   8
  -5  -3   1 3422.72 576.093   2
  -5  -3   0 18915.3 1272.02   6
   5  -3   0 19256.5 1267.78   1
  -5  -3   0 18934.6 1348.01   1
  -5  -3   0 17306.5 1620.92   5
   5  -3   0 20442.2 1678.08   4
  -5  -3   0 18761.7 1304.30   2
   5  -3   1 12502.4 1366.60   4
  -5  -3  -1 10196.9 937.900   6
   5  -3   1 9718.00 900.736   1
  -5  -3  -1 12095.3 1053.80   1
  -5  -3  -1 9309.28 1305.11   5
  -5  -3  -1 9970.80 909.170   2
  -5  -3  -2 14418.0 1111.95   6
  -5  -3  -2 14466.9 1138.75   1
   5  -3   2 15397.5 1126.14   1
  -5  -3  -2 13763.2 1577.28   5
  -5  -3  -2 13165.9 1011.17   2
  -5  -3  -3 23759.5 1445.64   6
  -5  -3  -3 26541.7 1519.91   1
   5  -3   3 26761.3 1501.30   1
  -5  -3  -3 24277.6 2164.28   5
  -5  -3  -3 24092.7 1298.49   2
   5  -3   4 3087.92 538.356   1
  -5  -3  -4 2525.35 472.261   1
  -5  -3  -4 2442.63 510.042   6
  -5  -3  -4 3655.80 914.184   5
  -5  -3  -4 2821.39 442.626   2
   5  -3   4 2963.41 737.087   2
   5  -3   5 753.403 296.356   1
  -5  -3  -5 526.025 247.051   1
  -5  -3  -5 327.301 218.560   6
  -5  -3  -5 435.133 540.522   5
   5  -3   5 531.580 462.635   2
  -5  -3  -6 6250.71 820.992   6
  -5  -3  -6 6076.58 1213.90   5
  -5  -3  -6 5214.14 671.596   1
   5  -3   6 7176.82 1169.52   2
  -5  -3  -7 576.708 320.407   6
  -5  -3  -7-92.2865 402.371   5
   5  -3   7 714.816 518.000   2
  -5  -3  -8 931.687 358.619   6
  -5  -3  -8 381.343 471.670   5
   5  -3   8 1258.49 616.310   2
  -5  -3  -9 2794.45 954.081   5
   5  -3   9 1037.20 520.899   2
  -5  -3 -10 679.330 506.013   5
   5  -3  10 3031.67 852.717   2
  -5  -3 -11 5642.93 1380.12   5
   5  -3  11 5937.98 1183.05   2
  -5  -3 -12 6754.22 1507.37   5
   5  -3  12 9398.82 1460.25   2
  -5  -3 -13 3491.88 1299.09   5
   5  -3  13 4366.76 1078.44   2
   5  -3  14 1203.40 695.932   2
   5  -3  15 1125.34 599.789   2
  -5  -2  20 249.642 389.428   2
   5  -2 -19 1417.55 720.961   7
  -5  -2  19 622.796 527.900   2
  -5  -2  19 19.3629 419.869   8
   5  -2 -18 1022.60 666.224   7
  -5  -2  18 84.5172 451.262   2
  -5  -2  18 608.998 583.892   8
   5  -2 -17 1265.80 545.830   7
  -5  -2  17 270.645 325.482   2
  -5  -2  17 830.312 522.682   8
   5  -2 -16 6958.13 1212.21   7
  -5  -2  16 6148.89 1150.47   2
  -5  -2  16 5753.97 1173.53   8
   5  -2 -15 4363.07 950.922   7
  -5  -2  15 5679.77 1111.61   2
  -5  -2  15 4325.39 981.072   8
   5  -2 -14 7637.26 1235.17   7
  -5  -2  14 8594.17 1274.02   2
  -5  -2  14 8412.60 1257.20   8
   5  -2 -13 1312.46 463.766   7
  -5  -2  13 3093.34 788.378   2
  -5  -2  13 4008.80 909.127   8
   5  -2 -12 8274.01 1151.81   7
  -5  -2  12 7121.79 1091.40   8
  -5  -2  12 6577.89 1047.34   2
   5  -2 -12 7587.70 894.120   4
   5  -2 -11 8278.38 1109.46   7
   5  -2 -11 8194.08 928.480   4
  -5  -2  11 8542.20 1131.83   8
  -5  -2  11 8431.37 1159.31   2
   5  -2 -10 4326.50 783.894   7
  -5  -2  10 3557.98 732.391   8
  -5  -2  10 4306.32 844.091   2
   5  -2 -10 3971.61 662.668   4
   5  -2  -9 5552.67 840.205   7
  -5  -2   9 7052.79 969.273   8
  -5  -2   9 7551.37 1050.54   2
   5  -2  -9 5803.81 800.160   4
   5  -2  -8 1528.32 487.278   7
  -5  -2   8 1272.15 418.264   8
  -5  -2   8 1296.21 502.029   2
   5  -2  -8 1521.02 409.908   4
  -5  -2   7 17246.4 1340.62   8
   5  -2  -7 16971.0 1304.40   4
  -5  -2   7 16394.8 1402.97   2
  -5  -2   6 22672.0 1439.19   8
   5  -2  -6 22722.9 1527.93   4
  -5  -2   6 21009.8 1537.49   2
   5  -2  -6 23147.5 1400.13   1
  -5  -2   5 31377.6 1594.43   8
   5  -2  -5 30555.2 1771.95   4
   5  -2  -5 30739.7 1528.90   1
   5  -2  -4 22831.0 1264.86   1
  -5  -2   4 22599.9 1259.66   8
   5  -2  -4 22151.5 1525.36   4
   5  -2  -3 14389.9 966.190   1
  -5  -2   3 13470.5 902.821   8
   5  -2  -3 13665.3 1221.87   4
   5  -2  -2 39233.6 1508.78   1
  -5  -2   2 40110.6 2015.75   6
  -5  -2   2 39136.5 1387.71   8
   5  -2  -2 39307.8 2074.54   4
  -5  -2   2 41329.0 1275.24   7
   5  -2  -1 53324.9 1697.57   1
  -5  -2   1 52923.9 2307.35   6
  -5  -2   1 54848.5 1444.08   8
   5  -2  -1 53581.1 2468.24   4
  -5  -2   1 52486.0 1197.58   7
   5  -2   0 1435.71 453.992   4
   5  -2   0 1358.90 272.485   1
  -5  -2   0 945.946 281.083   1
  -5  -2   0 888.153 342.513   6
  -5  -2   0 1387.16 197.549   8
   5  -2   1 3520.46 703.716   4
  -5  -2  -1 3910.90 631.580   6
   5  -2   1 3699.90 430.399   1
  -5  -2  -1 3771.21 463.346   1
  -5  -2  -2-7.90094 207.268   6
   5  -2   2 397.134 143.422   1
  -5  -2  -2 149.831 112.470   1
   5  -2   3 5006.59 852.118   4
  -5  -2  -3 3352.35 416.755   1
   5  -2   3 4183.33 461.473   1
  -5  -2  -3 3045.65 572.432   6
   5  -2   4 4430.01 848.310   4
  -5  -2  -4 4495.81 477.135   1
   5  -2   4 4573.79 493.552   1
  -5  -2  -4 4525.38 735.653   6
  -5  -2  -5 6121.02 570.289   1
   5  -2   5 7200.38 1054.10   4
  -5  -2  -5 6302.40 866.972   6
   5  -2   5 5761.35 579.016   1
  -5  -2  -6 18170.9 1487.71   6
   5  -2   6 18140.5 1629.09   2
  -5  -2  -6 18862.1 2011.46   5
   5  -2   6 19310.7 1168.87   9
   5  -2   6 20549.2 1782.24   4
  -5  -2  -6 20400.6 1064.61   1
  -5  -2  -7 17474.8 1507.72   6
  -5  -2  -7 18368.7 2023.96   5
   5  -2   7 17527.3 1161.22   9
   5  -2   7 17828.5 1666.27   2
  -5  -2  -8 8770.50 1134.73   6
  -5  -2  -8 7725.54 1376.99   5
   5  -2   8 6838.65 774.804   9
   5  -2   8 7706.44 1110.64   2
  -5  -2  -9 9065.16 1188.42   6
  -5  -2  -9 5838.07 1244.46   5
   5  -2   9 7660.44 1145.67   2
  -5  -2 -10 3360.03 779.166   6
  -5  -2 -10 2856.66 889.661   5
   5  -2  10 3487.50 856.005   2
  -5  -2 -11 6805.98 1116.87   6
  -5  -2 -11 7276.23 1487.09   5
   5  -2  11 4984.13 1014.11   2
   5  -2  12 605.014 471.409   4
  -5  -2 -12 670.328 411.315   6
  -5  -2 -12 1188.48 682.975   5
   5  -2  12 548.251 469.618   2
   5  -2  13 1150.70 583.593   4
  -5  -2 -13 1511.80 709.941   6
  -5  -2 -13-369.939 561.643   5
   5  -2  13 706.881 508.655   2
   5  -2  14 917.523 534.233   4
  -5  -2 -14 1450.76 691.627   6
  -5  -2 -14 2648.63 990.602   5
   5  -2  14 1006.99 625.969   2
   5  -2  15 514.400 490.430   4
  -5  -2 -15 1036.06 551.928   6
  -5  -2 -15 591.081 667.329   5
  -5  -1  21 3356.80 902.576   2
  -5  -1  20 4845.07 1071.65   2
   5  -1 -19 3781.41 1059.08   7
  -5  -1  19 3004.07 878.097   2
  -5  -1  19 2614.83 981.372   8
   5  -1 -18 4620.51 1077.48   7
  -5  -1  18 3892.30 934.920   2
  -5  -1  18 4742.94 1136.72   8
   5  -1 -17 337.029 370.973   7
  -5  -1  17 171.991 373.033   2
  -5  -1  17-174.849 330.689   8
   5  -1 -16 1099.67 548.073   7
  -5  -1  16 979.104 533.975   2
  -5  -1  16 1664.71 668.531   8
  -5  -1  15 903.813 489.175   2
  -5  -1  15 381.994 374.004   8
   5  -1 -14 45.1071 343.187   7
  -5  -1  14 245.838 312.691   2
  -5  -1  14 82.9076 322.353   8
   5  -1 -13 1665.28 656.169   7
  -5  -1  13 2736.61 704.689   8
   5  -1 -13 2882.90 593.500   4
  -5  -1  13 3562.39 752.019   2
   5  -1 -12 22215.4 1597.19   4
  -5  -1  12 19161.8 1746.64   8
  -5  -1  12 23414.3 1840.36   2
   5  -1 -12 21535.3 1773.69   7
   5  -1 -11 28649.7 1786.96   4
  -5  -1  11 29843.0 2077.96   8
  -5  -1  11 29785.0 1986.13   2
   5  -1 -11 33888.2 2118.73   7
   5  -1 -10 12120.9 1160.91   4
  -5  -1  10 13374.5 1357.88   8
  -5  -1  10 12826.5 1283.86   2
   5  -1 -10 13150.3 1297.22   7
   5  -1  -9 14687.1 1256.10   4
  -5  -1   9 13424.4 1276.90   8
   5  -1  -9 14133.7 1279.05   7
  -5  -1   8 13723.4 1232.47   8
   5  -1  -8 16344.7 1304.67   4
   5  -1  -8 15921.8 1303.70   7
  -5  -1   7 19348.2 1391.40   8
   5  -1  -7 19756.0 1429.97   4
   5  -1  -7 17343.3 1293.83   7
  -5  -1   6 23135.5 1443.46   8
   5  -1  -6 22195.2 1490.04   4
   5  -1  -6 23168.5 1411.48   7
   5  -1  -5 4383.76 593.626   7
  -5  -1   5 4135.51 593.450   8
   5  -1  -5 4279.47 678.322   4
  -5  -1   4 428.125 239.830   8
   5  -1  -4 580.229 298.308   4
  -5  -1   3 6217.37 639.514   8
   5  -1  -3 5508.85 768.821   4
  -5  -1   2 13725.5 1220.85   6
  -5  -1   2 13171.4 867.793   8
   5  -1  -2 14260.6 1197.76   4
  -5  -1   1 10761.2 1081.79   6
  -5  -1   1 11954.8 785.170   8
   5  -1  -1 12710.6 1169.24   4
  -5  -1   0 30278.4 1805.39   6
  -5  -1   0 29129.5 897.412   1
  -5  -1   0 29715.6 1163.36   8
   5  -1   0 32375.9 1862.93   4
  -5  -1  -1 47199.0 2242.41   6
  -5  -1  -1 42726.1 1280.28   8
   5  -1   1 46310.0 2241.22   4
  -5  -1  -2 19392.5 512.568   1
  -5  -1  -2 19269.4 1453.80   6
   5  -1   2 20176.3 1524.33   4
  -5  -1  -3 31008.9 1887.90   6
   5  -1   3 30444.4 1902.36   4
  -5  -1  -4 13892.1 1273.02   6
   5  -1   4 12695.6 427.286   1
   5  -1   4 15489.7 1113.56   9
   5  -1   4 15633.2 1386.29   4
   5  -1   4 11925.0 382.383   1
  -5  -1  -5 13875.7 1321.93   6
   5  -1   5 12434.0 545.852   1
   5  -1   5 14822.2 1124.74   9
   5  -1   5 14037.7 1359.96   4
   5  -1   6 4075.38 789.578   4
  -5  -1  -6 3734.11 730.995   6
   5  -1   6 4122.50 626.637   9
   5  -1   7 262.579 322.178   4
  -5  -1  -7 1117.04 430.744   6
   5  -1   7 762.718 306.541   9
   5  -1   8 4361.29 848.776   4
  -5  -1  -8 4187.80 830.546   6
   5  -1   8 4722.35 721.344   9
   5  -1   9-25.8606 296.179   4
  -5  -1  -9 140.284 274.817   6
   5  -1   9-3.07084 218.551   9
  -5  -1 -10 12757.9 1504.88   6
   5  -1  10 14693.8 1369.84   9
   5  -1  10 13146.3 1456.95   4
   5  -1  11 12650.0 1479.78   4
  -5  -1 -11 8517.82 1284.61   6
  -5  -1 -11 8891.23 1602.99   5
   5  -1  11 11408.5 1256.35   9
   5  -1  12 5706.28 1023.17   4
  -5  -1 -12 5792.13 1110.95   6
  -5  -1 -12 4191.12 1146.61   5
   5  -1  12 3355.38 719.701   9
   5  -1  13 6971.61 1152.11   4
  -5  -1 -13 5950.10 1142.18   6
  -5  -1 -13 6145.06 1356.70   5
   5  -1  14 4844.27 1006.77   4
  -5  -1 -14 4910.42 1123.70   6
  -5  -1 -14 5841.36 1443.24   5
  -5  -1 -15 2260.19 791.073   6
  -5  -1 -15 2957.96 1111.79   5
  -5  -1 -16 1466.25 699.567   6
  -5  -1 -16 1555.44 721.922   5
   5   0 -20-158.092 471.568   7
  -5   0  20 499.261 417.931   2
  -5   0  20 111.303 471.943   8
   5   0 -19 2617.92 930.790   7
  -5   0  19 2039.96 678.183   2
  -5   0  19 572.684 404.406   8
   5   0 -18 1053.88 540.611   7
  -5   0  18 464.281 592.932   8
  -5   0  18 22.9967 311.645   2
   5   0 -17 10809.9 1529.53   7
  -5   0  17 9636.82 1485.40   8
  -5   0  17 8501.09 1239.42   2
  -5   0  16 26971.0 2400.98   8
  -5   0  16 28905.8 2173.75   2
   5   0 -16 29746.0 2422.13   7
   5   0 -15 10276.0 1407.60   7
  -5   0  15 8807.13 1307.64   8
  -5   0  15 8847.69 1188.25   2
  -5   0  14 13926.4 1602.71   8
  -5   0  14 16470.7 1543.70   2
   5   0 -14 15500.8 1639.85   7
   5   0 -13 300.374 318.568   7
  -5   0  13 506.057 446.118   8
  -5   0  13 255.918 271.484   2
  -5   0  12 28200.8 2124.53   8
   5   0 -12 30979.9 2026.06   4
   5   0 -12 25528.5 1937.24   7
   5   0 -11 467.186 338.876   7
  -5   0  11 1090.48 444.248   8
   5   0 -11 937.154 398.099   4
   5   0 -10 135.303 220.591   7
  -5   0  10 740.862 458.182   8
   5   0 -10 69.2284 248.603   4
   5   0  -9 918.529 347.761   7
  -5   0   9 665.940 166.599   3
  -5   0   9 310.494 275.638   8
   5   0  -9 527.008 342.819   4
   5   0  -8 428.367 296.109   7
  -5   0   8 95.5291 113.334   3
  -5   0   8-4.78744 245.732   8
   5   0  -8-2.39030 199.051   4
   5   0  -7 21539.3 1538.26   4
  -5   0   7 19922.4 1441.50   8
   5   0  -7 21350.0 1396.39   7
   5   0  -6 2550.95 478.928   7
  -5   0   6 5066.43 701.649   8
   5   0  -6 3294.95 635.047   4
   5   0  -5 20690.2 1478.01   4
  -5   0   5 18627.7 1281.35   8
   5   0  -5 19264.8 1178.55   7
   5   0  -4 58093.8 2433.21   4
  -5   0   4 53917.2 2088.51   8
   5   0  -4 59788.1 1941.22   7
  -5   0   3 14074.4 721.866   1
   5   0  -3 14910.3 1245.96   4
  -5   0   3 14414.8 1047.07   8
   5   0  -3 14061.8 875.735   7
  -5   0   2 21525.3 769.593   1
  -5   0   2 19039.2 1479.84   6
  -5   0   2 23523.3 1307.07   8
   5   0  -2 21348.5 1480.25   4
   5   0  -2 21329.6 1004.25   7
  -5   0   1 36955.7 2057.89   6
  -5   0   1 32248.1 718.805   1
   5   0  -1 35858.9 1906.58   4
  -5   0   1 36060.4 1571.47   8
   5   0  -1 35678.8 1192.74   7
  -5   0   0 15407.0 1339.00   6
  -5   0   0 16213.4 1032.17   8
   5   0   0 16218.0 1300.65   4
  -5   0  -1 2404.60 580.525   6
  -5   0  -1 1642.85 340.778   8
   5   0   1 2312.62 530.329   4
  -5   0  -2 3640.20 688.642   6
   5   0   2 3771.40 359.528   7
   5   0   2 3501.35 581.838   9
   5   0   2 4030.77 690.322   4
   5   0   3 978.725 178.812   7
  -5   0  -3 747.516 369.823   6
   5   0   3 1065.34 366.009   9
   5   0   3 1581.18 459.570   4
   5   0   4 7886.84 889.149   9
  -5   0  -4 6413.89 935.702   6
   5   0   4 7092.56 488.889   7
   5   0   4 7980.69 962.597   4
  -5   0  -5 19222.0 1629.23   6
   5   0   5 19256.3 1413.04   9
   5   0   5 19436.1 1504.61   4
   5   0   5 19948.4 874.483   7
  -5   0  -6 33687.2 2205.50   6
   5   0   6 29980.6 1800.92   9
   5   0   6 33654.1 2004.67   4
  -5   0  -7 23319.3 1879.95   6
   5   0   7 21956.0 1615.03   9
   5   0   7 23355.7 1704.61   4
  -5   0  -8 7903.16 1167.88   6
   5   0   8 8964.94 1078.04   9
   5   0   8 11238.9 1214.95   4
  -5   0  -9 11315.5 1426.08   6
   5   0   9 12469.2 1314.28   9
   5   0   9 13632.2 1365.42   4
  -5   0 -10 10879.5 1455.17   6
   5   0  10 10818.7 1265.04   9
   5   0  10 11593.3 1285.10   4
  -5   0 -11 2285.05 747.857   6
   5   0  11 3458.64 758.495   9
   5   0  11 1941.80 564.890   4
  -5   0 -12 220.294 383.354   6
   5   0  12 964.627 537.535   9
  -5   0 -13 362.885 415.182   6
   5   0  13 246.366 360.876   9
  -5   0 -14 299.572 444.884   6
  -5   0 -14 146.549 485.115   5
   5   0  14 683.778 481.972   9
  -5   0 -15 3843.16 1065.07   6
  -5   0 -15 3790.51 1184.35   5
   5   0  15 3707.10 916.701   9
  -5   0 -16 744.304 522.843   6
   5   0  16 1262.57 627.164   9
  -5   1  20 6717.34 1385.50   8
   5   1 -19 3761.34 1019.22   7
  -5   1  19 3113.99 926.209   8
   5   1 -18 2471.06 791.156   7
  -5   1  18 2172.94 774.096   8
  -5   1  18 3150.54 740.984   2
   5   1 -17 671.585 482.213   7
  -5   1  17 883.432 536.510   8
  -5   1  17 1139.61 513.035   2
   5   1 -16 2216.55 764.158   7
  -5   1  16 1382.64 607.697   8
  -5   1  16 1007.90 491.476   2
   5   1 -15 550.861 460.194   7
  -5   1  15 871.587 532.090   8
  -5   1  15 457.492 361.994   2
   5   1 -14 424.381 566.948   7
  -5   1  14 199.752 374.884   8
   5   1 -13 3740.90 824.471   7
  -5   1  13 2280.92 694.189   8
  -5   1  12 21011.2 1855.65   8
   5   1 -12 23125.4 1850.71   7
   5   1 -11 26460.5 1240.29   3
  -5   1  11 29973.6 2141.11   8
   5   1 -11 26982.9 1937.56   7
   5   1 -10 9144.88 758.726   3
   5   1 -10 8888.03 1125.74   4
  -5   1  10 9263.93 1158.27   8
   5   1 -10 10613.7 1182.36   7
   5   1  -9 11218.3 877.074   3
   5   1  -9 10852.1 1220.18   4
  -5   1   9 12658.9 1298.87   8
   5   1  -9 10514.1 1115.48   7
   5   1  -8 13081.8 970.438   3
  -5   1   8 13908.3 750.080   3
   5   1  -8 13306.2 1317.52   4
  -5   1   8 12456.0 1253.98   8
   5   1  -8 12085.6 1115.31   7
   5   1  -7 19136.0 1213.01   3
   5   1  -7 17590.9 1488.48   4
  -5   1   7 17515.5 1430.66   8
   5   1  -7 16653.5 1249.68   7
   5   1  -6 23417.9 1372.99   3
   5   1  -6 21767.1 1631.48   4
  -5   1   6 24529.6 1627.23   8
   5   1  -6 20887.4 1312.39   7
   5   1  -5 3025.78 485.385   7
  -5   1   5 4292.06 677.676   8
   5   1  -5 3630.73 690.697   4
   5   1  -4 636.394 241.870   7
  -5   1   4 204.215 262.708   8
   5   1  -4 397.722 313.370   4
  -5   1   3 6718.82 913.340   6
  -5   1   3 6785.34 821.801   8
   5   1  -3 4436.70 743.124   4
   5   1  -3 5014.50 514.449   7
  -5   1   2 8748.53 1043.64   6
  -5   1   2 7809.17 567.033   1
  -5   1   2 10630.7 998.642   8
   5   1  -2 9227.42 1020.94   4
   5   1  -2 9347.49 617.497   7
  -5   1   1 11705.6 1213.69   6
   5   1  -1 12737.5 1175.14   4
  -5   1   1 13815.1 1133.90   8
   5   1  -1 14056.4 626.523   7
  -5   1   0 30441.3 1948.02   6
   5   1   0 28488.4 1092.56   8
   5   1   0 30484.9 1797.35   4
  -5   1   0 27250.7 1554.96   8
   5   1   0 27080.5 614.673   7
  -5   1  -1 40902.3 2264.45   6
   5   1   1 38286.3 1967.62   9
   5   1   1 40729.0 1209.79   8
   5   1   1 39952.2 2050.56   4
  -5   1  -1 39551.6 1839.80   8
  -5   1  -2 25817.9 1824.30   6
   5   1   2 26647.4 1673.34   9
   5   1   2 24016.8 885.327   8
   5   1   2 26025.6 1650.03   4
  -5   1  -3 33590.2 2103.71   6
   5   1   3 32201.3 1868.11   9
   5   1   3 34028.6 1018.58   8
   5   1   3 31153.4 1830.85   4
  -5   1  -4 14247.0 1411.65   6
   5   1   4 13856.1 1265.54   9
   5   1   4 12478.2 620.630   8
   5   1   4 15275.7 1310.84   4
  -5   1  -5 12014.8 1333.97   6
   5   1   5 14314.3 1311.70   9
   5   1   5 15384.0 1303.36   4
  -5   1  -6 5785.22 990.686   6
   5   1   6 5396.56 860.895   9
   5   1   6 6445.88 883.117   4
  -5   1  -7 654.609 483.040   6
   5   1   7 1123.13 441.213   9
   5   1   7 1279.55 458.663   4
  -5   1  -8 5142.30 1007.32   6
   5   1   8 5240.15 907.934   9
   5   1   8 4152.09 708.936   4
  -5   1  -9 386.424 406.838   6
   5   1   9 811.625 455.285   9
   5   1   9-10.8835 287.784   4
  -5   1 -10 16542.2 1816.29   6
   5   1  10 18505.1 1772.49   9
   5   1  10 14242.8 1341.49   4
  -5   1 -11 7467.26 1288.49   6
   5   1  11 8468.01 1257.97   9
   5   1  11 9099.38 1090.65   4
  -5   1 -12 5563.24 1167.63   6
   5   1  12 6898.03 1193.36   9
  -5   1 -13 5186.87 1198.50   6
   5   1  13 7187.30 1234.59   9
  -5   1 -14 4120.65 1078.75   6
   5   1  14 4139.57 1015.27   9
  -5   1 -15 5038.25 1229.22   6
   5   1  15 2158.82 764.501   9
  -5   1 -16 3081.07 1175.73   5
   5   1  16 2519.15 867.623   9
  -5   1 -17 2325.03 934.475   5
   5   2 -19 775.950 530.170   7
  -5   2  19 365.785 487.733   8
   5   2 -18 88.5489 512.464   7
  -5   2  18 1151.20 506.942   8
   5   2 -17 350.921 343.003   7
  -5   2  17 919.811 552.468   8
  -5   2  16 3052.12 872.998   8
  -5   2  16 4469.62 802.935   2
   5   2 -15 6999.73 1219.21   7
  -5   2  15 5919.45 1151.81   8
   5   2 -14 6160.97 1096.11   7
  -5   2  14 6182.60 1109.41   8
   5   2 -13 1956.44 664.057   7
  -5   2  13 1987.60 658.965   8
   5   2 -12 6551.01 1028.39   7
   5   2 -12 8675.25 910.436   3
  -5   2  12 8095.76 1221.63   8
   5   2 -11 7327.85 1043.06   7
   5   2 -11 7868.25 863.578   3
  -5   2  11 6810.85 1079.86   8
   5   2 -10 1839.04 565.992   7
   5   2 -10 4556.23 681.254   3
  -5   2  10 4935.62 900.244   8
   5   2  -9 5292.13 851.625   7
  -5   2   9 5440.99 512.077   3
   5   2  -9 5251.63 721.721   3
  -5   2   9 5670.60 928.470   8
   5   2  -8 1905.21 511.655   7
   5   2  -8 1449.81 401.337   3
   5   2  -8 3523.84 768.637   4
  -5   2   8 1696.23 540.497   8
   5   2  -7 15551.2 1260.31   3
  -5   2   7 18435.2 1572.19   8
   5   2  -7 16276.5 1537.43   4
   5   2  -7 15205.0 1233.64   7
   5   2  -6 18683.3 1404.42   3
   5   2  -6 19913.5 1686.60   4
  -5   2   6 18356.2 1545.47   8
   5   2  -6 21000.4 1362.97   7
   5   2  -5 28626.1 1738.80   3
   5   2  -5 26158.2 1879.07   4
  -5   2   5 27937.1 1849.09   8
   5   2  -5 28738.5 1499.43   7
   5   2  -4 23313.0 1750.82   4
   5   2  -4 22069.2 1544.39   3
  -5   2   4 22755.9 1717.05   6
  -5   2   4 22860.6 1653.98   8
   5   2  -4 23502.3 1264.90   7
   5   2  -3 15830.7 1341.83   3
  -5   2   3 14430.2 1387.87   6
   5   2  -3 16003.7 1422.04   4
  -5   2   3 14813.5 1317.10   8
   5   2  -3 15193.2 931.183   7
   5   2  -2 36734.9 2057.52   3
  -5   2   2 36182.9 2163.86   6
   5   2  -2 31882.6 1973.23   4
  -5   2   2 34009.8 1982.65   8
   5   2  -2 31991.6 1204.15   7
   5   2  -1 56745.7 2619.19   3
  -5   2   1 58531.3 2731.73   6
   5   2  -1 57200.4 2636.94   4
  -5   2   1 55548.2 2497.25   8
   5   2   0 425.090 358.030   3
  -5   2   0 568.279 355.185   6
   5   2   0 560.964 295.627   9
   5   2   0 511.621 371.340   4
  -5   2   0 499.744 275.254   8
  -5   2  -1 4981.38 849.857   6
   5   2   1 4061.14 720.122   9
   5   2   1 4409.23 724.531   4
  -5   2  -1 6826.71 910.312   8
  -5   2  -2 709.035 487.547   6
   5   2   2-62.5679 235.924   9
   5   2   2 315.987 214.465   4
  -5   2  -3 4834.71 875.353   6
   5   2   3 3440.22 683.625   9
   5   2   3 4789.01 750.373   4
  -5   2  -4 4974.10 871.852   6
   5   2   4 4018.23 767.022   9
   5   2   4 4392.21 729.424   4
  -5   2  -5 5077.39 930.139   6
   5   2   5 5914.85 926.383   9
   5   2   5 6315.85 860.088   4
  -5   2  -6 19118.3 1793.48   6
   5   2   6 20473.3 1742.03   9
   5   2   6 19014.9 1458.89   4
  -5   2  -7 23128.8 2011.27   6
   5   2   7 19483.9 1751.95   9
   5   2   7 18784.0 1454.66   4
  -5   2  -8 8409.17 1252.47   6
   5   2   8 7935.88 1158.82   9
   5   2   8 6616.29 893.090   4
  -5   2  -9 7201.59 1198.97   6
   5   2   9 9033.50 1285.86   9
   5   2   9 6193.14 856.763   4
  -5   2 -10 2753.12 837.643   6
   5   2  10 3362.04 883.896   9
  -5   2 -11 5205.23 1137.83   6
   5   2  11 4995.13 1070.85   9
  -5   2 -12 1819.62 771.582   6
   5   2  12 681.552 456.194   9
  -5   2 -13 1154.72 740.347   6
   5   2  13 1773.30 758.775   9
  -5   2 -14 2120.51 848.773   6
   5   2  14 807.890 586.469   9
   5   2  15-393.913 454.947   9
  -5   3  18 970.061 677.300   8
   5   3 -18 69.2355 442.071   7
  -5   3  17 1142.07 637.667   8
   5   3 -17 164.490 446.420   7
  -5   3  16 1532.80 704.978   8
   5   3 -16 2523.05 831.163   7
  -5   3  15-22.6007 463.238   8
   5   3 -15-294.011 492.936   7
  -5   3  14 192.862 441.111   8
   5   3 -14 134.439 360.849   7
   5   3 -13 2518.02 625.054   3
  -5   3  13 1552.65 587.860   8
   5   3 -13 1592.32 584.719   7
   5   3 -12 801.148 412.499   3
  -5   3  12 368.822 371.900   8
   5   3 -12 850.470 476.616   7
   5   3 -11 4286.66 787.470   3
  -5   3  11 5399.28 1040.04   8
   5   3 -11 4745.33 894.585   7
   5   3 -10 16623.1 1482.94   3
  -5   3  10 16920.6 1734.01   8
   5   3 -10 18906.0 1688.53   7
   5   3  -9 2822.27 645.811   3
  -5   3   9 3303.68 815.913   8
   5   3  -9 2541.06 642.960   7
   5   3  -8 15681.0 1449.28   3
  -5   3   8 11123.0 1001.81   3
  -5   3   8 11187.7 1367.01   8
   5   3  -8 14284.4 1357.22   7
   5   3  -7 12095.1 1264.32   3
  -5   3   7 11516.6 1088.35   3
  -5   3   7 12053.2 1387.40   8
   5   3  -7 12564.4 1214.92   7
   5   3  -6 21232.1 1687.16   3
  -5   3   6 21101.7 1718.30   6
  -5   3   6 23162.9 1860.56   8
   5   3  -6 20953.6 1488.77   7
  -5   3   5 11917.0 1305.05   6
   5   3  -5 9885.80 1160.18   3
  -5   3   5 8649.70 1156.22   8
   5   3  -5 10697.1 1019.79   7
  -5   3   4 156.906 255.972   6
   5   3  -4-256.761 260.529   3
  -5   3   4 735.848 470.739   8
   5   3  -4 416.789 354.842   4
   5   3  -4-39.0151 158.004   7
   5   3  -3 15672.9 1474.15   3
  -5   3   3 17129.5 1548.98   6
   5   3  -3 12448.6 1376.20   4
  -5   3   3 14905.0 1465.83   8
   5   3  -2 16555.8 1543.61   4
   5   3  -2 15399.0 1458.23   3
  -5   3   2 17041.4 1533.36   6
  -5   3   2 16421.0 1526.09   8
   5   3  -1 2934.70 698.857   3
  -5   3   1 2332.26 629.869   6
   5   3  -1 4059.62 798.980   4
  -5   3   1 3381.99 710.496   8
   5   3   0 20020.0 1707.29   3
  -5   3   0 18649.5 1621.64   6
   5   3   0 20777.8 1655.97   9
   5   3   0 15424.5 1458.02   4
  -5   3   0 18263.0 1586.03   8
   5   3   1 14115.6 1463.14   3
  -5   3  -1 10771.3 1271.94   6
   5   3   1 12343.8 1315.32   9
   5   3   1 12970.7 1308.09   4
   5   3   2 17716.9 1647.17   3
  -5   3  -2 16372.6 1570.17   6
   5   3   2 16154.6 1520.89   9
   5   3   2 16918.9 1483.60   4
   5   3   3 24351.9 1980.00   3
  -5   3  -3 22528.3 1873.33   6
   5   3   3 22495.3 1826.99   9
   5   3   3 22474.4 1693.82   4
  -5   3  -4 2346.48 694.290   6
   5   3   4 2325.31 677.252   9
   5   3   4 2412.78 589.060   4
  -5   3  -5 940.931 476.763   6
   5   3   5 143.120 315.022   9
   5   3   5 551.210 307.186   4
  -5   3  -6 4761.95 933.590   6
   5   3   6 5389.90 984.897   9
   5   3   6 5864.66 838.308   4
  -5   3  -7 518.997 509.714   6
   5   3   7 56.8109 374.342   9
   5   3   7 4.29301 212.639   4
  -5   3  -8 186.944 361.829   6
   5   3   8 760.569 559.265   9
  -5   3  -9 1578.48 682.615   6
   5   3   9 1772.46 688.006   9
  -5   3 -10 1827.47 732.701   6
   5   3  10 1464.05 629.369   9
  -5   3 -11 4081.88 1071.48   6
   5   3  11 5021.25 1116.17   9
  -5   3 -12 6903.11 1331.74   6
   5   3  12 8824.93 1503.12   9
  -5   3 -13 3851.52 1125.11   6
   5   3  13 4260.17 1107.52   9
  -5   4  17 907.004 537.786   8
  -5   4  16 1493.86 703.725   8
   5   4 -16 817.499 635.608   7
  -5   4  15 4029.44 1066.32   8
   5   4 -15 2961.54 989.199   7
  -5   4  14 1742.86 718.817   8
   5   4 -14 2414.56 835.336   7
   5   4 -13 4140.92 877.139   3
  -5   4  13 2917.24 851.794   8
   5   4 -13 3644.29 970.215   7
   5   4 -12 1202.56 499.444   3
  -5   4  12 3018.07 870.168   8
   5   4 -12 2311.54 723.497   7
   5   4 -11 3047.47 753.244   3
  -5   4  11 2776.67 813.373   8
   5   4 -11 3982.21 893.814   7
   5   4 -10 534.441 366.879   3
  -5   4  10 1047.20 512.800   8
   5   4 -10 1372.75 532.905   7
   5   4  -9 3842.56 839.400   3
  -5   4   9 4281.24 934.470   8
   5   4  -9 3308.65 786.934   7
  -5   4   8 4123.64 822.978   6
   5   4  -8 3870.69 844.444   3
  -5   4   8 3800.36 913.809   8
   5   4  -8 4144.86 810.733   7
  -5   4   7 8263.55 1132.79   6
   5   4  -7 6894.38 1126.52   3
  -5   4   7 7872.60 1050.41   3
  -5   4   7 7232.53 1203.97   8
   5   4  -7 7482.92 1046.83   7
  -5   4   6 1363.98 446.108   6
   5   4  -6 1334.55 582.122   3
  -5   4   6 2044.88 573.972   3
  -5   4   6 3373.77 806.695   8
  -5   4   5 2013.57 582.747   6
   5   4  -5 2245.63 620.743   3
  -5   4   5 2414.49 627.015   3
  -5   4   5 1650.63 573.738   8
  -5   4   4 12653.1 1377.09   6
   5   4  -4 10586.0 1342.49   3
  -5   4   4 15377.4 1628.30   8
  -5   4   3 7715.42 1067.35   6
   5   4  -3 9388.77 1271.41   3
  -5   4   3 8320.03 1210.91   8
   5   4  -2 14654.0 1594.11   3
  -5   4   2 12480.8 1370.65   6
  -5   4   2 11865.7 1426.78   8
   5   4  -1 7899.81 1193.76   3
  -5   4   1 9494.11 1190.77   6
  -5   4   1 10215.9 1325.05   8
   5   4   0 4145.88 887.115   3
  -5   4   0 4738.58 854.401   6
   5   4   0 3145.16 738.712   9
   5   4   1 2901.58 792.937   3
  -5   4  -1 3297.71 733.055   6
   5   4   1 2217.37 600.581   9
   5   4   2-45.1070 322.279   3
  -5   4  -2-277.290 357.501   6
   5   4   2 527.499 492.745   9
   5   4   3 5348.47 1036.01   3
  -5   4  -3 4695.51 897.405   6
   5   4   3 4221.07 881.191   9
   5   4   4 2953.75 837.776   3
  -5   4  -4 2966.96 765.114   6
   5   4   4 2270.86 653.169   9
   5   4   5 4382.62 965.516   3
  -5   4  -5 4819.88 967.351   6
   5   4   5 3603.83 862.186   9
  -5   4  -6 7383.95 1191.69   6
   5   4   6 10586.1 1434.44   9
  -5   4  -7 9735.82 1416.27   6
   5   4   7 6552.07 1176.91   9
  -5   4  -8 5033.94 1072.91   6
   5   4   8 5246.12 1108.98   9
  -5   4  -9 2772.47 846.974   6
   5   4   9 2275.87 778.284   9
   5   4  10 2418.89 866.116   9
  -5   4 -10 2025.40 711.519   6
  -5   4 -11 2656.52 934.034   6
   5   4  11 2583.13 855.898   9
  -5   4 -12 1353.18 702.892   6
  -5   5  15 981.806 716.061   8
  -5   5  14-135.993 422.551   8
   5   5 -14-204.873 548.204   7
   5   5 -13 1395.52 662.997   3
  -5   5  13 843.938 596.476   8
   5   5 -13 1614.15 723.358   7
   5   5 -12 3348.67 900.093   3
  -5   5  12 6896.10 1325.68   8
   5   5 -12 6271.25 1239.62   7
   5   5 -11 3321.49 807.999   3
  -5   5  11 3804.53 971.166   8
   5   5 -11 5802.99 1192.33   7
   5   5 -10 986.112 532.480   3
  -5   5  10 497.539 512.530   8
   5   5  -9 3831.94 934.995   3
  -5   5   9 3512.44 887.068   8
   5   5  -8 4569.15 1020.71   3
  -5   5   8 3280.77 921.021   8
   5   5  -7 3160.66 838.507   3
  -5   5   7 4814.96 1015.13   8
  -5   5   6 903.144 450.841   6
   5   5  -6 874.991 554.549   3
  -5   5   6-1.90491 283.234   3
  -5   5   6 341.511 361.616   8
  -5   5   5 2008.74 567.377   6
   5   5  -5 1951.18 722.375   3
  -5   5   5 2405.85 760.466   3
  -5   5   5 1544.39 603.033   8
  -5   5   4 495.001 321.007   6
   5   5  -4 257.467 317.852   3
  -5   5   4 337.743 402.058   3
  -5   5   4 525.837 445.984   8
   5   5  -3 278.728 477.764   3
  -5   5   3 1271.49 496.425   6
  -5   5   3-72.2012 406.753   3
  -5   5   3 1564.13 658.806   8
   5   5  -2 2500.60 767.026   3
  -5   5   2 1601.94 551.258   6
  -5   5   2 2510.82 754.940   3
   5   5  -1 1170.22 645.498   3
  -5   5   1 1035.60 456.986   6
  -5   5   1 2625.98 893.849   3
   5   5   0 3427.63 915.135   3
  -5   5   0 2226.14 616.872   6
   5   5   1 5570.33 1104.63   3
  -5   5  -1 3250.83 738.534   6
   5   5   1 3367.12 800.462   9
   5   5   2 6345.90 1171.33   3
  -5   5  -2 7744.23 1146.44   6
   5   5   2 7313.82 1193.62   9
   5   5   3 10101.8 1523.82   3
  -5   5  -3 9998.12 1331.02   6
   5   5   3 9110.58 1364.62   9
   5   5   4 4493.64 1030.13   3
  -5   5  -4 5335.74 1039.32   6
   5   5   4 4053.51 928.560   9
   5   5   5 1039.31 609.637   3
  -5   5  -5 1192.79 540.374   6
   5   5   5 1049.27 653.406   9
   5   5   6-115.348 331.258   3
  -5   5  -6 273.731 346.519   6
   5   5   6 396.557 538.953   9
   5   5   7 219.176 453.804   3
  -5   5  -7 52.9730 387.807   6
   5   5   7-606.198 456.158   9
  -5   5  -8-270.605 554.360   6
   5   5   8-625.242 555.791   9
  -5   5  -9-181.925 356.055   6
   5   5   9-617.997 595.677   9
  -5   5 -10 1798.03 752.998   6
  -5   5 -11 3633.78 1055.90   6
   5   6 -12 1729.18 741.041   3
   5   6 -11 564.533 390.227   3
  -5   6  11 1323.94 814.276   8
   5   6 -10 1471.36 620.547   3
  -5   6  10 662.410 538.590   8
   5   6  -9 127.127 459.661   3
  -5   6   9 849.442 557.985   8
   5   6  -8 554.195 518.402   3
  -5   6   8 484.104 516.544   8
   5   6  -7 1624.68 694.679   3
  -5   6   7 3090.55 857.020   8
   5   6  -6 351.209 602.150   3
  -5   6   6 244.285 328.656   8
   5   6  -5 1372.81 669.206   3
  -5   6   5 1278.98 705.427   3
   5   6  -4 3857.95 989.417   3
  -5   6   4 3289.87 880.875   3
   5   6  -3 1617.79 770.113   3
  -5   6   3 2443.73 906.805   3
   5   6  -2 2305.88 806.908   3
  -5   6   2 4561.91 1159.31   3
   5   6  -1-81.5599 474.132   3
  -5   6   1-482.457 606.702   3
   5   6   0 2298.33 869.184   3
  -5   6   0 2284.59 842.291   3
   5   6   1 489.193 581.937   3
  -5   6  -1-489.670 604.509   3
   5   6   2 713.498 634.868   3
  -5   6  -2 656.521 624.971   3
   5   6   2 709.783 433.611   9
   5   6   3 136.374 490.017   3
   5   6   3-342.674 407.368   9
   5   6   4 474.013 501.310   3
  -5   6  -4 377.951 592.959   3
   5   6   4 1622.81 725.894   9
   5   6   5 1705.14 818.243   3
  -5   6  -5 1073.58 790.664   3
   5   6   5 1205.48 640.052   9
   5   6   6 385.506 428.533   3
   5   6   6-1129.15 650.511   9
  -5   7   3-86.7132 336.790   3
  -5   7   2-53.9258 410.860   3
  -6  -6   9 1117.54 592.408   2
   6  -6  -9 580.775 497.234   1
  -6  -6   8 1399.59 650.326   2
   6  -6  -8 1535.29 682.914   1
  -6  -6   7 826.612 549.521   2
   6  -6  -7 1073.36 497.118   1
  -6  -6   6 3079.65 844.990   2
   6  -6  -6 3075.24 892.754   1
  -6  -6   5 359.032 450.580   1
   6  -6  -5-555.401 412.806   1
   6  -6  -4 1412.03 628.027   1
  -6  -6   4 684.331 467.081   1
   6  -6  -3 1810.84 720.161   4
   6  -6  -3 1552.57 618.467   1
  -6  -6   3 1111.90 631.680   1
   6  -6  -2 1371.61 564.932   4
  -6  -6   2 658.641 510.585   1
   6  -6  -2 13.3964 336.233   1
   6  -6  -1 205.243 421.479   4
   6  -6  -1-864.018 474.662   1
  -6  -6   1 98.7487 392.851   1
   6  -6   0 1176.12 601.808   4
   6  -6   1-245.289 461.781   4
   6  -6   2 727.154 611.339   4
  -6  -6  -4 2270.20 878.408   5
  -6  -6  -5 2205.20 957.597   5
  -6  -5  14 2440.41 807.107   8
  -6  -5  13 1339.98 689.605   8
   6  -5 -12 990.784 528.938   7
   6  -5 -12 1805.68 712.452   1
  -6  -5  12 3202.77 963.790   2
  -6  -5  12 2156.98 703.903   8
   6  -5 -11 1662.99 659.192   7
  -6  -5  11 1642.56 715.409   2
   6  -5 -11 1570.26 603.299   1
  -6  -5  11 2781.48 801.325   8
  -6  -5  10 583.745 414.502   2
   6  -5 -10 654.983 500.144   1
  -6  -5   9 3556.28 958.250   2
   6  -5  -9 3323.15 830.796   1
  -6  -5   8 1486.43 611.381   2
   6  -5  -8 1147.65 548.262   1
  -6  -5   7 1200.02 586.990   2
   6  -5  -7 1739.62 617.757   1
  -6  -5   6 70.8099 340.670   2
   6  -5  -6 123.049 321.571   1
   6  -5  -6 619.042 396.504   4
  -6  -5   5 176.897 383.198   2
   6  -5  -5 385.513 318.935   1
   6  -5  -5 400.633 325.338   4
   6  -5  -4 4296.02 862.580   1
  -6  -5   4 3003.56 748.827   2
   6  -5  -4 3675.66 822.312   4
   6  -5  -3 2975.94 785.015   4
   6  -5  -3 1967.19 606.545   1
  -6  -5   3 2063.88 702.945   1
  -6  -5   3 1555.52 538.650   2
   6  -5  -2 3108.32 809.348   4
   6  -5  -2 2919.29 717.980   1
  -6  -5   2 3818.10 884.437   1
   6  -5  -1 2876.30 773.585   4
  -6  -5   1 3482.76 823.341   1
   6  -5  -1 3825.44 791.247   1
   6  -5   0 6978.28 1218.49   4
   6  -5   0 8387.49 1135.30   1
  -6  -5   0 7550.65 1141.53   1
  -6  -5   0 8080.06 1366.55   5
   6  -5   1 8280.59 1351.52   4
  -6  -5  -1 7745.49 1170.19   1
  -6  -5  -1 5615.79 1170.09   5
   6  -5   2 1145.34 641.565   4
  -6  -5  -2 1413.76 681.081   5
  -6  -5  -3 738.005 441.494   5
  -6  -5  -4 1324.51 745.438   5
  -6  -5  -5 1330.13 716.773   5
  -6  -5  -6-293.725 570.636   5
  -6  -5  -7 218.700 527.304   5
   6  -5   7 486.247 631.411   2
  -6  -5  -8 1439.98 881.514   5
  -6  -4  16 1072.27 614.291   8
   6  -4 -15 858.195 585.244   7
  -6  -4  15 1260.99 723.087   2
  -6  -4  15 1507.82 719.680   8
   6  -4 -14 2048.26 822.409   7
  -6  -4  14 2248.77 828.209   2
  -6  -4  14 1095.50 604.152   8
   6  -4 -13 1540.06 673.967   7
  -6  -4  13 1198.05 595.759   2
  -6  -4  13 903.998 500.065   8
   6  -4 -12 3286.72 928.578   7
  -6  -4  12 3014.82 924.466   2
  -6  -4  12 2759.65 742.007   8
   6  -4 -11 558.856 359.132   7
  -6  -4  11 883.317 515.540   2
  -6  -4  11 961.082 518.875   8
   6  -4 -10 1996.15 643.808   1
  -6  -4  10 1742.35 631.348   2
  -6  -4  10 538.261 400.790   8
   6  -4  -9 2082.52 591.659   1
  -6  -4   9 783.852 490.022   2
  -6  -4   9 2538.34 654.507   8
   6  -4  -8 2871.64 684.196   1
  -6  -4   8 4803.11 984.561   2
  -6  -4   8 3704.55 765.129   8
   6  -4  -8 4362.94 808.683   4
   6  -4  -7 4740.40 867.116   1
  -6  -4   7 6148.55 1079.66   2
  -6  -4   7 5883.90 874.915   8
   6  -4  -7 5001.54 856.797   4
  -6  -4   6 4864.46 946.269   2
   6  -4  -6 3387.52 686.473   1
   6  -4  -6 4878.82 872.497   4
  -6  -4   5 8638.23 1198.46   2
   6  -4  -5 7316.67 982.857   1
   6  -4  -5 8824.33 1174.19   4
  -6  -4   4 7861.64 1100.11   2
   6  -4  -4 8046.24 1003.54   1
   6  -4  -4 6811.52 1042.70   4
   6  -4  -3 11368.5 1182.10   1
  -6  -4   3 11408.2 1299.77   5
  -6  -4   3 9679.56 1195.36   2
   6  -4  -3 11159.2 1334.40   4
   6  -4  -2 2340.21 690.077   4
   6  -4  -2 1716.16 501.111   1
  -6  -4   2 1425.13 539.246   5
  -6  -4   2 1206.23 438.981   2
  -6  -4   2 1688.72 525.215   1
   6  -4  -1 184.973 308.853   4
   6  -4  -1 1123.29 381.969   1
  -6  -4   1 1282.49 581.875   5
  -6  -4   1 1322.71 467.849   1
  -6  -4   1 1065.77 410.233   2
   6  -4   0 5858.17 1048.72   4
   6  -4   0 7284.21 911.296   1
  -6  -4   0 5367.84 1071.41   5
  -6  -4   0 4352.69 740.262   2
  -6  -4   0 6979.77 984.733   1
   6  -4   1 2135.74 671.682   4
  -6  -4  -1 1077.63 384.133   1
   6  -4   1 1534.16 453.486   1
  -6  -4  -1 2002.49 713.009   5
   6  -4   2 5750.99 1079.23   4
  -6  -4  -2 3703.21 916.331   5
   6  -4   3 3412.04 866.665   4
  -6  -4  -3 3992.70 1036.03   5
   6  -4   4 10479.8 1518.78   4
  -6  -4  -4 7598.65 1419.94   5
  -6  -4  -5 3673.40 1033.00   5
  -6  -4  -6 3349.49 1004.57   5
  -6  -4  -7 1744.48 904.081   5
  -6  -4  -8 3830.04 1119.78   5
   6  -4   8 2752.62 904.625   2
  -6  -4  -9 1333.51 897.584   5
   6  -4   9-132.156 326.282   2
  -6  -4 -10 1402.18 781.919   5
   6  -4  10-760.906 605.986   2
   6  -3 -17-196.069 496.333   7
  -6  -3  17-962.861 642.353   2
  -6  -3  17 589.703 484.208   8
   6  -3 -16 1196.18 696.945   7
  -6  -3  16 1627.87 711.309   2
  -6  -3  16 670.496 534.542   8
   6  -3 -15 1044.07 618.222   7
  -6  -3  15 191.797 501.430   2
  -6  -3  15 1219.92 640.515   8
   6  -3 -14 7023.04 1233.55   7
  -6  -3  14 5665.92 1128.40   2
  -6  -3  14 5729.50 1135.55   8
   6  -3 -13 6131.86 1121.93   7
  -6  -3  13 5895.71 1151.24   2
  -6  -3  13 6922.25 1189.64   8
   6  -3 -12 4741.74 995.770   7
  -6  -3  12 4020.30 951.004   2
  -6  -3  12 4470.24 934.934   8
   6  -3 -11 7347.05 1151.55   7
  -6  -3  11 6306.84 1125.41   2
  -6  -3  11 7147.92 1113.95   8
   6  -3 -10 9160.63 1243.13   7
  -6  -3  10 8020.99 1129.16   8
  -6  -3  10 9126.33 1295.10   2
   6  -3 -10 8041.83 1027.23   4
  -6  -3   9 19026.0 1643.87   8
   6  -3  -9 22803.5 1711.92   4
  -6  -3   9 22342.4 1960.77   2
   6  -3  -9 23614.6 1929.77   7
  -6  -3   8 638.123 371.220   8
  -6  -3   8 828.466 460.056   2
   6  -3  -8 949.775 397.906   4
   6  -3  -7 1697.35 506.069   1
  -6  -3   7 2221.56 538.168   8
  -6  -3   7 1877.97 550.239   2
   6  -3  -7 1395.08 521.833   4
   6  -3  -6 4140.69 693.566   1
  -6  -3   6 3335.49 614.194   8
  -6  -3   6 3013.71 696.167   2
   6  -3  -6 2846.95 657.233   4
   6  -3  -5 9384.36 972.391   1
  -6  -3   5 8492.26 984.960   5
  -6  -3   5 8218.12 872.751   8
  -6  -3   5 9404.62 1137.41   2
   6  -3  -5 9568.30 1158.31   4
   6  -3  -4 9403.15 958.895   1
  -6  -3   4 8349.58 1053.87   6
  -6  -3   4 9679.05 1109.18   5
  -6  -3   4 8750.83 835.668   8
  -6  -3   4 8170.35 1066.34   2
   6  -3  -4 7382.24 1025.36   4
  -6  -3   3-773.567 366.247   6
  -6  -3   3-212.080 254.276   5
   6  -3  -3 287.294 235.758   1
  -6  -3   3-67.5288 244.151   2
   6  -3  -3-212.300 361.037   4
   6  -3  -2 38358.0 1795.33   1
  -6  -3   2 34368.5 2019.74   6
  -6  -3   2 33268.6 2241.39   5
   6  -3  -2 41313.4 2446.65   4
  -6  -3   2 35742.0 2027.03   2
   6  -3  -1 4339.05 612.209   1
  -6  -3   1 4235.84 733.498   6
  -6  -3   1 3086.51 789.737   5
  -6  -3   1 4365.19 665.919   1
  -6  -3   1 4602.74 710.546   2
   6  -3  -1 5361.77 931.559   4
   6  -3   0 9107.51 1209.28   4
  -6  -3   0 9769.34 1052.49   6
   6  -3   0 10247.7 897.431   1
  -6  -3   0 9976.32 968.055   1
  -6  -3   0 7610.06 1201.77   5
  -6  -3   0 8941.39 972.230   2
   6  -3   1 6886.46 1098.70   4
   6  -3   1 6933.19 730.289   1
  -6  -3  -1 7156.40 910.458   6
  -6  -3  -1 7372.63 807.561   1
  -6  -3  -1 6885.22 1190.18   5
   6  -3   2 6480.31 1060.95   4
  -6  -3  -2 5771.60 803.181   6
  -6  -3  -2 8252.01 1323.76   5
   6  -3   3 1946.83 683.858   4
  -6  -3  -3 1710.94 485.802   6
  -6  -3  -3 900.145 493.783   5
   6  -3   4 1267.91 582.024   4
  -6  -3  -4 2489.23 564.999   6
  -6  -3  -4 3023.91 886.146   5
   6  -3   5 759.871 435.390   4
  -6  -3  -5 611.421 335.483   6
  -6  -3  -5 446.683 419.859   5
   6  -3   6 5683.35 1114.60   4
  -6  -3  -6 3502.48 696.382   6
  -6  -3  -6 3562.99 1015.52   5
   6  -3   7 718.290 465.058   4
  -6  -3  -7 554.179 519.794   5
   6  -3   8 9031.40 1463.48   4
  -6  -3  -8 7820.59 1555.93   5
   6  -3   9 2947.26 924.260   4
  -6  -3  -9 3309.60 1040.23   5
   6  -3  10 3627.89 1036.20   4
  -6  -3 -10 2259.72 913.314   5
   6  -3  11 2244.09 792.298   4
  -6  -3 -11 5069.24 1412.98   5
   6  -3  12 1613.74 714.219   4
   6  -3  13 1837.22 768.921   4
  -6  -2  19 1703.62 753.506   2
   6  -2 -18 1525.47 706.306   7
  -6  -2  18 1777.71 704.558   2
  -6  -2  18 2203.56 827.181   8
   6  -2 -17 3666.93 977.424   7
  -6  -2  17 2650.14 838.618   2
  -6  -2  17 3847.82 1042.13   8
   6  -2 -16 4903.31 1065.52   7
  -6  -2  16 2920.53 854.614   2
  -6  -2  16 5507.15 1177.73   8
   6  -2 -15 3867.37 904.111   7
  -6  -2  15 2983.30 833.674   2
  -6  -2  15 3181.93 919.901   8
   6  -2 -14 1303.00 627.951   7
  -6  -2  14 1618.25 629.371   8
   6  -2 -13 2827.21 811.087   7
  -6  -2  13 1499.82 554.071   8
  -6  -2  13 3295.57 832.419   2
   6  -2 -12-154.555 369.256   7
  -6  -2  12 262.805 398.420   8
  -6  -2  12 325.420 388.101   2
   6  -2 -12 440.383 345.091   4
   6  -2 -11 442.875 291.522   7
  -6  -2  11-20.7242 361.085   8
   6  -2 -11 382.360 236.090   4
  -6  -2  11-107.837 388.305   2
  -6  -2  10 13940.8 1426.75   8
   6  -2 -10 15252.0 1397.33   4
  -6  -2  10 16104.8 1604.42   2
   6  -2 -10 14904.5 1478.62   7
  -6  -2   9 16931.6 1504.71   8
   6  -2  -9 18073.1 1531.25   4
  -6  -2   9 18570.6 1666.44   2
   6  -2  -9 18815.1 1608.25   7
   6  -2  -8 8326.92 1027.05   7
  -6  -2   8 8222.09 1000.40   8
   6  -2  -8 9197.11 1087.47   4
  -6  -2   8 9566.48 1180.93   2
   6  -2  -7 7407.79 970.021   7
  -6  -2   7 9511.82 1041.78   8
   6  -2  -7 7847.96 1013.15   4
  -6  -2   6 25762.1 1599.89   8
   6  -2  -6 23999.8 1750.62   4
  -6  -2   5 24491.8 1475.04   8
   6  -2  -5 22614.8 1696.95   4
  -6  -2   4 10649.4 905.752   8
   6  -2  -4 9425.20 1117.74   4
  -6  -2   3 3704.19 702.596   6
   6  -2  -3 3662.64 495.776   1
  -6  -2   3 4086.20 545.413   8
   6  -2  -3 3358.28 688.937   4
  -6  -2   2 4527.30 790.354   6
  -6  -2   2 5046.40 549.042   8
   6  -2  -2 4868.21 828.356   4
   6  -2  -2 5810.47 580.683   1
   6  -2  -1 12162.8 784.739   1
  -6  -2   1 12083.2 1243.28   6
  -6  -2   1 11284.2 721.813   8
   6  -2  -1 10339.8 1211.33   4
  -6  -2   0 3647.24 722.142   6
   6  -2   0 2560.82 344.029   1
  -6  -2   0 2667.41 403.587   1
   6  -2   0 2889.56 647.325   4
  -6  -2  -1 1794.16 527.600   6
  -6  -2  -1 839.863 209.512   1
   6  -2   1 837.023 201.822   1
   6  -2   1 1096.53 466.893   4
  -6  -2  -2 11387.9 1211.99   6
   6  -2   2 9633.61 1219.71   4
  -6  -2  -3 15329.5 1405.92   6
   6  -2   3 14103.2 1507.21   4
  -6  -2  -4 16403.1 1483.95   6
   6  -2   4 17776.0 1703.69   4
   6  -2   5 6725.24 1101.04   4
  -6  -2  -5 7124.56 1018.67   6
   6  -2   6 8845.89 1270.19   4
  -6  -2  -6 6942.22 1059.56   6
   6  -2   7 10336.9 1392.32   4
  -6  -2  -7 9214.01 1194.27   6
  -6  -2  -7 10618.2 1672.79   5
   6  -2   8 4180.29 897.064   4
  -6  -2  -8 4783.22 929.792   6
  -6  -2  -8 2565.71 945.551   5
   6  -2   9 479.414 420.255   4
  -6  -2  -9 1690.94 612.650   6
  -6  -2  -9 869.534 684.684   5
   6  -2  10 4.40097 456.133   4
  -6  -2 -10 25.4618 343.178   6
  -6  -2 -10 801.552 748.937   5
  -6  -2 -11-397.945 367.628   6
  -6  -2 -11 518.687 519.640   5
   6  -2  12 3073.64 931.184   4
  -6  -2 -12 2950.04 808.719   6
  -6  -2 -12 3578.99 1228.43   5
   6  -2  13 6173.15 1228.48   4
  -6  -2 -13 6463.06 1222.57   6
  -6  -2 -13 6193.90 1551.45   5
   6  -2  14 1197.05 634.375   4
  -6  -2 -14 3097.36 866.648   6
   6  -2  15 687.240 516.606   4
  -6  -1  20 315.853 374.293   2
   6  -1 -19-247.908 605.066   7
  -6  -1  19-326.277 584.181   8
  -6  -1  19-874.534 554.223   2
   6  -1 -18 1632.68 822.715   7
  -6  -1  18 844.301 521.319   2
  -6  -1  18 1205.50 647.635   8
   6  -1 -17-310.355 517.850   7
  -6  -1  17 360.062 532.247   2
  -6  -1  17 137.638 493.453   8
   6  -1 -16 338.109 455.609   7
  -6  -1  16 1433.24 703.064   8
  -6  -1  16 1946.83 723.035   2
   6  -1 -15 5770.66 1129.93   7
  -6  -1  15 4942.64 1057.10   8
  -6  -1  15 6266.50 1088.07   2
   6  -1 -14 6884.12 1132.28   7
  -6  -1  14 9343.52 1381.37   8
   6  -1 -14 8491.53 1133.49   4
  -6  -1  14 8681.99 1244.59   2
   6  -1 -13 12186.1 1460.89   7
  -6  -1  13 11046.2 1452.14   8
   6  -1 -13 9943.93 1203.56   4
  -6  -1  13 13038.3 1496.02   2
   6  -1 -12 9735.78 1265.87   7
  -6  -1  12 8545.63 1236.74   8
   6  -1 -12 8306.84 1095.75   4
  -6  -1  12 9383.84 1234.44   2
   6  -1 -11 6665.59 998.493   7
  -6  -1  11 7840.94 1126.60   8
   6  -1 -11 6180.38 945.823   4
  -6  -1  11 7494.75 1065.18   2
  -6  -1  10 10746.1 1255.02   8
   6  -1 -10 9930.25 1166.25   4
   6  -1 -10 11837.6 1257.15   7
   6  -1  -9 4676.86 789.081   7
  -6  -1   9 3425.23 741.644   8
   6  -1  -9 3345.93 677.225   4
   6  -1  -8 1714.38 500.842   7
  -6  -1   8 1794.23 509.540   8
   6  -1  -8 1754.51 529.500   4
   6  -1  -7 4685.20 721.988   7
  -6  -1   7 4707.40 744.560   8
   6  -1  -7 4122.75 760.434   4
   6  -1  -6 2685.24 543.135   7
  -6  -1   6 2276.28 509.954   8
   6  -1  -6 3188.83 670.217   4
   6  -1  -5 1630.01 410.306   7
  -6  -1   5 1990.92 431.508   8
   6  -1  -5 2141.23 546.585   4
  -6  -1   4 19278.5 1260.33   8
   6  -1  -4 19638.2 1574.15   4
   6  -1  -4 19854.6 1284.70   7
  -6  -1   3 12246.1 1302.44   6
  -6  -1   3 12847.0 989.575   8
   6  -1  -3 14110.9 1339.02   4
  -6  -1   2 21416.8 1696.33   6
  -6  -1   2 23455.8 1277.25   8
   6  -1  -2 22914.1 1704.31   4
  -6  -1   1 32943.1 2090.71   6
  -6  -1   1 32170.9 1429.20   8
   6  -1  -1 30602.3 2002.30   4
  -6  -1   0 23508.6 1778.86   6
  -6  -1   0 21138.3 590.420   1
  -6  -1   0 25685.2 1208.99   8
   6  -1   0 23929.6 1768.20   4
  -6  -1  -1 34297.6 2150.92   6
   6  -1   1 34613.1 2160.44   4
  -6  -1  -1 38403.5 1366.24   8
  -6  -1  -2 154.315 277.472   6
   6  -1   2 467.456 406.164   4
  -6  -1  -3 669.070 411.740   6
   6  -1   3 159.417 330.513   4
  -6  -1  -4 5151.47 889.861   6
   6  -1   4 6040.64 968.870   4
  -6  -1  -5 1108.27 491.300   6
   6  -1   5 909.033 349.736   9
   6  -1   5 1271.45 519.651   4
  -6  -1  -6 4123.65 852.492   6
   6  -1   6 4291.76 704.915   9
   6  -1   6 5436.25 942.637   4
  -6  -1  -7 7927.26 1176.62   6
   6  -1   7 6516.55 878.837   9
   6  -1   7 7522.76 1147.35   4
  -6  -1  -8 15376.8 1653.94   6
   6  -1   8 15659.7 1396.38   9
   6  -1   8 16097.2 1667.04   4
  -6  -1  -9 9968.50 1381.88   6
   6  -1   9 11661.2 1260.02   9
   6  -1   9 8397.05 1235.27   4
  -6  -1 -10 4771.79 1025.47   6
   6  -1  10 6176.65 935.419   9
   6  -1  10 6660.22 1133.02   4
  -6  -1 -11 7361.76 1277.87   6
  -6  -1 -11 7315.91 1505.36   5
   6  -1  11 3826.90 901.543   4
  -6  -1 -12 4415.24 1039.23   6
  -6  -1 -12 3313.15 1162.10   5
   6  -1  12 4577.39 987.972   4
  -6  -1 -13 789.008 589.059   6
  -6  -1 -13 727.043 602.179   5
   6  -1  13 1245.77 635.401   4
  -6  -1 -14 3013.66 959.882   6
  -6  -1 -14 265.447 715.153   5
  -6  -1 -15-830.356 561.574   6
  -6   0  20 3282.98 923.520   2
   6   0 -19 2639.87 859.856   7
  -6   0  19 3097.21 852.005   2
  -6   0  19 3770.83 1087.37   8
   6   0 -18 2372.50 871.487   7
  -6   0  18 1609.74 692.522   2
  -6   0  18 2593.25 912.910   8
   6   0 -17 10765.5 1596.49   7
  -6   0  17 8877.46 1540.14   8
  -6   0  17 8447.61 1270.20   2
   6   0 -16 3618.70 905.917   7
  -6   0  16 3699.18 936.161   8
  -6   0  16 3693.67 879.454   2
   6   0 -15 292.260 394.399   7
  -6   0  15 944.039 576.093   8
  -6   0  15 691.264 435.873   2
   6   0 -14 715.650 489.668   7
  -6   0  14 1185.93 572.414   8
  -6   0  14 877.263 426.404   2
   6   0 -13 4132.99 839.218   7
   6   0 -13 3825.88 809.763   4
  -6   0  13 4818.81 958.380   8
   6   0 -12 2100.19 638.602   7
  -6   0  12 752.773 492.697   8
   6   0 -12 908.883 454.169   4
   6   0 -11 1454.40 523.619   7
  -6   0  11 1054.90 465.592   8
   6   0 -11 1064.58 487.284   4
   6   0 -10 7567.83 1016.39   7
  -6   0  10 7490.21 1079.50   8
   6   0 -10 7138.15 1046.87   4
   6   0  -9 13604.1 1404.11   4
  -6   0   9 14382.2 1408.55   8
   6   0  -9 13353.6 1271.77   7
   6   0  -8 14701.5 1430.95   4
  -6   0   8 15582.4 1414.87   8
   6   0  -8 12292.4 1163.72   7
   6   0  -7 6128.06 793.328   7
  -6   0   7 6261.39 876.637   8
   6   0  -7 6419.39 954.664   4
   6   0  -6 41887.4 2332.63   4
  -6   0   6 36729.3 2004.22   8
   6   0  -6 42579.9 1941.67   7
   6   0  -5 10008.1 1163.43   4
  -6   0   5 9616.08 1001.32   8
   6   0  -5 10837.3 936.065   7
   6   0  -4 32851.3 2031.06   4
  -6   0   4 26468.8 1599.22   8
   6   0  -4 28649.9 1424.13   7
  -6   0   3 9006.10 583.191   1
  -6   0   3 10153.1 1197.31   6
   6   0  -3 10865.1 1198.69   4
  -6   0   3 9875.99 956.883   8
   6   0  -3 9878.62 777.939   7
   6   0  -2 152.384 141.737   7
  -6   0   2 61.0577 73.0284   1
  -6   0   2 73.3028 350.515   6
  -6   0   2-6.37819 176.490   8
   6   0  -2 253.969 353.979   4
   6   0  -1 1903.94 302.238   7
  -6   0   1 1304.45 486.190   6
  -6   0   1 910.115 313.062   8
   6   0  -1 2240.48 558.590   4
   6   0   0 1221.28 223.645   7
  -6   0   0 226.290 263.291   6
  -6   0   0 581.280 265.044   8
   6   0   0 1072.23 424.078   4
  -6   0  -1 3271.74 737.016   6
  -6   0  -1 3590.93 520.499   8
   6   0   1 3253.60 679.772   4
   6   0   1 3171.19 338.519   7
  -6   0  -2 41679.4 2473.41   6
   6   0   2 42557.3 2360.64   4
  -6   0  -3 22239.4 1826.70   6
   6   0   3 20187.6 1507.82   9
   6   0   3 20459.9 1668.42   4
  -6   0  -4 28227.6 2082.37   6
   6   0   4 27273.8 1787.31   9
   6   0   4 29180.5 2002.52   4
  -6   0  -5 28376.6 2146.38   6
   6   0   5 29231.9 1890.96   9
   6   0   5 27586.2 1982.28   4
  -6   0  -6 12699.9 1486.67   6
   6   0   6 13894.9 1343.64   9
   6   0   6 13952.7 1442.88   4
  -6   0  -7 234.874 319.003   6
   6   0   7 821.505 395.354   9
   6   0   7 790.626 382.569   4
  -6   0  -8 677.554 440.832   6
   6   0   8 989.844 406.589   9
   6   0   8 1034.16 531.504   4
  -6   0  -9 4262.87 976.567   6
   6   0   9 4630.06 879.058   9
   6   0   9 3964.39 839.307   4
  -6   0 -10 1782.65 690.716   6
   6   0  10 1235.08 496.035   9
   6   0  10 2364.90 662.400   4
  -6   0 -11 418.132 497.577   6
   6   0  11 283.160 412.567   9
   6   0  11 110.691 273.663   4
  -6   0 -12 4761.39 1142.10   6
   6   0  12 5002.10 1018.42   9
   6   0  12 4403.39 919.688   4
  -6   0 -13 3655.75 1066.14   6
   6   0  13 1129.54 516.646   9
  -6   0 -14 1304.85 645.321   6
  -6   0 -14 3074.36 1109.64   5
   6   0  14 1274.85 535.128   9
   6   1 -19 694.816 490.329   7
  -6   1  19-710.322 697.346   8
   6   1 -18 810.857 617.664   7
  -6   1  18 437.895 472.781   8
  -6   1  18-379.413 469.073   2
  -6   1  17 104.678 450.574   8
  -6   1  17 333.272 362.508   2
   6   1 -16 1530.38 647.968   7
  -6   1  16 2020.76 761.821   8
  -6   1  16 578.230 358.233   2
   6   1 -15 5157.04 1058.19   7
  -6   1  15 3768.32 976.971   8
   6   1 -14 11366.5 1468.23   7
  -6   1  14 10411.0 1463.40   8
   6   1 -13 11062.3 1386.75   7
  -6   1  13 8512.89 1292.74   8
   6   1 -12 8909.33 1216.01   7
   6   1 -12 8744.29 1241.60   4
  -6   1  12 9014.72 1326.24   8
   6   1 -11 6630.50 1038.29   7
   6   1 -11 6085.17 1018.94   4
  -6   1  11 5774.38 980.939   8
   6   1 -10 8800.89 1101.78   7
   6   1 -10 11010.1 1340.88   4
  -6   1  10 11537.2 1349.12   8
   6   1  -9 3809.48 715.141   7
   6   1  -9 4441.74 845.840   4
  -6   1   9 3606.01 771.116   8
   6   1  -8 1978.64 501.580   7
  -6   1   8 2872.16 687.840   8
   6   1  -8 1886.83 600.446   4
   6   1  -7 4844.78 716.535   7
  -6   1   7 3540.37 691.366   8
   6   1  -7 4400.48 825.193   4
   6   1  -6 2593.98 501.809   7
  -6   1   6 1527.16 458.952   8
   6   1  -6 2023.68 604.409   4
   6   1  -5 1379.16 336.248   7
  -6   1   5 2602.32 609.329   8
   6   1  -5 3282.84 716.834   4
  -6   1   4 19854.7 1721.00   6
   6   1  -4 21514.6 1720.81   4
  -6   1   4 20277.4 1540.07   8
   6   1  -4 18928.8 1128.73   7
  -6   1   3 11075.8 1301.46   6
   6   1  -3 12736.3 1304.57   4
  -6   1   3 12704.7 1208.30   8
   6   1  -3 11066.3 785.224   7
  -6   1   2 21890.9 1803.79   6
  -6   1   2 19421.3 876.590   1
   6   1  -2 20118.2 1637.52   4
  -6   1   2 20741.1 1500.76   8
   6   1  -2 21776.7 971.532   7
  -6   1   1 34759.9 2270.16   6
   6   1  -1 34465.2 2131.07   4
  -6   1   1 33466.2 1873.87   8
   6   1  -1 35090.3 1019.74   7
  -6   1   0 28638.1 2064.30   6
   6   1   0 29377.2 1970.81   4
  -6   1   0 27999.5 1691.47   8
  -6   1  -1 39153.8 2436.03   6
   6   1   1 40276.5 2293.53   4
  -6   1  -1 36835.3 1929.06   8
  -6   1  -2 1082.71 455.496   6
   6   1   2 1368.25 478.088   9
   6   1   2 1588.70 486.141   4
  -6   1  -3 531.949 442.184   6
   6   1   3 869.349 427.804   9
   6   1   3 929.069 437.852   4
  -6   1  -4 4122.66 830.813   6
   6   1   4 4820.24 823.478   9
   6   1   4 5909.58 903.560   4
  -6   1  -5 169.156 384.957   6
   6   1   5 1979.37 612.560   9
   6   1   5 1244.45 496.946   4
  -6   1  -6 3470.70 818.717   6
   6   1   6 4461.62 840.678   9
   6   1   6 3723.54 782.411   4
  -6   1  -7 7121.28 1223.85   6
   6   1   7 7384.74 1101.68   9
   6   1   7 6298.74 962.559   4
  -6   1  -8 19429.6 1988.76   6
   6   1   8 19850.2 1800.01   9
   6   1   8 18983.3 1667.13   4
  -6   1  -9 7173.14 1233.33   6
   6   1   9 8730.18 1239.93   9
   6   1   9 7165.67 1072.38   4
  -6   1 -10 3911.03 1001.32   6
   6   1  10 3832.60 855.394   9
   6   1  10 4141.42 814.191   4
  -6   1 -11 3380.13 964.624   6
   6   1  11 2344.75 719.637   9
  -6   1 -12 4009.05 1067.85   6
   6   1  12 4513.65 989.653   9
  -6   1 -13 715.574 525.818   6
   6   1  13 1793.17 755.639   9
  -6   1 -14 3603.71 1125.76   6
   6   1  14 1394.92 698.970   9
   6   1  15 406.151 535.507   9
   6   2 -18 1595.98 731.578   7
  -6   2  18 2194.06 837.602   8
   6   2 -17 3338.17 882.793   7
  -6   2  17 4555.63 1116.13   8
   6   2 -16 2377.65 832.913   7
  -6   2  16 3274.96 926.466   8
   6   2 -15 3805.59 918.616   7
  -6   2  15 2542.16 882.539   8
   6   2 -14 1982.85 628.591   7
  -6   2  14 2024.48 757.616   8
   6   2 -13 2892.85 762.080   7
  -6   2  13 4147.49 993.430   8
   6   2 -12 96.9918 375.536   7
  -6   2  12-265.780 352.381   8
   6   2 -11 63.0832 318.132   7
   6   2 -11 131.982 222.308   3
  -6   2  11 869.786 506.264   8
   6   2 -10 12000.5 1141.90   3
  -6   2  10 12036.3 1451.35   8
   6   2 -10 11954.6 1295.02   7
   6   2  -9 20421.5 1529.25   3
   6   2  -9 20629.4 1903.37   4
  -6   2   9 21025.7 1876.87   8
   6   2  -9 18143.1 1510.15   7
   6   2  -8 5746.66 830.948   7
   6   2  -8 6436.22 896.560   3
   6   2  -8 6821.72 1126.13   4
  -6   2   8 6047.78 1001.33   8
   6   2  -7 6543.02 837.378   7
   6   2  -7 8260.61 1011.27   3
   6   2  -7 7049.78 1100.77   4
  -6   2   7 6780.46 1031.49   8
   6   2  -6 23945.3 1716.40   3
   6   2  -6 23524.5 1937.23   4
  -6   2   6 23837.9 1861.42   8
   6   2  -6 24374.6 1498.32   7
   6   2  -5 26154.2 1814.06   3
  -6   2   5 23489.1 1935.80   6
   6   2  -5 27260.1 2060.42   4
  -6   2   5 25560.4 1891.42   8
   6   2  -5 27264.3 1486.95   7
   6   2  -4 12799.1 1303.75   3
  -6   2   4 12052.0 1397.18   6
   6   2  -4 12464.4 1404.38   4
  -6   2   4 12014.3 1287.51   8
   6   2  -4 12709.6 936.753   7
   6   2  -3 3785.73 761.599   3
  -6   2   3 4282.54 858.903   6
   6   2  -3 3963.94 816.478   4
  -6   2   3 4588.07 821.286   8
   6   2  -3 5241.27 555.700   7
  -6   2   2 5295.90 942.328   6
   6   2  -2 5098.92 904.113   4
  -6   2   2 5519.77 891.078   8
   6   2  -2 6093.94 506.984   7
  -6   2   1 10576.3 1297.01   6
   6   2  -1 10260.2 1249.41   4
  -6   2   1 11006.6 1202.17   8
  -6   2   0 1507.12 544.001   6
   6   2   0 2338.02 636.192   4
  -6   2   0 2356.59 547.374   8
  -6   2  -1 829.914 409.434   6
   6   2   1 917.414 461.812   9
   6   2   1 605.043 338.734   4
  -6   2  -2 8615.74 1213.41   6
   6   2   2 12187.8 1343.61   9
   6   2   2 9217.53 1160.45   4
  -6   2  -3 15693.1 1637.01   6
   6   2   3 12676.3 1394.52   9
   6   2   3 13344.7 1369.90   4
  -6   2  -4 15800.9 1688.56   6
   6   2   4 15137.2 1536.13   9
   6   2   4 13129.2 1369.25   4
  -6   2  -5 8916.89 1309.35   6
   6   2   5 7990.36 1158.40   9
   6   2   5 8892.25 1134.18   4
  -6   2  -6 6650.24 1171.02   6
   6   2   6 8316.35 1210.05   9
   6   2   6 6370.62 955.012   4
  -6   2  -7 12564.1 1628.21   6
   6   2   7 11039.4 1414.33   9
   6   2   7 10148.6 1201.02   4
  -6   2  -8 2917.90 872.445   6
   6   2   8 3491.15 840.671   9
   6   2   8 3278.34 714.576   4
  -6   2  -9 1784.25 789.120   6
   6   2   9 373.433 317.825   9
  -6   2 -10 465.837 626.237   6
   6   2  10 610.260 573.966   9
  -6   2 -11 741.245 660.430   6
   6   2  11 788.699 633.370   9
  -6   2 -12 4390.16 1145.70   6
   6   2  12 2058.86 734.884   9
  -6   2 -13 7815.04 1489.98   6
   6   2  13 9808.64 1581.16   9
  -6   3  17-522.385 604.206   8
   6   3 -17 1551.42 796.070   7
  -6   3  16 1454.38 709.521   8
   6   3 -16 858.245 581.508   7
  -6   3  15-418.769 574.720   8
   6   3 -15 236.020 379.166   7
  -6   3  14 8284.45 1428.10   8
   6   3 -14 6273.20 1161.24   7
  -6   3  13 8012.62 1350.59   8
   6   3 -13 4930.73 994.364   7
   6   3 -12 2752.32 641.588   3
  -6   3  12 2995.00 857.147   8
   6   3 -12 3866.21 898.514   7
   6   3 -11 6369.46 967.376   3
  -6   3  11 7918.14 1312.22   8
   6   3 -11 5471.09 995.791   7
   6   3 -10 8780.37 1132.34   3
  -6   3  10 8942.07 1343.68   8
   6   3 -10 9953.38 1265.56   7
   6   3  -9 19950.0 1698.88   3
  -6   3   9 24692.3 2137.19   8
   6   3  -9 23781.7 1834.51   7
   6   3  -8 1409.41 532.211   3
  -6   3   8 581.890 435.523   8
   6   3  -8 2337.01 600.743   7
  -6   3   7 621.069 506.051   6
   6   3  -7 1843.30 581.426   3
  -6   3   7 1706.95 614.714   8
   6   3  -7 2328.41 531.337   7
  -6   3   6 3910.58 851.985   6
   6   3  -6 3564.61 771.407   3
   6   3  -6 3588.98 882.401   4
  -6   3   6 5208.87 960.036   8
   6   3  -6 4546.45 723.108   7
   6   3  -5 11534.4 1344.77   3
  -6   3   5 10512.1 1347.36   6
   6   3  -5 9204.87 1286.29   4
  -6   3   5 8384.53 1215.37   8
   6   3  -5 9292.23 934.340   7
   6   3  -4 8008.70 1139.57   3
  -6   3   4 5499.18 970.989   6
   6   3  -4 6046.46 1033.85   4
  -6   3   4 7424.95 1122.96   8
   6   3  -4 6585.65 742.439   7
   6   3  -3 608.078 473.026   3
  -6   3   3-23.3840 303.773   6
   6   3  -3 487.728 307.015   4
  -6   3   3 207.208 324.745   8
   6   3  -2 35704.9 2382.41   3
  -6   3   2 33329.4 2340.62   6
   6   3  -2 32224.4 2311.84   4
  -6   3   2 32613.6 2260.80   8
   6   3  -1 3995.40 829.306   3
  -6   3   1 4993.05 975.813   6
   6   3  -1 4674.25 913.196   4
  -6   3   1 3190.15 734.412   8
   6   3   0 8715.18 1248.69   3
  -6   3   0 7575.32 1160.68   6
   6   3   0 7242.17 1097.45   4
  -6   3   0 8247.54 1160.28   8
   6   3   1 11255.7 1425.48   3
  -6   3  -1 6918.36 1104.10   6
   6   3   1 8028.52 1175.56   9
   6   3   1 8606.04 1188.94   4
  -6   3  -2 6719.12 1155.78   6
   6   3   2 6961.55 1075.21   9
   6   3   2 5715.48 966.240   4
  -6   3  -3 1641.71 656.037   6
   6   3   3 1075.57 531.641   9
   6   3   3 1584.61 530.295   4
  -6   3  -4 1709.44 599.215   6
   6   3   4 3140.75 805.682   9
   6   3   4 1596.82 508.504   4
  -6   3  -5 435.964 395.085   6
   6   3   5 397.606 502.690   9
   6   3   5 543.177 427.094   4
  -6   3  -6 2817.01 766.660   6
   6   3   6 4316.98 947.491   9
   6   3   6 2736.67 668.453   4
  -6   3  -7 785.376 572.797   6
   6   3   7 472.732 439.724   9
  -6   3  -8 8545.76 1434.30   6
   6   3   8 7675.63 1290.05   9
  -6   3  -9 4608.28 1136.55   6
   6   3   9 3654.82 936.115   9
  -6   3 -10 3921.24 969.336   6
   6   3  10 4530.62 1136.88   9
  -6   3 -11 4470.85 1140.21   6
   6   3  11 4676.36 1095.11   9
  -6   3 -12 3531.51 1057.92   6
   6   3  12 3484.64 1039.12   9
   6   4 -16 632.080 512.906   7
  -6   4  15 1166.30 693.034   8
   6   4 -15 212.040 376.480   7
  -6   4  14 2729.61 901.840   8
   6   4 -14 2226.05 801.883   7
  -6   4  13 1381.01 652.761   8
   6   4 -13 1209.39 603.268   7
   6   4 -12 2685.55 753.007   3
  -6   4  12 1478.76 566.565   8
   6   4 -12 3192.64 829.988   7
   6   4 -11 1036.31 508.037   3
  -6   4  11 1275.94 636.352   8
   6   4 -11 525.630 417.890   7
   6   4 -10 3394.97 843.604   3
  -6   4  10 2023.32 729.700   8
   6   4 -10 2575.24 742.823   7
  -6   4   9 1542.66 536.466   6
   6   4  -9 2469.10 691.639   3
  -6   4   9 2413.84 756.784   8
   6   4  -9 2135.96 638.528   7
  -6   4   8 1988.70 684.063   6
   6   4  -8 1901.38 582.862   3
  -6   4   8 3077.62 875.876   8
   6   4  -8 2426.15 648.866   7
  -6   4   7 3829.61 864.005   6
   6   4  -7 3916.92 883.895   3
  -6   4   7 3947.66 921.312   8
   6   4  -7 3305.45 727.378   7
  -6   4   6 5312.61 1013.27   6
   6   4  -6 5370.46 1025.37   3
  -6   4   6 5113.89 950.512   3
  -6   4   6 4897.46 1036.05   8
  -6   4   5 8801.34 1262.41   6
   6   4  -5 7817.64 1238.51   3
  -6   4   5 8495.67 1307.91   8
   6   4  -4 8053.27 1235.03   3
  -6   4   4 7910.62 1195.24   6
  -6   4   4 8077.29 1260.91   8
   6   4  -3 8806.04 1313.42   3
  -6   4   3 9576.15 1296.60   6
  -6   4   3 11682.4 1469.99   8
   6   4  -2 1407.72 638.409   3
  -6   4   2 1813.39 617.230   6
  -6   4   2 25.1620 347.261   8
   6   4  -1 2088.89 699.602   3
  -6   4   1 1130.04 534.869   6
   6   4   0 5988.79 1103.15   3
  -6   4   0 5911.19 1057.48   6
   6   4   0 5476.30 1031.19   4
   6   4   1 643.143 433.531   3
  -6   4  -1 667.001 433.372   6
   6   4   1 626.411 505.068   9
   6   4   1 578.020 406.686   4
   6   4   2 4081.90 971.777   3
  -6   4  -2 4998.38 978.310   6
   6   4   2 4642.42 972.154   9
   6   4   2 2848.12 735.329   4
   6   4   3 4160.78 996.342   3
  -6   4  -3 4184.28 942.398   6
   6   4   3 5648.26 1055.46   9
   6   4   3 4117.04 866.839   4
  -6   4  -4 7818.66 1292.87   6
   6   4   4 8875.79 1345.09   9
   6   4   4 6969.44 1088.05   4
  -6   4  -5 3821.50 962.037   6
   6   4   5 3118.16 859.697   9
  -6   4  -6 3817.46 965.198   6
   6   4   6 3130.69 880.251   9
  -6   4  -7 526.739 443.131   6
   6   4   7 403.515 467.477   9
  -6   4  -8 2452.84 799.455   6
   6   4   8 4134.00 1049.44   9
  -6   4  -9 36.5880 410.917   6
   6   4   9 278.785 434.588   9
  -6   4 -10 589.134 482.285   6
   6   4  10 368.729 485.627   9
   6   5 -14 518.426 501.284   7
  -6   5  13 3651.65 1035.66   8
   6   5 -13 1995.66 718.702   7
   6   5 -12 1104.09 607.220   3
  -6   5  12 969.831 644.327   8
   6   5 -12 1873.31 728.123   7
   6   5 -11 617.468 539.496   3
  -6   5  11 2072.78 818.273   8
   6   5 -10 832.191 559.569   3
  -6   5  10 1368.81 611.388   8
   6   5  -9 2835.82 824.855   3
  -6   5   9 2058.44 789.686   8
   6   5  -8 1222.70 614.931   3
  -6   5   8 944.411 634.173   8
  -6   5   7 1662.30 641.209   6
   6   5  -7 847.078 543.019   3
  -6   5   7 761.298 566.827   8
  -6   5   6 720.241 340.573   6
   6   5  -6 1126.54 574.735   3
  -6   5   6 208.100 435.229   8
   6   5  -5 456.694 473.353   3
  -6   5   5 528.045 428.810   6
  -6   5   5 429.119 480.943   3
  -6   5   5 565.681 491.920   8
   6   5  -4 2962.07 849.482   3
  -6   5   4 2654.88 771.464   6
  -6   5   4 2905.81 868.079   3
  -6   5   4 2235.76 754.311   8
   6   5  -3 1398.85 613.408   3
  -6   5   3 3309.03 813.196   6
  -6   5   3 3539.36 968.601   3
  -6   5   3 4132.14 990.108   8
   6   5  -2 5012.09 1130.10   3
  -6   5   2 3302.55 771.799   6
   6   5  -1 3528.95 942.003   3
  -6   5   1 3930.50 891.555   6
   6   5   0 9560.05 1512.77   3
  -6   5   0 8326.92 1235.52   6
   6   5   1 6750.94 1274.67   3
  -6   5  -1 5332.80 1007.46   6
   6   5   2 999.051 542.624   3
  -6   5  -2 1191.49 546.379   6
   6   5   2 2001.79 730.924   9
   6   5   3-492.622 481.435   3
  -6   5  -3 130.484 365.724   6
   6   5   3 220.949 385.320   9
   6   5   4 1213.72 660.526   3
  -6   5  -4 1625.79 678.455   6
   6   5   4 1536.88 727.546   9
   6   5   5 1279.61 714.678   3
  -6   5  -5 1423.45 632.341   6
   6   5   5 893.414 566.630   9
  -6   5  -6 628.622 549.955   6
   6   5   6-166.626 470.712   9
  -6   5  -7 740.247 553.251   6
   6   5   7 1270.98 742.090   9
  -6   5  -8 1329.67 606.344   6
  -6   5  -9 2465.60 858.784   6
   6   6 -10 379.275 487.311   3
   6   6  -9 1790.50 794.345   3
   6   6  -8 1256.36 695.415   3
   6   6  -7 1973.31 887.038   3
  -6   6   7 646.179 550.655   8
   6   6  -6 4486.03 1187.64   3
  -6   6   6 2820.57 894.430   8
   6   6  -5 1654.93 788.048   3
   6   6  -4 1417.48 663.858   3
  -6   6   4 1508.74 692.381   3
   6   6  -3 1497.70 759.133   3
  -6   6   3 2453.07 903.186   3
   6   6  -2-473.380 435.960   3
  -6   6   2 1097.17 617.855   3
   6   6  -1-821.782 585.284   3
  -6   6   1 175.776 458.288   3
   6   6   0 523.850 576.824   3
  -6   6   0 272.655 527.788   3
   6   6   1 90.6821 481.177   3
  -6   6  -1 1126.23 802.844   3
  -6   6  -2 1867.98 797.723   3
   6   6   3 1854.99 756.331   9
  -7  -6   8 1386.94 658.939   2
   7  -6  -8 1780.75 734.327   1
  -7  -6   7 990.008 654.852   2
   7  -6  -7 109.352 347.424   1
   7  -6  -3-496.796 504.336   4
   7  -6  -2 1670.16 795.917   4
   7  -6  -1 1283.57 688.515   4
  -7  -5  11 2680.61 873.460   2
   7  -5 -10 7.25236 398.671   1
  -7  -5  10 98.6033 444.469   2
   7  -5  -9-151.656 402.262   1
  -7  -5   9 387.944 448.531   2
  -7  -5   8 714.823 534.136   2
   7  -5  -8-1.90186 321.188   1
  -7  -5   7 3362.17 880.240   2
   7  -5  -7 2542.98 733.434   1
  -7  -5   6 4370.06 986.589   2
   7  -5  -6 4627.58 920.024   1
   7  -5  -6 5451.98 1069.68   4
  -7  -5   5 878.062 468.406   2
   7  -5  -5 421.588 381.125   4
  -7  -5   4 2175.38 632.002   2
   7  -5  -4 3029.88 859.011   4
   7  -5  -3 5900.03 1131.05   4
   7  -5  -2 3315.46 905.688   4
   7  -5  -1 457.189 453.598   4
   7  -5   0 1276.09 646.602   4
   7  -5   1 7.50812 471.643   4
   7  -5   2 865.438 619.325   4
  -7  -5  -2 1538.79 797.254   5
   7  -5   3 1051.81 689.234   4
  -7  -5  -3 1466.87 669.225   5
   7  -5   4 46.0596 505.304   4
  -7  -5  -4 2873.37 974.474   5
  -7  -5  -5 2265.12 979.976   5
  -7  -5  -6 354.042 760.235   5
  -7  -4  15 1763.00 786.451   8
  -7  -4  14 790.930 556.086   8
   7  -4 -13 1274.93 658.000   7
  -7  -4  13 1120.52 584.030   2
  -7  -4  13 1993.07 695.900   8
   7  -4 -12 429.737 462.954   7
  -7  -4  12 361.540 438.965   2
  -7  -4  12 1222.14 608.173   8
   7  -4 -11 3216.79 898.230   7
  -7  -4  11 1394.92 650.289   2
  -7  -4  11 3983.40 916.370   8
   7  -4 -10 3994.08 977.661   7
  -7  -4  10 1671.47 701.775   2
  -7  -4   9 2096.99 773.083   2
   7  -4  -8 5625.55 926.008   1
  -7  -4   8 4598.68 1004.51   2
   7  -4  -8 6004.27 1034.35   4
   7  -4  -7 4619.30 845.535   1
  -7  -4   7 5773.56 1085.87   2
   7  -4  -7 6552.01 1084.87   4
   7  -4  -6 852.403 406.554   1
  -7  -4   6 1684.21 605.054   2
   7  -4  -6 1830.90 655.740   4
   7  -4  -5 883.526 425.177   1
  -7  -4   5 878.143 454.552   2
   7  -4  -5 823.425 434.259   4
   7  -4  -4 1005.30 396.932   1
   7  -4  -4 695.902 371.333   4
  -7  -4   3 596.370 372.487   2
   7  -4  -3 1635.13 617.641   4
  -7  -4   2 2493.41 659.939   2
   7  -4  -2 2206.45 702.268   4
  -7  -4   1 2481.48 748.161   5
  -7  -4   1 2712.40 635.046   2
   7  -4  -1 2083.44 724.654   4
  -7  -4   0 5515.17 1115.87   5
   7  -4   0 5235.36 1067.57   4
   7  -4   1 4343.20 1005.32   4
  -7  -4  -1 2190.16 801.057   5
   7  -4   2 4718.57 1039.87   4
  -7  -4  -2 5177.88 1202.72   5
   7  -4   3 3447.44 921.172   4
  -7  -4  -3 1113.54 685.618   5
   7  -4   4 3220.78 921.192   4
  -7  -4  -4 3869.99 1087.78   5
   7  -4   5 865.626 669.998   4
  -7  -4  -5 1106.96 718.646   5
   7  -4   6 670.947 652.847   4
  -7  -4  -6-267.120 547.253   5
   7  -4   7-145.236 333.298   4
  -7  -4  -7 1584.00 780.450   5
  -7  -4  -8 1136.75 726.470   5
  -7  -3  17 106.958 604.621   8
   7  -3 -16 2449.65 832.227   7
  -7  -3  16 3165.36 991.157   2
  -7  -3  16 4593.64 1090.41   8
   7  -3 -15 703.066 450.132   7
  -7  -3  15 1758.19 771.694   2
  -7  -3  15 2073.14 829.532   8
   7  -3 -14 8483.36 1379.37   7
  -7  -3  14 7557.76 1366.58   2
  -7  -3  14 5789.22 1158.05   8
   7  -3 -13 820.433 597.904   7
  -7  -3  13 885.928 528.631   2
  -7  -3  13 1880.64 684.849   8
   7  -3 -12 1531.70 649.262   7
  -7  -3  12 2818.15 777.786   8
  -7  -3  12 2237.25 762.999   2
   7  -3 -11 849.836 444.949   7
  -7  -3  11 1606.37 553.340   8
  -7  -3  11 770.987 486.166   2
   7  -3 -11 1322.63 525.573   4
   7  -3 -10 2380.80 684.674   7
  -7  -3  10 880.093 386.843   8
  -7  -3  10 925.507 599.603   2
   7  -3 -10 2014.51 626.503   4
   7  -3  -9 109.966 265.776   7
  -7  -3   9 20.9157 263.969   8
   7  -3  -9 23.1203 211.625   4
   7  -3  -8 1083.20 488.261   7
  -7  -3   8 532.473 395.183   8
  -7  -3   8 486.332 482.773   2
   7  -3  -8 124.911 270.421   4
  -7  -3   7 1940.30 515.591   8
  -7  -3   7 2322.98 710.136   2
   7  -3  -7 2644.04 704.845   4
  -7  -3   6 7665.12 1111.43   2
   7  -3  -6 7396.27 1118.58   4
  -7  -3   5 4225.61 840.537   6
   7  -3  -5 5484.27 762.222   1
  -7  -3   5 2701.28 658.000   2
   7  -3  -5 3908.93 837.385   4
  -7  -3   4 10593.1 1290.32   6
  -7  -3   4 8682.54 1141.05   5
  -7  -3   4 12288.3 1318.38   2
   7  -3  -4 11545.2 1387.52   4
   7  -3  -4 10066.3 981.142   1
  -7  -3   3 9117.03 1173.44   6
  -7  -3   3 9872.36 1291.37   5
  -7  -3   3 9893.96 1180.64   2
   7  -3  -3 11350.8 1389.78   4
  -7  -3   2 2666.74 648.036   6
  -7  -3   2 2186.94 639.748   5
  -7  -3   2 2561.39 624.614   2
   7  -3  -2 1791.01 601.279   4
  -7  -3   1 19380.4 1676.67   6
  -7  -3   1 16439.2 1774.71   5
   7  -3  -1 20901.4 1928.09   4
  -7  -3   0 1518.35 524.000   6
  -7  -3   0 430.676 400.800   5
   7  -3   0 901.405 548.658   4
  -7  -3  -1 817.616 429.588   6
  -7  -3  -1 645.717 490.225   5
   7  -3   1 971.621 621.697   4
  -7  -3  -2 973.750 414.405   6
  -7  -3  -2 1048.76 601.258   5
   7  -3   2 1190.81 568.345   4
  -7  -3  -3 1642.69 550.761   6
  -7  -3  -3 1522.14 766.080   5
   7  -3   3 2048.78 776.422   4
   7  -3   4 4275.62 1023.08   4
  -7  -3  -4 5478.92 1236.74   5
   7  -3   5 2762.24 836.873   4
  -7  -3  -5 2958.81 883.608   5
   7  -3   6 6814.49 1229.13   4
  -7  -3  -6 7171.96 1467.40   5
   7  -3   7 3705.90 963.461   4
  -7  -3  -7 5858.28 1332.36   5
   7  -3   8 8796.93 1514.69   4
  -7  -3  -8 5465.56 1377.47   5
   7  -3   9 2821.73 916.448   4
  -7  -3  -9 1695.91 831.721   5
   7  -3  10 1699.63 743.687   4
   7  -2 -17 792.579 620.525   7
  -7  -2  17 88.5519 433.332   2
  -7  -2  17 145.462 466.368   8
   7  -2 -16 2712.73 894.588   7
  -7  -2  16 917.219 539.670   2
  -7  -2  16 2218.50 836.011   8
   7  -2 -15 343.481 528.964   7
  -7  -2  15 757.654 535.347   8
  -7  -2  15 35.5229 536.176   2
   7  -2 -14 800.728 554.236   7
  -7  -2  14 2000.83 702.680   8
  -7  -2  14 1619.22 740.784   2
   7  -2 -13 2766.44 733.621   7
  -7  -2  13 3661.91 907.654   8
   7  -2 -13 3336.67 753.762   4
  -7  -2  13 2937.18 804.276   2
   7  -2 -12 4463.95 929.208   7
  -7  -2  12 4202.70 879.968   8
   7  -2 -12 3146.85 751.963   4
  -7  -2  12 3219.48 844.729   2
   7  -2 -11 3697.71 828.856   7
  -7  -2  11 5907.74 1028.04   8
   7  -2 -11 3903.62 824.276   4
  -7  -2  11 4110.74 910.763   2
   7  -2 -10 6403.85 1042.63   7
  -7  -2  10 8798.64 1207.08   8
   7  -2 -10 7791.58 1127.90   4
  -7  -2  10 7956.64 1196.29   2
   7  -2  -9 9243.69 1192.15   7
  -7  -2   9 8054.70 1092.80   8
   7  -2  -9 9041.48 1211.67   4
  -7  -2   9 9126.21 1250.74   2
   7  -2  -8 9585.42 1169.60   7
  -7  -2   8 11738.1 1233.89   8
   7  -2  -8 8193.50 1135.58   4
   7  -2  -7 4226.87 789.896   7
  -7  -2   7 4262.09 731.481   8
   7  -2  -7 4317.36 829.262   4
   7  -2  -6 2843.04 625.676   7
  -7  -2   6 2719.75 572.876   8
   7  -2  -6 1706.12 559.305   4
  -7  -2   5-213.783 269.803   8
   7  -2  -5-103.649 351.334   4
  -7  -2   4 243.210 325.679   6
  -7  -2   4 189.653 221.215   8
   7  -2  -4 673.371 477.788   4
  -7  -2   3 1607.15 579.729   6
  -7  -2   3 2022.28 406.559   8
   7  -2  -3 1313.54 524.037   4
  -7  -2   2 4812.02 890.970   6
   7  -2  -2 5450.32 961.977   4
  -7  -2   1 5352.92 957.213   6
   7  -2  -1 4729.79 913.021   4
  -7  -2   0 7523.31 1100.01   6
   7  -2   0 7944.96 1184.50   4
  -7  -2  -1 10706.2 1312.59   6
   7  -2   1 13008.6 1508.98   4
  -7  -2  -2 13143.4 1447.13   6
   7  -2   2 12865.5 1530.44   4
  -7  -2  -3 15918.6 1595.20   6
   7  -2   3 18551.2 1843.57   4
  -7  -2  -4 7876.65 1159.18   6
   7  -2   4 6239.33 1137.39   4
  -7  -2  -5 1867.20 635.931   6
   7  -2   5 971.851 508.475   4
  -7  -2  -6 2367.81 691.285   6
   7  -2   6 2423.14 766.150   4
  -7  -2  -7 957.917 535.440   6
  -7  -2  -7 660.809 442.976   5
   7  -2   7 746.136 520.809   4
  -7  -2  -8 696.966 442.983   6
  -7  -2  -8 799.779 642.805   5
   7  -2   8 1343.73 588.970   4
  -7  -2  -9 3612.62 893.732   6
  -7  -2  -9 3098.04 1132.44   5
   7  -2   9 3445.93 958.323   4
  -7  -2 -10 3922.18 947.472   6
  -7  -2 -10 5231.69 1397.98   5
   7  -2  10 4282.35 1005.37   4
  -7  -2 -11 4732.54 1046.99   6
  -7  -2 -11 6961.94 1645.44   5
   7  -2  11 5590.15 1239.59   4
  -7  -2 -12 1299.61 636.203   6
   7  -2  12 2229.62 880.356   4
  -7  -1  19 795.059 547.894   2
   7  -1 -18 1020.07 623.906   7
  -7  -1  18 747.072 584.951   2
  -7  -1  18 2136.71 920.298   8
   7  -1 -17 585.867 546.849   7
  -7  -1  17 1352.16 789.916   8
  -7  -1  17 1520.42 694.117   2
   7  -1 -16 6373.24 1253.66   7
  -7  -1  16 3638.80 951.220   8
  -7  -1  16 3857.58 978.308   2
   7  -1 -15 2908.01 841.883   7
  -7  -1  15 3867.61 940.130   8
  -7  -1  15 3794.15 937.177   2
   7  -1 -14 4498.07 952.722   7
   7  -1 -14 6116.54 1045.47   4
  -7  -1  14 7276.24 1256.50   2
   7  -1 -13 2595.53 731.650   7
  -7  -1  13 1289.35 721.447   8
   7  -1 -13 1335.63 552.795   4
  -7  -1  13 1417.87 576.252   2
   7  -1 -12 5005.57 954.020   7
  -7  -1  12 6217.96 1108.78   8
   7  -1 -12 6142.90 1028.12   4
  -7  -1  12 5930.52 1056.67   2
   7  -1 -11 6377.14 1005.23   7
  -7  -1  11 4568.68 919.485   8
   7  -1 -11 4712.87 919.463   4
   7  -1 -10 1967.58 609.659   7
  -7  -1  10 938.516 478.900   8
   7  -1 -10 1668.12 562.156   4
   7  -1  -9 1957.45 573.038   7
  -7  -1   9 2079.87 613.539   8
   7  -1  -9 3055.31 727.281   4
   7  -1  -8 1482.25 459.070   7
  -7  -1   8 1624.66 504.926   8
   7  -1  -8 2491.58 673.148   4
  -7  -1   7 10029.5 1124.58   8
   7  -1  -7 10937.3 1329.60   4
   7  -1  -7 9282.30 1073.85   7
   7  -1  -6 4779.73 723.117   7
  -7  -1   6 4101.15 707.936   8
   7  -1  -6 5575.96 949.950   4
  -7  -1   5 8320.82 939.705   8
   7  -1  -5 10246.2 1251.89   4
   7  -1  -5 9887.10 996.071   7
  -7  -1   4 36830.6 2462.26   6
  -7  -1   4 37948.6 1904.75   8
   7  -1  -4 39112.7 2430.28   4
   7  -1  -4 34023.5 1766.82   7
  -7  -1   3 17614.0 1695.05   6
  -7  -1   3 20391.1 1358.62   8
   7  -1  -3 18731.6 1704.55   4
   7  -1  -3 18910.0 1278.16   7
  -7  -1   2 8483.29 1187.07   6
  -7  -1   2 9507.01 889.936   8
   7  -1  -2 9439.37 1226.53   4
  -7  -1   1 21.3745 325.174   6
  -7  -1   1 835.065 278.499   8
  -7  -1   0 7151.37 1074.97   6
  -7  -1   0 6394.95 669.366   8
   7  -1   0 7334.99 1107.78   4
  -7  -1  -1 2091.36 645.518   6
   7  -1   1 830.455 491.419   4
  -7  -1  -2 800.120 467.726   6
   7  -1   2 192.062 255.324   4
  -7  -1  -3 453.431 309.446   6
   7  -1   3 229.193 363.691   4
  -7  -1  -4 8305.46 1206.18   6
   7  -1   4 9611.11 1324.00   4
  -7  -1  -5 10534.4 1398.91   6
   7  -1   5 9564.81 1355.53   4
  -7  -1  -6 10288.5 1404.25   6
   7  -1   6 12199.2 1531.84   4
  -7  -1  -7 13659.3 1640.10   6
   7  -1   7 11697.6 1277.33   9
   7  -1   7 12286.1 1549.25   4
  -7  -1  -8 1699.62 638.660   6
   7  -1   8 1404.85 508.299   9
   7  -1   8 1735.78 744.338   4
  -7  -1  -9 5853.41 1169.91   6
   7  -1   9 4515.40 1018.07   4
  -7  -1 -10 1566.50 651.822   6
   7  -1  10 623.907 508.218   4
  -7  -1 -11 3301.73 953.724   6
  -7  -1 -11 3829.45 1286.79   5
   7  -1  11 3489.94 972.403   4
  -7  -1 -12-364.378 439.738   6
  -7  -1 -12 355.810 605.948   5
   7  -1  12-27.9625 380.009   4
  -7  -1 -13 874.632 721.923   6
   7  -1  13-217.485 506.733   4
  -7   0  20 709.206 537.171   2
  -7   0  19 816.135 516.570   2
   7   0 -18 1129.62 624.428   7
  -7   0  18 1332.19 911.089   8
  -7   0  18 1502.72 652.821   2
   7   0 -17 1421.18 691.809   7
  -7   0  17 789.936 596.169   8
  -7   0  17 1329.49 549.520   2
   7   0 -16 1979.54 701.724   7
  -7   0  16 1241.30 621.238   8
  -7   0  16 2358.58 722.961   2
   7   0 -15 1848.39 684.255   7
  -7   0  15 1558.65 682.091   8
  -7   0  15 1816.31 640.458   2
   7   0 -14 12715.0 1570.82   4
  -7   0  14 11891.4 1577.02   8
   7   0 -13 191.890 367.088   7
   7   0 -13 102.128 355.260   4
  -7   0  13 154.254 385.174   8
   7   0 -12 6495.02 1051.10   7
  -7   0  12 5115.26 974.897   8
   7   0 -12 6344.67 1090.06   4
   7   0 -11 5610.22 958.839   7
  -7   0  11 5131.96 959.894   8
   7   0 -11 5907.98 1041.32   4
   7   0 -10 7249.18 1036.41   7
  -7   0  10 10030.5 1293.68   8
   7   0 -10 7763.40 1168.78   4
   7   0  -9 9337.77 1117.82   7
  -7   0   9 11261.0 1325.08   8
   7   0  -9 7745.19 1164.96   4
   7   0  -8 26080.3 2065.89   4
  -7   0   8 24812.7 1886.00   8
   7   0  -8 22742.8 1645.02   7
   7   0  -7 5647.51 796.802   7
  -7   0   7 5661.70 886.799   8
   7   0  -7 3482.73 816.689   4
   7   0  -6 4261.14 648.170   7
  -7   0   6 3933.61 739.473   8
   7   0  -6 5191.77 936.018   4
   7   0  -5 4561.18 645.654   7
  -7   0   5 3151.93 794.919   6
  -7   0   5 3304.29 639.070   8
   7   0  -5 3935.94 797.675   4
   7   0  -4-72.2762 212.501   7
  -7   0   4 302.833 420.185   6
  -7   0   4 251.026 233.618   8
   7   0  -4 340.315 268.695   4
  -7   0   3 7380.63 1162.89   6
  -7   0   3 6307.58 836.177   8
   7   0  -3 7188.16 1089.54   4
   7   0  -3 7962.66 750.170   7
  -7   0   2 5153.85 981.379   6
  -7   0   2 5347.13 761.038   8
   7   0  -2 5780.16 971.756   4
   7   0  -2 5663.01 592.782   7
   7   0  -1 3176.26 417.714   7
  -7   0   1 3544.90 825.578   6
  -7   0   1 3560.14 610.086   8
   7   0  -1 3729.04 794.417   4
  -7   0   0 20278.1 1853.16   6
   7   0   0 20683.5 1797.26   4
  -7   0   0 19551.5 1356.62   8
  -7   0  -1 53482.2 3035.67   6
   7   0   1 55047.8 2927.19   4
  -7   0  -1 55954.1 2228.76   8
  -7   0  -2 7027.33 1154.52   6
   7   0   2 8925.71 1207.80   4
  -7   0  -3 4577.14 918.404   6
   7   0   3 3822.18 815.042   4
  -7   0  -4 389.813 374.391   6
   7   0   4 1049.73 563.982   4
  -7   0  -5 1564.59 577.900   6
   7   0   5 1557.29 525.494   9
   7   0   5 1075.82 487.064   4
  -7   0  -6 2896.84 816.357   6
   7   0   6 1949.35 589.033   9
   7   0   6 3399.29 801.025   4
  -7   0  -7 5144.00 1076.77   6
   7   0   7 3319.92 780.339   9
   7   0   7 3417.11 835.282   4
  -7   0  -8 3526.50 922.943   6
   7   0   8 4508.40 905.872   9
   7   0   8 4286.62 933.733   4
  -7   0  -9-82.9347 388.110   6
   7   0   9 55.7725 341.629   9
   7   0   9 93.7530 369.712   4
  -7   0 -10 4398.45 1094.73   6
   7   0  10 4379.23 908.967   9
   7   0  10 3651.55 884.416   4
  -7   0 -11 5861.60 1287.72   6
   7   0  11 4702.09 986.177   9
   7   0  11 5454.78 1067.84   4
  -7   0 -12 3271.82 1023.71   6
   7   0  12 1803.27 653.573   9
  -7   1  19-497.955 470.206   2
   7   1 -18 2674.97 920.522   7
  -7   1  18 972.116 578.586   8
  -7   1  18 1157.01 586.579   2
   7   1 -17 2388.69 820.681   7
  -7   1  17 1159.66 685.333   8
  -7   1  17 2061.23 726.033   2
   7   1 -16 4644.01 1059.54   7
  -7   1  16 6420.44 1119.35   2
   7   1 -15 1871.54 676.603   7
  -7   1  15 2614.53 868.184   8
   7   1 -14 5402.50 1049.01   7
  -7   1  14 7644.09 1326.19   8
   7   1 -13 2972.71 773.796   7
   7   1 -13 2155.54 720.792   4
  -7   1  13 2321.27 779.162   8
   7   1 -12 5370.30 975.685   7
   7   1 -12 5379.43 1069.47   4
  -7   1  12 4579.26 993.015   8
   7   1 -11 4222.89 844.790   7
   7   1 -11 4051.48 896.561   4
  -7   1  11 4004.26 896.866   8
   7   1 -10 1108.10 462.947   7
   7   1 -10 2587.79 749.758   4
  -7   1  10 1396.61 577.731   8
   7   1  -9 2467.10 593.451   7
   7   1  -9 1868.54 639.118   4
  -7   1   9 2185.64 667.938   8
   7   1  -8 1783.52 506.854   7
  -7   1   8 1402.02 558.797   8
   7   1  -8 2726.86 741.087   4
   7   1  -7 6708.04 862.223   7
  -7   1   7 8369.34 1142.28   8
   7   1  -7 9461.28 1298.52   4
   7   1  -6 5197.65 733.200   7
  -7   1   6 5677.68 910.747   8
   7   1  -6 6369.80 1085.10   4
  -7   1   5 8989.01 1277.15   6
  -7   1   5 7619.00 1049.63   8
   7   1  -5 9747.60 1291.50   4
   7   1  -5 6726.11 755.818   7
  -7   1   4 33904.4 2447.11   6
   7   1  -4 38058.4 2499.45   4
  -7   1   4 35554.9 2153.43   8
   7   1  -4 37194.8 1623.84   7
  -7   1   3 22565.4 2012.54   6
   7   1  -3 23787.6 1969.33   4
  -7   1   3 21749.4 1669.84   8
   7   1  -3 22948.7 1156.81   7
  -7   1   2 10879.8 1426.75   6
   7   1  -2 12708.7 1460.08   4
  -7   1   2 10705.4 1160.42   8
  -7   1   1 966.264 533.712   6
  -7   1   1 796.081 355.999   8
   7   1  -1 251.009 301.746   4
  -7   1   0 6272.67 1110.84   6
  -7   1   0 4954.12 801.754   8
   7   1   0 5479.82 959.142   4
  -7   1  -1 1056.57 506.163   6
  -7   1  -1 784.818 334.051   8
   7   1   1 766.726 553.157   4
  -7   1  -2 393.001 348.372   6
   7   1   2 253.931 404.153   4
  -7   1  -3-226.784 504.648   6
   7   1   3 830.728 427.095   9
   7   1   3 1314.09 511.389   4
  -7   1  -4 7430.39 1266.19   6
   7   1   4 7457.18 1100.91   9
   7   1   4 8264.38 1193.95   4
  -7   1  -5 13651.4 1678.86   6
   7   1   5 9943.02 1309.06   9
   7   1   5 12121.6 1428.90   4
  -7   1  -6 9546.51 1442.93   6
   7   1   6 10201.3 1340.80   9
   7   1   6 9751.32 1308.51   4
  -7   1  -7 11875.0 1631.61   6
   7   1   7 13072.4 1524.00   9
   7   1   7 10795.3 1373.78   4
  -7   1  -8 1721.24 776.907   6
   7   1   8 628.454 456.929   9
   7   1   8 1778.62 594.387   4
  -7   1  -9 6674.20 1320.81   6
   7   1   9 4926.96 998.603   9
   7   1   9 5937.26 1047.37   4
  -7   1 -10 1098.41 619.302   6
   7   1  10 1293.56 563.069   9
  -7   1 -11 3558.93 1090.55   6
   7   1  11 4072.02 970.392   9
  -7   1 -12 351.663 719.293   6
   7   1  12-203.401 570.536   9
   7   1  13-659.311 540.281   9
   7   2 -18 2015.56 835.535   7
   7   2 -17 67.2130 398.758   7
  -7   2  17-76.3710 550.176   8
   7   2 -16 1536.79 710.048   7
  -7   2  16 1505.88 817.376   8
   7   2 -15-320.063 466.934   7
  -7   2  15 1009.32 694.808   8
   7   2 -14 410.412 395.715   7
  -7   2  14 1590.60 687.852   8
   7   2 -13 2571.27 731.568   7
  -7   2  13 3161.14 926.385   8
   7   2 -12 4349.31 864.462   7
  -7   2  12 4101.47 947.764   8
   7   2 -11 2466.27 673.640   7
   7   2 -11 3215.81 881.175   4
  -7   2  11 4358.94 1013.13   8
   7   2 -10 6263.46 970.374   7
   7   2 -10 8196.75 1308.17   4
  -7   2  10 7721.81 1249.33   8
   7   2  -9 7156.10 985.972   7
   7   2  -9 6765.75 1179.69   4
  -7   2   9 7475.85 1164.01   8
   7   2  -8 12962.3 1594.93   4
  -7   2   8 13651.4 1548.59   8
   7   2  -8 13433.5 1275.96   7
   7   2  -7 6396.37 838.542   7
  -7   2   7 6928.27 1157.96   6
   7   2  -7 6480.55 1099.71   4
  -7   2   7 5714.15 1016.37   8
   7   2  -6 2053.91 458.751   7
  -7   2   6 2069.84 717.481   6
   7   2  -6 2209.40 676.095   4
  -7   2   6 2522.64 682.381   8
   7   2  -5 215.766 190.261   7
  -7   2   5 117.476 385.992   6
   7   2  -5 23.9032 335.550   4
  -7   2   5 781.334 489.523   8
  -7   2   4-251.337 488.547   6
   7   2  -4 449.357 351.440   4
  -7   2   4-363.016 401.581   8
  -7   2   3 1706.88 622.339   6
   7   2  -3 2657.66 697.605   4
  -7   2   3 2339.92 643.404   8
  -7   2   2 4359.58 951.520   6
   7   2  -2 3934.35 853.938   4
  -7   2   2 4202.22 798.669   8
  -7   2   1 7870.45 1240.58   6
   7   2  -1 7134.07 1135.70   4
  -7   2   1 7126.76 1055.84   8
  -7   2   0 7380.59 1205.07   6
   7   2   0 6708.08 1106.66   4
  -7   2   0 6291.49 956.646   8
  -7   2  -1 12295.2 1567.06   6
   7   2   1 12213.4 1450.40   4
  -7   2  -2 8157.82 1292.08   6
   7   2   2 14174.9 1560.42   4
  -7   2  -3 22044.7 2111.23   6
   7   2   3 19682.9 1833.55   9
   7   2   3 18414.6 1755.89   4
  -7   2  -4 4279.13 1009.20   6
   7   2   4 6786.77 1124.33   9
   7   2   4 6866.76 1077.38   4
  -7   2  -5 1009.20 554.310   6
   7   2   5 988.403 510.251   9
   7   2   5 691.081 435.759   4
  -7   2  -6 2534.54 812.034   6
   7   2   6 3151.30 849.778   9
   7   2   6 2308.51 682.320   4
  -7   2  -7 478.522 447.038   6
   7   2   7 745.034 561.785   9
   7   2   7 283.190 284.862   4
  -7   2  -8 1991.52 783.953   6
   7   2   8 1673.39 637.892   9
   7   2   8 2350.97 672.307   4
  -7   2  -9 4741.08 1141.78   6
   7   2   9 2913.64 817.081   9
  -7   2 -10 3023.13 972.209   6
   7   2  10 4287.71 1084.98   9
  -7   2 -11 4146.90 1127.38   6
   7   2  11 2565.15 904.925   9
   7   2  12 335.991 405.800   9
   7   3 -17 1281.20 730.511   7
  -7   3  16 4591.51 1182.32   8
   7   3 -16 4194.98 1086.11   7
  -7   3  15 1492.54 672.405   8
   7   3 -15 3174.23 933.704   7
  -7   3  14 4594.37 1120.90   8
   7   3 -14 4527.22 1018.83   7
  -7   3  13 912.662 713.845   8
   7   3 -13 310.154 417.863   7
  -7   3  12 1950.61 702.062   8
   7   3 -12 1174.98 532.797   7
   7   3 -11 1362.50 478.568   3
  -7   3  11 1932.29 756.410   8
   7   3 -11 1229.21 484.350   7
   7   3 -10 1034.74 454.816   3
   7   3 -10 831.534 409.474   7
   7   3  -9 128.028 320.096   3
  -7   3   9 245.556 466.617   8
   7   3  -9-129.887 244.827   7
   7   3  -8 1256.47 616.530   3
  -7   3   8-690.710 541.479   6
   7   3  -8 785.341 516.022   4
  -7   3   8-245.319 473.893   8
   7   3  -8 1211.15 419.861   7
   7   3  -7 3450.18 815.840   3
  -7   3   7 1886.71 642.119   6
   7   3  -7 2541.45 769.233   4
  -7   3   7 2727.21 771.501   8
   7   3  -7 3171.44 648.905   7
   7   3  -6 5896.80 1038.42   3
  -7   3   6 3895.39 888.781   6
   7   3  -6 5143.78 1097.61   4
  -7   3   6 6042.09 1104.85   8
   7   3  -5 2533.39 699.310   3
  -7   3   5 1905.44 689.908   6
   7   3  -5 2487.94 775.715   4
  -7   3   5 3128.46 822.268   8
   7   3  -4 10300.7 1377.06   3
  -7   3   4 9906.64 1434.99   6
   7   3  -4 11708.7 1553.55   4
  -7   3   4 9750.11 1359.30   8
   7   3  -3 10603.0 1415.33   3
  -7   3   3 8946.72 1348.71   6
   7   3  -3 11429.2 1502.30   4
  -7   3   3 9702.43 1334.66   8
  -7   3   2 1599.60 558.770   6
   7   3  -2 4139.54 919.641   4
  -7   3   2 3575.25 851.133   8
  -7   3   1 18601.7 1906.97   6
   7   3  -1 17357.7 1836.03   4
  -7   3   1 18478.7 1789.97   8
  -7   3   0 1096.15 577.706   6
   7   3   0 1052.10 476.970   4
  -7   3  -1 242.039 280.518   6
   7   3   1 1629.66 634.307   4
  -7   3  -2 856.849 557.121   6
   7   3   2 1788.82 618.395   9
   7   3   2 841.453 441.154   4
  -7   3  -3 2450.97 822.222   6
   7   3   3 1204.49 587.978   9
   7   3   3 1206.06 555.615   4
  -7   3  -4 4601.55 1040.34   6
   7   3   4 4547.62 992.618   9
   7   3   4 5870.99 1035.76   4
  -7   3  -5 1622.30 675.390   6
   7   3   5 2256.18 786.765   9
   7   3   5 2584.40 693.513   4
  -7   3  -6 6377.53 1280.02   6
   7   3   6 5509.20 1139.43   9
   7   3   6 4340.79 908.235   4
  -7   3  -7 4662.82 1107.66   6
   7   3   7 7228.92 1295.55   9
  -7   3  -8 7981.40 1461.13   6
   7   3   8 6091.43 1248.53   9
  -7   3  -9 1631.47 765.461   6
   7   3   9 3108.03 926.049   9
  -7   3 -10 638.965 657.474   6
   7   3  10 1238.31 572.084   9
   7   4 -15 1367.01 659.071   7
  -7   4  14 198.660 550.271   8
   7   4 -14-63.3980 433.502   7
  -7   4  13 1216.65 676.925   8
   7   4 -13 1168.29 706.616   7
  -7   4  12 715.248 539.828   8
   7   4 -12 553.071 430.429   7
  -7   4  11 3223.67 878.414   6
   7   4 -11 2416.68 714.937   3
  -7   4  11 3372.21 989.599   8
   7   4 -11 2140.21 654.675   7
  -7   4  10 2198.14 737.042   6
   7   4 -10 1713.11 644.943   3
  -7   4  10 3629.16 960.651   8
   7   4 -10 1521.29 560.646   7
  -7   4   9 2731.60 816.422   6
   7   4  -9 3369.63 891.658   3
  -7   4   9 2650.59 846.501   8
   7   4  -8 6697.26 1211.62   3
  -7   4   8 4099.02 950.196   6
  -7   4   8 6559.24 1266.07   8
   7   4  -7 5396.34 1112.93   3
  -7   4   7 3925.86 941.973   6
  -7   4   7 6475.39 1243.51   8
   7   4  -6 1603.95 637.177   3
  -7   4   6 1367.74 621.317   6
  -7   4   6 3374.30 958.510   8
   7   4  -5 667.039 533.103   3
  -7   4   5 1782.72 679.214   6
  -7   4   5 663.960 405.693   8
   7   4  -4 2664.21 838.055   3
  -7   4   4 1487.50 605.501   6
  -7   4   4 2378.88 795.347   8
   7   4  -3 1394.46 603.303   3
  -7   4   3 1438.06 649.219   6
  -7   4   3 689.655 454.235   8
   7   4  -2 2118.51 726.155   3
  -7   4   2 3840.60 916.134   6
   7   4  -2 3197.93 939.916   4
  -7   4   2 3524.33 904.522   8
   7   4  -1 2866.83 892.179   3
  -7   4   1 3309.20 892.227   6
   7   4  -1 2121.09 741.615   4
   7   4   0 6116.47 1217.13   3
  -7   4   0 5732.91 1153.78   6
   7   4   0 4977.21 1094.89   4
  -7   4  -1 3339.08 884.097   6
   7   4   1 3457.83 899.915   4
  -7   4  -2 4911.96 1058.53   6
   7   4   2 3629.63 882.343   4
  -7   4  -3 4295.06 1059.99   6
   7   4   3 4064.08 970.075   9
   7   4   3 4598.42 1002.05   4
  -7   4  -4 3325.34 954.351   6
   7   4   4 2827.59 882.497   9
  -7   4  -5 1292.81 649.671   6
   7   4   5 989.125 510.484   9
  -7   4  -6 1093.99 627.462   6
   7   4   6 986.468 575.897   9
  -7   4  -7 1142.06 678.340   6
   7   4   7-202.946 465.871   9
  -7   4  -8 506.846 497.307   6
   7   5 -11-467.644 567.598   3
   7   5 -10 371.574 499.495   3
  -7   5  10-565.428 675.616   8
   7   5  -9 361.835 495.740   3
  -7   5   9-220.226 448.254   8
   7   5  -8-6.26502 458.060   3
  -7   5   8 758.513 500.798   6
  -7   5   8 380.155 473.268   8
   7   5  -7 3823.77 994.646   3
  -7   5   7 3574.91 959.708   6
  -7   5   7 3135.00 974.483   8
   7   5  -6 3564.55 953.952   3
  -7   5   6 4111.36 987.982   6
  -7   5   6 3486.45 999.163   8
   7   5  -5 1948.03 807.283   3
  -7   5   5 977.919 525.378   6
  -7   5   5 2146.39 734.787   8
   7   5  -4 4181.24 1118.34   3
  -7   5   4 3014.63 818.495   6
  -7   5   4 3550.70 982.559   3
  -7   5   4 5763.36 1230.86   8
   7   5  -3 5539.65 1188.80   3
  -7   5   3 6631.90 1188.63   6
   7   5  -2 2985.59 991.336   3
  -7   5   2 2128.36 737.478   6
   7   5  -1 355.028 602.237   3
  -7   5   1 304.813 296.961   6
   7   5   0 1372.15 706.023   3
  -7   5   0 367.004 413.836   6
   7   5   1-447.810 588.043   3
  -7   5  -1 644.603 518.551   6
   7   5   2 1530.87 793.204   3
  -7   5  -2 756.300 560.663   6
  -7   5  -3 1377.64 635.070   6
   7   5   3 1756.50 767.391   9
  -7   5  -4 710.914 547.521   6
   7   5   4 365.287 454.284   9
  -7   5  -5 2993.75 927.422   6
  -7   5  -6 1594.51 780.483   6
  -7   6   3 388.924 399.226   3
  -7   6   2 1111.61 714.958   3
  -7   6   1 426.748 518.492   3
  -8  -5   9 901.873 646.999   2
  -8  -5   8 3324.92 930.137   2
  -8  -5   7 1415.32 651.575   2
  -8  -5   6 1038.26 534.473   2
   8  -5  -6 2742.74 819.731   4
  -8  -5   5 1678.24 646.613   2
   8  -5  -5-80.4693 550.005   4
   8  -5  -4 552.051 486.166   4
   8  -5  -3 212.943 473.058   4
   8  -5  -2 504.472 476.099   4
   8  -5  -1 350.464 491.833   4
   8  -5   0 626.852 491.991   4
  -8  -5  -3 1009.82 678.898   5
  -8  -5  -4 1063.27 709.142   5
   8  -4 -12 3250.25 945.325   7
  -8  -4  12 2168.58 766.246   2
   8  -4 -11 2500.48 801.442   7
  -8  -4  11 2050.29 803.368   2
   8  -4 -10 417.775 568.046   7
  -8  -4  10-467.344 529.715   2
   8  -4  -9 3033.56 825.200   7
  -8  -4   9 2225.04 748.192   2
  -8  -4   8 967.973 557.171   2
   8  -4  -8 94.7946 347.973   4
  -8  -4   7 137.217 339.418   2
   8  -4  -7 78.1977 435.113   4
  -8  -4   6 878.964 468.937   2
   8  -4  -6 770.429 466.796   4
  -8  -4   5 1001.65 447.702   2
   8  -4  -5 2047.20 699.662   4
  -8  -4   4 4041.01 917.831   2
   8  -4  -4 3129.22 883.439   4
  -8  -4   3 1659.91 592.069   2
   8  -4  -3 2435.86 818.722   4
  -8  -4   2 6430.22 1055.00   2
   8  -4  -2 7435.22 1305.92   4
   8  -4  -1 5040.61 1166.19   4
  -8  -4   0 1242.23 691.550   5
   8  -4   0 1435.03 624.895   4
  -8  -4  -1-1163.28 634.841   5
   8  -4   1 742.125 459.686   4
  -8  -4  -2 568.577 457.580   5
   8  -4   2 1000.72 565.191   4
  -8  -4  -3 1379.14 748.999   5
   8  -4   3 53.9449 466.072   4
  -8  -4  -4 203.839 452.200   5
   8  -4   4 1311.17 745.841   4
  -8  -4  -5-127.891 525.639   5
  -8  -4  -6 2186.87 933.054   5
  -8  -3  16-974.729 607.641   8
  -8  -3  15 531.464 400.573   8
   8  -3 -14 663.516 545.580   7
  -8  -3  14 9.41683 311.240   2
  -8  -3  14 295.219 414.264   8
   8  -3 -13 1980.07 751.868   7
  -8  -3  13 1697.81 714.154   2
  -8  -3  13 1571.02 705.404   8
   8  -3 -12-106.724 375.792   7
  -8  -3  12 434.525 370.177   8
   8  -3 -11 1395.61 660.571   7
  -8  -3  11 601.747 365.128   8
  -8  -3  11 1937.90 899.261   2
   8  -3 -11 225.620 268.564   4
   8  -3 -10 374.248 397.684   7
  -8  -3  10 586.086 434.265   2
   8  -3 -10 1202.84 567.923   4
   8  -3  -9 5192.41 1007.49   7
  -8  -3   9 5236.58 1079.84   2
   8  -3  -9 5071.90 1007.52   4
   8  -3  -8 3360.89 799.953   7
  -8  -3   8 2023.72 697.641   2
   8  -3  -8 2127.53 687.597   4
   8  -3  -7 4530.80 854.694   7
  -8  -3   7 5886.65 1092.77   6
  -8  -3   7 3719.76 899.281   2
   8  -3  -7 4289.44 945.935   4
  -8  -3   6 11357.9 1478.68   6
  -8  -3   6 12282.9 1490.53   2
   8  -3  -6 11952.4 1525.87   4
  -8  -3   5 6623.23 1119.33   6
  -8  -3   5 5302.88 968.070   2
   8  -3  -5 5738.98 1083.46   4
  -8  -3   4 554.453 420.285   6
   8  -3  -4-91.6852 404.154   4
  -8  -3   4 708.688 464.425   2
  -8  -3   3 6194.54 1077.53   6
  -8  -3   3 3120.51 790.929   5
   8  -3  -3 5490.54 1063.71   4
  -8  -3   2 2980.84 760.432   6
  -8  -3   2 3142.38 876.308   5
   8  -3  -2 2288.53 748.871   4
  -8  -3   1 483.724 411.617   6
  -8  -3   1 458.897 477.115   5
   8  -3  -1 1332.40 724.268   4
  -8  -3   0 2611.62 710.600   6
  -8  -3   0 2801.01 848.361   5
   8  -3   0 3835.60 973.475   4
  -8  -3  -1 407.375 557.786   5
   8  -3   1 697.232 608.263   4
  -8  -3  -2 4978.42 1202.56   5
   8  -3   2 6120.09 1202.67   4
  -8  -3  -3 4447.88 1133.23   5
   8  -3   3 5028.53 1101.35   4
  -8  -3  -4 8529.33 1603.71   5
   8  -3   4 10529.3 1592.76   4
  -8  -3  -5 3784.96 1131.87   5
   8  -3   5 3035.09 923.212   4
  -8  -3  -6 1586.36 814.765   5
   8  -3   6 690.382 599.297   4
  -8  -3  -7 464.034 729.530   5
   8  -3   7 1660.09 827.304   4
   8  -2 -16 1547.52 747.487   7
  -8  -2  16 412.713 470.366   8
  -8  -2  16 1601.32 840.690   2
   8  -2 -15 894.663 574.678   7
  -8  -2  15 1640.14 789.694   8
  -8  -2  15 519.834 520.546   2
   8  -2 -14 2615.31 770.436   7
  -8  -2  14 2019.97 736.742   8
  -8  -2  14 1870.30 755.693   2
   8  -2 -13 2995.36 828.707   7
  -8  -2  13 1190.76 592.609   8
   8  -2 -13 2207.09 664.752   4
  -8  -2  13 2066.00 733.732   2
   8  -2 -12 4341.94 951.136   7
  -8  -2  12 3500.50 841.696   8
   8  -2 -12 4028.93 930.040   4
  -8  -2  12 3567.87 907.215   2
   8  -2 -11 6200.16 1082.51   7
  -8  -2  11 5174.50 998.515   8
   8  -2 -11 5764.58 1046.74   4
  -8  -2  11 6993.11 1210.45   2
   8  -2 -10 2849.66 763.486   7
  -8  -2  10 1558.32 529.787   8
   8  -2 -10 2059.11 637.073   4
  -8  -2  10 2918.61 832.766   2
   8  -2  -9 3982.14 821.148   7
  -8  -2   9 3112.05 725.648   8
   8  -2  -9 3884.26 920.204   4
   8  -2  -8 1596.18 623.334   7
  -8  -2   8 1070.38 468.111   8
   8  -2  -8 811.724 427.986   4
   8  -2  -7 37.5512 252.796   7
  -8  -2   7 21.0326 220.497   8
   8  -2  -7 466.829 497.451   4
   8  -2  -6 1012.27 433.817   7
  -8  -2   6 404.113 362.987   6
   8  -2  -6 522.437 484.196   4
   8  -2  -5 1534.77 512.699   7
  -8  -2   5 1023.61 589.448   6
   8  -2  -5 1061.88 598.458   4
  -8  -2   4 7347.65 1208.69   6
   8  -2  -4 5721.41 1043.74   4
  -8  -2   3 3564.10 871.920   6
   8  -2  -3 2542.65 792.026   4
  -8  -2   2 13380.3 1576.20   6
   8  -2  -2 17665.9 1833.08   4
  -8  -2   1 16144.3 1736.94   6
   8  -2  -1 20470.2 1996.44   4
  -8  -2   0 6552.15 1118.26   6
   8  -2   0 7599.40 1232.56   4
  -8  -2  -1 2129.11 693.737   6
   8  -2   1 3373.57 894.349   4
  -8  -2  -2 1988.38 664.264   6
   8  -2   2 1254.60 585.255   4
  -8  -2  -3 1337.58 548.628   6
   8  -2   3 861.050 455.237   4
  -8  -2  -4 293.614 405.822   6
   8  -2   4 745.150 502.619   4
  -8  -2  -5 173.023 359.202   6
   8  -2   5 313.126 469.328   4
  -8  -2  -6 2364.06 763.085   6
   8  -2   6 3750.92 1036.64   4
  -8  -2  -7 1239.73 596.589   6
  -8  -2  -7 1623.83 782.935   5
  -8  -2  -8 6003.35 1197.95   6
  -8  -2  -8 4555.23 1295.11   5
   8  -2   8 4354.00 1098.40   4
  -8  -2  -9 3110.78 867.703   6
   8  -2   9 1138.06 739.050   4
  -8  -2 -10 678.418 600.931   6
   8  -2  10 1028.91 658.421   4
   8  -1 -17 1876.17 756.172   7
  -8  -1  17 3347.69 1050.68   8
  -8  -1  17 2108.62 762.601   2
   8  -1 -16 4345.36 1061.26   7
  -8  -1  16 5738.11 1232.87   8
  -8  -1  16 5756.73 1237.68   2
   8  -1 -15 2772.99 848.736   7
  -8  -1  15 2181.19 802.681   8
  -8  -1  15 1579.82 605.002   2
   8  -1 -14 2439.61 775.160   7
  -8  -1  14 756.726 522.888   8
   8  -1 -14 1687.09 602.799   4
  -8  -1  14 1320.90 678.339   2
   8  -1 -13 806.299 481.587   7
  -8  -1  13 2793.52 814.684   8
   8  -1 -13 2403.15 750.048   4
  -8  -1  13 2294.50 748.859   2
   8  -1 -12 3709.74 860.157   7
  -8  -1  12 5304.49 1049.93   8
   8  -1 -12 3433.77 852.933   4
   8  -1 -11 357.657 423.989   7
  -8  -1  11-378.307 459.692   8
   8  -1 -11-33.4887 302.425   4
   8  -1 -10 2101.22 593.491   7
  -8  -1  10 3266.94 793.081   8
   8  -1 -10 1649.33 618.071   4
   8  -1  -9 1791.17 515.017   7
  -8  -1   9 2065.38 601.253   8
   8  -1  -9 3260.30 837.622   4
  -8  -1   8 11515.8 1303.80   8
   8  -1  -8 11441.5 1444.22   4
   8  -1  -8 11394.6 1266.12   7
   8  -1  -7 6666.44 943.156   7
  -8  -1   7 5271.62 867.308   8
   8  -1  -7 6837.24 1135.04   4
  -8  -1   6 9426.60 1382.76   6
  -8  -1   6 10348.2 1148.66   8
   8  -1  -6 11273.2 1473.06   4
   8  -1  -6 9623.03 1077.37   7
   8  -1  -5 5675.52 795.607   7
  -8  -1   5 6703.73 1166.79   6
  -8  -1   5 7487.33 962.580   8
   8  -1  -5 6571.13 1119.71   4
   8  -1  -4 6362.56 816.739   7
  -8  -1   4 5921.14 1126.05   6
  -8  -1   4 4312.00 706.505   8
   8  -1  -4 5066.57 1006.99   4
   8  -1  -3 2279.71 495.080   7
  -8  -1   3 1613.43 617.625   6
  -8  -1   3 1526.72 421.137   8
   8  -1  -3 1717.24 562.727   4
   8  -1  -2 1391.93 368.086   7
  -8  -1   2 1046.83 556.356   6
   8  -1  -2 1150.89 511.754   4
  -8  -1   1 488.662 445.943   6
   8  -1  -1 817.961 468.554   4
  -8  -1   0 712.035 531.681   6
   8  -1   0 798.993 467.486   4
  -8  -1  -1 2617.40 818.361   6
   8  -1   1 2329.96 741.397   4
  -8  -1  -2 11356.2 1501.66   6
   8  -1   2 11777.9 1530.47   4
  -8  -1  -3 12009.1 1547.73   6
   8  -1   3 12095.5 1561.01   4
  -8  -1  -4 7758.34 1256.45   6
   8  -1   4 7358.59 1260.18   4
  -8  -1  -5 2301.23 776.322   6
   8  -1   5 3690.54 951.840   4
  -8  -1  -6 5891.80 1189.30   6
   8  -1   6 4197.73 1026.20   4
  -8  -1  -7 2757.80 802.747   6
   8  -1   7 2101.29 753.885   4
  -8  -1  -8 1250.28 644.707   6
   8  -1   8 604.919 391.895   4
  -8  -1  -9 862.576 505.038   6
   8  -1   9 557.508 530.158   4
  -8  -1 -10 700.484 510.533   6
   8  -1  10 163.515 549.146   4
  -8  -1 -11 858.365 628.073   6
   8  -1  11-327.931 425.518   4
  -8   0  18 732.896 523.528   2
   8   0 -17 1256.50 713.748   7
  -8   0  17 391.589 433.428   8
  -8   0  17 846.055 604.327   2
   8   0 -16 967.400 594.452   7
  -8   0  16 651.720 568.661   8
  -8   0  16 313.803 343.000   2
   8   0 -15-122.350 403.505   7
   8   0 -15-106.696 360.414   4
  -8   0  15 696.658 602.030   8
  -8   0  15 76.3855 390.932   2
   8   0 -14 1549.17 597.330   7
   8   0 -14 1779.77 689.832   4
  -8   0  14 2434.79 834.012   8
   8   0 -13 11040.4 1447.27   7
   8   0 -13 8858.94 1397.73   4
  -8   0  13 6587.48 1203.63   8
   8   0 -12 3458.38 830.650   7
  -8   0  12 5153.05 1046.74   8
   8   0 -12 4960.92 1033.41   4
   8   0 -11 4342.31 894.964   7
  -8   0  11 5397.15 1107.00   8
   8   0 -11 6896.80 1218.80   4
   8   0 -10 7931.58 1129.70   7
  -8   0  10 5867.05 1068.67   8
   8   0 -10 8072.35 1284.12   4
   8   0  -9 6694.88 995.450   7
  -8   0   9 6012.58 1057.70   8
   8   0  -9 7105.19 1207.31   4
   8   0  -8-408.324 294.163   7
  -8   0   8-220.255 376.684   8
   8   0  -8-264.526 421.459   4
   8   0  -7-23.7526 212.966   7
  -8   0   7-167.327 403.949   8
   8   0  -7-201.648 389.346   4
  -8   0   6 9342.49 1415.80   6
  -8   0   6 10535.4 1232.10   8
   8   0  -6 10204.1 1412.09   4
   8   0  -6 10215.1 1061.46   7
   8   0  -5 24.2669 226.915   7
  -8   0   5-136.439 435.683   6
  -8   0   5 246.517 308.193   8
   8   0  -5 177.732 355.383   4
   8   0  -4 6088.51 757.454   7
  -8   0   4 6803.44 1214.41   6
  -8   0   4 6943.10 945.589   8
   8   0  -4 6614.46 1137.93   4
  -8   0   3 9232.13 1386.71   6
  -8   0   3 10266.0 1136.05   8
   8   0  -3 7208.60 1170.06   4
  -8   0   2 13389.1 1673.40   6
   8   0  -2 17389.8 1792.70   4
  -8   0   2 15426.1 1352.74   8
  -8   0   1 7485.76 1254.43   6
  -8   0   1 8213.74 968.312   8
   8   0  -1 7436.01 1179.32   4
  -8   0   0 1010.38 515.147   6
  -8   0   0 323.394 250.798   8
   8   0   0 1119.48 575.203   4
  -8   0  -1 9699.34 1413.83   6
   8   0   1 9319.17 1367.20   4
  -8   0  -2 2202.44 732.325   6
   8   0   2 4305.86 956.159   4
  -8   0  -3 230.506 399.919   6
   8   0   3 586.981 425.522   4
  -8   0  -4-259.223 445.191   6
   8   0   4 320.463 394.253   4
  -8   0  -5-256.771 413.070   6
   8   0   5-191.496 419.514   4
  -8   0  -6 4041.23 991.121   6
   8   0   6 4235.82 983.704   4
  -8   0  -7 1008.28 595.864   6
   8   0   7 1659.89 630.816   9
   8   0   7 1279.46 568.648   4
  -8   0  -8 5518.18 1192.73   6
   8   0   8 3971.04 924.377   9
   8   0   8 4174.39 1016.80   4
  -8   0  -9 9294.13 1573.73   6
   8   0   9 12128.1 1533.98   9
   8   0   9 10533.3 1555.33   4
  -8   0 -10 3164.09 1027.50   6
   8   0  10 2458.34 779.763   9
   8   0  10 1384.32 713.916   4
  -8   1  18 1018.02 672.916   2
   8   1 -17 3508.73 975.395   7
  -8   1  17 1791.63 704.370   2
   8   1 -16 6566.53 1251.24   7
  -8   1  16 5318.98 1227.17   8
   8   1 -15 3809.69 935.927   7
  -8   1  15 2100.06 794.430   8
   8   1 -14 952.268 506.040   7
   8   1 -14 1135.78 560.028   4
  -8   1  14 916.854 505.087   8
   8   1 -13 2469.00 698.525   7
   8   1 -13 1784.22 772.845   4
  -8   1  13 2996.93 930.499   8
   8   1 -12 3910.48 873.030   7
   8   1 -12 4386.60 1007.97   4
  -8   1  12 4369.54 1025.80   8
   8   1 -11 92.7863 367.507   7
   8   1 -11 35.4804 302.085   4
  -8   1  11 323.553 507.972   8
   8   1 -10 1384.93 471.557   7
   8   1 -10 1653.19 688.311   4
  -8   1  10 2232.69 727.254   8
   8   1  -9 3018.39 676.479   7
   8   1  -9 4791.50 1040.25   4
  -8   1   9 2762.10 792.738   8
  -8   1   8 10651.2 1375.57   8
   8   1  -8 9328.70 1411.46   4
   8   1  -8 11348.4 1187.40   7
   8   1  -7 6307.44 834.714   7
  -8   1   7 7040.63 1249.78   6
  -8   1   7 5883.42 1034.99   8
   8   1  -7 6148.63 1146.15   4
  -8   1   6 9287.28 1425.24   6
  -8   1   6 10692.4 1326.59   8
   8   1  -6 9629.68 1398.02   4
  -8   1   5 6275.78 1162.60   6
  -8   1   5 5118.11 899.307   8
   8   1  -5 7485.01 1243.42   4
  -8   1   4 6121.27 1125.51   6
  -8   1   4 4830.42 897.752   8
   8   1  -4 4841.13 989.093   4
  -8   1   3 1755.61 698.607   6
  -8   1   3 1978.92 586.396   8
   8   1  -3 1795.14 612.666   4
  -8   1   2 1203.59 464.069   8
   8   1  -2 792.523 460.085   4
  -8   1   1 562.502 444.181   6
  -8   1   1 638.947 358.898   8
   8   1  -1 124.128 368.892   4
  -8   1   0 638.208 471.304   6
   8   1   0 712.229 469.707   4
  -8   1   0 814.099 381.783   8
  -8   1  -1 1407.23 609.439   6
   8   1   1 1172.73 519.143   4
  -8   1  -2 9233.15 1451.70   6
   8   1   2 8209.92 1281.28   4
  -8   1  -3 9655.31 1491.32   6
   8   1   3 10220.4 1429.65   4
  -8   1  -4 8518.97 1388.90   6
   8   1   4 6175.15 1130.30   4
  -8   1  -5 2622.68 847.759   6
   8   1   5 2964.15 809.081   9
   8   1   5 4632.47 1017.20   4
  -8   1  -6 5021.66 1145.93   6
   8   1   6 3715.13 905.867   9
   8   1   6 6248.29 1137.69   4
  -8   1  -7 2661.33 867.032   6
   8   1   7 3874.13 962.212   9
   8   1   7 3467.48 908.674   4
  -8   1  -8 2015.89 884.689   6
   8   1   8 1205.75 612.372   9
   8   1   8 552.581 537.324   4
  -8   1  -9 1849.99 824.860   6
   8   1   9 1283.58 629.313   9
   8   1   9 432.492 440.186   4
   8   1  10 780.327 554.791   9
   8   1  11 243.514 470.877   9
   8   2 -17 116.494 440.501   7
   8   2 -16 1550.14 715.881   7
   8   2 -15 1372.97 560.314   7
  -8   2  15 1727.05 704.026   8
   8   2 -14 2987.02 832.617   7
  -8   2  14 3300.94 972.907   8
   8   2 -13 1515.81 579.939   7
  -8   2  13 2849.85 890.540   8
   8   2 -12 4279.44 890.119   7
   8   2 -12 3962.96 1035.40   4
  -8   2  12 6695.33 1263.99   8
   8   2 -11 3722.65 788.208   7
   8   2 -11 3549.95 949.172   4
  -8   2  11 4104.34 1006.80   8
   8   2 -10 1700.07 548.029   7
   8   2 -10 1913.59 788.563   4
  -8   2  10 2246.70 786.945   8
   8   2  -9 2514.10 621.213   7
   8   2  -9 2782.02 822.880   4
  -8   2   9 1072.44 540.964   8
  -8   2   8 1303.51 619.493   6
   8   2  -8 1258.57 664.206   4
  -8   2   8 1765.49 710.800   8
  -8   2   7-19.8417 376.776   6
   8   2  -7 815.765 654.671   4
  -8   2   7-12.8192 362.931   8
  -8   2   6 1110.37 583.279   6
   8   2  -6 351.146 498.823   4
  -8   2   6 551.632 386.187   8
  -8   2   5 2148.46 694.253   6
   8   2  -5 1056.62 587.867   4
  -8   2   5 1185.56 567.987   8
  -8   2   4 6695.69 1234.37   6
   8   2  -4 7386.38 1265.57   4
  -8   2   4 6656.33 1101.03   8
  -8   2   3 1340.61 645.236   6
   8   2  -3 755.541 520.641   4
  -8   2   3 1448.58 617.288   8
  -8   2   2 17742.7 1956.08   6
   8   2  -2 17684.1 1903.45   4
  -8   2   2 16297.9 1644.34   8
  -8   2   1 18564.2 1996.85   6
   8   2  -1 15530.6 1788.40   4
  -8   2   1 16599.7 1642.18   8
  -8   2   0 7540.19 1306.54   6
   8   2   0 7266.79 1249.03   4
  -8   2   0 8904.49 1225.12   8
  -8   2  -1 2449.78 797.404   6
   8   2   1 2003.30 708.183   4
  -8   2  -2 1655.70 769.389   6
   8   2   2 1742.52 642.088   4
  -8   2  -3 1152.17 602.318   6
   8   2   3 2005.43 693.522   4
  -8   2  -4 96.2165 436.142   6
   8   2   4 1705.97 742.483   9
   8   2   4 1246.08 524.187   4
  -8   2  -5-237.914 539.383   6
   8   2   5 1178.64 607.109   9
   8   2   5 411.549 419.750   4
  -8   2  -6 4403.56 1156.23   6
   8   2   6 4112.94 992.063   9
   8   2   6 4653.93 997.967   4
  -8   2  -7 4182.35 1079.25   6
   8   2   7 4987.19 1090.25   9
   8   2   7 2916.64 883.658   4
  -8   2  -8 3805.39 1128.76   6
   8   2   8 3068.22 948.714   9
   8   2   9 2362.31 898.387   9
   8   3 -16-285.584 509.963   7
   8   3 -15 161.975 431.710   7
  -8   3  14 625.223 512.807   8
   8   3 -14 618.940 460.907   7
  -8   3  13 1767.29 855.365   8
   8   3 -13 728.450 498.946   7
  -8   3  12 368.072 511.961   8
   8   3 -12-48.4879 273.189   7
  -8   3  11 907.934 632.056   8
   8   3 -10 1057.78 476.949   3
  -8   3  10 619.791 632.116   6
  -8   3  10 121.032 428.251   8
   8   3  -9 3778.12 877.534   3
  -8   3   9 5633.79 1177.05   6
   8   3  -9 4490.58 1075.89   4
  -8   3   9 3760.94 964.614   8
  -8   3   8 1588.40 669.017   6
   8   3  -8 2729.98 882.572   4
  -8   3   8 1061.22 476.663   8
  -8   3   7 5140.75 1149.14   6
   8   3  -7 2902.08 890.676   4
  -8   3   7 5261.02 1133.70   8
  -8   3   6 10927.8 1601.08   6
   8   3  -6 7943.84 1383.99   4
  -8   3   6 8720.30 1375.58   8
  -8   3   5 2839.02 852.010   6
   8   3  -5 4071.62 998.849   4
  -8   3   5 5361.64 1103.69   8
  -8   3   4 1721.31 640.380   6
   8   3  -4 1587.19 724.471   4
  -8   3   4 1296.87 621.858   8
  -8   3   3 6176.61 1193.01   6
   8   3  -3 4798.12 1069.22   4
  -8   3   3 5035.96 1013.91   8
  -8   3   2 2622.40 798.746   6
   8   3  -2 1892.25 705.179   4
  -8   3   2 2038.57 696.907   8
  -8   3   1 1029.24 569.870   6
   8   3  -1 466.488 417.588   4
  -8   3   1 20.0984 305.555   8
  -8   3   0 4345.03 1020.55   6
   8   3   0 3461.61 883.978   4
  -8   3  -1 397.784 495.475   6
   8   3   1 851.024 598.724   4
  -8   3  -2 6918.17 1301.64   6
   8   3   2 7392.79 1269.64   4
  -8   3  -3 4738.83 1116.84   6
   8   3   3 4586.18 1041.03   4
  -8   3  -4 7813.01 1497.26   6
   8   3   4 7202.32 1294.47   9
   8   3   4 6151.64 1173.08   4
  -8   3  -5 3523.14 1110.56   6
   8   3   5 3897.66 1013.18   9
   8   3   5 2312.95 737.510   4
  -8   3  -6 1691.46 791.369   6
   8   3   6 634.054 651.953   9
  -8   3  -7 1487.68 639.181   6
   8   3   7 1923.75 780.114   9
  -8   4  13 1234.67 602.909   6
  -8   4  12 2176.35 798.429   6
  -8   4  11 2262.79 841.554   6
  -8   4  11 3146.74 1011.51   8
   8   4 -10 378.023 369.078   3
  -8   4  10 853.564 544.273   6
  -8   4  10 837.021 637.513   8
   8   4  -9 2869.07 833.677   3
  -8   4   9 4137.55 1066.34   6
  -8   4   9 4606.00 1165.47   8
   8   4  -8 1081.69 554.099   3
  -8   4   8 713.877 557.557   6
  -8   4   8 1333.16 761.569   8
   8   4  -7 463.276 472.513   3
  -8   4   7-348.734 558.729   6
  -8   4   7-157.922 424.415   8
   8   4  -6-22.7633 425.580   3
  -8   4   6 615.039 515.612   6
  -8   4   6-386.446 497.647   8
   8   4  -5 2279.50 812.341   3
  -8   4   5 783.404 577.155   6
  -8   4   5 576.424 518.073   8
  -8   4   4 2284.04 827.596   6
   8   4  -4 3272.66 961.722   4
  -8   4   4 1967.18 717.852   8
   8   4  -3 1458.85 719.953   3
  -8   4   3 3009.53 919.085   6
   8   4  -3 2823.16 872.391   4
  -8   4   3 2200.18 841.289   8
  -8   4   2 6491.75 1280.89   6
   8   4  -2 4664.83 1122.93   4
  -8   4   2 6015.86 1180.79   8
  -8   4   1 5110.03 1139.86   6
   8   4  -1 6475.29 1310.58   4
  -8   4   0 3054.65 922.267   6
   8   4   0 2353.38 835.261   4
  -8   4  -1 1834.95 780.069   6
   8   4   1 719.554 429.127   4
  -8   4  -2 160.323 521.365   6
   8   4   2 1397.33 631.861   4
  -8   4  -3 386.690 468.512   6
   8   4   3-72.0094 462.676   4
  -8   4  -4 834.480 615.520   6
   8   4   4 1431.48 680.013   9
  -8   4  -5 83.0423 393.405   6
   8   5 -10 827.973 574.246   3
   8   5  -9 708.468 553.072   3
   8   5  -8 845.506 544.405   3
  -8   5   8 2466.64 851.054   6
   8   5  -7 957.465 622.697   3
  -8   5   7 1206.90 658.580   6
   8   5  -6 1173.64 623.626   3
  -8   5   6 446.859 421.575   6
   8   5  -5 1968.68 787.777   3
  -8   5   5 1714.30 715.817   6
   8   5  -4 571.980 484.858   3
  -8   5   4 710.390 567.904   6
   8   5  -3-198.631 600.955   3
  -8   5   3-187.400 485.968   6
   8   5  -2-122.625 623.570   3
  -8   5   2-600.700 596.509   6
  -8   5   1-959.642 605.477   6
  -8   5   0 295.019 469.632   6
  -8   5  -1 104.512 447.340   6
  -8   5  -2 489.138 584.628   6
  -8   5  -3 1355.23 741.235   6
   9  -4  -9 667.036 532.819   7
  -9  -4   9 44.7430 422.830   2
   9  -4  -8 1746.81 726.765   7
  -9  -4   8 612.656 598.872   2
   9  -4  -8 390.039 496.776   4
  -9  -4   7 989.920 565.514   2
   9  -4  -7 1651.74 624.909   4
  -9  -4   6 3349.44 869.390   2
   9  -4  -6 3019.21 890.696   4
  -9  -4   5 1636.83 663.734   2
   9  -4  -5 2574.88 810.069   4
  -9  -4   4 1440.64 550.098   2
   9  -4  -4 2015.52 876.129   4
   9  -4  -3 2969.13 967.577   4
   9  -4  -2 153.916 360.508   4
   9  -4  -1 1421.96 697.383   4
  -9  -4  -2 1.61939 497.401   5
  -9  -4  -3 221.789 488.991   5
   9  -3 -13 416.656 468.614   7
   9  -3 -12 1347.39 614.779   7
   9  -3 -11 5827.73 1158.26   7
  -9  -3  11 4977.96 1135.87   2
   9  -3 -11 5522.52 1127.25   4
   9  -3 -10 4239.28 951.064   7
  -9  -3  10 2126.69 804.348   2
   9  -3 -10 4504.63 1066.07   4
   9  -3  -9 3489.27 883.523   7
  -9  -3   9 2047.92 731.568   2
   9  -3  -9 3539.04 959.535   4
   9  -3  -8 1644.77 620.126   7
  -9  -3   8 331.296 489.016   6
  -9  -3   8 1989.42 773.409   2
   9  -3  -8 505.561 544.044   4
   9  -3  -7 1364.56 563.872   7
  -9  -3   7 1095.84 564.878   6
   9  -3  -7 1940.39 685.241   4
  -9  -3   7 679.617 494.206   2
   9  -3  -6 274.649 320.713   7
  -9  -3   6 655.506 536.149   6
   9  -3  -6 884.955 545.001   4
  -9  -3   5 1245.73 654.868   6
   9  -3  -5 849.265 506.833   4
  -9  -3   5 1284.74 619.507   2
  -9  -3   4 381.355 364.202   6
  -9  -3   4 228.515 297.792   2
   9  -3  -3 1317.36 642.377   4
  -9  -3   2 68.7486 327.523   5
   9  -3  -2 416.777 563.504   4
  -9  -3   1 6484.25 1267.42   5
   9  -3  -1 8150.27 1418.67   4
  -9  -3   0 3348.62 1023.75   5
   9  -3   0 4917.01 1173.48   4
  -9  -3  -1 2314.57 892.218   5
   9  -3   1 2842.66 909.615   4
  -9  -3  -2 640.774 613.722   5
   9  -3   2 611.805 476.754   4
  -9  -3  -3 424.180 504.199   5
   9  -3   3 1350.40 687.720   4
  -9  -3  -4 1847.45 892.517   5
  -9  -3  -5 1511.82 768.153   5
  -9  -2  15 1687.56 660.363   8
   9  -2 -14 6554.36 1276.73   7
  -9  -2  14 7400.96 1339.44   8
   9  -2 -13-405.426 589.356   7
  -9  -2  13 636.635 547.566   8
   9  -2 -13 155.824 414.695   4
  -9  -2  13 596.476 516.692   2
   9  -2 -12-52.2465 392.024   7
  -9  -2  12 84.6203 312.763   8
   9  -2 -12-296.936 304.775   4
  -9  -2  12 986.331 670.228   2
   9  -2 -11 1146.76 486.050   7
  -9  -2  11 1601.67 646.457   8
   9  -2 -11 3110.70 917.473   4
  -9  -2  11 1754.06 707.248   2
   9  -2 -10 19.4490 305.509   7
   9  -2 -10 167.273 410.021   4
  -9  -2  10-703.293 580.941   2
   9  -2  -9 509.150 370.972   7
   9  -2  -9 1006.48 604.285   4
   9  -2  -8 131.941 334.264   7
  -9  -2   8 357.866 363.651   6
   9  -2  -8 1258.94 611.460   4
   9  -2  -7 1131.52 509.454   7
  -9  -2   7 2381.96 757.739   6
   9  -2  -7 2576.87 773.211   4
   9  -2  -6 8903.76 1159.80   7
  -9  -2   6 10291.6 1570.98   6
   9  -2  -6 6960.16 1243.46   4
   9  -2  -5 572.676 377.477   7
  -9  -2   5 3036.12 907.689   6
   9  -2  -5 1819.73 771.696   4
   9  -2  -4 4243.98 779.429   7
  -9  -2   4 6281.68 1206.31   6
   9  -2  -4 5206.48 1063.70   4
  -9  -2   3 6682.99 1222.15   6
   9  -2  -3 6427.55 1216.48   4
  -9  -2   2 2308.26 771.523   6
   9  -2  -2 2253.30 821.525   4
  -9  -2   1 2804.82 825.507   6
   9  -2  -1 3269.02 954.309   4
  -9  -2   0 129.181 337.161   6
   9  -2   0 1063.81 657.560   4
  -9  -2  -1 313.184 400.340   6
   9  -2   1 455.343 534.602   4
  -9  -2  -2 2664.13 745.336   6
   9  -2   2 1629.21 770.291   4
  -9  -2  -3 794.136 509.633   6
   9  -2   3 2058.53 869.862   4
  -9  -2  -4 2638.02 819.956   6
   9  -2   4 4306.59 1118.12   4
  -9  -2  -5 1782.14 659.395   6
   9  -2   5 3080.54 973.235   4
  -9  -2  -6 852.246 597.964   6
   9  -2   6 338.291 489.546   4
  -9  -2  -7 1918.62 747.166   6
   9  -1 -16-145.519 447.763   7
  -9  -1  16 1848.47 778.775   8
   9  -1 -15 948.370 677.741   7
  -9  -1  15 1802.31 696.961   8
   9  -1 -14 880.659 580.789   7
  -9  -1  14 1279.63 642.544   8
   9  -1 -14 2804.90 912.952   4
  -9  -1  14 1177.80 622.488   2
   9  -1 -13 639.677 468.659   7
  -9  -1  13 1047.38 529.156   8
   9  -1 -13 840.239 542.444   4
   9  -1 -12 2085.23 747.015   7
  -9  -1  12 1497.93 641.530   8
   9  -1 -11 2434.59 707.259   7
  -9  -1  11 1950.16 698.192   8
   9  -1 -11 2604.60 862.592   4
   9  -1 -10 3855.82 845.589   7
  -9  -1  10 3974.26 882.914   8
   9  -1 -10 3041.95 908.874   4
   9  -1  -9 3405.84 770.972   7
  -9  -1   9 2609.92 751.130   8
   9  -1  -9 3611.03 949.741   4
   9  -1  -8 9379.23 1190.39   7
  -9  -1   8 11194.3 1693.98   6
  -9  -1   8 9066.64 1223.45   8
   9  -1  -8 9135.18 1435.82   4
   9  -1  -7 3163.76 681.022   7
  -9  -1   7 3972.11 1024.95   6
  -9  -1   7 3393.84 768.011   8
   9  -1  -7 2777.50 854.825   4
   9  -1  -6 634.595 370.585   7
  -9  -1   6 321.743 341.303   6
   9  -1  -6 464.053 558.914   4
  -9  -1   5-238.355 484.633   6
   9  -1  -5 161.837 370.388   4
  -9  -1   4-32.7093 411.059   6
   9  -1  -4 209.868 363.621   4
  -9  -1   3 600.683 586.396   6
   9  -1  -3 352.696 346.380   4
  -9  -1   2 7238.56 1294.49   6
   9  -1  -2 5123.19 1110.50   4
  -9  -1   1 1226.42 573.219   6
   9  -1  -1 2112.36 785.212   4
  -9  -1   0 3983.08 1022.15   6
   9  -1   0 2209.41 770.441   4
  -9  -1  -1 7460.79 1355.55   6
   9  -1   1 9150.68 1476.99   4
  -9  -1  -2 2194.59 783.236   6
   9  -1   2 3029.73 909.946   4
  -9  -1  -3 3575.03 1010.62   6
   9  -1   3 5271.26 1160.86   4
  -9  -1  -4 1654.50 731.490   6
   9  -1   4 1878.09 719.099   4
  -9  -1  -5 1023.12 598.827   6
   9  -1   5 697.869 606.820   4
  -9  -1  -6 209.274 406.127   6
   9  -1   6-184.971 416.921   4
  -9  -1  -7-744.428 611.144   6
   9  -1   7 124.015 417.249   4
  -9  -1  -8 303.793 493.420   6
   9  -1   8 1048.59 684.237   4
   9   0 -16 1581.13 764.748   7
   9   0 -16 1303.21 640.775   4
   9   0 -15 2442.20 819.866   7
   9   0 -15 2053.91 786.358   4
  -9   0  15 2879.87 948.767   8
   9   0 -14 921.051 563.572   7
   9   0 -14 779.729 541.364   4
  -9   0  14 1444.55 679.630   8
   9   0 -13 5277.25 1088.45   7
   9   0 -13 3287.31 944.961   4
  -9   0  13 5680.31 1169.95   8
   9   0 -12 1929.32 655.521   7
  -9   0  12 1878.33 734.482   8
   9   0 -12 3721.45 1055.06   4
   9   0 -11 271.055 400.416   7
  -9   0  11 89.5182 302.140   8
   9   0 -11 311.132 497.700   4
   9   0 -10 77.4278 319.677   7
  -9   0  10-355.261 395.862   8
   9   0 -10 742.319 588.405   4
   9   0  -9 798.009 395.086   7
  -9   0   9 246.264 356.581   8
   9   0  -9 622.993 527.273   4
  -9   0   8 1366.80 726.556   6
  -9   0   8 483.054 406.221   8
   9   0  -8 624.779 551.646   4
  -9   0   7 4917.20 1177.46   6
  -9   0   7 3034.46 753.272   8
   9   0  -7 3486.75 944.643   4
  -9   0   6 3786.80 999.447   6
  -9   0   6 2253.82 647.525   8
   9   0  -6 4604.66 1088.85   4
  -9   0   5 2552.24 793.208   6
  -9   0   5 2800.59 668.060   8
   9   0  -5 1715.51 669.961   4
  -9   0   4 6895.73 1298.25   6
  -9   0   4 7325.30 1033.57   8
   9   0  -4 6188.81 1170.97   4
  -9   0   3 11559.3 1683.62   6
   9   0  -3 11055.5 1553.39   4
  -9   0   2 6885.06 1281.45   6
   9   0  -2 8406.31 1410.88   4
  -9   0   1 1675.60 810.747   6
   9   0  -1 1991.60 818.883   4
  -9   0   0 1860.90 749.180   6
   9   0   0 1381.72 615.110   4
  -9   0  -1 482.250 468.431   6
   9   0   1 89.4361 521.394   4
  -9   0  -2-255.908 481.260   6
   9   0   2 149.057 468.580   4
  -9   0  -3 1687.83 657.731   6
   9   0   3 1311.45 674.804   4
  -9   0  -4 2890.87 963.794   6
   9   0   4 2148.67 817.464   4
  -9   0  -5 2712.48 876.105   6
   9   0   5 3003.56 864.437   4
  -9   0  -6 4434.63 1140.91   6
   9   0   6 2840.74 884.210   4
  -9   0  -7 5099.39 1208.04   6
   9   0   7 8956.73 1489.36   4
   9   0   8-139.210 456.212   4
   9   0   9 4080.62 1081.36   4
   9   1 -16 487.957 498.766   7
   9   1 -15 1639.95 758.333   7
  -9   1  15 1138.87 737.447   8
   9   1 -14 2744.26 848.184   7
   9   1 -14 1061.67 550.932   4
  -9   1  14 964.536 588.592   8
   9   1 -13 1432.90 560.881   7
   9   1 -13 331.402 421.005   4
  -9   1  13 1597.39 621.980   8
   9   1 -12 3564.91 852.408   7
   9   1 -12 2990.45 927.478   4
  -9   1  12 2434.26 828.890   8
   9   1 -11 1527.93 556.295   7
   9   1 -11 857.570 549.392   4
  -9   1  11 2764.38 876.420   8
   9   1 -10 5192.44 1172.10   4
  -9   1  10 5190.92 1128.34   8
  -9   1   9 2599.72 849.895   6
   9   1  -9 2893.68 941.547   4
  -9   1   9 2577.99 745.638   8
  -9   1   8 8863.93 1525.01   6
   9   1  -8 8517.76 1422.98   4
  -9   1   8 10105.9 1409.26   8
  -9   1   7 4179.72 1101.77   6
   9   1  -7 3161.65 902.481   4
  -9   1   7 3200.66 808.441   8
  -9   1   6 990.410 656.873   6
   9   1  -6 684.523 526.002   4
  -9   1   6-32.0352 400.338   8
  -9   1   5 220.640 456.896   6
   9   1  -5-305.733 470.232   4
  -9   1   5-91.2559 327.527   8
  -9   1   4 772.152 474.852   6
   9   1  -4 439.220 477.598   4
  -9   1   4 661.157 385.722   8
   9   1  -3 293.574 364.452   4
  -9   1   3-259.466 367.588   8
  -9   1   2 7156.92 1354.14   6
   9   1  -2 4446.85 1008.79   4
  -9   1   2 4544.80 870.271   8
  -9   1   1 1976.81 779.235   6
   9   1  -1 2720.71 878.028   4
  -9   1   1 2557.77 620.544   8
  -9   1   0 2451.97 865.504   6
   9   1   0 4120.83 1031.55   4
  -9   1  -1 7700.06 1411.34   6
   9   1   1 6384.44 1226.30   4
  -9   1  -2 2081.33 819.377   6
   9   1   2 3586.05 926.371   4
  -9   1  -3 6517.84 1309.19   6
   9   1   3 5608.22 1172.68   4
  -9   1  -4 2848.07 952.034   6
   9   1   4 3127.34 899.016   4
  -9   1  -5 328.691 444.677   6
   9   1   5 167.270 584.798   4
  -9   1  -6 230.408 608.912   6
   9   1   6-250.528 403.860   4
  -9   1  -7-163.075 507.120   6
   9   1   7 485.032 494.466   4
   9   1   8 2269.31 866.615   9
   9   1   8 114.478 513.681   4
   9   1   9 1803.11 730.427   9
   9   2 -16 2396.92 831.341   7
   9   2 -15 1639.63 698.822   7
  -9   2  14 5317.09 1273.70   8
  -9   2  13 135.658 434.677   8
   9   2 -12 427.996 467.923   4
  -9   2  12-437.114 557.354   8
   9   2 -11 1300.35 612.356   4
  -9   2  11 2031.72 741.738   8
  -9   2  10-19.9094 512.221   6
   9   2 -10 545.625 592.162   4
  -9   2  10 437.494 538.157   8
  -9   2   9-148.793 511.378   6
   9   2  -9-160.348 375.079   4
  -9   2   9 316.655 359.857   8
  -9   2   8 575.887 653.718   6
   9   2  -8 335.047 595.790   4
  -9   2   8 153.083 417.009   8
  -9   2   7 1867.58 813.079   6
   9   2  -7 1725.31 827.055   4
  -9   2   7 2509.36 730.554   8
  -9   2   6 9866.94 1621.17   6
   9   2  -6 9748.42 1557.08   4
  -9   2   6 7533.21 1253.34   8
  -9   2   5 2368.89 809.942   6
   9   2  -5 3046.58 862.875   4
  -9   2   5 1815.72 697.301   8
  -9   2   4 5154.48 1170.33   6
   9   2  -4 6622.18 1310.05   4
  -9   2   4 5726.98 1053.84   8
  -9   2   3 6339.61 1292.61   6
   9   2  -3 6502.12 1318.71   4
  -9   2   3 4709.81 986.765   8
  -9   2   2 712.205 450.113   6
  -9   2   2 1823.15 605.455   8
  -9   2   1 2816.85 947.759   6
   9   2  -1 2502.48 853.846   4
  -9   2   1 2669.23 737.125   8
  -9   2   0 468.371 413.135   6
   9   2   0 1283.82 700.475   4
  -9   2  -1 199.906 560.406   6
   9   2   1 294.802 517.516   4
  -9   2  -2 1981.31 841.423   6
   9   2   2 920.563 541.263   4
  -9   2  -3-676.776 678.682   6
   9   2   3 154.822 418.071   4
  -9   2  -4 3349.60 980.713   6
   9   2   4 3408.31 964.337   4
  -9   2  -5 4623.42 1183.65   6
   9   2   5 1007.58 582.583   4
   9   2   6 2857.83 925.507   4
  -9   3  12 723.319 562.196   6
  -9   3  11 6256.99 1372.78   6
  -9   3  11 8359.12 1513.62   8
  -9   3  10 3339.54 996.202   6
  -9   3  10 2930.09 912.190   8
  -9   3   9 795.703 630.133   6
   9   3  -9 1857.49 831.830   4
  -9   3   9 1307.17 640.075   8
  -9   3   8 42.7166 371.776   6
   9   3  -8 1180.80 738.935   4
  -9   3   8 770.864 674.150   8
  -9   3   7 816.591 562.123   6
   9   3  -7 1680.07 828.401   4
  -9   3   7 1075.45 636.768   8
  -9   3   6 1469.19 691.682   6
   9   3  -6 1223.57 629.168   4
  -9   3   6 2116.41 795.956   8
  -9   3   5 513.250 454.239   6
   9   3  -5 850.411 664.993   4
  -9   3   5-211.440 376.842   8
  -9   3   4 390.435 491.490   6
   9   3  -4 370.051 478.455   4
  -9   3   4 896.548 599.127   8
  -9   3   3 1192.60 644.763   6
   9   3  -3 2539.94 903.560   4
  -9   3   3 1349.29 611.457   8
  -9   3   2 975.618 671.925   6
   9   3  -2-235.840 381.703   4
  -9   3   2 261.725 393.230   8
  -9   3   1 4863.01 1162.56   6
   9   3  -1 6235.66 1290.77   4
  -9   3   0 4443.41 1093.49   6
   9   3   0 6704.21 1308.89   4
  -9   3  -1 2765.94 941.256   6
   9   3   1 1842.79 756.688   4
  -9   3  -2 1603.64 804.237   6
   9   3   2 1033.17 537.497   4
  -9   3  -3-246.837 478.474   6
   9   3   3-300.848 552.007   4
   9   3   4 1318.58 671.306   4
  -9   4  10 351.531 486.662   6
  -9   4   9 604.124 606.171   6
  -9   4   8 621.573 642.323   6
  -9   4   7 2185.68 833.914   6
  -9   4   7 1926.12 826.140   8
  -9   4   6 4934.93 1172.80   6
  -9   4   6 6220.60 1295.05   8
  -9   4   5 2780.36 928.768   6
   9   4  -5 3084.50 960.141   4
  -9   4   5 2033.16 839.645   8
  -9   4   4 2956.49 944.285   6
   9   4  -4 1535.49 774.817   4
  -9   4   4 1013.19 543.237   8
  -9   4   3 1237.23 667.922   6
   9   4  -3 1689.27 782.377   4
  -9   4   3 2114.74 852.938   8
  -9   4   2-130.551 458.561   6
   9   4  -2 258.494 483.358   4
  -9   4   1 1572.51 679.165   6
   9   4  -1 1923.65 885.397   4
  -9   4   0 849.214 627.463   6
   9   4   0 1862.58 811.305   4
  -9   4  -1 1290.54 718.905   6
   9   4   1 491.070 511.510   4
   9   4   2 215.340 466.961   4
 -10  -3  11 1831.20 804.034   6
  10  -3 -10 76.6763 400.087   7
 -10  -3  10 897.421 660.999   6
  10  -3 -10 902.608 556.173   4
  10  -3  -9 698.475 432.508   7
 -10  -3   9 151.869 470.123   6
  10  -3  -9 806.949 586.936   4
  10  -3  -8 930.060 558.874   7
  10  -3  -8 1750.29 751.047   4
 -10  -3   8 1239.67 590.196   2
  10  -3  -7 153.519 437.480   4
 -10  -3   7-279.864 504.068   2
  10  -3  -6 1184.24 609.662   4
 -10  -3   6 236.206 443.784   2
  10  -3  -5-116.334 397.092   4
 -10  -3   5 1904.66 695.002   2
  10  -3  -4 1289.46 680.996   4
 -10  -3   4 1989.57 668.231   2
  10  -3  -3 2141.32 811.011   4
 -10  -3   0 938.951 688.668   5
 -10  -3  -1 1537.08 801.994   5
 -10  -3  -2-582.577 610.229   5
  10  -2 -13 1143.35 614.484   7
  10  -2 -12 281.975 415.362   7
  10  -2 -12-383.927 524.318   4
  10  -2 -11 343.349 402.036   7
  10  -2 -11 1944.89 807.734   4
  10  -2 -10 630.551 504.703   7
 -10  -2  10 1829.56 800.890   6
  10  -2 -10 2215.02 838.210   4
 -10  -2  10 511.344 416.858   2
 -10  -2   9 415.137 511.742   6
  10  -2  -9 2306.78 827.357   4
 -10  -2   8 330.429 518.137   6
  10  -2  -8 1773.11 731.115   4
 -10  -2   7-19.9715 566.938   6
  10  -2  -7 1138.55 756.783   4
 -10  -2   6 5567.90 1308.33   6
  10  -2  -6 2848.81 912.223   4
 -10  -2   5 4151.90 1105.66   6
  10  -2  -5 5502.62 1224.49   4
 -10  -2   4-43.0463 400.694   6
  10  -2  -4-1686.81 738.827   4
 -10  -2   3 1649.35 640.079   6
  10  -2  -3 1890.61 852.449   4
 -10  -2   2 313.821 530.879   6
  10  -2  -2-546.665 601.484   4
 -10  -2   1 635.658 535.947   6
  10  -2  -1 396.191 485.268   4
 -10  -2   0 1790.94 739.726   6
  10  -2   0 3897.15 1072.28   4
 -10  -2  -1 1538.62 696.637   6
 -10  -2  -2 1659.65 701.148   6
 -10  -2  -3 1335.06 677.134   6
 -10  -2  -4 4007.40 1060.22   6
  10  -1 -14 2082.79 790.709   7
 -10  -1  14 1717.04 823.601   8
  10  -1 -14 946.711 608.454   4
  10  -1 -13 1933.26 740.587   7
 -10  -1  13 3961.59 1020.07   8
  10  -1 -13 4280.65 1076.68   4
  10  -1 -12 477.708 334.571   7
 -10  -1  12 2193.11 750.993   8
  10  -1 -12 2838.61 940.235   4
 -10  -1  11 2643.38 830.761   8
  10  -1 -11 1018.88 567.726   4
 -10  -1  10 559.360 584.917   6
  10  -1 -10 277.110 487.862   4
 -10  -1   9 1007.75 649.279   6
  10  -1  -9 1282.15 719.229   4
 -10  -1   8 239.686 388.917   6
  10  -1  -8 761.847 581.706   4
 -10  -1   7 595.662 564.492   6
  10  -1  -7 235.589 403.723   4
 -10  -1   6 5496.09 1262.40   6
  10  -1  -6 2824.12 970.364   4
 -10  -1   5 1387.18 872.604   6
  10  -1  -5 2125.43 843.477   4
 -10  -1   4 5805.37 1262.18   6
  10  -1  -4 4752.14 1152.98   4
 -10  -1   3 580.088 604.492   6
  10  -1  -3 953.071 646.974   4
 -10  -1   2 2857.76 972.178   6
  10  -1  -2 1418.46 726.484   4
 -10  -1   1 5348.19 1216.62   6
  10  -1  -1 6342.58 1323.60   4
 -10  -1   0 2198.45 829.393   6
  10  -1   0 4190.58 1145.55   4
 -10  -1  -1 616.797 514.859   6
  10  -1   1 1220.39 614.257   4
 -10  -1  -2 1803.37 784.692   6
  10  -1   2 317.068 424.056   4
 -10  -1  -3 40.0098 460.348   6
  10  -1   3-184.784 620.952   4
 -10  -1  -4 1227.53 701.978   6
 -10  -1  -5-59.6894 424.444   6
  10   0 -15 638.013 521.033   7
  10   0 -14 479.900 460.236   4
 -10   0  14 1045.63 751.194   8
  10   0 -13 1394.72 721.279   4
 -10   0  13-498.634 493.047   8
  10   0 -12 363.552 480.253   4
 -10   0  12-190.304 357.813   8
 -10   0  11-383.949 429.793   8
  10   0 -11-56.8749 465.728   4
 -10   0  10 3583.42 1078.75   6
 -10   0  10 3299.13 922.321   8
  10   0 -10 2295.19 864.755   4
 -10   0   9 1338.17 677.630   6
 -10   0   9 997.565 573.000   8
  10   0  -9 818.226 734.526   4
 -10   0   8 4090.84 1151.83   6
 -10   0   8 4334.60 967.596   8
  10   0  -8 5205.52 1221.39   4
 -10   0   7 7213.68 1458.72   6
 -10   0   7 5320.77 1009.05   8
  10   0  -7 7978.25 1475.80   4
 -10   0   6 2714.85 980.428   6
  10   0  -6 1885.86 828.573   4
 -10   0   5 1417.76 709.460   6
  10   0  -5 3017.79 964.839   4
 -10   0   4 835.563 539.379   6
  10   0  -4 917.032 573.067   4
 -10   0   3 1259.19 688.703   6
  10   0  -3 132.963 384.728   4
 -10   0   2 67.7070 440.271   6
  10   0  -2-924.875 733.829   4
 -10   0   1 645.239 486.866   6
  10   0  -1 1528.47 770.414   4
 -10   0   0 1740.77 784.049   6
  10   0   0-154.221 385.923   4
 -10   0  -1 287.990 526.315   6
  10   0   1 78.8279 577.312   4
 -10   0  -2 380.143 467.232   6
  10   0   2 768.781 577.910   4
 -10   0  -3 3121.59 945.599   6
  10   0   3 1848.93 782.721   4
 -10   0  -4 3301.66 994.012   6
  10   0   4 2583.24 938.841   4
 -10   1  13 5830.73 1298.68   8
  10   1 -12 1888.91 768.255   4
 -10   1  12 2576.11 941.715   8
 -10   1  11 3420.92 1100.26   6
  10   1 -11 3471.06 1119.00   4
 -10   1  11 3509.70 957.199   8
 -10   1  10 688.692 633.417   6
  10   1 -10 945.667 630.410   4
 -10   1  10 1163.17 646.463   8
 -10   1   9 484.251 443.256   6
  10   1  -9 1981.87 882.476   4
 -10   1   9 2145.41 755.059   8
 -10   1   8 7.62373 506.244   6
  10   1  -8 85.8341 456.428   4
 -10   1   8-3.37979 459.543   8
 -10   1   7 303.696 540.783   6
  10   1  -7 218.117 644.019   4
 -10   1   7 132.579 379.933   8
 -10   1   6 4151.42 1141.20   6
  10   1  -6 4798.48 1217.02   4
 -10   1   6 4724.35 978.846   8
 -10   1   5 2795.14 962.849   6
  10   1  -5 2591.30 943.988   4
 -10   1   5 752.406 505.610   8
 -10   1   4 6130.93 1311.11   6
  10   1  -4 6872.23 1374.87   4
 -10   1   4 5173.54 1012.58   8
 -10   1   3 772.439 554.651   6
  10   1  -3 989.609 767.120   4
 -10   1   2 1201.11 595.372   6
  10   1  -2 1659.26 760.653   4
 -10   1   1 5480.43 1346.83   6
  10   1  -1 6079.93 1314.45   4
 -10   1   0 4019.84 1119.79   6
  10   1   0 4272.22 1151.90   4
 -10   1  -1 3455.16 1116.27   6
  10   1   1 1680.66 727.334   4
 -10   1  -2 535.309 403.206   6
  10   1   2 2266.97 815.659   4
  10   1   3-8.51764 488.478   4
  10   1   4 846.676 586.804   4
  10   1   5 499.678 535.974   4
 -10   2  11-162.050 512.747   8
 -10   2  10 1903.45 719.566   8
 -10   2   9 2726.07 1044.42   6
  10   2  -9 2086.44 875.940   4
 -10   2   9 1546.27 661.267   8
 -10   2   8 1744.90 765.534   6
  10   2  -8 1722.57 858.797   4
 -10   2   8 853.045 594.079   8
 -10   2   7 58.8057 416.687   6
  10   2  -7 578.976 574.505   4
 -10   2   7-101.239 534.394   8
 -10   2   6 1957.53 798.347   6
  10   2  -6 4048.03 1112.42   4
 -10   2   6 4027.44 1078.31   8
 -10   2   5 4776.43 1336.42   6
  10   2  -5 6892.25 1450.81   4
 -10   2   5 5151.21 1099.19   8
 -10   2   4-194.791 561.346   6
  10   2  -4 673.316 625.561   4
 -10   2   4 206.497 430.492   8
 -10   2   3 498.432 540.616   6
  10   2  -3 750.889 612.182   4
 -10   2   3 1782.53 675.903   8
 -10   2   2 221.163 519.530   6
  10   2  -2 1.44636 475.132   4
 -10   2   2-74.6049 259.975   8
 -10   2   1 264.009 459.454   6
  10   2  -1 442.379 509.915   4
 -10   2   0 1263.73 630.592   6
  10   2   0 2111.26 860.858   4
  10   2   1 1257.83 769.963   4
  10   2   2 2803.03 924.486   4
  10   2   3 147.357 422.488   4
  10   2   4 1952.66 817.423   4
  10   2   5 1556.23 735.623   4
 -10   3   8 639.593 508.705   8
 -10   3   7-73.6546 433.717   8
 -10   3   6-118.561 402.849   8
 -10   3   5 740.200 603.869   8
  10   3  -4 2733.50 1018.91   4
 -10   3   4 1107.32 621.931   8
  10   3  -3 1470.33 770.312   4
 -10   3   3 1346.49 615.007   8
  10   3  -2 1423.18 721.850   4
  10   3  -1 1710.25 723.176   4
  10   3   0 1697.60 815.557   4
  10   3   1 1623.89 849.520   4
  10   3   2-200.958 454.897   4
 -11  -2   7-69.7365 421.997   6
 -11  -2   6-1187.55 737.258   6
 -11  -2   5 719.405 578.191   6
 -11  -2   4-1335.89 692.505   6
 -11  -2   3 2204.44 863.344   6
 -11  -2   2-80.1137 425.779   6
 -11  -2   1 1584.04 742.961   6
 -11  -1   6 2724.40 1054.26   6
 -11  -1   5 701.909 709.084   6
 -11  -1   4 359.908 589.653   6
 -11  -1   3 3371.51 1072.36   6
 -11  -1   2 731.560 645.323   6
 -11   0  12 4399.06 1142.55   8
 -11   1  10 1530.84 737.460   8
 -11   1   9-39.9571 458.776   8
 -11   1   8 2946.04 920.880   8
 -11   2   7 565.010 578.411   8
 -11   2   6 252.569 501.503   8
 -11   2   5 1089.66 756.449   8
   0   0   0    0.00    0.00   0

TITL carlos18 in P2(1)
REM P2(1) (#4 in standard setting)
CELL 0.71073   8.299098   5.686019  15.929101  90.0000 103.2987  90.0000
ZERR    3.00   0.000254   0.000166   0.000444   0.0000   0.0029   0.0000
LATT -1
SYMM -x, y+1/2,-z
SFAC C H N O
UNIT 33.00 30.00 3.00 3.00
TREF
HKLF 4
END
;
_shelx_hkl_checksum              18767
loop_
_space_group_symop_operation_xyz
'x, y, z'
'-x, y+1/2, -z'
loop_
_atom_site_label
_atom_site_type_symbol
_atom_site_fract_x
_atom_site_fract_y
_atom_site_fract_z
_atom_site_U_iso_or_equiv
_atom_site_adp_type
_atom_site_occupancy
_atom_site_site_symmetry_order
_atom_site_calc_flag
Br Br 0.63346(6) 0.55515(12) 0.04559(3) 0.03791(16) Uani 1 1 d
O1 O 1.0681(4) 1.5860(7) 0.32378(19) 0.0324(8) Uani 1 1 d
O2 O 1.5944(5) 1.3450(7) 0.2728(2) 0.0445(10) Uani 1 1 d
O3 O 1.4267(6) 1.6251(7) 0.2208(3) 0.0466(12) Uani 1 1 d
N1 N 1.2851(6) 1.1957(9) 0.5812(3) 0.0370(11) Uani 1 1 d
N2 N 1.4642(6) 1.4186(8) 0.2300(3) 0.0305(11) Uani 1 1 d
C1 C 1.1824(6) 1.2570(9) 0.2199(3) 0.0268(10) Uani 1 1 d
C2 C 1.0523(5) 1.0813(11) 0.1741(2) 0.0248(10) Uani 1 1 d
C3 C 0.8919(6) 1.1008(10) 0.1875(3) 0.0351(14) Uani 1 1 d
C4 C 0.7695(7) 0.9472(10) 0.1495(4) 0.0362(13) Uani 1 1 d
C5 C 0.8040(6) 0.7705(9) 0.0979(3) 0.0299(11) Uani 1 1 d
C6 C 0.9582(6) 0.7432(9) 0.0822(3) 0.0297(11) Uani 1 1 d
C7 C 1.0831(6) 0.9017(9) 0.1213(3) 0.0311(11) Uani 1 1 d
C8 C 1.3388(7) 1.2380(10) 0.1858(4) 0.0320(12) Uani 1 1 d
C9 C 1.2166(6) 1.2324(8) 0.3168(3) 0.0251(10) Uani 1 1 d
C10 C 1.3043(5) 1.0351(12) 0.3590(3) 0.0296(10) Uani 1 1 d
C11 C 1.3368(6) 1.0065(9) 0.4473(3) 0.0322(14) Uani 1 1 d
C12 C 1.2769(6) 1.1783(8) 0.4946(3) 0.0264(11) Uani 1 1 d
C13 C 1.2092(7) 1.3979(11) 0.5973(4) 0.0391(14) Uani 1 1 d
C14 C 1.1504(7) 1.5143(11) 0.5231(4) 0.0325(13) Uani 1 1 d
C15 C 1.1912(5) 1.3793(8) 0.4556(3) 0.0235(10) Uani 1 1 d
C16 C 1.1595(6) 1.4005(8) 0.3654(3) 0.0233(10) Uani 1 1 d
H8A H 1.394(5) 1.092(9) 0.200(2) 0.018(12) Uiso 1 1 d
H6 H 0.983(5) 0.619(8) 0.046(3) 0.024(13) Uiso 1 1 d
H3 H 0.878(7) 1.244(10) 0.222(3) 0.049(17) Uiso 1 1 d
H1 H 1.138(5) 1.428(8) 0.203(3) 0.025(12) Uiso 1 1 d
H10 H 1.342(6) 0.926(8) 0.325(3) 0.024(13) Uiso 1 1 d
H13 H 1.214(6) 1.447(8) 0.653(3) 0.035(15) Uiso 1 1 d
H8B H 1.320(7) 1.276(9) 0.125(4) 0.042(16) Uiso 1 1 d
H4 H 0.659(7) 0.969(9) 0.150(3) 0.053(19) Uiso 1 1 d
H11 H 1.391(6) 0.855(10) 0.472(3) 0.043(16) Uiso 1 1 d
H14 H 1.101(6) 1.643(9) 0.518(4) 0.029(16) Uiso 1 1 d
H1N H 1.328(6) 1.122(9) 0.617(3) 0.029(17) Uiso 1 1 d
H7 H 1.198(7) 0.861(9) 0.113(3) 0.035(14) Uiso 1 1 d
loop_
_atom_site_aniso_label
_atom_site_aniso_U_11
_atom_site_aniso_U_22
_atom_site_aniso_U_33
_atom_site_aniso_U_23
_atom_site_aniso_U_13
_atom_site_aniso_U_12
Br 0.0344(3) 0.0472(3) 0.0303(2) 0.0003(3) 0.00366(17) -0.0109(3)
O1 0.0422(19) 0.028(2) 0.0275(15) 0.0062(19) 0.0082(13) 0.0109(18)
O2 0.035(2) 0.049(2) 0.046(2) -0.008(2) 0.0015(18) 0.0050(19)
O3 0.045(3) 0.035(3) 0.062(3) -0.0093(19) 0.016(2) -0.0003(18)
N1 0.039(3) 0.047(3) 0.023(2) 0.006(2) 0.002(2) -0.006(2)
N2 0.033(3) 0.036(3) 0.027(2) -0.010(2) 0.016(2) -0.006(2)
C1 0.031(3) 0.025(3) 0.027(3) -0.003(2) 0.012(2) -0.001(2)
C2 0.028(2) 0.028(3) 0.0186(19) 0.002(2) 0.0065(16) 0.002(2)
C3 0.035(3) 0.041(4) 0.032(2) -0.010(3) 0.012(2) 0.002(2)
C4 0.025(3) 0.045(3) 0.039(3) -0.005(2) 0.009(2) 0.000(2)
C5 0.030(3) 0.033(3) 0.023(2) 0.004(2) 0.000(2) -0.003(2)
C6 0.033(3) 0.032(3) 0.025(3) -0.005(2) 0.007(2) 0.000(2)
C7 0.025(3) 0.039(3) 0.030(3) -0.002(2) 0.009(2) 0.001(2)
C8 0.034(3) 0.033(3) 0.032(3) -0.010(3) 0.013(2) -0.004(2)
C9 0.027(3) 0.027(3) 0.023(2) 0.003(2) 0.009(2) -0.001(2)
C10 0.032(2) 0.024(3) 0.035(2) -0.003(3) 0.0127(19) 0.003(3)
C11 0.026(2) 0.029(4) 0.041(3) 0.005(2) 0.005(2) 0.004(2)
C12 0.023(2) 0.030(3) 0.027(3) 0.003(2) 0.005(2) -0.005(2)
C13 0.043(3) 0.051(4) 0.026(3) -0.012(3) 0.014(2) -0.012(3)
C14 0.038(3) 0.030(4) 0.033(3) -0.009(2) 0.014(2) -0.003(2)
C15 0.023(2) 0.024(2) 0.025(2) -0.002(2) 0.0093(19) -0.0045(19)
C16 0.026(2) 0.021(2) 0.024(2) -0.0017(19) 0.0064(19) -0.0020(19)
loop_
_atom_type_symbol
_atom_type_description
_atom_type_scat_dispersion_real
_atom_type_scat_dispersion_imag
_atom_type_scat_source
C C 0.0033 0.0016 'International Tables Vol C Tables 4.2.6.8 and 6.1.1.4'
H H 0.0000 0.0000 'International Tables Vol C Tables 4.2.6.8 and 6.1.1.4'
N N 0.0061 0.0033 'International Tables Vol C Tables 4.2.6.8 and 6.1.1.4'
O O 0.0106 0.0060 'International Tables Vol C Tables 4.2.6.8 and 6.1.1.4'
Br Br -0.2901 2.4595 'International Tables Vol C Tables 4.2.6.8 and 6.1.1.4'
loop_
_geom_angle_atom_site_label_1
_geom_angle_atom_site_label_2
_geom_angle_atom_site_label_3
_geom_angle
C13 N1 C12 109.5(5)
O2 N2 O3 124.9(5)
O2 N2 C8 117.1(5)
O3 N2 C8 118.0(5)
C9 C1 C2 111.9(4)
C9 C1 C8 112.5(4)
C2 C1 C8 110.5(4)
C7 C2 C3 117.8(5)
C7 C2 C1 124.3(4)
C3 C2 C1 117.9(5)
C4 C3 C2 121.1(5)
C5 C4 C3 119.8(5)
C6 C5 C4 121.7(5)
C6 C5 Br 118.5(4)
C4 C5 Br 119.7(4)
C5 C6 C7 118.2(5)
C2 C7 C6 121.4(5)
N2 C8 C1 109.7(4)
C16 C9 C10 119.1(4)
C16 C9 C1 120.0(4)
C10 C9 C1 120.8(4)
C11 C10 C9 122.3(5)
C10 C11 C12 117.3(5)
N1 C12 C11 130.9(5)
N1 C12 C15 106.7(5)
C11 C12 C15 122.4(4)
C14 C13 N1 109.8(5)
C13 C14 C15 107.3(5)
C16 C15 C12 118.4(4)
C16 C15 C14 134.8(5)
C12 C15 C14 106.7(4)
O1 C16 C9 118.9(4)
O1 C16 C15 120.7(4)
C9 C16 C15 120.4(4)
loop_
_geom_bond_atom_site_label_1
_geom_bond_atom_site_label_2
_geom_bond_distance
Br C5 1.911(5)
O1 C16 1.377(6)
O2 N2 1.212(6)
O3 N2 1.215(6)
N1 C13 1.364(8)
N1 C12 1.369(6)
N2 C8 1.515(7)
C1 C9 1.510(6)
C1 C2 1.528(7)
C1 C8 1.523(7)
C2 C7 1.384(7)
C2 C3 1.399(6)
C3 C4 1.370(7)
C4 C5 1.369(7)
C5 C6 1.368(7)
C6 C7 1.406(7)
C9 C16 1.381(6)
C9 C10 1.419(7)
C10 C11 1.380(7)
C11 C12 1.393(7)
C12 C15 1.412(6)
C13 C14 1.345(8)
C14 C15 1.423(7)
C15 C16 1.406(6)
