#------------------------------------------------------------------------------
#$Date: 2019-11-11 16:22:51 +0200 (Mon, 11 Nov 2019) $
#$Revision: 226534 $
#$URL: file:///home/coder/svn-repositories/cod/cif/4/03/50/4035036.cif $
#------------------------------------------------------------------------------
#
# This file is available in the Crystallography Open Database (COD),
# http://www.crystallography.net/
#
# All data on this site have been placed in the public domain by the
# contributors.
#
data_4035036
loop_
_publ_author_name
'Golushko, Andrei A.'
'Sandzhieva, Maria A.'
'Ivanov, Alexander Yu'
'Boyarskaya, Irina A.'
'Khoroshilova, Olesya V.'
'Barkov, Alexey Yu'
'Vasilyev, Aleksander V.'
_publ_section_title
;
 Reactions of 3,3,3-Trihalogeno-1-nitropropenes with Arenes in the
 Superacid CF<sub>3</sub>SO<sub>3</sub>H: Synthesis of (
 Z)-3,3,3-Trihalogeno-1,2-diarylpropan-1-one Oximes and Study on the
 Reaction Mechanism.
;
_journal_issue                   17
_journal_name_full               'The Journal of organic chemistry'
_journal_page_first              10142
_journal_page_last               10157
_journal_paper_doi               10.1021/acs.joc.8b01406
_journal_volume                  83
_journal_year                    2018
_chemical_absolute_configuration unk
_chemical_formula_moiety         'C15 H12 F3 N O'
_chemical_formula_sum            'C15 H12 F3 N O'
_chemical_formula_weight         279.26
_space_group_crystal_system      monoclinic
_space_group_IT_number           4
_space_group_name_Hall           'P 2yb'
_space_group_name_H-M_alt        'P 1 21 1'
_atom_sites_solution_hydrogens   geom
_atom_sites_solution_primary     iterative
_audit_creation_date             2018-05-22
_audit_creation_method
;
Olex2 1.2
(compiled 2018.05.18 svn.r3508 for OlexSys, GUI svn.r5497)
;
_cell_angle_alpha                90
_cell_angle_beta                 100.168(4)
_cell_angle_gamma                90
_cell_formula_units_Z            2
_cell_length_a                   5.01791(18)
_cell_length_b                   9.1748(3)
_cell_length_c                   14.1441(6)
_cell_measurement_reflns_used    5436
_cell_measurement_temperature    100(2)
_cell_measurement_theta_max      30.8870
_cell_measurement_theta_min      3.6590
_cell_volume                     640.94(4)
_computing_cell_refinement
;
CrysAlisPro, Agilent Technologies,
Version 1.171.36.32 (release 02-08-2013 CrysAlis171 .NET)
(compiled Aug  2 2013,16:46:58)
;
_computing_data_collection
;
CrysAlisPro, Agilent Technologies,
Version 1.171.36.32 (release 02-08-2013 CrysAlis171 .NET)
(compiled Aug  2 2013,16:46:58)
;
_computing_data_reduction
;
CrysAlisPro, Agilent Technologies,
Version 1.171.36.32 (release 02-08-2013 CrysAlis171 .NET)
(compiled Aug  2 2013,16:46:58)
;
_computing_molecular_graphics    'Olex2 (Dolomanov et al., 2009)'
_computing_publication_material  'Olex2 (Dolomanov et al., 2009)'
_computing_structure_refinement  'ShelXL (Sheldrick, 2015)'
_computing_structure_solution
;
Superflip (Palatinus & Chapuis, 2007;Palatinus & van der Lee, 2008;
Palatinus et al., 2012)
;
_diffrn_ambient_temperature      100(2)
_diffrn_detector_area_resol_mean 8.1048
_diffrn_measured_fraction_theta_full 0.999
_diffrn_measured_fraction_theta_max 0.999
_diffrn_measurement_details
;
#__ type_ start__ end____ width___ exp.time_
  1 omega  -76.00   49.00   1.0000   33.0000
omega____ theta____ kappa____ phi______ frames
    -      -23.3621    0.0000 -180.0000 125

#__ type_ start__ end____ width___ exp.time_
  2 omega  -99.00  -50.00   1.0000   33.0000
omega____ theta____ kappa____ phi______ frames
    -      -23.3621 -178.0000   90.0000 49

#__ type_ start__ end____ width___ exp.time_
  3 omega  -99.00  -73.00   1.0000   33.0000
omega____ theta____ kappa____ phi______ frames
    -      -23.3621 -178.0000  -90.0000 26

#__ type_ start__ end____ width___ exp.time_
  4 omega   62.00   95.00   1.0000   33.0000
omega____ theta____ kappa____ phi______ frames
    -       24.4558 -151.0000 -151.0000 33

#__ type_ start__ end____ width___ exp.time_
  5 omega  -60.00   38.00   1.0000   33.0000
omega____ theta____ kappa____ phi______ frames
    -      -23.3621   19.0000   60.0000 98

#__ type_ start__ end____ width___ exp.time_
  6 omega  -95.00  -66.00   1.0000   33.0000
omega____ theta____ kappa____ phi______ frames
    -      -23.3621 -178.0000    0.0000 29

#__ type_ start__ end____ width___ exp.time_
  7 omega    5.00   63.00   1.0000   33.0000
omega____ theta____ kappa____ phi______ frames
    -       24.4558  -99.0000  -90.0000 58

#__ type_ start__ end____ width___ exp.time_
  8 omega   38.00   65.00   1.0000   33.0000
omega____ theta____ kappa____ phi______ frames
    -       24.4558  -99.0000   30.0000 27

#__ type_ start__ end____ width___ exp.time_
  9 omega  -24.00    1.00   1.0000   33.0000
omega____ theta____ kappa____ phi______ frames
    -       24.4558  -99.0000   30.0000 25

#__ type_ start__ end____ width___ exp.time_
 10 omega  -23.00    2.00   1.0000   33.0000
omega____ theta____ kappa____ phi______ frames
    -      -23.3621  -38.0000 -120.0000 25

#__ type_ start__ end____ width___ exp.time_
 11 omega   15.00   44.00   1.0000   33.0000
omega____ theta____ kappa____ phi______ frames
    -       24.4558   38.0000  150.0000 29

#__ type_ start__ end____ width___ exp.time_
 12 omega  -45.00   50.00   1.0000   33.0000
omega____ theta____ kappa____ phi______ frames
    -      -23.3621    0.0000  -90.0000 95

#__ type_ start__ end____ width___ exp.time_
 13 omega   -6.00   87.00   1.0000   33.0000
omega____ theta____ kappa____ phi______ frames
    -       24.4558   77.0000 -120.0000 93

#__ type_ start__ end____ width___ exp.time_
 14 omega   -6.00   67.00   1.0000   33.0000
omega____ theta____ kappa____ phi______ frames
    -       24.4558   77.0000    0.0000 73

#__ type_ start__ end____ width___ exp.time_
 15 omega   35.00   77.00   1.0000   33.0000
omega____ theta____ kappa____ phi______ frames
    -       24.4558  178.0000   30.0000 42

#__ type_ start__ end____ width___ exp.time_
 16 omega   -6.00   92.00   1.0000   33.0000
omega____ theta____ kappa____ phi______ frames
    -       24.4558   77.0000  120.0000 98
;
_diffrn_measurement_device_type  'Xcalibur, Eos'
_diffrn_measurement_method       '\w scans'
_diffrn_orient_matrix_UB_11      -0.0045571000
_diffrn_orient_matrix_UB_12      0.0595317000
_diffrn_orient_matrix_UB_13      0.0316383000
_diffrn_orient_matrix_UB_21      0.0223648000
_diffrn_orient_matrix_UB_22      -0.0483931000
_diffrn_orient_matrix_UB_23      0.0397248000
_diffrn_orient_matrix_UB_31      0.1418294000
_diffrn_orient_matrix_UB_32      0.0095608000
_diffrn_orient_matrix_UB_33      0.0038623000
_diffrn_radiation_monochromator  graphite
_diffrn_radiation_type           MoK\a
_diffrn_radiation_wavelength     0.71073
_diffrn_reflns_av_R_equivalents  0.0324
_diffrn_reflns_av_unetI/netI     0.0261
_diffrn_reflns_Laue_measured_fraction_full 0.999
_diffrn_reflns_Laue_measured_fraction_max 0.999
_diffrn_reflns_limit_h_max       6
_diffrn_reflns_limit_h_min       -6
_diffrn_reflns_limit_k_max       11
_diffrn_reflns_limit_k_min       -11
_diffrn_reflns_limit_l_max       18
_diffrn_reflns_limit_l_min       -18
_diffrn_reflns_number            11746
_diffrn_reflns_point_group_measured_fraction_full 1.000
_diffrn_reflns_point_group_measured_fraction_max 1.000
_diffrn_reflns_theta_full        25.242
_diffrn_reflns_theta_max         27.491
_diffrn_reflns_theta_min         2.659
_diffrn_source                   'Enhance (Mo) X-ray Source'
_exptl_absorpt_coefficient_mu    0.121
_exptl_absorpt_correction_T_max  1.00000
_exptl_absorpt_correction_T_min  0.83765
_exptl_absorpt_correction_type   multi-scan
_exptl_absorpt_process_details
;
CrysAlisPro, Agilent Technologies,
Version 1.171.36.32 (release 02-08-2013 CrysAlis171 .NET)
(compiled Aug  2 2013,16:46:58)
Empirical absorption correction using spherical harmonics,
 implemented in SCALE3 ABSPACK scaling algorithm.
;
_exptl_crystal_colour            'clear colourless'
_exptl_crystal_colour_lustre     clear
_exptl_crystal_colour_primary    colourless
_exptl_crystal_density_diffrn    1.447
_exptl_crystal_description       prism
_exptl_crystal_F_000             288
_exptl_crystal_size_max          0.33
_exptl_crystal_size_mid          0.25
_exptl_crystal_size_min          0.15
_refine_diff_density_max         0.218
_refine_diff_density_min         -0.212
_refine_diff_density_rms         0.038
_refine_ls_abs_structure_details
;
 Flack x determined using 1251 quotients [(I+)-(I-)]/[(I+)+(I-)]
 (Parsons, Flack and Wagner, Acta Cryst. B69 (2013) 249-259).
;
_refine_ls_abs_structure_Flack   0.0(3)
_refine_ls_extinction_method     none
_refine_ls_goodness_of_fit_ref   1.038
_refine_ls_hydrogen_treatment    constr
_refine_ls_matrix_type           full
_refine_ls_number_parameters     181
_refine_ls_number_reflns         2952
_refine_ls_number_restraints     1
_refine_ls_restrained_S_all      1.038
_refine_ls_R_factor_all          0.0320
_refine_ls_R_factor_gt           0.0304
_refine_ls_shift/su_max          0.000
_refine_ls_shift/su_mean         0.000
_refine_ls_structure_factor_coef Fsqd
_refine_ls_weighting_details
'w=1/[\s^2^(Fo^2^)+(0.0342P)^2^+0.1358P] where P=(Fo^2^+2Fc^2^)/3'
_refine_ls_weighting_scheme      calc
_refine_ls_wR_factor_gt          0.0722
_refine_ls_wR_factor_ref         0.0731
_reflns_Friedel_coverage         0.880
_reflns_Friedel_fraction_full    1.000
_reflns_Friedel_fraction_max     1.000
_reflns_number_gt                2845
_reflns_number_total             2952
_reflns_threshold_expression     'I > 2\s(I)'
_cod_data_source_file            jo8b01406_si_012.cif
_cod_data_source_block           7072-9479_vasilev184_2
_cod_database_code               4035036
_shelx_shelxl_version_number     2014/7
_chemical_oxdiff_formula         'F3 C15 O N'
_shelx_space_group_comment
;
The symmetry employed for this shelxl refinement is uniquely defined
by the following loop, which should always be used as a source of
symmetry information in preference to the above space-group names.
They are only intended as comments.
;
_reflns_odcompleteness_completeness 99.89
_reflns_odcompleteness_iscentric 1
_reflns_odcompleteness_theta     28.98
_olex2_refinement_description
;
1. Fixed Uiso
 At 1.2 times of:
  All C(H) groups, All N(H) groups
2.a Ternary CH refined with riding coordinates:
 C2(H2)
2.b Aromatic/amide H refined with riding coordinates:
 N1(H1), C6(H6), C7(H7), C10(H10), C9(H9), C8(H8), C16(H16), C12(H12),
 C15(H15), C13(H13), C14(H14)
;
_shelx_res_file
;
    7072-9479_vasilev184_2.res created by SHELXL-2014/7

TITL CF solution in P21
CELL 0.71073 5.017908 9.174776 14.144102 90 100.1681 90
ZERR 2 0.000184 0.000265 0.000589 0 0.0038 0
LATT -1
SYMM -X,0.5+Y,-Z
SFAC C H F N O
UNIT 30 24 6 2 2

L.S. 20
PLAN  20
TEMP -173(2)
BOND
fmap 2
acta
OMIT -4 55
REM <olex2.extras>
REM <HklSrc "%.\\7072-9479_vasilev184_2.hkl">
REM </olex2.extras>

WGHT    0.034200    0.135800
FVAR      11.56640
F3    3   -0.791365   -0.349223   -0.246465    11.00000    0.02298    0.01989 =
         0.03456   -0.00368    0.00836    0.00201
F1    3   -0.383486   -0.343691   -0.166246    11.00000    0.03578    0.02071 =
         0.02144   -0.00240   -0.00395    0.00072
F2    3   -0.480425   -0.231487   -0.302090    11.00000    0.03882    0.01201 =
         0.02977    0.00438    0.00580   -0.00351
O1    5   -0.033045   -0.656090   -0.210103    11.00000    0.01415    0.01856 =
         0.02401    0.00384    0.00452    0.00094
N1    4   -0.486366   -0.615800   -0.247353    11.00000    0.01401    0.01268 =
         0.01965    0.00397    0.00484   -0.00039
AFIX  43
H1    2   -0.649250   -0.644590   -0.240614    11.00000   -1.20000
AFIX   0
C1    1   -0.265393   -0.689574   -0.201876    11.00000    0.01539    0.01180 =
         0.01222   -0.00248    0.00215   -0.00035
C3    1   -0.528749   -0.352981   -0.254980    11.00000    0.02018    0.01374 =
         0.02038    0.00194    0.00143   -0.00209
C4    1   -0.322970   -0.815067   -0.140729    11.00000    0.01704    0.01070 =
         0.01658   -0.00058    0.00703    0.00208
C2    1   -0.456412   -0.490136   -0.306861    11.00000    0.01524    0.01206 =
         0.01938    0.00420    0.00396   -0.00017
AFIX  13
H2    2   -0.260444   -0.482840   -0.311715    11.00000   -1.20000
AFIX   0
C11   1   -0.615395   -0.500380   -0.408686    11.00000    0.01831    0.01401 =
         0.01665    0.00224    0.00491    0.00585
C6    1   -0.549658   -0.903964   -0.166341    11.00000    0.01786    0.01260 =
         0.02202   -0.00028    0.00360    0.00130
AFIX  43
H6    2   -0.673912   -0.885651   -0.223998    11.00000   -1.20000
AFIX   0
C7    1   -0.593580   -1.019971   -0.107031    11.00000    0.02139    0.01229 =
         0.03292    0.00081    0.01064   -0.00173
AFIX  43
H7    2   -0.745222   -1.082322   -0.124981    11.00000   -1.20000
AFIX   0
C10   1   -0.141083   -0.841431   -0.055253    11.00000    0.01779    0.01573 =
         0.01998    0.00056    0.00309    0.00056
AFIX  43
H10   2    0.015266   -0.782158   -0.038236    11.00000   -1.20000
AFIX   0
C9    1   -0.190802   -0.955055    0.004641    11.00000    0.02742    0.02086 =
         0.01943    0.00697    0.00398    0.00615
AFIX  43
H9    2   -0.071165   -0.971741    0.063600    11.00000   -1.20000
AFIX   0
C8    1   -0.415164   -1.043686   -0.021978    11.00000    0.02854    0.01394 =
         0.02858    0.00808    0.01384    0.00409
AFIX  43
H8    2   -0.446934   -1.121788    0.018712    11.00000   -1.20000
AFIX   0
C16   1   -0.838331   -0.591466   -0.432691    11.00000    0.02231    0.01973 =
         0.02015   -0.00062    0.00381    0.00169
AFIX  43
H16   2   -0.897627   -0.648703   -0.384404    11.00000   -1.20000
AFIX   0
C12   1   -0.530825   -0.416508   -0.480597    11.00000    0.02694    0.02138 =
         0.02531    0.00487    0.00801    0.00223
AFIX  43
H12   2   -0.378691   -0.353827   -0.465079    11.00000   -1.20000
AFIX   0
C15   1   -0.975552   -0.599270   -0.527396    11.00000    0.02480    0.02598 =
         0.02537   -0.00468   -0.00150    0.00445
AFIX  43
H15   2   -1.128196   -0.661509   -0.543287    11.00000   -1.20000
AFIX   0
C13   1   -0.669248   -0.424801   -0.574779    11.00000    0.03875    0.02975 =
         0.02159    0.00899    0.00963    0.01048
AFIX  43
H13   2   -0.611970   -0.367120   -0.623262    11.00000   -1.20000
AFIX   0
C14   1   -0.889907   -0.516598   -0.598238    11.00000    0.03637    0.03311 =
         0.01720   -0.00180   -0.00094    0.01648
AFIX  43
H14   2   -0.982337   -0.522851   -0.662790    11.00000   -1.20000
AFIX   0
HKLF 4

REM  CF solution in P21
REM R1 =  0.0304 for    2845 Fo > 4sig(Fo)  and  0.0320 for all    2952 data
REM    181 parameters refined using      1 restraints

END

WGHT      0.0342      0.1358

REM Highest difference peak  0.218,  deepest hole -0.212,  1-sigma level  0.038
Q1    1  -0.5264 -0.4968 -0.3616  11.00000  0.05    0.22
Q2    1  -0.4942 -0.4266 -0.2810  11.00000  0.05    0.21
Q3    1  -0.9141 -0.5756 -0.4804  11.00000  0.05    0.19
Q4    1  -0.1250 -0.9287 -0.0426  11.00000  0.05    0.18
Q5    1  -0.2967 -0.7642 -0.1783  11.00000  0.05    0.18
Q6    1  -0.5426 -0.4797 -0.4479  11.00000  0.05    0.18
Q7    1  -0.1833 -0.8606 -0.1185  11.00000  0.05    0.17
Q8    1  -0.6699 -0.5672 -0.4265  11.00000  0.05    0.16
Q9    1  -0.6300 -0.6059 -0.2134  11.00000  0.05    0.16
Q10   1  -0.1276 -0.6586 -0.1726  11.00000  0.05    0.16
Q11   1  -0.7841 -0.5157 -0.4127  11.00000  0.05    0.15
Q12   1  -0.2214 -0.8695 -0.0112  11.00000  0.05    0.15
Q13   1  -0.9574 -0.5366 -0.5544  11.00000  0.05    0.14
Q14   1  -0.4231 -0.2385 -0.3597  11.00000  0.05    0.14
Q15   1  -0.7285 -0.5064 -0.5859  11.00000  0.05    0.13
Q16   1  -0.3939 -0.8760 -0.1635  11.00000  0.05    0.13
Q17   1  -0.5953 -0.4297 -0.5243  11.00000  0.05    0.13
Q18   1  -0.8334 -0.4487 -0.5731  11.00000  0.05    0.13
Q19   1  -0.3299 -0.9764 -0.0196  11.00000  0.05    0.13
Q20   1  -1.0790 -0.5433 -0.6623  11.00000  0.05    0.13
;
_shelx_res_checksum              68906
_shelx_hkl_file
;
   0 -13   0 518.316 377.369  10
   0 -13  -1 1691.59 466.141  10
   0 -13   1 1355.04 390.512  10
   0 -13  -2 2311.68 513.661  10
   0 -12   0 15257.8 1132.50  10
   0 -12   0 17688.6 1272.17   1
   0 -12  -1 3778.95 574.518  10
   0 -12   1 4404.32 625.612  10
   0 -12   1 5741.39 756.383   1
   0 -12  -1 5400.45 729.425   1
   0 -12  -2 1023.52 355.670  10
   0 -12   2 220.217 258.057  10
   0 -12  -2 1418.17 509.631   1
   0 -12   2 572.482 368.996   1
   0 -12  -3 4714.84 623.805  10
   0 -12  -3 6592.37 780.094   1
   0 -12   3 6148.25 792.245   1
   0 -12   4 4823.08 703.293   1
   0 -12  -4 5408.21 696.193  10
   0 -12  -4 5644.59 744.291   1
   0 -12   5 3279.84 629.224   1
   0 -12  -5 3515.94 653.013   1
   0 -12  -7 2946.11 532.620  14
   0 -12  -8 12533.7 1057.09  14
   0 -11   0 255.695 261.410  10
   0 -11   0 80.5328 380.517   1
   0 -11  -1 3316.05 523.453  10
   0 -11  -1 4203.32 626.051   1
   0 -11   1 4274.50 619.723   1
   0 -11   1 2474.68 516.324  10
   0 -11   2 8762.75 855.100  10
   0 -11  -2 12195.1 1024.91   1
   0 -11   2 12710.9 1020.62   1
   0 -11  -2 10313.9 892.416  10
   0 -11  -3 15167.6 1130.71   1
   0 -11   3 14210.6 1083.42   1
   0 -11  -3 15865.0 995.547  14
   0 -11  -3 13342.7 979.114  10
   0 -11  -4 4845.80 564.998  14
   0 -11   4 4788.31 647.425   1
   0 -11  -4 4347.35 639.567   1
   0 -11   5 1318.80 414.919   1
   0 -11  -5 1257.50 324.735  14
   0 -11  -6 80.7372 233.287  14
   0 -11  -6 687.025 419.592   1
   0 -11   6 310.409 378.417   1
   0 -11  -7 4057.25 578.319  14
   0 -11   7 4731.98 699.758   1
   0 -11  -7 4172.81 628.028   1
   0 -11   8 1623.35 509.754   1
   0 -11  -8 898.621 404.763  12
   0 -11  -8 1288.91 409.316  14
   0 -11  -9 19929.6 1306.85  14
   0 -11  -9 19044.8 1375.91  12
   0 -11   9 18344.9 1343.62   1
   0 -10   0 20947.4 1175.28  10
   0 -10   0 21593.6 1267.25   1
   0 -10   0 20444.3 1058.84  14
   0 -10  -1 17152.5 1050.63  10
   0 -10   1 17636.0 957.348  14
   0 -10  -1 19444.8 1188.27   1
   0 -10  -1 17692.7 989.352  14
   0 -10   1 18876.5 1177.74   1
   0 -10   1 15149.4 1021.89  10
   0 -10   2 2722.27 509.940   1
   0 -10  -2 2195.24 395.513  10
   0 -10   2 1549.73 395.849  10
   0 -10  -2 2234.87 458.187   1
   0 -10  -2 2277.12 372.522  14
   0 -10  -3 7790.08 672.633  14
   0 -10   3 7291.57 748.012   1
   0 -10   3 6812.63 694.461  10
   0 -10  -3 6066.75 665.104   1
   0 -10  -4 15190.4 1061.50   1
   0 -10   4 14628.4 1046.87   1
   0 -10  -4 13704.1 924.748  14
   0 -10   5 4546.44 603.605   1
   0 -10  -5 4358.56 528.941  14
   0 -10  -5 6221.93 679.861   1
   0 -10  -6 93.2968 205.936  14
   0 -10  -6 81.0014 282.679   1
   0 -10  -6 360.772 262.975  12
   0 -10   6 72.8381 332.786   1
   0 -10  -7 4410.37 611.236  12
   0 -10   7 3601.74 561.985   1
   0 -10  -7 5391.64 633.494  14
   0 -10   8 3632.60 596.185   1
   0 -10  -8 4980.00 624.481  14
   0 -10  -8 4042.96 579.468  12
   0 -10   9 2093.24 533.376   1
   0 -10  -9 2385.00 495.411  12
   0 -10  -9 2173.70 475.297  14
   0 -10  10 2580.31 561.934   1
   0 -10 -10 2495.94 503.721  12
   0 -10 -11 2856.55 546.720  12
   0 -10  11 1698.96 498.447   1
   0  -9   0 146.315 211.565  10
   0  -9   0 94.2289 136.707  14
   0  -9   0 360.372 324.327   1
   0  -9  -1 48386.7 1709.56  14
   0  -9  -1 53033.2 1978.21   1
   0  -9   1 52240.1 1955.32   1
   0  -9  -1 46361.1 1769.57  10
   0  -9   1 47555.4 1787.89  10
   0  -9   1 50139.9 1679.00  14
   0  -9   2 4475.08 550.428   1
   0  -9  -2 4992.40 599.314   1
   0  -9   2 3680.27 476.485  10
   0  -9   2 4493.79 447.449  14
   0  -9  -2 4748.03 481.455  14
   0  -9   3 9812.24 783.703  10
   0  -9   3 11333.1 711.537  14
   0  -9  -3 11802.8 878.243   1
   0  -9   3 11537.6 877.314   1
   0  -9  -3 12843.1 818.511  14
   0  -9  -4 5009.40 583.699   1
   0  -9   4 4740.62 453.534  14
   0  -9  -4 5346.73 539.632  14
   0  -9   4 4947.67 606.756   1
   0  -9  -5 3322.34 438.465  14
   0  -9  -5 3395.24 492.585  12
   0  -9   5 4006.33 537.373   1
   0  -9   6 2926.30 486.492   1
   0  -9  -6 2983.32 441.914  14
   0  -9  -6 2909.64 463.040  12
   0  -9  -7 1960.60 384.778  14
   0  -9   7 1904.96 434.564   1
   0  -9  -7 2297.29 449.726  12
   0  -9  -8 12863.5 936.134  14
   0  -9   8 12528.1 973.425   1
   0  -9  -8 11488.5 949.816  12
   0  -9   9 1075.23 397.071   1
   0  -9  -9 1499.11 437.874  12
   0  -9  -9 1589.75 376.558  14
   0  -9 -10 11643.1 958.531  14
   0  -9 -10 11229.9 967.015  12
   0  -9  10 11142.2 988.809   1
   0  -9  11 4274.47 658.235   1
   0  -9 -11 4597.59 655.343  12
   0  -9 -12 2403.33 527.282  12
   0  -9  12 1188.16 440.013   1
   0  -9 -13 1446.42 434.849  12
   0  -9  13 1227.00 455.943   1
   0  -8   0 29170.8 1257.84  10
   0  -8   0 30811.8 1365.76   1
   0  -8   0 30300.4 1202.01  14
   0  -8   1 9780.83 616.036  14
   0  -8   1 10183.5 702.860  10
   0  -8   1 9091.95 710.960   1
   0  -8  -1 9777.49 640.455  14
   0  -8  -1 8985.89 712.438   1
   0  -8   2 27139.7 1114.09  14
   0  -8  -2 29303.3 1184.28  14
   0  -8   2 28742.2 1306.58   1
   0  -8   2 25798.9 1203.77  10
   0  -8  -2 29637.8 1337.32   1
   0  -8   3 11755.3 698.320  14
   0  -8   3 12532.4 857.851   1
   0  -8  -3 12827.9 843.216   1
   0  -8   3 10588.5 768.649  10
   0  -8  -3 12719.2 886.152  12
   0  -8  -3 12614.7 767.174  14
   0  -8   4 11784.2 702.064  14
   0  -8  -4 14159.8 933.724  12
   0  -8  -4 12925.6 798.377  14
   0  -8   4 13003.8 851.224   1
   0  -8   5 10736.0 683.774  14
   0  -8  -5 12742.7 884.467  12
   0  -8   5 12193.9 860.589   1
   0  -8  -5 12738.2 813.689  14
   0  -8  -6 11991.8 875.203  12
   0  -8   6 11592.2 849.290   1
   0  -8  -6 12521.6 825.665  14
   0  -8   6 8505.89 617.621  14
   0  -8  -7 5836.28 591.986  14
   0  -8   7 6777.98 664.845   1
   0  -8  -7 6813.84 676.727  12
   0  -8  -8-148.413 204.264  14
   0  -8  -8 299.326 300.127  12
   0  -8   8 738.273 343.859   1
   0  -8  -9 3410.12 497.116  14
   0  -8  -9 2732.59 469.720  12
   0  -8 -10 11602.6 913.583  14
   0  -8  10 11269.5 939.043   1
   0  -8 -10 10963.9 908.707  12
   0  -8 -11 1078.29 381.962  12
   0  -8  11 1280.47 445.676   1
   0  -8  12 4727.17 679.254   1
   0  -8 -12 5128.45 673.876  12
   0  -8 -13 6962.70 789.095  12
   0  -8  13 6886.36 839.473   1
   0  -8 -14 12725.8 1093.21  12
   0  -8  14 11279.0 1074.90   1
   0  -7   0 42.7651 116.115  14
   0  -7   0-25.0362 213.500   1
   0  -7   0-356.389 210.731  10
   0  -7   1 106678. 2634.67  14
   0  -7  -1 113008. 2908.25   1
   0  -7   1 105227. 2846.39   1
   0  -7  -1 104380. 2641.79  14
   0  -7   1 97682.9 2707.35  10
   0  -7   2 457.827 206.598  10
   0  -7  -2 983.762 291.989   1
   0  -7   2 883.438 209.440  14
   0  -7  -2 741.755 202.805  14
   0  -7   2 624.762 231.705   1
   0  -7  -3 42748.5 1450.58  14
   0  -7   3 39175.7 1453.21  10
   0  -7   3 41518.8 1538.32   1
   0  -7  -3 40884.4 1580.34  12
   0  -7   3 40493.5 1337.82  14
   0  -7  -4 3411.66 401.119  14
   0  -7   4 3082.45 332.705  14
   0  -7  -4 3455.91 448.729  12
   0  -7   4 2936.18 420.024   1
   0  -7  -5 2964.69 420.771  12
   0  -7   5 2229.99 398.864   1
   0  -7  -5 2517.74 356.517  14
   0  -7   5 2065.19 280.428  14
   0  -7  -6 2393.76 363.279  14
   0  -7  -6 2219.93 363.060  12
   0  -7   6 1560.11 341.619   1
   0  -7  -7 7958.56 676.586  12
   0  -7  -7 6898.35 612.957  14
   0  -7   7 8384.48 692.900   1
   0  -7  -8 21607.5 1190.88  12
   0  -7   8 22927.5 1207.36   1
   0  -7  -8 22437.4 1159.59  14
   0  -7   9 1409.27 394.155   1
   0  -7  -9 1788.74 355.866  14
   0  -7  -9 1237.02 343.896  12
   0  -7 -10 1615.24 390.256  12
   0  -7 -10 1098.13 329.896  14
   0  -7  10 1571.12 411.552   1
   0  -7  11 17010.8 1131.58   1
   0  -7 -11 18377.0 1167.82  12
   0  -7  12 13417.4 1051.67   1
   0  -7 -12 12111.5 974.369  12
   0  -7  13 21723.9 1384.99   1
   0  -7 -13 22880.7 1381.19  12
   0  -7  14 14360.4 1164.75   1
   0  -7 -14 16852.2 1201.09  12
   0  -7 -15 2761.05 542.288  12
   0  -7  15 3252.42 620.917   1
   0  -6   0 78645.5 2020.83  14
   0  -6   0 76309.7 2168.27   1
   0  -6   1 45342.2 1466.85  10
   0  -6   1 48531.7 1409.39  14
   0  -6  -1 48147.1 1444.29  14
   0  -6  -1 45828.1 1157.11   7
   0  -6   1 49397.4 1584.26   1
   0  -6  -1 49582.8 1577.22   1
   0  -6   2 69914.1 2001.70   1
   0  -6  -2 67120.1 1864.83  14
   0  -6   2 67088.8 1798.06  14
   0  -6   2 64004.2 1874.81  10
   0  -6  -2 67167.0 2021.54  12
   0  -6   3 1751.04 295.978  10
   0  -6   3 2105.28 337.136   1
   0  -6  -3 2190.45 320.921  12
   0  -6  -3 1922.67 275.072  14
   0  -6   3 1638.99 235.158  14
   0  -6  -4 5122.95 448.840  14
   0  -6   4 5312.35 504.725   1
   0  -6   4 4686.87 373.215  14
   0  -6  -4 5366.04 499.606  12
   0  -6  -5 19572.5 995.441  12
   0  -6   5 20944.3 1016.42   1
   0  -6  -5 20727.0 949.001  14
   0  -6  -6 10466.9 727.832  12
   0  -6  -6 10617.3 690.857  14
   0  -6   6 10864.0 727.247   1
   0  -6   7 4419.68 512.336   1
   0  -6  -7 5034.20 493.169  14
   0  -6  -7 6064.05 553.340  12
   0  -6   8 5182.49 559.696   1
   0  -6  -8 5238.70 550.001  12
   0  -6  -8 4921.82 519.416  14
   0  -6   9 5681.92 584.986   1
   0  -6   9 6366.15 630.842  13
   0  -6  -9 5652.67 569.088  14
   0  -6  -9 6449.71 614.668  12
   0  -6  10 722.471 296.354  13
   0  -6  10 158.691 283.442   1
   0  -6 -10 325.125 201.167  12
   0  -6  11 4450.74 574.590  13
   0  -6  11 4508.92 575.692   1
   0  -6 -11 5062.14 593.322  12
   0  -6 -12 333.990 287.321  12
   0  -6  12 304.987 283.023  13
   0  -6  12 368.941 334.556   1
   0  -6 -13 898.534 350.896  12
   0  -6  13 211.152 260.673  13
   0  -6  13 931.314 379.161   1
   0  -6  14 6549.29 765.036   1
   0  -6 -14 6134.67 722.929  12
   0  -6 -15 8427.20 888.757  12
   0  -6  15 8876.90 904.693   1
   0  -6 -16 1763.33 488.126  12
   0  -6  16 1280.27 428.401   1
   0  -5   0 72.2825 100.314  14
   0  -5   0-23.2180 170.799   1
   0  -5   1 7817.81 516.384   1
   0  -5   1 6814.21 418.109  14
   0  -5  -1 6811.65 426.114  14
   0  -5  -1 7056.78 318.419   7
   0  -5  -1 5860.50 474.004  12
   0  -5  -1 7699.61 504.298   1
   0  -5   1 6726.69 458.054  10
   0  -5  -2 16.0426 133.662  12
   0  -5   2 121.640 111.417  14
   0  -5   2 327.887 192.797   1
   0  -5  -2 150.832 107.537  14
   0  -5   2 195.777 152.392  10
   0  -5  -2 194.720 84.2197   7
   0  -5   3 9476.45 555.448  10
   0  -5   3 9510.77 592.728   1
   0  -5  -3 9313.19 538.908  14
   0  -5  -3 9753.74 605.481  12
   0  -5   3 7887.55 465.299  14
   0  -5  -4 75424.8 2019.13  14
   0  -5  -4 73780.9 2104.24  12
   0  -5   4 77920.2 2100.03   1
   0  -5  -5 6931.11 540.733  12
   0  -5   5 7454.51 553.171   1
   0  -5   5 7907.73 557.923  13
   0  -5  -5 7192.88 523.595  14
   0  -5  -6 14776.3 790.810  12
   0  -5   6 15215.3 787.914  13
   0  -5   6 10237.0 322.428   2
   0  -5   6 13602.8 755.061   1
   0  -5  -6 13736.2 738.857  14
   0  -5   7 31135.8 1255.98  13
   0  -5   7 30217.4 1245.85   1
   0  -5  -7 29767.8 1246.02  12
   0  -5  -7 30201.0 1224.94  14
   0  -5   8 2773.20 409.078   1
   0  -5  -8 2983.50 403.568  12
   0  -5   8 3053.41 421.105  13
   0  -5  -8 2821.92 382.194  14
   0  -5   9 22115.8 1123.62  13
   0  -5  -9 22166.0 1111.80  12
   0  -5  -9 21083.5 1065.41  14
   0  -5   9 20854.9 1098.33   1
   0  -5  10 10121.4 777.594  13
   0  -5  10 10244.6 774.657   1
   0  -5 -10 10749.4 789.246  12
   0  -5 -11 60393.3 2155.08  12
   0  -5  11 65890.8 2223.71  13
   0  -5  11 58381.7 2118.39   1
   0  -5 -12 3446.75 488.484  12
   0  -5  12 3384.47 524.727   1
   0  -5  12 3113.80 497.888  13
   0  -5  13 9472.89 836.920   1
   0  -5 -13 8203.44 769.239  12
   0  -5  13 9057.90 835.787  13
   0  -5  14 1102.73 375.940  13
   0  -5 -14 281.082 241.893  12
   0  -5  14 725.969 344.099   1
   0  -5 -15 1864.60 421.775  12
   0  -5  15 1724.26 451.166   1
   0  -5  15 1957.12 477.707  13
   0  -5  16 1411.24 432.956   1
   0  -5  16 2712.82 546.316  13
   0  -5 -16 1797.04 416.414  12
   0  -5 -17 956.435 383.094  12
   0  -5  17 757.706 394.832   1
   0  -4   0 90079.7 1899.59   7
   0  -4   0 95414.2 2233.68   1
   0  -4   0 95198.8 2109.39  14
   0  -4   1 28385.3 945.714   1
   0  -4   1 26983.7 829.880  14
   0  -4  -1 26307.5 958.377  12
   0  -4  -1 26083.0 853.972  14
   0  -4   1 27366.5 894.888  10
   0  -4  -1 26258.8 689.535   7
   0  -4  -2 43595.1 1342.53  12
   0  -4   2 45727.4 1281.07  10
   0  -4   2 44061.8 1183.50  14
   0  -4   2 45598.9 1330.19   1
   0  -4  -2 44185.4 1068.15   7
   0  -4  -2 45694.0 1265.28  14
   0  -4   3 268989. 5393.18  13
   0  -4  -3 263686. 5367.32  14
   0  -4   3 265477. 5443.87   1
   0  -4  -3 258086. 5456.00  12
   0  -4   4 109344. 2575.84  13
   0  -4  -4 104925. 2604.79  12
   0  -4   4 110722. 2609.25   1
   0  -4  -4 103659. 2534.24  14
   0  -4  -5 32198.3 1116.44  14
   0  -4  -5 32300.8 1152.63  12
   0  -4   5 34649.6 1157.48   1
   0  -4   5 31990.8 1133.00  13
   0  -4   5 28634.4 682.314   2
   0  -4  -6 24351.7 1004.72  12
   0  -4   6 23533.7 986.599   1
   0  -4  -6 23293.8 961.604  14
   0  -4   6 23077.4 974.071  13
   0  -4  -7 36769.1 1341.00  14
   0  -4  -7 37332.8 1356.97  12
   0  -4   7 37921.7 1335.79   1
   0  -4   7 38412.8 1369.72  13
   0  -4   8 27766.1 1158.59   1
   0  -4   8 28433.1 1208.53  13
   0  -4  -8 29432.7 1206.98  12
   0  -4  -8 27749.6 1158.01  14
   0  -4   9 8655.87 663.035  13
   0  -4   9 8412.17 634.881   1
   0  -4  -9 7929.28 621.952  12
   0  -4 -10 170580. 4206.27  12
   0  -4  10 171263. 4172.45   1
   0  -4  10 172463. 4227.09  13
   0  -4  11 5678.49 571.871   1
   0  -4 -11 6109.64 596.018  12
   0  -4  11 6471.09 625.032  13
   0  -4  12 12001.0 857.008   1
   0  -4 -12 12460.2 875.511  12
   0  -4  12 11944.6 876.816  13
   0  -4 -13 691.300 290.681  12
   0  -4  13 210.253 238.360   1
   0  -4  13 476.899 315.104  13
   0  -4 -14 10200.4 878.607  12
   0  -4  14 11970.7 931.855  13
   0  -4  14 10136.7 865.206   1
   0  -4  15 592.812 351.238  13
   0  -4 -15 514.383 242.468  12
   0  -4  15 432.158 352.712   1
   0  -4  16 1617.56 382.631  13
   0  -4  16 952.070 471.413   1
   0  -4 -16 1289.49 422.464  12
   0  -4 -17 570.581 296.196  12
   0  -4  17 1501.34 485.144   1
   0  -4  17 859.365 412.419  13
   0  -4 -18-11.3406 276.357  12
   0  -4  18 462.348 369.229  13
   0  -4  18-245.372 290.668   1
   0  -3   0-30.2689 67.7441   7
   0  -3   0 73.1477 91.3846  14
   0  -3   0 71.0846 151.594   1
   0  -3  -1 248924. 4902.71  14
   0  -3  -1 244219. 4991.75  12
   0  -3   1 254930. 4997.40   1
   0  -3  -1 234591. 4709.34   7
   0  -3   1 254211. 4931.60  10
   0  -3   1 253579. 4862.00  14
   0  -3   2 104071. 2246.54  10
   0  -3  -2 99865.6 2302.38  12
   0  -3  -2 99897.7 2233.07  14
   0  -3   2 100082. 2241.32  13
   0  -3   2 103420. 2308.56   1
   0  -3  -3 145311. 3180.96  12
   0  -3   3 148303. 3154.73  13
   0  -3   3 148162. 3168.98   1
   0  -3  -3 145976. 3135.42  14
   0  -3   4 148561. 3213.12  13
   0  -3   4 144959. 3192.92   1
   0  -3  -4 149405. 3192.43  14
   0  -3  -4 150432. 3234.92  12
   0  -3   4 143573. 2756.57   2
   0  -3  -5 26328.4 971.243  12
   0  -3   5 26407.0 963.063  13
   0  -3  -5 25579.2 933.009  14
   0  -3   5 27356.2 951.919   1
   0  -3  -6 58621.3 1642.74  14
   0  -3  -6 55887.5 1639.84  12
   0  -3   6 55741.9 1610.51   1
   0  -3   6 55952.1 1645.06  13
   0  -3  -7 37778.3 1325.35  12
   0  -3   7 39952.4 1316.24   1
   0  -3  -7 39187.5 1316.43  14
   0  -3   7 39329.3 1353.91  13
   0  -3   8 24368.8 1048.34  13
   0  -3  -8 22637.9 1006.76  12
   0  -3   8 24841.5 1026.68   1
   0  -3  -9 50327.3 1691.92  12
   0  -3   9 53402.1 1750.46  13
   0  -3   9 49666.8 1646.14   1
   0  -3 -10 5986.13 551.547  12
   0  -3  10 6362.22 578.322  13
   0  -3  10 5384.40 226.358   3
   0  -3  10 6813.15 560.406   1
   0  -3  11 21924.4 1084.12   1
   0  -3  11 22833.4 1157.17  13
   0  -3 -11 22489.5 1131.98  12
   0  -3  12 18206.8 1020.57   1
   0  -3 -12 19761.4 1093.92  12
   0  -3  12 19017.4 1086.95  13
   0  -3 -13 25421.8 1317.45  12
   0  -3  13 27503.7 1357.52  13
   0  -3  13 26359.8 1296.60   1
   0  -3 -14 5466.84 629.841  12
   0  -3  14 4850.31 614.996   1
   0  -3  14 6061.12 675.087  13
   0  -3 -15 2362.00 473.693  12
   0  -3  15 3464.57 535.094   1
   0  -3  15 3430.32 549.437  13
   0  -3 -16 5876.87 703.143  12
   0  -3  16 6758.63 736.195  13
   0  -3  16 6414.85 758.235   1
   0  -3  17 760.974 334.685  13
   0  -3  17 823.034 352.255   1
   0  -3 -17 685.726 359.869  12
   0  -3 -18 848.985 353.277  12
   0  -3  18 1789.18 484.611   1
   0  -3  18 1266.25 448.992  13
   0  -3  19 503.405 405.595  13
   0  -2   0 182808. 3541.52  16
   0  -2   0 182121. 3555.36   5
   0  -2   0 175142. 3549.01  12
   0  -2   0 186272. 3476.93  14
   0  -2   0 182705. 3542.17   1
   0  -2   0 167621. 3363.08   7
   0  -2  -1 110533. 2301.36   5
   0  -2   1 111035. 2272.57  11
   0  -2  -1 108500. 2244.51  14
   0  -2   1 111062. 2265.14  16
   0  -2   1 108763. 2241.83  13
   0  -2   1 113284. 2323.93   5
   0  -2  -1 112797. 2290.49  16
   0  -2   1 106474. 2296.18   1
   0  -2  -1 109953. 2310.28  12
   0  -2   1 109282. 2256.47  10
   0  -2  -2 392973. 7796.94  12
   0  -2  -2 404745. 7762.73  14
   0  -2   2 407126. 7811.85   5
   0  -2  -2 427423. 7785.68  16
   0  -2   2 401988. 7770.29  13
   0  -2   2 416394. 7721.87  16
   0  -2   2 415049. 7790.38   1
   0  -2  -2 422483. 7794.30   5
   0  -2   2 405737. 7752.73  11
   0  -2  -3 51641.7 1291.67  14
   0  -2   3 52535.1 1286.90   1
   0  -2  -3 50906.1 1301.08  12
   0  -2   3 49875.1 1299.33  13
   0  -2   3 52154.3 1209.19  16
   0  -2   4 24867.7 797.151   1
   0  -2  -4 25009.8 820.329  12
   0  -2   4 22730.7 689.166  16
   0  -2   4 24652.1 825.738  13
   0  -2  -4 25168.0 821.284  14
   0  -2  -5 22518.2 816.033  14
   0  -2  -5 22192.7 638.609  13
   0  -2   5 22803.7 826.311  13
   0  -2   5 22127.2 795.368   1
   0  -2  -5 22369.5 809.921  12
   0  -2   5 21772.9 532.769   8
   0  -2   5 21974.5 489.025   3
   0  -2   6 22552.4 876.251  13
   0  -2  -6 22474.6 855.962  14
   0  -2  -6 22624.5 866.076  12
   0  -2   6 21890.4 554.699   8
   0  -2   6 21716.3 831.978   1
   0  -2  -7 53597.4 1576.89  12
   0  -2   7 54513.2 1593.69  13
   0  -2   7 52389.2 1154.96   8
   0  -2   7 51467.1 1519.32   1
   0  -2   8 14306.4 455.564   8
   0  -2   8 13787.4 751.420  13
   0  -2  -8 14363.9 754.027  12
   0  -2   8 14434.0 720.325   1
   0  -2  -9 65103.7 1442.45   4
   0  -2  -9 67576.5 1992.85  12
   0  -2   9 68456.6 1992.46  13
   0  -2   9 65087.5 1906.37   1
   0  -2 -10 57415.2 1911.09  12
   0  -2  10 58674.8 1849.70   1
   0  -2  10 60959.3 1906.47  13
   0  -2 -10 58610.0 1285.95   4
   0  -2 -11 161.034 171.768  12
   0  -2  11 129.612 196.473   1
   0  -2  11 156.565 237.192  13
   0  -2  12 49292.6 1781.91   1
   0  -2  12 52583.3 1855.81  13
   0  -2 -12 51414.2 1884.85  12
   0  -2  13 4091.53 512.444   1
   0  -2 -13 3753.32 514.811  12
   0  -2  13 3968.33 529.781  13
   0  -2  14 2221.60 435.286   1
   0  -2  14 2678.69 466.183  13
   0  -2 -14 3307.28 493.950  12
   0  -2 -15 1638.08 398.849  12
   0  -2  15 2031.48 454.733  13
   0  -2  15 915.155 328.333   1
   0  -2 -16 2595.79 496.056  12
   0  -2  16 2417.08 505.550   1
   0  -2  16 3719.88 564.412  13
   0  -2 -17 8199.07 847.525  12
   0  -2  17 9626.28 905.536  13
   0  -2  17 8876.80 917.349   1
   0  -2  18 3429.46 556.790  13
   0  -2  18 2543.53 579.891   1
   0  -2 -18 2056.47 477.790  12
   0  -2  19 1772.32 522.675  13
   0  -1  -1 137097. 2686.02  12
   0  -1   1 145895. 2654.19  16
   0  -1   1 147405. 2674.16  11
   0  -1  -2 114092. 2238.18  12
   0  -1  -2 109236. 2210.00   1
   0  -1   2 111633. 2247.52  13
   0  -1  -2 117800. 2243.90   5
   0  -1   2 110971. 2218.84   1
   0  -1   2 110690. 2158.00  16
   0  -1  -2 112784. 2116.60  13
   0  -1  -2 106758. 2237.31  14
   0  -1   3 411109. 7711.19  13
   0  -1  -3 413601. 7706.34  14
   0  -1   3 406044. 7669.17   1
   0  -1   3 392722. 7561.31  16
   0  -1  -3 405519. 7698.01  12
   0  -1  -3 413991. 7557.77  13
   0  -1  -3 410662. 7666.92   1
   0  -1  -4 91374.2 1865.38  13
   0  -1  -4 88293.9 2003.80  14
   0  -1   4 87808.1 2002.69  13
   0  -1   4 86155.7 1967.62   1
   0  -1  -4 89738.4 2000.65  12
   0  -1  -5 44212.2 1259.85  12
   0  -1   5 47690.8 1272.23  13
   0  -1   5 46500.0 1237.94   1
   0  -1   6 127126. 2756.05   1
   0  -1   6 129935. 2805.36  13
   0  -1  -6 117714. 2376.55   4
   0  -1  -6 129789. 2822.43  12
   0  -1  -7 4796.58 188.856   4
   0  -1  -7 4956.41 394.026  12
   0  -1   7 5108.88 404.965  13
   0  -1   7 5474.08 410.633   1
   0  -1   8 10147.0 586.936  13
   0  -1  -8 9283.78 573.142  12
   0  -1   8 10038.6 573.031   1
   0  -1   8 7869.93 235.521   4
   0  -1   9 8236.86 551.385   1
   0  -1  -9 8822.96 597.148  12
   0  -1   9 9265.45 603.297  13
   0  -1  10 19373.2 954.443  13
   0  -1 -10 20317.4 987.532  12
   0  -1  10 20131.8 941.181   1
   0  -1  11 5807.19 545.862   1
   0  -1 -11 6038.74 559.789  12
   0  -1  11 5958.90 532.209  13
   0  -1  12 2091.18 386.619  13
   0  -1  12 2505.94 386.248   1
   0  -1 -12 2117.57 362.852  12
   0  -1  13 34408.5 1469.68   1
   0  -1 -13 34032.8 1526.13  12
   0  -1  13 35266.9 1475.11  13
   0  -1  14 9106.42 749.524   1
   0  -1 -14 8607.35 772.456  12
   0  -1  14 8392.32 732.565  13
   0  -1  15 1845.36 400.138  13
   0  -1 -15 1438.88 364.152  12
   0  -1  15 2174.98 449.386   1
   0  -1  16 3758.84 563.982   1
   0  -1 -16 5533.90 659.867  12
   0  -1  16 4953.05 618.173  13
   0  -1  17 7130.30 765.885  13
   0  -1 -17 7087.35 812.351  12
   0  -1  17 6402.02 766.237   1
   0  -1  18 3634.95 580.509  13
   0  -1  18 3706.70 633.039   1
   0  -1 -18 3673.41 608.009  12
   0  -1  19 1385.57 484.044  13
   0  -1  19 1687.17 483.453   1
   0  -1  20 1354.24 401.686  13
   0   0  -2 75035.2 1505.44  12
   0   0   2 73124.6 1487.36   1
   0   0  -2 71191.3 1484.81  13
   0   0   3 84433.4 1736.32   9
   0   0  -3 86934.1 1812.87   1
   0   0   3 86016.9 1812.30  13
   0   0   3 86150.3 1814.75   1
   0   0  -3 88984.5 1814.31  13
   0   0  -3 87073.5 1842.69  12
   0   0   4 174039. 3555.59   1
   0   0  -4 179643. 3545.35  13
   0   0   4 177824. 3444.64   9
   0   0  -4 180000. 3593.64  12
   0   0   4 177298. 3549.23  13
   0   0  -5 83073.7 1960.43  12
   0   0   5 84144.9 1909.07  13
   0   0   5 82883.9 1911.30   1
   0   0   5 82541.6 1780.90   9
   0   0   6 4545.77 342.147  13
   0   0  -6 4899.92 361.868  12
   0   0   6 4546.34 343.047   1
   0   0   6 4711.51 277.771   9
   0   0   7 80197.0 1811.59   9
   0   0   7 77684.4 1969.59  13
   0   0   7 80078.9 1993.57   1
   0   0  -7 77784.8 1664.48  15
   0   0  -7 80029.5 2051.28  12
   0   0   8 782.087 220.438   1
   0   0  -8 1097.55 123.433  15
   0   0  -8 1164.51 227.620  12
   0   0   8 924.279 212.573  13
   0   0   8 1121.03 166.153   9
   0   0   9 684.340 198.271   1
   0   0  -9 519.435 177.450  12
   0   0  -9 518.966 91.5446  15
   0   0   9 701.196 191.063  13
   0   0  10 902.284 250.757   1
   0   0 -10 1713.24 331.090  12
   0   0 -10 1955.84 163.514  15
   0   0  10 1621.85 291.985  13
   0   0  11 15646.5 856.254   1
   0   0  11 14582.4 819.604  13
   0   0 -11 15045.1 511.417  15
   0   0 -11 14226.7 868.916  12
   0   0  12 15649.1 913.276   1
   0   0 -12 16045.8 964.479  12
   0   0  12 16196.7 900.671  13
   0   0  13 6225.01 593.921  13
   0   0 -13 4609.90 387.914  16
   0   0 -13 4986.68 567.460  12
   0   0  13 5317.56 551.027   1
   0   0  14 2436.38 461.160   1
   0   0 -14 2368.69 441.632  12
   0   0  14 1612.24 365.151  13
   0   0 -14 2106.90 283.676  16
   0   0  15 59.2472 223.538  13
   0   0  15 439.880 298.690   1
   0   0 -15 229.843 247.627  12
   0   0  16 1354.86 414.126   1
   0   0  16 1312.92 371.765  13
   0   0 -16 868.938 384.027  12
   0   0  17 4615.77 599.948  13
   0   0  17 5416.12 724.492   1
   0   0 -17 5706.95 723.158  12
   0   0  18 8674.79 816.746  13
   0   0  18 6686.44 810.888   1
   0   0 -18 7630.66 853.695  12
   0   0  19 13028.5 1133.41   1
   0   0  19 13902.8 1077.84  13
   0   0 -19 11931.8 1088.17  12
   0   1   1 145353. 2798.70  14
   0   1   2 110962. 2249.88   5
   0   1   2 113519. 2122.69  13
   0   1   2 113145. 2257.87  14
   0   1  -2 110839. 2227.53   1
   0   1   2 108443. 2243.48  12
   0   1  -2 109039. 2167.06  16
   0   1  -2 113225. 2264.10  13
   0   1  -3 402514. 7547.30  16
   0   1   3 391310. 7663.86  12
   0   1  -3 412716. 7654.37   1
   0   1   3 396805. 7536.62  13
   0   1  -3 420831. 7707.65  13
   0   1   3 416781. 7698.80   5
   0   1   3 408738. 7655.31   1
   0   1   3 409097. 7699.04  14
   0   1  -4 89568.2 1830.47  16
   0   1  -4 87238.6 1755.78   9
   0   1   4 89834.7 1966.22   1
   0   1   4 88059.6 1859.38  13
   0   1  -5 47316.6 1044.85   9
   0   1   5 46109.6 1157.83  13
   0   1  -5 47820.8 1107.26  16
   0   1   5 45512.4 1245.65   1
   0   1   5 45161.7 1193.75   9
   0   1   6 132134. 2814.41   9
   0   1   6 130328. 2886.76   1
   0   1   6 128507. 2780.69  13
   0   1  -6 130787. 2689.16  16
   0   1  -7 5306.10 303.405  16
   0   1   7 4908.76 347.162   9
   0   1   7 4641.14 382.039   1
   0   1   7 4939.95 350.315  13
   0   1  -8 10307.5 462.547  16
   0   1   8 10630.5 536.718   9
   0   1   8 10072.9 588.108   1
   0   1   8 10184.6 547.724  13
   0   1   9 8620.46 498.421   9
   0   1  -9 8201.44 421.523  15
   0   1  -9 8594.07 437.329  16
   0   1   9 9216.24 602.745   1
   0   1  -9 8351.25 585.148  12
   0   1   9 8433.81 520.303  13
   0   1 -10 19957.9 996.097  12
   0   1  10 19837.2 956.083   1
   0   1 -10 20435.8 729.402  15
   0   1  10 20502.8 838.943   9
   0   1  10 20510.0 890.423  13
   0   1 -10 20856.4 762.602  16
   0   1  11 5855.22 498.372  13
   0   1  11 6061.53 455.754   9
   0   1 -11 6821.03 398.596  15
   0   1 -11 6249.06 408.208  16
   0   1  11 6284.39 545.986   1
   0   1 -11 5826.52 550.209  12
   0   1 -12 2540.02 249.494  15
   0   1  12 2364.24 433.261   1
   0   1 -12 2162.43 351.743  12
   0   1  12 2315.31 371.464  13
   0   1 -12 2331.16 266.379  16
   0   1 -13 33388.1 1145.77  16
   0   1 -13 33603.2 1513.86  12
   0   1  13 33212.6 1452.34   1
   0   1  13 37533.3 1422.66  13
   0   1  14 8617.33 738.760   1
   0   1 -14 8848.30 784.828  12
   0   1  14 8381.32 687.131  13
   0   1  15 1724.27 371.608  13
   0   1 -15 1559.18 384.612  12
   0   1  15 2182.44 469.983   1
   0   1 -16 4949.01 640.878  12
   0   1  16 5404.17 612.165  13
   0   1  16 5533.42 668.756   1
   0   1 -17 7430.26 822.750  12
   0   1  17 5079.08 717.284   1
   0   1  17 7555.49 733.093  13
   0   1 -18 3686.45 578.384  12
   0   1  18 3172.01 616.457   5
   0   1  18 4374.89 664.521   1
   0   1  19 1421.01 510.272   1
   0   2   0 175988. 3602.39   5
   0   2   0 173512. 3596.77  16
   0   2   0 167505. 3424.98   7
   0   2   0 185238. 3538.15  14
   0   2  -1 107360. 2290.99   5
   0   2  -1 113562. 2304.18   1
   0   2  -1 107252. 2222.06  13
   0   2   1 108013. 2280.13  12
   0   2   1 106478. 2282.31  16
   0   2  -1 107998. 2254.70  16
   0   2   1 110470. 2284.80   5
   0   2   1 111595. 2240.19  14
   0   2   2 400241. 7684.50  12
   0   2  -2 403001. 7664.19  13
   0   2  -2 411758. 7650.84  11
   0   2   2 395335. 7683.07   5
   0   2  -2 393483. 7607.61  16
   0   2  -2 412239. 7627.49  10
   0   2   2 413881. 7670.52  14
   0   2  -3 50781.7 1193.52  16
   0   2   3 52507.7 1301.15   5
   0   2  -3 50363.5 1043.29   8
   0   2  -3 48504.2 1235.81  11
   0   2   3 52111.0 1090.30  13
   0   2   4 24623.4 637.532  13
   0   2  -4 23363.8 691.373  16
   0   2   4 23975.8 814.255   5
   0   2   5 21168.9 839.310   5
   0   2  -5 21895.0 691.143  16
   0   2  -5 23914.5 511.482   2
   0   2   5 21572.3 653.649  13
   0   2   6 22570.9 885.619   5
   0   2  -6 21425.8 693.389  16
   0   2  -6 22177.7 568.467   9
   0   2   6 21619.5 693.091  13
   0   2  -6 21615.1 519.100   2
   0   2   7 53202.7 1587.84   5
   0   2   7 52444.3 1486.25   9
   0   2   7 51123.6 1340.34  13
   0   2  -7 51379.5 1319.89  16
   0   2  -7 49978.1 1160.73   9
   0   2   7 51688.8 1521.88   1
   0   2  -7 53753.8 1120.60   2
   0   2  -8 14355.5 443.975   2
   0   2   8 15370.1 739.972   1
   0   2  -8 13933.2 571.063  16
   0   2   8 14243.5 691.613   9
   0   2   8 15637.7 776.858   5
   0   2   8 14619.3 626.063  13
   0   2   9 68835.0 1793.42  13
   0   2  -9 65978.1 1681.01  16
   0   2   9 68213.7 1957.47   1
   0   2   9 64932.0 2005.18   5
   0   2   9 67552.2 1874.56   9
   0   2  -9 68294.8 1488.31   2
   0   2 -10 63001.1 1412.27   2
   0   2 -10 58352.6 1582.58  16
   0   2  10 58476.4 1920.03   5
   0   2  10 62111.1 1731.78  13
   0   2  10 58911.0 1858.27   1
   0   2  10 61296.4 1788.56   9
   0   2  11 192.234 138.139   9
   0   2  11 93.2916 151.623  13
   0   2 -11 133.605 115.919  16
   0   2 -11 190.807 128.157  15
   0   2  11 108.769 204.404   5
   0   2 -11 238.257 98.7675   2
   0   2  11 705.731 312.579   1
   0   2  12 51978.8 1690.00   9
   0   2 -12 48887.5 1475.03  16
   0   2 -12 48129.4 1863.46  12
   0   2 -12 55091.3 1575.25  15
   0   2  12 52291.9 1851.15   1
   0   2 -12 56166.7 1340.87   2
   0   2  12 52389.3 1680.50  13
   0   2  12 48431.3 1828.33   5
   0   2 -13 3418.08 337.309  16
   0   2  13 3843.25 429.164   9
   0   2 -13 3242.53 486.285  12
   0   2  13 3437.38 501.512   1
   0   2  13 4496.56 468.964  13
   0   2  13 3328.74 483.593   5
   0   2 -13 4083.54 374.713  15
   0   2  14 2976.69 474.812   5
   0   2  14 3056.91 495.941   1
   0   2 -14 2433.66 444.572  12
   0   2  14 3395.52 430.476  13
   0   2  15 1073.52 355.201   5
   0   2  15 1885.66 378.943  13
   0   2 -15 1464.17 379.895  12
   0   2  15 1608.13 383.808   1
   0   2  16 1806.31 460.313   5
   0   2  16 2219.47 500.041   1
   0   2 -16 2518.72 479.344  12
   0   2  16 2112.25 378.930  13
   0   2  17 9679.42 952.790   1
   0   2  17 6738.56 800.314   5
   0   2 -17 7551.01 809.571  12
   0   2  18 1841.03 479.681   5
   0   2 -18 1851.32 471.539  12
   0   3   0 102.809 90.8578  13
   0   3   0-20.7963 89.0691  14
   0   3   0 2.67441 121.975   5
   0   3   0-45.1548 111.442  16
   0   3   0 65.9465 60.2321   7
   0   3   1 250377. 5015.02   5
   0   3  -1 246725. 4756.24   7
   0   3   1 243838. 5007.29  16
   0   3  -1 253980. 5030.73   5
   0   3  -1 248523. 4988.02  16
   0   3  -2 100065. 2281.44   5
   0   3  -2 98515.5 2227.06  16
   0   3   2 99292.7 2277.44  16
   0   3   2 101600. 2280.29   5
   0   3   3 145527. 3173.44   5
   0   3  -3 146423. 3115.02  11
   0   3  -3 146358. 3078.12  16
   0   3   4 148153. 2921.00  13
   0   3  -4 143754. 2876.60   8
   0   3  -4 144262. 3123.87  16
   0   3   4 156208. 3300.54   5
   0   3  -4 148026. 3186.96  11
   0   3   5 26918.5 986.233   5
   0   3  -5 25959.9 834.346  16
   0   3  -5 27223.2 915.288  11
   0   3   5 26617.7 719.162  13
   0   3  -6 53879.2 1459.59  11
   0   3   6 56553.3 1585.97   5
   0   3  -6 53419.3 1339.76  16
   0   3   6 53764.5 1223.26  13
   0   3  -7 37420.6 874.860   9
   0   3   7 41255.0 1361.66   5
   0   3   7 37805.2 1042.76  13
   0   3  -7 39547.3 1133.79  16
   0   3   8 23251.6 955.227   9
   0   3   8 23576.3 774.563  13
   0   3  -8 23470.7 810.823  16
   0   3  -8 18786.3 558.080   9
   0   3   8 23891.0 1031.24   5
   0   3  -9 50359.3 1421.69  16
   0   3   9 52050.2 1426.82  13
   0   3   9 48940.7 1723.02   5
   0   3   9 52702.4 1643.62   9
   0   3 -10 6403.24 429.804  16
   0   3  10 6721.80 451.840  13
   0   3  10 7089.21 554.987   9
   0   3  10 6626.08 604.795   5
   0   3  11 22172.3 1141.18   5
   0   3  11 24591.4 962.918  13
   0   3  11 24331.1 1093.14   9
   0   3 -11 22759.3 895.808  16
   0   3 -12 19740.0 910.725  15
   0   3  12 19152.1 989.025   9
   0   3  12 17502.7 1050.09   5
   0   3  12 19495.4 886.865  13
   0   3 -12 18529.8 807.972  16
   0   3 -13 25418.1 996.097  16
   0   3  13 26641.3 1109.07  13
   0   3  13 27757.9 1238.12   9
   0   3 -13 27810.2 1107.00  15
   0   3  14 4472.31 612.275   5
   0   3  14 5972.62 543.107  13
   0   3 -14 5528.31 624.099  12
   0   3  14 5539.45 558.526   9
   0   3  15 2971.75 426.186   9
   0   3 -15 2781.28 501.334  12
   0   3  15 1784.84 452.650   5
   0   3 -16 6679.19 746.004  12
   0   3  16 5452.92 702.637   5
   0   3  17 658.072 321.503   5
   0   3 -17 507.298 308.044  12
   0   3 -18 1033.19 371.127  12
   0   3  18 1168.39 393.077   5
   0   4   0 94793.3 2216.63  16
   0   4   0 90350.0 2210.98   5
   0   4   0 89930.9 1871.45   7
   0   4   1 27053.5 931.212   5
   0   4  -1 25982.1 688.993   7
   0   4   1 25239.7 926.192  16
   0   4  -1 24990.3 905.787  16
   0   4  -1 28894.6 957.187   5
   0   4  -2 45672.6 1088.79   7
   0   4   2 43244.4 1334.57  16
   0   4  -2 45439.4 1348.45   5
   0   4  -2 44581.0 1303.27  16
   0   4   2 44856.3 1334.56   5
   0   4   3 269946. 5547.14   5
   0   4  -3 261309. 5446.51  16
   0   4  -3 276239. 5541.31   5
   0   4  -4 103972. 2481.67  16
   0   4  -4 105381. 2514.33  11
   0   4   4 110570. 2623.82   5
   0   4  -5 33244.4 1064.08  16
   0   4   5 32882.1 1190.45   5
   0   4  -5 33223.1 1109.99  11
   0   4  -5 31214.8 802.141   8
   0   4   5 32486.8 838.218  13
   0   4   6 23022.6 683.255  13
   0   4  -6 22136.9 910.118  11
   0   4  -6 23065.4 861.337  16
   0   4   6 23367.1 1016.99   5
   0   4  -7 37775.2 1274.15  11
   0   4   7 36337.8 855.484  15
   0   4   7 39495.0 1397.25   5
   0   4  -7 37543.8 1173.90  16
   0   4   7 36674.6 995.557  13
   0   4   8 27965.9 862.715  13
   0   4  -8 28867.3 1112.20  11
   0   4   8 26670.1 1191.97   5
   0   4  -8 27741.7 986.873  16
   0   4   9 8002.11 620.156   9
   0   4   9 7983.91 439.303  13
   0   4  -9 8041.72 501.556  16
   0   4  -9 8939.62 610.336  11
   0   4   9 7846.00 642.111   5
   0   4  10 166295. 4221.67   5
   0   4  10 168741. 3674.47  13
   0   4 -10 172797. 3786.39  16
   0   4  10 178322. 4154.28   9
   0   4 -10 163097. 4013.34  11
   0   4  11 6120.08 444.271  13
   0   4  11 6469.43 629.996   5
   0   4 -11 5586.02 521.467  11
   0   4 -11 5533.57 437.398  16
   0   4  11 5270.64 526.474   9
   0   4 -12 13177.8 694.659  16
   0   4  12 12405.7 836.619   9
   0   4 -12 11470.0 785.055  11
   0   4  12 11975.0 897.707   5
   0   4  12 13205.3 683.757  13
   0   4 -13 482.959 237.546  11
   0   4  13-135.128 231.760   5
   0   4 -13 557.824 225.993  15
   0   4  13 722.845 289.366   9
   0   4  14 8442.96 854.102   5
   0   4 -14 11263.0 753.440  15
   0   4 -14 9348.60 754.938  11
   0   4  14 12026.5 852.622   9
   0   4  15 387.055 290.712   5
   0   4 -15 326.913 237.187  11
   0   4 -15 603.289 278.412  12
   0   4  15 640.412 277.945   9
   0   4 -16 1394.90 339.061  11
   0   4 -16 1328.21 379.396  12
   0   4  16 1608.86 445.962   5
   0   4  16 1280.02 348.253   9
   0   4 -17 1201.45 399.654  12
   0   4 -17 238.322 216.485  11
   0   4  17 1332.10 434.063   5
   0   4 -18 458.584 303.589  11
   0   4 -18 280.629 292.178  12
   0   4  18 398.987 352.793   5
   0   4 -19 3353.82 556.623  11
   0   5   0 86.2174 144.310  16
   0   5   0 38.1231 68.7200   7
   0   5   0 60.0790 175.728   5
   0   5   1 7609.05 515.467   5
   0   5  -1 7411.45 499.363  16
   0   5   1 7027.78 501.684  16
   0   5  -1 8033.66 532.132   5
   0   5  -1 6834.10 319.222   7
   0   5  -2 132.361 163.705   5
   0   5  -2 221.800 130.053  16
   0   5   2 81.1849 164.309  16
   0   5  -2 60.1038 80.4946   7
   0   5   2-94.9934 170.314   5
   0   5  -3 9977.02 601.127   5
   0   5   3 8880.07 589.366  16
   0   5   3 10127.3 604.906   5
   0   5  -3 9314.67 426.996   7
   0   5  -3 8607.58 540.026  16
   0   5   4 75501.1 2098.97   5
   0   5  -4 73167.6 1997.31  16
   0   5   5 7344.88 553.215   5
   0   5   5 7003.26 332.123  13
   0   5  -5 7273.18 511.903  11
   0   5  -5 7157.99 487.830  16
   0   5   6 13393.5 487.775  13
   0   5  -6 13881.7 706.744  16
   0   5   6 15508.9 854.072   5
   0   5  -6 13290.5 721.979  11
   0   5  -6 13875.7 476.623   8
   0   5   7 31544.6 1305.38   5
   0   5  -7 29540.6 1100.31  16
   0   5  -7 30565.1 1182.60  11
   0   5   7 30369.6 857.671  13
   0   5   8 2757.75 233.040  13
   0   5   8 2858.96 184.559  15
   0   5   8 3206.77 439.687   5
   0   5  -8 2625.11 317.183  16
   0   5  -8 2963.33 361.832  11
   0   5  -9 21571.9 1029.36  11
   0   5   9 22180.4 1114.52   9
   0   5  -9 22184.5 937.538  16
   0   5   9 22206.7 1148.61   5
   0   5   9 21000.4 741.723  13
   0   5 -10 9346.84 686.803  11
   0   5  10 10510.1 516.352  13
   0   5  10 10095.8 744.552   9
   0   5 -10 10672.2 638.127  16
   0   5  10 9081.52 763.463   5
   0   5  11 64192.3 2166.23   9
   0   5  11 59294.5 2191.21   5
   0   5 -11 61105.1 2040.23  11
   0   5 -11 64933.1 1885.32  16
   0   5 -12 2899.38 434.288  11
   0   5 -12 3106.02 368.572  16
   0   5  12 3127.41 502.681   5
   0   5  12 3606.18 479.517   9
   0   5 -13 9775.86 743.066  15
   0   5 -13 9040.13 731.326  11
   0   5  13 8669.97 758.186   9
   0   5  13 5984.96 756.008   5
   0   5  14 790.009 291.003   9
   0   5 -14 978.884 267.627  11
   0   5  14 270.010 323.802   5
   0   5 -14 817.385 279.834  15
   0   5 -15 2273.60 434.636  11
   0   5  15 2201.06 417.191   9
   0   5  15 2161.58 512.703   5
   0   5  16 1693.06 518.927   5
   0   5  16 2578.67 477.807   9
   0   5 -16 1929.02 397.459  11
   0   5 -17 568.906 308.651  11
   0   5  17 594.096 425.997   5
   0   5  17 217.088 233.440   9
   0   5 -17 867.565 366.693  12
   0   5 -18 513.686 321.383  11
   0   6   0 71855.0 2124.73  16
   0   6   0 77033.3 2143.99   5
   0   6  -1 47224.4 1562.24  16
   0   6   1 48810.1 1597.13   5
   0   6  -1 50661.2 1628.11   5
   0   6  -1 47099.3 1173.55   7
   0   6   1 50287.7 1625.00  16
   0   6  -2 69194.2 2001.83  16
   0   6   2 72118.0 2064.51  16
   0   6  -2 68040.2 2017.01   5
   0   6  -2 66078.1 1581.34   7
   0   6   2 66899.6 1992.10   5
   0   6  -3 2213.88 310.044  16
   0   6  -3 1949.47 221.331   7
   0   6   3 1956.19 326.891   5
   0   6   3 2022.05 334.922  16
   0   6  -3 1911.48 308.115   5
   0   6  -4 5576.97 355.969   7
   0   6   4 4949.75 490.303   5
   0   6  -4 5680.96 482.982  16
   0   6   5 21583.6 1040.66   5
   0   6  -5 20883.8 968.909  16
   0   6   6 9730.10 417.022  13
   0   6   6 11939.1 779.218   5
   0   6  -6 10210.6 651.952  16
   0   6   7 4931.98 293.754  13
   0   6  -7 5336.71 486.928  11
   0   6   7 5487.45 567.618   5
   0   6  -7 5497.75 491.714  16
   0   6  -8 5021.48 490.631  11
   0   6   8 4959.65 558.212   5
   0   6   8 5841.88 335.810  15
   0   6  -8 5276.22 473.621  16
   0   6   9 5118.24 601.719   5
   0   6  -9 6040.25 517.822  16
   0   6  -9 5914.72 551.357  11
   0   6   9 5759.74 594.883   9
   0   6  10 194.567 259.632   5
   0   6 -10 339.184 193.538  11
   0   6  10 434.960 264.967   9
   0   6 -10 305.628 180.023  16
   0   6  11 4648.03 614.169   5
   0   6  11 6000.14 638.427   9
   0   6 -11 4464.17 519.896  11
   0   6 -11 5015.51 475.826  16
   0   6  12 498.524 258.833   9
   0   6  12-281.261 283.995   5
   0   6 -12 211.857 193.130  11
   0   6 -12 213.619 207.789  16
   0   6 -13 969.744 305.894  11
   0   6  13 352.800 248.400   5
   0   6  13 1318.22 374.454   9
   0   6 -13 979.604 294.930  15
   0   6  14 5164.03 702.893   5
   0   6 -14 4643.31 562.732  11
   0   6  14 5194.91 628.118   9
   0   6 -14 5803.11 631.449  15
   0   6 -15 10375.5 829.254  15
   0   6  15 7526.90 875.386   5
   0   6  15 9069.61 865.753   9
   0   6 -15 7595.34 741.802  11
   0   6  16 1292.08 391.642   9
   0   6 -16 1119.84 333.250  11
   0   6 -17 211.213 270.923  11
   0   6  17 1056.35 386.163   9
   0   6 -18 270.972 255.482  11
   0   7   0 4.66888 172.491  16
   0   7   0-67.3038 194.872   5
   0   7  -1 106026. 2879.95   5
   0   7  -1 103081. 2258.29   7
   0   7   1 104438. 2869.58  16
   0   7  -1 104801. 2852.58  16
   0   7   1 106198. 2870.46   5
   0   7   2 524.370 224.583  16
   0   7  -2 1038.91 262.688  16
   0   7  -2 556.744 136.206   7
   0   7   2 357.022 221.583   5
   0   7  -2 535.612 221.395   5
   0   7  -3 38919.5 1511.95   5
   0   7  -3 40531.8 1123.77   7
   0   7  -3 40103.8 1498.49  16
   0   7   3 39670.7 1519.38   5
   0   7   4 3197.51 431.073   5
   0   7  -4 2928.58 383.354  16
   0   7  -4 3163.79 282.519   7
   0   7  -4 3910.67 452.944   5
   0   7   5 2036.08 379.012   5
   0   7  -5 2034.56 269.086   7
   0   7  -5 2249.18 339.884  16
   0   7   6 1848.14 362.604   5
   0   7  -6 2085.44 334.608  16
   0   7  -6 1665.00 247.807   7
   0   7  -7 7223.40 595.841  16
   0   7   7 6418.66 641.740   5
   0   7  -8 22669.3 1101.23  16
   0   7   8 22159.0 1240.14   5
   0   7   9 1370.31 375.117   5
   0   7   9 2061.88 424.575   9
   0   7  -9 815.125 245.222  16
   0   7  10 1920.83 417.326   9
   0   7  10 1560.38 441.191   5
   0   7 -10 2280.76 355.099  16
   0   7 -10 1810.69 359.834  11
   0   7 -11 16986.8 1020.15  11
   0   7 -11 17130.8 957.003  16
   0   7  11 17972.4 1167.25   9
   0   7  11 14896.6 1116.99   5
   0   7  12 14426.1 1053.26   9
   0   7  12 11569.2 998.339   5
   0   7 -12 12204.8 897.408  11
   0   7 -13 23193.4 1315.17  15
   0   7  13 18963.6 1349.36   5
   0   7  13 24022.1 1397.11   9
   0   7 -13 21339.5 1229.80  11
   0   7  14 13049.2 1148.89   5
   0   7  14 15189.9 1133.03   9
   0   7 -14 15176.0 1069.96  15
   0   7 -14 15339.4 1053.71  11
   0   7  15 3699.10 607.492   9
   0   7 -15 3162.71 498.596  15
   0   7  15 1612.00 512.289   5
   0   7 -15 2687.95 475.857  11
   0   7  16 1595.01 434.830   9
   0   7 -16 2549.45 471.714  11
   0   7 -17 1137.79 347.167  11
   0   8   0 30076.0 1356.55   5
   0   8   0 29274.9 1351.45  16
   0   8   1 9246.22 748.618   5
   0   8  -1 10186.3 764.148  16
   0   8   1 10855.0 801.701  16
   0   8  -1 10121.2 759.846   5
   0   8  -2 27003.9 1297.93   5
   0   8  -2 27724.7 1290.19  16
   0   8   2 28663.5 1332.65  16
   0   8   2 28131.1 1315.40   5
   0   8  -3 13309.3 866.728  16
   0   8   3 13762.7 897.643   5
   0   8  -3 14078.0 891.821   5
   0   8  -3 12030.1 529.976   7
   0   8   4 14922.4 943.488   5
   0   8  -4 12094.3 577.034   7
   0   8  -4 13258.5 854.587  16
   0   8  -4 14362.3 915.061   5
   0   8   5 12474.3 887.326   5
   0   8  -5 11205.4 576.380   7
   0   8  -5 11600.4 810.309  16
   0   8   6 11989.3 886.100   5
   0   8  -6 11949.4 623.049   7
   0   8  -6 11174.3 785.569  16
   0   8  -7 6024.97 470.750   7
   0   8  -7 6895.20 626.901  16
   0   8   7 6143.92 647.765   5
   0   8  -8 247.262 194.939   7
   0   8   8 244.849 303.651   5
   0   8  -8 193.181 218.041  16
   0   8  -9 3249.34 456.048  16
   0   8   9 3336.88 550.171   5
   0   8   9 3090.25 513.411   9
   0   8 -10 11457.2 813.044  16
   0   8  10 11090.5 975.972   5
   0   8  10 12440.8 987.984   9
   0   8  11 1030.14 332.569   9
   0   8  11 550.538 356.979   5
   0   8 -11 996.171 289.911  16
   0   8  12 5081.57 670.131   9
   0   8  12 4973.08 705.786   5
   0   8 -13 7031.44 780.752  15
   0   8  13 7140.37 842.627   5
   0   8  13 7707.87 827.169   9
   0   8  14 10750.0 1077.01   5
   0   8 -14 11408.0 920.768  11
   0   8 -14 11801.4 978.281  15
   0   8  14 11756.5 1038.21   9
   0   8 -15 1547.07 393.232  15
   0   8  15 1422.55 450.962   9
   0   8 -15 1660.50 390.524  11
   0   8 -16 7282.34 784.993  11
   0   9   0-166.935 248.070   5
   0   9   0 252.134 258.859  16
   0   9  -1 48798.0 1944.14   5
   0   9  -1 49788.8 1943.14  16
   0   9   1 51390.4 1981.01   5
   0   9   1 49496.7 1943.77  16
   0   9  -2 5290.56 600.934   5
   0   9   2 4524.11 567.332   5
   0   9  -2 5214.99 596.805  16
   0   9  -3 12468.9 886.502   5
   0   9   3 11127.5 870.317   5
   0   9  -3 11277.4 843.751  16
   0   9  -4 4341.43 529.651  16
   0   9  -4 4859.84 566.096   5
   0   9   4 5480.57 615.301   5
   0   9  -5 3387.35 493.669  16
   0   9   5 3173.21 486.612   5
   0   9  -6 2724.18 426.331  16
   0   9   6 1734.99 402.403   5
   0   9   7 1837.06 423.484   5
   0   9  -7 1649.63 380.264  16
   0   9   8 10981.6 924.358   9
   0   9  -8 11197.7 859.930  16
   0   9   8 11314.0 962.717   5
   0   9  -9 1917.11 377.006  16
   0   9   9 1093.28 351.694   5
   0   9   9 1770.68 422.763   9
   0   9  10 11006.3 1013.49   5
   0   9 -10 10825.3 866.896  16
   0   9  10 12136.3 1021.46   9
   0   9  11 4689.49 712.858   5
   0   9  11 3972.69 618.636   9
   0   9  12 1706.45 484.176   5
   0   9 -12 2257.34 493.159  15
   0   9  12 2536.10 536.361   9
   0   9  13 995.063 446.714   5
   0   9  13 1407.60 436.688   9
   0   9 -13 1357.02 387.169  15
   0   9 -14 5169.59 716.382  15
   0  10   0 20690.3 1252.98   5
   0  10   0 19265.6 1209.33  16
   0  10   1 18207.9 1169.91  16
   0  10  -1 16545.2 1121.21   5
   0  10  -1 17756.8 1149.67  16
   0  10   1 16840.3 1133.07   5
   0  10  -2 2360.09 482.249  16
   0  10  -2 2450.33 442.120   5
   0  10   2 1847.60 409.162   5
   0  10  -3 7140.01 737.773  16
   0  10  -3 9315.10 819.104   5
   0  10   3 7739.20 773.861   5
   0  10   4 13682.2 1041.15   5
   0  10  -4 15015.7 1039.87  16
   0  10   5 4370.48 636.598   5
   0  10  -5 4804.54 611.880  16
   0  10  -6 630.109 311.627  16
   0  10   6-251.513 289.027   5
   0  10   7 3863.89 604.197   5
   0  10  -7 4098.42 578.848  16
   0  10   7 4448.22 620.323   9
   0  10   8 4346.98 610.149   9
   0  10  -8 4485.20 591.556  16
   0  10   8 4317.73 691.180   5
   0  10  -9 2404.98 473.275  16
   0  10   9 1952.02 485.153   9
   0  10   9 1995.49 493.261   5
   0  10  10 2245.47 549.577   5
   0  10 -10 3115.70 509.883  16
   0  10  10 3267.02 585.070   9
   0  10  11 2693.30 577.938   9
   0  10 -11 2584.59 549.229  15
   0  10  11 2126.61 509.884   5
   0  10 -12 1347.41 432.599  15
   0  11   0-105.514 317.588   5
   0  11  -1 3171.08 535.647  16
   0  11   1 3613.92 582.013   5
   0  11  -1 2524.45 498.927   5
   0  11  -2 9136.20 879.097   5
   0  11  -2 11649.4 957.598  16
   0  11   2 10073.2 940.120   5
   0  11  -3 13745.6 1056.97   5
   0  11  -3 14268.6 1074.54  16
   0  11   3 12932.3 1074.72   5
   0  11  -4 5047.44 679.464  16
   0  11   4 5252.18 697.874   5
   0  11   4 4541.47 567.664  15
   0  11   5 1316.71 393.151   9
   0  11   5 837.402 355.373   5
   0  11  -5 1653.62 452.233  16
   0  11   6-48.3890 240.002   9
   0  11   6 961.401 401.685   5
   0  11  -6 501.163 331.479  16
   0  11  -7 4090.76 589.037  16
   0  11   7 3932.50 619.569   9
   0  11   7 3748.22 616.831   5
   0  11   8 553.640 343.973   5
   0  11   8 684.915 325.128   9
   0  11  -8 1191.82 357.636  16
   0  11  -9 18576.7 1249.93  16
   0  11   9 20526.3 1422.33   9
   0  11   9 17378.5 1338.98   5
   0  12   0 15647.0 1228.36   5
   0  12  -1 4946.21 696.601   5
   0  12   1 4532.86 677.983   5
   0  12   2 146.875 296.196   5
   0  12  -2 673.437 321.519   5
   0  12   2 369.532 251.263  15
   0  12   2 317.728 328.798   9
   0  12  -2 969.358 319.815  16
   0  12  -3 6034.06 758.215  16
   0  12   3 5632.93 769.444   5
   0  12  -3 6105.57 770.648   5
   0  12   3 5771.72 709.446   9
   0  12   3 6200.50 710.313  15
   0  12   4 5495.01 741.835   5
   0  12  -4 5632.07 725.530  16
   0  12   4 5499.24 716.978   9
   0  12   5 2360.04 526.509   5
   0  12   5 2465.71 509.178   9
   0  12  -5 3063.04 566.400  16
   0  12   6 12210.2 1084.66   9
   0  12  -6 12106.4 1060.51  16
   0  12  -7 2461.32 518.774  16
   0  12  -8 11663.2 1041.78  16
   0  13   0-124.248 283.800  15
   0  13   1 1531.02 405.095  15
   0  13   1 2232.78 479.664   9
   0  13   2 2028.47 456.200   9
   0  13   2 1416.25 440.049  15
   0  13   3 156.123 257.545   9
   1 -13  -5 3674.69 579.729  10
   1 -13  -4 2989.08 524.253  10
   1 -13  -3 3827.47 565.104  10
   1 -12  -5 3115.50 539.912  10
   1 -12  -5 3176.98 632.441   1
  -1 -12   5 2915.15 548.333   1
   1 -12  -4 6727.32 720.340  10
   1 -12  -4 6529.99 814.027   1
  -1 -12   4 6450.76 807.251   1
   1 -12  -3 2944.59 558.448   1
  -1 -12   3 3292.65 588.960   1
   1 -12  -3 2579.72 489.947  10
   1 -12  -2 1165.78 338.013  10
  -1 -12   2 1194.02 446.003  10
   1 -12  -2 1205.21 445.817   1
  -1 -12   2 799.284 395.766   1
  -1 -12   1 6029.51 802.153   1
   1 -12  -1 4979.35 657.076  10
   1 -12  -1 5559.20 758.125   1
  -1 -12   1 4623.98 659.433  10
  -1 -12   0 1470.67 424.639  10
  -1 -12   0 2130.09 527.800   1
   1 -12   0 1219.04 420.360  10
   1 -12   0 1869.64 460.696   1
   1 -12   1 1978.35 497.324   1
  -1 -12  -1 1655.41 463.777   1
  -1 -12  -1 2143.94 493.343  10
  -1 -12  -1 2029.65 438.651  14
  -1 -12  -2 1531.10 471.965  10
  -1 -12  -2 2212.88 477.845  14
   1 -12   2 2318.94 531.851   1
  -1 -12  -2 967.870 383.733   1
  -1 -12  -3 2218.28 548.657   1
  -1 -12  -3 1398.61 410.577  14
   1 -12   3 2220.12 540.540   1
  -1 -12  -3 1851.67 427.407  10
  -1 -12  -4 1829.45 579.249   1
  -1 -12  -4 1453.83 373.284  14
  -1 -12  -4 886.920 356.337  10
   1 -12   4 1458.90 474.647   1
  -1 -12  -5 2690.79 535.983  14
  -1 -12  -5 2698.55 566.772   1
  -1 -12  -6 2872.60 562.742  14
  -1 -12  -7 4042.55 637.173  14
   1 -11  -9 4054.31 640.869  12
  -1 -11   9 3195.34 613.332   1
   1 -11  -8 638.169 399.487   1
   1 -11  -8-39.0836 352.685  12
  -1 -11   8 663.091 399.581   1
   1 -11  -7 1060.22 390.069   1
  -1 -11   7 1260.50 411.220   1
   1 -11  -6 12423.0 1062.10   1
  -1 -11   6 10843.9 961.603   1
  -1 -11   5 3665.14 630.282   1
   1 -11  -5 3221.14 551.935   1
   1 -11  -4 32344.1 1695.95   1
   1 -11  -4 29639.4 1482.61  10
  -1 -11   4 29270.9 1579.93   1
  -1 -11   3 9838.16 895.979   1
  -1 -11   3 8513.85 848.654  10
   1 -11  -3 8990.34 794.542  10
   1 -11  -3 11340.0 978.188   1
  -1 -11   2 12686.4 1016.79  10
   1 -11  -2 12029.1 915.238  10
  -1 -11   2 11827.1 921.120  14
   1 -11  -2 14366.3 1090.59   1
  -1 -11   2 13949.2 1058.69   1
  -1 -11   1 19749.5 1186.84  14
  -1 -11   1 16992.8 1197.26  10
  -1 -11   1 20455.9 1291.13   1
   1 -11  -1 20736.0 1328.20   1
   1 -11  -1 17733.7 1132.24  10
  -1 -11   0 1030.55 325.591  14
   1 -11   0 874.157 426.892   1
  -1 -11   0 1917.98 473.290   1
   1 -11   0 1256.68 354.757  10
  -1 -11   0 1107.96 405.259  10
  -1 -11  -1 6383.98 765.944   1
   1 -11   1 4719.44 633.463   1
  -1 -11  -1 4927.22 601.593  14
   1 -11   1 4504.03 571.323  10
  -1 -11  -1 4512.10 615.779  10
   1 -11   2 2571.95 564.030   1
  -1 -11  -2 2660.98 470.334  14
  -1 -11  -2 3184.39 562.330   1
  -1 -11  -2 2855.30 487.671  10
  -1 -11  -3 1557.84 368.243  14
  -1 -11  -3 2250.35 503.761   1
  -1 -11  -3 1273.75 325.737  10
   1 -11   3 1222.22 413.036   1
  -1 -11  -4 676.663 382.783   1
  -1 -11  -4 733.661 286.829  14
   1 -11   4 316.088 322.653   1
  -1 -11  -5 2278.00 525.942   1
   1 -11   5 2594.81 538.636   1
  -1 -11  -5 2386.44 458.774  14
   1 -11   6 2998.35 612.161   1
  -1 -11  -6 2621.23 511.793  14
  -1 -11  -6 2838.09 549.019   1
   1 -11   7 9281.44 924.030   1
  -1 -11  -7 9945.00 958.524   1
  -1 -11  -7 9648.26 909.858  14
  -1 -11  -8 504.733 322.837   1
  -1 -11  -8 360.119 280.106  12
   1 -11   8 464.794 414.605   1
  -1 -11  -8 1161.69 390.910  14
  -1 -11  -9 3574.46 614.054  14
  -1 -10  11 6419.67 816.739   1
   1 -10 -11 6649.86 808.782  12
  -1 -10  10 1331.07 499.751   1
   1 -10 -10 1220.10 431.901  12
   1 -10  -9 1477.76 423.435  12
  -1 -10   9 1127.97 401.707   1
   1 -10  -8 2640.34 486.098  12
  -1 -10   8 2457.98 496.731   1
   1 -10  -7 1092.86 327.391  12
  -1 -10   7 925.036 376.963   1
  -1 -10   6 987.268 371.547   1
   1 -10  -6 968.035 349.304  12
   1 -10  -6 1346.73 395.942   1
   1 -10  -5 1377.12 297.434  14
   1 -10  -5 1118.23 383.641   1
  -1 -10   5 1001.63 356.220   1
  -1 -10   5 1646.68 347.363  14
   1 -10  -4 3742.82 450.298  14
  -1 -10   4 2920.12 439.777  14
  -1 -10   4 2907.04 490.797   1
   1 -10  -4 4255.96 583.935   1
  -1 -10   3 11337.6 900.164   1
  -1 -10   3 11749.1 871.980  14
   1 -10  -3 13515.0 893.840  10
  -1 -10   3 10065.2 869.786  10
   1 -10  -3 14380.6 1058.90   1
  -1 -10   2 1846.23 437.111   1
  -1 -10   2 1912.52 389.902  14
   1 -10  -2 2575.23 497.239   1
  -1 -10   2 1680.97 436.267  10
   1 -10  -2 1936.23 354.533  10
  -1 -10   1-384.550 322.922  10
   1 -10  -1 391.353 253.575  10
   1 -10  -1-357.682 338.572   1
  -1 -10   1 143.176 182.605  14
  -1 -10   1-153.202 248.604   1
  -1 -10   0 15406.5 1063.89  10
  -1 -10   0 19376.1 1178.54   1
   1 -10   0 19136.1 1202.66   1
   1 -10   0 17592.2 1028.85  10
  -1 -10   0 18406.2 1106.23  14
   1 -10   1 1807.80 346.155  10
  -1 -10  -1 2484.86 455.562  10
  -1 -10  -1 3212.40 485.106  14
   1 -10   1 3484.22 538.312   1
  -1 -10  -1 3040.30 500.146   1
  -1 -10  -2 3613.48 501.138  14
  -1 -10  -2 2161.46 419.173  10
  -1 -10  -2 4211.36 582.444   1
   1 -10   2 3404.09 527.717   1
  -1 -10  -3 12360.0 932.001  14
  -1 -10  -3 14406.1 1061.21   1
   1 -10   3 14024.8 1026.90   1
   1 -10   4 336.514 310.333   1
  -1 -10  -4 385.082 243.588  14
  -1 -10  -4 335.702 313.112   1
  -1 -10  -5 2572.18 458.963  14
   1 -10   5 2407.89 507.059   1
  -1 -10  -5 2052.74 475.600   1
  -1 -10  -6 445.539 353.785   1
   1 -10   6 552.552 371.159   1
  -1 -10  -6 239.747 269.812  14
  -1 -10  -6 238.901 275.724  12
  -1 -10  -7 7023.39 771.606  12
   1 -10   7 6248.59 764.919   1
  -1 -10  -7 6565.38 730.101  14
  -1 -10  -8 11457.6 996.916  12
   1 -10   8 9342.42 927.865   1
  -1 -10  -8 10746.3 956.154  14
   1 -10   9 4006.77 657.095   1
  -1 -10  -9 4684.27 686.747  12
  -1 -10  -9 5747.50 730.845  14
  -1 -10 -10 2510.29 512.644  12
  -1 -10 -10 3322.11 594.025  14
   1 -10  10 2516.11 561.580   1
  -1 -10 -11 1559.23 441.997  12
  -1 -10 -11 2004.87 479.532  14
   1  -9 -13 3404.96 593.940  12
  -1  -9  13 2673.38 595.028   1
  -1  -9  12 2220.12 543.008   1
   1  -9 -12 1064.32 388.171  12
   1  -9 -11 3243.19 566.555  12
  -1  -9  11 2957.98 584.794   1
   1  -9 -10 3921.95 600.955  12
  -1  -9  10 2673.11 524.067   1
   1  -9  -9 5994.54 711.582  12
  -1  -9   9 5316.62 677.848   1
  -1  -9   8 412.864 327.265   1
  -1  -9   8 301.574 212.111  14
   1  -9  -8-80.7864 276.492  12
  -1  -9   7 4315.11 499.511  14
  -1  -9   7 5039.15 617.860   1
   1  -9  -7 5140.25 632.112  12
   1  -9  -6 4148.21 569.818  12
  -1  -9   6 2891.12 427.948  14
  -1  -9   6 3527.32 536.902   1
   1  -9  -5 1736.41 314.388  14
   1  -9  -5 1598.51 375.392  12
   1  -9  -5 2037.16 436.299   1
  -1  -9   5 2044.14 405.907   1
  -1  -9   5 1288.07 292.457  14
   1  -9  -4 1537.73 416.856   1
  -1  -9   4 1349.10 353.757   1
  -1  -9   4 1938.00 351.777  14
   1  -9  -4 1334.58 266.085  14
  -1  -9   4 1552.75 385.457  10
  -1  -9   3 5759.69 590.209  14
   1  -9  -3 5852.98 634.331   1
  -1  -9   3 5241.60 609.359  10
   1  -9  -3 5535.70 491.989  14
  -1  -9   3 6081.48 658.810   1
   1  -9  -2 5693.51 475.395  14
   1  -9  -2 4864.12 522.873  10
  -1  -9   2 5722.05 625.093   1
  -1  -9   2 5189.45 585.345  10
   1  -9  -2 6629.79 672.766   1
  -1  -9   2 5286.00 547.130  14
   1  -9  -1 18600.3 1031.22  10
  -1  -9   1 20106.8 1090.73  14
   1  -9  -1 22300.6 1212.10   1
  -1  -9   1 21743.8 1187.28   1
   1  -9  -1 20517.9 894.483  14
  -1  -9   1 21281.1 1155.25  10
  -1  -9   0 1662.17 350.593  10
  -1  -9   0 2059.05 363.590  14
   1  -9   0 1716.62 336.184  10
  -1  -9   0 2082.19 384.643   1
   1  -9   0 2077.93 420.592   1
  -1  -9  -1 20332.8 1140.89  10
  -1  -9  -1 22305.0 1221.68   1
   1  -9   1 19438.8 1026.62  10
  -1  -9  -1 21278.8 1151.61  14
   1  -9   1 21607.3 1210.59   1
   1  -9   2 10663.5 741.620  10
  -1  -9  -2 12105.1 860.293  14
   1  -9   2 12000.2 900.111   1
  -1  -9  -2 12589.6 911.773   1
   1  -9   3 3703.39 533.683   1
  -1  -9  -3 3902.97 520.979   1
  -1  -9  -3 3537.44 488.184  14
  -1  -9  -4 14295.2 974.429   1
  -1  -9  -4 14236.2 965.928  14
   1  -9   4 14004.8 978.918   1
  -1  -9  -5 14814.9 1003.08  14
   1  -9   5 14490.4 1009.57   1
  -1  -9  -5 15612.8 1054.92  12
  -1  -9  -6 9730.03 839.090  12
  -1  -9  -6 9974.58 835.229  14
   1  -9   6 9507.59 827.709   1
   1  -9   7 3538.24 552.593   1
  -1  -9  -7 4228.40 557.420  12
  -1  -9  -7 4356.03 560.545  14
  -1  -9  -8 10633.8 906.102  14
  -1  -9  -8 10643.1 907.573  12
   1  -9   8 10390.9 911.152   1
  -1  -9  -9 204.724 292.101  12
   1  -9   9 454.745 335.898   1
  -1  -9  -9 344.295 280.932  14
  -1  -9 -10 12504.3 1046.74  14
  -1  -9 -10 12648.2 1040.03  12
   1  -9  10 11629.7 1040.63   1
  -1  -9 -11 4793.14 665.837  12
   1  -9  11 4458.62 699.707   1
  -1  -9 -11 4691.61 665.281  14
  -1  -9 -12 3498.35 599.819  14
   1  -9  12 3439.49 640.374   1
  -1  -9 -12 3253.13 565.411  12
  -1  -8  14 7636.20 897.732   1
  -1  -8  14 7608.14 852.404  13
   1  -8 -14 6413.84 784.662  12
   1  -8 -13 2641.92 529.162  12
  -1  -8  13 2717.32 555.661   1
  -1  -8  13 2109.51 467.826  13
  -1  -8  12 1769.95 486.187   1
  -1  -8  12 1051.38 409.516  13
   1  -8 -12 1476.09 400.669  12
  -1  -8  11 4327.31 625.786   1
   1  -8 -11 4696.51 616.948  12
  -1  -8  11 4538.87 621.337  13
  -1  -8  10 15814.1 1110.84   1
   1  -8 -10 17640.5 1164.27  12
  -1  -8  10 16041.2 1075.21  13
   1  -8  -9-56.5934 241.459  12
  -1  -8   9 463.744 333.104   1
  -1  -8   9 260.810 313.239  13
  -1  -8   8 1404.20 348.403  13
  -1  -8   8 1350.99 361.397   1
   1  -8  -8 2294.88 434.971  12
  -1  -8   7 5244.66 585.330   1
   1  -8  -7 5646.48 618.861  12
   1  -8  -6 614.532 271.948  12
  -1  -8   6 498.120 195.514  14
  -1  -8   6 354.092 225.672   1
   1  -8  -6 752.304 233.490  14
   1  -8  -5 16963.6 881.876  14
  -1  -8   5 15310.7 945.199   1
   1  -8  -5 17002.6 1051.47  12
  -1  -8   5 14892.0 876.241  14
   1  -8  -4 4053.66 491.413  12
   1  -8  -4 3250.15 375.005  14
  -1  -8   4 3054.56 428.436   1
  -1  -8   4 2833.07 388.364  14
  -1  -8   4 2625.18 421.335  10
  -1  -8   3 9601.08 695.061  14
  -1  -8   3 8024.00 684.010  10
   1  -8  -3 10212.7 779.006   1
  -1  -8   3 9528.26 734.634   1
   1  -8  -3 10068.3 609.406  14
  -1  -8   2 102950. 2980.02  10
   1  -8  -2 110205. 2680.96  14
  -1  -8   2 108757. 3031.18   1
   1  -8  -2 114612. 3135.39   1
  -1  -8   2 103257. 2955.32  14
   1  -8  -1 5543.02 508.146  10
  -1  -8   1 5373.26 549.278   1
  -1  -8   1 4828.72 535.830  10
   1  -8  -1 4989.55 552.178   1
  -1  -8   1 5535.34 540.400  14
   1  -8  -1 5484.08 414.295  14
  -1  -8   0 9679.53 726.945   1
  -1  -8   0 9152.87 711.057  10
   1  -8   0 9743.30 652.627  10
   1  -8   0 11126.1 794.805   1
   1  -8   0 10076.5 545.472  14
  -1  -8   0 10826.8 751.478  14
   1  -8   1 8381.98 600.651  10
  -1  -8  -1 8264.41 676.904  14
   1  -8   1 8794.87 715.649   1
   1  -8   1 8846.07 490.769  14
  -1  -8  -1 9368.28 723.649   1
   1  -8   2 44196.8 1742.72   1
   1  -8   2 45096.1 1574.72  10
  -1  -8  -2 49862.0 1796.58   1
  -1  -8  -2 48737.9 1773.40  14
   1  -8   3 10687.3 786.800   1
  -1  -8  -3 9117.25 713.381  14
  -1  -8  -3 10051.1 739.443   1
  -1  -8  -4 9887.86 784.500  12
  -1  -8  -4 11383.9 821.130  14
   1  -8   4 10800.5 801.020   1
   1  -8   5 8152.61 727.848   1
  -1  -8  -5 10044.5 786.288  14
  -1  -8  -5 8229.98 717.844  12
   1  -8   6 6003.76 625.641   1
  -1  -8  -6 5323.48 582.707  14
  -1  -8  -6 6191.20 633.959  12
  -1  -8  -7 10546.4 829.481  12
   1  -8   7 10234.5 834.521   1
  -1  -8  -7 11526.5 888.150  14
  -1  -8  -8 1426.29 368.488  14
   1  -8   8 970.752 363.937   1
  -1  -8  -8 993.569 285.331  12
  -1  -8  -9 1591.59 383.097  14
  -1  -8  -9 2105.93 450.367  12
   1  -8   9 992.508 378.292   1
  -1  -8 -10 1208.60 302.793  12
  -1  -8 -10 1579.87 393.444  14
   1  -8  10 1393.25 429.140   1
   1  -8  11 246.415 329.492   1
  -1  -8 -11 241.556 259.356  12
  -1  -8 -11 899.798 336.800  14
  -1  -8 -12 5040.32 667.677  12
   1  -8  12 3981.55 625.775   1
  -1  -8 -12 3513.23 601.520  14
  -1  -8 -13 3279.76 556.888  12
   1  -8  13 3688.06 648.985   1
   1  -8  14-113.101 310.736   1
  -1  -8 -14 467.161 347.217  12
  -1  -7  16 5528.14 760.118  13
  -1  -7  16 5339.62 760.082   1
   1  -7 -16 6415.75 806.365  12
  -1  -7  15 12378.1 1112.76   1
   1  -7 -15 13146.5 1101.17  12
  -1  -7  15 14357.0 1154.22  13
  -1  -7  14 8973.10 906.514   1
  -1  -7  14 9237.56 918.176  13
   1  -7 -14 8835.81 882.012  12
  -1  -7  13 7450.46 822.700   1
  -1  -7  13 6578.09 765.546  13
   1  -7 -13 7152.03 771.602  12
   1  -7 -12 4040.16 570.532  12
  -1  -7  12 3603.72 571.671   1
  -1  -7  12 2965.73 509.918  13
  -1  -7  11 2047.36 410.058  13
  -1  -7  11 2546.26 455.059   1
   1  -7 -11 2440.26 451.848  12
   1  -7 -10 1893.50 392.208  12
  -1  -7  10 1695.55 399.807  13
  -1  -7  10 1888.02 434.468   1
   1  -7  -9 211.884 217.792  12
  -1  -7   9-112.290 239.509   1
  -1  -7   9 521.056 273.482  13
  -1  -7   8 18345.6 1046.73  13
   1  -7  -8 19895.4 1127.91  12
  -1  -7   8 19431.5 1078.73   1
  -1  -7   7 10330.6 738.406  13
   1  -7  -7 12461.2 859.891  12
  -1  -7   7 10856.4 788.304   1
  -1  -7   6 10129.4 738.497   1
   1  -7  -6 10246.3 767.068  12
  -1  -7   6 9457.93 687.880  13
   1  -7  -5 1969.32 353.311  12
  -1  -7   5 1729.00 340.434   1
  -1  -7   5 2122.03 337.807  13
   1  -7  -5 2092.32 295.047  14
   1  -7  -4 5785.65 569.503  12
  -1  -7   4 6566.41 586.603   1
   1  -7  -4 6171.10 483.587  14
  -1  -7   4 5540.23 542.247  10
   1  -7  -4 6591.33 350.850   6
  -1  -7   4 5259.72 495.374  14
   1  -7  -3 1496.22 323.906  12
  -1  -7   3 1247.86 285.183  14
  -1  -7   3 1298.04 296.170  10
   1  -7  -3 1255.03 220.717  14
  -1  -7   3 1620.30 321.023   1
  -1  -7   2 21467.7 1054.90  10
  -1  -7   2 20012.1 1003.24  14
  -1  -7   2 21821.8 1039.60   1
   1  -7  -2 22599.7 1086.20   1
   1  -7  -2 21169.2 851.037  14
   1  -7  -1 25684.3 1167.51   1
  -1  -7   1 25220.1 1139.94   1
  -1  -7   1 25142.8 1134.29  14
  -1  -7   1 24505.3 1123.11  10
   1  -7  -1 25598.7 912.259  14
  -1  -7   0 19734.1 999.320  10
  -1  -7   0 22020.5 1045.47  14
   1  -7   0 20069.1 895.607  10
  -1  -7   0 21811.2 1041.14   1
   1  -7   0 20694.6 1030.31   1
   1  -7   0 21008.6 776.919  14
  -1  -7  -1 48963.1 1714.16  14
   1  -7   1 47686.4 1531.36  10
   1  -7   1 49175.0 1318.26  14
  -1  -7  -1 49018.0 1702.89   1
   1  -7   1 49239.3 1723.24   1
   1  -7   2 34991.2 1006.38  14
   1  -7   2 31035.8 1231.58  10
   1  -7   2 37344.8 1447.68   1
  -1  -7  -2 36004.8 1400.41  14
  -1  -7  -2 35898.3 1397.13   1
   1  -7   3 7259.71 607.331   1
   1  -7   3 7326.17 374.874  14
  -1  -7  -3 7314.51 603.193  14
  -1  -7  -3 7208.72 624.083  12
   1  -7   4 9437.89 428.828  14
  -1  -7  -4 10465.7 732.354  14
   1  -7   4 10529.3 753.845   1
  -1  -7  -4 9721.11 712.135  12
   1  -7   5 4443.71 497.793   1
  -1  -7  -5 4345.42 496.234  12
  -1  -7  -5 4876.51 526.533  14
   1  -7   6 24336.8 1207.98   1
  -1  -7  -6 25353.3 1247.08  12
  -1  -7  -6 23461.6 1186.58  14
   1  -7   7 4167.48 547.855   1
  -1  -7  -7 3860.71 503.249  12
  -1  -7  -7 3710.28 506.506  14
   1  -7   8 55562.0 2045.20   1
  -1  -7  -8 53364.7 2021.67  14
  -1  -7  -8 56797.6 2065.72  12
   1  -7   9 18715.1 1146.08   1
  -1  -7  -9 19942.6 1158.06  12
  -1  -7  -9 20017.7 1203.62  14
   1  -7  10 120.762 284.357   1
  -1  -7 -10 194.499 208.899  14
  -1  -7 -10 607.830 299.428  12
   1  -7  11 13668.8 1046.39   1
  -1  -7 -11 14221.8 1061.17  14
  -1  -7 -11 15131.4 1053.46  12
  -1  -7 -12 938.078 329.234  12
   1  -7  12 592.243 382.802   1
  -1  -7 -12 840.148 337.304  14
  -1  -7 -13 4411.64 627.703  12
   1  -7  13 5767.48 727.320   1
  -1  -7 -14 6180.00 727.958  12
   1  -7  14 4542.74 693.690   1
   1  -7  15 886.712 444.220   1
  -1  -7 -15 460.661 290.937  12
  -1  -6  17 559.323 391.407  13
  -1  -6  17 428.726 346.500   1
   1  -6 -16 3668.33 599.234  12
  -1  -6  16 3842.90 654.729   1
  -1  -6  16 4163.40 676.903  13
   1  -6 -15 1821.01 453.771  12
  -1  -6  15 1507.29 470.102  13
  -1  -6  15 2192.15 501.922   1
  -1  -6  14 1951.13 483.645  13
  -1  -6  14 1851.44 472.403   1
   1  -6 -14 696.848 312.060  12
   1  -6 -13 4132.27 565.681  12
  -1  -6  13 3356.07 542.278   1
  -1  -6  13 3616.46 561.447  13
  -1  -6  12 9262.98 824.922  13
   1  -6 -12 9226.72 816.122  12
  -1  -6  12 8780.96 776.000   1
  -1  -6  11 1596.40 381.131   1
  -1  -6  11 965.219 344.996  13
   1  -6 -11 1178.18 328.568  12
  -1  -6  10 6136.57 630.681  13
   1  -6 -10 5761.58 605.412  12
  -1  -6  10 5746.69 600.974   1
  -1  -6   9 4284.55 526.498  13
   1  -6  -9 4807.94 536.270  12
  -1  -6   9 4782.88 530.250   1
  -1  -6   8 4854.95 504.508   1
   1  -6  -8 5030.37 540.300  12
  -1  -6   8 4522.18 499.808  13
  -1  -6   7 5959.31 557.806  13
  -1  -6   7 5799.71 552.297   1
   1  -6  -7 6282.78 572.205  12
   1  -6  -6 1749.29 305.327  12
  -1  -6   6 1823.76 328.163   1
  -1  -6   6 1828.53 329.170  13
  -1  -6   5 6510.12 536.583   1
  -1  -6   5 5898.02 501.369  13
   1  -6  -5 5665.84 457.795  14
   1  -6  -5 6491.67 572.899  12
  -1  -6   4 3367.52 413.323  10
   1  -6  -4 3149.38 391.309  12
  -1  -6   4 3530.79 383.942  13
   1  -6  -4 3599.22 207.434   7
   1  -6  -4 3346.77 338.425  14
  -1  -6   4 3731.05 407.382   1
   1  -6  -4 3929.52 252.294   6
  -1  -6   3 11743.0 623.786  13
  -1  -6   3 9736.71 651.392  14
   1  -6  -3 11527.8 728.860  12
  -1  -6   3 10737.3 683.675  10
   1  -6  -3 10435.7 572.585  14
   1  -6  -3 10095.5 313.554   7
  -1  -6   3 12060.1 696.323   1
   1  -6  -2 7088.58 542.292   1
  -1  -6   2 5896.47 483.395  14
   1  -6  -2 6544.60 405.341  14
  -1  -6   2 5664.32 496.815   1
  -1  -6   2 6050.76 505.001  10
   1  -6  -2 6051.53 536.979  12
  -1  -6   1 10891.2 674.516  14
   1  -6  -1 11546.4 683.101   1
   1  -6  -1 10756.7 513.609  14
  -1  -6   1 11016.8 660.329   1
  -1  -6   1 11231.7 683.239  10
   1  -6   0 25293.2 951.923  10
   1  -6   0 26101.4 832.348  14
  -1  -6   0 28064.9 1140.12  14
   1  -6   0 28986.0 1150.98   1
  -1  -6   0 25849.8 1082.00   1
  -1  -6  -1 4398.68 426.359   1
   1  -6   1 4085.50 350.753  10
   1  -6   1 4478.66 283.382  14
   1  -6   1 4636.49 444.740   1
  -1  -6  -1 3956.35 420.299  14
   1  -6   2 30041.6 1198.73   1
  -1  -6  -2 31773.2 1220.81  14
  -1  -6  -2 28064.0 1174.86  12
   1  -6   2 28879.3 1038.44  10
   1  -6   2 28189.3 811.525  14
  -1  -6  -3 1950.33 307.071  14
   1  -6   3 2016.95 171.207  14
  -1  -6  -3 2399.42 331.378  12
   1  -6   3 1961.27 347.830   1
   1  -6   4 20151.3 630.694  14
  -1  -6  -4 23387.7 1057.52  12
  -1  -6  -4 24858.4 1076.10  14
  -1  -6  -4 19354.9 550.161   6
   1  -6   4 23741.1 1057.17   1
   1  -6   5 13240.0 416.010   2
  -1  -6  -5 15042.7 855.081  12
   1  -6   5 13719.2 509.641  14
  -1  -6  -5 16689.6 896.813  14
   1  -6   5 16022.1 871.274   1
   1  -6   6 34506.0 1388.69   1
  -1  -6  -6 32331.3 1363.13  12
  -1  -6  -6 31846.7 1363.71  14
  -1  -6  -7 69923.4 2259.44  14
   1  -6   7 71457.9 2236.39   1
  -1  -6  -7 67885.6 2203.56  12
   1  -6   8 6402.42 609.372   1
  -1  -6  -8 5441.60 569.373  14
  -1  -6  -8 5485.76 552.921  12
   1  -6   9 999.159 337.028   1
  -1  -6  -9 818.106 263.526  14
  -1  -6  -9 1218.77 329.607  12
   1  -6  10 4846.36 563.251   1
  -1  -6 -10 4284.73 544.580  14
  -1  -6 -10 5628.21 614.480  12
   1  -6  11 13817.6 987.247   1
  -1  -6 -11 12941.7 947.563  14
  -1  -6 -11 13098.9 951.823  12
  -1  -6 -12 307.410 258.549  12
   1  -6  12 543.916 308.657   1
  -1  -6 -12 252.544 217.126  14
  -1  -6 -13 4178.39 584.055  12
   1  -6  13 5258.43 673.428   1
  -1  -6 -14 679.565 354.949  12
   1  -6  14 1083.03 392.724   1
   1  -6  15-9.63779 281.830   1
  -1  -6 -15-349.814 269.666  12
   1  -6  16 1378.17 464.878   1
  -1  -6 -16 1531.66 461.084  12
   1  -5 -17 6339.24 775.169  12
  -1  -5  17 6661.12 792.313   1
  -1  -5  17 6614.62 828.683  13
   1  -5 -16 1278.33 375.360  12
  -1  -5  16 1175.52 406.581  13
  -1  -5  16 1076.70 461.252   1
  -1  -5  15 4299.39 665.335  13
  -1  -5  15 3178.42 570.147   1
   1  -5 -15 4569.29 627.224  12
  -1  -5  14 2972.25 514.918  13
  -1  -5  14 2816.32 512.470   1
   1  -5 -14 2813.07 459.429  12
  -1  -5  13 3804.62 550.588   1
  -1  -5  13 4125.77 589.856  13
   1  -5 -13 5034.78 598.034  12
  -1  -5  12 3041.35 474.481   1
   1  -5 -12 2917.30 426.990  12
  -1  -5  12 3150.75 489.005  13
  -1  -5  11 1715.02 412.071  13
  -1  -5  11 720.508 302.681   1
   1  -5 -11 1006.07 291.826  12
   1  -5 -10 5588.68 567.385  12
  -1  -5  10 4006.48 507.762  13
  -1  -5  10 5091.16 544.390   1
  -1  -5   9 6240.47 590.630  13
  -1  -5   9 5353.35 542.470   1
   1  -5  -9 5028.07 533.675  12
  -1  -5   8 3414.46 416.471   1
   1  -5  -8 3502.83 430.952  12
  -1  -5   8 3091.54 412.407  13
  -1  -5   7 5873.98 530.608  13
  -1  -5   7 6036.49 508.995   1
   1  -5  -7 6406.41 550.181  12
  -1  -5   6 104203. 2659.07   1
  -1  -5   6 99864.6 2652.46  13
   1  -5  -6 104124. 2740.47  12
  -1  -5   5 13072.1 707.637  13
  -1  -5   5 13397.7 722.743   1
   1  -5  -5 13437.0 757.283  12
   1  -5  -4 112464. 2715.59  14
   1  -5  -4 112156. 2919.45  12
  -1  -5   4 116128. 2827.82   1
   1  -5  -4 119193. 2421.48   6
  -1  -5   4 116017. 2776.09  13
   1  -5  -3 4965.45 439.869  12
  -1  -5   3 4650.26 392.951   1
   1  -5  -3 4376.85 330.555  14
  -1  -5   3 4889.30 440.741  10
   1  -5  -3 4720.93 286.829   6
  -1  -5   3 4870.34 378.419  13
  -1  -5   2 71264.3 1953.80  10
  -1  -5   2 73622.7 1938.67   1
  -1  -5   2 68937.5 1768.27  13
   1  -5  -2 69746.3 2006.00  12
   1  -5  -2 71336.1 1742.70  14
  -1  -5   2 70840.1 1954.03  14
  -1  -5   1 7343.07 504.076  10
   1  -5  -1 7934.35 529.298   1
  -1  -5   1 7755.27 410.534  13
  -1  -5   1 7725.94 501.247   1
   1  -5  -1 7610.86 383.161  14
  -1  -5   1 8191.57 540.104  14
  -1  -5   0 13153.0 680.221   1
   1  -5   0 13910.9 707.222   1
   1  -5   0 13275.4 487.264  14
   1  -5   0 12283.4 584.501  10
  -1  -5   0 13794.1 706.067  14
  -1  -5  -1 2893.26 338.749  12
  -1  -5  -1 2507.73 310.853  14
   1  -5   1 3265.18 285.379  10
   1  -5   1 3167.10 201.303  14
  -1  -5  -1 2466.51 301.846   1
   1  -5   1 3066.24 344.921   1
   1  -5   2 5561.77 254.894  14
  -1  -5  -2 5265.88 443.839  14
   1  -5   2 5939.06 466.384   1
  -1  -5  -2 4368.22 412.641  12
   1  -5   2 4957.77 378.530  10
   1  -5   3 29005.3 755.596  14
   1  -5   3 34014.5 1190.52   1
  -1  -5  -3 31252.9 1176.23  14
  -1  -5  -3 31919.1 1172.81  12
   1  -5   4 28405.2 702.184   2
   1  -5   4 30371.0 1141.28   1
  -1  -5  -4 29086.7 1135.24  12
   1  -5   4 25651.0 713.215  14
  -1  -5  -4 25620.3 657.313   6
  -1  -5  -4 29406.4 1146.09  14
   1  -5   5 11261.8 691.632   1
  -1  -5  -5 12481.0 711.102  12
  -1  -5  -5 11395.5 707.170  14
   1  -5   6 12274.3 742.853   1
  -1  -5  -6 11314.8 706.508  12
  -1  -5  -6 10223.9 699.546  14
   1  -5   7 10744.1 728.846   1
  -1  -5  -7 11594.0 751.955  14
  -1  -5  -7 10780.8 708.256  12
   1  -5   8 59143.7 1943.54   1
  -1  -5  -8 56799.2 1944.48  14
  -1  -5  -8 57680.8 1933.31  12
   1  -5   9 55215.1 1910.07   1
  -1  -5  -9 53913.4 1901.82  12
  -1  -5  -9 53306.7 1940.58  14
  -1  -5 -10 13803.7 903.995  12
  -1  -5 -10 13960.5 933.587  14
   1  -5  10 14033.5 908.925   1
   1  -5  11 39951.4 1686.20   1
  -1  -5 -11 41591.3 1696.99  12
  -1  -5 -11 40464.7 1726.84  14
  -1  -5 -12 4542.48 554.495  12
   1  -5  12 5432.50 644.506   1
  -1  -5 -13 3007.65 490.593  12
   1  -5  13 2523.75 472.659   1
  -1  -5 -14 5003.69 613.707  12
   1  -5  14 4215.12 591.736   1
   1  -5  15 2701.27 530.638   1
  -1  -5 -15 2133.00 442.893  12
   1  -5  16 2700.60 540.196   1
  -1  -5 -16 3762.68 602.518  12
  -1  -5 -17 5465.27 724.456  12
  -1  -4  18 3603.41 638.647   1
  -1  -4  18 3044.02 591.250  13
   1  -4 -18 3236.32 578.094  12
  -1  -4  17 1289.02 443.623   1
   1  -4 -17 808.384 359.803  12
  -1  -4  17 1001.02 395.011  13
  -1  -4  16 1181.35 373.035  13
   1  -4 -16 1316.14 391.240  12
  -1  -4  16 1777.31 430.667   1
   1  -4 -15 504.847 300.471  12
  -1  -4  15 418.990 388.573  13
  -1  -4  15 304.643 296.499   1
   1  -4 -14 1692.71 380.111  12
  -1  -4  14 1464.66 416.893   1
  -1  -4  14 1833.59 452.835  13
   1  -4 -13 1529.82 351.943  12
  -1  -4  13 862.110 327.018   1
  -1  -4  13 1229.59 361.687  13
   1  -4 -12 30251.3 1421.92  12
  -1  -4  12 32865.2 1492.79  13
  -1  -4  12 29951.8 1383.35   1
  -1  -4  11 4254.00 500.260   1
   1  -4 -11 4945.98 535.823  12
  -1  -4  11 4295.68 526.695  13
  -1  -4  10 28976.7 1300.29  13
   1  -4 -10 26438.8 1237.91  12
  -1  -4  10 29142.1 1234.55   1
  -1  -4   9 6390.82 542.123   1
   1  -4  -9 6477.86 568.184  12
  -1  -4   9 7095.45 605.471  13
  -1  -4   8 26428.4 1092.15   1
   1  -4  -8 27632.1 1167.31  12
  -1  -4   8 24553.8 1108.97  13
   1  -4  -7 21723.1 986.201  12
  -1  -4   7 21802.4 934.903   1
  -1  -4   7 20978.1 970.278  13
  -1  -4   6 2342.26 328.622   1
  -1  -4   6 1537.44 252.614  13
   1  -4  -6 1512.01 261.270  12
  -1  -4   5 168802. 3692.85   1
  -1  -4   5 162051. 3701.81  13
   1  -4  -5 166080. 3763.31  12
   1  -4  -4 10202.3 587.264  12
  -1  -4   4 10238.1 557.584   1
  -1  -4   4 10048.5 552.912  13
  -1  -4   3 140009. 3133.98   1
  -1  -4   3 135671. 3066.97  13
  -1  -4   3 136931. 3175.24  10
   1  -4  -3 139719. 3027.32  14
   1  -4  -3 145528. 2878.17   6
   1  -4  -3 142243. 3233.51  12
  -1  -4   2 89981.8 2270.27  10
  -1  -4   2 94494.0 2142.35  13
   1  -4  -2 93342.2 2318.94  12
  -1  -4   2 90585.5 2228.96   1
   1  -4  -2 96904.3 2091.88  14
   1  -4  -1 161961. 3229.03  14
  -1  -4   1 156885. 3491.59  10
  -1  -4   1 166276. 3472.49   1
  -1  -4   1 160660. 3284.44  13
  -1  -4   1 159265. 3547.13  14
   1  -4  -1 157780. 3499.38   1
   1  -4  -1 158967. 3551.12  12
  -1  -4   0 14160.1 685.124  14
  -1  -4   0 14453.3 621.352   1
   1  -4   0 15174.1 677.789   1
  -1  -4   0 13783.4 481.930  13
   1  -4   0 14372.8 454.063  14
   1  -4   0 14004.2 546.123  10
   1  -4   1 41763.2 1124.33  10
   1  -4   1 43121.1 1288.00   1
   1  -4   1 41681.8 940.335  14
  -1  -4  -1 42788.1 1322.66  14
  -1  -4  -1 39845.2 1257.92  12
   1  -4   2 7251.68 486.399   1
  -1  -4  -2 6535.67 469.366  14
  -1  -4  -2 6435.11 439.476  12
   1  -4   2 5494.80 217.046  14
   1  -4   3 6034.18 240.511  14
  -1  -4  -3 7989.00 298.819   6
   1  -4   3 8442.34 510.376   1
  -1  -4  -3 8205.34 522.907  14
  -1  -4  -3 7792.20 480.693  12
   1  -4   4 5642.88 444.162   1
  -1  -4  -4 5653.21 424.631  12
   1  -4   4 5056.21 199.614   2
  -1  -4  -4 5706.60 456.844  14
   1  -4   5 4160.72 403.224   1
  -1  -4  -5 3638.54 357.848  12
  -1  -4  -5 3318.02 366.161  14
  -1  -4  -6 195.136 158.943  12
   1  -4   6 117.100 180.803   1
  -1  -4  -6 273.327 176.519  14
  -1  -4  -7 11393.4 702.966  12
  -1  -4  -7 10659.9 689.118  14
   1  -4   7 10889.3 679.831   1
   1  -4   8 64916.1 1979.35   1
  -1  -4  -8 63018.2 2028.19  14
  -1  -4  -8 64649.6 1994.02  12
   1  -4   9 48378.2 1674.50   1
  -1  -4  -9 45566.4 1673.59  12
  -1  -4  -9 47269.6 1712.64  14
   1  -4  10 49041.1 1759.82   1
  -1  -4 -10 49342.1 1811.40  14
  -1  -4 -10 49937.2 1789.79  12
  -1  -4 -11 7262.43 667.888  14
   1  -4  11 6812.19 633.521   1
  -1  -4 -11 5968.49 596.525  12
   1  -4  12 25989.9 1305.05   1
  -1  -4 -12 25243.4 1300.40  12
  -1  -4 -13 1300.94 379.424  12
   1  -4  13 987.554 329.583   1
  -1  -4 -14 8135.25 776.478  12
   1  -4  14 8234.10 783.912   1
   1  -4  15 1440.07 380.110   1
  -1  -4 -15 2135.17 428.739  12
  -1  -4 -16 320.288 285.629  12
   1  -4  16 694.453 336.381   1
   1  -4  17 10893.6 978.716   1
  -1  -4 -17 8933.57 915.745  12
  -1  -3  19 3171.39 629.364  13
   1  -3 -18 2180.39 513.181  12
  -1  -3  18 2532.80 537.351   1
  -1  -3  18 1868.78 463.392  13
   1  -3 -17 1220.07 370.905  12
  -1  -3  17 2505.34 527.976   1
  -1  -3  17 1549.49 457.970  13
  -1  -3  16 9630.17 892.479  13
  -1  -3  16 9740.32 903.183   1
   1  -3 -16 9896.84 898.169  12
  -1  -3  15 1062.30 371.037  13
  -1  -3  15 1012.37 359.619   1
   1  -3 -15 1299.52 351.074  12
   1  -3 -14 3339.63 505.771  12
  -1  -3  14 3968.43 580.409   1
  -1  -3  14 3853.95 556.982  13
  -1  -3  13 7285.30 669.949   1
  -1  -3  13 6729.05 673.971  13
   1  -3 -13 7183.93 676.218  12
  -1  -3  12 17924.8 1005.59   1
  -1  -3  12 19519.9 1095.81  13
   1  -3 -12 19972.7 1088.47  12
   1  -3 -11 4680.50 488.530  12
  -1  -3  11 4191.58 512.545  13
  -1  -3  11 4382.20 494.920   1
  -1  -3  10 5572.67 534.697  13
  -1  -3  10 5870.73 520.937   1
   1  -3 -10 4940.31 496.141  12
   1  -3  -9 38148.3 1399.68  12
  -1  -3   9 35596.3 1314.91   1
  -1  -3   9 36782.4 1406.69  13
   1  -3  -8 29439.5 1162.30  12
  -1  -3   8 30144.9 1121.81   1
  -1  -3   8 28974.1 1169.42  13
  -1  -3   7 3615.59 357.862   1
  -1  -3   7 3485.68 376.739  13
   1  -3  -7 3226.42 352.955  12
  -1  -3   6 37832.2 1263.87  13
  -1  -3   6 36569.9 1178.79   1
   1  -3  -6 38079.0 1251.51  12
   1  -3  -5 196173. 4232.75  12
  -1  -3   5 198921. 4143.09   1
  -1  -3   5 195883. 4221.18  13
  -1  -3   4 13277.6 618.180  13
  -1  -3   4 14817.0 611.753   1
   1  -3  -4 14444.2 651.970  12
  -1  -3   3 806.741 168.298   1
   1  -3  -3 377.218 144.686  12
  -1  -3   3 125.198 136.065  10
   1  -3  -3 440.462 93.4130   6
  -1  -3   3 442.223 153.009  13
  -1  -3   2 184305. 3821.21   1
  -1  -3   2 185412. 3892.50  10
   1  -3  -2 195446. 3712.79   6
  -1  -3   2 184667. 3785.05  13
   1  -3  -2 192673. 3916.51  12
   1  -3  -1 77634.2 1884.10  12
  -1  -3   1 77976.6 1869.42  10
  -1  -3   1 79780.2 1821.97   1
  -1  -3   1 78873.6 1723.13  13
  -1  -3   0 708.651 103.373  13
   1  -3   0 670.872 115.572  10
  -1  -3   0 489.329 160.251  14
   1  -3   0 799.040 188.094   1
  -1  -3   0 404.541 139.869   1
   1  -3   1 37091.3 904.865  10
  -1  -3  -1 36516.3 1105.20  14
   1  -3   1 35820.4 1058.75   1
  -1  -3  -1 33203.2 758.919  13
  -1  -3  -1 33225.7 1006.44  12
   1  -3   2 48655.5 1323.65   1
  -1  -3  -2 45556.8 1278.13  12
  -1  -3  -2 47814.6 1368.45  14
   1  -3   2 48009.6 1070.23   2
   1  -3   3 67996.9 1727.61   1
  -1  -3  -3 68481.5 1785.89  14
  -1  -3  -3 65520.8 1437.94   6
  -1  -3  -3 66994.3 1716.35  12
   1  -3   3 69636.1 1400.45   2
   1  -3   4 12896.5 397.241  14
   1  -3   4 14299.9 639.319   1
  -1  -3  -4 13716.0 633.281  12
  -1  -3  -4 14607.8 681.978  14
   1  -3   5 36479.8 941.265  14
  -1  -3  -5 40633.5 1297.31  14
   1  -3   5 40968.3 1246.88   1
  -1  -3  -5 39081.6 1233.59  12
  -1  -3  -6 28505.8 1068.98  12
  -1  -3  -6 30041.5 713.868  13
   1  -3   6 31043.3 1091.23   1
  -1  -3  -6 28750.3 1115.25  14
  -1  -3  -7 162.552 126.544  12
   1  -3   7 344.443 129.517   8
   1  -3   7 469.380 200.447   1
  -1  -3  -7 428.444 93.3584  13
  -1  -3  -7 529.831 213.380  14
   1  -3   8 10969.8 684.174   1
  -1  -3  -8 11179.2 673.197  12
  -1  -3  -8 10774.2 687.023  14
   1  -3   8 10888.0 505.421   8
  -1  -3  -9 47633.7 1614.87  12
   1  -3   9 45781.4 1267.26   8
  -1  -3  -9 43692.6 1610.67  14
   1  -3   9 46426.2 1573.49   1
   1  -3  10 59606.1 1577.10   8
  -1  -3 -10 62444.3 2041.35  14
  -1  -3 -10 63193.8 2014.93  12
   1  -3  10 61260.5 1949.77   1
   1  -3  11 26693.8 1214.33   1
  -1  -3 -11 24741.8 1220.00  12
   1  -3  11 24535.6 879.275   8
  -1  -3 -12 10537.2 796.508  12
   1  -3  12 10918.4 806.068   1
  -1  -3 -13 8247.94 741.089  12
   1  -3  13 7613.95 702.868   1
  -1  -3 -14 1578.89 345.492  12
   1  -3  14 2784.35 485.174   1
  -1  -3 -15 10363.7 899.563  12
   1  -3  15 8541.04 806.969   1
   1  -3  16 4998.55 655.660   1
  -1  -3 -16 5522.17 699.767  12
  -1  -3 -17 2459.88 517.527  12
   1  -3  17 2524.19 526.633   1
   1  -3  18 1569.45 531.608   1
   1  -2 -19 2416.58 530.710  12
  -1  -2  19 1792.64 519.983   1
  -1  -2  19 2212.73 508.259  13
  -1  -2  18 1428.68 432.108   1
   1  -2 -18 1389.83 407.378  12
  -1  -2  18 1729.65 453.784  13
  -1  -2  17 494.052 316.355  13
  -1  -2  17-104.094 297.810   1
   1  -2 -17-259.513 249.362  12
  -1  -2  16 1175.11 385.607   1
   1  -2 -16 320.178 278.910  12
  -1  -2  16 1112.83 393.366  13
  -1  -2  15-298.779 260.006  13
   1  -2 -15 245.987 264.889  12
  -1  -2  15 139.863 236.677   1
   1  -2 -14 3572.01 505.815  12
  -1  -2  14 2569.31 427.944  13
  -1  -2  14 3227.25 502.832   1
  -1  -2  13 20401.9 1150.01  13
  -1  -2  13 19003.6 1075.21   1
   1  -2 -13 18479.1 1081.59  12
   1  -2 -12 495.551 235.307  12
  -1  -2  12 540.677 263.372  13
  -1  -2  12 576.968 271.001   1
  -1  -2  11 14414.1 831.121   1
  -1  -2  11 14676.3 897.511  13
   1  -2 -11 15023.3 876.497  12
  -1  -2  10 71.6937 197.235   1
   1  -2 -10 111.841 168.106  12
  -1  -2  10 188.147 202.780  13
  -1  -2  10 172.699 45.7371   4
  -1  -2   9 732.316 93.2881   4
  -1  -2   9 616.777 229.471  13
  -1  -2   9 976.800 238.084   1
   1  -2  -9 789.811 217.541  12
  -1  -2   8 55373.8 1694.26  13
  -1  -2   8 53986.9 1580.54   1
  -1  -2   8 52574.5 1213.31   4
   1  -2  -8 55067.9 1671.46  12
   1  -2  -7 13644.2 677.744  12
  -1  -2   7 12737.7 626.637   1
  -1  -2   7 14141.1 710.847  13
  -1  -2   6 123012. 2733.33   1
  -1  -2   6 125639. 2845.13  13
   1  -2  -6 127231. 2812.62  12
  -1  -2   6 117038. 2376.60  16
  -1  -2   5 67142.7 1358.94  16
  -1  -2   5 65077.6 1607.97   1
  -1  -2   5 60076.7 1313.77   3
  -1  -2   5 65648.0 1688.63  13
   1  -2  -5 66885.9 1665.34  12
  -1  -2   4 6310.79 226.909   3
  -1  -2   4 6822.62 261.744  16
  -1  -2   4 5176.47 178.277   9
  -1  -2   4 5673.25 335.861   1
  -1  -2   4 6088.23 382.016  13
   1  -2  -4 6191.97 372.827  12
  -1  -2   3 929510. 17287.3   9
  -1  -2   3 947628. 17492.7   1
   1  -2  -3 960473. 17588.3  12
  -1  -2   3 974092. 17392.2  16
  -1  -2   3 922352. 17562.7  13
  -1  -2   3 929365. 17456.4   2
   1  -2  -3 971620. 17497.5  16
  -1  -2   2 160534. 3049.88  16
  -1  -2   2 149715. 3134.75  10
  -1  -2   2 151835. 3052.20   1
  -1  -2   2 144550. 3070.98  13
  -1  -2   2 151546. 2961.75   9
  -1  -2   2 147625. 2946.46  11
   1  -2  -2 150241. 3023.20   6
   1  -2  -2 157489. 3136.88  12
   1  -2  -2 157633. 3056.68   5
   1  -2  -1 125913. 2576.83  12
   1  -2  -1 119568. 2339.37   7
  -1  -2   1 125003. 2506.58   1
   1  -2  -1 128352. 2541.88   6
   1  -2  -1 124537. 2503.05   5
  -1  -2   1 120932. 2579.19  10
  -1  -2   1 122216. 2480.31  13
  -1  -2   1 124248. 2494.22   9
  -1  -2   1 125095. 2573.62   5
  -1  -2   0 175298. 3535.72   1
   1  -2   0 182991. 3614.02   1
   1  -2   0 169481. 3441.53  10
  -1  -2   0 195412. 3644.33   5
  -1  -2   0 179796. 3708.92  14
  -1  -2   0 192007. 3465.36  13
  -1  -2   0 195288. 3626.17   9
   1  -2   0 183044. 3555.90   5
  -1  -2   0 181270. 3555.60  12
  -1  -2  -1 118898. 2440.64  12
  -1  -2  -1 121110. 2249.76  13
   1  -2   1 116268. 2354.72   2
   1  -2   1 120938. 2500.23   1
  -1  -2  -1 117435. 2450.90  15
  -1  -2  -1 116418. 2566.67  14
   1  -2   1 120194. 2458.69   5
  -1  -2  -2 11432.7 517.280  14
  -1  -2  -2 11238.2 382.648   6
  -1  -2  -2 12041.1 420.050  15
   1  -2   2 11468.9 354.690   2
   1  -2   2 11962.8 477.891   1
  -1  -2  -2 11491.9 453.997  12
  -1  -2  -3 26921.1 832.757  12
  -1  -2  -3 24870.4 588.404  13
   1  -2   3 27432.2 629.135  14
   1  -2   3 29223.0 853.694   1
   1  -2   3 29653.4 814.395   8
  -1  -2  -3 27619.7 905.771  14
  -1  -2  -3 30190.5 730.960  15
  -1  -2  -4 35411.4 1113.69  14
  -1  -2  -4 36095.5 1050.79  12
   1  -2   4 35125.6 864.117  14
  -1  -2  -4 35763.8 807.230  13
   1  -2   4 36394.5 975.275   8
  -1  -2  -4 36777.0 864.354  15
   1  -2   4 35146.1 1047.52   1
   1  -2   5 23784.8 714.099  14
   1  -2   5 25407.2 780.558   8
  -1  -2  -5 26083.8 666.982  13
   1  -2   5 25238.9 876.017   1
   1  -2   5 24828.3 730.445   3
  -1  -2  -5 24385.8 629.188  15
  -1  -2  -5 24477.4 911.835  14
  -1  -2  -5 25363.4 881.634  12
   1  -2   6 5540.61 305.377   3
  -1  -2  -6 5050.50 403.015  14
   1  -2   6 5457.96 403.218   1
  -1  -2  -6 5586.24 406.122  12
  -1  -2  -6 5725.59 288.095  13
  -1  -2  -6 5488.98 220.898  15
   1  -2   6 5725.02 335.624   8
   1  -2   7 33940.8 1114.74   1
  -1  -2  -7 33641.7 1134.28  12
   1  -2   7 33940.7 938.922   8
   1  -2   7 34239.8 892.968   3
  -1  -2  -7 32945.0 1140.10  14
   1  -2   8 3161.39 275.058   8
   1  -2   8 2806.80 237.285   3
   1  -2   8 3157.45 355.236   1
  -1  -2  -8 3215.15 380.805  14
  -1  -2  -8 3755.40 378.745  12
  -1  -2  -9 23276.2 1047.19  14
   1  -2   9 22599.6 808.330   8
   1  -2   9 21738.9 756.237   3
   1  -2   9 23727.6 1009.09   1
  -1  -2  -9 22184.7 1009.90  12
   1  -2  10 382.963 125.230   3
   1  -2  10 687.412 242.123   1
   1  -2  10 609.482 244.649  13
   1  -2  10 541.158 125.557   4
   1  -2  10 286.975 126.286   8
  -1  -2 -10 494.315 217.289  12
   1  -2  11 3237.36 306.346   8
   1  -2  11 3647.30 304.483   3
   1  -2  11 3876.53 274.354   4
   1  -2  11 3985.46 464.675   1
  -1  -2 -11 3807.41 466.300  12
  -1  -2 -12 485.300 237.958  12
   1  -2  12 310.827 120.594   3
   1  -2  12 354.180 140.825   8
   1  -2  12 474.593 231.202   1
   1  -2  13 3148.31 505.650   1
  -1  -2 -13 3454.34 498.027  12
  -1  -2 -14 401.173 236.924  12
   1  -2  14 593.046 309.412   1
  -1  -2 -15 2142.64 435.174  12
   1  -2  15 2137.20 462.256   1
  -1  -2 -16 14176.8 1089.05  12
   1  -2  16 14495.7 1054.69   1
  -1  -2 -17 1022.46 438.279  12
   1  -2  17 1083.58 423.196   1
   1  -2  18 378.779 413.459   1
  -1  -2 -18 412.130 278.869  12
  -1  -1  20 132.876 317.311  13
  -1  -1  19 4336.39 725.459   1
  -1  -1  19 5041.33 703.235  13
   1  -1 -19 5358.91 737.654  12
   1  -1 -18 3926.54 630.867  12
  -1  -1  18 3957.49 653.874   1
  -1  -1  18 3369.50 580.985  13
  -1  -1  17 511.418 369.609   1
  -1  -1  17-86.8356 265.624  13
   1  -1 -17 12.8936 286.863  12
  -1  -1  16 9030.63 842.790  13
  -1  -1  16 8051.78 806.114   1
   1  -1 -16 8162.23 819.802  12
  -1  -1  15 12485.2 928.043   1
  -1  -1  15 13071.7 960.547  13
   1  -1 -15 13362.8 982.338  12
  -1  -1  14 15744.1 999.611   1
   1  -1 -14 15407.1 1018.12  12
  -1  -1  14 15301.1 994.505  13
   1  -1 -13 14925.2 955.428  12
  -1  -1  13 15403.3 951.701  13
  -1  -1  13 14085.9 921.765   1
  -1  -1  12 73928.4 2306.80  13
   1  -1 -12 72898.7 2306.22  12
  -1  -1  12 71493.4 2236.12   1
   1  -1 -11 25986.7 1181.73  12
  -1  -1  11 27110.5 1194.48  13
  -1  -1  11 25674.2 1125.84   1
  -1  -1  10 11831.5 748.235  13
  -1  -1  10 11475.5 439.688   9
  -1  -1  10 10636.2 676.190   1
   1  -1 -10 10931.0 705.060  12
   1  -1  -9 45488.6 1160.38  16
  -1  -1   9 47701.4 1124.34   9
  -1  -1   9 46134.8 1531.25  13
  -1  -1   9 47615.8 1497.69   1
   1  -1  -9 47207.0 1550.43  12
  -1  -1   8 7177.66 481.022   1
  -1  -1   8 7628.87 542.505  13
  -1  -1   8 7242.24 308.269   9
   1  -1  -8 7131.00 501.282  12
   1  -1  -8 7447.49 334.455  16
  -1  -1   7 90139.7 1884.03   4
  -1  -1   7 98226.1 2300.85   1
   1  -1  -7 99062.8 2009.96  16
   1  -1  -7 101624. 2388.83  12
  -1  -1   7 103256. 2420.09  13
  -1  -1   6 37256.6 1108.31   1
  -1  -1   6 38193.9 1195.77  13
  -1  -1   6 38692.5 870.260   4
   1  -1  -6 39156.4 1161.59  12
   1  -1  -6 37317.5 912.697  16
  -1  -1   5 17296.6 633.733   1
  -1  -1   5 18076.5 499.855   4
   1  -1  -5 18007.3 664.515  12
   1  -1  -5 17196.6 502.943  16
  -1  -1   5 17830.2 694.945  13
  -1  -1   4 20117.9 643.783   1
  -1  -1   4 20711.9 559.882   4
   1  -1  -4 21351.7 549.355  16
  -1  -1   4 19528.9 489.525   8
   1  -1  -4 21318.5 684.105  12
  -1  -1   4 20869.9 718.581  13
  -1  -1   4 17752.3 595.547   2
  -1  -1   3 93422.2 1830.37   4
   1  -1  -3 94106.2 1793.94  16
  -1  -1   3 86013.3 1871.49   2
  -1  -1   3 91548.6 1956.91  13
   1  -1  -3 92601.6 1870.85   1
  -1  -1   3 89365.6 1844.32   1
   1  -1  -3 96124.0 1908.37  12
  -1  -1   2 511459. 9559.92   4
  -1  -1   2 534967. 9645.36  15
  -1  -1   2 505679. 9602.89  13
   1  -1  -2 530272. 9562.58  12
   1  -1  -2 520264. 9522.66  16
  -1  -1   2 496931. 9590.46   2
  -1  -1   2 502877. 9547.73   5
  -1  -1   2 500507. 9510.09   3
  -1  -1   2 520955. 9488.37   1
   1  -1  -1 102701. 2068.16  11
   1  -1  -1 104462. 2099.39   2
  -1  -1   1 104660. 2084.81  10
  -1  -1   1 101039. 2143.31   7
   1  -1  -1 104850. 2023.17   7
  -1  -1   1 104364. 2072.21   3
  -1  -1   1 108031. 2147.15  15
  -1  -1   1 101656. 2041.35   5
  -1  -1   1 102780. 2075.92  13
   1  -1  -1 103578. 2086.34  16
   1  -1  -1 103055. 2110.59   6
   1  -1  -1 96141.1 1964.47   5
  -1  -1   1 105474. 2115.75   4
  -1  -1   1 101238. 2130.89   2
  -1  -1   1 100557. 1971.13   1
   1  -1  -1 94762.2 2038.71  12
   1  -1   0 263339. 4783.28   7
   1  -1   0 241771. 4798.32   1
  -1  -1   0 258926. 4799.36   5
   1  -1   0 262898. 4885.22  16
   1  -1   0 237735. 4726.95   5
   1  -1   0 267773. 4918.01   6
  -1  -1   0 249927. 4903.22   7
   1  -1   0 263274. 4841.57   2
  -1  -1   0 257090. 4896.17   4
  -1  -1   0 266361. 4894.25  15
   1  -1   0 263432. 4868.30  11
  -1  -1   0 247347. 4723.99  12
   1  -1   1 156505. 3114.45   8
  -1  -1  -1 154762. 2980.13   1
  -1  -1  -1 161491. 3088.62  15
   1  -1   1 158283. 3039.94   2
   1  -1   1 153058. 3139.03  16
   1  -1   1 152353. 3032.89   1
  -1  -1  -1 160350. 3056.15   5
  -1  -1  -1 160777. 3130.76   4
  -1  -1  -1 158825. 3163.18  14
  -1  -1  -1 152357. 2998.99  12
  -1  -1  -1 158861. 3072.29   6
  -1  -1  -1 144655. 3147.99   7
  -1  -1  -2 12232.9 485.973  14
   1  -1   2 12120.7 457.182   8
   1  -1   2 12490.6 358.956  14
  -1  -1  -2 13163.1 410.252   1
  -1  -1  -2 12907.0 422.938  12
   1  -1   2 12446.4 430.748   1
   1  -1   2 13568.0 450.417   3
  -1  -1  -3 37973.7 926.808   1
   1  -1   3 35548.7 950.334   8
  -1  -1  -3 37932.5 954.227  12
  -1  -1  -3 35879.9 1009.08  14
   1  -1   3 36869.1 866.868  14
  -1  -1  -3 35459.4 855.122  13
   1  -1   3 35558.8 937.973   1
   1  -1   3 34863.1 922.584   3
  -1  -1  -4 80327.8 1943.07  14
   1  -1   4 84432.1 1830.72   3
  -1  -1  -4 83901.4 1785.15  13
   1  -1   4 82615.9 1801.27  14
   1  -1   4 83550.0 1878.97   1
  -1  -1  -4 82622.6 1902.80  12
  -1  -1  -5 116122. 2595.00  12
   1  -1   5 117482. 2559.08   1
   1  -1   5 115398. 2456.33   3
  -1  -1  -5 113651. 2621.27  14
   1  -1   6 95044.8 2279.46   1
  -1  -1  -6 96404.4 2344.50  14
  -1  -1  -6 100138. 2349.46  12
   1  -1   6 98305.2 2169.18   3
   1  -1   7 24906.0 936.629   1
  -1  -1  -7 24566.5 955.614  14
   1  -1   7 24734.5 953.144  13
   1  -1   7 27032.2 786.975   4
  -1  -1  -7 25977.7 986.702  12
   1  -1   8 26811.5 1039.40  13
   1  -1   8 25723.3 1012.17   1
  -1  -1  -8 26993.1 1058.53  14
   1  -1   8 27076.6 804.056   4
  -1  -1  -8 27575.2 1072.46  12
   1  -1   9 10992.7 642.289   1
   1  -1   9 12374.5 709.015  13
   1  -1   9 10957.3 456.432   4
  -1  -1  -9 11165.6 688.262  12
   1  -1  10 16393.9 576.294   4
   1  -1  10 18052.2 901.223  13
  -1  -1 -10 17035.6 903.797  12
   1  -1  10 17086.2 866.692   1
  -1  -1 -11 5607.84 547.461  12
   1  -1  11 4330.88 483.192   1
   1  -1  11 5674.27 526.682  13
   1  -1  12 6455.45 601.863  13
  -1  -1 -12 5730.18 577.233  12
   1  -1  12 5947.81 573.081   1
  -1  -1 -13 13400.0 921.813  12
   1  -1  13 12197.7 866.038   1
   1  -1  13 14025.6 889.385  13
  -1  -1 -14 3233.59 487.172  12
   1  -1  14 3402.15 508.066   1
   1  -1  15 5852.31 656.011   1
  -1  -1 -15 6271.04 688.681  12
   1  -1  16 289.038 287.405   1
  -1  -1 -16 797.194 319.306  12
   1  -1  17 2481.97 493.569   1
  -1  -1 -17 3039.83 535.812  12
   1  -1  18 5369.77 729.261   1
  -1  -1 -18 5549.31 741.836  12
  -1   0  20-596.114 380.784  13
  -1   0  19 804.421 376.313  13
  -1   0  19 1557.66 490.804   1
   1   0 -19 981.335 371.178  12
  -1   0  18 3785.74 571.207  13
  -1   0  18 3369.12 597.510   1
   1   0 -18 2138.63 506.648  12
  -1   0  17 1566.72 435.591   1
  -1   0  17 1498.36 410.355  13
   1   0 -17 1507.37 389.933  12
  -1   0  16 292.582 338.801   1
  -1   0  16 608.263 313.456  13
   1   0 -16 120.561 292.028  12
  -1   0  15 38150.5 1681.26  13
   1   0 -15 39845.2 1425.57   2
   1   0 -15 36898.8 1713.02  12
  -1   0  15 36862.3 1696.36   1
  -1   0  14 4900.67 582.783   1
  -1   0  14 4471.95 541.926  13
   1   0 -14 4732.64 441.117   2
   1   0 -14 3952.41 529.651  12
  -1   0  13 23625.4 873.341   9
   1   0 -13 22005.9 1172.12  12
  -1   0  13 21307.0 1127.89  13
  -1   0  13 20352.3 1105.19   1
  -1   0  12 41150.1 1201.82   9
   1   0 -12 37188.2 1013.35  16
  -1   0  12 38926.2 1505.40   1
   1   0 -12 38230.2 1558.95  12
  -1   0  12 38491.2 1502.97  13
  -1   0  11 6447.44 396.847   9
   1   0 -11 5667.71 298.025  16
  -1   0  11 5671.35 520.507  13
   1   0 -11 6173.90 562.526  12
  -1   0  11 5934.19 540.922   1
  -1   0  10 1381.64 288.685   1
  -1   0  10 969.993 163.678   9
  -1   0  10 905.892 247.034  13
   1   0 -10 840.343 218.069  12
   1   0  -9 439.000 178.642  12
  -1   0   9 645.590 201.606   1
  -1   0   9 344.225 191.234  13
   1   0  -8 6288.64 255.843  16
  -1   0   8 6475.63 462.069   1
  -1   0   8 6740.82 476.245  13
   1   0  -8 7596.98 510.741  12
   1   0  -7 3545.98 165.935  16
  -1   0   7 4655.32 381.477  13
   1   0  -7 4483.06 358.366  12
  -1   0   7 4489.47 366.916   1
   1   0  -6 3472.79 164.338   4
  -1   0   6 4264.09 348.020  13
   1   0  -6 4816.96 332.068  12
  -1   0   6 4285.02 324.952   1
   1   0  -5 3513.56 264.575  12
  -1   0   5 3692.47 231.826  15
   1   0  -5 3112.72 254.097   2
   1   0  -5 3488.96 168.576   4
  -1   0   5 2820.91 256.475   1
  -1   0   5 3069.18 276.611  13
   1   0  -4 2668.82 213.386   2
  -1   0   4 2773.66 201.764  15
   1   0  -4 2588.69 153.299   4
  -1   0   4 2230.87 207.152   1
   1   0  -4 2948.26 218.044  12
  -1   0   4 2109.98 228.108  13
   1   0  -3 15695.9 449.652   4
  -1   0   3 14843.0 546.859  13
   1   0  -3 15342.7 509.152   2
  -1   0   3 16313.2 514.417  15
   1   0  -3 16040.5 473.497   1
  -1   0   3 14745.3 484.791   1
   1   0  -3 16798.1 500.177  12
   1   0  -2 316057. 5864.18   2
   1   0  -2 315524. 5816.72   4
  -1   0   2 324472. 5907.15  13
   1   0  -2 311575. 5738.89   1
  -1   0   2 305296. 5747.52   1
  -1   0   2 319472. 5719.76  16
  -1   0   2 290355. 5803.76   8
   1   0  -2 293539. 5748.66  12
  -1   0   2 304858. 5876.10   2
  -1   0   1 2034.52 160.434   2
  -1   0   1 2139.07 104.789  11
   1   0  -1 2349.66 178.368   2
   1   0  -1 2093.60 164.840   8
   1   0  -1 2394.70 186.468   4
  -1   0   1 2354.72 168.511   7
  -1   0   1 2230.26 163.757   8
   1   0  -1 2395.60 121.988  10
   1   0  -1 2123.74 168.539   7
  -1   0   0 452949. 8592.08   3
  -1   0   0 477179. 8591.27   7
   1   0   0 468925. 8588.59   7
   1   0   0 460695. 8594.72   8
   1   0   0 441067. 8601.04   4
  -1   0   0 472043. 8611.79   6
   1   0   0 450117. 8605.73   6
  -1   0   0 476769. 8605.66   2
   1   0   0 468285. 8600.05   2
   1   0   0 443890. 8597.70   3
   1   0   1 43101.3 996.588   3
  -1   0  -1 39761.3 939.580  14
   1   0   1 40549.3 984.981   4
  -1   0  -1 41356.4 983.283   7
  -1   0  -1 40896.8 849.882   1
   1   0   1 41135.9 993.298   6
   1   0   1 41445.3 842.582   1
  -1   0  -1 37062.7 983.055   3
   1   0   2 51060.6 1168.78  14
   1   0   2 51308.8 1203.53   3
   1   0   2 52491.1 1193.32   4
   1   0   2 49513.2 1102.99   1
  -1   0  -2 51993.2 1115.80   1
  -1   0  -2 49971.0 1161.59  14
  -1   0  -3 15369.4 508.530  12
   1   0   3 15103.7 513.490  14
   1   0   3 15180.1 503.939   4
  -1   0  -3 16268.6 502.141   1
  -1   0  -3 14034.5 500.296  13
  -1   0  -3 15110.3 513.461  14
   1   0   3 15056.2 492.215   1
  -1   0  -4 4453.26 284.932  14
   1   0   4 4477.49 272.252   1
   1   0   4 4610.99 264.099   4
  -1   0  -4 4675.85 288.548  12
   1   0   5 204519. 4170.31   1
  -1   0  -5 204859. 4192.93  14
  -1   0  -5 211708. 4241.41  12
   1   0   5 203352. 4055.14   4
   1   0   6 50592.3 1413.08   1
   1   0   6 53123.7 1268.91   4
  -1   0  -6 53825.8 1481.58  12
  -1   0  -6 52234.4 1419.62  14
   1   0   7 328080. 6560.30   1
  -1   0  -7 327643. 6666.61  12
   1   0   7 328831. 6558.31  13
   1   0   7 325016. 6282.28   4
   1   0   8 18298.0 615.185   4
   1   0   8 21293.9 838.027  13
  -1   0  -8 19502.4 876.970  12
   1   0   8 18064.4 805.464   1
   1   0   9 50861.9 1538.02  13
   1   0   9 46679.1 1536.17   1
  -1   0  -9 50283.0 1651.75  12
   1   0  10 1642.74 286.786  13
  -1   0 -10 1744.60 318.199  12
   1   0  10 1493.02 311.520   1
   1   0  11 3353.14 406.530  13
  -1   0 -11 3161.84 405.074  12
   1   0  11 3309.48 411.040   1
   1   0  12 5974.05 542.897  13
   1   0  12 4946.31 523.287   1
  -1   0 -12 5122.64 563.472  12
   1   0  13 1397.87 363.167   1
  -1   0 -13 1796.27 392.365  12
   1   0  13 1198.40 292.765  13
  -1   0 -14 13597.2 823.099  16
   1   0  14 16019.8 955.321  13
  -1   0 -14 14573.1 1016.68  12
   1   0  14 13649.1 952.648   1
   1   0  15 10772.2 885.263   1
  -1   0 -15 11638.9 762.384  16
  -1   0 -15 9474.80 863.544  12
   1   0  16 4942.72 629.743   1
  -1   0 -16 4427.71 617.087  12
   1   0  17-258.260 302.588   1
  -1   0 -17 1054.55 402.827  12
  -1   0 -18 7627.13 855.593  12
   1   0  18 8886.94 905.968   1
   1   1 -19 5305.59 757.818  12
  -1   1  19 6041.06 700.538  13
  -1   1  19 4018.04 682.088   5
  -1   1  19 4832.71 732.356   1
  -1   1  18 3892.64 599.355  13
  -1   1  18 2127.01 523.926   1
   1   1 -18 3286.92 569.142  12
   1   1 -17 1060.45 356.931  12
  -1   1  17 906.419 388.004   1
  -1   1  17 567.480 325.617  13
  -1   1  16 8637.97 831.344   1
   1   1 -16 8369.84 802.459  12
  -1   1  16 8917.20 783.342  13
  -1   1  15 13556.8 965.921   1
   1   1 -15 12279.8 949.120  12
  -1   1  15 13799.8 925.479  13
  -1   1  14 17017.9 821.669   9
   1   1 -14 17391.5 795.966   2
  -1   1  14 16013.2 980.372  13
   1   1 -14 17211.5 1063.21  12
  -1   1  14 16011.9 1012.87   1
   1   1 -13 15866.4 751.033   2
  -1   1  13 15440.7 956.725   1
   1   1 -13 17082.9 712.979  15
  -1   1  13 16237.2 785.484   9
   1   1 -13 15442.1 970.946  12
  -1   1  13 16271.2 948.275  13
  -1   1  12 73864.7 2231.58  13
   1   1 -12 76299.9 1958.71   2
  -1   1  12 72817.5 2273.64   1
   1   1 -12 79319.7 1930.77  15
  -1   1  12 73808.4 2005.98   9
   1   1 -12 69001.2 2287.91  12
   1   1 -11 27567.8 948.639   2
  -1   1  11 26182.9 1124.03  13
  -1   1  11 26755.2 1148.55   1
  -1   1  11 27329.1 997.978   9
   1   1 -11 27546.1 924.484  15
   1   1 -11 26086.7 1176.23  12
   1   1 -11 23775.2 693.678  16
   1   1 -10 11547.5 540.043  15
   1   1 -10 10206.4 365.098  16
  -1   1  10 9988.47 667.134   1
  -1   1  10 11394.1 672.304  13
   1   1 -10 10482.8 539.787   2
   1   1 -10 10881.7 686.201  12
   1   1  -9 49280.7 1300.83   2
   1   1  -9 43878.0 1013.21  16
   1   1  -9 48708.8 1302.04  15
  -1   1   9 46920.5 1464.08  13
   1   1  -9 46801.8 1525.29  12
  -1   1   9 46118.2 1494.82   1
   1   1  -8 7733.60 513.742  12
   1   1  -8 7797.94 418.882  15
  -1   1   8 6588.83 312.112  15
  -1   1   8 8016.02 512.157  13
   1   1  -8 6692.64 237.357  16
   1   1  -8 7990.81 412.329   2
  -1   1   8 7491.67 510.163   1
  -1   1   7 99468.6 2093.01  13
  -1   1   7 100774. 2112.43   1
   1   1  -7 104192. 1970.35  15
  -1   1   7 94391.8 1754.15  15
   1   1  -7 98838.8 1896.93   2
  -1   1   6 38381.1 1133.15  13
   1   1  -6 39259.4 1066.96  15
  -1   1   6 37298.2 1130.88   1
  -1   1   6 36654.2 935.764  15
   1   1  -6 38195.3 1009.82   2
   1   1  -5 16608.2 569.642   2
   1   1  -5 17810.2 620.769  15
  -1   1   5 17288.9 653.748  13
  -1   1   5 18035.2 653.641   1
  -1   1   4 19734.4 662.540   1
  -1   1   4 19771.5 549.483  16
   1   1  -4 20564.0 658.653  15
  -1   1   4 19592.2 680.378  13
   1   1  -4 19888.4 612.553   2
  -1   1   3 87448.9 1992.13  13
  -1   1   3 89050.5 1937.60  12
   1   1  -3 90525.4 1890.89   1
  -1   1   3 93877.2 1913.81   5
   1   1  -3 91755.6 1981.31  15
   1   1  -3 93855.6 1931.75   2
  -1   1   3 88430.0 1848.39  16
   1   1  -2 542271. 9551.12  10
   1   1  -2 529166. 9604.07   7
  -1   1   2 518715. 9493.51  16
   1   1  -2 523604. 9553.26   2
   1   1  -2 519081. 9597.25  15
  -1   1   2 505072. 9527.78   6
  -1   1   2 513495. 9513.67  12
   1   1  -2 488669. 9430.86   8
   1   1  -2 507301. 9563.84  13
  -1   1   2 517217. 9451.33   5
   1   1  -2 490002. 9444.81   1
   1   1  -1 99436.9 2050.94   3
   1   1  -1 95133.4 1958.06   1
   1   1  -1 100011. 2055.04  13
  -1   1   1 106407. 2012.99   7
   1   1  -1 103496. 2111.02   7
   1   1  -1 100641. 2107.91  15
  -1   1   1 106333. 2066.37  16
  -1   1   1 95678.2 1937.83   5
  -1   1   1 100225. 2070.93   6
  -1   1   1 104491. 2020.31  12
   1   1  -1 97265.8 2006.98   5
  -1   1   0 266899. 4907.68  16
   1   1   0 258345. 4908.83   4
   1   1   0 264142. 4895.50   3
  -1   1   0 246239. 4791.06   7
  -1   1   0 249768. 4896.77   8
   1   1   0 245844. 4798.00   5
  -1   1   0 251870. 4843.16   2
  -1   1   0 256757. 4738.34   5
  -1   1   0 260861. 4888.47  11
   1   1   0 256022. 4902.98   7
  -1   1   0 261071. 4807.05  12
   1   1   0 250684. 4735.38  12
  -1   1  -1 163183. 3182.73  11
  -1   1  -1 151360. 3096.72   1
  -1   1  -1 149313. 2972.45  14
  -1   1  -1 162455. 3134.53   3
  -1   1  -1 159715. 3147.86   8
   1   1   1 161823. 3205.70  14
  -1   1  -1 164594. 3198.37  16
   1   1   1 156122. 3035.61  12
   1   1   1 155174. 3114.14   6
  -1   1  -1 166689. 3082.32   2
   1   1   1 157702. 3103.00   5
   1   1   1 160489. 3176.12   4
   1   1   2 13208.8 472.426   4
  -1   1  -2 12716.5 435.172   1
  -1   1  -2 13627.7 498.980  16
  -1   1  -2 13015.5 438.481   3
   1   1   2 11923.1 417.570   6
   1   1   2 11969.8 443.844   5
   1   1   2 12625.6 413.246  12
  -1   1  -2 12494.2 383.117   2
  -1   1  -2 12360.0 350.363  14
   1   1   3 36653.7 922.591   1
   1   1   3 36702.1 914.241   6
   1   1   3 32743.3 904.255  12
  -1   1  -3 36305.3 852.563  14
  -1   1  -3 38007.9 1015.33  16
  -1   1  -3 34397.7 831.657   2
   1   1   3 36649.4 990.662   5
   1   1   4 81925.6 1947.89   5
  -1   1  -4 84576.7 1953.26  16
   1   1   4 81805.5 1862.37   1
  -1   1  -5 117587. 2631.34  16
   1   1   5 115936. 2562.94   1
  -1   1  -6 100518. 2322.31  16
   1   1   6 96463.0 2172.53  13
   1   1   6 95817.3 2280.21   1
   1   1   7 26110.3 858.095  13
   1   1   7 25722.8 933.805   1
  -1   1  -7 25974.5 945.877  16
  -1   1  -8 26905.1 989.133  16
   1   1   8 27595.4 946.471  13
   1   1   8 26435.9 1015.45   1
   1   1   9 11421.0 659.693   1
  -1   1  -9 10768.7 687.386  12
  -1   1  -9 10897.1 607.878  16
   1   1   9 10997.1 595.413  13
  -1   1 -10 17589.2 818.112  16
   1   1  10 17357.1 873.672   1
   1   1  10 16957.5 799.627  13
  -1   1 -10 17632.4 928.362  12
  -1   1 -11 5999.35 569.829  12
   1   1  11 5774.38 543.635   1
  -1   1 -11 6131.73 501.136  16
   1   1  11 5227.65 464.559  13
   1   1  12 5157.13 553.167   1
   1   1  12 7043.78 556.568  13
  -1   1 -12 6085.75 500.560  16
  -1   1 -12 6403.84 628.903  12
  -1   1 -13 12531.2 747.381  16
   1   1  13 11755.9 853.822   1
  -1   1 -13 12372.9 901.949  12
   1   1  13 13200.6 803.095  13
  -1   1 -14 3241.74 403.923  16
   1   1  14 3607.17 467.477  13
   1   1  14 2383.33 432.082   1
  -1   1 -14 2558.93 457.740  12
  -1   1 -15 5375.11 518.262  16
   1   1  15 6006.03 664.037   1
  -1   1 -15 6028.94 685.893  12
   1   1  16 1042.67 382.542   1
   1   1  16-77.5403 273.166   5
  -1   1 -16 520.646 306.511  12
   1   1  17 3989.32 590.754   1
  -1   1 -17 2863.63 532.611  12
   1   1  17 2236.57 487.148   5
   1   1  18 4272.74 668.091   1
  -1   1 -18 4882.82 693.228  12
   1   1  18 3418.87 612.025   5
  -1   2  19 909.711 403.715   5
   1   2 -19 1329.04 416.485  12
   1   2 -18 1567.28 455.284  12
  -1   2  18 2093.88 474.913  13
  -1   2  18 1144.03 442.815   5
  -1   2  17-446.158 288.307   5
  -1   2  17 277.211 303.616  13
   1   2 -17 239.760 342.658  12
   1   2 -16 1166.96 344.863  12
  -1   2  16 467.580 303.069  13
  -1   2  16 565.560 311.814   1
  -1   2  16 622.358 315.241   5
  -1   2  15 219.273 185.703   9
  -1   2  15 150.144 204.675  13
   1   2 -15 27.8398 201.585  12
  -1   2  15 724.603 343.721   5
  -1   2  15-67.7433 243.959   1
  -1   2  14 2864.94 374.715   9
  -1   2  14 2489.75 419.105  13
  -1   2  14 2624.16 476.681   5
  -1   2  14 2943.82 472.217   1
   1   2 -14 3299.38 482.856  12
  -1   2  13 20249.4 1123.01   1
  -1   2  13 16140.2 1055.16   5
   1   2 -13 22236.0 818.300   2
  -1   2  13 20563.9 1044.37  13
   1   2 -13 19591.5 1113.56  12
  -1   2  13 20739.3 975.374   9
   1   2 -13 21663.4 909.030  15
  -1   2  12 353.091 194.386   9
  -1   2  12 569.197 266.502   5
   1   2 -12 561.034 183.808  15
  -1   2  12 374.856 219.275   1
  -1   2  12 704.161 238.194  13
   1   2 -12 545.432 154.555   2
   1   2 -12 620.209 227.973  12
   1   2 -11 12836.6 474.568  16
  -1   2  11 15178.1 866.209   1
   1   2 -11 16052.0 738.604  15
   1   2 -11 15517.8 879.551  12
  -1   2  11 12103.2 857.029   5
  -1   2  11 14389.8 794.601  13
   1   2 -11 16864.8 647.047   2
  -1   2  10 147.526 204.926   1
   1   2 -10 168.565 148.049  15
   1   2 -10 59.0598 60.1959  16
  -1   2  10 243.172 192.859   5
   1   2 -10 379.255 131.181   2
  -1   2  10 141.760 151.367  13
   1   2  -9 828.741 190.194  15
   1   2  -9 691.472 94.2920  16
  -1   2   9 786.471 241.728   1
  -1   2   9 798.479 212.366  13
  -1   2   9 503.066 83.2780  15
  -1   2   9 995.657 245.745   5
   1   2  -9 936.481 150.177   2
  -1   2   8 44926.3 1152.23  15
   1   2  -8 54783.0 1487.84  15
   1   2  -8 52074.4 1150.18  16
  -1   2   8 54000.9 1536.19  13
   1   2  -8 55172.6 1318.70   2
  -1   2   8 56065.8 1626.37   5
  -1   2   8 53719.2 1585.65   1
  -1   2   7 12635.1 605.644  13
  -1   2   7 11490.9 418.480  15
   1   2  -7 12672.1 395.710  16
  -1   2   7 13517.6 670.542   5
   1   2  -7 13105.2 604.252  15
   1   2  -7 13481.7 501.324   2
   1   2  -6 122708. 2569.86   2
  -1   2   6 124102. 2745.55  13
   1   2  -6 119306. 2417.45  16
  -1   2   6 129903. 2822.77   5
   1   2  -6 125036. 2763.20  15
   1   2  -5 61501.8 1460.94  11
  -1   2   5 64940.9 1540.27  16
   1   2  -5 65275.3 1638.99  15
  -1   2   5 65152.4 1608.67  13
   1   2  -5 64058.7 1366.78  16
   1   2  -5 67140.4 1495.08   2
  -1   2   5 66455.5 1654.31   5
   1   2  -4 5786.21 264.913  11
   1   2  -4 6239.39 375.129  15
   1   2  -4 5615.14 246.697  16
  -1   2   4 6257.94 323.989  16
  -1   2   4 5635.69 266.942   6
  -1   2   4 6625.35 368.795   5
   1   2  -4 5051.96 175.282   8
  -1   2   3 950129. 17497.7  16
   1   2  -3 933431. 17585.9  15
  -1   2   3 913233. 17383.0   6
   1   2  -3 947731. 17561.0   7
  -1   2   2 144634. 3069.70  16
   1   2  -2 153374. 2955.51   3
  -1   2   2 151514. 2999.18  14
   1   2  -2 151258. 3102.79   7
   1   2  -2 147378. 3119.08  15
   1   2  -2 156211. 3040.80   1
   1   2  -2 146672. 3043.24  13
  -1   2   2 153326. 3035.47   5
   1   2  -2 149887. 3092.60   5
   1   2  -1 120436. 2581.45  15
   1   2  -1 121102. 2559.28   7
  -1   2   1 125987. 2554.78  12
  -1   2   1 123508. 2571.15  16
   1   2  -1 120584. 2460.15  13
   1   2  -1 123566. 2497.49   1
  -1   2   1 120894. 2480.22   5
  -1   2   1 124322. 2405.07  14
   1   2  -1 118585. 2542.87   5
  -1   2   0 173702. 3463.09   7
   1   2   0 186463. 3535.15  13
   1   2   0 180138. 3623.65  12
  -1   2   0 190490. 3737.38  16
  -1   2   0 184383. 3456.25  14
   1   2   0 177320. 3672.36   5
  -1   2   0 192199. 3641.14   5
   1   2   0 181637. 3690.16   7
  -1   2   0 199318. 3708.93  12
   1   2   0 182927. 3702.46  15
  -1   2  -1 120083. 2548.17  16
   1   2   1 115744. 2463.29  15
  -1   2  -1 124380. 2354.31  10
   1   2   1 115542. 2508.36   7
   1   2   1 119829. 2536.52   9
  -1   2  -1 121988. 2575.49  11
   1   2   1 116928. 2444.11  12
   1   2   1 114866. 2505.58   5
  -1   2  -2 11709.0 498.269  16
  -1   2  -2 11459.8 509.040  11
   1   2   2 12355.7 519.613   9
   1   2   2 10685.3 475.602   5
   1   2   2 11287.4 423.522  15
   1   2   2 11819.4 446.928  12
  -1   2  -3 29061.1 904.925  16
   1   2   3 28603.4 736.426   6
   1   2   3 28943.1 922.552   9
  -1   2  -3 29145.1 930.027  11
   1   2   3 27872.9 907.000   5
  -1   2  -3 29018.7 652.421   2
  -1   2  -3 29058.9 772.640   3
   1   2   4 35692.8 1104.50   9
  -1   2  -4 35411.2 756.114   2
   1   2   4 33885.3 869.344   6
   1   2   4 34949.9 1089.15   5
  -1   2  -4 34614.6 1048.41  16
  -1   2  -5 24052.8 854.374  16
   1   2   5 24339.6 898.268   9
   1   2   5 24392.6 703.105   6
   1   2   5 25844.3 936.643   5
  -1   2  -5 24368.8 563.314   2
  -1   2  -6 6387.60 411.674  16
   1   2   6 5540.80 427.635   9
  -1   2  -6 5063.22 201.000   2
   1   2   6 5784.95 395.879   1
   1   2   6 5520.00 441.278   5
   1   2   7 35848.9 1160.28   1
   1   2   7 33349.7 1171.51   9
  -1   2  -7 35471.0 1144.17  16
   1   2   7 33679.5 1233.94   5
   1   2   7 33119.9 967.584  13
  -1   2  -8 3492.49 332.371  16
   1   2   8 3418.28 357.348   1
   1   2   8 2889.64 267.962  13
   1   2   8 2883.02 385.249   5
  -1   2  -9 22979.8 933.008  16
   1   2   9 22935.6 847.501  13
   1   2   9 22951.3 1059.19   5
   1   2   9 22851.2 999.346   1
  -1   2 -10 453.972 165.950  16
   1   2  10 713.036 189.714  13
   1   2  10 351.695 206.589   1
   1   2  10 59.3690 199.095   5
  -1   2 -11 3431.24 378.913  16
   1   2  11 3583.00 363.683  13
   1   2  11 3923.79 458.963   1
   1   2  11 3176.29 447.099   5
  -1   2 -12 288.781 226.281  12
  -1   2 -12 385.656 189.064  16
   1   2  12 228.651 232.581   5
   1   2  12 50.6899 227.582   1
   1   2  12 694.474 204.627  13
   1   2  13 3809.93 424.314  13
  -1   2 -13 2572.41 340.029  16
   1   2  13 2605.48 454.558   1
  -1   2 -13 2814.41 459.138  12
   1   2  13 2317.56 412.069   5
   1   2  14 724.811 320.911   1
   1   2  14 954.469 390.244   5
  -1   2 -14 1013.59 269.209  16
  -1   2 -14 583.149 317.075  12
  -1   2 -15 2333.00 458.979  12
   1   2  15 2072.35 472.213   5
   1   2  15 1801.88 446.409   1
   1   2  16 14465.8 1060.78   1
   1   2  16 12214.1 1024.97   5
  -1   2 -16 13956.7 1065.40  12
  -1   2 -17 962.497 406.601  12
   1   2  17 154.352 272.097   5
   1   2  18 368.278 314.411   5
  -1   2 -18 1192.13 386.203  12
   1   3 -18 2100.12 510.008  12
  -1   3  18 1982.20 500.820   5
   1   3 -17 1693.03 437.381  12
  -1   3  17 1623.45 500.756   5
   1   3 -16 8696.70 848.681  12
  -1   3  16 11452.9 818.594   9
  -1   3  16 10491.8 809.027  13
  -1   3  16 7440.19 837.596   5
  -1   3  15 862.655 321.777  13
   1   3 -15 612.075 292.295  12
  -1   3  15 1075.54 399.730   5
   1   3 -14 4609.79 451.446  15
  -1   3  14 4425.15 489.905   9
  -1   3  14 4140.04 491.448  13
   1   3 -14 3848.82 500.630  12
  -1   3  14 3306.46 523.802   5
  -1   3  13 7465.60 618.000   9
  -1   3  13 6603.97 589.493  13
   1   3 -13 6595.07 648.842  12
  -1   3  13 5916.91 652.161   5
   1   3 -13 7591.02 564.501  15
   1   3 -12 21503.1 961.847  15
  -1   3  12 20056.6 970.137  13
  -1   3  12 18231.4 1067.23   5
   1   3 -11 4522.91 284.657  16
   1   3 -11 4250.28 421.446  15
  -1   3  11 4342.86 431.143  13
  -1   3  11 3360.48 470.952   5
   1   3 -11 4359.54 296.554   2
  -1   3  10 5380.50 446.397  13
   1   3 -10 5284.51 443.642  15
   1   3 -10 5101.15 301.794  16
  -1   3  10 4713.16 512.002   5
   1   3 -10 4854.09 306.641   2
   1   3  -9 37163.5 1232.81  15
  -1   3   9 36135.2 1175.33  13
   1   3  -9 36213.7 927.041  16
   1   3  -9 36878.0 958.199   2
  -1   3   9 35787.6 1325.24   5
   1   3  -8 29491.8 975.369  11
  -1   3   8 28787.1 1020.64  13
  -1   3   8 27651.5 1125.38   5
   1   3  -8 28406.3 813.154  16
   1   3  -8 27385.2 1050.05  15
   1   3  -7 3779.00 244.832  16
   1   3  -7 3402.30 343.284  15
   1   3  -7 3664.00 290.011  11
  -1   3   7 4181.54 341.088  13
  -1   3   7 3069.51 330.499   5
   1   3  -6 37812.3 962.489  16
   1   3  -6 35547.0 1027.00  11
  -1   3   6 37538.7 1203.92   5
  -1   3   6 32175.6 867.222   6
  -1   3   6 37675.4 1103.93  13
   1   3  -6 36577.4 1188.49  15
   1   3  -5 199784. 3967.12  15
   1   3  -5 186096. 3703.29  11
  -1   3   5 194168. 3821.74  13
  -1   3   5 204730. 3955.41   5
  -1   3   5 192316. 3853.75  16
   1   3  -5 192289. 3670.83  16
  -1   3   4 13932.4 617.244   5
   1   3  -4 14078.0 527.153  16
  -1   3   4 14049.6 597.980  16
   1   3  -4 14699.1 656.164  15
   1   3  -3 497.579 86.7538   3
   1   3  -3 334.478 138.859   5
   1   3  -3 313.878 138.724  15
   1   3  -3 605.819 176.283   7
  -1   3   3 457.795 143.040  16
  -1   3   3 601.021 159.095   5
   1   3  -3 275.861 107.606  16
   1   3  -2 195293. 3737.30   9
   1   3  -2 181637. 3856.05   7
  -1   3   2 188256. 3933.42  16
   1   3  -2 186734. 3942.60  15
   1   3  -2 194251. 3959.28   5
  -1   3   2 195654. 3885.81   5
   1   3  -1 75368.0 1856.85   5
   1   3  -1 75862.8 1847.77  15
   1   3  -1 79922.0 1746.39   9
   1   3  -1 75330.8 1782.34   7
  -1   3   1 79227.3 1869.52  16
  -1   3   1 76872.3 1643.93  14
   1   3  -1 77304.2 1684.71  13
  -1   3   1 77280.6 1794.13   5
   1   3   0 631.202 90.7584  13
   1   3   0 682.514 166.754   5
  -1   3   0 739.291 168.417   5
   1   3   0 787.977 151.126   9
   1   3   0 1011.76 171.159  15
  -1   3   0 661.820 158.125  16
  -1   3   0 583.081 78.5049  14
   1   3   0 502.915 139.415   7
   1   3   1 35958.9 1050.74   9
  -1   3  -1 37850.0 1044.52   5
  -1   3  -1 36111.8 1068.35  16
   1   3   1 35069.6 767.129  13
   1   3   1 35473.5 1072.27   5
   1   3   1 35605.0 1000.84  15
   1   3   1 35194.5 1003.26   7
  -1   3  -2 47617.8 1307.71  16
  -1   3  -2 49510.6 1355.39  11
   1   3   2 47622.9 1320.97   9
   1   3   2 47208.4 1320.30   5
   1   3   2 44187.4 1193.61  15
  -1   3  -3 68609.8 1780.63  11
  -1   3  -3 66452.0 1723.01  16
   1   3   3 67829.1 1555.07  15
   1   3   3 67936.0 1770.62   5
   1   3   3 68235.9 1767.78   9
  -1   3  -4 14334.1 675.675  11
   1   3   4 14144.2 497.877  15
  -1   3  -4 13429.8 624.873  16
   1   3   4 14458.6 675.799   9
   1   3   4 15204.1 700.802   5
  -1   3  -5 41733.6 1325.66  11
  -1   3  -5 39250.2 1235.30  16
   1   3   5 39139.4 1284.82   9
   1   3   5 40385.9 1332.88   5
  -1   3  -6 28874.6 1098.47  11
   1   3   6 30279.5 1099.38   9
   1   3   6 26597.8 723.984   6
   1   3   6 26173.4 1099.97   5
  -1   3  -6 28778.9 1014.94  16
   1   3   7 402.090 174.267   9
  -1   3  -7 571.862 172.832  16
   1   3   7 230.652 81.0404   6
   1   3   7 393.781 250.936   5
   1   3   8 10789.1 676.167   9
   1   3   8 10975.6 443.826   6
  -1   3  -8 11330.8 629.693  16
   1   3   8 11378.0 469.527  13
   1   3   8 10431.4 704.051   5
  -1   3  -9 45812.1 1487.28  16
   1   3   9 48361.1 1621.16   9
   1   3   9 46786.8 1664.38   5
   1   3   9 46501.7 1259.72  13
  -1   3 -10 60771.9 1843.23  16
   1   3  10 61407.2 2052.44   5
   1   3  10 62520.8 1971.34   9
   1   3  10 62729.8 1626.71  13
  -1   3 -11 28098.5 1137.75  16
   1   3  11 27818.9 985.175  13
   1   3  11 25217.8 1258.65   5
  -1   3 -12 10393.2 673.488  16
   1   3  12 9962.97 807.087   5
  -1   3 -13 7973.79 607.674  16
   1   3  13 7330.62 725.859   5
  -1   3 -14 2174.39 356.343  16
   1   3  14 1809.79 417.975   5
  -1   3 -14 1895.46 413.541  12
   1   3  15 7275.51 764.166   5
  -1   3 -15 8830.54 829.024  12
   1   3  16 4918.15 706.384   5
  -1   3 -16 5012.88 656.362  12
  -1   3 -17 2287.22 503.738  12
   1   3  17 1399.94 433.566   5
   1   4 -18 3393.85 624.231  12
  -1   4  18 2171.69 511.695   5
   1   4 -17 558.233 263.605  11
  -1   4  17 1663.58 390.715   9
   1   4 -17 988.177 388.683  12
  -1   4  17 1427.53 421.956   5
   1   4 -16 841.646 284.931  11
   1   4 -16 691.374 302.509  12
  -1   4  16 1359.38 370.451   9
  -1   4  16 483.254 338.607   5
   1   4 -15 61.6919 194.197  11
   1   4 -15 338.188 208.563  15
  -1   4  15-189.063 311.688   5
   1   4 -15 708.445 312.911  12
  -1   4  15-77.0466 204.403   9
   1   4 -14 1177.85 264.240  11
  -1   4  14 1845.06 351.125  13
  -1   4  14 1800.97 380.749   9
  -1   4  14 1049.94 357.592   5
   1   4 -14 1702.58 317.654  15
   1   4 -13 1314.51 277.714  11
  -1   4  13 1777.12 361.262   9
  -1   4  13 1690.43 319.721  13
   1   4 -13 1132.14 265.726  15
  -1   4  13 1544.17 406.408   5
   1   4 -12 33004.9 1318.20  15
  -1   4  12 30400.3 1209.61  13
   1   4 -12 29508.6 1204.12  11
  -1   4  12 26098.8 1365.32   5
   1   4 -11 5202.60 495.973  15
   1   4 -11 4884.90 435.187  11
  -1   4  11 4719.42 429.356  13
   1   4 -11 4313.43 322.950  16
  -1   4  11 4216.74 523.875   5
   1   4 -10 27676.6 912.992  16
   1   4 -10 29410.0 1200.05  15
  -1   4  10 26318.1 1256.70   5
  -1   4  10 27796.2 1071.08  13
   1   4 -10 28248.2 1075.68  11
   1   4  -9 6512.52 389.263  16
  -1   4   9 6750.22 475.991  13
   1   4  -9 5277.77 430.087  11
   1   4  -9 6525.48 526.326  15
  -1   4   9 5696.50 540.502   5
   1   4  -8 25854.5 931.085  11
  -1   4   8 25548.3 1104.69   5
   1   4  -8 25852.4 1067.63  15
  -1   4   8 24527.5 919.001  13
   1   4  -8 24831.5 825.666  16
  -1   4   8 21670.3 625.366   6
   1   4  -7 20660.8 814.381  11
   1   4  -7 21647.8 765.102  16
   1   4  -7 22625.0 976.897  15
  -1   4   7 20985.3 817.053  13
  -1   4   7 22238.7 978.746   5
   1   4  -6 1940.82 285.040  15
  -1   4   6 1687.00 268.360   5
   1   4  -6 1577.60 199.768  11
   1   4  -6 1406.10 186.557  16
  -1   4   6 1735.48 259.865  16
  -1   4   6 1462.54 234.913  13
   1   4  -5 164243. 3497.89  16
   1   4  -5 161748. 3717.96  15
  -1   4   5 172573. 3719.55   5
  -1   4   5 159892. 3670.00  16
   1   4  -4 10135.8 526.734   7
   1   4  -4 10859.4 384.816   9
   1   4  -4 10357.1 508.836  16
  -1   4   4 10426.2 570.622  16
   1   4  -4 10081.0 594.248  15
  -1   4   4 10728.1 583.204   5
   1   4  -4 10935.9 361.343   3
  -1   4   3 144635. 3140.17   5
   1   4  -3 134721. 3023.50   7
   1   4  -3 135976. 3170.57  15
   1   4  -3 139932. 2852.88   9
   1   4  -3 137349. 3055.95  16
  -1   4   3 136387. 3146.22  16
   1   4  -3 142294. 3186.38   5
   1   4  -2 92455.0 2282.46  15
   1   4  -2 93706.0 2068.50   9
   1   4  -2 90855.5 2159.32   7
  -1   4   2 94328.8 2289.24  16
  -1   4   2 95483.2 2244.55   5
   1   4  -2 89748.0 2304.47   5
  -1   4   1 161132. 3416.09   5
   1   4  -1 149716. 3304.47   9
   1   4  -1 158166. 3434.82  15
  -1   4   1 157549. 3180.63  14
   1   4  -1 154020. 3302.47   7
  -1   4   1 162237. 3483.31  16
   1   4  -1 155686. 3476.75   5
   1   4   0 14081.8 466.783  13
  -1   4   0 13833.5 648.979  16
   1   4   0 13627.1 592.562   9
   1   4   0 13438.2 607.600  15
  -1   4   0 13330.3 446.146  14
  -1   4   0 14630.6 631.505   5
   1   4   0 12896.4 642.083   5
   1   4   0 12899.9 554.555   7
  -1   4  -1 44433.2 1279.69   5
   1   4   1 41662.9 942.587  13
   1   4   1 42284.0 1207.01  15
   1   4   1 43647.7 1305.40   5
  -1   4  -1 41342.1 1278.56  16
   1   4   1 41534.3 1253.48   9
   1   4   2 6447.18 461.384   5
   1   4   2 6427.16 397.021  15
  -1   4  -2 6838.65 449.268  16
   1   4   2 6944.52 462.166   9
  -1   4  -2 8073.21 462.696   5
   1   4   3 8047.86 512.312   9
  -1   4  -3 8169.64 531.407  11
  -1   4  -3 7965.97 489.592  16
   1   4   3 7501.45 398.201  15
   1   4   3 7655.38 525.465   5
  -1   4  -4 5207.96 408.429  16
   1   4   4 5625.48 459.676   9
   1   4   4 5585.63 329.785  15
   1   4   4 5462.77 472.249   5
  -1   4  -4 5416.12 437.758  11
   1   4   5 3734.42 253.437  15
   1   4   5 3719.42 404.215   5
  -1   4  -5 4038.94 402.336  11
  -1   4  -5 3676.92 346.110  16
   1   4   5 3531.84 384.287   9
  -1   4  -6-65.8302 144.716  11
   1   4   6 116.810 155.727   9
  -1   4  -6 127.640 120.309  16
   1   4   6 203.555 175.655   5
   1   4   7 10846.1 692.847   9
  -1   4  -7 10207.4 619.505  16
  -1   4  -7 10822.8 692.947  11
   1   4   7 10966.0 740.524   5
  -1   4  -8 66289.3 2046.40  11
   1   4   8 64379.9 2013.34   9
  -1   4  -8 64363.3 1893.41  16
   1   4   8 65811.3 2082.28   5
  -1   4  -9 44973.5 1520.15  16
   1   4   9 47406.2 1678.75   9
  -1   4  -9 46880.7 1700.60  11
   1   4   9 46609.6 1717.81   5
  -1   4 -10 48910.7 1623.39  16
  -1   4 -10 48731.9 1787.07  11
   1   4  10 49971.4 1779.81   9
   1   4  10 49932.3 1851.11   5
   1   4  11 6436.68 656.864   5
   1   4  11 6426.19 616.411   9
  -1   4 -11 6744.42 541.823  16
  -1   4 -11 7461.14 653.018  11
  -1   4 -12 26876.4 1332.38  11
  -1   4 -12 26753.8 1166.54  16
   1   4  12 24101.3 1310.32   5
  -1   4 -13 1498.39 358.639  11
  -1   4 -13 1671.91 305.516  16
   1   4  13 1086.27 402.212   5
  -1   4 -14 6874.36 715.646  11
  -1   4 -14 7627.59 624.401  16
   1   4  14 7293.42 782.068   5
  -1   4 -15 1857.38 415.494  11
   1   4  15 1160.55 407.838   5
  -1   4 -15 1424.56 393.681  12
  -1   4 -16 277.899 207.717  11
  -1   4 -16 515.887 324.847  12
  -1   4 -17 8567.96 864.488  11
   1   4  17 8672.67 934.914   5
  -1   4 -17 9486.61 952.424  12
  -1   5  17 5504.88 782.262   5
  -1   5  17 6338.64 709.118   9
   1   5 -17 5827.68 753.415  12
  -1   5  16 307.345 321.142   5
   1   5 -16 842.809 269.975  11
  -1   5  16 1306.50 364.060   9
  -1   5  15 2615.00 525.990   5
  -1   5  15 4090.42 559.948   9
   1   5 -15 4247.33 509.385  15
   1   5 -15 3545.17 441.514  11
  -1   5  14 1366.44 437.055   5
   1   5 -14 2764.51 429.905  15
   1   5 -14 2229.63 347.460  11
  -1   5  14 2528.42 453.016   9
  -1   5  13 4186.40 614.748   5
  -1   5  13 5046.88 587.181   9
   1   5 -13 4972.37 545.986  15
   1   5 -13 4293.88 459.631  11
  -1   5  12 2450.34 489.800   5
   1   5 -12 2943.24 383.365  11
  -1   5  12 3613.38 395.051  13
   1   5 -12 3484.23 459.628  15
  -1   5  11 1462.47 372.756   5
   1   5 -11 859.746 219.932  11
  -1   5  11 1211.93 258.678  13
   1   5 -11 860.580 264.047  15
  -1   5  10 4836.28 422.395  13
  -1   5  10 5014.98 560.661   5
   1   5 -10 4683.36 435.871  11
   1   5 -10 4676.96 509.337  15
   1   5 -10 4918.90 391.281  16
  -1   5   9 5589.41 571.245   5
   1   5  -9 5143.09 400.846  16
   1   5  -9 4913.48 491.551  15
   1   5  -9 5232.00 445.026  11
  -1   5   9 5409.35 427.331  13
  -1   5   8 3129.32 401.211   5
   1   5  -8 3410.09 347.555  11
   1   5  -8 3817.66 439.584  15
   1   5  -8 3027.82 310.417  16
  -1   5   8 3153.95 327.430  13
   1   5  -7 5394.73 408.675  16
   1   5  -7 5992.67 527.188  15
  -1   5   7 4677.19 389.347  13
  -1   5   7 5618.76 510.603   5
  -1   5   6 100273. 2637.27  16
  -1   5   6 102987. 2667.69   5
   1   5  -6 99973.4 2681.81  15
   1   5  -6 100105. 2460.32  16
  -1   5   5 12840.4 716.762   5
  -1   5   5 13400.7 728.466  16
   1   5  -5 13582.2 464.828   9
   1   5  -5 13507.6 762.598  15
   1   5  -5 12911.6 396.801   3
   1   5  -5 12411.9 640.715   7
   1   5  -5 13524.5 655.312  16
   1   5  -4 114796. 2729.80  16
   1   5  -4 114360. 2873.57  15
   1   5  -4 111878. 2662.23   7
  -1   5   4 115127. 2865.93  16
   1   5  -4 112431. 2449.78   9
   1   5  -4 121001. 2890.60   5
  -1   5   4 117088. 2849.96   5
   1   5  -3 3995.53 392.279  15
   1   5  -3 4856.29 317.646   9
   1   5  -3 4244.20 377.463  16
  -1   5   3 4674.21 409.294   5
  -1   5   3 4880.52 422.778  16
   1   5  -3 4812.68 369.351   7
   1   5  -3 4915.66 431.596   5
   1   5  -2 71704.3 1957.02  16
  -1   5   2 72344.3 2014.12  16
   1   5  -2 70234.0 1812.02   7
   1   5  -2 73794.8 1791.66   9
   1   5  -2 71595.4 1994.65  15
  -1   5   2 73499.1 1961.69   5
   1   5  -2 72686.3 2027.46   5
   1   5  -1 7509.08 448.063   9
  -1   5   1 7073.13 508.564  16
   1   5  -1 7074.40 420.495   7
   1   5  -1 7531.73 508.009  15
  -1   5   1 8143.07 517.505   5
   1   5  -1 7285.75 525.358   5
  -1   5   0 12904.7 683.862  16
   1   5   0 12566.5 619.127   9
   1   5   0 11861.7 625.739  15
  -1   5   0 13292.7 666.709   5
   1   5   0 11030.8 543.074   7
   1   5   0 13148.9 697.852   5
   1   5   1 2097.02 294.636   5
   1   5   1 2952.70 297.432  15
  -1   5  -1 3101.01 343.531   5
  -1   5  -1 2884.98 320.264  16
   1   5   1 2855.12 326.640   9
   1   5   1 3445.26 204.679  13
   1   5   2 5204.34 440.374   9
  -1   5  -2 5291.71 424.164  16
   1   5   2 5300.23 391.956  15
   1   5   2 5486.48 472.466   5
   1   5   2 5360.14 213.112  13
  -1   5  -2 6149.45 447.104   5
  -1   5  -3 32079.2 1169.63  16
   1   5   3 32159.3 1032.36  15
   1   5   3 31435.4 1206.77   5
   1   5   3 31509.5 1180.40   9
  -1   5  -4 29657.2 1117.94  16
   1   5   4 28631.1 950.146  15
  -1   5  -4 29683.8 1176.70  11
   1   5   4 28972.9 1155.60   9
   1   5   4 31203.4 1214.70   5
  -1   5  -5 11692.6 703.670  11
   1   5   5 12427.2 735.467   9
   1   5   5 11736.0 530.262  15
  -1   5  -5 11307.0 668.644  16
   1   5   5 12114.0 740.036   5
  -1   5  -6 11159.3 718.678  11
  -1   5  -6 10923.8 659.430  16
   1   5   6 11751.4 753.292   9
   1   5   6 11516.8 747.628   5
   1   5   6 11647.3 494.264  15
  -1   5  -7 10850.2 722.943  11
  -1   5  -7 10850.2 672.574  16
   1   5   7 11647.5 753.366   9
   1   5   7 11152.9 777.067   5
  -1   5  -8 57924.4 1954.65  11
  -1   5  -8 56619.8 1806.07  16
   1   5   8 61085.2 2048.90   5
   1   5   8 59680.8 1989.44   9
  -1   5  -9 56754.7 1958.53  11
   1   5   9 57598.4 2023.99   5
   1   5   9 55257.3 1944.63   9
  -1   5  -9 53153.0 1775.09  16
  -1   5 -10 13633.9 899.639  11
   1   5  10 12303.7 849.257   9
  -1   5 -10 13803.2 798.240  16
   1   5  10 12094.5 905.845   5
  -1   5 -11 40188.9 1677.81  11
   1   5  11 43273.2 1725.01   9
  -1   5 -11 38835.2 1493.11  16
   1   5  11 36970.7 1697.13   5
  -1   5 -12 5883.95 642.555  11
   1   5  12 5501.30 617.120   9
  -1   5 -12 4878.50 496.856  16
   1   5  12 4256.93 609.690   5
   1   5  13 2234.29 477.844   5
  -1   5 -13 2785.19 468.349  11
   1   5  13 3676.99 539.633   9
  -1   5 -13 2747.47 406.184  16
   1   5  14 4273.79 656.803   5
  -1   5 -14 4348.18 580.975  11
   1   5  15 2515.13 524.485   5
  -1   5 -15 2614.62 480.528  11
   1   5  16 3150.45 603.721   5
  -1   5 -16 3845.38 595.864  11
  -1   5 -16 3694.65 575.052  12
  -1   5 -17 7609.59 837.792  11
  -1   6  18 8.66552 237.968   9
  -1   6  17 779.481 389.674   5
  -1   6  17 179.414 226.552   9
  -1   6  16 3994.33 677.373   5
  -1   6  16 4573.07 637.172   9
  -1   6  15 1242.27 426.485   5
   1   6 -15 1407.32 338.159  11
   1   6 -15 1998.34 418.832  15
  -1   6  15 1801.93 448.880   9
  -1   6  14 1081.46 413.949   5
  -1   6  14 1553.18 385.841   9
   1   6 -14 1583.41 366.478  15
   1   6 -14 1631.44 324.819  11
  -1   6  13 3621.15 612.946   5
   1   6 -13 3478.42 438.844  11
   1   6 -13 4225.62 550.467  15
   1   6 -12 8627.75 650.491  11
  -1   6  12 7869.06 811.093   5
   1   6 -12 9811.28 792.530  15
   1   6 -11 867.974 277.708  15
  -1   6  11 577.162 288.667   5
   1   6 -11 1058.88 262.476  11
  -1   6  10 5214.13 623.215   5
   1   6 -10 4983.32 439.872  16
  -1   6  10 4550.85 405.470  13
   1   6 -10 5066.29 481.335  11
   1   6 -10 4887.64 553.431  15
   1   6  -9 5122.43 454.703  16
  -1   6   9 5030.43 585.855   5
   1   6  -9 4769.83 523.220  15
  -1   6   9 4710.90 402.616  13
  -1   6   8 4826.86 543.275   5
   1   6  -8 4775.97 515.348  15
  -1   6   8 4512.08 388.243  13
   1   6  -8 4403.63 410.890  16
   1   6  -7 5602.88 471.480   7
   1   6  -7 5975.57 482.667  16
   1   6  -7 6158.98 567.544  15
  -1   6   7 5083.15 411.331  13
  -1   6   7 5673.36 574.895   5
  -1   6   6 2238.65 345.344   5
   1   6  -6 1996.14 172.136   9
   1   6  -6 2172.58 288.903   7
  -1   6   6 2033.17 338.717  16
   1   6  -6 2336.17 356.654  15
   1   6  -6 2210.57 310.406  16
   1   6  -5 6210.11 492.309  16
   1   6  -5 6465.49 352.416   9
   1   6  -5 6299.21 456.773   7
   1   6  -5 6193.83 553.962  15
  -1   6   5 5991.41 535.165   5
  -1   6   5 7370.15 571.772  16
  -1   6   4 3496.56 399.870  16
   1   6  -4 3520.46 330.472   7
   1   6  -4 3138.71 404.471  15
   1   6  -4 3799.94 292.531   9
  -1   6   4 3936.09 439.150   5
   1   6  -4 4069.06 434.980   5
   1   6  -4 2926.20 372.430  16
   1   6  -3 12729.3 721.302  16
  -1   6   3 10657.6 695.442  16
   1   6  -3 11515.1 719.378  15
   1   6  -3 11412.4 596.023   7
   1   6  -3 11299.6 555.855   9
  -1   6   3 11939.1 702.721   5
   1   6  -3 12058.8 738.938   5
   1   6  -2 5885.15 427.818   9
   1   6  -2 7027.14 543.850  15
  -1   6   2 6189.17 510.615  16
  -1   6   2 6685.42 516.946   5
   1   6  -2 6513.04 516.612  16
   1   6  -2 7268.22 564.711   5
   1   6  -2 5392.12 389.825   7
  -1   6   1 12548.3 727.779  16
   1   6  -1 10510.1 546.460   7
   1   6  -1 11312.8 696.866   5
   1   6  -1 11574.6 686.023  15
   1   6  -1 11001.9 601.353   9
  -1   6   1 11866.0 691.404   5
   1   6   0 25197.6 1037.11  15
  -1   6   0 27340.8 1119.88  16
   1   6   0 23803.4 983.346   9
   1   6   0 25759.3 1104.51   5
  -1   6   0 28287.5 1110.90   5
   1   6   0 25627.2 908.322   7
   1   6   1 4409.97 448.568   5
  -1   6  -1 4207.98 418.735   5
  -1   6  -1 4155.16 412.706  16
   1   6   1 4410.34 419.423   9
   1   6   1 4433.88 405.197  15
   1   6   2 29133.9 739.742  13
   1   6   2 27609.3 1072.11  15
  -1   6  -2 26114.0 654.827   7
  -1   6  -2 31448.3 1182.51   5
  -1   6  -2 28553.1 1160.37  16
   1   6   2 29283.3 1193.34   5
   1   6   2 29187.7 1148.71   9
   1   6   3 2770.00 376.492   5
   1   6   3 2240.21 279.417  15
  -1   6  -3 2997.40 361.127  16
   1   6   3 1769.63 105.657  13
   1   6   3 2424.68 328.141   9
   1   6   4 23126.9 898.536  15
   1   6   4 23597.2 1085.32   9
   1   6   4 23750.3 1111.28   5
  -1   6  -4 23423.3 1048.06  16
   1   6   5 17078.4 923.954   9
   1   6   5 15810.6 692.099  15
  -1   6  -5 15590.7 848.862  16
   1   6   5 15879.7 921.016   5
  -1   6  -6 31249.4 1323.90  11
   1   6   6 30663.4 1011.42  15
   1   6   6 34016.7 1411.20   5
  -1   6  -6 30348.3 1246.61  16
   1   6   6 32949.6 1382.06   9
  -1   6  -7 69608.6 2207.03  11
   1   6   7 71008.1 2264.48   9
  -1   6  -7 67935.8 2109.98  16
   1   6   7 71970.1 2300.71   5
   1   6   7 68264.7 1708.15  15
   1   6   8 6166.55 629.661   5
  -1   6  -8 5412.27 559.456  11
   1   6   8 5047.15 550.493   9
  -1   6  -8 5536.62 523.407  16
   1   6   9 1264.02 332.924   5
  -1   6  -9 884.242 277.526  11
  -1   6  -9 761.723 219.195  16
   1   6   9 1179.45 315.604   9
  -1   6 -10 4554.17 545.352  11
   1   6  10 4563.04 574.762   9
   1   6  10 4095.09 546.477   5
  -1   6 -10 5292.10 526.924  16
  -1   6 -11 13919.2 963.449  11
   1   6  11 13271.0 967.880   9
  -1   6 -11 13579.4 857.323  16
   1   6  11 13147.2 999.285   5
   1   6  12 473.465 289.058   5
  -1   6 -12 397.329 258.664  11
  -1   6 -12 657.479 253.186  16
   1   6  12 78.9971 219.103   9
  -1   6 -13 3455.82 516.170  11
   1   6  13 4076.13 582.681   9
   1   6  13 2802.78 550.308   5
  -1   6 -13 3710.61 488.340  16
   1   6  14 724.070 394.715   5
  -1   6 -14 801.936 357.787  11
   1   6  15 370.719 280.872   5
  -1   6 -15 410.366 290.978  11
  -1   6 -16 929.370 338.385  11
   1   6  16 1362.84 507.123   5
  -1   7  17 156.942 260.060   9
  -1   7  16 5374.45 742.832   5
  -1   7  16 6650.51 799.118   9
   1   7 -16 6739.54 724.375  15
  -1   7  15 14642.4 1151.25   9
   1   7 -15 15098.7 1062.39  15
  -1   7  15 11237.0 1094.49   5
   1   7 -14 8969.01 734.526  11
  -1   7  14 7518.63 893.168   5
  -1   7  14 10687.2 937.820   9
   1   7 -14 10536.4 874.925  15
  -1   7  13 5368.40 721.649   5
   1   7 -13 6797.64 632.642  11
   1   7 -13 7041.86 724.609  15
  -1   7  13 7465.71 786.657   9
  -1   7  12 3295.14 565.687   5
   1   7 -12 4309.58 549.537  15
  -1   7  11 1625.79 428.245   5
   1   7 -11 2643.67 455.298  15
  -1   7  10 1327.67 396.661   5
   1   7 -10 1963.67 390.952  15
   1   7 -10 1441.66 280.488  16
  -1   7   9 393.854 259.902   5
   1   7  -9 241.175 173.212   7
   1   7  -9 591.866 272.678  15
   1   7  -9 552.525 222.712  16
   1   7  -8 20202.5 984.708  16
  -1   7   8 17884.4 810.574  13
   1   7  -8 19529.5 939.265   7
  -1   7   8 18617.3 1098.79   5
   1   7  -8 19343.5 1116.61  15
   1   7  -7 11172.9 675.705   7
   1   7  -7 11921.6 748.933  16
  -1   7   7 10959.5 620.197  13
   1   7  -7 11444.1 821.815  15
  -1   7   7 11328.2 821.927   5
   1   7  -6 8960.31 585.879   7
   1   7  -6 9983.64 458.376   9
   1   7  -6 9513.75 674.289  16
   1   7  -6 10053.8 754.337  15
  -1   7   6 9656.86 739.126  16
  -1   7   6 9943.56 741.903   5
   1   7  -5 1977.32 325.645  16
  -1   7   5 2342.09 380.115   5
   1   7  -5 1951.84 295.623   7
   1   7  -5 2039.97 226.198   9
  -1   7   5 1940.74 351.349  16
   1   7  -5 1653.00 339.472  15
   1   7  -4 5985.49 412.669   9
   1   7  -4 6794.73 563.102  16
  -1   7   4 6659.23 607.145  16
   1   7  -4 6329.11 575.673  15
   1   7  -4 5954.34 448.150   7
  -1   7   4 5542.03 540.400   5
   1   7  -4 6580.70 579.254   5
   1   7  -3 1383.76 224.189   9
  -1   7   3 987.136 259.082   5
   1   7  -3 1364.68 315.875  15
   1   7  -3 1126.60 223.993   7
   1   7  -3 977.198 245.390  16
  -1   7   3 1412.96 330.667  16
   1   7  -3 1111.39 293.286   5
   1   7  -2 23335.6 893.286   7
   1   7  -2 22773.6 1076.89  15
   1   7  -2 21618.9 906.177   9
   1   7  -2 22265.9 1074.08  16
  -1   7   2 22055.2 1068.11   5
  -1   7   2 20813.0 1067.34  16
   1   7  -2 22213.3 1096.36   5
   1   7  -1 23833.0 914.093   7
   1   7  -1 25497.8 1132.50  15
   1   7  -1 24326.6 1018.09   9
  -1   7   1 23770.7 1132.68  16
  -1   7   1 25120.1 1134.75   5
   1   7  -1 25076.6 1186.45   5
  -1   7   0 21398.7 1042.63   5
  -1   7   0 21642.7 1047.62  16
   1   7   0 20945.4 1053.24   5
   1   7   0 20390.2 993.707  15
   1   7   0 19464.4 938.195   9
  -1   7  -1 48198.2 1704.22  16
   1   7   1 48953.0 1623.52  15
   1   7   1 49426.1 1742.40   5
   1   7   1 47389.9 1611.63   9
  -1   7  -1 47319.9 1691.61   5
  -1   7  -2 33532.0 1386.03  16
   1   7   2 35410.0 1303.28  15
  -1   7  -2 34555.1 1378.25   5
   1   7   2 35045.0 1375.26   9
   1   7   2 36083.6 1446.58   5
   1   7   3 7602.30 534.853  15
   1   7   3 6387.42 575.014   9
  -1   7  -3 7007.93 593.195  16
   1   7   3 7329.96 621.425   5
  -1   7  -3 7790.63 605.499   5
  -1   7  -4 9953.10 415.859   7
   1   7   4 10097.9 730.952   9
   1   7   4 9870.40 603.096  15
   1   7   4 9268.08 716.100   5
  -1   7  -4 11204.3 759.703  16
   1   7   5 5437.33 573.456   5
   1   7   5 4676.56 401.834  15
   1   7   5 4774.95 523.220   9
  -1   7  -5 4215.43 470.432  16
  -1   7  -6 24368.8 1169.61  16
   1   7   6 25445.1 1246.51   9
   1   7   6 23965.5 1246.64   5
   1   7   6 23001.5 922.015  15
   1   7   7 3868.94 516.533   5
   1   7   7 3925.13 506.920   9
  -1   7  -7 3657.29 460.292  16
  -1   7  -8 55749.5 2022.24  11
  -1   7  -8 54229.1 1925.39  16
   1   7   8 55806.8 2114.98   5
   1   7   8 56304.5 2087.69   9
  -1   7  -9 20002.4 1152.46  11
   1   7   9 21112.4 1246.84   5
  -1   7  -9 20417.9 1096.03  16
   1   7   9 22278.1 1250.86   9
   1   7  10 900.808 388.984   9
   1   7  10 593.164 358.806   5
  -1   7 -10 420.150 235.028  16
  -1   7 -10 64.5001 187.118  11
  -1   7 -11 13821.9 1000.09  11
   1   7  11 14242.6 1040.40   9
  -1   7 -11 13041.0 887.547  16
   1   7  11 14357.2 1108.13   5
  -1   7 -12 745.071 336.451  11
  -1   7 -12 690.450 278.663  16
   1   7  12 815.620 334.100   9
   1   7  12 507.683 305.788   5
  -1   7 -13 4656.38 616.564  11
   1   7  13 4148.27 687.868   5
   1   7  13 3812.89 576.881   9
  -1   7 -14 5183.64 660.135  11
   1   7  14 6032.45 745.150   9
   1   7  14 5502.11 765.578   5
  -1   7 -15 267.252 274.948  11
   1   7  15 395.290 412.831   5
   1   8 -16 5164.71 676.145  15
  -1   8  15 307.490 332.485   5
   1   8 -15 255.198 268.946  15
  -1   8  15 170.403 224.451   9
  -1   8  14 5041.81 769.233   5
   1   8 -14 8409.66 832.237  15
  -1   8  14 7657.36 851.407   9
  -1   8  13 2488.13 535.230   5
  -1   8  13 2694.63 508.532   9
   1   8 -13 2342.96 476.153  15
   1   8 -12 1229.20 393.582  15
   1   8 -12 1922.44 393.646   7
  -1   8  12 1621.02 460.705   5
  -1   8  11 4164.64 613.433   5
   1   8 -11 3904.11 483.457   7
   1   8 -11 3736.07 569.550  15
   1   8 -10 16450.7 940.277   7
   1   8 -10 17132.9 1132.30  15
  -1   8  10 16036.2 1148.45   5
  -1   8   9 554.453 294.489   5
   1   8  -9 6.91014 170.607   7
   1   8  -9 115.676 161.640  16
   1   8  -9-2.00261 245.479  15
  -1   8   8 1609.94 389.838   5
   1   8  -8 1642.43 341.275  16
   1   8  -8 1681.02 387.334  15
   1   8  -8 1715.31 307.571   7
  -1   8   7 5266.52 604.312   5
   1   8  -7 4405.96 515.395  16
   1   8  -7 4651.85 453.927   7
   1   8  -7 5443.71 623.724  15
  -1   8   6 941.965 318.482   5
   1   8  -6 409.044 232.672  16
   1   8  -6 878.600 218.638   7
   1   8  -6 1065.51 326.924  15
   1   8  -5 17862.9 992.603  16
   1   8  -5 17374.3 748.579   9
   1   8  -5 16868.0 1040.06  15
   1   8  -5 16473.0 816.903   7
  -1   8   5 16488.8 1034.78  16
  -1   8   5 15422.2 982.639   5
  -1   8   4 3258.92 484.247  16
  -1   8   4 3172.74 441.465   5
   1   8  -4 2356.64 383.692   5
   1   8  -4 2962.30 322.700   9
   1   8  -4 2809.55 439.937  15
   1   8  -4 3085.92 352.090   7
   1   8  -4 3344.02 436.750  16
   1   8  -3 10148.5 762.296  16
  -1   8   3 10292.0 785.583  16
   1   8  -3 8883.07 545.990   7
   1   8  -3 10133.3 767.217  15
   1   8  -3 9845.98 603.253   9
   1   8  -3 9794.79 766.897   5
  -1   8   3 9725.39 748.747   5
  -1   8   2 108006. 3101.37  16
   1   8  -2 109534. 3122.93   5
   1   8  -2 108268. 3047.62  15
   1   8  -2 105224. 2614.81   7
   1   8  -2 108073. 2765.77   9
  -1   8   2 109589. 3066.57   5
   1   8  -1 5027.06 544.004   5
  -1   8   1 5616.29 573.872   5
   1   8  -1 4649.72 452.913   9
  -1   8   1 5056.07 538.681  16
   1   8  -1 5297.39 554.794  15
   1   8  -1 4526.77 405.798   7
   1   8   0 9185.14 655.180   9
   1   8   0 9666.78 700.737  15
  -1   8   0 9749.46 751.987  16
   1   8   0 9452.58 761.416   5
  -1   8   0 9421.44 730.809   5
   1   8   1 9123.31 729.431   5
   1   8   1 8302.47 652.511   9
   1   8   1 8437.71 665.716  15
  -1   8  -1 8807.48 710.123  16
  -1   8  -1 8448.27 692.584   5
  -1   8  -2 46525.1 1771.89   5
   1   8   2 47029.1 1663.17  15
   1   8   2 48803.5 1749.73   9
  -1   8  -2 45334.8 1755.10  16
   1   8   2 48365.8 1831.05   5
   1   8   3 9680.91 748.966   9
   1   8   3 10743.4 697.103  15
  -1   8  -3 10749.1 792.667  16
   1   8   3 10495.1 801.887   5
  -1   8  -3 11102.1 782.055   5
   1   8   4 11170.0 809.295   9
  -1   8  -4 10272.0 784.584  16
   1   8   4 11075.2 827.538   5
   1   8   4 10248.1 673.424  15
  -1   8  -5 8538.72 712.892  16
   1   8   5 9048.02 759.502   9
   1   8   5 9178.73 611.270  15
   1   8   5 8684.26 759.614   5
   1   8   6 6204.41 488.448  15
   1   8   6 6231.65 653.682   9
  -1   8  -6 6255.12 612.453  16
   1   8   6 4996.54 612.997   5
   1   8   7 10526.4 854.200   9
   1   8   7 10771.5 879.616   5
  -1   8  -7 10375.2 801.975  16
   1   8   8 707.466 294.792   5
   1   8   8 531.282 267.397   9
  -1   8  -8 749.931 274.834  16
   1   8   9 1779.22 432.857   5
   1   8   9 1365.62 402.947   9
  -1   8  -9 2031.38 396.797  16
   1   8  10 1342.64 395.907   9
   1   8  10 1947.54 484.330   5
  -1   8 -10 1591.28 368.412  16
   1   8  11 247.363 291.255   5
  -1   8 -11 171.250 214.684  11
  -1   8 -11 355.994 235.569  16
   1   8  11 880.376 329.424   9
   1   8  12 3259.42 594.255   9
   1   8  12 3523.41 618.772   5
  -1   8 -12 4151.88 553.046  16
  -1   8 -12 3033.00 500.659  11
   1   8  13 3902.75 654.578   5
  -1   8 -13 3308.38 556.886  11
   1   8  13 3979.35 644.595   9
   1   8  14 407.529 394.859   5
  -1   8 -14 170.188 216.275  11
   1   8  14 435.921 361.845   9
   1   9 -14 6369.21 795.907  15
  -1   9  13 2963.18 611.794   5
  -1   9  13 2837.07 564.744   9
   1   9 -13 3825.13 604.901  15
  -1   9  12 1063.28 438.708   5
   1   9 -12 1115.88 361.409  15
  -1   9  11 2219.95 503.907   5
   1   9 -11 3902.21 600.533  15
  -1   9  10 2971.47 558.775   5
   1   9 -10 3351.58 570.090  15
  -1   9   9 5826.10 720.259   5
   1   9  -9 6071.29 617.448  16
   1   9  -9 5447.59 666.822  15
   1   9  -8 550.735 266.152  16
  -1   9   8 456.436 278.078   5
   1   9  -8 259.327 267.843  15
  -1   9   7 4756.73 616.435   5
   1   9  -7 4945.22 610.340  15
   1   9  -7 5174.96 569.872  16
  -1   9   6 3990.70 559.507   5
   1   9  -6 4132.76 519.440  16
   1   9  -6 4539.51 586.210  15
  -1   9   5 2234.72 425.690   5
   1   9  -5 2104.73 434.630  15
  -1   9   5 1366.53 343.706  16
   1   9  -5 1990.80 391.828  16
  -1   9   4 1580.05 380.203   5
   1   9  -4 1432.46 354.542   5
   1   9  -4 1745.66 379.469  16
  -1   9   4 1565.28 403.038  16
   1   9  -4 1265.33 334.733  15
   1   9  -4 1644.26 262.876   9
  -1   9   3 5434.35 602.606   5
   1   9  -3 5586.05 614.303   5
   1   9  -3 6776.41 534.407   9
  -1   9   3 5296.97 615.655  16
   1   9  -3 5838.73 641.746  15
  -1   9   2 5624.46 620.227   5
   1   9  -2 5506.17 634.447   5
  -1   9   2 5763.87 637.554  16
   1   9  -2 5732.56 625.231  15
   1   9  -2 5379.33 491.132   9
  -1   9   1 20365.9 1175.12  16
   1   9  -1 18606.4 1019.16   9
   1   9  -1 19062.4 1116.70  15
  -1   9   1 22078.7 1200.56   5
   1   9  -1 19866.6 1184.76   5
   1   9   0 1716.34 370.517   5
  -1   9   0 2119.95 410.158   5
   1   9   0 1804.17 340.811   9
  -1   9   0 1975.17 381.760  16
   1   9   0 2018.53 359.119  15
   1   9   1 19411.6 1086.58   9
   1   9   1 19440.9 1091.97  15
  -1   9  -1 20570.9 1168.68  16
  -1   9  -1 21410.6 1188.16   5
   1   9   1 21337.7 1213.03   5
   1   9   2 12183.0 864.109   9
   1   9   2 11782.3 805.009  15
  -1   9  -2 11894.7 882.110  16
  -1   9  -2 12946.8 908.903   5
   1   9   2 10650.2 872.874   5
   1   9   3 3715.17 461.789  15
   1   9   3 3888.67 552.970   5
  -1   9  -3 3601.24 491.985   5
  -1   9  -3 3976.88 535.254  16
   1   9   3 4194.24 529.461   9
   1   9   4 13890.5 963.216   9
  -1   9  -4 14865.2 994.616  16
   1   9   4 13547.3 836.857  15
   1   9   4 13259.9 995.121   5
   1   9   5 15841.9 1055.62   9
  -1   9  -5 13615.2 962.076  16
   1   9   5 14282.4 832.440  15
   1   9   5 13853.6 1004.33   5
   1   9   6 9164.06 830.776   9
  -1   9  -6 9375.93 791.064  16
   1   9   6 8074.84 822.074   5
   1   9   7 3248.25 534.719   9
   1   9   7 4300.28 630.963   5
  -1   9  -7 4232.16 545.385  16
   1   9   8 10567.8 936.541   9
  -1   9  -8 11650.6 898.679  16
   1   9   8 11673.2 1010.79   5
   1   9   9 585.373 391.015   5
  -1   9  -9 163.134 232.745  16
   1   9   9 468.930 258.499   9
  -1   9 -10 11340.5 913.260  16
   1   9  10 11312.3 998.258   9
   1   9  10 11744.2 1052.97   5
   1   9  11 5340.53 721.828   9
  -1   9 -11 4133.45 569.039  16
   1   9  11 4356.90 647.190   5
   1   9  12 3400.29 593.087   9
   1   9  12 3138.70 600.708   5
   1  10 -12 2153.88 468.485  15
  -1  10  11 5261.51 753.419   5
   1  10 -11 6500.44 771.779  15
  -1  10  10 125.505 317.805   5
   1  10 -10 306.953 244.204  15
  -1  10   9 1079.11 360.814   5
   1  10  -9 455.174 296.203  15
  -1  10   8 1686.01 433.049   5
   1  10  -8 1701.57 435.344  15
   1  10  -8 1579.10 374.084  16
  -1  10   7 1892.37 519.246   5
   1  10  -7 1189.44 370.762  16
   1  10  -7 1075.13 339.872  15
  -1  10   6 942.602 382.124   5
   1  10  -6 557.278 278.351  16
   1  10  -6 306.681 254.563  15
   1  10  -5 1930.41 473.626  15
  -1  10   5 1334.42 388.904   5
  -1  10   4 3372.25 520.318   5
  -1  10   4 3757.01 571.070  16
   1  10  -4 3555.78 542.769   5
   1  10  -4 3135.10 511.714  15
  -1  10   3 13354.7 1030.35  16
  -1  10   3 11182.3 931.095   5
   1  10  -3 12169.9 956.804  15
   1  10  -3 12403.5 971.940   5
  -1  10   2 1687.84 379.254   5
   1  10  -2 1999.49 439.466   5
  -1  10   2 2299.60 459.151  16
   1  10  -2 1713.17 340.488   9
   1  10  -2 2329.86 430.767  15
  -1  10   1 351.492 321.881   5
   1  10  -1 57.2856 203.138   9
   1  10  -1-101.942 255.897   5
  -1  10   1 71.6163 256.100  16
   1  10  -1 368.404 293.269  15
  -1  10   0 18238.1 1164.46  16
   1  10   0 19202.8 1079.78   9
   1  10   0 17413.2 1108.30  15
   1  10   0 17198.1 1177.89   5
  -1  10   0 17672.4 1167.39   5
  -1  10  -1 2586.12 470.699  16
   1  10   1 2702.68 499.690   5
   1  10   1 3320.74 488.030   9
  -1  10  -1 2755.28 478.459   5
   1  10   1 2397.31 430.907  15
   1  10   2 3740.79 528.989   9
  -1  10  -2 3458.26 534.325   5
  -1  10  -2 2937.01 501.877  16
   1  10   2 3116.99 533.422   5
   1  10   2 3201.97 481.950  15
   1  10   3 11848.7 922.195   9
   1  10   3 12303.8 864.056  15
  -1  10  -3 12325.1 953.315  16
   1  10   3 11202.3 948.090   5
   1  10   4 93.5569 247.513   5
   1  10   4 186.896 269.730   9
  -1  10  -4 624.345 295.660  16
   1  10   4 349.724 209.448  15
   1  10   5 1902.86 425.406   9
   1  10   5 2540.30 512.640   5
  -1  10  -5 1242.95 352.510  16
   1  10   6 341.651 279.422   9
   1  10   6 481.041 331.457   5
  -1  10  -6 605.150 286.933  16
   1  10   7 7508.97 810.338   9
   1  10   7 5089.54 716.067   5
  -1  10  -7 7462.38 773.678  16
   1  10   8 10011.8 955.030   9
  -1  10  -8 10915.5 923.285  16
   1  10   8 10346.1 971.925   5
   1  10   9 4054.08 677.897   5
  -1  10  -9 4840.22 617.339  16
   1  10   9 4668.31 688.812   9
   1  10  10 2702.97 620.816   5
   1  10  10 2507.57 542.014   9
  -1  10 -10 2918.93 512.446  16
  -1  10 -11 1817.45 453.559  16
   1  11  -9 4279.83 689.424  15
  -1  11   9 2777.41 623.594   5
  -1  11   8 73.5561 333.319   5
   1  11  -8 730.815 436.710  15
  -1  11   7 429.368 328.752   5
   1  11  -7 1299.56 392.399  15
   1  11  -6 12610.8 1063.37  15
  -1  11   6 11920.7 1073.85   5
   1  11  -5 3869.95 641.037  15
  -1  11   5 4339.84 640.838   5
   1  11  -4 26358.9 1530.89  15
  -1  11   4 26255.2 1536.89   5
   1  11  -3 9199.15 886.538  15
  -1  11   3 9453.30 926.683  16
  -1  11   3 10233.1 950.181   5
   1  11  -3 8763.36 881.932   5
  -1  11   2 14343.9 1116.24  16
   1  11  -2 13676.9 1050.78  15
  -1  11   2 13888.3 1097.51   5
   1  11  -2 13026.4 1068.49   5
  -1  11   1 18270.7 1246.25  16
   1  11  -1 19389.1 1256.12  15
   1  11  -1 18442.3 1090.94   9
   1  11  -1 17985.6 1280.81   5
  -1  11   1 19743.1 1300.50   5
   1  11   0 900.867 337.461   5
  -1  11   0 570.473 277.572   5
   1  11   0 1469.41 354.095   9
  -1  11   0 1296.51 415.645  16
   1  11   0 1145.27 336.233  15
   1  11   1 4352.76 635.462   5
  -1  11  -1 4648.99 623.281   5
  -1  11  -1 4943.90 657.335  16
   1  11   1 4974.55 607.249   9
   1  11   1 5006.51 626.158  15
   1  11   2 2451.24 416.872  15
   1  11   2 1831.12 450.899   5
  -1  11  -2 2886.18 493.143   5
  -1  11  -2 2373.01 480.008  16
   1  11   2 2931.93 486.981   9
   1  11   3 1303.36 417.952   5
   1  11   3 952.017 300.367  15
   1  11   3 1429.73 387.373   9
  -1  11  -3 1534.66 428.057  16
  -1  11  -4 704.066 324.287  16
   1  11   4 775.168 328.062   5
   1  11   4 551.741 275.518   9
   1  11   5 1973.31 523.738   5
   1  11   5 2342.74 484.678   9
  -1  11  -5 2466.15 499.190  16
  -1  11  -6 2613.10 468.960  16
   1  11   6 2588.75 533.760   5
   1  11   6 1745.67 419.484   9
   1  11   7 9649.83 938.157   9
  -1  11  -7 10557.7 951.206  16
   1  11   7 9289.96 974.838   5
  -1  11  -8 586.548 318.077  16
   1  11   8 548.520 381.402   5
   1  11   8 954.701 431.352   9
  -1  11  -9 3719.21 582.590  16
  -1  11 -10 3641.62 591.248  16
  -1  12   6 14092.2 1204.25   5
  -1  12   5 2552.39 563.623   5
   1  12  -5 2795.84 569.970  15
  -1  12   4 6362.22 788.236   5
   1  12  -4 6294.26 785.675  15
  -1  12   3 2276.90 474.994   5
   1  12  -3 2162.11 495.302   5
   1  12  -3 2913.97 562.412  15
  -1  12   2 640.822 374.643   5
   1  12  -2 1468.56 422.457   5
  -1  12   2 854.023 350.043  16
   1  12  -2 986.209 338.538  15
  -1  12   1 3871.17 602.075  16
   1  12  -1 5066.16 688.101  15
  -1  12   1 5255.24 738.613   5
   1  12  -1 4095.11 650.756   5
   1  12   0 1463.84 416.569  15
  -1  12   0 1418.92 430.206   5
   1  12   0 1327.39 357.603   9
  -1  12   0 1527.20 407.211  16
   1  12   0 2131.11 488.986   5
  -1  12  -1 1028.77 382.193   5
   1  12   1 2350.25 562.935   5
   1  12   1 2014.20 442.060  15
  -1  12  -1 2391.12 512.883  16
   1  12   1 1669.74 379.982   9
  -1  12  -2 2050.45 480.920  16
   1  12   2 674.451 369.294   5
  -1  12  -2 1852.68 467.449   5
   1  12   2 1849.79 460.496  15
   1  12   2 1844.52 429.251   9
   1  12   3 2115.42 517.812   5
  -1  12  -3 1566.81 400.665  16
   1  12   3 1812.38 440.812   9
   1  12   4 1145.26 508.418   5
   1  12   4 947.944 354.680   9
  -1  12  -4 1767.05 473.233  16
   1  12   5 2862.97 578.613   9
  -1  12  -5 3317.88 592.024  16
   1  12   6 2946.53 570.604   9
  -1  12  -6 1560.17 452.544  16
   1  13   0 1297.15 420.485  15
   1  13   1 4810.89 647.774  15
   1  13   2 221.001 273.103   9
   1  13   3 3100.49 560.584   9
  -2 -12   5 2691.53 521.777   1
  -2 -12   4 3249.24 583.654   1
   2 -12  -3 1426.80 450.887   1
  -2 -12   3-68.9668 273.018   1
  -2 -12   3 851.321 389.741  14
  -2 -12   2 2670.14 556.197  10
   2 -12  -2 2820.86 583.704   1
  -2 -12   2 3217.67 549.816  14
  -2 -12   2 4108.44 680.613   1
   2 -12  -1-223.745 307.610   1
  -2 -12   1-5.01851 348.481  10
  -2 -12   1 134.855 278.367  14
  -2 -12   0 4353.77 651.991  14
  -2 -12   0 4130.68 645.747  10
  -2 -12   0 3480.26 629.782   1
   2 -12   0 4536.64 719.514   1
   2 -12   1 368.274 424.038   1
  -2 -12  -1 24.8845 305.210   1
  -2 -12  -1 237.412 294.845  14
  -2 -12  -2 1948.34 550.103   1
  -2 -12  -2 1303.66 410.177  14
   2 -12   2 2548.54 601.261   1
  -2 -12  -3 3993.83 627.442   1
  -2 -12  -3 5311.97 731.141  14
  -2 -12  -4 5355.56 752.737   1
  -2 -12  -4 7154.42 856.858  14
  -2 -11   9 403.786 304.103   1
   2 -11  -8 2039.14 494.899   1
  -2 -11   8 1845.34 474.196   1
   2 -11  -7 1872.62 460.525   1
  -2 -11   7 2036.10 458.759   1
  -2 -11   6 2861.09 532.015   1
  -2 -11   6 2210.48 443.850  14
   2 -11  -6 3141.15 581.124   1
   2 -11  -5 548.061 423.613   1
  -2 -11   5 962.712 403.204   1
  -2 -11   5 131.531 253.432  14
   2 -11  -4 11124.0 1045.18   1
  -2 -11   4 10745.8 949.419   1
  -2 -11   4 9831.47 890.227  14
  -2 -11   3 2231.51 513.342  10
   2 -11  -3 1771.92 542.871   1
  -2 -11   3 1598.64 418.528   1
  -2 -11   3 1682.10 429.123  14
  -2 -11   2 3712.71 611.358  10
  -2 -11   2 3019.48 525.105  14
   2 -11  -2 4161.66 676.612   1
  -2 -11   2 3949.31 596.079   1
  -2 -11   1 1309.49 391.811  10
   2 -11  -1 1912.68 494.308   1
  -2 -11   1 1584.51 422.529  14
  -2 -11   1 1281.61 404.940   1
  -2 -11   0 6423.78 754.784  10
  -2 -11   0 6174.47 735.640   1
   2 -11   0 7142.31 818.405   1
  -2 -11   0 5791.28 721.506  14
  -2 -11  -1 4628.28 648.200  14
  -2 -11  -1 5016.02 662.021  10
   2 -11   1 6213.60 796.818   1
  -2 -11  -1 3966.09 685.767   1
  -2 -11  -2 718.008 364.563  10
  -2 -11  -2 374.068 376.862   1
  -2 -11  -2 944.800 371.112  14
   2 -11   2 692.244 336.801   1
  -2 -11  -3 1161.08 358.367  10
  -2 -11  -3 1556.63 491.126   1
  -2 -11  -3 1044.47 379.682  14
   2 -11   3 980.300 369.975   1
  -2 -11  -4 4428.54 649.575   1
   2 -11   4 4185.70 634.990   1
  -2 -11  -4 4991.17 694.674  14
  -2 -11  -5 122.976 351.290   1
   2 -11   5 96.2921 346.298   1
  -2 -11  -5 529.755 306.664  14
  -2 -11  -6 3242.39 602.563   1
  -2 -11  -6 4027.09 649.381  14
   2 -11   6 4640.09 692.357   1
  -2 -11  -7 888.726 428.956   1
  -2 -11  -7 707.995 350.649  14
   2 -11   7 1013.33 472.760   1
  -2 -11  -8 5978.94 755.385   1
  -2 -10  11 3898.11 635.868   1
   2 -10 -11 2788.86 555.270  12
  -2 -10  10 3401.31 569.144   1
   2 -10 -10 3580.61 598.357  12
   2 -10  -9 742.723 322.905  12
  -2 -10   9 693.922 388.576   1
  -2 -10   9 433.254 273.187  14
  -2 -10   8 9118.37 853.969   1
  -2 -10   8 6108.21 697.500  14
   2 -10  -8 9557.13 929.366  12
   2 -10  -7 598.657 304.672  12
   2 -10  -7 1256.97 448.946   1
  -2 -10   7 896.365 362.318   1
  -2 -10   7 311.807 252.787  14
  -2 -10   6 835.738 325.249   1
   2 -10  -6 1397.74 423.174   1
  -2 -10   6 1014.71 323.321  14
   2 -10  -5 5690.69 691.863   1
  -2 -10   5 5612.93 662.484   1
  -2 -10   5 3965.84 567.668  14
   2 -10  -4 6343.83 598.637  10
   2 -10  -4 5828.97 698.730   1
  -2 -10   4 4822.82 605.716  14
  -2 -10   4 4876.89 640.077  10
  -2 -10   4 6189.38 693.870   1
  -2 -10   3 2428.38 441.092  14
   2 -10  -3 2853.93 438.955  10
   2 -10  -3 2955.25 565.952   1
  -2 -10   3 2823.21 507.234  10
  -2 -10   3 2406.34 456.720   1
   2 -10  -2 1973.29 344.766  10
  -2 -10   2 1541.09 406.239  10
   2 -10  -2 2745.68 502.599   1
  -2 -10   2 1500.40 404.118   1
  -2 -10   2 1940.08 412.648  14
  -2 -10   1 224.544 316.856  10
   2 -10  -1 590.524 401.271   1
  -2 -10   1 117.700 343.598   1
  -2 -10   1-286.616 248.779  14
  -2 -10   0 5195.94 654.087  10
  -2 -10   0 5778.73 669.109   1
   2 -10   0 6042.11 701.101   1
  -2 -10   0 5493.20 659.810  14
  -2 -10  -1 2776.67 495.201  10
  -2 -10  -1 3244.12 542.872   1
   2 -10   1 2796.52 513.999   1
  -2 -10  -1 2485.25 480.276  14
  -2 -10  -2 1037.65 367.556  10
  -2 -10  -2 2094.58 452.854   1
   2 -10   2 1814.82 482.628   1
  -2 -10  -2 1544.67 389.989  14
  -2 -10  -3 1317.46 389.882   1
  -2 -10  -3 1008.25 338.694  14
   2 -10   3 715.126 324.739   1
  -2 -10  -4 4805.68 658.754   1
  -2 -10  -4 4082.42 609.820  14
   2 -10   4 4153.76 606.666   1
  -2 -10  -5 1782.87 419.708   1
   2 -10   5 1606.97 433.467   1
  -2 -10  -5 1672.85 416.638  14
  -2 -10  -6 246.066 297.751   1
   2 -10   6 321.559 304.446   1
  -2 -10  -6 388.010 301.572  14
  -2 -10  -7 530.176 285.546  12
  -2 -10  -7 316.013 334.900   1
  -2 -10  -7 1220.36 424.013  14
   2 -10   7 554.885 365.402   1
  -2 -10  -8 2066.09 460.617  12
   2 -10   8 1508.85 487.644   1
  -2 -10  -8 1925.50 473.634  14
  -2 -10  -9 1800.45 458.367  12
  -2 -10  -9 1544.65 417.184  14
   2 -10   9 2215.15 550.977   1
  -2 -10 -10 1353.87 388.154  12
   2  -9 -13 6221.67 777.984  12
  -2  -9  13 4834.90 701.018   1
  -2  -9  13 4424.23 696.263  13
   2  -9 -12 590.669 353.808  12
  -2  -9  12 444.335 335.856   1
  -2  -9  12 612.375 327.180  13
   2  -9 -11 2694.55 547.819  12
  -2  -9  11 2630.56 508.876   1
  -2  -9  11 2840.51 551.615  13
  -2  -9  10 3270.57 541.888   1
   2  -9 -10 2752.29 520.698  12
  -2  -9  10 2605.15 513.101  13
  -2  -9   9 8239.83 774.811  13
  -2  -9   9 8983.94 816.707   1
   2  -9  -9 8980.24 865.872  12
   2  -9  -8 1928.55 447.410  12
  -2  -9   8 1675.85 420.243  13
  -2  -9   8 776.558 309.671  14
  -2  -9   8 1275.83 341.854   1
   2  -9  -7 3905.18 571.225  12
  -2  -9   7 3075.38 481.197  14
  -2  -9   7 3542.59 486.273  13
  -2  -9   7 4504.63 566.579   1
   2  -9  -6 2201.20 444.304  12
  -2  -9   6 2199.29 405.712   1
   2  -9  -6 1884.89 440.511   1
  -2  -9   6 1003.71 353.279  14
  -2  -9   6 1628.69 361.923  13
   2  -9  -5 1564.93 412.757   1
  -2  -9   5 1239.08 334.586  14
  -2  -9   5 467.622 252.746   1
   2  -9  -4 27391.3 1414.18   1
  -2  -9   4 23922.0 1322.95  10
  -2  -9   4 26246.2 1299.18   1
  -2  -9   4 22726.3 1279.19  14
   2  -9  -3 2984.33 396.352  10
   2  -9  -3 2809.32 478.382   1
  -2  -9   3 2051.88 418.603  10
  -2  -9   3 2501.97 421.177   1
  -2  -9   3 2112.31 409.197  14
   2  -9  -2 700.435 241.573  10
  -2  -9   2 198.466 261.630  10
   2  -9  -2 714.561 307.623   1
  -2  -9   2 1047.67 319.654   1
   2  -9  -2 476.548 203.235   6
  -2  -9   2 1016.14 380.916  14
  -2  -9   1 1673.87 404.122  10
   2  -9  -1 1844.37 321.938  10
   2  -9  -1 2576.53 454.760   1
  -2  -9   1 2038.84 405.551   1
  -2  -9   1 1725.68 388.956  14
  -2  -9   0 11130.2 872.077  10
   2  -9   0 11630.5 727.735  10
  -2  -9   0 10944.9 826.290   1
  -2  -9   0 11979.8 913.193  14
   2  -9   0 13482.0 959.611   1
  -2  -9  -1 49.4327 251.502  10
  -2  -9  -1 283.577 248.252   1
   2  -9   1 289.397 262.989   1
  -2  -9  -1 458.479 262.397  14
  -2  -9  -2 1920.20 397.049   1
   2  -9   2 1391.05 437.477   1
  -2  -9  -2 963.580 311.804  14
  -2  -9  -3 1252.87 354.470   1
   2  -9   3 1048.14 393.016   1
  -2  -9  -3 31.3474 212.357  14
  -2  -9  -4 4592.13 584.305   1
   2  -9   4 3732.17 540.710   1
  -2  -9  -4 3151.08 533.180  14
  -2  -9  -5 10228.8 865.470   1
  -2  -9  -5 8462.92 813.976  14
   2  -9   5 8765.68 802.045   1
  -2  -9  -5 9793.80 844.847  12
  -2  -9  -6 4315.50 572.940  12
  -2  -9  -6 4793.26 625.149  14
   2  -9   6 5446.36 650.814   1
  -2  -9  -7 5147.81 635.993  12
  -2  -9  -7 5126.78 673.072  14
   2  -9   7 5373.30 655.804   1
  -2  -9  -8 11153.5 995.358  14
   2  -9   8 12043.1 984.413   1
  -2  -9  -8 11107.7 938.863  12
  -2  -9  -9 2718.09 505.106  12
  -2  -9  -9 1204.20 396.556  14
   2  -9   9 1940.47 491.913   1
   2  -9  10 877.417 423.331   1
  -2  -9 -10 536.461 284.224  14
  -2  -9 -10 888.700 352.717  12
  -2  -9 -11 308.999 257.498  12
  -2  -9 -11 756.366 366.036  14
   2  -9  11 573.301 384.988   1
  -2  -9 -12 1573.37 433.889  12
  -2  -8  15 6475.46 816.321   1
   2  -8 -14 4964.93 666.797  12
  -2  -8  14 4993.45 730.835   1
  -2  -8  14 4853.61 707.112  13
  -2  -8  13 3400.24 576.185   1
   2  -8 -13 2563.77 515.406  12
  -2  -8  13 3108.63 604.320  13
   2  -8 -12 1147.64 379.153  12
  -2  -8  12 1118.40 389.645   1
  -2  -8  12 848.318 410.471  13
   2  -8 -11 89.5937 260.874  12
  -2  -8  11 277.867 295.077   1
  -2  -8  11 216.290 250.357  13
  -2  -8  10 5980.32 680.538   1
  -2  -8  10 5819.34 671.713  13
   2  -8 -10 5743.67 687.388  12
   2  -8  -9 251.208 241.955  12
  -2  -8   9 296.392 269.368  13
  -2  -8   9 414.755 283.338   1
   2  -8  -8 3575.31 521.270  12
  -2  -8   8 2978.61 462.214  13
  -2  -8   8 3018.43 456.017   1
   2  -8  -7 2275.68 419.268  12
  -2  -8   7 2887.66 441.893  13
  -2  -8   7 3200.24 462.790   1
   2  -8  -6 1606.06 366.313  12
  -2  -8   6 1086.02 288.918  14
  -2  -8   6 1204.37 349.668   1
  -2  -8   6 1358.17 286.811  13
   2  -8  -5 2336.45 413.885  12
  -2  -8   5 1788.37 345.676   1
  -2  -8   5 2430.97 371.544  13
  -2  -8   5 1774.90 360.190  14
  -2  -8   4 10791.2 822.029  10
  -2  -8   4 11345.1 784.770   1
  -2  -8   4 9483.15 781.027  14
  -2  -8   4 10731.8 701.428  13
   2  -8  -4 11219.0 609.829   6
   2  -8  -4 13307.8 895.374   1
   2  -8  -3 22257.3 1177.04   1
  -2  -8   3 18491.8 1093.70  10
  -2  -8   3 21817.7 1091.51   1
  -2  -8   3 18852.4 888.559  13
  -2  -8   3 18017.0 1073.38  14
   2  -8  -3 21147.5 898.693   6
   2  -8  -2 12850.1 723.206  10
  -2  -8   2 12468.1 869.353  10
   2  -8  -2 13067.8 900.972   1
  -2  -8   2 11863.1 799.748   1
  -2  -8   2 12295.1 871.514  14
   2  -8  -2 12232.8 694.064   6
  -2  -8   1 40195.7 1666.03  10
   2  -8  -1 40960.6 1408.88  10
   2  -8  -1 41548.5 1678.56   1
  -2  -8   1 40637.9 1578.18   1
  -2  -8   1 40008.1 1676.87  14
  -2  -8   0 30368.2 1424.54  10
   2  -8   0 30277.8 1160.20  10
  -2  -8   0 32078.2 1372.01   1
   2  -8   0 30398.1 1415.88   1
  -2  -8   0 30383.7 1447.01  14
  -2  -8  -1 3827.21 478.908   1
   2  -8   1 4499.06 520.472   1
  -2  -8  -1 4777.05 578.300  14
  -2  -8  -2 10721.0 758.903   1
   2  -8   2 11587.9 831.175   1
  -2  -8  -2 10257.3 813.864  14
   2  -8   2 9503.39 552.266   2
  -2  -8  -3 11630.6 844.577   1
   2  -8   3 11106.5 818.313   1
  -2  -8  -3 10281.6 838.787  14
  -2  -8  -4 16804.5 1028.62   1
   2  -8   4 16512.7 1040.29   1
  -2  -8  -4 17077.7 1101.68  14
  -2  -8  -4 17701.2 1072.32  12
  -2  -8  -5 31912.7 1550.64  14
   2  -8   5 29128.7 1437.35   1
  -2  -8  -5 32201.3 1464.19  12
  -2  -8  -6 3949.34 525.470  12
  -2  -8  -6 4195.52 568.797  14
   2  -8   6 3476.16 513.361   1
  -2  -8  -7 9867.03 818.090  12
   2  -8   7 8424.91 789.027   1
  -2  -8  -7 8313.92 816.968  14
  -2  -8  -8 7186.72 773.443  14
   2  -8   8 5912.68 667.644   1
  -2  -8  -8 6261.53 673.134  12
  -2  -8  -9 4595.19 596.120  12
  -2  -8  -9 4646.77 624.309  14
   2  -8   9 5560.10 680.041   1
  -2  -8 -10 751.834 329.256  12
   2  -8  10 820.824 409.050   1
  -2  -8 -10 882.915 358.188  14
  -2  -8 -11 1254.33 361.467  12
   2  -8  11 906.545 424.008   1
  -2  -8 -11 791.195 334.711  14
  -2  -8 -12 130.921 278.161  12
   2  -8  12 774.864 414.818   1
  -2  -8 -12 281.316 243.128  14
  -2  -8 -13 3436.95 578.621  12
   2  -8  13 4009.78 659.459   1
   2  -7 -16 4847.11 706.292  12
  -2  -7  16 4279.69 667.718   1
  -2  -7  15 6919.36 840.729  13
   2  -7 -15 6214.64 778.885  12
  -2  -7  15 5765.70 740.774   1
   2  -7 -14 485.410 291.200  12
  -2  -7  14 689.562 367.069   1
  -2  -7  14 675.853 366.543  13
   2  -7 -13 564.060 318.661  12
  -2  -7  13 256.745 280.650  13
  -2  -7  13 394.991 341.626   1
  -2  -7  12 3329.37 522.999   1
   2  -7 -12 2417.22 443.205  12
  -2  -7  12 2316.21 464.868  13
   2  -7 -11 449.681 257.089  12
  -2  -7  11 885.328 330.727   1
  -2  -7  11 1171.26 355.999  13
   2  -7 -10 721.827 302.105  12
  -2  -7  10-205.218 216.490   1
  -2  -7  10 509.218 299.952  13
  -2  -7   9 15187.8 962.668   1
  -2  -7   9 14952.4 986.499  13
   2  -7  -9 18206.5 1109.03  12
  -2  -7   8 1146.22 331.218  13
   2  -7  -8 1209.26 316.970  12
  -2  -7   8 1449.94 339.098   1
  -2  -7   7 9352.47 697.606   1
  -2  -7   7 8907.83 693.239  13
   2  -7  -7 10511.3 805.515  12
  -2  -7   6 7509.40 622.614   1
  -2  -7   6 6635.21 575.092  13
   2  -7  -6 8015.66 688.388  12
   2  -7  -5 3873.30 471.090  12
  -2  -7   5 3771.45 449.284   1
  -2  -7   5 3146.12 390.438  13
  -2  -7   4 7573.06 659.265  10
  -2  -7   4 8723.44 637.289   1
  -2  -7   4 7374.28 639.594  14
  -2  -7   4 7846.95 591.638  13
   2  -7  -4 8616.70 508.743   6
   2  -7  -4 8575.45 701.960  12
  -2  -7   3 9105.52 648.243   1
   2  -7  -3 10139.0 730.454   1
  -2  -7   3 9339.76 708.490  10
  -2  -7   3 8560.55 686.417  14
   2  -7  -3 9112.97 553.883   6
  -2  -7   3 9161.93 583.692  13
  -2  -7   2 28311.9 1269.05  10
  -2  -7   2 27992.8 1018.90  13
   2  -7  -2 30398.7 1334.98   1
  -2  -7   2 27662.3 1291.63  14
   2  -7  -2 30434.2 1116.64   6
  -2  -7   2 29339.8 1200.46   1
  -2  -7   1 33231.0 1397.47  10
   2  -7  -1 32744.0 1138.11  10
   2  -7  -1 34216.7 1420.30   1
  -2  -7   1 35349.1 1356.37   1
  -2  -7   1 32768.9 1423.12  14
  -2  -7   0 16492.2 940.507  10
   2  -7   0 16207.9 738.474  10
  -2  -7   0 18169.9 923.361   1
   2  -7   0 17018.0 941.182   1
  -2  -7   0 16066.7 969.650  14
  -2  -7  -1 6872.35 579.319   1
   2  -7   1 7103.26 600.476   1
  -2  -7  -1 7469.49 662.932  14
  -2  -7  -2 963.747 267.535   1
   2  -7   2 302.379 224.213   1
  -2  -7  -2 851.999 288.830  14
   2  -7   2 857.198 198.639   2
  -2  -7  -3 5601.70 544.368   1
   2  -7   3 4470.95 343.625   2
   2  -7   3 5399.23 559.313   1
  -2  -7  -3 5956.90 609.147  14
  -2  -7  -3 5655.51 553.477  12
  -2  -7  -4 18613.1 1104.18  14
  -2  -7  -4 19372.5 1034.80  12
   2  -7   4 19947.2 1077.25   1
   2  -7   5 14974.3 930.862   1
  -2  -7  -5 15458.6 1012.02  14
  -2  -7  -5 15612.8 934.087  12
  -2  -7  -6 1550.07 333.425  12
   2  -7   6 746.923 273.373   1
  -2  -7  -6 1285.79 343.621  14
  -2  -7  -7 7215.53 653.350  12
  -2  -7  -7 5769.15 645.415  14
   2  -7   7 6318.55 663.234   1
  -2  -7  -8 9700.34 797.452  12
   2  -7   8 10125.6 840.003   1
  -2  -7  -8 10133.4 854.790  14
  -2  -7  -9 51.0038 188.267  12
   2  -7   9 635.492 297.865   1
  -2  -7  -9 250.950 281.967  14
  -2  -7 -10 3701.15 523.724  12
   2  -7  10 2661.56 513.901   1
  -2  -7 -10 2636.57 473.367  14
   2  -7  11 9540.56 878.898   1
  -2  -7 -11 9077.28 884.207  14
  -2  -7 -11 7293.70 750.031  12
  -2  -7 -12 123.701 258.919  12
   2  -7  12 145.328 311.637   1
  -2  -7 -12 383.914 319.372  14
  -2  -7 -13 1654.10 415.454  12
   2  -7  13 2466.72 550.912   1
  -2  -7 -13 1471.26 467.373  14
  -2  -7 -14 2781.00 505.340  12
   2  -7  14 2797.30 593.718   1
  -2  -6  17 1217.63 420.219   1
   2  -6 -17 2687.32 577.135  12
   2  -6 -16 356.096 338.960  12
  -2  -6  16 1023.09 449.152  13
  -2  -6  16 478.902 340.681   1
   2  -6 -15 1358.40 414.715  12
  -2  -6  15 1051.08 425.337   1
  -2  -6  15 2147.93 492.087  13
   2  -6 -14 1924.31 448.006  12
  -2  -6  14 1870.13 471.043   1
  -2  -6  14 1559.36 426.870  13
   2  -6 -13 5720.87 676.825  12
  -2  -6  13 4929.63 634.716   1
  -2  -6  13 5556.43 694.833  13
   2  -6 -12 977.593 312.127  12
  -2  -6  12 737.360 325.351   1
  -2  -6  12 1231.55 398.578  13
   2  -6 -11 555.890 297.874  12
  -2  -6  11 468.723 319.266   1
  -2  -6  11 393.275 280.357  13
  -2  -6  10 20772.3 1123.34   1
   2  -6 -10 21978.8 1212.57  12
  -2  -6  10 22587.0 1216.66  13
   2  -6  -9 4296.41 519.242  12
  -2  -6   9 4913.49 533.566   1
  -2  -6   9 3989.01 497.891  13
   2  -6  -8 1244.93 313.686  12
  -2  -6   8 1138.38 340.436  13
  -2  -6   8 1653.08 338.975   1
  -2  -6   7 14171.1 833.021   1
   2  -6  -7 16008.2 942.781  12
  -2  -6   7 15496.6 889.794  13
   2  -6  -6 816.077 252.696  12
  -2  -6   6 1396.52 304.121  13
  -2  -6   6 903.071 254.386   1
  -2  -6   5 54696.7 1646.62   1
  -2  -6   5 53206.1 1622.09  13
   2  -6  -5 54971.2 1793.91  12
  -2  -6   4 9571.96 681.728  10
  -2  -6   4 7942.67 566.153   1
  -2  -6   4 8797.08 573.081  13
   2  -6  -4 9082.56 511.175   6
   2  -6  -4 8656.85 659.220  12
   2  -6  -3 69829.5 2076.77   1
  -2  -6   3 62906.7 2027.24  10
  -2  -6   3 67330.5 1930.28   1
  -2  -6   3 62966.0 2058.75  14
   2  -6  -3 70247.7 1822.96   6
  -2  -6   3 63814.9 1823.56  13
   2  -6  -3 69407.6 2117.39  12
   2  -6  -2 20342.7 977.955   1
  -2  -6   2 18858.1 958.450  10
  -2  -6   2 18892.4 991.694  14
  -2  -6   2 18711.8 856.430   1
   2  -6  -2 19243.8 830.752   6
  -2  -6   2 17958.0 764.441  13
   2  -6  -1 2438.34 365.235   1
  -2  -6   1 2553.36 374.107  10
   2  -6  -1 2670.87 277.258  10
  -2  -6   1 2280.45 365.481  14
  -2  -6   1 2232.20 302.613   1
  -2  -6   1 2471.39 260.145  13
   2  -6   0 9374.65 496.511  10
  -2  -6   0 9654.75 599.940   1
   2  -6   0 10110.3 674.360   1
  -2  -6   0 9646.51 698.319  14
  -2  -6   0 8910.92 431.529  13
  -2  -6  -1 866.577 247.776   1
   2  -6   1 645.708 222.650   1
   2  -6   1 1094.97 203.855   2
  -2  -6  -1 990.179 258.083  14
  -2  -6  -2 26872.7 1101.97   1
   2  -6   2 27860.1 1174.31   1
  -2  -6  -2 24515.3 1194.13  14
   2  -6   2 23666.3 859.064   2
  -2  -6  -2 26563.9 1123.89  12
   2  -6   3 8758.34 647.004   1
  -2  -6  -3 9387.93 725.335  14
   2  -6   3 8298.65 436.418   2
  -2  -6  -3 9181.72 650.505  12
   2  -6   4 16092.0 879.518   1
  -2  -6  -4 15475.7 941.797  14
  -2  -6  -4 15787.6 863.485  12
   2  -6   4 12067.9 509.022   2
   2  -6   5 6039.91 586.817   1
  -2  -6  -5 5138.73 559.095  14
  -2  -6  -5 5274.59 506.009  12
   2  -6   6 24771.4 1200.54   1
  -2  -6  -6 26085.9 1292.11  14
  -2  -6  -6 25518.6 1178.57  12
  -2  -6  -7 45179.4 1818.74  14
   2  -6   7 45663.8 1760.83   1
  -2  -6  -7 50887.9 1785.08  12
   2  -6   8 2760.38 447.898   1
  -2  -6  -8 2597.87 398.963  12
  -2  -6  -8 2175.06 423.751  14
  -2  -6  -9 24992.1 1351.78  14
   2  -6   9 24503.3 1282.34   1
  -2  -6  -9 25092.1 1263.28  12
  -2  -6 -10 3903.61 513.672  12
   2  -6  10 4334.68 587.646   1
  -2  -6 -10 4116.33 563.464  14
  -2  -6 -11 1914.49 404.006  12
  -2  -6 -11 1031.89 321.069  14
   2  -6  11 1566.83 375.753   1
  -2  -6 -12 2332.56 448.699  12
  -2  -6 -12 2026.76 452.636  14
   2  -6  12 2316.77 486.663   1
  -2  -6 -13 1280.82 372.833  12
   2  -6  13 911.113 387.321   1
  -2  -6 -13 1563.83 426.454  14
   2  -6  14 14632.3 1123.07   1
  -2  -6 -14 11730.5 985.045  12
  -2  -6 -15 15.1221 285.981  12
   2  -6  15-291.384 384.174   1
   2  -5 -17 1411.35 393.937  12
  -2  -5  17 634.996 408.407   1
  -2  -5  17 410.664 329.736  13
   2  -5 -16 1472.00 412.455  12
  -2  -5  16 749.861 409.595  13
  -2  -5  16 1434.69 431.921   1
   2  -5 -15 1054.04 374.769  12
  -2  -5  15 1579.96 423.264  13
  -2  -5  15 803.308 343.378   1
   2  -5 -14 3695.54 543.330  12
  -2  -5  14 3103.00 523.068   1
  -2  -5  14 3187.15 567.167  13
   2  -5 -13 2638.11 470.513  12
  -2  -5  13 2139.54 462.376  13
  -2  -5  13 1899.98 403.765   1
  -2  -5  12 7972.03 703.771   1
  -2  -5  12 7689.09 754.644  13
   2  -5 -12 7704.86 722.864  12
   2  -5 -11 5688.11 596.414  12
  -2  -5  11 6648.98 610.438   1
  -2  -5  11 5995.61 638.706  13
  -2  -5  10 14481.5 960.528  13
  -2  -5  10 16351.3 934.425   1
   2  -5 -10 14950.1 941.240  12
   2  -5  -9 245.376 185.828  12
  -2  -5   9 203.188 207.395   1
  -2  -5   9-115.372 206.351  13
   2  -5  -8 3335.98 430.286  12
  -2  -5   8 3348.47 411.828   1
  -2  -5   8 3168.66 427.440  13
   2  -5  -7 3796.90 439.343  12
  -2  -5   7 3351.06 413.827  13
  -2  -5   7 3442.55 399.176   1
  -2  -5   6 7596.80 543.983   1
  -2  -5   6 7182.02 551.598  13
   2  -5  -6 7612.45 590.368  12
  -2  -5   5 27380.0 1048.72   1
  -2  -5   5 26045.1 1055.61  13
   2  -5  -5 27752.3 1153.45  12
  -2  -5   4 6776.62 546.825  10
  -2  -5   4 5752.21 445.530   1
   2  -5  -4 5746.04 259.386   7
   2  -5  -4 5918.68 400.366   6
  -2  -5   4 6693.27 471.738  13
   2  -5  -4 6126.69 515.625  12
  -2  -5   3 27685.1 1070.33  10
  -2  -5   3 27573.3 965.339   1
  -2  -5   3 27574.2 932.907  13
   2  -5  -3 27730.9 913.122   6
   2  -5  -3 28063.8 1102.02  12
  -2  -5   2 1141.92 234.124  10
  -2  -5   2 1141.59 208.884   1
  -2  -5   2 1414.45 225.906  13
   2  -5  -2 1461.46 226.362   6
  -2  -5   2 1284.05 284.751  14
   2  -5  -2 812.352 242.394   1
   2  -5  -1 45844.9 1218.28  10
  -2  -5   1 46242.1 1517.38  10
   2  -5  -1 44802.6 1515.53   1
  -2  -5   1 46034.2 1384.71   1
   2  -5  -1 46685.5 1417.41   6
  -2  -5   1 46125.9 1593.83  14
  -2  -5   1 45230.1 1237.09  13
  -2  -5   0 22457.4 703.478  13
   2  -5   0 21495.4 720.208  10
  -2  -5   0 22447.8 881.825   1
   2  -5   0 21827.8 955.383   1
  -2  -5   0 21822.1 1034.31  14
   2  -5   0 21960.2 821.273   2
   2  -5   1 34529.1 1218.11   1
  -2  -5  -1 32896.8 1301.98  14
  -2  -5  -1 33988.7 1145.73   1
  -2  -5  -1 31810.6 825.059  13
   2  -5   1 31665.0 1012.13   2
   2  -5   2 13325.3 716.339   1
   2  -5   2 12832.9 559.015   2
  -2  -5  -2 13109.5 791.886  14
  -2  -5  -2 12564.7 691.729  12
   2  -5   3 60282.4 1797.34   1
  -2  -5  -3 62919.5 1952.64  14
   2  -5   3 54534.1 1428.98   2
  -2  -5  -3 61096.3 1757.35  12
  -2  -5  -4 3667.15 375.005  12
  -2  -5  -4 3948.71 446.718  14
   2  -5   4 4102.99 436.205   1
   2  -5   4 2830.62 223.959   2
   2  -5   5 16223.9 856.492   1
  -2  -5  -5 15648.9 907.133  14
  -2  -5  -5 15136.3 803.067  12
  -2  -5  -6 6529.55 602.534  14
   2  -5   6 5940.61 532.171   1
  -2  -5  -6 6065.43 521.127  12
  -2  -5  -7 16729.2 981.038  14
   2  -5   7 17179.8 937.545   1
  -2  -5  -7 17014.0 910.711  12
  -2  -5  -8 11362.2 829.132  14
   2  -5   8 12429.0 828.562   1
  -2  -5  -8 12752.7 813.544  12
  -2  -5  -9 8947.47 757.732  14
   2  -5   9 10179.2 752.333   1
  -2  -5  -9 9488.68 720.980  12
   2  -5  10 4466.71 538.491   1
  -2  -5 -10 4280.52 561.688  14
  -2  -5 -10 4512.29 538.549  12
  -2  -5 -11 1983.70 386.371  12
   2  -5  11 1529.32 367.139   1
  -2  -5 -11 2684.49 483.779  14
  -2  -5 -12 129.527 199.717  12
   2  -5  12 329.608 281.850   1
  -2  -5 -12 667.316 309.143  14
  -2  -5 -13 188.669 224.691  14
   2  -5  13-239.455 283.684   1
   2  -5  14 5769.53 697.466   1
  -2  -5 -14 4237.45 592.317  12
  -2  -5 -15 419.605 270.416  12
   2  -5  15 987.348 424.423   1
  -2  -5 -16 2437.49 497.031  12
   2  -5  16 3794.46 644.385   1
   2  -4 -19 2161.66 475.669   2
  -2  -4  18 182.160 341.430   1
   2  -4 -18 286.037 259.889  12
  -2  -4  18 854.402 418.579  13
   2  -4 -17 977.602 353.917  12
  -2  -4  17 1776.03 435.557   1
  -2  -4  17 1260.17 450.515  13
   2  -4 -16 517.297 308.303  12
  -2  -4  16 496.887 363.040   1
  -2  -4  16 46.9759 285.845  13
   2  -4 -15 5112.24 634.833  12
  -2  -4  15 3533.93 575.115  13
  -2  -4  15 4232.94 599.054   1
  -2  -4  14 7104.11 759.886  13
   2  -4 -14 6367.67 681.838  12
  -2  -4  14 6572.43 678.524   1
   2  -4 -13 12371.5 908.475  12
  -2  -4  13 14577.7 1037.70  13
  -2  -4  13 14340.3 930.743   1
   2  -4 -12 1281.12 348.390  12
  -2  -4  12 1276.46 378.584  13
  -2  -4  12 1148.76 328.901   1
   2  -4 -11 26952.6 1296.94  12
  -2  -4  11 27926.3 1359.09  13
  -2  -4  11 28273.1 1248.56   1
  -2  -4  10 11329.6 808.931  13
   2  -4 -10 9971.78 732.220  12
  -2  -4  10 9985.91 690.399   1
   2  -4  -9 2017.23 336.921  12
  -2  -4   9 1991.54 313.222   1
  -2  -4   9 1766.57 354.764  13
   2  -4  -8 3053.84 383.189  12
  -2  -4   8 3221.33 366.181   1
  -2  -4   8 3104.09 398.253  13
  -2  -4   7 8995.80 644.200  13
  -2  -4   7 8643.80 568.882   1
   2  -4  -7 9965.22 653.207  12
   2  -4  -6 3120.04 350.563  12
  -2  -4   6 3226.30 376.013  13
  -2  -4   6 3416.55 346.960   1
  -2  -4   5 66996.5 1778.94   1
  -2  -4   5 64263.7 1844.50  13
   2  -4  -5 67075.2 1898.94  12
  -2  -4   4 107757. 2492.23   1
   2  -4  -4 104114. 2228.30   7
  -2  -4   4 107697. 2565.59  13
   2  -4  -4 107262. 2645.84  12
  -2  -4   3 153044. 3470.26  10
   2  -4  -3 152422. 3325.91   6
  -2  -4   3 153893. 3287.79   1
   2  -4  -3 146627. 2968.98   7
  -2  -4   3 150520. 3307.41  13
   2  -4  -3 156427. 3478.22  12
  -2  -4   2 7967.94 518.195  10
  -2  -4   2 7335.00 421.295   1
   2  -4  -2 8339.73 480.751   6
  -2  -4   2 8172.04 427.245  13
   2  -4  -2 7835.45 515.232  12
   2  -4  -2 7017.95 260.043   7
   2  -4  -1 6825.68 319.190  10
   2  -4  -1 6853.41 454.895   1
   2  -4  -1 7034.20 462.749   6
  -2  -4   1 6553.49 406.668   1
  -2  -4   1 6939.21 485.196  10
  -2  -4   1 7018.93 532.616  14
   2  -4  -1 7303.06 446.851   2
  -2  -4   1 6061.84 349.838  13
  -2  -4   0 3773.39 320.036   1
   2  -4   0 4240.94 237.733  10
   2  -4   0 3838.24 375.741   1
  -2  -4   0 4076.75 419.320  14
   2  -4   0 4479.55 333.752   2
  -2  -4   0 4028.24 245.450  13
   2  -4   1 29177.3 1020.43   1
   2  -4   1 26540.6 879.737   2
  -2  -4  -1 28244.2 1129.20  14
  -2  -4  -1 28040.1 729.054  13
  -2  -4  -1 28591.5 961.307  12
  -2  -4  -2 52926.4 1643.75  14
   2  -4   2 53608.4 1489.62   1
  -2  -4  -2 44095.9 1023.49  13
   2  -4   2 48402.3 1259.24   2
  -2  -4  -2 53379.9 1435.80  12
  -2  -4  -3 2768.45 350.157  14
   2  -4   3 2624.94 300.458   1
   2  -4   3 2499.54 216.245   2
  -2  -4  -3 2979.36 302.655  12
  -2  -4  -4 15937.5 848.734  14
   2  -4   4 16415.2 772.002   1
  -2  -4  -4 16442.1 746.619  12
   2  -4   4 13479.8 512.536   2
  -2  -4  -5 7743.27 593.367  14
   2  -4   5 8547.94 579.909   1
  -2  -4  -5 8048.33 532.773  12
  -2  -4  -6 270.382 139.866  12
  -2  -4  -6 505.399 207.772  14
   2  -4   6 408.940 214.953   1
   2  -4   7 50732.7 1687.06   1
  -2  -4  -7 50617.7 1794.95  14
  -2  -4  -7 52487.7 1684.59  12
   2  -4   8 28110.6 1195.40   1
  -2  -4  -8 27152.4 1266.29  14
  -2  -4  -8 27444.6 1188.38  12
  -2  -4  -9 15798.6 960.417  14
   2  -4   9 15265.6 881.900   1
  -2  -4  -9 15228.6 899.355  12
   2  -4  10 1889.33 397.466   1
  -2  -4 -10 2160.44 390.353  14
  -2  -4 -10 1699.96 331.635  12
  -2  -4 -11 523.557 236.812  12
  -2  -4 -11 395.419 253.218  14
   2  -4  11 596.483 302.389   1
  -2  -4 -12 4602.49 567.861  12
  -2  -4 -12 5029.50 616.002  14
   2  -4  12 4196.96 556.346   1
  -2  -4 -13 3216.12 485.144  12
   2  -4  13 3397.54 512.893   1
   2  -4  14 1931.37 472.184   1
  -2  -4 -14 2642.56 469.418  12
   2  -4  15 11441.5 953.134   1
  -2  -4 -15 10596.1 929.791  12
  -2  -4 -16 2008.92 464.955  12
   2  -4  16 2713.10 544.921   1
   2  -3 -19 1687.69 435.435   2
  -2  -3  18 471.990 336.838  13
   2  -3 -18 559.206 344.909  12
  -2  -3  18 672.494 365.487   1
   2  -3 -18 762.166 324.265   2
   2  -3 -17 588.674 320.006  12
  -2  -3  17 260.950 331.000   1
   2  -3 -17 470.814 297.493   2
  -2  -3  17 376.845 298.314  13
   2  -3 -16 2697.58 494.846  12
  -2  -3  16 3143.29 556.956   1
  -2  -3  16 2982.01 569.983  13
   2  -3 -15 6054.59 673.048  12
  -2  -3  15 6763.97 708.142   1
  -2  -3  15 6262.46 741.208  13
   2  -3 -14 10382.1 842.699  12
  -2  -3  14 10825.4 898.185  13
  -2  -3  14 10722.4 839.308   1
  -2  -3  13 8025.22 750.389  13
  -2  -3  13 8553.57 707.731   1
   2  -3 -13 7361.75 677.762  12
  -2  -3  12 12335.2 842.781   1
  -2  -3  12 15212.1 987.355  13
   2  -3 -12 12731.1 872.785  12
   2  -3 -11 2166.21 346.314  12
  -2  -3  11 2930.15 413.885   1
  -2  -3  11 3429.63 485.136  13
  -2  -3  10 9774.99 655.239   1
   2  -3 -10 10644.5 715.947  12
  -2  -3  10 9833.17 745.760  13
   2  -3  -9 2359.35 340.420  12
  -2  -3   9 2830.92 414.620  13
  -2  -3   9 2323.32 336.558   1
  -2  -3   8 7746.30 279.820  16
  -2  -3   8 8240.74 537.918   1
  -2  -3   8 7740.07 598.648  13
   2  -3  -8 8743.19 598.780  12
  -2  -3   7 3612.35 180.356   9
  -2  -3   7 5185.60 246.041  16
  -2  -3   7 6053.40 427.192   1
   2  -3  -7 5062.38 436.744  12
  -2  -3   7 5034.07 466.883  13
  -2  -3   6 15807.0 511.627   9
  -2  -3   6 20260.9 601.091  16
   2  -3  -6 19733.1 854.129  12
  -2  -3   6 19124.0 758.554   1
  -2  -3   6 19903.6 874.275  13
   2  -3  -5 49352.0 1459.81  12
  -2  -3   5 48312.8 1486.14  13
  -2  -3   5 50454.2 1356.09   1
   2  -3  -4 1101.00 204.643  12
  -2  -3   4 1564.37 246.196  13
   2  -3  -4 1252.69 159.820   7
  -2  -3   4 1867.58 219.955   1
  -2  -3   3 79881.1 1692.98  11
  -2  -3   3 84068.4 2050.34  10
  -2  -3   3 77051.3 1853.93   1
   2  -3  -3 83728.6 2040.25   2
   2  -3  -3 78506.4 1984.99   6
  -2  -3   3 78989.6 1969.65  13
   2  -3  -3 81612.3 2003.76  12
   2  -3  -3 82017.5 1774.14   7
  -2  -3   2 47913.3 1235.49   1
  -2  -3   2 50556.6 1422.59  10
   2  -3  -2 50700.2 1394.30   6
   2  -3  -2 51396.1 1389.03   2
  -2  -3   2 49167.4 1316.88  13
   2  -3  -2 48580.2 1141.31   7
   2  -3  -2 47810.9 1358.91  12
   2  -3  -1 5833.07 266.394   7
   2  -3  -1 5623.73 373.916   1
   2  -3  -1 5053.04 220.831  10
  -2  -3   1 5312.88 388.814  10
  -2  -3   1 5396.19 319.197   1
   2  -3  -1 6110.80 413.222   6
  -2  -3   1 5847.19 327.134  13
   2  -3  -1 6018.03 386.568   2
  -2  -3   0 5617.07 324.638   1
   2  -3   0 6660.30 406.561   1
   2  -3   0 5766.40 424.998   6
  -2  -3   0 6335.96 466.644  14
  -2  -3   0 6820.20 325.004  13
   2  -3   0 6332.10 379.447   2
   2  -3   1 211669. 4347.68   1
  -2  -3  -1 212429. 4581.03  14
  -2  -3  -1 212656. 4087.96  13
   2  -3   1 207973. 4260.03   2
  -2  -3  -1 209953. 4236.29  12
  -2  -3  -2 11003.4 365.112  13
   2  -3   2 11326.6 538.851   1
  -2  -3  -2 11025.9 496.283  12
   2  -3   2 10248.4 461.921   2
  -2  -3  -2 10287.7 608.110  14
  -2  -3  -3 47875.8 1069.28  13
   2  -3   3 51751.5 1403.09   1
  -2  -3  -3 49782.8 1540.18  14
   2  -3   3 45730.4 1221.25   2
  -2  -3  -3 51885.8 1358.41  12
   2  -3   4 19443.7 779.142   1
  -2  -3  -4 19097.2 885.062  14
  -2  -3  -4 17675.9 502.682  13
  -2  -3  -4 20102.7 774.842  12
   2  -3   5 11556.5 397.393  14
  -2  -3  -5 13290.2 752.222  14
  -2  -3  -5 13205.5 641.859  12
   2  -3   5 13670.7 663.344   1
  -2  -3  -5 12810.9 404.342  13
   2  -3   6 26853.3 999.230   8
  -2  -3  -6 28208.1 1149.12  14
   2  -3   6 25562.1 750.880  14
   2  -3   6 26479.8 1026.51   1
  -2  -3  -6 27717.4 1033.61  12
  -2  -3  -6 27883.3 721.722  13
   2  -3   7 3814.72 404.669   1
   2  -3   7 3962.46 365.337   8
  -2  -3  -7 4040.47 386.859  12
  -2  -3  -7 3759.68 421.313  14
   2  -3   8 13983.4 723.620   8
  -2  -3  -8 14918.7 870.040  14
   2  -3   8 15505.0 806.797   1
  -2  -3  -8 14725.0 801.589  12
  -2  -3  -9 40335.4 1566.43  14
   2  -3   9 39412.1 1338.79   8
   2  -3   9 39931.1 1449.47   1
  -2  -3  -9 40217.8 1484.97  12
   2  -3  10 13424.4 716.831   8
   2  -3  10 12689.2 811.617   1
  -2  -3 -10 13542.0 878.080  14
  -2  -3 -10 13027.1 823.831  12
  -2  -3 -11 1258.88 313.114  12
   2  -3  11 1250.71 255.517   8
   2  -3  11 1521.58 249.744   4
  -2  -3 -11 1011.05 288.368  14
   2  -3  11 829.456 308.250   1
  -2  -3 -12 2611.08 425.200  12
  -2  -3 -12 2199.16 415.711  14
   2  -3  12 2167.30 392.606   1
  -2  -3 -13 924.266 309.337  12
   2  -3  13 556.624 292.044   1
  -2  -3 -14 2577.68 455.923  12
   2  -3  14 2970.59 512.469   1
  -2  -3 -15 3093.88 528.617  12
   2  -3  15 3156.86 522.809   1
   2  -3  16 2344.38 517.427   1
  -2  -3 -16 2839.02 523.673  12
  -2  -3 -17 3342.53 578.328  12
   2  -3  17 4283.56 663.907   1
   2  -2 -19 2995.01 580.039  12
  -2  -2  19 3932.69 671.685  13
   2  -2 -18 1282.12 391.770  12
  -2  -2  18 1886.13 555.533  13
   2  -2 -18 936.855 275.381   2
  -2  -2  18 1245.62 409.934   1
   2  -2 -17 7117.85 701.734   2
  -2  -2  17 7863.23 869.458  13
  -2  -2  17 5711.81 733.754   1
   2  -2 -17 7684.79 801.267  12
   2  -2 -16 2140.28 411.193   2
  -2  -2  16 1726.93 422.912   1
  -2  -2  16 1734.94 427.516  13
   2  -2 -16 1781.14 429.927  12
  -2  -2  15 3267.11 513.216   1
   2  -2 -15 3347.96 460.719   2
  -2  -2  15 3191.90 518.493  13
   2  -2 -15 3256.91 500.385  12
   2  -2 -14 11971.0 828.753   2
  -2  -2  14 11873.3 934.994  13
  -2  -2  14 11222.3 843.822   1
   2  -2 -14 11246.9 871.991  12
  -2  -2  13 9977.65 831.008  13
  -2  -2  13 8444.67 698.115   1
   2  -2 -13 9053.68 726.033  12
  -2  -2  12 4794.37 508.982   1
  -2  -2  12 6311.52 641.540  13
   2  -2 -12 5557.10 560.330  12
   2  -2 -11 5874.74 302.579   4
  -2  -2  11 5434.82 580.885  13
  -2  -2  11 4822.61 496.852   1
   2  -2 -11 5282.64 514.875  12
  -2  -2  10 10227.9 730.871  13
  -2  -2  10 8951.20 621.022   1
   2  -2 -10 9828.29 670.521  12
  -2  -2   9 16458.1 906.147  13
  -2  -2   9 17964.6 815.964   1
   2  -2  -9 17122.4 857.962  12
  -2  -2   8 26242.4 1106.43  13
   2  -2  -8 24820.2 1011.09  12
  -2  -2   8 24563.4 939.656   1
  -2  -2   7 53114.0 1480.23   1
  -2  -2   7 54931.7 1669.21  13
   2  -2  -7 51744.3 1554.51  12
   2  -2  -6 33631.7 1094.66  12
  -2  -2   6 27793.1 715.702  16
   2  -2  -6 34450.6 1151.26   2
  -2  -2   6 36325.0 1024.71   1
  -2  -2   6 34644.9 1182.77  13
  -2  -2   5 27157.9 713.688  16
   2  -2  -5 26556.0 976.478   2
  -2  -2   5 27069.7 849.894   1
  -2  -2   5 26919.7 993.997  13
   2  -2  -5 27156.2 923.157  12
   2  -2  -4 36330.3 1139.82   2
   2  -2  -4 36551.3 1021.65   7
  -2  -2   4 36835.8 970.274   1
  -2  -2   4 34173.7 1120.34  13
   2  -2  -4 35724.1 1065.81  12
  -2  -2   3 3366.98 219.535   1
  -2  -2   3 3145.30 270.949  13
   2  -2  -3 3218.50 238.734   7
   2  -2  -3 3373.86 295.403   2
   2  -2  -3 3130.10 257.908  12
  -2  -2   2 4172.86 306.386  10
  -2  -2   2 3682.47 209.844   1
  -2  -2   2 3743.65 286.243  13
   2  -2  -2 3822.95 248.670   7
   2  -2  -2 3807.52 302.952   2
   2  -2  -2 3705.31 308.612   6
   2  -2  -2 3950.58 209.727   5
   2  -2  -2 3989.06 279.791  12
   2  -2  -1 66340.8 1572.95   1
  -2  -2   1 71443.2 1669.65  10
  -2  -2   1 66303.8 1446.55   1
   2  -2  -1 68209.2 1686.58   2
   2  -2  -1 69022.8 1741.64   6
   2  -2  -1 70835.8 1552.93   7
  -2  -2   1 68683.9 1615.25  13
   2  -2  -1 68116.2 1452.35   5
   2  -2   0 64168.2 1411.08   5
  -2  -2   0 61619.1 1406.46   1
   2  -2   0 66403.7 1529.36   1
   2  -2   0 69064.8 1729.22   6
  -2  -2   0 66014.4 1531.98  13
   2  -2   0 69247.3 1624.56   2
  -2  -2   0 69484.7 1778.33  14
  -2  -2  -1 28560.9 734.675   1
  -2  -2  -1 28693.8 1004.49  14
   2  -2   1 28526.5 994.858   6
   2  -2   1 28316.7 777.114   5
   2  -2   1 29627.0 839.351   1
  -2  -2  -1 28864.6 760.933  12
   2  -2   1 29018.0 873.801   2
   2  -2   2 35644.4 1110.91   8
   2  -2   2 35295.3 977.286   1
  -2  -2  -2 35255.8 1161.71  14
   2  -2   2 34043.8 996.339   2
  -2  -2  -2 35743.1 901.779   1
  -2  -2  -2 35058.6 935.867  12
   2  -2   3 70627.0 1703.21   1
  -2  -2  -3 69261.3 1897.59  14
   2  -2   3 72666.9 1847.51   8
  -2  -2  -3 72770.4 1687.82  12
   2  -2   4 110631. 2569.43   8
  -2  -2  -4 106005. 2636.64  14
  -2  -2  -4 107765. 2431.14  12
   2  -2   4 110260. 2261.61  14
   2  -2   4 105555. 2438.31   1
   2  -2   5 38047.3 1210.81   8
  -2  -2  -5 37167.3 1279.20  14
   2  -2   5 37680.5 1000.23  14
  -2  -2  -5 37608.9 1156.81  12
   2  -2   5 38415.5 1156.35   1
   2  -2   6 9660.07 562.692   8
  -2  -2  -6 9326.05 598.957  14
   2  -2   6 9037.08 517.753   1
  -2  -2  -6 9453.08 535.644  12
  -2  -2  -7 623.754 220.625  14
   2  -2   7 972.658 195.876   8
   2  -2   7 768.806 217.147   1
   2  -2   7 413.960 170.747   3
  -2  -2  -7 771.432 186.787  12
  -2  -2  -8 5466.73 460.531  12
   2  -2   8 4669.84 432.933   1
   2  -2   8 4854.51 417.023   8
  -2  -2  -8 5005.64 482.521  14
   2  -2   8 4691.30 381.688   3
   2  -2   9 6407.67 442.412   4
  -2  -2  -9 5873.76 532.664  14
   2  -2   9 6255.07 453.949   3
   2  -2   9 6298.62 473.769   8
   2  -2   9 6333.13 526.018   1
  -2  -2  -9 6885.76 541.669  12
   2  -2  10 469.566 183.721   8
  -2  -2 -10 395.060 199.864  14
   2  -2  10 957.848 221.637   4
   2  -2  10 405.983 147.200   3
   2  -2  10 336.034 224.641   1
  -2  -2 -10 387.228 210.931  12
  -2  -2 -11 2311.61 387.765  14
   2  -2  11 2570.23 312.113   3
   2  -2  11 2846.19 349.293   8
   2  -2  11 2742.69 299.063   4
   2  -2  11 2790.84 422.282   1
  -2  -2 -11 2954.13 417.974  12
   2  -2  12 1190.81 347.402   1
   2  -2  12 2063.31 300.002   3
   2  -2  12 2323.50 319.395   8
  -2  -2 -12 2560.47 430.647  12
   2  -2  13 5088.77 591.626   1
  -2  -2 -13 6168.46 642.892  12
   2  -2  14 810.807 310.564   1
  -2  -2 -14 729.940 295.872  12
   2  -2  15 640.687 369.945   1
  -2  -2 -15 626.973 307.867  12
   2  -2  16-332.217 320.260   1
  -2  -2 -16 374.340 281.850  12
  -2  -2 -17 3232.82 578.974  12
   2  -2  17 3364.95 581.244   1
  -2  -1  19 507.957 462.836   1
  -2  -1  19 668.236 392.581  13
   2  -1 -19 783.075 368.616  12
  -2  -1  18 2999.26 585.828   1
  -2  -1  18 3326.07 608.683  13
   2  -1 -18 3031.76 536.508  12
  -2  -1  17 17849.6 1259.40  13
   2  -1 -17 16697.4 1017.09   2
   2  -1 -17 16456.7 1156.48  12
  -2  -1  17 13632.6 1069.78   1
  -2  -1  16 1200.28 381.982   1
  -2  -1  16 1224.19 414.064  13
   2  -1 -16 2090.41 383.360   2
   2  -1 -16 1384.91 359.966  12
  -2  -1  15 2835.58 525.967  13
  -2  -1  15 2196.02 427.803   1
   2  -1 -15 2406.32 382.616   2
   2  -1 -15 1804.84 396.174  12
   2  -1 -14 13590.6 945.204  12
   2  -1 -14 14404.7 875.923   2
  -2  -1  14 16905.1 1067.33  13
  -2  -1  14 13700.7 911.069   1
  -2  -1  13 1383.33 359.315  13
   2  -1 -13 1259.08 281.835   2
  -2  -1  13 1137.84 342.049   1
   2  -1 -13 1133.29 314.879  12
  -2  -1  12 929.785 330.822  13
  -2  -1  12 762.166 281.083   1
   2  -1 -12 1281.70 272.756   2
   2  -1 -12 392.719 212.025  12
  -2  -1  11 16722.3 903.212   1
   2  -1 -11 19421.9 926.215   2
  -2  -1  11 19431.6 1039.41  13
   2  -1 -11 17162.1 940.733  12
   2  -1 -10 2843.11 198.477   4
  -2  -1  10 3202.77 427.774  13
   2  -1 -10 3413.36 383.376   2
  -2  -1  10 3024.60 368.536   1
   2  -1 -10 2934.27 364.438  12
  -2  -1   9 32974.7 1292.77  13
   2  -1  -9 32656.3 877.008   4
   2  -1  -9 29986.5 731.256  16
   2  -1  -9 33783.8 1221.38  12
  -2  -1   9 32153.4 1140.44   1
   2  -1  -9 34349.5 1198.82   2
  -2  -1   8 2966.56 333.472   1
   2  -1  -8 2733.44 218.591   4
   2  -1  -8 2560.14 153.272  16
  -2  -1   8 2011.92 315.963  13
   2  -1  -8 2622.71 309.488   2
   2  -1  -8 2335.82 280.224  12
   2  -1  -7 16591.9 485.152  16
   2  -1  -7 16381.1 749.052   2
  -2  -1   7 16880.4 818.098  13
  -2  -1   7 16553.2 689.013   1
   2  -1  -7 17261.5 741.473  12
   2  -1  -6 13688.5 439.738  16
  -2  -1   6 13407.8 570.595   1
  -2  -1   6 13326.1 679.699  13
   2  -1  -6 13044.5 640.056   2
   2  -1  -6 13712.8 610.298  12
   2  -1  -5 361.160 111.600  12
   2  -1  -5 323.300 145.199   2
   2  -1  -5 357.514 86.0811  16
  -2  -1   5 430.855 187.091  13
  -2  -1   5 295.333 120.910   1
  -2  -1   5 274.149 57.6268  16
  -2  -1   4 38642.8 961.655   1
  -2  -1   4 36889.3 1174.00  13
   2  -1  -4 38298.0 1098.98   7
   2  -1  -4 37297.0 971.608  16
   2  -1  -4 40170.4 1169.28   2
   2  -1  -4 39120.2 1036.56  12
   2  -1  -3 45944.9 1121.81  11
   2  -1  -3 49312.0 1254.59   7
  -2  -1   3 46916.4 1315.90  13
   2  -1  -3 49324.6 1325.45   2
  -2  -1   3 48202.9 1065.54   1
   2  -1  -3 47149.1 1150.44  12
  -2  -1   3 47758.7 1150.52   5
   2  -1  -3 46770.4 1130.95   1
   2  -1  -2 65204.2 1466.98  11
   2  -1  -2 67997.7 1570.82   7
  -2  -1   2 66166.0 1619.10  13
  -2  -1   2 65685.9 1308.20   1
   2  -1  -2 66693.7 1639.01   2
  -2  -1   2 63128.2 1406.63   5
   2  -1  -2 64221.3 1425.86  12
   2  -1  -1 84284.4 1836.52   1
   2  -1  -1 92757.2 2016.41   7
  -2  -1   1 93567.4 1964.29  10
   2  -1  -1 94258.3 2095.78   2
   2  -1  -1 91320.2 2137.83   6
  -2  -1   1 92004.8 1848.40   5
   2  -1   0 81601.7 1960.18   8
   2  -1   0 81094.5 1668.96   1
   2  -1   0 83426.4 1858.75   7
  -2  -1   0 81720.8 1687.24   5
   2  -1   0 79859.6 1986.40   6
   2  -1   0 80149.7 1902.37   2
  -2  -1  -1 25682.5 867.638  14
   2  -1   1 25690.5 658.197   1
   2  -1   1 25586.1 881.300   8
   2  -1   1 26341.7 902.283   6
  -2  -1  -1 26839.6 585.904   1
   2  -1   1 26133.5 821.521   2
  -2  -1  -1 23145.3 599.801  12
  -2  -1  -2 654.023 95.8809  12
   2  -1   2 643.540 109.177   1
   2  -1   2 885.834 190.114   6
  -2  -1  -2 671.083 95.9079   1
   2  -1   2 766.131 192.511   8
  -2  -1  -2 648.432 146.671  14
   2  -1   3 16654.8 705.215   8
  -2  -1  -3 17001.0 698.592  14
   2  -1   3 16770.2 699.048   3
  -2  -1  -3 17518.0 575.012  12
   2  -1   3 16865.1 573.371   1
  -2  -1  -4 5320.22 396.167  14
   2  -1   4 5204.42 379.030   8
   2  -1   4 5703.99 405.852   3
  -2  -1  -4 6064.38 342.806  12
   2  -1   4 5508.61 335.770   1
   2  -1   5 16152.3 718.490   8
   2  -1   5 17781.6 720.056   4
  -2  -1  -5 16996.6 746.393  14
   2  -1   5 16084.9 704.719   3
   2  -1   5 15138.5 633.917   1
  -2  -1  -5 17304.5 675.298  12
   2  -1   6 62217.3 1739.70   8
   2  -1   6 61087.9 1672.33   4
   2  -1   6 65125.3 1720.69   3
  -2  -1  -6 64131.7 1781.05  14
   2  -1   6 63728.5 1657.30   1
  -2  -1  -6 62525.3 1687.85  12
   2  -1   7 34096.1 1115.64   4
   2  -1   7 34653.1 1177.92   8
  -2  -1  -7 33914.3 1213.98  14
   2  -1   7 33386.2 1130.94   3
   2  -1   7 32765.6 1118.92   1
  -2  -1  -7 33955.5 1178.49  12
   2  -1   8 11310.5 580.438   4
  -2  -1  -8 11355.0 681.047  14
   2  -1   8 9981.57 587.978   3
   2  -1   8 11455.3 634.039   1
  -2  -1  -8 11323.5 662.217  12
   2  -1   9 408.392 216.863   1
  -2  -1  -9-32.6043 147.445  12
   2  -1   9 287.812 159.486   4
  -2  -1  -9 305.893 172.161  14
   2  -1   9 451.895 174.270   3
   2  -1  10 370.193 222.861   1
   2  -1  10 782.575 182.334   4
  -2  -1 -10 1072.62 269.359  14
   2  -1  10 1048.69 220.931   3
  -2  -1 -10 669.714 217.688  12
   2  -1  11 6313.00 445.910   4
   2  -1  11 6573.09 504.692   3
   2  -1  11 6184.55 571.836   1
  -2  -1 -11 6042.05 578.327  12
   2  -1  12 8027.14 591.539   8
   2  -1  12 7009.41 539.388   3
   2  -1  12 6354.88 636.080   1
  -2  -1 -12 8040.26 688.226  12
   2  -1  13 11311.5 722.371   8
   2  -1  13 9624.58 648.628   3
  -2  -1 -13 11474.9 859.275  12
   2  -1  13 9900.55 815.772   1
  -2  -1 -14 732.148 260.152  12
   2  -1  14 324.978 292.407   1
   2  -1  15 2671.72 496.906   1
  -2  -1 -15 3542.99 554.789  12
   2  -1  16 1683.54 468.117   1
  -2  -1 -16 2558.34 459.556  16
  -2  -1 -16 2455.33 515.294  12
   2  -1  17-363.836 312.384   1
  -2  -1 -17 406.490 350.203  12
   2  -1  18 13760.4 1111.52   1
  -2   0  20 1427.20 523.266  13
  -2   0  19-320.228 333.613   1
  -2   0  19 151.067 295.745  13
   2   0 -19-44.3943 278.798  12
  -2   0  18 309.250 399.855   1
  -2   0  18 391.749 400.286  13
   2   0 -18 659.268 338.719  12
  -2   0  17 7223.74 796.706  13
  -2   0  17 5926.63 731.689   1
   2   0 -17 5160.63 667.507  12
   2   0 -16 4886.81 504.351   2
  -2   0  16 3698.70 564.065   1
  -2   0  16 3731.13 577.269  13
   2   0 -16 3868.64 558.066  12
  -2   0  15 7641.72 773.424  13
   2   0 -15 7519.13 607.574   2
   2   0 -15 7155.93 718.033  12
  -2   0  15 8387.66 754.058   1
  -2   0  14 76836.3 2565.57  13
   2   0 -14 78582.7 2278.32   2
   2   0 -14 70246.5 2437.93  12
  -2   0  14 76177.7 2441.18   1
  -2   0  13 9798.85 747.461   1
   2   0 -13 10260.5 777.552  12
  -2   0  13 11217.8 844.220  13
   2   0 -13 11216.2 711.233   2
  -2   0  12 13908.8 900.600  13
   2   0 -12 14841.5 801.977   2
   2   0 -12 13815.9 856.583  12
  -2   0  12 13649.7 845.943   1
   2   0 -11 6403.38 552.823  12
  -2   0  11 6535.74 605.372  13
   2   0 -11 7122.96 531.118   2
  -2   0  11 6874.64 568.213   1
  -2   0  10 596.083 224.989   1
  -2   0  10 425.330 250.125  13
   2   0 -10 422.760 203.656   2
   2   0 -10 229.173 160.800  12
  -2   0   9 30704.9 1239.76  13
   2   0  -9 31448.2 1124.16   2
   2   0  -9 30297.3 1152.52  12
  -2   0   9 31923.0 1134.50   1
   2   0  -8 33166.7 918.549   4
  -2   0   8 35255.4 1284.93  13
   2   0  -8 33660.9 1135.70   2
   2   0  -8 33129.8 1145.49  12
  -2   0   8 34146.2 1137.07   1
   2   0  -7 42330.1 1115.40   4
  -2   0   7 43303.6 1399.61  13
   2   0  -7 42421.7 1307.33   2
   2   0  -7 42488.7 1283.98  12
  -2   0   7 43025.4 1255.52   1
  -2   0   6 71488.7 1685.87  13
   2   0  -6 72642.6 1405.24   4
   2   0  -6 69440.5 1574.61   2
   2   0  -6 73027.7 1523.77  12
  -2   0   6 71129.8 1484.48   1
   2   0  -5 35882.5 986.466   4
  -2   0   5 34259.8 1134.55  13
   2   0  -5 34699.9 1074.45   2
  -2   0   5 32304.2 787.528  16
   2   0  -5 35166.1 981.469  12
  -2   0   5 35455.5 966.425   1
  -2   0   4 57803.7 1298.47  16
   2   0  -4 62159.2 1559.43   7
   2   0  -4 60302.1 1473.68   4
   2   0  -4 58641.2 1333.65   1
  -2   0   4 56652.8 1580.47  13
   2   0  -4 55775.8 1522.41   2
   2   0  -4 60910.7 1379.63  12
  -2   0   4 58576.9 1361.55   1
   2   0  -3 19119.0 708.306   2
   2   0  -3 18721.6 528.840  12
   2   0  -3 20006.2 710.519   7
  -2   0   3 18225.7 579.958  16
   2   0  -3 17778.1 504.609   1
   2   0  -3 19423.8 684.006   4
  -2   0   3 18024.9 730.266  13
   2   0  -2 26901.5 646.543  10
  -2   0   2 27428.7 757.432  16
   2   0  -2 24791.4 785.976   8
   2   0  -2 28266.1 832.858   7
   2   0  -2 26361.8 539.709   1
   2   0  -2 27216.3 838.633   2
   2   0  -2 23566.7 549.570  12
   2   0  -2 27145.0 826.890   4
  -2   0   1 77183.5 1675.12  11
   2   0  -1 78937.6 1865.00   8
   2   0  -1 81405.6 1863.64   7
   2   0  -1 77644.8 1888.74   4
   2   0  -1 83542.0 1899.58   2
   2   0   0 164276. 3520.53   4
   2   0   0 165794. 3509.35   8
   2   0   0 173998. 3501.30   7
   2   0   0 163974. 3535.92   6
   2   0   1 202.921 55.6647   1
  -2   0  -1 95.2869 46.9765   1
  -2   0  -1 207.840 100.514  14
   2   0   1 295.209 166.191   3
   2   0   1 79.9141 111.694   6
   2   0   1 197.368 157.416   4
   2   0   1 85.5679 142.070   8
  -2   0  -1 183.264 46.6348  12
   2   0   1 104.712 58.0970   5
   2   0   2 17447.1 698.323   8
  -2   0  -2 15905.0 483.778   1
   2   0   2 17094.5 702.254   3
   2   0   2 16984.4 688.979   4
  -2   0  -2 15898.0 603.583  14
   2   0   2 16996.7 698.699   6
   2   0   2 16824.6 531.584   5
   2   0   2 15727.5 480.275   1
  -2   0  -2 17839.2 502.155  12
   2   0   3 9457.00 501.603   4
   2   0   3 8948.90 515.733   6
  -2   0  -3 10092.9 470.415  14
   2   0   3 9678.81 517.311   3
   2   0   3 9288.57 388.095   1
  -2   0  -3 9829.73 402.738  12
   2   0   4 6763.25 421.420   4
  -2   0  -4 6056.22 376.414  14
   2   0   4 6403.54 432.187   3
   2   0   4 6277.56 435.172   6
   2   0   4 5576.05 330.906   1
  -2   0  -4 6498.82 356.131  12
  -2   0  -5 70653.9 1724.53  12
   2   0   5 65728.8 1652.87   1
   2   0   5 71321.7 1779.28   4
  -2   0  -5 67309.4 1735.60  14
   2   0   5 65761.4 1796.14   3
   2   0   6 412.446 145.817   4
   2   0   6 366.707 144.660   1
   2   0   6 377.615 171.329   3
  -2   0  -6 260.392 129.558  14
  -2   0  -6 356.583 139.647  12
   2   0   7 13344.6 674.199   3
   2   0   7 12941.9 629.517   4
  -2   0  -7 13793.0 670.768  14
  -2   0  -7 13626.2 687.531  12
   2   0   7 12652.6 633.403   1
   2   0   8 4080.29 385.550   3
   2   0   8 3450.51 333.217   4
   2   0   8 4288.73 391.793   1
  -2   0  -8 3752.02 365.933  14
  -2   0  -8 4303.35 406.973  12
   2   0   9 230.250 154.617   1
   2   0   9 721.041 222.262   3
   2   0   9 822.223 203.347   4
  -2   0  -9 1081.11 262.466  12
   2   0  10 7474.49 493.977   4
   2   0  10 8377.52 600.355   3
  -2   0 -10 7924.04 620.746  12
   2   0  10 8447.76 607.055   1
   2   0  11 10876.9 697.701   3
  -2   0 -11 9755.76 742.712  12
   2   0  11 9527.07 691.768   1
   2   0  12 1945.46 316.824   3
   2   0  12 1799.41 399.957   1
  -2   0 -12 1912.87 363.457  12
   2   0  13 1293.25 336.982   1
  -2   0 -13 1813.54 368.414  16
   2   0  13 2075.06 331.912   3
  -2   0 -13 1846.16 395.889  12
  -2   0 -14 1229.38 317.544  16
   2   0  14 1000.79 261.115   3
   2   0  14 1054.39 339.712   1
  -2   0 -14 1537.67 386.685  12
   2   0  15 399.305 282.291   1
  -2   0 -15 1014.61 328.051  16
  -2   0 -15 549.553 319.179  12
  -2   0 -16 811.840 345.239  16
   2   0  16 1259.93 443.226   1
  -2   0 -16 1097.40 349.204  12
   2   0  17 16535.1 1165.79   1
   2   0  17 12082.2 1053.22   5
  -2   0 -17 16359.0 1198.63  12
   2   0  18 4859.05 681.903   1
  -2   1  20 1187.63 439.313  13
  -2   1  19 497.419 319.056   5
  -2   1  19-15.0786 266.924  13
  -2   1  19 933.949 499.251   1
   2   1 -19-92.1768 282.787  12
  -2   1  18 3569.82 607.801  13
  -2   1  18 2867.94 547.839   1
   2   1 -18 2565.07 517.811  12
  -2   1  17 18317.3 1229.81  13
   2   1 -17 13553.2 1062.80  12
  -2   1  17 16538.7 1154.80   1
  -2   1  16 846.119 371.873   1
  -2   1  16 1349.47 390.533  13
   2   1 -16 816.908 352.353  12
  -2   1  15 2307.95 444.288  13
  -2   1  15 1785.59 407.787   1
   2   1 -15 2076.84 331.842   2
   2   1 -15 1877.31 417.799  12
  -2   1  14 14517.4 953.741   1
  -2   1  14 14145.3 970.058  13
   2   1 -14 15561.5 815.793   2
   2   1 -14 14348.3 959.721  12
  -2   1  13 936.248 317.521  13
  -2   1  13 879.592 317.634   1
   2   1 -13 1072.25 235.012   2
   2   1 -13 723.878 248.122  12
  -2   1  12 1026.52 299.072   1
  -2   1  12 773.659 274.104  13
   2   1 -12 976.323 212.376   2
   2   1 -12 1026.87 275.053  12
  -2   1  11 16600.2 917.015   1
  -2   1  11 17282.8 961.735  13
   2   1 -11 18269.9 821.329   2
   2   1 -11 16920.3 920.998  12
  -2   1  10 2713.89 357.910   1
   2   1 -10 2943.91 367.792  12
   2   1 -10 3352.56 341.506   2
  -2   1  10 2911.12 409.819  13
  -2   1   9 31673.6 1170.46   1
  -2   1   9 33183.6 1269.13  13
   2   1  -9 32781.9 1206.69  12
   2   1  -9 33018.8 1111.55   2
  -2   1   8 2785.33 307.184   1
  -2   1   8 2442.45 329.337  13
   2   1  -8 2789.97 300.667  12
   2   1  -8 2258.82 280.744   2
  -2   1   7 17249.1 729.835   1
  -2   1   7 16896.8 508.914  16
  -2   1   7 16328.1 790.270  13
   2   1  -7 16884.0 712.270   2
   2   1  -7 16408.7 712.000  12
  -2   1   6 13742.0 453.092  16
  -2   1   6 13486.2 679.631  13
   2   1  -6 12565.7 597.591   2
   2   1  -6 13265.4 575.566  12
   2   1  -5 339.584 143.572   2
   2   1  -5 161.767 135.797   4
  -2   1   5 125.072 58.2667  16
   2   1  -5 155.830 162.703   7
  -2   1   5 219.355 190.349  13
   2   1  -5 303.072 112.706  12
   2   1  -4 38092.9 1097.02   4
  -2   1   4 37551.0 979.698  16
  -2   1   4 38464.4 1193.37  13
   2   1  -4 40553.5 1193.15   7
   2   1  -4 36048.6 948.229   1
   2   1  -4 39660.1 987.046  12
  -2   1   4 39669.8 975.127   5
   2   1  -4 37310.7 1126.97   2
   2   1  -3 47366.4 1273.10   4
  -2   1   3 47508.9 1176.24  16
   2   1  -3 45502.9 1186.19   8
   2   1  -3 44390.4 1036.53   1
  -2   1   3 46186.2 1030.48   5
   2   1  -3 47373.3 1302.61   2
   2   1  -3 49365.2 1337.16   7
  -2   1   3 47166.8 1123.34  12
  -2   1   2 65609.4 1401.07  16
   2   1  -2 65103.3 1481.50   4
   2   1  -2 68184.4 1531.95   7
   2   1  -2 64525.1 1400.13   8
   2   1  -2 68334.0 1520.15   2
  -2   1   2 67014.3 1244.78  12
  -2   1   1 93994.9 2026.80  11
   2   1  -1 89189.4 2138.18   4
  -2   1   1 93750.4 2106.31  16
   2   1  -1 92921.6 2097.15   8
   2   1  -1 90539.0 2123.26   3
   2   1  -1 94588.8 2163.63   7
  -2   1   1 94276.8 1884.42  12
   2   1  -1 88440.5 1876.06   5
  -2   1   0 83966.8 1939.98  16
  -2   1   0 81603.6 1844.04  11
   2   1   0 85548.5 1960.61   7
   2   1   0 78738.0 1938.63   4
   2   1   0 79590.4 1948.28   3
   2   1   0 76534.1 1661.58   5
  -2   1   0 80285.1 1664.02  12
  -2   1  -1 27057.5 845.774  11
  -2   1  -1 24141.6 695.666   1
   2   1   1 26421.6 899.199   7
   2   1   1 27330.4 910.016   3
  -2   1  -1 25878.4 727.133  14
   2   1   1 25777.2 886.310   4
   2   1   1 25331.4 706.405   5
  -2   1  -1 27888.7 915.784  16
   2   1   2 790.136 142.435   5
  -2   1  -2 720.654 113.039  14
   2   1   2 605.281 203.128   4
  -2   1  -2 589.406 119.037   1
   2   1   2 457.070 150.074   3
  -2   1  -2 773.558 179.945  16
   2   1   2 736.800 165.981   6
   2   1   3 15969.7 551.642   1
   2   1   3 17368.4 708.783   4
  -2   1  -3 18616.3 774.203  16
  -2   1  -3 16798.1 568.059  14
   2   1   3 16381.7 679.951   6
   2   1   3 17147.5 737.205   3
   2   1   3 16052.9 622.720   5
   2   1   4 5161.59 322.436   1
   2   1   4 6264.84 418.106   4
   2   1   4 5468.40 378.889   5
  -2   1  -4 5752.31 432.479  16
   2   1   4 5825.53 431.959   3
  -2   1  -4 4994.49 301.541  14
   2   1   4 4700.63 356.804   6
   2   1   5 18366.4 740.416   4
  -2   1  -5 17271.1 807.219  16
  -2   1  -5 16943.9 631.148  14
   2   1   5 17247.9 728.959   6
   2   1   5 16334.3 716.784   5
   2   1   5 16169.8 645.501   1
   2   1   6 66172.4 1722.66   4
  -2   1  -6 63541.4 1874.10  16
  -2   1  -6 63361.0 1619.55  14
   2   1   6 63876.8 1735.80   6
   2   1   6 62567.3 1773.91   5
   2   1   6 60571.2 1638.63   1
  -2   1  -7 37132.5 1315.45  16
   2   1   7 31164.3 1196.22   5
   2   1   7 33108.4 1115.18   1
  -2   1  -8 12221.0 734.283  16
   2   1   8 10255.3 676.282   5
  -2   1  -8 11609.2 672.739  12
   2   1   8 10862.5 621.419   1
  -2   1  -9 271.906 180.829  12
  -2   1  -9 216.229 179.743  16
   2   1   9 311.367 223.279   1
   2   1   9 455.390 194.792   5
  -2   1 -10 726.908 250.137  16
   2   1  10 708.753 242.185   1
   2   1  10 567.763 239.674   5
  -2   1 -10 814.947 244.236  12
  -2   1 -11 6217.08 580.263  16
   2   1  11 5302.33 576.302   5
  -2   1 -11 6014.85 574.589  12
   2   1  11 6459.32 573.122   1
  -2   1 -12 7909.63 654.228  16
   2   1  12 5993.82 646.403   5
  -2   1 -12 8247.20 706.681  12
   2   1  12 7410.34 665.227   1
   2   1  13 10631.7 805.570   1
  -2   1 -13 10677.4 801.832  16
   2   1  13 8713.31 801.500   5
  -2   1 -13 10735.2 835.901  12
  -2   1 -14 566.106 254.535  16
   2   1  14 1245.73 414.294   5
  -2   1 -14 727.082 326.057  12
   2   1  14 421.205 322.855   1
  -2   1 -15 3808.01 505.468  16
   2   1  15 3526.58 577.080   1
   2   1  15 3014.01 560.191   5
  -2   1 -15 3724.18 568.363  12
  -2   1 -16 2078.60 396.130  16
   2   1  16 2466.44 495.697   1
   2   1  16 1403.79 419.708   5
  -2   1 -16 1944.66 465.057  12
   2   1  17 331.590 306.919   1
   2   1  17-277.973 338.784   5
  -2   1 -17 208.649 246.626  12
   2   1  18 14736.8 1149.42   1
  -2   2  19 3567.80 608.317  13
  -2   2  19 2299.75 524.168   5
   2   2 -19 3514.31 598.980  12
  -2   2  18 932.922 426.680  13
  -2   2  18 1135.15 400.288   5
   2   2 -18 950.321 416.214  12
  -2   2  17 7036.24 765.669  13
   2   2 -17 6464.59 767.281  12
  -2   2  17 4840.22 662.043   5
  -2   2  16 636.709 382.949   5
   2   2 -16 1114.56 331.082  12
  -2   2  15 3247.03 493.773  13
  -2   2  15 2810.42 493.155   5
   2   2 -15 3508.56 518.181  12
  -2   2  14 10437.3 817.866  13
  -2   2  14 9453.10 814.542   5
   2   2 -14 11804.1 664.951   2
   2   2 -14 11592.6 860.247  12
   2   2 -13 9652.17 631.664  15
  -2   2  13 9135.98 756.676  13
  -2   2  13 8592.31 716.337   5
   2   2 -13 10478.6 614.286   2
   2   2 -13 8387.31 708.200  12
  -2   2  12 4716.51 510.873   5
   2   2 -12 5477.87 437.583   2
  -2   2  12 3992.24 503.703  13
   2   2 -12 5819.13 556.459  12
   2   2 -12 5560.44 474.943  15
   2   2 -11 6026.11 476.429  15
  -2   2  11 5551.99 552.938  13
  -2   2  11 4665.80 500.352   5
   2   2 -11 5534.98 429.923   2
   2   2 -11 5725.64 531.345  12
   2   2 -10 9805.68 605.522  15
  -2   2  10 10581.4 697.298  13
  -2   2  10 9338.67 670.624   5
   2   2 -10 9970.79 559.400   2
   2   2 -10 9657.50 651.102  12
   2   2  -9 17802.8 823.414  15
  -2   2   9 17408.0 876.616  13
  -2   2   9 15537.7 805.258   5
   2   2  -9 17200.3 736.551   2
   2   2  -8 25445.0 997.829  15
  -2   2   8 26823.3 1076.74  13
  -2   2   8 25008.4 989.469   5
   2   2  -8 24980.1 905.032   2
   2   2  -7 49138.5 1170.46  11
  -2   2   7 52997.2 1323.90  16
  -2   2   7 51442.7 1574.68  13
  -2   2   7 52980.5 1501.21   5
   2   2  -7 52911.4 1552.84  15
   2   2  -7 51779.4 1451.46   2
   2   2  -6 35939.9 1167.65  15
   2   2  -6 29676.1 762.859  11
  -2   2   6 34613.4 972.532  16
  -2   2   6 34509.3 1168.56  13
  -2   2   6 35341.9 1056.01   5
   2   2  -6 35336.7 1082.83   2
   2   2  -5 26105.3 965.174  15
   2   2  -5 27560.7 999.902   7
  -2   2   5 27484.0 844.912  16
  -2   2   5 25761.0 981.064  13
  -2   2   5 25967.6 842.549   5
   2   2  -5 26565.1 921.174   2
  -2   2   4 35059.8 1010.66  16
   2   2  -4 34693.2 1147.29  15
   2   2  -4 36671.0 1155.00   7
   2   2  -4 33478.2 922.357   8
  -2   2   4 35659.6 959.848   5
   2   2  -3 3177.15 215.390   1
   2   2  -3 3266.24 245.297   8
   2   2  -3 3301.47 309.715  15
   2   2  -3 3375.43 321.053   7
  -2   2   3 3110.31 259.551  16
  -2   2   3 2943.67 210.314   5
   2   2  -2 3734.57 221.995   1
  -2   2   2 3739.48 291.084  16
   2   2  -2 3712.27 333.454  15
   2   2  -2 4126.99 338.130   7
   2   2  -2 3855.75 300.385   3
  -2   2   2 3774.73 208.525   5
   2   2  -2 3381.64 247.104   5
   2   2  -1 70792.1 1771.68   7
   2   2  -1 70997.9 1721.55   3
   2   2  -1 67796.0 1593.71   5
  -2   2   1 67570.0 1457.12   5
   2   2  -1 67737.0 1459.57  12
  -2   2   1 69163.0 1722.17  16
   2   2   0 68536.4 1765.96   7
  -2   2   0 71711.8 1743.46  11
   2   2   0 69776.5 1749.12   3
  -2   2   0 70946.7 1771.31  16
   2   2   0 64920.5 1577.40   5
   2   2   0 68990.9 1464.03  12
  -2   2  -1 30467.3 977.349  11
  -2   2  -1 29901.3 991.945  16
  -2   2  -1 27312.1 686.359  14
   2   2   1 30076.9 999.503   7
   2   2   1 29398.6 863.108   5
   2   2   1 28581.0 741.961  12
   2   2   1 26649.0 965.570   3
  -2   2  -2 34767.6 1114.19  11
  -2   2  -2 32277.2 778.529  14
  -2   2  -2 37341.5 1155.30  16
   2   2   2 34258.1 1011.03   5
   2   2   2 34278.8 893.027  12
  -2   2  -3 71576.2 1890.30  11
  -2   2  -3 74718.1 1924.22  16
  -2   2  -3 69404.6 1484.03  14
   2   2   3 69470.8 1761.02   5
  -2   2  -4 117043. 2703.80  16
  -2   2  -4 107922. 2233.50  14
   2   2   4 104740. 2468.27   6
   2   2   4 108022. 2542.53   5
   2   2   5 37594.6 1139.46   6
  -2   2  -5 38647.6 1302.44  16
   2   2   5 36861.8 1234.47   5
  -2   2  -6 7998.21 561.999  16
   2   2   6 8571.54 482.288   6
   2   2   6 8096.59 555.211   5
  -2   2  -7 540.556 190.675  16
   2   2   7 559.993 159.842   6
   2   2   7 814.815 241.336   5
  -2   2  -8 5052.05 474.432  16
   2   2   8 5060.30 398.400   6
   2   2   8 5181.76 445.327   1
   2   2   8 4879.16 488.254   5
   2   2   9 5835.36 500.659   1
  -2   2  -9 7054.54 577.756  16
   2   2   9 6563.24 468.639   6
   2   2   9 6434.35 582.090   5
   2   2  10 711.003 255.838   1
  -2   2 -10 367.267 197.841  16
   2   2  10 444.647 175.740   6
   2   2  10 576.365 225.172   5
   2   2  11 2561.93 385.229   1
  -2   2 -11 2577.19 395.698  16
   2   2  11 2864.64 355.753   6
  -2   2 -11 3176.26 447.434  12
   2   2  11 2859.70 431.460   5
   2   2  12 1472.65 339.393   1
  -2   2 -12 1750.25 332.197  16
  -2   2 -12 1925.74 369.286  12
   2   2  12 2004.07 430.633   5
  -2   2 -13 5320.63 567.331  16
   2   2  13 5160.99 609.935   1
  -2   2 -13 5607.89 614.520  12
   2   2  13 5001.32 625.890   5
  -2   2 -14 1089.53 311.622  16
  -2   2 -14 717.797 302.199  12
   2   2  14 617.094 342.117   5
  -2   2 -15 556.084 290.031  16
  -2   2 -15 327.129 255.723  12
   2   2  15 226.627 269.166   5
  -2   2 -16-19.2407 217.573  12
   2   2  16 249.623 267.076   5
  -2   2 -17 3675.91 593.015  12
   2   2  17 2278.83 502.800   5
   2   3 -19 1639.10 455.332  12
  -2   3  19 507.104 358.185   5
  -2   3  18 822.406 382.627  13
   2   3 -18 300.574 347.565  12
  -2   3  18 252.961 346.741   5
  -2   3  17 389.831 294.212  13
   2   3 -17 139.658 224.503  12
  -2   3  16 2633.02 495.232  13
   2   3 -16 3191.19 519.343  12
  -2   3  16 1942.26 490.171   5
   2   3 -15 6935.43 597.986  15
  -2   3  15 6046.26 639.438  13
   2   3 -15 5560.78 644.961  12
  -2   3  15 4901.99 638.692   5
   2   3 -14 12137.4 775.829  15
  -2   3  14 11569.5 853.897  13
  -2   3  14 9001.50 801.286   5
   2   3 -14 9864.21 809.687  12
  -2   3  13 7636.17 689.475  13
  -2   3  13 6927.28 649.702   5
   2   3 -13 9264.77 663.708  15
   2   3 -13 8422.86 520.646   2
   2   3 -13 6906.08 657.278  12
   2   3 -12 13217.5 660.757  11
   2   3 -12 14928.1 836.534  15
   2   3 -12 14685.2 695.722   2
  -2   3  12 14090.1 873.781  13
  -2   3  12 13415.8 872.559   5
   2   3 -12 13727.6 872.715  12
   2   3 -11 2633.58 289.702   2
   2   3 -11 2585.34 262.610  11
   2   3 -11 2963.60 382.920  15
  -2   3  11 2704.25 395.894  13
  -2   3  11 2262.81 359.540   5
   2   3 -10 8515.50 462.275  11
   2   3 -10 9766.27 646.565  15
  -2   3  10 9329.64 659.049  13
  -2   3  10 8021.57 642.847   5
   2   3 -10 9530.94 533.080   2
   2   3  -9 2591.63 269.293   2
   2   3  -9 2402.18 226.556  11
   2   3  -9 2442.89 338.647  15
  -2   3   9 2443.97 371.518  13
  -2   3   9 2097.49 334.804   5
   2   3  -8 7693.65 374.024  11
   2   3  -8 8767.81 582.973  15
  -2   3   8 8927.16 591.536  13
  -2   3   8 7705.10 555.766   5
  -2   3   8 7732.37 472.352  16
   2   3  -7 4945.50 273.996  11
  -2   3   7 5194.75 379.671  16
   2   3  -7 5347.48 447.476  15
  -2   3   7 5395.79 468.549  13
  -2   3   7 5081.92 415.547   5
  -2   3   6 19083.9 758.488  16
   2   3  -6 19365.3 868.531  15
   2   3  -6 20149.1 888.861   7
  -2   3   6 18043.2 844.616  13
  -2   3   6 20217.3 804.082   5
  -2   3   5 50698.0 1393.88  16
   2   3  -5 46853.1 1147.11   8
   2   3  -5 47703.9 1498.02  15
   2   3  -5 48489.9 1490.28   7
  -2   3   5 50182.2 1368.13   5
  -2   3   4 1672.33 208.792   5
   2   3  -4 1442.04 242.933   7
   2   3  -4 1321.50 239.656  15
  -2   3   4 1174.08 184.853  16
  -2   3   3 82460.6 2042.89  16
   2   3  -3 83478.2 2109.35   7
   2   3  -3 81366.1 1931.09   3
   2   3  -3 80628.6 2109.58  15
  -2   3   3 83350.3 1901.26   5
   2   3  -3 80498.5 1991.51   5
   2   3  -2 50238.2 1462.31   7
   2   3  -2 51971.0 1365.88   3
   2   3  -2 47908.9 1452.50  15
  -2   3   2 51080.3 1431.10  16
  -2   3   2 49970.9 1259.64   5
   2   3  -2 48070.2 1370.35   5
  -2   3   1 5579.54 400.311  16
   2   3  -1 5194.90 397.278   7
   2   3  -1 6167.71 406.193   3
   2   3  -1 5257.55 409.799  15
   2   3  -1 5463.50 365.293   5
  -2   3   1 6024.45 327.091   5
  -2   3   0 6105.73 433.591  16
  -2   3   0 5581.30 282.271   7
   2   3   0 5370.98 412.312  15
   2   3   0 6091.82 432.395   7
   2   3   0 5932.21 380.332   5
  -2   3   0 6208.23 336.962   5
  -2   3  -1 212640. 4540.68  16
   2   3   1 212965. 4516.76   7
   2   3   1 203079. 4384.51   5
  -2   3  -2 11433.7 629.712  11
  -2   3  -2 11712.9 398.628  10
  -2   3  -2 11610.3 625.887  16
   2   3   2 10228.9 539.987   5
  -2   3  -3 50480.7 1553.74  11
  -2   3  -3 50795.1 1552.95  16
   2   3   3 49889.0 1478.41   5
  -2   3  -4 20127.5 906.859  11
  -2   3  -4 18813.7 864.775  16
   2   3   4 19400.9 841.341   5
  -2   3  -5 13905.9 769.368  11
  -2   3  -5 13258.0 725.533  16
   2   3   5 12978.4 715.917   5
  -2   3  -6 27097.7 1145.17  11
  -2   3  -6 26965.0 1097.43  16
  -2   3  -6 24093.1 673.625   2
   2   3   6 24850.7 854.001   6
   2   3   6 26228.5 1098.49   5
   2   3   7 3975.21 446.931   5
  -2   3  -7 3942.01 422.453  16
   2   3   7 3482.24 298.848   6
   2   3   8 14777.1 876.721   5
  -2   3  -8 14741.1 825.732  16
   2   3   8 13491.9 622.525   6
  -2   3  -9 41360.5 1513.37  16
   2   3   9 37635.8 1199.71   6
   2   3   9 38935.2 1543.47   5
  -2   3 -10 13720.8 850.673  16
   2   3  10 12426.0 628.886   6
   2   3  10 13087.8 878.528   5
  -2   3 -11 1332.22 305.067  16
   2   3  11 1403.71 363.906   5
  -2   3 -12 2038.39 370.249  16
   2   3  12 1739.71 420.517   5
  -2   3 -13 1463.56 353.436  16
  -2   3 -13 922.639 303.334  12
   2   3  13 1272.11 351.383   5
  -2   3 -14 3216.53 479.857  16
  -2   3 -14 2547.52 477.789  12
   2   3  14 2471.62 500.065   5
  -2   3 -15 2667.75 465.376  16
  -2   3 -15 2682.12 480.341  12
   2   3  15 2122.26 460.713   5
  -2   3 -16 2783.47 523.421  12
   2   3  16 2850.82 527.569   5
  -2   3 -17 3734.08 608.146  12
   2   3  17 2836.54 610.228   5
   2   4 -18 301.745 323.629  12
  -2   4  18 685.947 368.096   5
   2   4 -17 1342.84 403.584  12
  -2   4  17 1062.69 389.385   5
  -2   4  16 463.524 257.541   9
  -2   4  16 523.861 288.456  13
   2   4 -16 419.851 294.757  12
  -2   4  16 14.9307 241.826   5
  -2   4  15 4994.56 604.555  13
   2   4 -15 4489.00 594.331  12
  -2   4  15 3990.96 626.961   5
   2   4 -15 5253.77 562.223  15
   2   4 -14 8080.68 675.028  15
  -2   4  14 6924.73 650.664  13
   2   4 -14 6812.31 700.889  12
  -2   4  14 4828.30 612.487   5
   2   4 -13 14528.1 891.511  15
  -2   4  13 13933.9 888.362  13
  -2   4  13 11834.9 895.920   5
   2   4 -12 889.878 187.582  11
   2   4 -12 1110.40 298.178  15
  -2   4  12 1595.44 334.712  13
  -2   4  12 844.332 289.098   5
   2   4 -11 25384.7 960.296  11
   2   4 -11 29268.7 1255.17  15
  -2   4  11 28188.6 1234.36  13
  -2   4  11 27348.7 1279.62   5
   2   4 -10 9399.19 512.830  11
  -2   4  10 10248.3 695.039  13
   2   4 -10 12283.8 772.324  15
  -2   4  10 9488.29 709.141   5
  -2   4   9 1710.68 329.100   5
   2   4  -9 1682.07 209.184  11
   2   4  -9 1644.78 298.156  15
  -2   4   9 1635.74 295.595  13
  -2   4   8 3317.16 387.266   5
  -2   4   8 2917.85 350.202  16
   2   4  -8 3417.86 408.718  15
   2   4  -8 3891.91 420.124   7
  -2   4   8 3544.76 408.749  13
  -2   4   7 8655.15 556.930  16
   2   4  -7 9207.03 623.007  15
   2   4  -7 9094.65 616.258   7
  -2   4   7 8552.65 587.966  13
  -2   4   7 9058.00 604.128   5
  -2   4   6 3409.61 356.404   5
   2   4  -6 3773.06 398.735   7
  -2   4   6 3428.36 346.144  16
   2   4  -6 3616.90 203.241   8
   2   4  -6 3072.38 353.776  15
  -2   4   5 66399.4 1853.97  16
   2   4  -5 67516.4 1906.34   7
  -2   4   5 65763.9 1798.79   5
   2   4  -5 66942.8 1948.56  15
   2   4  -4 108807. 2670.39   7
   2   4  -4 104997. 2403.22   3
   2   4  -4 104051. 2699.96  15
  -2   4   4 110886. 2656.62  16
  -2   4   4 112461. 2578.75   5
   2   4  -3 148080. 3541.72  15
   2   4  -3 152309. 3497.74   7
   2   4  -3 154618. 3282.68   3
  -2   4   3 156968. 3503.80  16
  -2   4   3 155525. 3349.58   5
   2   4  -3 151210. 3464.98   5
  -2   4   2 8607.47 541.437  16
   2   4  -2 7825.47 523.048  15
   2   4  -2 7883.75 521.500   7
   2   4  -2 8303.81 464.322   3
  -2   4   2 7923.89 446.849   5
   2   4  -2 7501.39 510.053   5
  -2   4   1 6418.90 474.967  16
   2   4  -1 6714.03 476.143  15
   2   4  -1 6792.80 468.962   7
  -2   4   1 6410.40 287.416  14
   2   4  -1 6329.62 438.924   5
  -2   4   1 7606.39 433.999   5
  -2   4   0 4062.52 384.352  16
  -2   4   0 3955.13 193.551   7
  -2   4   0 2757.85 144.040  14
   2   4   0 3841.58 352.141  15
   2   4   0 3576.74 363.742   7
   2   4   0 3732.14 363.797   5
  -2   4   0 4169.57 322.273   5
   2   4   1 29165.6 1038.23   7
   2   4   1 24772.1 960.420  15
  -2   4  -1 24011.8 674.891   7
  -2   4  -1 27805.0 1056.81  16
   2   4   1 26411.6 992.730   5
  -2   4  -2 55733.9 1684.31  11
  -2   4  -2 52797.3 1636.04  16
   2   4   2 50047.8 1499.92  15
   2   4   2 54928.5 1610.21   5
   2   4   3 2346.70 297.593   5
  -2   4  -3 2973.90 356.907  11
  -2   4  -3 2752.86 342.741  16
  -2   4  -4 16238.0 853.717  11
  -2   4  -4 16364.1 825.728  16
   2   4   4 16388.7 822.264   5
  -2   4  -5 7751.10 603.630  11
  -2   4  -5 8270.95 590.858  16
   2   4   5 7967.75 590.807   5
   2   4   6 518.053 225.692   5
  -2   4  -6 555.879 220.610  11
  -2   4  -6 519.933 212.207  16
  -2   4  -7 52470.3 1814.52  11
  -2   4  -7 49479.2 1699.42  16
   2   4   7 49307.5 1768.33   5
  -2   4  -8 26775.2 1215.68  16
  -2   4  -8 29585.9 1338.72  11
   2   4   8 29812.4 1318.11   5
  -2   4  -9 15568.6 977.511  11
  -2   4  -9 16043.4 911.190  16
   2   4   9 14988.7 969.508   5
   2   4  10 1820.27 386.122   5
  -2   4 -10 2142.31 400.074  11
  -2   4 -10 1052.35 272.083  16
  -2   4 -11 162.008 188.653  11
  -2   4 -11 76.3949 176.908  16
   2   4  12 3530.98 571.443   5
  -2   4 -12 3693.01 543.614  11
  -2   4 -12 4383.47 532.136  16
   2   4  13 2389.18 477.246   5
  -2   4 -13 3273.71 516.642  11
  -2   4 -13 3378.91 475.288  16
   2   4  14 1960.25 472.569   5
  -2   4 -14 2467.90 502.986  11
  -2   4 -14 2262.44 419.018  16
  -2   4 -14 2445.17 477.339  12
  -2   4 -15 11100.8 997.286  11
  -2   4 -15 9692.70 810.842  16
   2   4  15 9483.54 934.327   5
  -2   4 -15 11197.8 974.990  12
   2   4  16 1938.42 467.482   5
  -2   4 -16 2009.92 480.694  11
  -2   4 -16 2688.26 496.693  12
  -2   5  18 3541.60 638.044   5
   2   5 -18 3308.99 596.305  12
  -2   5  17 1042.55 445.044   5
  -2   5  17 800.891 310.000   9
   2   5 -17 1470.43 467.757  12
  -2   5  16 1660.52 481.230   5
   2   5 -16 1593.86 364.579  15
   2   5 -16 913.160 371.294  12
  -2   5  15 933.784 409.210   5
  -2   5  15 1069.90 295.723  13
   2   5 -15 1466.65 344.546  15
  -2   5  14 2395.35 483.119   5
   2   5 -14 3785.65 499.238  15
  -2   5  14 3035.16 466.373  13
  -2   5  13 2316.72 454.552   5
   2   5 -13 2486.13 430.230  15
  -2   5  13 2951.92 431.233  13
   2   5 -12 7572.61 672.826  15
  -2   5  12 7066.76 613.700  13
  -2   5  12 8040.20 738.783   5
  -2   5  11 5403.35 580.609   5
   2   5 -11 4773.02 395.158  11
   2   5 -11 5846.10 573.476  15
  -2   5  11 5588.74 523.582  13
  -2   5  10 14092.8 831.507  13
  -2   5  10 15000.3 938.736   5
   2   5 -10 16894.5 973.152  15
  -2   5   9 475.745 250.854   5
   2   5  -9 524.481 229.627  15
   2   5  -9 341.515 238.024   7
  -2   5   9 270.476 199.814  13
  -2   5   8 3612.54 430.612   5
   2   5  -8 3730.82 428.354   7
  -2   5   8 3755.51 423.766  16
   2   5  -8 4292.78 472.577  15
  -2   5   8 3773.20 427.356  13
  -2   5   7 3524.89 409.792   5
   2   5  -7 3503.52 415.724  15
  -2   5   7 3359.78 393.724  16
   2   5  -7 2483.27 154.469   8
   2   5  -7 3256.91 379.428   7
  -2   5   6 7055.97 553.724  16
   2   5  -6 7888.17 564.431   7
   2   5  -6 7397.30 600.097  15
  -2   5   6 6788.20 543.993   5
   2   5  -5 26169.0 1070.90   7
  -2   5   5 26573.8 1083.16  16
   2   5  -5 25237.3 1114.64  15
   2   5  -5 25593.0 816.191   3
  -2   5   5 26950.0 1068.32   5
  -2   5   4 5311.11 476.915  16
   2   5  -4 6836.46 512.233   7
   2   5  -4 6520.83 537.894  15
   2   5  -4 6208.16 379.200   3
  -2   5   4 6539.28 479.626   5
   2   5  -4 6477.22 518.073   5
   2   5  -3 25598.6 1100.83  15
   2   5  -3 27718.3 1081.83   7
   2   5  -3 27911.2 931.447   3
  -2   5   3 28068.5 1130.72  16
  -2   5   3 29240.0 1055.35   5
   2   5  -3 28854.9 1135.01   5
  -2   5   2 873.093 202.018   5
   2   5  -2 819.966 214.963   5
   2   5  -2 1444.04 261.271  15
   2   5  -2 1153.04 228.262   7
  -2   5   2 1485.06 285.411  16
   2   5  -1 45545.9 1488.24  15
  -2   5   1 49513.1 1559.77  16
   2   5  -1 44863.4 1442.90   7
  -2   5   1 40606.0 1064.62  14
   2   5  -1 48892.9 1516.29   5
  -2   5   1 48602.1 1419.38   5
  -2   5   0 22566.5 961.860  16
   2   5   0 20669.2 883.142   7
   2   5   0 20657.7 890.054  15
   2   5   0 21502.9 906.208   5
  -2   5   0 22269.7 871.034   5
  -2   5  -1 34668.4 1206.56  16
   2   5   1 33491.1 1110.81  15
   2   5   1 32373.8 1157.31   5
  -2   5  -1 35469.0 1092.82   5
  -2   5  -2 13441.3 740.729  16
  -2   5  -2 9879.46 368.419   7
   2   5   2 12254.9 636.805  15
   2   5   2 12557.7 718.656   5
  -2   5  -3 59614.6 1890.81  11
  -2   5  -3 60193.5 1853.81  16
   2   5   3 54641.3 1635.89  15
   2   5   3 60963.7 1854.46   5
  -2   5  -4 3854.58 444.405  16
   2   5   4 3463.31 410.620   5
  -2   5  -4 3722.02 432.521  11
  -2   5  -5 15410.8 896.261  11
  -2   5  -5 14884.4 850.650  16
   2   5   5 16124.5 903.359   5
  -2   5  -6 6667.93 591.705  11
  -2   5  -6 6536.76 566.514  16
   2   5   6 5919.87 563.292   5
  -2   5  -7 16537.2 973.856  11
  -2   5  -7 15974.7 919.804  16
   2   5   7 17288.9 984.270   5
  -2   5  -8 13088.4 883.972  11
  -2   5  -8 11968.2 793.919  16
   2   5   8 11288.7 862.995   5
  -2   5  -9 10375.9 804.186  11
  -2   5  -9 9137.56 720.534  16
   2   5   9 9254.00 808.365   5
   2   5  10 3968.98 562.892   5
  -2   5 -10 4184.51 552.488  11
  -2   5 -10 4152.07 499.740  16
   2   5  11 1778.40 431.084   5
  -2   5 -11 2056.26 417.775  11
  -2   5 -11 1983.26 372.976  16
   2   5  12 174.257 295.212   5
  -2   5 -12 184.159 221.220  11
  -2   5 -12 201.921 229.730  16
   2   5  13 118.222 260.656   5
  -2   5 -13 138.753 228.442  11
  -2   5 -13 417.922 248.965  16
   2   5  14 4096.52 615.010   5
  -2   5 -14 5353.82 691.679  11
  -2   5 -14 4942.07 595.648  16
   2   5  15 559.595 349.066   5
  -2   5 -15 810.748 340.458  11
   2   5  16 2178.55 499.350   5
  -2   6  17 2269.15 538.665   5
  -2   6  17 2545.66 515.551   9
   2   6 -17 1600.23 485.346  12
  -2   6  16 656.761 326.353   5
   2   6 -16 511.263 296.274  15
  -2   6  15 922.567 383.656   5
   2   6 -15 1338.97 394.786  15
  -2   6  14 1396.46 429.957   5
   2   6 -14 1001.74 348.091  15
  -2   6  13 4785.77 621.144   5
   2   6 -13 5177.22 602.999  15
  -2   6  13 5262.99 547.239  13
  -2   6  12 946.344 351.434   5
   2   6 -12 1566.47 377.804  15
  -2   6  12 1293.09 283.988  13
  -2   6  11 829.347 345.245   5
   2   6 -11 308.701 223.409  15
   2   6 -11 772.132 300.906   7
  -2   6  11 248.061 195.585  13
   2   6 -10 22621.9 1210.45  15
   2   6 -10 23816.6 1165.99   7
  -2   6  10 21159.7 1039.97  13
  -2   6  10 21789.7 1190.16   5
  -2   6   9 4067.66 505.626   5
   2   6  -9 5336.09 579.434  15
   2   6  -9 4681.62 507.170   7
  -2   6   9 4651.78 470.504  13
  -2   6   8 1415.88 312.347   5
   2   6  -8 666.403 269.934  15
   2   6  -8 1058.66 280.261   7
  -2   6   8 756.606 240.086  13
  -2   6   8 1278.86 307.901  16
  -2   6   7 16329.5 930.149  16
   2   6  -7 14780.8 843.717   7
   2   6  -7 15730.6 936.375  15
  -2   6   7 14810.7 884.320   5
  -2   6   6 1172.58 287.749   5
  -2   6   6 744.569 239.477  16
   2   6  -6 1262.11 325.084  15
   2   6  -6 1249.74 287.000   7
  -2   6   5 55321.4 1826.02  16
   2   6  -5 53443.5 1723.50   7
   2   6  -5 52121.5 1825.66  15
   2   6  -5 52826.3 1394.34   3
  -2   6   5 56489.4 1783.80   5
  -2   6   4 9988.17 697.970  16
   2   6  -4 9009.43 667.550  15
   2   6  -4 8175.81 583.665   7
   2   6  -4 8945.96 471.542   3
  -2   6   4 8251.01 586.699   5
   2   6  -4 9136.45 657.198   5
  -2   6   3 71004.6 2107.47  16
   2   6  -3 64528.6 2045.76  15
   2   6  -3 65627.1 1949.30   7
  -2   6   3 70618.2 2019.21   5
   2   6  -3 64944.1 2037.96   5
   2   6  -2 18709.1 879.758   7
  -2   6   2 20695.7 1001.40  16
  -2   6   2 19221.4 898.600   5
   2   6  -2 19391.5 964.010   5
   2   6  -2 19076.9 955.241  15
   2   6  -1 2304.50 347.277   5
  -2   6   1 2574.24 342.409   5
  -2   6   1 2406.50 341.248  16
   2   6  -1 2639.25 358.342  15
   2   6  -1 2166.04 299.466   7
  -2   6   0 9490.02 666.970  16
   2   6   0 9052.49 600.158   7
   2   6   0 9773.55 695.394   5
  -2   6   0 9821.72 628.448   5
   2   6   0 9427.07 634.551  15
   2   6   1 902.689 238.518   5
  -2   6  -1 923.654 229.408   5
   2   6   1 1050.69 242.203   9
  -2   6  -1 1028.26 263.719  16
   2   6   1 892.530 227.575  15
   2   6   2 25424.1 1134.59   9
   2   6   2 26041.4 1052.72  15
  -2   6  -2 26142.9 1156.61  16
   2   6   2 25824.2 1166.13   5
   2   6   3 7788.30 563.582  15
   2   6   3 10326.3 695.673   9
  -2   6  -3 9405.13 680.948  16
   2   6   3 9469.92 703.096   5
   2   6   4 14630.8 748.995  15
   2   6   4 15576.6 904.710   9
  -2   6  -4 14547.9 866.207  16
   2   6   4 14947.8 898.851   5
  -2   6  -5 5428.76 558.972  11
   2   6   5 5388.80 559.160   9
  -2   6  -5 5780.39 541.438  16
   2   6   5 4726.83 414.210  15
   2   6   5 5510.83 575.700   5
  -2   6  -6 26662.6 1288.16  11
  -2   6  -6 24973.6 1202.96  16
   2   6   6 26371.6 1279.84   5
  -2   6  -7 47908.8 1853.54  11
  -2   6  -7 44029.7 1717.53  16
   2   6   7 48584.7 1871.25   5
   2   6   8 2336.46 436.545   5
  -2   6  -8 2569.20 426.828  11
  -2   6  -8 2620.42 398.515  16
  -2   6  -9 22908.7 1209.41  16
  -2   6  -9 24973.0 1336.01  11
   2   6   9 22566.1 1316.27   5
   2   6  10 3184.88 524.739   5
  -2   6 -10 3351.66 523.794  11
  -2   6 -10 3293.50 467.370  16
   2   6  11 1532.35 418.943   5
  -2   6 -11 1596.83 390.112  11
  -2   6 -11 1419.01 347.509  16
   2   6  12 1759.06 453.732   5
  -2   6 -12 3239.46 540.959  11
  -2   6 -12 2840.59 463.305  16
   2   6  13 1081.42 394.573   5
  -2   6 -13 1317.29 399.404  11
  -2   6 -13 1249.83 348.483  16
  -2   6 -14 10728.9 984.511  11
  -2   6 -14 11720.0 933.017  16
   2   6  14 10932.1 1034.30   5
   2   6  15 468.080 340.400   5
  -2   6 -15 172.176 292.972  11
  -2   7  17 1419.26 443.426   9
  -2   7  16 2745.31 595.809   5
   2   7 -16 4499.03 626.660  15
   2   7 -16 4419.47 660.359   7
  -2   7  15 5640.08 765.885   5
   2   7 -15 6078.89 710.233  15
   2   7 -15 6269.71 703.490   7
  -2   7  14 463.044 338.241   5
   2   7 -14 920.148 341.585  15
   2   7 -14 474.491 299.071   7
  -2   7  13 235.195 321.041   5
   2   7 -13 635.294 291.522  15
   2   7 -13 215.480 235.202   7
   2   7 -12 2636.49 481.433  15
  -2   7  12 2859.42 508.026   5
   2   7 -12 2690.18 464.553   7
  -2   7  11 444.334 328.873   5
   2   7 -11 910.202 329.395  15
   2   7 -11 941.421 299.678   7
  -2   7  11 824.931 286.083  13
  -2   7  10 409.513 274.314   5
   2   7 -10 467.631 288.567  15
   2   7 -10 259.384 219.795   7
  -2   7  10 702.080 253.701  13
   2   7  -9 16161.4 1043.55  15
   2   7  -9 15191.1 904.097   7
  -2   7   9 13846.1 835.657  13
  -2   7   9 17509.9 1054.74   5
  -2   7   8 854.693 319.930   5
  -2   7   8 915.936 287.830  16
   2   7  -8 881.943 301.845  15
   2   7  -8 876.397 254.971   7
  -2   7   8 851.900 241.832  13
   2   7  -7 10110.4 798.540  15
  -2   7   7 10315.1 792.720  16
   2   7  -7 9726.64 690.617   7
  -2   7   7 9640.32 749.197   5
  -2   7   6 8418.79 694.454  16
   2   7  -6 7767.48 686.378  15
   2   7  -6 7669.84 604.938   7
  -2   7   6 7127.08 610.400   5
  -2   7   5 3742.96 448.186   5
  -2   7   5 3947.21 483.425  16
   2   7  -5 3583.83 293.034   3
   2   7  -5 3420.47 401.422   7
   2   7  -5 3327.13 466.399  15
  -2   7   4 8269.45 673.856  16
   2   7  -4 9002.28 620.268   7
   2   7  -4 7822.49 464.918   3
  -2   7   4 9160.43 680.303   5
   2   7  -4 8095.72 665.702  15
   2   7  -4 7871.20 654.388   5
   2   7  -3 8885.33 624.032   7
   2   7  -3 8206.98 677.619  15
  -2   7   3 9572.81 723.534  16
  -2   7   3 9523.51 684.858   5
   2   7  -3 8518.01 677.387   5
  -2   7   2 27423.1 1275.42  16
   2   7  -2 26878.5 1252.59  15
   2   7  -2 28154.5 1152.45   7
  -2   7   2 29398.7 1253.93   5
   2   7  -2 27860.4 1273.21   5
  -2   7   1 33988.0 1417.47  16
   2   7  -1 33222.5 1278.38   7
   2   7  -1 31972.2 1365.60  15
   2   7  -1 33522.7 1419.74   5
  -2   7   1 34127.1 1363.20   5
   2   7   0 16397.0 870.241   9
  -2   7   0 17469.8 987.475  16
   2   7   0 16747.8 867.119   7
   2   7   0 15477.0 878.236  15
   2   7   0 17576.1 990.496   5
  -2   7   0 16636.0 901.916   5
   2   7   1 6565.42 566.272   9
  -2   7  -1 7087.75 611.356  16
   2   7   1 7023.45 577.118  15
   2   7   1 7246.21 633.769   5
  -2   7  -1 6873.45 565.729   5
   2   7   2 517.397 223.721   5
   2   7   2 535.642 232.082   9
  -2   7  -2 790.437 290.688  16
   2   7   2 573.300 202.438  15
   2   7   3 4780.17 529.350   5
   2   7   3 5781.86 571.199   9
  -2   7  -3 5925.84 583.790  16
   2   7   3 5487.72 514.154  15
   2   7   4 17844.4 1027.70   9
  -2   7  -4 20131.1 1072.88  16
   2   7   4 18597.2 895.298  15
   2   7   4 18904.6 1069.76   5
   2   7   5 14235.4 934.699   9
  -2   7  -5 13417.5 880.361  16
   2   7   5 11846.0 704.624  15
   2   7   5 13231.8 928.039   5
   2   7   6 1143.76 348.114   5
   2   7   6 1472.78 369.455   9
  -2   7  -6 997.166 314.187  16
  -2   7  -7 5765.85 624.519  11
   2   7   7 5522.10 662.394   5
   2   7   7 6691.62 676.403   9
  -2   7  -7 6955.80 657.448  16
  -2   7  -8 10592.6 865.430  11
  -2   7  -8 8919.16 757.934  16
   2   7   8 10325.6 905.321   5
   2   7   9 200.820 296.133   5
  -2   7  -9-10.4407 214.911  11
  -2   7  -9 657.924 278.727  16
   2   7  10 2754.64 574.976   5
  -2   7 -10 3304.80 536.885  11
  -2   7 -10 2483.61 451.269  16
  -2   7 -11 9788.89 887.678  11
  -2   7 -11 9801.20 823.335  16
   2   7  11 8590.71 898.577   5
   2   7  12 391.986 308.250   5
  -2   7 -12-75.1138 217.512  11
  -2   7 -12-204.077 201.490  16
   2   7  13 2544.29 541.283   5
  -2   7 -13 1793.74 416.568  11
  -2   7 -13 1310.16 390.586  16
   2   7  14 2185.79 545.989   5
  -2   7 -14 3116.05 562.637  11
   2   8 -16 8842.42 904.166  15
  -2   8  15 4839.12 715.307   5
   2   8 -15 6046.51 740.437  15
   2   8 -15 5457.56 668.609   7
  -2   8  14 4673.87 722.316   5
   2   8 -14 5000.81 681.286  15
   2   8 -14 5394.98 642.954   7
  -2   8  13 1761.67 477.566   5
   2   8 -13 3023.31 528.121  15
   2   8 -13 2941.77 483.593   7
  -2   8  12 1185.51 425.035   5
   2   8 -12 761.255 348.279  15
   2   8 -12 550.901 254.665   7
  -2   8  11 736.132 351.837   5
   2   8 -11-54.1246 242.044  15
   2   8 -11 277.959 230.936   7
  -2   8  10 5705.84 643.904   5
   2   8 -10 5287.81 655.250  15
   2   8 -10 5563.97 596.633   7
  -2   8   9 684.483 279.225   5
   2   8  -9 570.693 242.118   7
   2   8  -9 381.478 272.556  15
  -2   8   9 603.889 245.169  13
  -2   8   8 3039.82 503.550   5
  -2   8   8 3314.21 502.641  16
   2   8  -8 2872.57 425.777   7
   2   8  -8 3089.75 507.821  15
  -2   8   8 3246.35 423.087  13
  -2   8   7 3196.94 456.007   5
  -2   8   7 3398.44 513.542  16
   2   8  -7 2371.53 430.142  15
   2   8  -7 2194.80 361.197   7
  -2   8   6 1909.79 376.944   5
  -2   8   6 1128.60 330.287  16
   2   8  -6 1277.51 336.778  15
   2   8  -6 1404.69 322.713   7
  -2   8   5 1857.77 338.039   5
  -2   8   5 2166.17 437.504  16
   2   8  -5 1967.16 398.845  15
   2   8  -5 2354.31 368.552   7
  -2   8   4 10956.6 843.024  16
   2   8  -4 10493.5 701.957   7
   2   8  -4 11118.5 842.975  15
  -2   8   4 11191.8 806.437   5
   2   8  -4 10521.8 810.209   5
  -2   8   3 19296.9 1128.46  16
   2   8  -3 19590.4 969.937   7
   2   8  -3 20396.1 1131.30  15
  -2   8   3 22173.8 1151.31   5
   2   8  -3 20271.0 1148.14   5
  -2   8   2 12563.1 902.163  16
   2   8  -2 12754.4 764.795   7
   2   8  -2 12197.8 862.342  15
  -2   8   2 12550.1 839.365   5
   2   8  -2 12702.2 880.788   5
   2   8  -1 39801.8 1470.24   9
  -2   8   1 38964.0 1638.06  16
   2   8  -1 39800.9 1453.18   7
   2   8  -1 38171.6 1577.53  15
   2   8  -1 39858.9 1679.66   5
  -2   8   1 38050.1 1565.30   5
   2   8   0 29321.1 1261.97   9
  -2   8   0 28854.7 1372.84  16
   2   8   0 28584.5 1309.45  15
   2   8   0 30159.7 1417.51   5
  -2   8   0 30647.1 1365.23   5
   2   8   1 3570.04 491.541   5
  -2   8  -1 4006.50 469.550   5
   2   8   1 4077.29 489.293   9
  -2   8  -1 3825.25 492.819  16
   2   8   1 3826.52 454.929  15
   2   8   2 9892.31 755.838   9
  -2   8  -2 10092.5 794.985  16
   2   8   2 10379.5 732.185  15
   2   8   2 10953.2 849.671   5
   2   8   3 10360.9 795.137   9
  -2   8  -3 11042.8 836.895  16
   2   8   3 10212.2 715.115  15
   2   8   3 11001.5 851.772   5
   2   8   4 15210.3 987.653   9
  -2   8  -4 16147.9 1044.00  16
   2   8   4 15427.9 854.130  15
   2   8   4 16606.0 1071.85   5
   2   8   5 27697.8 1395.21   9
  -2   8  -5 28064.8 1382.11  16
   2   8   5 26055.8 1136.82  15
   2   8   5 28451.2 1448.53   5
  -2   8  -6 3406.32 497.579  16
   2   8   6 3989.75 587.844   5
   2   8   6 3767.99 533.315   9
   2   8   7 9341.79 833.626   9
  -2   8  -7 7493.18 731.324  16
   2   8   7 8656.06 832.853   5
   2   8   8 6167.76 733.876   5
   2   8   8 6790.35 750.188   9
  -2   8  -8 5401.97 623.422  16
   2   8   9 4681.89 659.949   5
  -2   8  -9 4147.66 565.020  16
  -2   8 -10 878.817 354.705  11
   2   8  10 326.687 405.283   5
  -2   8 -10 1021.04 330.426  16
   2   8  11 1043.22 409.816   5
  -2   8 -11 1766.70 434.496  11
  -2   8 -11 748.635 261.132  16
   2   8  12 220.981 302.785   5
  -2   8 -12 401.841 317.300  11
  -2   8 -12 168.183 251.126  16
   2   8  13 2905.25 593.876   5
  -2   8 -13 3082.89 533.752  16
   2   9 -14 15289.9 1195.82  15
  -2   9  13 4266.73 679.087   5
   2   9 -13 4714.75 689.603  15
   2   9 -13 4626.50 606.766   7
  -2   9  12-139.917 278.734   5
   2   9 -12 219.305 296.435  15
   2   9 -12 625.683 296.712   7
  -2   9  11 2147.29 496.586   5
   2   9 -11 2372.04 523.145  15
   2   9 -11 2613.56 423.708   7
  -2   9  10 3496.02 568.587   5
   2   9 -10 3198.95 561.467  15
   2   9 -10 3011.95 444.529   7
   2   9  -9 9070.42 735.189   7
   2   9  -9 10141.5 914.542  15
  -2   9   9 9165.69 852.454   5
  -2   9   8 2060.50 424.002   5
   2   9  -8 1314.33 315.716   7
   2   9  -8 1573.00 386.909  15
  -2   9   7 3113.74 500.434   5
  -2   9   7 3719.97 578.244  16
   2   9  -7 4033.65 589.788  15
   2   9  -7 3180.62 446.255   7
  -2   9   6 1308.40 364.874   5
  -2   9   6 1577.74 421.206  16
   2   9  -6 1024.72 326.844  15
   2   9  -6 1498.78 306.567   7
  -2   9   5 598.405 282.431   5
  -2   9   5 938.029 367.711  16
   2   9  -5 879.991 322.812  15
   2   9  -5 826.929 283.482   7
  -2   9   4 26761.7 1418.96  16
   2   9  -4 24920.1 1131.05   7
   2   9  -4 22218.0 1285.58  15
  -2   9   4 26490.3 1365.15   5
   2   9  -4 22223.0 1278.43   5
  -2   9   3 2649.17 450.591   5
   2   9  -3 2412.47 418.023   5
  -2   9   3 2538.28 446.781  16
   2   9  -3 2489.59 443.672  15
   2   9  -3 2497.02 379.457   7
  -2   9   2 293.226 262.267   5
   2   9  -2 780.463 268.703   5
  -2   9   2 781.702 301.815  16
   2   9  -2 952.086 320.282  15
   2   9  -2 524.269 235.198   7
   2   9  -1 1388.65 348.204   5
  -2   9   1 2025.97 408.570   5
   2   9  -1 1423.73 309.887   9
   2   9  -1 1718.60 371.178  15
  -2   9   1 2175.36 426.661  16
   2   9   0 11269.9 796.297   9
  -2   9   0 11050.1 872.032  16
   2   9   0 11047.6 830.163  15
   2   9   0 11407.8 922.731   5
  -2   9   0 12478.2 883.520   5
   2   9   1 1.10836 184.608   9
   2   9   1 42.3159 221.655  15
  -2   9  -1 302.966 249.897  16
   2   9   1 335.790 308.505   5
  -2   9  -1 615.782 301.222   5
   2   9   2 1620.70 405.306   5
  -2   9  -2 1541.86 382.847  16
   2   9   2 1394.79 358.393   9
   2   9   2 1243.64 332.899  15
   2   9   3 1416.50 376.686   5
  -2   9  -3 1393.03 336.199  16
   2   9   3 605.708 238.559   9
   2   9   3 279.610 208.327  15
   2   9   4 3578.95 577.693   5
   2   9   4 3489.73 513.091   9
  -2   9  -4 3101.52 493.750  16
   2   9   4 3022.32 409.868  15
   2   9   5 8681.92 803.845   9
  -2   9  -5 8743.12 798.118  16
   2   9   5 9409.14 877.122   5
   2   9   6 4284.23 616.024   5
   2   9   6 5174.55 628.257   9
  -2   9  -6 4205.69 582.228  16
   2   9   7 4478.42 639.769   5
   2   9   7 4653.19 634.172   9
  -2   9  -7 5097.34 633.355  16
   2   9   8 11677.5 991.840   9
  -2   9  -8 10323.9 902.207  16
   2   9   8 9580.10 927.036   5
   2   9   9 1531.84 451.611   5
  -2   9  -9 1486.37 362.209  16
  -2   9 -10 783.312 354.508  16
   2   9  10 1039.16 478.346   5
   2   9  11 77.3963 324.614   5
  -2   9 -11 85.9402 274.459  16
  -2   9 -12 1276.51 360.656  16
  -2  10  12 3912.30 663.328   5
  -2  10  11 3755.06 634.440   5
   2  10 -11 3725.02 640.272  15
  -2  10  10 2886.74 545.398   5
   2  10 -10 3053.36 562.778  15
  -2  10   9 855.169 371.920   5
   2  10  -9 851.482 350.256  15
  -2  10   8 6755.61 767.867   5
   2  10  -8 8947.53 901.586  15
  -2  10   7 1278.64 403.768   5
  -2  10   7 857.948 354.672  16
   2  10  -7 1036.42 383.553  15
  -2  10   6 1009.49 402.894   5
  -2  10   6 2033.73 461.212  16
   2  10  -6 1332.66 381.513  15
  -2  10   5 5073.62 661.106   5
  -2  10   5 4989.59 677.610  16
   2  10  -5 4034.20 608.787  15
   2  10  -4 3925.96 597.882   5
  -2  10   4 5348.17 684.295  16
   2  10  -4 5402.97 673.868  15
  -2  10   4 6838.78 725.724   5
  -2  10   3 3029.07 518.431   5
   2  10  -3 2450.27 457.011   5
   2  10  -3 2296.61 447.820  15
  -2  10   3 3156.26 559.387  16
  -2  10   2 1812.44 424.791   5
   2  10  -2 2776.67 503.645   5
  -2  10   2 2569.57 495.167  16
   2  10  -2 2504.24 493.082  15
   2  10  -1 119.241 288.759   5
  -2  10   1 188.282 297.676   5
   2  10  -1 167.177 207.277   9
   2  10  -1 957.209 348.468  15
  -2  10   1 74.0582 234.087  16
   2  10   0 4635.60 623.120   5
  -2  10   0 5063.08 621.002   5
   2  10   0 4342.05 547.055   9
  -2  10   0 5150.73 641.010  16
   2  10   0 6237.76 671.913  15
  -2  10  -1 3198.61 527.742  16
   2  10   1 1894.81 482.754   5
  -2  10  -1 2590.09 491.006   5
   2  10   1 2688.25 463.063   9
   2  10   1 2227.84 406.747  15
   2  10   2 1797.86 453.376   5
   2  10   2 1010.50 314.749   9
  -2  10  -2 1645.63 416.840  16
   2  10   2 881.648 337.118  15
   2  10   3 566.447 321.305   5
   2  10   3 1146.98 345.046   9
  -2  10  -3 1356.60 399.592  16
   2  10   3 952.756 322.762  15
   2  10   4 4314.79 610.234   5
   2  10   4 3783.70 579.306   9
  -2  10  -4 4120.55 581.882  16
   2  10   5 1255.15 422.570   5
   2  10   5 1521.62 440.010   9
  -2  10  -5 1467.72 427.706  16
   2  10   6 138.734 282.530   5
  -2  10  -6 188.454 253.229  16
   2  10   6 212.598 316.231   9
   2  10   7 688.574 374.953   5
   2  10   7 197.276 265.671   9
  -2  10  -7 276.514 304.687  16
   2  10   8 1211.23 472.084   5
   2  10   8 1976.40 491.164   9
  -2  10  -8 1338.52 407.997  16
   2  10   9 1824.30 526.173   5
  -2  10  -9 2215.19 498.911  16
  -2  10 -10 1468.87 410.555  16
  -2  10 -11 131.377 261.992  16
  -2  11   9 545.231 397.342   5
  -2  11   8 1803.03 466.482   5
   2  11  -8 2290.30 539.187  15
  -2  11   7 1832.58 517.761   5
   2  11  -7 1061.96 394.370  15
  -2  11   6 2176.83 498.200   5
  -2  11   6 2848.24 553.543  16
   2  11  -6 3075.74 567.894  15
  -2  11   5 744.094 338.850   5
   2  11  -5 874.171 409.771  15
  -2  11   5 1184.64 389.164  16
  -2  11   4 12516.7 1069.87  16
   2  11  -4 9455.34 924.532  15
  -2  11   4 10206.1 958.535   5
  -2  11   3 1344.21 410.125  16
  -2  11   3 1964.14 473.332   5
   2  11  -3 1482.05 449.281   5
   2  11  -3 2828.09 539.664  15
  -2  11   2 3114.44 553.178   5
   2  11  -2 2948.56 557.553   5
   2  11  -2 2619.31 519.274  15
  -2  11   2 4176.18 604.837  16
   2  11  -1 430.993 346.200   5
  -2  11   1 1313.53 388.791   5
  -2  11   1 1479.21 426.838  16
   2  11  -1 1340.85 381.585  15
   2  11   0 5556.06 759.384   5
  -2  11   0 7285.82 788.149   5
   2  11   0 6131.46 676.885   9
  -2  11   0 6741.70 778.622  16
   2  11   0 7114.71 744.338  15
   2  11   1 4024.56 659.783   5
   2  11   1 4341.01 562.825   9
  -2  11  -1 5310.65 669.742   5
  -2  11  -1 4679.95 641.589  16
   2  11   1 5032.93 622.271  15
   2  11   2 474.255 353.842   5
   2  11   2 1099.58 352.945   9
  -2  11  -2 162.629 257.110  16
   2  11   2 601.957 279.393  15
   2  11   3 886.013 389.853   5
   2  11   3 420.990 287.249   9
  -2  11  -3 1127.83 385.132  16
   2  11   4 5768.88 813.454   5
  -2  11  -4 5720.18 717.241  16
   2  11   4 5104.18 679.150   9
   2  11   5 68.4729 283.285   5
   2  11   5 20.0524 243.528   9
  -2  11  -5 16.3436 247.490  16
   2  11   6 4884.35 739.187   5
   2  11   6 2933.05 555.722   9
  -2  11  -6 3278.64 581.902  16
   2  11   7 879.006 404.912   9
  -2  11  -7 410.596 345.317  16
  -2  12   6 17882.3 1339.56   5
  -2  12   5 2878.23 595.893   5
  -2  12   4 2906.75 582.636   5
   2  12  -4 3011.61 552.507  15
  -2  12   3 158.455 306.406   5
   2  12  -3 539.299 351.974   5
   2  12  -3 480.370 347.602  15
  -2  12   2 3536.72 601.537   5
   2  12  -2 3385.08 609.636   5
   2  12  -2 2921.38 557.089  15
   2  12  -1-20.4438 233.223  15
   2  12  -1 455.250 317.960   5
  -2  12   1 279.849 291.275   5
   2  12   0 2521.95 567.468   5
  -2  12   0 3820.64 612.547   5
   2  12   0 3543.65 561.062  15
   2  12   1-235.965 336.184   5
   2  12   1 588.800 344.813  15
   2  12   2 2236.37 558.861   5
   2  12   2 2230.31 465.168   9
   2  12   3 4418.21 626.263   9
   2  12   4 6449.58 770.022   9
  -3 -11   9 3614.72 588.070   1
  -3 -11   9 2927.93 580.829  14
  -3 -11   8 947.666 355.466  14
  -3 -11   8 522.427 337.902   1
  -3 -11   7 9217.38 852.856   1
  -3 -11   7 7721.85 867.460  14
   3 -11  -6 2843.15 606.094   1
  -3 -11   6 2508.13 527.828  14
  -3 -11   6 3750.56 575.707   1
   3 -11  -5 5575.93 775.390   1
  -3 -11   5 4536.56 679.062  14
  -3 -11   5 4895.75 641.561   1
   3 -11  -4 4414.04 685.632   1
  -3 -11   4 2353.79 492.239  14
  -3 -11   4 2888.26 508.480   1
   3 -11  -4 2515.47 449.830   2
  -3 -11   3 8938.80 943.363  10
   3 -11  -3 8796.14 907.742   1
  -3 -11   3 10023.3 866.385   1
  -3 -11   3 9442.82 934.490  14
  -3 -11   2 1241.20 439.296  10
   3 -11  -2 1604.76 508.435   1
  -3 -11   2 1214.06 429.656  14
  -3 -11   1 7408.51 851.047  10
  -3 -11   1 6705.02 809.767  14
   3 -11  -1 8081.92 890.708   1
  -3 -11   0 415.222 337.669  10
  -3 -11   0 174.426 288.155  14
  -3 -11  -1 1327.61 438.019  10
   3 -11   1 1328.72 534.249   1
  -3 -11  -1 2070.33 498.048  14
  -3 -11  -2 133.588 303.654  10
   3 -11   2 712.769 385.401   1
  -3 -11  -2-194.751 256.604  14
  -3 -11  -3 2159.70 534.857  14
   3 -11   3 2774.53 613.599   1
   3 -11   4 523.280 336.937   1
   3 -11   5 8324.38 919.605   1
  -3 -10  11 712.583 390.724   1
  -3 -10  11 16.0909 302.102  14
  -3 -10  11 499.354 336.619  13
   3 -10 -10 1606.32 466.995  12
  -3 -10  10 1691.06 440.492   1
  -3 -10  10 1257.57 387.202  14
  -3 -10   9 353.618 294.728   1
   3 -10  -9 301.109 347.064  12
   3 -10  -9 559.869 391.267   1
  -3 -10   9-34.7461 230.418  14
   3 -10  -8 1899.87 475.456   1
  -3 -10   8 1627.14 477.384  14
  -3 -10   8 2171.93 452.181   1
   3 -10  -7 5669.54 768.521   1
  -3 -10   7 4061.02 626.613  14
  -3 -10   7 5978.36 653.210   1
   3 -10  -6 10584.5 951.946   1
  -3 -10   6 10199.0 857.203   1
  -3 -10   6 7824.95 874.086  14
   3 -10  -5 3700.33 615.387   1
  -3 -10   5 2157.75 488.535  14
  -3 -10   5 2896.31 488.630   1
   3 -10  -4 15877.9 1189.57   1
  -3 -10   4 14955.2 1005.59   1
  -3 -10   4 11965.8 1033.24  14
  -3 -10   3 2253.54 527.608  10
   3 -10  -3 2947.82 529.620   1
  -3 -10   3 1753.13 402.273   1
  -3 -10   3 2443.47 493.209  14
   3 -10  -3 1859.98 378.789   2
  -3 -10   2 1563.20 425.897  10
   3 -10  -2 2160.57 452.513   1
  -3 -10   2 2077.95 402.915   1
  -3 -10   2 1557.73 418.464  14
   3 -10  -1 3179.64 555.068   1
  -3 -10   1 2701.33 535.708  10
  -3 -10   1 2778.12 437.016   1
  -3 -10   1 2776.34 535.021  14
  -3 -10   0 745.520 260.079   1
  -3 -10   0 1400.99 418.463  10
   3 -10   0 580.553 357.862   1
  -3 -10   0 1425.34 410.439  14
   3 -10   0 1226.09 347.560   6
  -3 -10  -1 12089.3 1018.21  10
  -3 -10  -1 13822.8 984.079   1
   3 -10   1 13718.5 1052.86   1
  -3 -10  -1 11737.3 1024.98  14
   3 -10   1 11953.8 925.671   6
  -3 -10  -2 12573.3 1045.34  10
  -3 -10  -2 12934.4 964.058   1
   3 -10   2 13101.0 1023.14   1
  -3 -10  -2 12743.2 1085.71  14
  -3 -10  -3 3491.45 577.437  10
   3 -10   3 3224.44 569.012   1
  -3 -10  -3 3928.14 629.635  14
  -3 -10  -4 2304.91 518.803  14
   3 -10   4 3151.08 561.686   1
  -3 -10  -5 659.985 357.496  14
   3 -10   5 857.684 358.927   1
  -3 -10  -6 3480.85 645.222  14
   3 -10   6 1647.02 458.273   1
   3 -10   7 3990.74 670.146   1
   3 -10   8 7358.08 842.683   1
  -3  -9  13 6241.73 756.115   1
  -3  -9  13 6835.26 810.380  13
   3  -9 -12 3956.89 678.346  12
  -3  -9  12 3624.27 567.311   1
  -3  -9  12 2899.46 560.378  13
   3  -9 -11 1071.69 363.979  12
  -3  -9  11 1369.05 420.777   1
  -3  -9  11 823.927 403.493  13
   3  -9 -10 703.002 334.546  12
  -3  -9  10 1355.11 394.404   1
  -3  -9  10 1200.31 436.796  13
  -3  -9   9 2549.45 464.187   1
   3  -9  -9 2459.27 504.474  12
  -3  -9   9 2293.25 453.286  13
  -3  -9   8 6520.68 685.674   1
  -3  -9   8 5301.57 697.684  14
  -3  -9   8 7219.02 699.252  13
   3  -9  -8 6549.82 773.872  12
   3  -9  -7 1980.40 463.012  12
   3  -9  -7 2108.87 527.359   1
  -3  -9   7 1371.05 349.784  14
  -3  -9   7 1660.44 393.243   1
   3  -9  -6 4757.81 675.035   1
  -3  -9   6 2896.99 525.259  14
  -3  -9   6 4298.46 533.729   1
   3  -9  -5 2459.45 484.072   1
  -3  -9   5 1621.54 426.398  14
  -3  -9   5 1919.58 403.329   1
   3  -9  -4 2246.18 517.914   1
  -3  -9   4 2177.94 477.969  10
  -3  -9   4 1622.46 419.698  14
  -3  -9   4 1924.36 375.339   1
  -3  -9   3 21.5504 249.090  10
   3  -9  -3 87.8971 254.999   1
  -3  -9   3 422.854 250.175   1
   3  -9  -3 924.745 304.060   2
  -3  -9   3 445.089 242.203  14
  -3  -9   2 3292.82 531.498  10
   3  -9  -2 3800.97 539.061   1
  -3  -9   2 2482.52 415.833   1
  -3  -9   2 2917.63 505.296  14
   3  -9  -2 3158.82 421.672   6
   3  -9  -2 2654.79 386.385   2
  -3  -9   1 3582.59 560.995  10
   3  -9  -1 3981.37 554.551   1
   3  -9  -1 3251.14 456.863   6
  -3  -9   1 2769.82 483.890  14
  -3  -9   1 3118.68 460.556   1
   3  -9  -1 3297.26 417.845   2
  -3  -9   0 336.122 266.962  10
  -3  -9   0 1057.41 342.753   1
   3  -9   0 679.291 319.391   1
  -3  -9   0-156.753 273.293  14
   3  -9   0 100.612 194.096   6
  -3  -9  -1 9147.19 844.052  10
  -3  -9  -1 8967.05 730.251   1
   3  -9   1 8966.94 779.780   1
  -3  -9  -1 7181.47 779.941  14
   3  -9   1 7548.17 695.619   6
  -3  -9  -2 6597.72 745.790  10
  -3  -9  -2 6584.16 655.262   1
   3  -9   2 6841.77 713.172   1
  -3  -9  -2 8121.46 827.384  14
  -3  -9  -3 19248.6 1107.65   1
  -3  -9  -3 16962.8 1216.66  14
   3  -9   3 17148.5 1127.99   1
  -3  -9  -4 1406.14 358.846   1
  -3  -9  -4 1666.14 433.238  14
   3  -9   4 1590.18 419.175   1
  -3  -9  -5 10772.4 860.635   1
   3  -9   5 7822.70 797.845   1
  -3  -9  -5 9053.99 923.772  14
  -3  -9  -6 113.719 249.617  14
   3  -9   6 801.646 341.759   1
  -3  -9  -7 4740.87 684.976  14
   3  -9   7 5222.36 693.713   1
  -3  -9  -8 4366.83 672.648  14
   3  -9   8 3616.73 607.967   1
   3  -9   9 498.311 381.523   1
   3  -9  10 365.429 314.016   1
   3  -8 -14 470.298 346.533  12
  -3  -8  14 228.942 313.189   1
  -3  -8  14 838.107 438.409  13
  -3  -8  13 6705.30 756.751   1
  -3  -8  13 6755.91 794.008  13
   3  -8 -13 7183.43 837.147  12
   3  -8 -12 2995.18 531.902  12
  -3  -8  12 3184.96 543.820   1
  -3  -8  12 2675.71 501.525  13
   3  -8 -11 4576.52 630.509  12
  -3  -8  11 3608.45 529.469   1
  -3  -8  11 4365.71 629.004  13
   3  -8 -10 4954.22 633.144  12
  -3  -8  10 4447.60 562.631   1
  -3  -8  10 4128.51 608.979  13
   3  -8  -9 4242.59 595.376  12
  -3  -8   9 4191.56 537.661   1
  -3  -8   9 5006.74 612.465  13
   3  -8  -8 1610.20 417.208  12
  -3  -8   8 1701.73 372.442  13
  -3  -8   8 2100.62 421.379   1
   3  -8  -7 147.210 228.771  12
  -3  -8   7 221.236 232.721  13
  -3  -8   7 515.120 268.792   1
   3  -8  -6 3503.82 516.029  12
   3  -8  -6 3066.17 482.667   1
  -3  -8   6 2396.49 467.529  14
  -3  -8   6 2656.47 398.618  13
  -3  -8   6 3157.21 453.166   1
   3  -8  -5 2588.02 458.763   1
  -3  -8   5 3020.18 399.769  13
  -3  -8   5 2402.67 455.462  14
  -3  -8   5 2790.30 432.081   1
   3  -8  -4 7640.26 725.828   1
  -3  -8   4 6687.22 696.514  10
  -3  -8   4 7443.38 626.084   1
   3  -8  -4 7357.38 653.610   2
   3  -8  -4 7942.59 602.829   6
  -3  -8   4 7147.30 739.369  14
  -3  -8   3 13562.2 964.726  10
   3  -8  -3 13586.3 966.142   1
  -3  -8   3 13843.8 826.896   1
  -3  -8   3 12715.5 968.789  14
   3  -8  -3 14093.0 831.892   6
   3  -8  -3 12263.7 806.516   2
  -3  -8   2 29069.2 1440.56  10
   3  -8  -2 31692.8 1476.97   1
  -3  -8   2 30010.0 1261.11   1
  -3  -8   2 27694.7 1455.49  14
   3  -8  -2 28105.5 1253.23   6
   3  -8  -2 25606.9 1198.22   2
  -3  -8   1 4925.24 586.776  10
   3  -8  -1 4620.03 540.098   1
  -3  -8   1 4589.27 492.793   1
  -3  -8   1 4134.06 566.788  14
   3  -8  -1 4717.22 518.040   6
   3  -8  -1 4450.71 462.212   2
  -3  -8   0 26824.6 1377.13  10
  -3  -8   0 25867.4 1187.71   1
   3  -8   0 27365.4 1330.76   1
  -3  -8   0 23660.6 1348.74  14
   3  -8   0 25647.3 1225.82   6
   3  -8   0 20119.5 1004.66   2
  -3  -8  -1 9187.40 797.932  10
  -3  -8  -1 8946.33 697.172   1
   3  -8   1 9637.16 754.936   6
   3  -8   1 8794.00 750.318   1
  -3  -8  -1 7618.18 767.945  14
  -3  -8  -2 16799.6 967.569   1
   3  -8   2 14216.1 942.510   1
  -3  -8  -2 14295.5 1065.32  14
   3  -8   3 12575.6 902.497   1
  -3  -8  -3 13747.9 884.119   1
  -3  -8  -3 12595.1 1017.00  14
  -3  -8  -4 8992.00 726.658   1
   3  -8   4 8591.95 744.508   1
  -3  -8  -4 7191.19 756.628  14
  -3  -8  -5 1294.48 331.359  12
  -3  -8  -5 1771.01 380.354   1
  -3  -8  -5 2018.94 453.527  14
   3  -8   5 1751.03 374.377   1
  -3  -8  -6 32182.3 1686.78  14
   3  -8   6 32535.2 1550.29   1
  -3  -8  -6 32037.8 1486.86  12
  -3  -8  -7 8504.87 891.104  14
   3  -8   7 9213.16 823.681   1
  -3  -8  -7 8270.33 740.392  12
   3  -8   8 743.465 373.495   1
  -3  -8  -8 1219.59 346.708  12
  -3  -8  -8 877.671 374.671  14
  -3  -8  -9 8383.84 883.783  14
   3  -8   9 7891.73 826.929   1
   3  -8  10 4117.01 636.235   1
  -3  -8 -10 5618.81 745.935  14
   3  -8  11 4740.57 674.831   1
   3  -8  12 1993.29 487.853   1
  -3  -7  16 1469.84 447.962   1
  -3  -7  15 20352.1 1441.84  13
  -3  -7  15 20562.7 1302.58   1
   3  -7 -15 20222.5 1382.55  12
   3  -7 -14 3325.08 569.844  12
  -3  -7  14 2745.35 492.008   1
  -3  -7  14 4723.10 703.235  13
   3  -7 -13 2798.99 507.996  12
  -3  -7  13 3834.62 572.949   1
  -3  -7  13 2446.27 531.694  13
   3  -7 -12 456.825 288.971  12
  -3  -7  12 1653.83 393.155   1
  -3  -7  12 1422.75 438.430  13
   3  -7 -11 1051.31 315.777  12
  -3  -7  11 815.463 363.125  13
  -3  -7  11 1858.81 396.379   1
   3  -7 -10 2905.35 482.576  12
  -3  -7  10 3452.27 471.267   1
  -3  -7  10 2691.42 471.346  13
  -3  -7   9 11550.3 834.711   1
  -3  -7   9 11328.7 846.461  13
   3  -7  -9 11460.5 904.647  12
  -3  -7   8 955.581 292.856   1
   3  -7  -8 1070.94 320.356  12
  -3  -7   8 144.142 242.178  13
  -3  -7   7 6921.78 604.557   1
  -3  -7   7 7674.09 665.187  13
   3  -7  -7 7962.68 737.385  12
   3  -7  -6 312.842 215.273  12
  -3  -7   6 494.258 238.524  13
  -3  -7   6 462.213 198.823   1
   3  -7  -5 17082.4 988.753   1
  -3  -7   5 17011.1 885.587   1
   3  -7  -5 15118.0 924.258   2
  -3  -7   5 14511.4 848.395  13
   3  -7  -5 17427.1 1032.05  12
   3  -7  -4 41524.1 1623.97   1
  -3  -7   4 35695.6 1555.65  10
  -3  -7   4 40085.3 1412.00   1
  -3  -7   4 33134.7 1586.45  14
  -3  -7   4 35821.1 1354.40  13
   3  -7  -4 36653.5 1475.55   2
   3  -7  -4 38225.5 1405.56   6
   3  -7  -3 53921.6 1860.33   1
  -3  -7   3 45709.9 1773.66  10
  -3  -7   3 48181.9 1593.01   1
  -3  -7   3 44711.7 1867.79  14
  -3  -7   3 44429.3 1495.57  13
   3  -7  -3 49585.1 1659.99   6
   3  -7  -3 45510.1 1652.50   2
  -3  -7   2 6824.21 646.766  10
   3  -7  -2 6868.59 643.116   1
  -3  -7   2 6944.60 541.187   1
  -3  -7   2 7425.75 700.632  14
   3  -7  -2 7721.85 608.235   6
   3  -7  -2 6634.05 563.751   2
  -3  -7   1 12090.0 832.579  10
   3  -7  -1 12186.3 824.929   1
  -3  -7   1 11070.4 692.898   1
  -3  -7   1 11887.1 902.661  14
   3  -7  -1 13287.4 819.721   6
   3  -7  -1 11059.6 704.366   2
  -3  -7   0 10771.9 794.284  10
  -3  -7   0 10309.5 672.128   1
   3  -7   0 11027.6 767.227   1
  -3  -7   0 10008.6 825.127  14
   3  -7   0 11239.8 762.239   6
   3  -7   0 8321.00 595.406   2
  -3  -7  -1 4958.72 488.752   1
   3  -7   1 4959.25 532.448   1
   3  -7   1 4844.56 532.188   6
  -3  -7  -1 4776.27 573.255  14
   3  -7   1 3744.99 391.213   2
  -3  -7  -2 3201.29 421.970   1
  -3  -7  -2 3556.37 546.112  14
   3  -7   2 3127.66 431.950   1
   3  -7   2 2864.30 331.659   2
  -3  -7  -3 14334.5 854.440   1
   3  -7   3 13716.2 892.984   1
  -3  -7  -3 14060.4 1016.63  14
  -3  -7  -4 19491.1 1020.70   1
   3  -7   4 18487.6 1058.20   1
  -3  -7  -4 19501.6 1211.42  14
  -3  -7  -4 20650.3 1061.64  12
  -3  -7  -5 3301.77 444.378  12
  -3  -7  -5 3592.73 556.502  14
   3  -7   5 3599.25 491.735   1
  -3  -7  -6 10973.2 934.391  14
   3  -7   6 10071.2 809.695   1
  -3  -7  -6 10929.0 782.909  12
  -3  -7  -7 3807.16 482.530  12
  -3  -7  -7 4504.78 615.861  14
   3  -7   7 3340.73 529.447   1
  -3  -7  -8 786.145 242.279  12
   3  -7   8 620.073 341.356   1
  -3  -7  -8 446.640 280.612  14
  -3  -7  -9 2015.09 406.812  12
   3  -7   9 2288.55 463.198   1
  -3  -7  -9 1897.79 480.638  14
  -3  -7 -10 834.506 321.307  12
   3  -7  10 1241.08 410.860   1
  -3  -7 -10 815.596 323.989  14
   3  -7  11 468.944 365.442   1
  -3  -7 -11 1002.61 346.604  14
   3  -7  12 2708.43 542.806   1
  -3  -7 -12 3032.43 582.866  14
   3  -7  13 805.126 400.218   1
   3  -6 -16 5759.30 721.916  12
   3  -6 -16 6088.53 789.574   2
  -3  -6  16 7376.48 921.579  13
  -3  -6  16 5849.36 715.097   1
   3  -6 -15 702.202 320.348  12
   3  -6 -15 1595.78 439.887   2
  -3  -6  15 715.180 344.545  13
  -3  -6  15 1353.37 404.968   1
  -3  -6  14 9584.72 951.458  13
  -3  -6  14 8858.67 788.832   1
   3  -6 -14 9730.53 904.716  12
   3  -6 -13 841.953 331.988  12
  -3  -6  13 1458.52 415.354   1
  -3  -6  13 1345.89 439.271  13
   3  -6 -12 5193.55 621.607  12
  -3  -6  12 5615.03 605.669   1
  -3  -6  12 4494.07 631.108  13
   3  -6 -11 3796.07 513.520  12
  -3  -6  11 4353.39 531.293   1
  -3  -6  11 3759.53 568.050  13
   3  -6 -10 1806.84 387.133  12
  -3  -6  10 2226.43 367.332   1
  -3  -6  10 1671.21 347.367  13
  -3  -6   9 8450.58 662.894   1
  -3  -6   9 8877.35 760.523  13
   3  -6  -9 8789.74 751.683  12
  -3  -6   8 11818.5 762.943   1
  -3  -6   8 10992.3 817.531  13
   3  -6  -8 13315.3 889.056  12
  -3  -6   7 11341.9 710.860   1
  -3  -6   7 11054.9 772.875  13
   3  -6  -7 11971.1 820.746  12
  -3  -6   6 19027.4 904.789   1
   3  -6  -6 18615.2 1023.08   2
  -3  -6   6 18380.7 982.905  13
   3  -6  -6 19200.2 1043.31  12
  -3  -6   5 6794.46 506.432   1
  -3  -6   5 6919.27 561.420  13
   3  -6  -5 6820.95 594.795   2
   3  -6  -5 6042.53 577.673  12
   3  -6  -4 10833.3 719.368   1
  -3  -6   4 9542.22 725.953  10
  -3  -6   4 9617.57 599.225   1
  -3  -6   4 8764.62 603.658  13
   3  -6  -4 10199.7 653.732   6
   3  -6  -4 10578.0 713.153   2
   3  -6  -3 29418.4 913.078  10
   3  -6  -3 30757.8 1271.75   1
  -3  -6   3 29198.8 1286.66  10
  -3  -6   3 28028.1 1084.81   1
  -3  -6   3 26607.1 1321.72  14
   3  -6  -3 29780.9 1200.91   6
  -3  -6   3 27687.6 1069.27  13
   3  -6  -3 28229.6 1192.32   2
   3  -6  -2-86.5204 215.057   1
  -3  -6   2-27.9611 237.827  10
  -3  -6   2-105.745 159.781   1
  -3  -6   2 282.008 264.291  14
   3  -6  -2 244.611 173.720   6
  -3  -6   2 141.673 155.218  13
   3  -6  -2 62.4210 166.357   2
  -3  -6   1 5184.72 584.875  14
  -3  -6   1 5604.36 541.392  10
   3  -6  -1 5379.37 533.301   1
  -3  -6   1 5386.26 443.272   1
   3  -6  -1 5369.02 504.376   6
  -3  -6   1 5728.89 394.570  13
   3  -6  -1 4846.14 434.967   2
  -3  -6   0 8873.19 683.534  10
  -3  -6   0 9290.26 592.969   1
   3  -6   0 10049.6 692.712   1
  -3  -6   0 10221.8 813.068  14
   3  -6   0 9562.02 691.683   6
   3  -6   0 8275.96 571.063   2
  -3  -6  -1 2483.71 317.705   1
   3  -6   1 3451.13 423.514   1
  -3  -6  -1 2746.29 442.502  14
   3  -6   1 3424.26 448.861   6
   3  -6   1 3138.02 332.347   2
  -3  -6  -2 11562.8 695.097   1
   3  -6   2 12594.7 755.236   1
  -3  -6  -2 11373.4 850.953  14
   3  -6   2 9203.96 557.527   2
   3  -6   3 2075.36 266.885   2
  -3  -6  -3 2724.71 367.443  12
  -3  -6  -3 2733.83 351.112   1
  -3  -6  -3 2975.40 457.698  14
   3  -6   3 2843.25 403.616   1
  -3  -6  -4 40.9969 153.093  12
  -3  -6  -4-178.691 211.985  14
  -3  -6  -5 4955.96 596.098  14
   3  -6   5 4712.88 520.319   1
  -3  -6  -5 4665.12 478.976  12
  -3  -6  -6 3733.11 445.659  12
  -3  -6  -6 2731.16 458.074  14
   3  -6   6 3809.76 487.426   1
   3  -6   7 703.049 302.781   1
  -3  -6  -7 751.643 245.394  12
  -3  -6  -7 910.619 338.707  14
   3  -6   8 4324.75 535.740   1
  -3  -6  -8 4604.49 603.809  14
  -3  -6  -8 4455.59 511.073  12
  -3  -6  -9 166.792 217.987  12
   3  -6   9 871.208 315.499   1
  -3  -6  -9 838.420 382.065  14
  -3  -6 -10 6418.70 732.858  14
   3  -6  10 6844.84 711.057   1
  -3  -6 -10 6020.00 619.958  12
  -3  -6 -11 4637.55 567.108  12
   3  -6  11 5414.69 660.863   1
  -3  -6 -11 4778.38 674.273  14
  -3  -6 -12 6568.91 766.126  14
   3  -6  12 5546.33 708.459   1
  -3  -6 -13 521.553 306.442  14
   3  -6  13-106.872 298.316   1
   3  -6  14 771.114 398.404   1
   3  -5 -17 1561.38 450.874  12
  -3  -5  17 1253.03 432.254   1
   3  -5 -17 1241.27 436.443   2
  -3  -5  16 10271.0 1050.05  13
   3  -5 -16 10504.8 918.864   2
  -3  -5  16 10763.6 945.216   1
   3  -5 -16 9554.31 926.955  12
   3  -5 -15 4274.55 613.767  12
  -3  -5  15 4387.25 698.463  13
   3  -5 -15 4661.59 638.686   2
  -3  -5  15 4275.09 579.057   1
   3  -5 -14 3775.03 553.499  12
   3  -5 -14 3755.16 559.322   2
  -3  -5  14 4893.99 679.411  13
  -3  -5  14 4214.35 562.440   1
   3  -5 -13 802.559 305.109  12
   3  -5 -13 1258.72 355.766   2
  -3  -5  13 839.909 387.032  13
  -3  -5  13 2065.20 404.513   1
   3  -5 -12 6438.43 697.848   2
  -3  -5  12 5559.99 581.144   1
  -3  -5  12 5558.82 642.079  13
   3  -5 -12 5743.66 631.360  12
   3  -5 -11-4.75493 210.697  12
  -3  -5  11 520.596 245.822   1
   3  -5 -11 292.545 227.790   2
  -3  -5  11 403.304 293.020  13
   3  -5 -10 677.250 257.155  12
  -3  -5  10 950.032 296.610   1
   3  -5 -10 559.614 276.042   2
  -3  -5  10 460.649 278.678  13
  -3  -5   9 9458.72 648.114   1
   3  -5  -9 8226.62 709.464   2
  -3  -5   9 8721.76 733.468  13
   3  -5  -9 7875.15 682.241  12
   3  -5  -8 8046.57 490.099   7
  -3  -5   8 8120.69 577.145   1
   3  -5  -8 8058.45 660.550   2
  -3  -5   8 7530.85 627.324  13
   3  -5  -8 7110.66 612.365  12
   3  -5  -7 19021.8 751.455   7
   3  -5  -7 19391.5 1030.30   2
  -3  -5   7 19432.1 1028.24  13
  -3  -5   7 19735.2 882.877   1
   3  -5  -7 18720.1 996.731  12
  -3  -5   6 2063.02 282.090   1
   3  -5  -6 2000.72 314.811  12
   3  -5  -6 2382.47 246.987   7
  -3  -5   6 2657.35 388.488  13
   3  -5  -6 2620.34 391.439   2
   3  -5  -5 97001.1 2253.62   7
  -3  -5   5 108468. 2539.06   1
  -3  -5   5 99462.3 2673.12  13
   3  -5  -5 107532. 2814.88   2
   3  -5  -5 108216. 2793.78  12
  -3  -5   4 32357.4 1299.01  10
   3  -5  -4 29118.1 847.221   7
  -3  -5   4 31749.2 1071.28   1
   3  -5  -4 33335.8 1246.93   6
  -3  -5   4 30954.9 1158.72  13
   3  -5  -4 32381.5 1270.66   2
   3  -5  -4 33077.3 1280.47  12
   3  -5  -3 51265.2 1673.91   1
  -3  -5   3 51424.6 1702.57  10
  -3  -5   3 52302.2 1475.02   1
   3  -5  -3 49249.3 1653.74   6
  -3  -5   3 51177.0 1533.32  13
   3  -5  -3 52612.1 1684.46   2
  -3  -5   2 27180.7 953.058   1
  -3  -5   2 28108.7 1180.06  10
   3  -5  -2 26408.4 732.748  10
   3  -5  -2 28944.2 1111.93   1
  -3  -5   2 25843.2 1257.98  14
   3  -5  -2 28201.1 1149.06   6
  -3  -5   2 26590.3 969.180  13
   3  -5  -2 28902.2 1118.26   2
  -3  -5   1 5300.34 477.815  10
   3  -5  -1 6076.37 469.074   1
  -3  -5   1 5568.12 393.805   1
  -3  -5   1 5361.55 569.148  14
   3  -5  -1 6256.17 532.683   6
  -3  -5   1 5870.97 379.751  13
   3  -5  -1 6286.07 479.555   2
  -3  -5   0 999.408 253.551  10
  -3  -5   0 1235.12 224.246   1
   3  -5   0 1195.92 236.654   1
  -3  -5   0 1058.77 290.132  14
   3  -5   0 1076.85 287.620   6
  -3  -5   0 1125.19 153.163  13
   3  -5   0 1193.28 239.456   2
   3  -5   1 8221.68 578.860   1
  -3  -5  -1 6837.98 488.907   1
  -3  -5  -1 7970.09 690.181  14
   3  -5   1 7651.05 606.854   6
  -3  -5  -1 7860.30 374.285  13
   3  -5   1 7083.40 492.349   2
  -3  -5  -2 10459.3 632.805   1
   3  -5   2 13886.9 729.464   1
  -3  -5  -2 13032.8 863.570  14
   3  -5   2 10286.8 585.568   2
  -3  -5  -3 868.613 265.161  14
   3  -5   3 1108.21 199.977   2
  -3  -5  -3 1145.08 223.862  12
   3  -5   3 1054.65 268.446   1
  -3  -5  -4 4434.16 531.327  14
   3  -5   4 3576.32 404.661   1
  -3  -5  -4 4679.49 426.697  12
  -3  -5  -5 5129.63 566.002  14
   3  -5   5 5133.10 473.763   1
  -3  -5  -5 4806.91 455.992  12
   3  -5   6 1948.25 367.451   1
  -3  -5  -6 1383.39 274.147  12
  -3  -5  -6 1921.54 414.208  14
  -3  -5  -7 6147.29 664.360  14
   3  -5   7 5707.36 577.262   1
  -3  -5  -7 6780.29 567.864  12
  -3  -5  -8 7121.50 714.218  14
   3  -5   8 7583.35 662.506   1
  -3  -5  -8 8420.19 647.437  12
   3  -5   9 4354.45 550.292   1
  -3  -5  -9 5050.19 613.618  14
  -3  -5  -9 4496.38 507.751  12
  -3  -5 -10 4062.46 497.344  12
   3  -5  10 4886.93 591.053   1
  -3  -5 -10 4088.24 583.926  14
  -3  -5 -11 1280.90 324.354  12
   3  -5  11 1340.42 376.990   1
  -3  -5 -11 1053.09 363.701  14
  -3  -5 -12 1002.06 312.387  12
  -3  -5 -12 1107.47 341.754  14
   3  -5  12 1242.42 423.882   1
  -3  -5 -13 3078.01 497.662  12
  -3  -5 -13 3446.04 572.299  14
   3  -5  13 3183.27 531.848   1
  -3  -5 -14 2897.63 550.064  14
   3  -5  14 1577.63 446.417   1
   3  -5  15 1451.57 499.386   1
   3  -4 -18 104.017 241.520  12
  -3  -4  18 73.6843 326.818   1
   3  -4 -18-92.7889 258.533   2
   3  -4 -17 2428.42 497.286  12
  -3  -4  17 2665.93 509.618   1
  -3  -4  17 3120.03 663.568  13
   3  -4 -17 2179.59 471.314   2
   3  -4 -16 4914.92 649.488  12
  -3  -4  16 4989.89 644.388   1
  -3  -4  16 5579.73 780.158  13
   3  -4 -16 4780.89 647.736   2
   3  -4 -15 441.774 264.194  12
  -3  -4  15 1137.05 386.957  13
   3  -4 -15 972.903 359.019   2
   3  -4 -14 264.403 220.281  12
  -3  -4  14 924.579 326.126   1
  -3  -4  14 759.012 422.437  13
   3  -4 -14 414.961 293.319   2
  -3  -4  13 29324.4 1562.06  13
   3  -4 -13 30508.9 1476.64   2
  -3  -4  13 28928.6 1342.71   1
   3  -4 -13 29051.6 1439.25  12
  -3  -4  12 10786.7 902.457  13
   3  -4 -12 10324.9 819.462   2
  -3  -4  12 9079.98 710.710   1
   3  -4 -12 8305.26 729.549  12
   3  -4 -11 2381.39 402.329  12
  -3  -4  11 2387.87 371.560   1
  -3  -4  11 2032.38 445.467  13
   3  -4 -11 2365.45 407.817   2
   3  -4 -10 30703.5 1372.20   2
  -3  -4  10 29146.8 1390.03  13
  -3  -4  10 29751.9 1199.34   1
   3  -4 -10 28993.6 1304.22  12
   3  -4  -9 2461.26 369.678  12
  -3  -4   9 1811.35 355.406  13
  -3  -4   9 2036.17 317.064   1
   3  -4  -9 2063.28 377.846   2
  -3  -4   8 42730.2 1420.06   1
   3  -4  -8 46386.8 1672.01   2
  -3  -4   8 44253.5 1649.15  13
   3  -4  -8 43448.6 1566.71  12
   3  -4  -7 31190.4 1060.79   7
  -3  -4   7 30516.3 1092.07   1
   3  -4  -7 31822.6 1322.36   2
  -3  -4   7 31928.6 1308.38  13
   3  -4  -7 30148.8 1218.46  12
   3  -4  -6 138203. 3111.42   7
  -3  -4   6 141326. 3180.25   1
  -3  -4   6 135726. 3434.93  13
   3  -4  -6 145704. 3538.67   2
   3  -4  -6 147264. 3442.63  12
   3  -4  -5 5157.85 354.082   7
  -3  -4   5 5594.52 376.133   1
  -3  -4   5 4909.75 471.705  13
   3  -4  -5 5017.05 493.948   2
   3  -4  -5 5209.87 450.187  12
   3  -4  -4 39848.1 1136.67   7
  -3  -4   4 41641.6 1178.42   1
  -3  -4   4 40506.6 1358.64  13
   3  -4  -4 40399.8 1431.13   2
   3  -4  -4 41927.3 1379.83  12
   3  -4  -3 2025.21 289.478   1
  -3  -4   3 1793.75 288.637  10
   3  -4  -3 2037.18 206.492   7
   3  -4  -3 1377.59 255.153   6
  -3  -4   3 1994.25 215.048   1
  -3  -4   3 2345.50 275.751  13
   3  -4  -3 1893.37 300.424   2
   3  -4  -2 20813.3 877.531   1
  -3  -4   2 20449.6 910.792  10
  -3  -4   2 19989.8 706.899   1
   3  -4  -2 20811.2 945.196   6
  -3  -4   2 20388.6 805.118  13
   3  -4  -2 20130.7 896.004   2
  -3  -4   1 17347.7 820.631  10
   3  -4  -1 16955.8 762.928   1
  -3  -4   1 15624.5 607.116   1
  -3  -4   1 16153.9 925.366  14
   3  -4  -1 15959.0 831.338   6
  -3  -4   1 16871.3 684.790  13
   3  -4  -1 15999.2 767.958   2
  -3  -4   0 453.770 141.249   1
   3  -4   0 244.377 147.109   1
  -3  -4   0 244.985 182.307  14
   3  -4   0 449.204 220.441   6
  -3  -4   0 422.566 141.709  13
   3  -4   0 987.395 219.146   2
  -3  -4  -1 9618.25 489.916   1
   3  -4   1 9998.33 596.285   1
  -3  -4  -1 10442.2 731.697  14
   3  -4   1 9775.54 657.808   6
  -3  -4  -1 10392.3 459.830  13
   3  -4   1 9184.39 555.294   2
   3  -4   2 9914.37 568.815   1
  -3  -4  -2 9327.22 697.771  14
   3  -4   2 10383.4 708.817   6
  -3  -4  -2 9756.26 421.675  13
   3  -4   2 9066.21 536.750   2
  -3  -4  -2 8805.89 502.371  12
  -3  -4  -3 1931.24 254.414  12
   3  -4   3 1346.89 228.507   2
  -3  -4  -3 1901.75 354.393  14
  -3  -4  -3 1572.88 163.853  13
   3  -4   3 1583.21 266.660   1
  -3  -4  -4 1300.18 225.000  12
  -3  -4  -4 1496.88 335.367  14
   3  -4   4 1833.51 285.067   1
  -3  -4  -5 13248.0 877.146  14
   3  -4   5 15653.2 783.348   1
  -3  -4  -5 14947.3 733.719  12
  -3  -4  -6 34825.4 1485.64  14
   3  -4   6 35273.3 1287.80   1
  -3  -4  -6 33441.8 1244.45  12
  -3  -4  -7 4846.72 539.282  14
   3  -4   7 5431.00 497.646   1
  -3  -4  -7 5926.94 490.502  12
  -3  -4  -8 1662.28 303.333  12
   3  -4   8 1973.37 358.442   1
  -3  -4  -8 2168.39 387.523  14
   3  -4   9 4109.26 500.790   1
  -3  -4  -9 4576.67 576.415  14
  -3  -4  -9 4509.69 478.564  12
  -3  -4 -10 20242.0 1208.46  14
   3  -4  10 19765.3 1064.87   1
  -3  -4 -10 20178.5 1079.27  12
  -3  -4 -11 1518.38 338.999  12
  -3  -4 -11 1609.60 378.616  14
   3  -4  11 1459.34 363.845   1
  -3  -4 -12 8656.59 821.982  14
   3  -4  12 7193.64 708.571   1
  -3  -4 -12 7137.42 689.460  12
  -3  -4 -13 5098.85 597.910  12
  -3  -4 -13 4517.25 628.949  14
   3  -4  13 3841.78 571.728   1
  -3  -4 -14 4625.89 597.544  12
   3  -4  14 4852.28 672.122   1
   3  -4  15 201.350 310.930   1
   3  -4  16 1000.01 407.072   1
   3  -3 -19 9654.51 900.044   2
   3  -3 -18 976.446 399.901  12
  -3  -3  18 1224.25 543.132  13
   3  -3 -18 1171.87 408.730   2
  -3  -3  18 1414.49 466.421   1
   3  -3 -17 2774.84 505.574  12
  -3  -3  17 3913.34 659.227  13
  -3  -3  17 3826.27 574.170   1
   3  -3 -17 3800.06 558.529   2
   3  -3 -16 1664.28 414.560  12
  -3  -3  16 907.572 371.740   1
  -3  -3  16 485.943 381.048  13
   3  -3 -16 897.828 348.432   2
   3  -3 -15 552.631 300.178  12
  -3  -3  15 764.546 314.052   1
  -3  -3  15 156.171 305.248  13
   3  -3 -15 981.088 320.503   2
  -3  -3  14 8009.28 836.088  13
   3  -3 -14 8111.68 738.162   2
  -3  -3  14 6869.23 658.794   1
   3  -3 -14 7922.87 727.196  12
  -3  -3  13 19430.6 1231.84  13
   3  -3 -13 18269.5 1106.84   2
  -3  -3  13 16288.2 969.349   1
   3  -3 -13 15813.8 1000.10  12
  -3  -3  12 12124.0 921.636  13
   3  -3 -12 12219.9 853.963   2
  -3  -3  12 10545.4 733.764   1
   3  -3 -12 11257.2 801.278  12
  -3  -3  11 22326.6 1214.76  13
   3  -3 -11 23390.0 1168.30   2
  -3  -3  11 19578.4 981.074   1
   3  -3 -11 21580.9 1091.45  12
   3  -3 -10 2380.45 354.342  12
  -3  -3  10 1743.89 371.749  13
   3  -3 -10 2468.92 387.658   2
  -3  -3  10 2124.04 299.413   1
  -3  -3   9 9720.70 742.413  13
   3  -3  -9 11321.6 755.441   2
  -3  -3   9 10051.9 613.087   1
   3  -3  -9 10551.6 686.372  12
  -3  -3   8 7180.19 615.506  13
   3  -3  -8 7394.55 617.698   2
  -3  -3   8 7284.82 488.983   1
   3  -3  -8 7790.62 563.825  12
   3  -3  -7 31878.6 1114.99   7
  -3  -3   7 31298.5 1274.43  13
   3  -3  -7 33336.0 1322.64   2
  -3  -3   7 31463.2 1047.04   1
   3  -3  -7 32539.2 1198.69  12
   3  -3  -6 23505.4 892.174   7
  -3  -3   6 21832.6 804.805   1
  -3  -3   6 23588.0 1035.05  13
   3  -3  -6 23870.7 1053.66   2
   3  -3  -6 24421.7 959.099  12
   3  -3  -5 71020.1 1830.93   7
  -3  -3   5 70891.5 1721.10   1
  -3  -3   5 71846.4 2029.98  13
   3  -3  -5 74952.9 2094.45   2
   3  -3  -5 72610.8 1931.00  12
   3  -3  -4 2299.97 265.665  12
  -3  -3   4 2413.48 202.696   1
   3  -3  -4 2162.90 236.689   7
  -3  -3   4 1792.13 255.560  13
   3  -3  -4 2303.96 330.299   2
  -3  -3   3 8507.89 533.021  10
   3  -3  -3 8555.20 449.995   7
  -3  -3   3 8658.49 367.316   1
  -3  -3   3 8187.34 510.542  13
   3  -3  -3 8526.41 553.629   2
   3  -3  -3 8413.88 490.135  12
   3  -3  -2 14726.0 655.555   1
  -3  -3   2 15973.5 733.503  10
   3  -3  -2 16814.8 643.221   7
  -3  -3   2 16099.2 515.049   1
   3  -3  -2 16298.5 818.614   6
  -3  -3   2 15280.7 708.124  13
   3  -3  -2 16258.6 514.250   5
   3  -3  -2 15337.3 750.343   2
  -3  -3   1 5187.84 408.675  10
   3  -3  -1 4476.93 358.454   1
  -3  -3   1 4966.27 253.606   1
  -3  -3   1 4787.57 472.137  14
   3  -3  -1 5834.61 495.890   6
  -3  -3   1 5371.32 371.342  13
   3  -3  -1 4972.69 256.327   5
   3  -3  -1 5559.70 426.373   2
  -3  -3   0 11004.7 415.256   1
   3  -3   0 11040.3 548.688   1
   3  -3   0 11704.0 691.753   6
  -3  -3   0 10884.6 532.495  13
  -3  -3   0 12288.9 735.945  14
   3  -3   0 11649.3 612.550   2
   3  -3   0 11029.6 425.867   5
  -3  -3  -1 19779.2 640.045   1
   3  -3   1 21002.5 782.779   1
  -3  -3  -1 21983.6 1019.22  14
   3  -3   1 21995.4 990.361   6
  -3  -3  -1 20604.4 742.136  13
   3  -3   1 19425.0 828.439   2
  -3  -3  -1 21337.6 625.920   1
   3  -3   2 4829.37 351.710   1
  -3  -3  -2 4605.84 456.898  14
   3  -3   2 6008.72 531.158   6
  -3  -3  -2 5272.25 337.571  13
   3  -3   2 4444.25 378.171   2
  -3  -3  -2 4621.93 316.928  12
   3  -3   3 3546.36 315.103   1
  -3  -3  -3 3479.15 422.579  14
   3  -3   3 3368.98 427.199   6
  -3  -3  -3 3073.19 276.299  12
  -3  -3  -4 1231.62 201.816  12
   3  -3   4 1028.27 196.979   1
  -3  -3  -4 1230.22 261.751  14
  -3  -3  -5 7189.37 601.080  14
   3  -3   5 7192.20 481.793   1
  -3  -3  -5 6524.13 456.707  12
  -3  -3  -6 2605.33 291.962  12
   3  -3   6 2349.31 287.709   1
   3  -3   6 2258.37 342.849   8
  -3  -3  -6 1474.20 305.971  14
   3  -3   7 55555.5 1806.41   8
  -3  -3  -7 54024.3 1896.11  14
   3  -3   7 54525.2 1678.38   1
  -3  -3  -7 54783.2 1685.58  12
  -3  -3  -8 1262.57 264.985  12
   3  -3   8 1963.73 327.570   8
   3  -3   8 1376.59 294.687   1
  -3  -3  -8 1251.77 291.482  14
   3  -3   9 33344.2 1329.51   4
   3  -3   9 32218.9 1328.13   8
  -3  -3  -9 33263.2 1467.91  14
   3  -3   9 28666.0 1245.74   1
  -3  -3  -9 31973.1 1299.00  12
  -3  -3 -10 3201.22 408.163  12
   3  -3  10 4226.18 450.867   4
  -3  -3 -10 4635.13 567.884  14
   3  -3  10 3760.75 480.446   1
   3  -3  10 4593.62 476.375   8
  -3  -3 -11 1371.99 308.042  12
   3  -3  11 1232.46 283.631   8
  -3  -3 -11 1304.42 326.187  14
   3  -3  11 1138.46 324.722   1
   3  -3  12 6483.88 597.725   8
  -3  -3 -12 8610.67 788.331  14
   3  -3  12 7653.97 713.587   1
  -3  -3 -12 7280.57 671.730  12
  -3  -3 -13 2525.13 440.713  12
   3  -3  13 3151.33 505.640   1
  -3  -3 -14 1163.13 370.965  12
   3  -3  14 1196.70 386.209   1
  -3  -3 -15 1260.42 357.240  12
   3  -3  15 1984.29 449.054   1
   3  -3  16 8607.19 859.340   1
   3  -2 -19 4259.71 667.034  12
   3  -2 -19 3882.95 580.002   2
   3  -2 -18 662.412 299.471  12
  -3  -2  18 1596.40 438.469   1
  -3  -2  18 509.843 400.985  13
   3  -2 -18 670.283 335.704   2
  -3  -2  17 8199.18 919.580  13
   3  -2 -17 8288.25 773.855   2
   3  -2 -17 8016.20 820.117  12
  -3  -2  17 7908.00 788.751   1
   3  -2 -16 4653.85 628.492  12
  -3  -2  16 5452.45 633.226   1
   3  -2 -16 6172.87 660.158   2
  -3  -2  16 5447.82 740.533  13
  -3  -2  15 17197.6 1213.77  13
   3  -2 -15 17390.6 1090.92   2
   3  -2 -15 15237.1 1033.45  12
  -3  -2  15 15458.2 1013.65   1
   3  -2 -14 3417.98 486.902  12
  -3  -2  14 3144.20 482.261   1
  -3  -2  14 2700.12 539.536  13
   3  -2 -14 2685.13 484.087   2
   3  -2 -13 3801.40 481.239  12
  -3  -2  13 3697.51 501.173   1
  -3  -2  13 4832.83 616.253  13
   3  -2 -13 4605.93 549.836   2
   3  -2 -12 2697.54 398.499  12
  -3  -2  12 2154.73 359.521   1
  -3  -2  12 2283.59 452.799  13
   3  -2 -12 3670.95 473.986   2
   3  -2 -11 6693.43 434.133   4
  -3  -2  11 6750.80 667.413  13
   3  -2 -11 7553.26 628.764   2
  -3  -2  11 7212.52 566.636   1
   3  -2 -11 5635.34 531.584  12
   3  -2 -10 2473.00 342.798  12
  -3  -2  10 2643.14 345.698   1
   3  -2 -10 3177.52 306.440   4
  -3  -2  10 2757.85 425.287  13
   3  -2 -10 3064.05 430.710   2
   3  -2  -9-135.504 159.844  12
  -3  -2   9 251.959 166.125   1
  -3  -2   9 207.664 230.904  13
   3  -2  -9 516.850 160.181   4
   3  -2  -9 174.808 196.118   2
   3  -2  -8 2316.43 288.953  12
  -3  -2   8 2370.18 290.885   1
  -3  -2   8 3601.13 431.132  13
   3  -2  -8 3274.30 410.144   2
   3  -2  -7 30255.4 1047.01   7
  -3  -2   7 30579.4 1179.11  13
   3  -2  -7 29895.1 1157.37   2
  -3  -2   7 28328.0 890.332   1
   3  -2  -7 27617.7 981.757  12
   3  -2  -6 2447.57 271.353  12
   3  -2  -6 2193.18 284.281   7
  -3  -2   6 2301.54 330.146  13
   3  -2  -6 2200.82 321.090   2
  -3  -2   6 2228.61 223.042   1
   3  -2  -5 6921.53 456.007   7
  -3  -2   5 6863.22 513.904  13
   3  -2  -5 7522.69 547.995   2
  -3  -2   5 7617.37 366.350   1
   3  -2  -5 7130.69 427.125  12
   3  -2  -4 37553.2 1161.82   7
  -3  -2   4 37351.9 1249.88  13
   3  -2  -4 38251.4 1295.33   2
  -3  -2   4 35643.3 912.676   1
   3  -2  -4 35508.7 1081.90  12
   3  -2  -3 4407.31 337.825   7
  -3  -2   3 3878.79 355.105  13
  -3  -2   3 4880.54 201.609   1
   3  -2  -3 4699.38 405.106   2
   3  -2  -3 4093.88 286.631  12
   3  -2  -2 8618.44 394.990   1
  -3  -2   2 8892.43 484.787  10
   3  -2  -2 8066.46 567.291   6
   3  -2  -2 8406.15 466.976   7
  -3  -2   2 8217.22 489.439  13
  -3  -2   2 8453.68 248.849   1
   3  -2  -2 8732.88 542.780   2
  -3  -2   1 18047.4 707.164  10
   3  -2  -1 17760.0 590.086   1
   3  -2  -1 18538.0 716.220   7
   3  -2  -1 17580.6 846.356   6
  -3  -2   1 16678.3 739.626  13
   3  -2  -1 16491.7 769.774   2
   3  -2   0 7974.00 351.775   1
  -3  -2   0 7883.64 545.693  14
   3  -2   0 7991.30 567.653   6
  -3  -2   0 7658.60 449.684  13
   3  -2   0 7982.37 493.051   2
  -3  -2  -1 7782.80 544.134  14
   3  -2   1 7609.77 549.081   6
  -3  -2  -1 7415.79 232.008   1
   3  -2   1 7933.60 491.697   2
   3  -2   1 6039.29 266.383   5
   3  -2   1 6764.69 343.536   1
  -3  -2  -2 948.313 125.345  12
   3  -2   2 1039.19 142.364   5
   3  -2   2 1849.00 303.299   8
  -3  -2  -2 1243.77 238.904  14
  -3  -2  -2 1301.15 121.648   1
   3  -2   2 953.826 243.068   6
   3  -2   2 1313.99 166.612   1
   3  -2   3 13145.9 730.214   8
  -3  -2  -3 11139.9 676.176  14
   3  -2   3 12018.4 526.245   1
   3  -2   3 12269.4 737.586   6
  -3  -2  -3 12356.7 495.889  12
   3  -2   4 28283.5 1133.33   8
  -3  -2  -4 27483.1 1131.42  14
   3  -2   4 27245.3 899.001   1
   3  -2   4 28217.0 1195.18   6
  -3  -2  -4 26956.2 878.383  12
  -3  -2  -5 9527.24 641.641  14
   3  -2   5 10011.5 658.270   8
   3  -2   5 9039.65 660.696   6
   3  -2   5 9327.03 493.176   1
  -3  -2  -5 9072.51 497.812  12
   3  -2   6 20589.9 969.727   8
   3  -2   6 21561.2 970.941   4
  -3  -2  -6 20054.1 986.523  14
   3  -2   6 19132.5 788.837   1
  -3  -2  -6 20103.8 821.937  12
   3  -2   7 25088.9 1102.38   8
   3  -2   7 25395.3 1068.13   4
  -3  -2  -7 25066.6 1135.66  14
   3  -2   7 22501.8 940.196   1
  -3  -2  -7 22864.0 953.676  12
   3  -2   8 5544.41 492.129   4
   3  -2   8 4988.77 489.618   8
  -3  -2  -8 5170.87 522.996  14
   3  -2   8 4652.39 432.721   1
  -3  -2  -8 5393.61 456.874  12
  -3  -2  -9 3146.65 392.151  12
   3  -2   9 2411.71 367.137   8
   3  -2   9 1966.75 304.124   4
  -3  -2  -9 2509.11 394.387  14
   3  -2   9 2092.05 335.966   1
  -3  -2 -10 1868.37 331.052  12
   3  -2  10 1819.10 318.341   1
   3  -2  10 1532.09 327.919   8
   3  -2  10 1936.23 327.955   4
  -3  -2 -10 1547.83 336.768  14
  -3  -2 -11 3495.47 450.167  12
   3  -2  11 3623.09 453.093   1
   3  -2  11 4308.45 440.241   4
   3  -2  11 3927.48 478.559   8
  -3  -2 -11 4177.37 523.408  14
  -3  -2 -12 1130.50 275.041  12
   3  -2  12 906.713 268.186   8
   3  -2  12 1257.65 338.510   1
  -3  -2 -12 842.285 294.531  14
  -3  -2 -13-9.75970 197.514  12
   3  -2  13 587.545 243.857   8
   3  -2  13 632.400 281.255   1
  -3  -2 -14 1637.58 397.061  12
   3  -2  14 2118.48 450.923   1
  -3  -2 -15 1771.57 395.070  12
   3  -2  15 2529.34 468.152   1
  -3  -2 -16 4728.82 646.256  12
   3  -2  16 5222.86 671.810   1
   3  -1 -19 4073.17 646.373  12
  -3  -1  19 4540.17 682.205   1
  -3  -1  18 1612.83 516.033  13
  -3  -1  18 1611.86 465.823   1
   3  -1 -18 1608.69 383.532   2
   3  -1 -18 1777.39 470.328  12
  -3  -1  17 22031.6 1463.04  13
   3  -1 -17 21304.9 1236.98   2
   3  -1 -17 20902.3 1307.97  12
  -3  -1  17 23430.5 1345.36   1
  -3  -1  16 2226.35 448.502   1
  -3  -1  16 2511.41 541.885  13
   3  -1 -16 2667.96 445.323   2
   3  -1 -16 2470.92 451.331  12
  -3  -1  15 9679.93 911.298  13
   3  -1 -15 11221.1 838.384   2
   3  -1 -15 8506.68 762.603  12
  -3  -1  15 10801.4 846.218   1
  -3  -1  14 1263.24 334.190   1
  -3  -1  14 776.875 385.170  13
   3  -1 -14 263.715 236.357   2
   3  -1 -14 674.000 256.563  12
  -3  -1  13 8290.53 778.265  13
   3  -1 -13 10130.9 748.617   2
   3  -1 -13 8419.81 688.208  12
  -3  -1  13 8291.61 676.462   1
  -3  -1  12 2011.12 367.023   1
  -3  -1  12 2704.29 457.511  13
   3  -1 -12 2308.05 380.312   2
   3  -1 -12 1803.54 322.047  12
   3  -1 -11 12381.0 575.488   4
  -3  -1  11 13377.4 901.506  13
   3  -1 -11 13106.6 826.411   2
   3  -1 -11 12272.1 771.818  12
  -3  -1  11 13055.2 754.589   1
   3  -1 -10 7102.84 443.537   4
  -3  -1  10 7708.07 662.041  13
   3  -1 -10 8637.06 639.677   2
   3  -1 -10 7324.49 556.982  12
  -3  -1  10 7874.70 560.576   1
   3  -1  -9 35561.6 1149.46   4
  -3  -1   9 36745.1 1461.36  13
   3  -1  -9 35534.8 1372.31   2
   3  -1  -9 35047.6 1260.69  12
  -3  -1   9 35480.5 1213.83   1
   3  -1  -8 5024.04 391.968   4
   3  -1  -8 5692.22 490.062   7
   3  -1  -8 5804.06 508.613   2
  -3  -1   8 4842.94 481.809  13
   3  -1  -8 5369.51 413.518  12
  -3  -1   8 4729.66 390.031   1
   3  -1  -7 2165.65 258.188  12
   3  -1  -7 2466.65 286.958   4
   3  -1  -7 2126.64 307.788   7
  -3  -1   7 1417.30 121.005  16
  -3  -1   7 1998.98 319.699  13
  -3  -1   7 1802.55 238.956   1
   3  -1  -7 2372.22 345.674   2
  -3  -1   6 14146.2 504.589  16
   3  -1  -6 16341.2 733.900   4
   3  -1  -6 16491.6 767.172   7
  -3  -1   6 16876.2 831.846  13
   3  -1  -6 16207.3 804.537   2
   3  -1  -6 15593.2 645.770  12
  -3  -1   6 15451.5 603.518   1
   3  -1  -5 12440.8 469.468  11
   3  -1  -5 13489.7 669.357   4
   3  -1  -5 13175.9 657.401   7
  -3  -1   5 12947.5 701.763  13
   3  -1  -5 12669.7 691.612   2
  -3  -1   5 11421.4 484.562  16
   3  -1  -5 12823.8 536.251  12
  -3  -1   5 12729.7 483.783   1
   3  -1  -4 525.593 109.757  12
   3  -1  -4 491.409 95.0767  11
  -3  -1   4 622.280 111.157   5
   3  -1  -4 442.634 89.1179  10
   3  -1  -4 438.237 203.430   4
   3  -1  -4 311.000 156.108   7
  -3  -1   4 610.604 100.680   1
  -3  -1   4 333.475 147.527  13
   3  -1  -4 267.328 160.818   2
   3  -1  -3 67522.4 1860.03   4
   3  -1  -3 72095.1 1809.79   7
  -3  -1   3 65279.2 1827.36  13
   3  -1  -3 69432.4 1865.91   2
  -3  -1   3 61626.2 1427.83   5
   3  -1  -3 69095.8 1455.38   1
   3  -1  -3 65606.4 1472.07  12
  -3  -1   2 93622.5 2070.48  11
   3  -1  -2 98991.1 2059.24   1
   3  -1  -2 112832. 2614.18   4
   3  -1  -2 115511. 2492.78   7
  -3  -1   2 107835. 2516.94  13
  -3  -1   2 100040. 2042.07   5
   3  -1  -2 110232. 2569.23   2
   3  -1  -2 104786. 2057.65   1
  -3  -1   1 96559.7 2045.34  10
   3  -1  -1 95235.2 2370.75   4
   3  -1  -1 93004.3 2390.04   6
  -3  -1   1 90246.4 1808.07   5
   3  -1  -1 100651. 2260.09   7
   3  -1  -1 96370.8 2313.75   2
  -3  -1   0 26661.0 802.700  10
   3  -1   0 27088.2 1030.92   8
   3  -1   0 27350.7 961.039   7
   3  -1   0 23783.1 606.162   1
   3  -1   0 27474.5 1045.34   4
  -3  -1   0 25965.1 995.074  14
   3  -1   0 27392.5 1067.71   6
   3  -1   0 27418.5 998.438   2
   3  -1   1 16802.7 790.875   8
   3  -1   1 17832.4 807.021   4
  -3  -1  -1 17004.4 745.169  14
   3  -1   1 16439.9 442.668   1
   3  -1   1 17792.3 834.867   6
   3  -1   2 8423.51 564.394   8
   3  -1   2 8988.46 569.290   4
  -3  -1  -2 6437.09 262.189   1
  -3  -1  -2 8380.76 519.217  14
   3  -1   2 8389.68 578.845   6
   3  -1   2 8186.78 333.169   1
  -3  -1  -2 6628.95 274.821  12
   3  -1   3 8850.06 584.308   4
  -3  -1  -3 7385.99 329.575   1
  -3  -1  -3 8735.79 543.667  14
   3  -1   3 9725.24 603.556   8
   3  -1   3 8414.76 601.680   6
   3  -1   3 8079.46 364.397   1
  -3  -1  -3 7748.67 348.650  12
   3  -1   4 1488.97 263.715   8
   3  -1   4 2070.11 316.108   4
  -3  -1  -4 1763.47 255.906  14
   3  -1   4 1815.72 326.600   6
   3  -1   4 2041.05 202.016   1
  -3  -1  -4 2137.44 208.096  12
   3  -1   5 42915.2 1474.83   8
   3  -1   5 41313.5 1424.19   4
  -3  -1  -5 42178.5 1411.35  14
   3  -1   5 42232.0 1513.70   6
   3  -1   5 41736.4 1182.03   1
  -3  -1  -5 39996.2 1193.67  12
   3  -1   6 50280.8 1586.13   4
   3  -1   6 49432.5 1622.73   8
  -3  -1  -6 47892.9 1566.78  14
   3  -1   6 45488.8 1580.91   3
   3  -1   6 49218.6 1687.74   6
   3  -1   6 47884.2 1372.10   1
  -3  -1  -6 45870.0 1388.96  12
   3  -1   7 14161.0 771.189   4
   3  -1   7 14285.5 796.057   8
  -3  -1  -7 12688.2 742.617  14
   3  -1   7 13419.1 763.746   3
   3  -1   7 14093.7 859.240   6
   3  -1   7 12191.4 635.143   1
  -3  -1  -7 12437.0 659.161  12
   3  -1   8 1585.04 277.369   1
   3  -1   8 1671.84 284.202   4
  -3  -1  -8 1826.11 314.068  14
   3  -1   8 1736.84 302.334   8
   3  -1   8 1974.37 318.326   3
  -3  -1  -8 2044.72 287.543  12
   3  -1   9 3305.55 390.130   4
   3  -1   9 3530.06 387.134   1
   3  -1   9 3619.95 433.496   8
  -3  -1  -9 3286.38 418.666  14
   3  -1   9 3289.73 400.746   3
  -3  -1  -9 3714.73 407.515  12
   3  -1  10 6686.28 540.215   4
   3  -1  10 8708.25 663.162   8
  -3  -1 -10 6813.96 598.112  14
   3  -1  10 5489.75 526.139   3
   3  -1  10 6426.79 537.330   1
  -3  -1 -10 6652.11 571.666  12
   3  -1  11 7277.13 562.290   4
   3  -1  11 7054.72 628.167   8
  -3  -1 -11 7098.93 628.782  14
   3  -1  11 6003.46 558.990   3
  -3  -1 -11 6718.07 610.510  12
   3  -1  11 6597.34 602.053   1
   3  -1  12 1574.67 313.122   3
   3  -1  12 2021.92 383.450   8
   3  -1  12 2129.33 399.380   1
  -3  -1 -12 1760.99 350.945  12
   3  -1  13 3605.82 481.709   8
   3  -1  13 2817.77 399.585   3
   3  -1  13 3755.07 553.515   1
  -3  -1 -13 3912.79 522.190  12
   3  -1  14 294.944 262.362   1
   3  -1  14 572.109 272.138   8
  -3  -1 -14 285.770 274.966  16
  -3  -1 -14 530.738 293.560  12
  -3  -1 -15 7182.46 768.625  16
   3  -1  15 6832.49 713.340   1
  -3  -1 -15 6048.06 686.360  12
  -3  -1 -16 6679.52 767.396  16
   3  -1  16 4146.96 627.646   5
   3  -1  16 7847.94 800.483   1
  -3  -1 -16 6069.81 711.160  12
  -3  -1 -17 7783.46 832.599  16
  -3   0  19 652.242 394.692   1
  -3   0  19 351.757 355.700  13
   3   0 -19 688.471 368.676  12
  -3   0  18 1619.02 463.847   1
  -3   0  18 2408.61 579.060  13
   3   0 -18 2461.21 512.862  12
  -3   0  17 1554.05 469.518  13
  -3   0  17 2048.09 479.295   1
   3   0 -17 2044.13 420.605   2
   3   0 -17 1224.07 385.507  12
  -3   0  16 19476.8 1179.48   1
  -3   0  16 22297.6 1386.32  13
   3   0 -16 21747.4 1169.89   2
   3   0 -16 18597.6 1189.25  12
  -3   0  15 2793.27 463.838   1
  -3   0  15 3202.16 580.249  13
   3   0 -15 2710.88 408.321   2
   3   0 -15 2877.62 471.369  12
  -3   0  14 32132.1 1437.83   1
  -3   0  14 34445.6 1644.35  13
   3   0 -14 33782.9 1426.29   2
   3   0 -14 30419.0 1438.00  12
  -3   0  13 2499.44 458.118  13
  -3   0  13 2834.09 435.885   1
   3   0 -13 2856.11 394.197   2
   3   0 -13 2728.31 406.615  12
  -3   0  12 23358.0 1132.65   1
  -3   0  12 25364.0 1311.81  13
   3   0 -12 26203.4 1178.40   2
   3   0 -12 24234.0 1151.32  12
  -3   0  11 240.090 229.393   1
   3   0 -11 221.574 190.272   2
   3   0 -11 612.796 201.242  12
  -3   0  10 7093.78 545.443   1
   3   0 -10 7175.14 440.600   4
  -3   0  10 7568.49 664.765  13
   3   0 -10 7031.60 557.254   2
   3   0 -10 7239.22 543.054  12
  -3   0   9 9695.69 587.499   1
   3   0  -9 9774.44 533.395   4
  -3   0   9 10300.1 732.972  13
   3   0  -9 10882.2 676.728   2
   3   0  -9 9898.33 598.463  12
  -3   0   8 63.2748 130.296   1
   3   0  -8 154.765 129.195   4
  -3   0   8 79.4792 33.8948  16
   3   0  -8 239.191 217.916   7
  -3   0   8 24.9599 193.604  13
   3   0  -8 72.5729 169.989   2
   3   0  -8-155.907 115.445  12
  -3   0   7-102.398 65.4117  16
   3   0  -7 177.195 140.509   4
   3   0  -7 44.5760 207.143   7
  -3   0   7 33.2406 116.975   1
  -3   0   7 434.853 246.498  13
   3   0  -7 26.5034 166.316   2
   3   0  -7 99.2614 104.891  12
   3   0  -6 27203.4 943.984   4
  -3   0   6 24565.2 705.387  16
   3   0  -6 26756.7 1012.11   7
  -3   0   6 24752.7 1021.00  13
   3   0  -6 26318.3 1011.77   2
   3   0  -6 25928.4 802.264  12
   3   0  -5 56010.6 1576.17   4
  -3   0   5 50607.1 1342.53  16
   3   0  -5 59375.5 1662.14   7
  -3   0   5 53273.1 1665.11  13
   3   0  -5 56969.6 1645.48   2
   3   0  -5 53481.6 1323.32  12
   3   0  -4 41537.1 1285.41   4
   3   0  -4 44619.7 1338.73   7
   3   0  -4 39206.2 918.255   1
  -3   0   4 39733.7 1342.18  13
   3   0  -4 40736.4 1318.84   2
   3   0  -4 39311.4 957.398  12
  -3   0   4 34489.3 900.431   5
  -3   0   4 39563.9 1111.87  16
   3   0  -3 163007. 3176.37   4
  -3   0   3 157586. 2983.21  16
   3   0  -3 170317. 3198.03   7
   3   0  -3 165511. 3211.74   2
   3   0  -2 2929.85 332.070   2
  -3   0   2 2823.02 202.145  11
   3   0  -2 2892.31 330.849   8
   3   0  -2 2711.42 302.466   7
  -3   0   2 2390.72 260.349  16
   3   0  -2 2336.69 301.806   4
  -3   0   1 23051.2 730.651  11
   3   0  -1 22648.9 926.103   4
   3   0  -1 22099.8 918.377   8
  -3   0   1 22432.1 884.902  16
   3   0  -1 21924.9 901.092   2
   3   0  -1 22678.0 894.879   7
  -3   0   0 37529.4 898.262  10
   3   0   0 34880.6 1234.31   4
   3   0   0 34047.5 1222.49   8
   3   0   0 35936.2 1200.96   7
   3   0   1 9947.76 588.145   4
   3   0   1 9831.99 586.320   8
  -3   0  -1 8905.62 498.070  14
   3   0   1 9483.28 598.622   6
  -3   0  -2 8913.40 362.177   1
   3   0   2 11263.8 639.157   4
   3   0   2 11330.7 646.604   8
  -3   0  -2 11059.6 562.783  14
   3   0   2 12508.6 688.593   6
   3   0   2 11368.7 415.138   5
  -3   0  -2 10554.7 355.110  12
   3   0   2 9265.03 350.019   1
   3   0   3 19721.5 880.487   4
   3   0   3 20548.8 924.873   8
  -3   0  -3 20088.9 798.359  14
   3   0   3 18704.9 880.507   3
   3   0   3 20700.6 938.464   6
   3   0   3 19526.9 658.945   5
  -3   0  -3 18536.8 603.653  12
   3   0   3 18194.9 587.396   1
   3   0   4 73496.8 2027.73   4
   3   0   4 75533.6 2079.97   8
  -3   0  -4 74855.4 1920.08  14
   3   0   4 74904.3 2076.77   3
   3   0   4 76282.0 2112.23   6
   3   0   4 68273.9 1760.04   5
  -3   0  -4 67796.0 1685.97  12
   3   0   4 70975.0 1658.78   1
   3   0   5 3015.26 371.126   4
   3   0   5 3114.61 386.589   8
  -3   0  -5 3341.29 327.536  14
   3   0   5 3283.75 383.411   3
   3   0   5 3719.46 404.483   6
   3   0   5 3371.48 312.474   5
  -3   0  -5 3842.03 308.827  12
   3   0   5 3458.72 273.106   1
   3   0   6 3126.82 409.731   8
  -3   0  -6 3332.92 338.286  14
   3   0   6 3417.07 392.056   4
   3   0   6 3220.59 399.081   3
   3   0   6 3147.29 385.974   6
   3   0   6 2411.20 293.503   5
   3   0   6 3018.50 283.000   1
  -3   0  -6 3046.84 305.205  12
   3   0   7 13758.9 759.161   4
   3   0   7 13998.7 817.636   8
  -3   0  -7 14051.5 734.008  14
   3   0   7 14547.8 808.311   3
   3   0   7 14911.6 845.905   6
   3   0   7 12928.7 720.072   5
  -3   0  -7 14455.0 712.480  12
   3   0   7 13781.6 657.468   1
   3   0   8 10817.5 672.214   4
  -3   0  -8 10749.3 660.843  14
   3   0   8 9977.26 673.016   3
   3   0   8 10282.7 724.234   6
  -3   0  -8 10283.6 635.385  12
   3   0   8 9605.67 578.832   1
   3   0   9 10.2178 161.084   1
   3   0   9-96.4331 181.872   4
  -3   0  -9 395.013 189.955  14
   3   0   9 325.056 194.951   3
   3   0   9 91.4844 170.785   6
  -3   0  -9 121.152 174.272  12
   3   0  10 365.599 212.397   1
   3   0  10 1132.92 269.481   4
  -3   0 -10 712.829 272.077  16
   3   0  10 468.960 221.629   3
   3   0  10 838.869 254.848   6
   3   0  10 552.260 234.187   5
  -3   0 -10 567.831 195.916  12
  -3   0 -11-157.591 237.657  16
   3   0  11 288.744 211.877   3
   3   0  11 164.909 203.888   6
   3   0  11-146.630 201.453   1
   3   0  11 260.647 199.803   5
  -3   0 -11 94.5435 215.559  12
   3   0  12 270.258 215.870   8
  -3   0 -12 455.134 267.194  16
   3   0  12 329.197 267.733   1
   3   0  12 309.430 236.190   3
   3   0  12 361.858 238.099   6
   3   0  12 606.510 267.607   5
  -3   0 -12 678.098 267.318  12
   3   0  13 3072.53 436.802   3
   3   0  13 2501.03 427.639   6
   3   0  13 2896.18 449.410   1
   3   0  13 3372.85 472.157   8
  -3   0 -13 3093.07 497.352  16
   3   0  13 3128.06 525.419   5
  -3   0 -13 2572.90 435.608  12
   3   0  14 189.626 255.531   8
  -3   0 -14 356.436 289.513  16
   3   0  14 182.429 226.218   3
   3   0  14 365.439 259.464   6
   3   0  14 236.647 238.558   1
   3   0  14 268.855 255.210   5
  -3   0 -14-366.868 256.214  12
  -3   0 -15 3799.07 589.736  16
   3   0  15 2711.69 518.017   1
   3   0  15 2828.32 540.394   5
  -3   0 -15 2359.20 451.361  12
   3   0  16 11352.4 925.467   1
  -3   0 -16 10773.7 948.704  16
   3   0  16 8934.39 890.342   5
  -3   0 -16 9338.18 881.296  12
  -3   0 -17 1420.11 387.831  16
  -3   1  19 5069.42 783.198  13
  -3   1  19 3075.13 559.068   5
   3   1 -19 4455.03 672.863  12
  -3   1  18 1837.43 520.314  13
  -3   1  18 420.644 285.847   5
   3   1 -18 1329.60 403.808  12
  -3   1  17 16535.5 1174.75   5
   3   1 -17 19289.4 1251.89  12
  -3   1  16 2292.06 528.218  13
   3   1 -16 1648.75 396.279  12
   3   1 -16 2950.84 438.641   2
  -3   1  15 11103.3 951.143  13
   3   1 -15 10199.5 737.353   2
   3   1 -15 8581.53 776.339  12
  -3   1  14 652.910 341.607  13
   3   1 -14 563.328 254.227  12
   3   1 -14 808.219 241.328   2
  -3   1  13 9546.65 809.956  13
   3   1 -13 9471.76 685.768   2
   3   1 -13 8916.79 708.042  12
  -3   1  12 1641.41 374.548  13
   3   1 -12 1868.95 319.124  12
   3   1 -12 1835.97 319.052   2
  -3   1  11 13438.2 894.866  13
   3   1 -11 13181.8 763.611   2
   3   1 -11 11971.2 747.115  12
  -3   1  10 7958.48 666.178  13
   3   1 -10 8025.37 574.228   2
   3   1 -10 6422.52 519.644  12
   3   1  -9 37576.2 1440.57   7
  -3   1   9 37306.6 1457.44  13
   3   1  -9 36282.7 1311.33   2
   3   1  -9 34394.8 1231.75  12
  -3   1   8 4848.00 275.725  16
   3   1  -8 5536.58 514.111   7
   3   1  -8 5081.35 446.888   2
  -3   1   8 4959.99 502.096  13
   3   1  -8 4957.85 387.559  12
   3   1  -7 2514.04 321.848   2
   3   1  -7 1754.96 260.624   4
  -3   1   7 1759.80 175.858  16
   3   1  -7 2281.70 342.203   7
  -3   1   7 1705.57 218.389   5
  -3   1   7 2015.51 343.415  13
   3   1  -7 1901.70 228.603  12
   3   1  -6 16223.8 739.755   4
  -3   1   6 15009.5 589.561  16
   3   1  -6 16355.6 814.445   7
  -3   1   6 16697.0 850.358  13
  -3   1   6 15364.1 588.520   5
   3   1  -6 16268.2 790.783   2
   3   1  -6 15249.4 602.377  12
   3   1  -5 13127.8 661.813   4
  -3   1   5 12747.9 552.343  16
   3   1  -5 13535.4 716.934   7
  -3   1   5 12881.5 723.351  13
  -3   1   5 12611.9 454.729   5
   3   1  -5 13431.4 696.426   2
   3   1  -5 11949.9 473.583  12
  -3   1   4 491.517 77.2213   5
   3   1  -4 366.668 177.104   2
   3   1  -4 383.330 202.892   4
   3   1  -4 463.051 156.679   8
  -3   1   4 592.345 144.888  16
   3   1  -4 502.800 87.3331   1
   3   1  -4 599.177 215.835   7
   3   1  -4 315.280 77.9971  12
   3   1  -3 67778.3 1603.34   4
  -3   1   3 67702.0 1467.07  16
   3   1  -3 63516.2 1512.68   8
   3   1  -3 71952.2 1665.04   7
  -3   1   3 65168.7 1126.91  12
   3   1  -3 70867.3 1653.47   2
   3   1  -2 111584. 2730.34   4
   3   1  -2 109276. 2667.08   8
   3   1  -2 112901. 2733.56   7
  -3   1   2 110254. 2624.35  16
  -3   1   2 113559. 2245.96  12
  -3   1   1 93898.1 2141.23  11
   3   1  -1 91824.2 2345.68   4
  -3   1   1 92740.5 2298.87  16
   3   1  -1 93733.7 2314.49   8
  -3   1   1 86884.4 1822.48  12
   3   1  -1 96584.6 2361.97   7
  -3   1   0 26272.8 887.084  11
   3   1   0 26446.0 1015.77   4
   3   1   0 26356.4 997.647   8
   3   1   0 27336.0 1020.13   7
  -3   1   0 26312.9 1005.21  16
   3   1   0 23256.5 640.370   5
  -3   1   0 22048.3 612.059  12
  -3   1  -1 16877.7 731.557  11
   3   1   1 18439.6 844.203   4
  -3   1  -1 17585.9 827.796  16
   3   1   1 17604.3 819.435   8
   3   1   1 18264.6 856.332   3
  -3   1  -1 18078.6 677.457  14
   3   1   1 17434.3 546.337   5
  -3   1  -1 14627.2 498.989  12
  -3   1  -2 7820.44 367.692   1
   3   1   2 8872.79 575.658   4
  -3   1  -2 9461.71 607.476  16
   3   1   2 8237.18 580.277   3
  -3   1  -2 7961.87 432.311  14
   3   1   2 8494.14 570.604   6
   3   1   2 8783.21 399.221   5
   3   1   3 8465.20 574.102   4
  -3   1  -3 8860.10 616.089  16
   3   1   3 8738.95 597.356   3
  -3   1  -3 8970.99 461.190  14
   3   1   3 8600.04 582.160   6
   3   1   3 8550.86 440.575   5
   3   1   4 1849.08 310.625   4
  -3   1  -4 1921.51 331.174  16
  -3   1  -4 1878.27 210.206  14
   3   1   4 1746.46 324.244   3
   3   1   4 2027.14 306.339   6
   3   1   4 1696.50 217.344   5
   3   1   5 42159.9 1181.10   1
   3   1   5 42100.3 1439.65   4
   3   1   5 40969.4 1490.31   3
  -3   1  -5 42620.4 1247.19  14
  -3   1  -5 42700.5 1552.24  16
   3   1   5 40984.7 1434.19   6
   3   1   5 41605.5 1303.34   5
  -3   1  -5 41511.4 1237.49  12
   3   1   6 47618.1 1363.45   1
   3   1   6 49815.0 1605.50   4
  -3   1  -6 49641.3 1745.25  16
   3   1   6 48299.0 1634.49   3
  -3   1  -6 50020.4 1421.47  14
   3   1   6 47987.2 1602.31   6
   3   1   6 48116.8 1501.55   5
  -3   1  -6 45400.6 1417.22  12
   3   1   7 12959.0 647.514   1
   3   1   7 13229.4 760.807   4
  -3   1  -7 13623.6 857.320  16
   3   1   7 13401.7 789.207   3
  -3   1  -7 13638.1 664.817  14
   3   1   7 13079.7 767.773   6
   3   1   7 13117.3 741.600   5
  -3   1  -7 13084.4 694.614  12
   3   1   8 1838.92 272.196   1
  -3   1  -8 1576.58 336.753  16
  -3   1  -8 1977.51 281.842  14
   3   1   8 1609.59 307.569   3
   3   1   8 2306.01 345.912   6
  -3   1  -8 2002.18 299.817  12
   3   1   8 1506.19 298.733   5
   3   1   9 3560.62 384.148   1
  -3   1  -9 3445.51 477.804  16
   3   1   9 3297.39 433.478   3
   3   1   9 3649.64 439.290   6
  -3   1  -9 3345.92 398.078  12
   3   1   9 2544.96 383.442   5
   3   1  10 5785.56 531.561   1
  -3   1 -10 6686.32 660.467  16
   3   1  10 6818.36 610.874   3
   3   1  10 7244.13 614.468   6
   3   1  10 4845.60 548.143   5
  -3   1 -10 7006.13 586.339  12
   3   1  11 7132.06 584.944   1
  -3   1 -11 6934.94 687.746  16
   3   1  11 7287.31 646.240   3
   3   1  11 7343.33 639.797   6
   3   1  11 5306.52 590.556   5
  -3   1 -11 6788.80 617.971  12
  -3   1 -12 2017.74 411.238  16
   3   1  12 2265.55 396.758   3
   3   1  12 1756.86 376.444   1
   3   1  12 2009.88 370.863   6
   3   1  12 1337.03 351.600   5
  -3   1 -12 1574.85 339.068  12
   3   1  13 3146.36 486.996   1
  -3   1 -13 4114.33 566.878  16
   3   1  13 3438.73 473.609   3
   3   1  13 2330.54 455.283   5
  -3   1 -13 3388.92 509.669  12
  -3   1 -14 176.833 229.512  16
   3   1  14 357.656 271.332   1
   3   1  14 318.919 204.230   3
   3   1  14 395.232 299.596   5
  -3   1 -14 318.044 260.416  12
   3   1  15 7544.39 799.645   1
  -3   1 -15 6650.16 729.331  16
   3   1  15 5870.06 682.894   3
  -3   1 -15 8301.35 806.142  12
   3   1  15 5984.67 738.233   5
  -3   1 -16 5965.41 721.783  16
   3   1  16 4822.45 705.751   5
  -3   1 -16 5233.38 671.903  12
  -3   2  19 4302.73 734.817  13
  -3   2  19 2524.51 560.500   5
   3   2 -19 3975.72 645.508  12
  -3   2  18 45.3380 253.081   5
   3   2 -18 338.682 297.326  12
  -3   2  17 8846.11 919.411  13
   3   2 -17 6843.94 754.646  12
  -3   2  16 6217.62 734.356  13
  -3   2  16 5012.57 630.508   5
   3   2 -16 5024.62 638.133  12
  -3   2  15 16831.1 1145.17  13
  -3   2  15 13763.1 983.571   5
   3   2 -15 15762.3 886.210   2
   3   2 -15 16308.0 1054.73  12
   3   2 -14 3662.16 442.582   2
  -3   2  14 3182.66 541.850  13
  -3   2  14 2407.23 431.197   5
   3   2 -14 3080.55 466.289  12
  -3   2  13 5185.48 605.697  13
   3   2 -13 4591.67 466.759   2
  -3   2  13 3665.65 478.473   5
   3   2 -13 4662.71 528.681  12
   3   2 -12 2687.04 352.134   2
  -3   2  12 2489.56 446.037  13
  -3   2  12 1539.20 334.476   5
   3   2 -12 2753.28 392.129  12
  -3   2  11 5947.89 605.499  13
  -3   2  11 5964.51 543.397   5
   3   2 -11 6053.57 512.117   2
   3   2 -11 6407.51 554.030  12
   3   2 -10 2871.02 356.890   2
   3   2 -10 2930.32 433.136   7
  -3   2  10 2780.01 416.428  13
   3   2 -10 2525.66 337.967  12
  -3   2  10 2723.27 353.429   5
   3   2  -9 181.650 177.405   2
  -3   2   9 155.662 107.551  16
   3   2  -9 222.290 237.235   7
  -3   2   9-113.861 216.643  13
   3   2  -9 386.176 142.197  12
  -3   2   9 54.0637 137.715   5
   3   2  -8 2671.63 336.167   2
  -3   2   8 2917.49 260.967  16
   3   2  -8 3381.31 422.349   7
  -3   2   8 2995.59 315.573   5
  -3   2   8 2005.10 337.088  13
   3   2  -8 2559.30 286.322  12
  -3   2   7 29306.7 943.163  16
   3   2  -7 30120.1 1217.27   7
  -3   2   7 29020.6 1206.26  13
  -3   2   7 27890.1 955.932   5
   3   2  -7 26373.9 939.922  12
   3   2  -7 28481.9 1117.00   2
  -3   2   6 1994.88 216.892   5
   3   2  -6 2374.20 315.607   2
  -3   2   6 1871.73 210.359  16
   3   2  -6 2709.33 356.151   7
  -3   2   6 2165.10 331.846  13
   3   2  -6 2175.09 217.602  12
  -3   2   5 6597.36 419.990  16
   3   2  -5 6699.73 418.058   8
   3   2  -5 6985.21 536.482   7
  -3   2   5 7006.20 346.604   5
   3   2  -5 6229.69 348.643  12
   3   2  -4 35630.7 919.918   1
  -3   2   4 36263.4 1143.26  16
   3   2  -4 35988.7 1127.41   8
   3   2  -4 39424.9 1333.36   7
  -3   2   4 33111.4 876.962   5
  -3   2   3 4678.37 361.824  16
   3   2  -3 4316.42 355.985   8
   3   2  -3 4555.01 429.108   7
  -3   2   3 3119.19 162.727   5
   3   2  -3 3231.74 202.444  12
  -3   2   2 8434.99 498.933  16
   3   2  -2 9145.51 520.493   8
   3   2  -2 8577.65 558.033   7
   3   2  -1 17865.6 857.490   4
  -3   2   1 17733.7 803.814  16
   3   2  -1 18131.4 806.089   8
   3   2  -1 18345.5 854.524   7
   3   2  -1 19053.4 849.158   3
   3   2  -1 17853.9 628.879   5
  -3   2   0 7925.69 499.235  11
   3   2   0 8498.08 561.739   4
  -3   2   0 8202.61 546.418  16
   3   2   0 7209.63 530.857   7
   3   2   0 8652.31 581.518   3
   3   2   0 8056.21 393.982   5
  -3   2  -1 6598.73 485.009  11
   3   2   1 7316.78 559.227   4
  -3   2  -1 6643.02 511.200  16
   3   2   1 6971.19 519.422   3
  -3   2  -1 7283.41 365.122  14
   3   2   1 7088.94 386.304   5
   3   2   2 1483.38 196.148   5
  -3   2  -2 1232.90 243.666  11
   3   2   2 1212.61 263.613   4
  -3   2  -2 1542.35 282.415  16
   3   2   2 1491.04 289.482   3
  -3   2  -2 1539.92 170.027  14
  -3   2  -3 12555.6 720.255  11
   3   2   3 12731.7 729.675   3
  -3   2  -3 12957.7 756.031  16
  -3   2  -3 12781.3 492.766  14
   3   2   3 12580.6 595.352   5
  -3   2  -4 28232.2 1150.87  11
  -3   2  -4 27947.0 1186.02  16
   3   2   4 27903.3 1153.43   3
  -3   2  -4 27639.3 827.026  14
   3   2   4 26985.4 997.028   5
  -3   2  -5 9725.20 690.389  16
   3   2   5 8470.37 628.407   3
  -3   2  -5 9576.79 443.269  14
   3   2   5 9383.64 604.158   6
   3   2   5 8713.34 569.197   5
  -3   2  -6 19602.8 1031.97  16
   3   2   6 20122.9 996.923   3
  -3   2  -6 21504.6 749.222  14
   3   2   6 20082.3 924.111   6
   3   2   6 21210.2 942.694   5
  -3   2  -7 23601.3 1170.56  16
   3   2   7 24986.6 1141.46   3
   3   2   7 23010.4 1015.57   6
   3   2   7 22788.6 1049.24   5
  -3   2  -8 5974.05 589.560  16
   3   2   8 4479.64 510.895   3
   3   2   8 4721.62 453.793   6
   3   2   8 4575.53 489.148   5
  -3   2  -9 2613.09 431.426  16
   3   2   9 2418.09 383.498   3
   3   2   9 2421.94 350.151   6
  -3   2  -9 2288.92 348.884  12
   3   2   9 1713.86 333.999   5
  -3   2 -10 2248.48 412.135  16
   3   2  10 1946.78 381.616   3
   3   2  10 1849.02 321.379   6
  -3   2 -10 1514.64 328.792  12
   3   2  10 1914.19 416.575   5
  -3   2 -11 4462.46 566.140  16
   3   2  11 3869.13 544.330   3
   3   2  11 3700.56 445.721   6
  -3   2 -11 4069.77 481.413  12
   3   2  11 3189.57 518.251   5
  -3   2 -12 1059.26 314.189  16
   3   2  12 668.951 263.571   3
  -3   2 -12 623.947 243.482  12
   3   2  12 650.359 300.541   5
  -3   2 -13 465.871 210.406  16
   3   2  13 368.403 268.163   3
  -3   2 -13 153.793 202.161  12
   3   2  13 465.484 283.291   5
  -3   2 -14 1401.23 353.060  16
   3   2  14 1707.54 416.222   3
  -3   2 -14 1767.71 388.537  12
   3   2  14 1232.36 375.670   5
  -3   2 -15 2086.67 450.249  16
   3   2  15 1969.86 450.049   3
  -3   2 -15 1802.44 422.087  12
   3   2  15 1863.12 434.153   5
  -3   2 -16 5069.18 656.348  16
   3   2  16 3889.03 604.550   3
  -3   2 -16 4345.38 620.499  12
   3   2  16 3968.60 641.303   5
  -3   3  19 9145.32 959.053  13
   3   3 -19 7899.78 893.720  12
  -3   3  18 445.722 393.565  13
   3   3 -18 487.417 347.814  12
  -3   3  18 535.792 355.086   5
  -3   3  17 2830.22 536.833  13
   3   3 -17 3347.17 555.874  12
  -3   3  17 2299.79 453.393   5
  -3   3  16 980.071 395.710  13
   3   3 -16 1313.43 408.160  12
  -3   3  16 921.626 365.359   5
  -3   3  15 696.785 347.705  13
   3   3 -15 408.639 256.153  12
  -3   3  15 559.117 263.146   5
  -3   3  14 9114.29 813.536  13
  -3   3  14 5478.36 632.751   5
   3   3 -14 7951.70 717.814  12
   3   3 -14 7363.28 576.371   2
  -3   3  13 17765.3 1094.54  13
  -3   3  13 13470.8 928.690   5
   3   3 -13 15740.8 972.580  12
   3   3 -13 16056.2 856.899   2
  -3   3  12 11721.3 859.704  13
  -3   3  12 9366.35 733.898   5
   3   3 -12 10348.6 749.885  12
   3   3 -12 11107.9 686.565   2
   3   3 -11 23027.1 1187.71   7
  -3   3  11 20509.5 1119.05  13
  -3   3  11 19276.3 1001.46   5
   3   3 -11 20202.1 1015.36  12
   3   3 -11 20009.8 953.685   2
   3   3 -10 1768.33 287.404   2
   3   3 -10 2312.93 387.218   7
  -3   3  10 2916.70 428.091  13
   3   3 -10 2447.42 327.724  12
  -3   3  10 1932.30 333.359   5
  -3   3   9 11402.5 577.439  16
   3   3  -9 10484.3 754.477   7
  -3   3   9 9740.37 707.754  13
  -3   3   9 8330.79 592.976   5
  -3   3   8 7657.59 478.077  16
   3   3  -8 7715.47 621.952   7
  -3   3   8 6817.67 589.815  13
  -3   3   8 6455.38 485.216   5
  -3   3   7 32970.0 1108.71  16
   3   3  -7 30697.1 1276.35   7
  -3   3   7 30978.6 1288.45  13
  -3   3   7 31555.6 1081.84   5
  -3   3   6 22735.6 908.330  16
   3   3  -6 22505.2 796.402   8
   3   3  -6 21979.2 1032.72   7
  -3   3   6 23374.8 839.810   5
  -3   3   5 70844.1 1916.68  16
   3   3  -5 69699.2 1794.39   8
   3   3  -5 71964.4 2100.89   7
  -3   3   5 71142.5 1734.74   5
  -3   3   4 3142.41 335.195  16
   3   3  -4 2129.15 250.704   8
   3   3  -4 2378.25 346.211   7
  -3   3   4 2244.37 208.123   5
  -3   3   3 8902.92 561.825  16
   3   3  -3 9138.84 533.335   8
   3   3  -3 8349.05 590.566   7
  -3   3   3 8426.65 377.845   5
  -3   3   2 15586.7 763.347  16
   3   3  -2 16165.1 819.504   7
   3   3  -2 16135.1 780.916   3
   3   3  -2 15252.1 516.174  12
  -3   3   2 14307.3 501.848   5
   3   3  -2 14514.2 646.870   5
  -3   3   1 4976.89 442.448  16
   3   3  -1 5165.82 463.218   7
   3   3  -1 6392.81 493.386   3
   3   3  -1 5080.02 261.351  12
   3   3  -1 4501.20 346.747   5
  -3   3   0 12330.8 673.744  11
  -3   3   0 12130.4 695.732  16
   3   3   0 11373.7 700.933   7
   3   3   0 12042.0 682.581   3
   3   3   0 11961.5 426.000  12
   3   3   0 11398.1 567.580   5
  -3   3  -1 22183.7 941.206  11
   3   3   1 21919.2 998.385   7
   3   3   1 22786.8 971.297   3
  -3   3  -1 21309.8 968.190  16
  -3   3  -1 19030.5 571.096  14
   3   3   1 20477.0 793.899   5
   3   3   1 19396.2 613.679  12
  -3   3  -2 4711.01 441.297  11
   3   3   2 5121.09 478.392   3
  -3   3  -2 5559.08 494.650  16
  -3   3  -2 4234.92 208.628  14
   3   3   2 4851.52 384.074   5
   3   3   3 3264.36 333.141   5
  -3   3  -3 3546.62 392.388  11
  -3   3  -3 3536.15 406.779  16
  -3   3  -3 2878.89 160.083  14
   3   3   3 2927.56 363.072   3
   3   3   4 888.536 209.255   5
  -3   3  -4 1243.39 275.778  11
  -3   3  -4 1297.03 264.542  16
   3   3   4 1152.69 296.871   3
  -3   3  -5 6927.25 588.363  11
   3   3   5 7335.13 594.575   3
  -3   3  -5 7026.79 601.262  16
   3   3   5 6867.21 522.276   5
  -3   3  -6 1900.97 352.737  16
   3   3   6 2372.20 357.613   5
  -3   3  -6 2129.52 352.594  11
   3   3   6 1728.89 313.967   3
  -3   3  -7 56981.5 2000.24  11
  -3   3  -7 55111.0 1965.15  16
   3   3   7 57509.8 1883.35   5
   3   3   8 1237.05 310.398   5
  -3   3  -8 1287.65 305.889  11
  -3   3  -8 1273.47 349.835  16
   3   3   8 1193.36 250.346   6
  -3   3  -9 31713.3 1439.68  16
   3   3   9 26886.1 1122.60   6
   3   3   9 28999.0 1372.05   5
   3   3  10 3932.69 541.058   5
  -3   3 -10 3325.23 507.843  16
   3   3  11 1155.68 333.350   5
  -3   3 -11 1570.81 360.257  16
  -3   3 -11 1357.31 322.669  12
  -3   3 -12 6738.57 710.659  16
   3   3  12 6435.31 716.919   5
  -3   3 -12 6525.42 682.882  12
   3   3  13 1899.61 433.582   3
  -3   3 -13 2244.31 436.886  16
  -3   3 -13 2054.35 396.374  12
   3   3  13 1364.67 401.363   5
  -3   3 -14 784.411 336.399  16
   3   3  14 1145.85 352.535   3
  -3   3 -14 601.835 313.043  12
   3   3  14-162.528 255.696   5
   3   3  15 1296.07 438.954   5
  -3   3 -15 2656.23 516.695  16
   3   3  15 2155.99 446.373   3
  -3   3 -15 1759.27 389.876  12
   3   3  16 6807.59 830.266   5
  -3   3 -16 8254.25 840.223  16
   3   3  16 8863.64 887.107   3
  -3   3 -16 8529.41 883.036  12
  -3   4  18 202.474 298.037  13
   3   4 -18 286.094 320.653  12
  -3   4  18-249.911 277.851   5
  -3   4  17 2426.21 501.793  13
   3   4 -17 2446.65 503.897  12
  -3   4  17 1921.60 444.519   5
  -3   4  16 5756.14 697.131  13
   3   4 -16 4335.89 589.766  12
  -3   4  16 3627.18 559.610   5
  -3   4  15 972.738 357.886  13
   3   4 -15 500.198 280.857  12
  -3   4  15 546.552 283.262   5
  -3   4  14 448.790 263.658   5
  -3   4  14 629.168 300.564  13
   3   4 -14 402.711 257.631  12
   3   4 -13 31023.2 1429.85  15
   3   4 -13 29626.6 1481.98   7
  -3   4  13 27618.6 1408.61  13
  -3   4  13 24153.7 1293.97   5
   3   4 -13 26957.0 1337.90  12
   3   4 -12 10110.9 821.095   7
   3   4 -12 10523.7 786.690  15
  -3   4  12 8660.48 754.345  13
  -3   4  12 8663.03 722.892   5
  -3   4  11 2294.53 371.861   5
   3   4 -11 2301.51 392.848  15
   3   4 -11 2516.63 426.723   7
  -3   4  11 2343.37 410.423  13
  -3   4  10 31631.4 1159.41  16
   3   4 -10 29306.0 1344.48  15
   3   4 -10 30899.7 1384.88   7
  -3   4  10 28827.6 1328.36  13
  -3   4  10 26424.4 1216.75   5
  -3   4   9 2156.71 334.450   5
  -3   4   9 2246.74 310.631  16
   3   4  -9 1801.23 347.007  15
   3   4  -9 1862.71 350.772   7
  -3   4   9 2316.78 388.958  13
  -3   4   8 44845.9 1457.17  16
   3   4  -8 43689.3 1636.92  15
   3   4  -8 42875.1 1632.68   7
  -3   4   8 43413.6 1623.73  13
  -3   4   8 43358.7 1463.53   5
  -3   4   7 32595.6 1200.29  16
   3   4  -7 30582.5 1321.06  15
   3   4  -7 32392.0 1328.96   7
  -3   4   7 28523.1 1279.67  13
  -3   4   7 30958.2 1132.07   5
  -3   4   6 144634. 3371.54  16
   3   4  -6 137768. 3022.73   8
   3   4  -6 136317. 3517.24  15
   3   4  -6 137964. 3491.67   7
  -3   4   6 139643. 3188.96   5
  -3   4   5 5508.15 468.928  16
   3   4  -5 5571.39 380.638   8
   3   4  -5 5858.00 531.132   7
   3   4  -5 5353.93 523.241  15
  -3   4   5 5920.04 415.278   5
  -3   4   4 39805.2 1397.32  16
   3   4  -4 39627.8 1258.12   8
   3   4  -4 38489.9 1470.60  15
   3   4  -4 42566.8 1501.13   7
  -3   4   4 40573.5 1192.42   5
  -3   4   3 1829.30 216.758   5
   3   4  -3 1750.30 324.786  15
   3   4  -3 1569.40 253.536   5
   3   4  -3 1661.32 300.594   7
   3   4  -3 1987.32 282.685   3
  -3   4   3 2376.04 325.808  16
  -3   4   2 20262.3 943.904  16
   3   4  -2 20937.8 991.133   7
   3   4  -2 19598.1 891.247   3
  -3   4   2 19481.5 716.418   5
   3   4  -2 20647.0 876.400   5
  -3   4   1 18146.3 888.494  16
   3   4  -1 16353.3 874.879   7
   3   4  -1 17450.2 830.947   3
   3   4  -1 16010.0 757.472   5
   3   4   0 658.501 183.789   5
  -3   4   0 615.319 235.213  16
   3   4   0 472.557 198.318   7
  -3   4   0 378.691 58.0885  14
   3   4   0 596.724 240.164   3
  -3   4  -1 11113.6 707.840  16
   3   4   1 10930.6 687.863   3
   3   4   1 9694.74 583.792   5
  -3   4  -2 10855.5 708.204  11
  -3   4  -2 9718.81 680.004  16
   3   4   2 9875.18 661.798   3
   3   4   2 9599.04 600.339   5
   3   4   3 1747.33 277.026   5
  -3   4  -3 1937.11 344.922  11
   3   4   3 1473.49 298.407   3
  -3   4  -3 1433.45 291.527  16
   3   4   4 1214.57 248.822   5
  -3   4  -4 1386.99 311.863  11
  -3   4  -4 1292.77 287.315  16
  -3   4  -5 15146.2 913.547  11
  -3   4  -5 15030.6 921.145  16
   3   4   5 14935.3 846.315   5
  -3   4  -6 34137.6 1477.88  11
  -3   4  -6 32954.6 1445.00  16
   3   4   6 34947.8 1396.92   5
  -3   4  -7 5311.65 584.365  11
  -3   4  -7 5558.53 578.804  16
   3   4   7 5265.89 568.345   5
   3   4   8 1563.44 347.712   5
  -3   4  -8 1867.99 370.836  11
  -3   4  -8 2146.11 387.828  16
   3   4   9 3912.80 545.641   5
  -3   4  -9 3673.78 511.163  11
  -3   4  -9 4450.75 567.676  16
  -3   4 -10 20109.1 1222.50  11
  -3   4 -10 17956.0 1109.28  16
   3   4  10 17777.6 1134.88   5
   3   4  11 1685.39 399.744   5
  -3   4 -11 1781.35 425.814  11
  -3   4 -11 1810.52 408.773  16
  -3   4 -12 7791.44 805.253  11
  -3   4 -12 7105.28 721.959  16
   3   4  12 6745.95 773.086   5
   3   4  13 4390.25 650.593   5
  -3   4 -13 4921.51 661.700  11
  -3   4 -13 4360.74 609.663  16
  -3   4 -13 3619.70 535.580  12
   3   4  14 3785.50 627.399   5
  -3   4 -14 6310.08 768.293  11
  -3   4 -14 4925.02 659.117  16
  -3   4 -14 4447.63 618.698  12
   3   4  15 569.699 432.783   5
  -3   4 -15 118.907 241.489  16
  -3   4 -15-51.5160 239.096  12
  -3   5  18-76.9980 325.305   5
   3   5 -18 474.106 348.730  12
  -3   5  17 1087.40 428.985   5
   3   5 -17 1311.43 449.810  12
  -3   5  16 6419.97 748.740   5
   3   5 -16 9241.04 897.467   7
  -3   5  16 10879.6 923.381  13
   3   5 -16 9183.61 874.742  12
  -3   5  15 3058.59 527.039   5
   3   5 -15 3940.82 559.212  15
   3   5 -15 4333.14 611.713   7
  -3   5  15 3614.78 548.576  13
   3   5 -15 3413.03 536.835  12
  -3   5  14 3581.15 523.668   5
   3   5 -14 4015.82 546.875  15
   3   5 -14 4616.04 603.255   7
  -3   5  14 3727.64 553.352  13
   3   5 -14 3728.71 535.472  12
  -3   5  13 1046.88 309.553   5
   3   5 -13 522.436 300.846  15
   3   5 -13 914.923 313.273   7
  -3   5  13 1506.01 355.307  13
  -3   5  12 4938.56 578.003   5
   3   5 -12 5460.83 603.110  15
   3   5 -12 5737.01 643.491   7
  -3   5  12 5339.35 599.646  13
  -3   5  11 521.490 255.899   5
   3   5 -11 371.639 267.196   7
  -3   5  11 350.057 244.287  13
  -3   5  10 209.075 198.228   5
   3   5 -10 434.034 236.897  15
  -3   5  10 345.406 190.222  16
   3   5 -10 3.91391 227.451   7
  -3   5  10 705.574 283.936  13
  -3   5   9 7008.40 610.993  16
   3   5  -9 7991.18 692.620  15
   3   5  -9 8538.14 712.237   7
  -3   5   9 7730.47 671.944  13
  -3   5   9 7411.17 604.008   5
  -3   5   8 8456.69 622.083  16
   3   5  -8 6971.53 633.791  15
   3   5  -8 7627.32 659.289   7
  -3   5   8 7236.88 634.455  13
  -3   5   8 8038.01 593.767   5
  -3   5   7 19932.0 982.877  16
   3   5  -7 20475.6 1086.67  15
   3   5  -7 19833.0 1043.29   7
  -3   5   7 19524.4 924.423   5
  -3   5   6 2272.08 319.316   5
  -3   5   6 2761.22 379.070  16
   3   5  -6 2456.48 251.570   8
   3   5  -6 2319.96 394.425  15
   3   5  -6 2720.95 402.759   7
  -3   5   5 108465. 2843.41  16
   3   5  -5 99280.3 2873.06  15
   3   5  -5 107484. 2885.48   7
  -3   5   5 103691. 2590.75   5
  -3   5   4 32105.6 1298.86  16
   3   5  -4 29436.6 1298.69  15
   3   5  -4 32084.2 1317.55   7
   3   5  -4 29993.2 1130.09   3
  -3   5   4 32319.2 1118.83   5
  -3   5   3 55573.5 1783.20  16
   3   5  -3 49831.0 1786.23  15
   3   5  -3 51041.8 1758.73   7
   3   5  -3 51592.3 1603.49   3
  -3   5   3 54295.8 1553.07   5
   3   5  -3 51547.3 1677.84   5
   3   5  -2 28462.5 1217.00   7
  -3   5   2 29388.2 1224.85  16
   3   5  -2 26318.3 1187.79  15
   3   5  -2 27616.6 1099.96   3
  -3   5   2 29499.2 1041.65   5
   3   5  -2 28554.7 1145.16   5
  -3   5   1 4999.30 486.803  16
   3   5  -1 5825.53 525.407  15
   3   5  -1 5770.67 529.527   7
   3   5  -1 6223.03 503.152   3
   3   5  -1 5089.52 462.591   5
  -3   5   1 5644.15 409.187   5
   3   5   0 854.668 220.678   5
  -3   5   0 1314.24 274.529  16
   3   5   0 1227.36 296.813   7
   3   5   0 1504.82 278.779   3
  -3   5  -1 7999.03 633.967  16
   3   5   1 7917.17 596.984   3
   3   5   1 8431.52 601.212   5
  -3   5  -2 12885.7 813.429  16
   3   5   2 12622.1 754.755   5
   3   5   3 908.199 253.102   5
  -3   5  -3 538.103 202.714  11
  -3   5  -3 880.287 256.560  16
   3   5   4 3760.77 449.724   5
  -3   5  -4 4957.07 525.510  11
  -3   5  -4 4643.72 527.373  16
   3   5   5 4090.48 460.828   5
  -3   5  -5 4390.79 517.266  11
  -3   5  -5 4475.79 529.883  16
   3   5   6 1362.11 317.009   5
  -3   5  -6 1458.20 328.646  11
  -3   5  -6 1462.20 326.469  16
  -3   5  -7 6591.93 668.390  11
  -3   5  -7 5716.72 596.155  16
   3   5   7 5449.65 602.259   5
   3   5   8 5465.27 645.467   5
  -3   5  -8 8243.31 745.837  11
  -3   5  -8 6874.61 690.969  16
   3   5   9 4463.47 597.405   5
  -3   5  -9 5567.35 637.018  11
  -3   5  -9 3767.55 532.523  16
   3   5  10 4176.89 569.731   5
  -3   5 -10 4057.14 587.262  11
  -3   5 -10 3739.46 531.132  16
   3   5  11 728.939 342.603   5
  -3   5 -11 999.916 328.797  11
  -3   5 -11 1042.73 339.557  16
   3   5  12 640.500 359.267   5
  -3   5 -12 881.732 370.173  11
  -3   5 -12 1092.11 353.562  16
   3   5  13 3489.97 589.332   5
  -3   5 -13 3072.04 548.560  11
  -3   5 -13 3101.47 536.863  16
   3   5  14 1819.33 500.355   5
  -3   5 -14 1806.46 446.251  16
  -3   5 -14 1972.56 441.785  12
   3   5  15 125.860 358.498   5
  -3   5 -15 1132.01 379.813  16
  -3   6  17 915.669 451.017   5
   3   6 -17 1250.26 460.757  12
  -3   6  16 4453.38 678.936   5
   3   6 -16 6736.98 754.165  15
   3   6 -16 7887.14 820.427   7
   3   6 -16 6968.58 787.218  12
  -3   6  15 634.136 372.442   5
   3   6 -15 813.124 344.100  15
   3   6 -15 1410.60 444.057   7
  -3   6  15 1154.52 342.749  13
   3   6 -14 10739.8 917.422  15
   3   6 -14 10541.9 904.882   7
  -3   6  14 8658.73 809.701  13
  -3   6  14 7742.40 804.512   5
  -3   6  13 1448.13 396.495   5
   3   6 -13 1896.83 436.095  15
   3   6 -13 1457.89 374.535   7
  -3   6  13 1163.34 371.983  13
  -3   6  12 4007.82 537.852   5
   3   6 -12 5383.71 636.844  15
   3   6 -12 3966.40 550.355   7
  -3   6  12 3891.69 519.236  13
  -3   6  11 3993.75 523.517   5
   3   6 -11 4613.54 576.447  15
   3   6 -11 4363.33 556.075   7
  -3   6  11 4184.84 534.054  13
  -3   6  10 1660.18 366.774   5
   3   6 -10 2158.69 432.511  15
  -3   6  10 2614.89 415.530  16
   3   6 -10 1807.71 343.959   7
  -3   6  10 2048.25 393.225  13
  -3   6   9 9618.09 742.931  16
   3   6  -9 8853.55 780.831  15
   3   6  -9 8238.75 714.667   7
  -3   6   9 8874.18 733.331  13
  -3   6   9 8261.27 691.309   5
  -3   6   8 12763.9 832.148  16
   3   6  -8 10471.1 835.253  15
   3   6  -8 10811.1 793.479   7
  -3   6   8 10456.7 781.291  13
  -3   6   8 11627.6 775.063   5
  -3   6   7 12023.8 807.398  16
   3   6  -7 10665.1 823.452  15
   3   6  -7 10928.2 790.058   7
  -3   6   7 10922.0 722.008   5
  -3   6   6 19790.6 1042.27  16
   3   6  -6 18735.4 1079.40  15
   3   6  -6 18144.5 1019.81   7
  -3   6   6 19452.1 945.854   5
  -3   6   5 6732.51 611.647  16
   3   6  -5 6489.61 623.424  15
   3   6  -5 5837.33 572.114   7
  -3   6   5 6456.43 521.420   5
  -3   6   4 9771.52 727.841  16
   3   6  -4 9436.37 736.655  15
   3   6  -4 8753.97 670.779   7
   3   6  -4 9212.94 574.400   3
  -3   6   4 10157.4 638.202   5
   3   6  -4 9392.83 680.697   5
  -3   6   3 31144.3 1346.09  16
   3   6  -3 26224.6 1263.02  15
   3   6  -3 29213.6 1278.67   7
   3   6  -3 27962.8 1111.81   3
  -3   6   3 29421.8 1140.98   5
   3   6  -3 28272.1 1261.87   5
  -3   6   2-199.934 177.278   5
   3   6  -2-223.419 187.541   5
   3   6  -2 243.113 213.114  15
   3   6  -2-7.40648 199.446   7
   3   6  -2 116.685 145.880   3
  -3   6   2 142.555 196.224  16
  -3   6   1 5591.69 559.907  16
   3   6  -1 4948.09 531.962  15
   3   6  -1 5444.74 490.482   3
   3   6  -1 4909.39 512.993   7
   3   6  -1 4852.33 493.053   5
  -3   6   1 5271.94 453.286   5
  -3   6   0 9579.39 720.497  16
   3   6   0 9222.93 708.250   7
   3   6   0 8326.18 657.669  15
   3   6   0 9157.36 648.914   3
   3   6   0 10656.1 737.133   5
   3   6   1 3167.79 413.752   5
  -3   6  -1 3228.28 456.154  16
   3   6   1 2358.22 371.983  15
  -3   6  -2 11673.9 812.912  16
   3   6   2 11960.8 780.418   5
   3   6   3 2509.36 395.757   5
  -3   6  -3 2604.59 399.687  16
   3   6   4 406.746 232.278   5
  -3   6  -4 195.345 199.495  16
  -3   6  -5 4953.73 572.249  11
  -3   6  -5 4528.87 523.046  16
   3   6   5 4765.05 587.612   5
   3   6   6 3718.67 525.254   5
  -3   6  -6 3454.73 519.649  11
  -3   6  -6 3750.63 523.375  16
   3   6   7 584.332 319.900   5
  -3   6  -7 209.757 235.038  11
  -3   6  -7 360.962 248.107  16
   3   6   8 5425.98 651.890   5
  -3   6  -8 4780.71 625.537  11
  -3   6  -8 4724.33 591.160  16
   3   6   9 400.960 281.631   5
  -3   6  -9 125.759 266.497  11
  -3   6  -9 132.769 224.059  16
   3   6  10 5662.29 707.676   5
  -3   6 -10 5225.92 665.784  11
  -3   6 -10 5894.31 676.934  16
   3   6  11 4704.50 672.982   5
  -3   6 -11 4905.91 659.942  11
  -3   6 -11 4618.81 634.141  16
   3   6  12 3851.60 609.894   5
  -3   6 -12 5491.17 720.942  11
  -3   6 -12 4997.80 642.025  16
   3   6  13 248.631 326.014   5
  -3   6 -13 1092.89 385.398  11
  -3   6 -13 935.009 360.168  16
   3   6  14 1210.33 379.878   5
  -3   6 -14 681.511 325.618  16
  -3   7  16 2291.65 560.412   5
   3   7 -16 1817.01 472.693  15
   3   7 -15 20990.4 1370.91  15
   3   7 -15 21537.5 1363.27   7
  -3   7  14 3420.96 580.361   5
   3   7 -14 3781.04 595.928  15
   3   7 -14 3461.84 542.544   7
  -3   7  13 2126.90 460.275   5
   3   7 -13 2618.54 492.686  15
   3   7 -13 2669.09 484.582   7
  -3   7  13 2376.91 445.441  13
  -3   7  12 672.504 305.764   5
   3   7 -12 942.691 352.261  15
   3   7 -12 1343.18 416.230   7
  -3   7  12 902.102 303.216  13
  -3   7  11 1688.67 386.306   5
   3   7 -11 1310.49 427.909  15
   3   7 -11 1326.10 364.937   7
  -3   7  11 1453.06 367.953  13
  -3   7  10 2800.65 471.452   5
  -3   7  10 3507.32 500.580  16
   3   7 -10 3863.47 551.035  15
   3   7 -10 3706.02 511.084   7
  -3   7  10 3104.89 475.855  13
  -3   7   9 12396.7 886.446  16
   3   7  -9 11598.9 913.337  15
   3   7  -9 11694.4 860.855   7
  -3   7   9 10485.8 832.444  13
  -3   7   9 11043.6 824.020   5
  -3   7   8 1147.27 288.909   5
  -3   7   8 917.119 303.351  16
   3   7  -8 1231.75 357.016  15
   3   7  -8 1053.12 326.768   7
  -3   7   7 7817.67 707.456  16
   3   7  -7 7861.32 725.779  15
   3   7  -7 7397.54 677.690   7
  -3   7   7 8188.00 664.273   5
  -3   7   6 588.207 242.507   5
  -3   7   6 602.634 289.021  16
   3   7  -6 317.330 203.946  15
   3   7  -6 231.723 201.873   7
  -3   7   5 16812.4 1040.52  16
   3   7  -5 15522.7 1024.97  15
   3   7  -5 15274.4 930.356   7
   3   7  -5 15251.3 749.021   3
  -3   7   5 16600.2 917.878   5
  -3   7   4 40467.8 1644.12  16
   3   7  -4 35070.8 1570.87  15
   3   7  -4 36893.0 1512.00   7
   3   7  -4 35781.4 1283.08   3
  -3   7   4 39713.8 1494.49   5
   3   7  -4 39204.4 1561.78   5
  -3   7   3 48117.8 1848.42  16
   3   7  -3 48931.7 1784.34   7
   3   7  -3 44963.3 1798.58  15
   3   7  -3 43932.6 1518.09   3
  -3   7   3 54134.6 1741.15   5
   3   7  -3 48304.5 1806.44   5
  -3   7   2 7709.61 692.665  16
   3   7  -2 7218.65 629.558   7
   3   7  -2 6699.09 659.688  15
   3   7  -2 6416.62 527.746   3
  -3   7   2 7460.03 588.427   5
   3   7  -2 7051.05 638.938   5
  -3   7   1 12322.4 862.459  16
   3   7  -1 11481.3 801.147   7
   3   7  -1 11460.9 816.982  15
   3   7  -1 10725.6 704.828   3
   3   7  -1 12503.8 850.847   5
  -3   7   1 12109.8 742.435   5
  -3   7   0 10133.5 795.100  16
   3   7   0 9221.71 723.756  15
   3   7   0 9486.35 743.791   5
   3   7   1 3826.41 506.836   5
  -3   7  -1 5080.63 574.018  16
   3   7   1 4468.59 489.701  15
   3   7   2 2962.15 461.780   5
  -3   7  -2 3602.52 491.275  16
   3   7   2 2551.53 412.633  15
  -3   7  -3 14841.5 981.265  16
   3   7   3 14830.9 966.065   5
  -3   7  -4 19473.8 1151.84  16
   3   7   4 19196.6 1147.39   5
   3   7   5 2849.71 463.449   5
  -3   7  -5 2776.55 447.072  16
  -3   7  -6 10356.6 846.417  16
   3   7   6 9789.50 852.723   5
  -3   7  -7 4075.34 586.713  11
   3   7   7 3926.87 585.448   5
  -3   7  -7 3989.85 564.714  16
   3   7   8 758.517 332.375   5
  -3   7  -8 442.766 297.208  11
  -3   7  -8 413.011 288.366  16
   3   7   9 2126.40 464.530   5
  -3   7  -9 2503.27 528.581  11
  -3   7  -9 2530.31 484.554  16
   3   7  10 898.016 393.650   5
  -3   7 -10 1092.80 401.796  11
  -3   7 -10 1177.15 399.625  16
   3   7  11 1079.72 402.191   5
  -3   7 -11 1315.09 435.324  11
  -3   7 -11 870.103 331.448  16
   3   7  12 2323.07 561.867   5
  -3   7 -12 1429.74 379.022  16
   3   7  13 126.108 358.994   5
  -3   7 -13 491.975 324.153  16
  -3   8  15 718.282 381.454   5
  -3   8  14 250.094 353.056   5
   3   8 -14 147.524 323.838  15
   3   8 -14 14.9976 248.501   7
  -3   8  13 6200.13 745.916   5
   3   8 -13 5541.11 743.002  15
   3   8 -13 7576.02 764.896   7
  -3   8  12 2590.39 486.482   5
   3   8 -12 2909.73 560.400  15
   3   8 -12 2881.86 497.206   7
  -3   8  11 3531.91 539.387   5
   3   8 -11 4199.34 619.299  15
   3   8 -11 4226.09 553.553   7
  -3   8  11 3129.47 490.353  13
  -3   8  10 4833.33 618.484   5
   3   8 -10 3724.93 574.883  15
   3   8 -10 4154.90 538.768   7
  -3   8  10 5038.61 603.367  13
  -3   8   9 3938.48 543.175   5
  -3   8   9 4621.78 601.055  16
   3   8  -9 4061.30 602.644  15
   3   8  -9 4090.10 517.999   7
  -3   8   9 3598.06 508.132  13
  -3   8   8 1922.98 406.348   5
  -3   8   8 2014.28 423.283  16
   3   8  -8 1620.93 436.967  15
   3   8  -8 1149.09 347.855   7
  -3   8   7 114.366 257.099   5
  -3   8   7 145.027 203.914  16
   3   8  -7 150.939 243.626  15
   3   8  -7-97.7457 246.080   7
  -3   8   6 2611.37 430.821   5
  -3   8   6 3128.92 513.323  16
   3   8  -6 2618.11 490.859  15
   3   8  -6 3010.56 449.840   7
  -3   8   5 3086.92 449.550   5
  -3   8   5 3110.10 491.563  16
   3   8  -5 2879.33 508.940  15
   3   8  -5 2312.65 398.697   7
  -3   8   4 7380.42 742.221  16
   3   8  -4 6687.01 626.167   7
   3   8  -4 7812.46 743.342  15
  -3   8   4 7806.80 672.931   5
   3   8  -4 7185.25 678.881   5
  -3   8   3 13838.3 979.303  16
   3   8  -3 13112.3 876.086   7
   3   8  -3 12561.2 934.667  15
   3   8  -3 12254.1 725.769   3
  -3   8   3 13614.6 869.660   5
   3   8  -3 12323.4 909.677   5
  -3   8   2 30035.8 1471.27  16
   3   8  -2 28367.1 1333.44   7
   3   8  -2 26507.7 1366.23  15
   3   8  -2 26966.6 1175.41   3
  -3   8   2 31327.0 1362.58   5
   3   8  -2 29822.3 1450.23   5
   3   8  -1 3997.64 523.749   5
  -3   8   1 4592.46 513.432   5
  -3   8   1 5735.25 656.496  16
   3   8  -1 3800.69 481.666   7
   3   8  -1 3951.24 530.709  15
   3   8  -1 4723.47 480.550   3
  -3   8   0 24333.1 1333.67  16
   3   8   0 24068.1 1255.94  15
   3   8   0 25429.5 1336.47   5
  -3   8   0 27348.6 1233.03   5
  -3   8  -1 8585.95 771.496  16
   3   8   1 8911.20 721.226  15
   3   8   1 8595.54 776.875   5
  -3   8  -2 14224.1 998.777  16
   3   8   2 12498.9 861.303  15
   3   8   2 14973.7 1034.19   5
  -3   8  -3 12396.4 950.548  16
   3   8   3 13978.3 999.333   5
  -3   8  -4 7796.56 763.781  16
   3   8   4 8321.42 791.489   5
   3   8   5 1582.90 411.153   5
  -3   8  -5 1759.65 447.104  16
  -3   8  -6 32624.1 1627.93  16
   3   8   6 31061.6 1612.62   5
  -3   8  -7 8272.12 818.674  16
   3   8   7 7251.54 778.872   5
   3   8   8 801.624 338.066   5
  -3   8  -8 1396.49 373.567  16
  -3   8  -9 7520.34 815.040  16
   3   8   9 7789.26 876.320   5
  -3   8 -10 4780.29 687.978  11
   3   8  10 4514.80 692.036   5
  -3   8 -10 4258.18 627.259  16
   3   8  11 4268.41 706.318   5
  -3   8 -11 3997.17 604.949  16
  -3   9  13 5161.30 701.812   5
   3   9 -13 5550.33 652.124   7
  -3   9  12 2201.63 499.418   5
   3   9 -12 2989.26 501.306   7
  -3   9  11 670.861 350.572   5
   3   9 -11 1111.54 400.216  15
   3   9 -11 1008.32 348.762   7
  -3   9  10 1291.81 394.918   5
   3   9 -10 1171.96 399.725  15
   3   9 -10 1279.00 367.558   7
  -3   9   9 1761.49 422.973   5
  -3   9   9 3910.02 602.106  16
   3   9  -9 3572.72 584.495  15
   3   9  -9 3100.72 491.342   7
  -3   9   9 2154.39 415.029  13
  -3   9   8 7962.49 820.687  16
   3   9  -8 8009.40 847.000  15
   3   9  -8 7163.48 700.340   7
  -3   9   8 7410.04 741.885   5
  -3   9   7 2601.86 467.283   5
  -3   9   7 1861.60 445.727  16
   3   9  -7 2119.30 464.318  15
   3   9  -7 2517.97 447.554   7
  -3   9   6 3801.89 538.250   5
  -3   9   6 4398.92 614.793  16
   3   9  -6 3997.15 577.125  15
   3   9  -6 4495.72 527.071   7
  -3   9   5 1883.84 391.144   5
  -3   9   5 1669.09 407.597  16
   3   9  -5 1232.99 364.598  15
   3   9  -5 1829.10 388.202   7
  -3   9   4 1809.23 389.821   5
   3   9  -4 1529.63 420.696   5
  -3   9   4 2370.70 487.838  16
   3   9  -4 2021.58 456.617  15
   3   9  -4 1593.38 368.079   7
  -3   9   3 550.653 259.709   5
   3   9  -3 360.712 230.863   5
  -3   9   3 864.782 331.239  16
   3   9  -3 402.634 248.570  15
   3   9  -3 518.003 261.043   7
  -3   9   2 3582.47 504.553   5
   3   9  -2 1824.00 431.464   5
  -3   9   2 2678.11 456.556  16
   3   9  -2 2893.31 470.914  15
   3   9  -2 3192.62 504.618   7
   3   9  -2 2687.21 383.542   3
   3   9  -1 3458.43 571.326   5
  -3   9   1 3830.36 494.112   5
  -3   9   1 3855.70 566.470  16
   3   9  -1 3331.27 482.257  15
   3   9  -1 3153.05 420.790   3
   3   9   0 250.371 262.615   5
  -3   9   0 777.101 325.056  16
   3   9   0 25.7674 225.227  15
  -3   9  -1 7701.99 773.610  16
   3   9   1 6741.85 694.301  15
   3   9   1 7514.18 759.773   5
  -3   9  -2 5894.58 700.543  16
   3   9   2 5964.25 603.402  15
   3   9   2 7589.23 807.115   5
  -3   9  -3 17484.9 1170.24  16
   3   9   3 18592.6 1207.11   5
   3   9   4 1143.30 353.459   5
  -3   9  -4 995.633 346.159  16
  -3   9  -5 7161.51 769.880  16
   3   9   5 9386.49 884.302   5
   3   9   6 566.663 361.739   5
  -3   9  -6 640.917 327.174  16
   3   9   7 5099.45 701.651   5
  -3   9  -7 4810.91 656.754  16
   3   9   8 4292.67 650.645   5
  -3   9  -8 4409.35 641.666  16
   3   9   9 821.377 410.250   5
  -3   9  -9 486.243 295.966  16
   3   9  10-452.609 416.724   5
  -3  10  10 582.369 313.641   5
  -3  10   9 594.161 288.549   5
  -3  10   9 873.347 361.625  16
   3  10  -9 384.340 355.726  15
   3  10  -9 548.231 282.483   7
  -3  10   8 2051.14 458.975   5
  -3  10   8 2197.00 525.398  16
   3  10  -8 1773.19 447.601  15
   3  10  -8 2467.81 425.856   7
  -3  10   7 5452.96 680.912   5
  -3  10   7 5378.73 708.764  16
   3  10  -7 5880.48 634.756   7
   3  10  -7 5931.00 756.872  15
  -3  10   6 11245.9 1003.04  16
   3  10  -6 9911.34 808.833   7
   3  10  -6 10316.9 972.729  15
  -3  10   6 11181.3 942.134   5
  -3  10   5 3177.90 522.330   5
  -3  10   5 2970.85 528.851  16
   3  10  -5 3323.13 577.540  15
   3  10  -5 2388.49 429.096   7
  -3  10   4 15362.2 1162.06  16
   3  10  -4 14500.9 968.663   7
   3  10  -4 12954.4 1048.57  15
  -3  10   4 14952.2 1089.62   5
  -3  10   3 2128.79 483.050   5
   3  10  -3 2167.31 456.771   5
  -3  10   3 2470.09 513.391  16
   3  10  -3 2269.21 472.159  15
   3  10  -3 2062.10 389.542   7
  -3  10   2 1127.36 374.749   5
   3  10  -2 1385.56 425.262   5
  -3  10   2 1346.66 378.790  16
   3  10  -2 1588.73 427.402  15
   3  10  -1 2957.88 550.977   5
  -3  10   1 2718.00 491.845   5
  -3  10   1 3164.23 531.111  16
   3  10  -1 2465.05 488.513  15
   3  10   0 364.773 295.760   5
  -3  10   0 1171.12 377.907  16
   3  10   0 1154.81 376.987  15
  -3  10  -1 10814.3 961.179  16
   3  10   1 11351.2 907.450  15
   3  10   1 13559.7 1088.16   5
  -3  10  -2 11817.6 1023.19  16
   3  10   2 11010.3 882.495  15
   3  10   2 11745.1 1063.48   5
   3  10   3 3273.30 592.156   5
  -3  10  -3 2703.43 503.271  16
   3  10   4 1906.36 495.935   5
  -3  10  -4 2535.49 496.047  16
   3  10   5 847.567 349.291   5
  -3  10  -5 1081.90 373.456  16
   3  10   6 2757.82 619.100   5
  -3  10  -6 2299.90 464.774  16
   3  10   7 3602.44 669.704   5
  -3  10  -7 3629.68 601.615  16
   3  10   8 8002.06 933.557   5
  -3  11   8 513.489 428.821  16
  -3  11   7 11726.2 1086.94  16
  -3  11   6 3556.83 637.222  16
  -3  11   5 5734.40 770.937  16
   3  11  -5 4775.30 716.560  15
   3  11  -4 3690.42 615.581  15
  -3  11   4 3997.55 697.856  16
  -3  11   3 10485.0 993.648  16
   3  11  -3 8558.19 886.108  15
   3  11  -3 9073.24 936.009   5
   3  11  -2 758.182 325.318   5
  -3  11   2 1371.45 433.277  16
   3  11  -2 1659.68 454.052  15
   3  11  -1 7417.54 856.781   5
  -3  11   1 6629.65 813.352  16
   3  11  -1 7164.64 791.075  15
   3  11   0 386.170 324.455   5
  -3  11   0 108.368 265.703  16
   3  11   0 727.347 351.019  15
   3  11   1 2012.24 510.844   5
  -3  11  -1 1416.85 462.307  16
   3  11   1 2112.37 462.006  15
   3  11   2-28.2182 311.518   5
  -3  11  -2 760.832 354.959  16
   3  11   3 2435.40 545.990   5
   3  11   4 968.492 442.514   5
   3  11   5 8323.39 940.652   5
   3  12   0 587.875 332.683  15
   4 -11  -5 8284.32 945.078   1
   4 -11  -4 2548.52 623.745   1
   4 -11  -3 496.108 376.912   1
   4 -11  -2 1228.45 477.126   1
   4 -11  -1 4372.46 666.601   1
   4 -11   0 7163.94 842.412   1
   4 -11   1 3759.57 648.803   1
   4 -11   2 987.221 382.026   1
   4 -10  -9 1016.79 417.504   1
   4 -10  -8 1562.96 492.175   1
   4 -10  -7 1824.43 490.076   1
  -4 -10   7 1112.02 390.976  14
   4 -10  -7 965.093 357.361   2
   4 -10  -6 5374.68 741.138   1
  -4 -10   6 4888.02 732.017  14
   4 -10  -6 3696.07 566.017   2
   4 -10  -5 8793.40 881.639   1
  -4 -10   5 7251.22 849.865  14
   4 -10  -5 5912.69 713.041   2
   4 -10  -4 2078.46 502.959   1
  -4 -10   4 1642.87 477.428  14
   4 -10  -4 1032.89 361.490   2
  -4 -10   3 8710.92 905.936  10
   4 -10  -3 9164.49 893.810   1
  -4 -10   3 6703.83 837.317  14
  -4 -10   2 1943.26 504.146  10
   4 -10  -2 3018.63 545.126   1
  -4 -10   2 1934.07 444.071  14
  -4 -10   1 1563.37 428.523  10
   4 -10  -1 2079.05 526.624   1
  -4 -10   1 1564.55 457.099  14
  -4 -10   0 174.496 279.848  10
   4 -10   0 116.262 290.533   1
  -4 -10   0 222.770 314.782  14
   4 -10   0 817.517 341.707   6
  -4 -10  -1 5474.36 733.740  10
   4 -10   1 6574.09 768.105   1
  -4 -10  -1 6198.71 803.472  14
   4 -10   1 5912.48 705.644   6
  -4 -10  -2 1293.94 457.105  10
   4 -10   2 1310.97 444.491   1
   4 -10   2 2279.93 488.564   6
   4 -10   3 11596.6 977.381   1
   4 -10   3 11006.2 997.068   6
   4 -10   4 4412.52 653.793   6
   4 -10   4 5213.67 690.064   1
   4  -9 -12 4524.79 698.534  12
  -4  -9  12 3798.80 637.199  13
   4  -9 -11 1004.53 374.472  12
   4  -9 -10 1981.06 482.390  12
   4  -9  -9 2785.89 522.567   1
  -4  -9   9 2882.48 573.971  14
   4  -9  -9 1815.12 458.113   2
   4  -9  -8 831.461 387.503   1
  -4  -9   8 1817.58 482.029  14
   4  -9  -8 937.354 363.463   2
   4  -9  -7 5122.71 711.343   1
  -4  -9   7 3954.13 653.317  14
   4  -9  -7 4182.54 610.678   2
   4  -9  -6 8713.22 834.355   1
  -4  -9   6 6648.21 826.744  14
   4  -9  -6 6589.40 721.429   2
   4  -9  -5 3179.30 551.988   1
  -4  -9   5 2317.18 494.213  14
   4  -9  -5 1572.75 418.741   2
  -4  -9   4 10334.0 990.124  14
   4  -9  -4 8915.58 809.547   2
  -4  -9   3 1491.26 399.290  10
   4  -9  -3 1608.81 434.309   1
  -4  -9   3 920.715 365.825  14
   4  -9  -3 727.085 259.915   2
  -4  -9   2-66.3322 238.984  10
   4  -9  -2 1106.11 395.376   1
  -4  -9   2 540.557 366.559  14
   4  -9  -2 826.199 284.109   6
  -4  -9   1 876.563 389.884  10
   4  -9  -1 663.841 331.218   1
  -4  -9   1 673.213 314.822  14
   4  -9  -1 1054.48 336.035   6
  -4  -9   0 13388.5 1043.97  10
   4  -9   0 12744.6 982.988   1
  -4  -9   0 12387.1 1085.68  14
   4  -9   0 12437.5 962.467   6
  -4  -9  -1 7186.41 786.469  10
   4  -9   1 7411.65 732.162   1
  -4  -9  -1 5765.57 757.373  14
   4  -9   1 7870.24 781.659   6
  -4  -9  -2 1801.54 478.923  10
  -4  -9  -2 2126.31 512.990  14
   4  -9   2 1979.32 413.907   1
   4  -9   2 2584.23 500.967   6
  -4  -9  -3 12342.1 1045.06  10
   4  -9   3 12463.6 961.697   1
  -4  -9  -3 11852.9 1076.91  14
   4  -9   3 11782.3 1009.50   6
  -4  -9  -4 5666.32 770.599  14
   4  -9   4 6228.44 765.054   6
   4  -9   4 5862.66 677.624   1
  -4  -9  -5 5395.21 756.439  14
   4  -9   5 4155.94 650.460   6
   4  -9   5 4963.05 626.629   1
   4  -9   6 2341.99 535.251   6
   4  -8 -13 6142.17 774.992  12
  -4  -8  13 5998.67 795.242  13
   4  -8 -12 5386.41 709.144  12
  -4  -8  12 4860.76 696.893  13
   4  -8 -11 1706.83 441.389  12
  -4  -8  11 2440.68 504.199  13
   4  -8 -11 1559.55 441.977   2
  -4  -8  10 10754.3 922.242  13
   4  -8 -10 10881.2 964.508   2
   4  -8 -10 12115.3 1013.10  12
  -4  -8   9 12169.7 938.029  13
   4  -8  -9 11001.6 971.851   2
   4  -8  -9 13669.1 1047.72  12
   4  -8  -8 5987.67 696.415  12
   4  -8  -8 5553.83 631.058   1
  -4  -8   8 5586.88 647.479  13
   4  -8  -8 5269.30 656.344   2
   4  -8  -7 543.857 341.181   1
  -4  -8   7 64.8468 270.507  14
   4  -8  -7 669.671 338.899   2
   4  -8  -6 7014.60 745.794   1
  -4  -8   6 5078.83 700.307  14
   4  -8  -6 5495.51 655.935   2
  -4  -8   5 694.809 379.969  14
   4  -8  -5 1024.83 369.074   2
   4  -8  -4 7646.30 748.355   1
  -4  -8   4 6318.05 761.979  14
   4  -8  -4 4932.27 570.924   2
  -4  -8   3 3000.20 490.497  10
   4  -8  -3 4875.21 608.621   1
  -4  -8   3 3714.51 594.593  14
   4  -8  -3 3657.18 487.608   6
   4  -8  -3 2581.52 445.618   2
  -4  -8   2 6475.47 697.173  10
   4  -8  -2 7564.94 703.092   1
  -4  -8   2 6069.49 745.864  14
   4  -8  -2 6328.35 644.129   6
   4  -8  -2 4905.19 536.705   2
  -4  -8   1 4554.00 594.185  10
   4  -8  -1 6487.87 664.126   1
  -4  -8   1 5630.10 728.685  14
   4  -8  -1 5653.32 616.710   6
   4  -8  -1 4058.77 496.678   2
  -4  -8   0 1550.27 423.572  10
   4  -8   0 1043.01 325.321   1
  -4  -8   0 1575.66 423.682  14
   4  -8   0 384.242 232.277   6
  -4  -8  -1 2837.47 494.356  10
   4  -8   1 3946.21 527.619   1
  -4  -8  -1 3899.68 610.634  14
   4  -8   1 3421.33 509.714   6
  -4  -8  -2 2563.66 502.583  10
  -4  -8  -2 1589.36 443.461  14
   4  -8   2 2425.40 436.685   1
   4  -8   2 1846.14 416.502   6
   4  -8   3 8183.62 720.327   1
  -4  -8  -3 7399.05 831.953  14
   4  -8   3 6416.53 725.231   6
  -4  -8  -4 3452.04 609.383  14
   4  -8   4 3352.95 558.136   6
   4  -8   4 4421.02 554.266   1
   4  -8   5 15563.8 1032.13   1
  -4  -8  -5 15851.1 1234.94  14
   4  -8   5 16573.0 1203.31   6
  -4  -8  -6 3364.13 610.031  14
   4  -8   6 2959.55 575.907   6
   4  -8   6 2910.71 519.375   1
  -4  -8  -7 6443.24 817.881  14
   4  -7 -15 8563.51 892.339  12
   4  -7 -14 1581.22 447.478  12
  -4  -7  14 874.964 396.666  13
   4  -7 -13 379.685 249.937  12
  -4  -7  13 1013.20 481.147  13
   4  -7 -13 383.800 358.361   2
  -4  -7  12 9234.12 916.952  13
   4  -7 -12 9545.99 940.529   2
   4  -7 -12 10286.8 898.259  12
  -4  -7  11 18856.5 1248.24  13
   4  -7 -11 19382.9 1286.78   2
   4  -7 -11 20312.1 1255.07  12
   4  -7 -10 7247.00 775.987   2
  -4  -7  10 6999.16 739.167  13
   4  -7 -10 6701.82 730.619  12
   4  -7  -9 4709.85 591.436  12
  -4  -7   9 4799.31 620.605  13
   4  -7  -9 5239.91 683.659   2
  -4  -7   8 5297.94 629.325  13
   4  -7  -8 4532.45 604.785   2
   4  -7  -8 5049.53 614.908  12
   4  -7  -7 10139.4 841.990   1
  -4  -7   7 10259.1 801.290  13
   4  -7  -7 9584.20 836.669   2
   4  -7  -7 10533.5 830.118  12
   4  -7  -6 4874.57 575.333   1
  -4  -7   6 5134.82 566.126  13
   4  -7  -6 4590.60 582.922   2
   4  -7  -5-26.5832 237.789   1
  -4  -7   5 152.151 289.572  14
   4  -7  -5 59.5126 260.250   2
   4  -7  -4 11426.9 835.681   1
  -4  -7   4 9668.28 893.444  14
   4  -7  -4 9680.81 772.219   2
  -4  -7   3 5877.72 621.700  10
   4  -7  -3 5634.29 585.171   1
  -4  -7   3 4791.90 632.852  14
   4  -7  -3 6136.08 614.954   6
   4  -7  -3 5273.15 575.671   2
  -4  -7   2 2077.97 391.767  10
   4  -7  -2 3110.69 464.572   1
  -4  -7   2 2481.44 474.670  14
   4  -7  -2 2538.64 444.727   6
   4  -7  -2 2328.27 379.396   2
  -4  -7   1 5308.01 597.173  10
   4  -7  -1 5537.52 559.581   1
  -4  -7   1 5043.44 662.737  14
   4  -7  -1 4834.63 557.149   6
   4  -7  -1 4548.13 502.972   2
  -4  -7   0 351.020 225.031  10
   4  -7   0 794.480 270.558   1
  -4  -7   0 878.326 347.229  14
   4  -7   0 935.396 328.491   6
   4  -7   0 653.166 236.193   2
  -4  -7  -1 6859.15 675.008  10
   4  -7   1 7220.67 613.380   1
  -4  -7  -1 6573.80 760.867  14
   4  -7   1 6728.33 684.924   6
  -4  -7  -2 4552.23 580.889  10
  -4  -7  -2 3731.27 576.100  14
   4  -7   2 4457.49 513.460   1
   4  -7   2 3277.15 514.721   6
   4  -7   3 10470.7 771.671   1
  -4  -7  -3 8990.27 872.844  14
   4  -7   3 8936.14 840.178   6
   4  -7   4 9462.99 755.438   1
  -4  -7  -4 8051.98 840.900  14
   4  -7   4 7772.64 801.417   6
   4  -7   5 13034.8 891.246   1
  -4  -7  -5 11952.2 1027.50  14
   4  -7   5 13008.6 1039.92   6
   4  -7   6 6382.83 648.539   1
  -4  -7  -6 5006.68 670.382  14
   4  -7   6 5934.07 755.370   6
  -4  -7  -7 2789.15 551.732  14
  -4  -7  -8 82.3344 242.782  14
  -4  -7  -9 1891.92 506.946  14
   4  -6 -16 11416.4 1034.89  12
   4  -6 -15 3378.31 558.144  12
   4  -6 -14 1766.76 420.154  12
  -4  -6  14 893.030 435.815  13
   4  -6 -14 1017.89 355.311   2
   4  -6 -13 2318.38 435.282  12
  -4  -6  13 2783.54 534.237  13
   4  -6 -13 3912.15 615.844   2
   4  -6 -12 2072.45 428.515  12
  -4  -6  12 1754.26 435.096  13
   4  -6 -12 2237.88 482.899   2
   4  -6 -11 3767.95 534.111  12
  -4  -6  11 4183.17 627.078  13
   4  -6 -11 4077.15 603.460   2
   4  -6 -10 1572.44 361.313  12
  -4  -6  10 2078.30 450.513  13
   4  -6 -10 2102.42 445.064   2
  -4  -6   9 18799.7 1154.87  13
   4  -6  -9 18644.1 1181.28   2
   4  -6  -9 20498.7 1148.77  12
   4  -6  -8 6880.45 706.631   2
  -4  -6   8 6121.96 628.058  13
   4  -6  -8 7261.35 675.408  12
  -4  -6   7 22998.6 1209.16  13
   4  -6  -7 24360.2 1307.70   2
   4  -6  -7 25285.6 1256.11  12
   4  -6  -6 233.540 260.506   1
  -4  -6   6 165.784 214.810  13
   4  -6  -6 245.107 249.907   2
   4  -6  -5 3347.27 445.148   1
  -4  -6   5 3229.11 415.031  13
   4  -6  -5 3073.90 464.369   2
   4  -6  -4 9109.66 674.414   1
  -4  -6   4 7139.49 752.565  14
  -4  -6   4 7546.67 576.021  13
   4  -6  -4 6437.05 621.799   2
  -4  -6   3 8119.57 682.504  10
   4  -6  -3 8149.77 631.420   1
  -4  -6   3 6243.25 705.984  14
   4  -6  -3 7143.11 666.868   6
  -4  -6   3 7414.95 536.618  13
   4  -6  -3 7281.66 638.270   2
  -4  -6   2 3053.60 424.482  10
   4  -6  -2 3957.01 441.582   1
  -4  -6   2 2546.75 473.867  14
   4  -6  -2 3079.19 464.836   6
   4  -6  -2 3000.64 412.889   2
  -4  -6   1 2673.47 395.382  10
   4  -6  -1 3565.26 408.588   1
  -4  -6   1 2993.51 497.847  14
   4  -6  -1 2889.48 430.023   6
   4  -6  -1 3074.15 405.470   2
  -4  -6   0 7027.90 650.942  10
   4  -6   0 7765.55 597.560   1
  -4  -6   0 7175.38 746.578  14
   4  -6   0 6922.22 669.625   6
   4  -6   0 6273.32 543.791   2
   4  -6   1 3581.91 415.774   2
  -4  -6  -1 5494.31 591.015  10
   4  -6   1 5036.68 484.586   1
  -4  -6  -1 5008.95 624.814  14
   4  -6   1 5077.29 592.375   6
   4  -6   2 16522.6 869.303   1
  -4  -6  -2 16808.2 1113.21  14
   4  -6   2 15401.1 1010.93   6
   4  -6   3 13838.1 825.803   1
  -4  -6  -3 12268.2 972.197  14
   4  -6   3 12604.4 945.084   6
  -4  -6  -4 1989.58 432.183  14
   4  -6   4 2299.85 450.147   6
   4  -6   4 2097.04 351.800   1
  -4  -6  -5 1431.55 389.396  14
   4  -6   5 1334.91 394.087   6
   4  -6   5 1027.07 311.788   1
  -4  -6  -6 6015.81 716.875  14
   4  -6   6 5826.77 583.877   1
   4  -6   6 4144.50 607.312   6
  -4  -6  -7 8959.18 870.501  14
   4  -6   7 8116.83 835.488   6
  -4  -6  -8 316.517 292.877  14
  -4  -6  -9 4210.47 610.707  14
  -4  -6 -10 3504.15 596.040  14
  -4  -6 -11 584.923 350.482  14
   4  -5 -17 2369.37 495.515  12
   4  -5 -16 3163.03 561.117  12
   4  -5 -15 717.452 341.404  12
  -4  -5  15 915.564 357.129  13
   4  -5 -15 735.440 351.838   2
   4  -5 -14 1396.90 403.098  12
  -4  -5  14 911.673 396.492  13
   4  -5 -14 1292.96 400.401   2
   4  -5 -13 3686.26 527.690  12
  -4  -5  13 2936.84 560.782  13
   4  -5 -13 3222.70 521.630   2
   4  -5 -12 1300.19 354.284  12
  -4  -5  12 1477.72 420.719  13
   4  -5 -12 633.607 312.760   2
   4  -5 -11 66.4212 184.888  12
  -4  -5  11 517.972 350.857  13
   4  -5 -11 702.684 323.068   2
  -4  -5  10 8431.62 783.540  13
   4  -5 -10 7887.69 768.412   2
   4  -5 -10 9212.74 729.147  12
  -4  -5   9 10402.3 839.104  13
   4  -5  -9 13085.1 946.920   2
   4  -5  -9 12238.8 829.023  12
   4  -5  -8 949.100 264.225  12
  -4  -5   8 1377.19 363.642  13
   4  -5  -8 583.701 304.759   2
  -4  -5   7 16412.6 986.130  13
   4  -5  -7 16359.5 1014.91   2
   4  -5  -7 16319.6 924.515  12
  -4  -5   6 14004.6 864.565  13
   4  -5  -6 12885.4 882.838   2
   4  -5  -6 14184.1 838.293  12
   4  -5  -5 22254.5 1033.10   1
  -4  -5   5 22021.1 1060.98  13
   4  -5  -5 21624.9 1130.19   2
   4  -5  -4 5412.27 482.543   1
  -4  -5   4 4090.61 427.262  13
   4  -5  -4 4328.55 499.265   2
  -4  -5   3 2928.56 389.925  10
   4  -5  -3 3338.52 382.677   1
  -4  -5   3 3364.74 518.263  14
   4  -5  -3 3269.52 444.618   6
  -4  -5   3 2971.39 350.193  13
   4  -5  -3 2250.24 363.580   2
  -4  -5   2 8844.17 659.919  10
   4  -5  -2 10091.1 617.733   1
  -4  -5   2 7532.13 743.714  14
   4  -5  -2 7841.10 669.554   6
  -4  -5   2 8621.08 551.464  13
   4  -5  -2 6822.29 584.982   2
  -4  -5   1 528.787 238.997  10
   4  -5  -1 793.215 226.955   1
  -4  -5   1 100.630 247.738  14
   4  -5  -1 686.612 254.279   6
  -4  -5   1 500.893 144.664  13
   4  -5  -1 577.124 235.956   2
   4  -5   0 916.113 234.370   2
  -4  -5   0 1107.20 278.913  10
   4  -5   0 1168.42 234.110   1
  -4  -5   0 1207.45 370.945  14
   4  -5   0 1215.01 329.094   6
   4  -5   1 4203.32 429.733   2
  -4  -5  -1 5288.59 518.398  10
   4  -5   1 5436.86 449.346   1
  -4  -5  -1 5236.07 598.834  14
   4  -5   1 4582.61 537.426   6
   4  -5   2 1775.29 311.211   2
  -4  -5  -2 2783.77 478.483  14
   4  -5   2 2923.86 457.128   6
   4  -5   2 2974.75 344.574   1
   4  -5   3 11061.4 677.278   1
  -4  -5  -3 11312.9 891.721  14
   4  -5   3 11172.1 865.776   6
  -4  -5  -4 14270.7 1004.42  14
   4  -5   4 13823.9 789.077   1
   4  -5   4 13117.8 972.537   6
   4  -5   5 2251.20 355.472   1
  -4  -5  -5 2583.26 456.923  14
   4  -5   5 2307.77 458.989   6
   4  -5   6 2578.24 363.423   1
  -4  -5  -6 2118.37 439.650  14
   4  -5   6 1956.05 432.129   6
  -4  -5  -7 2720.31 463.610  14
   4  -5   7 2234.29 465.309   6
  -4  -5  -8 1660.56 416.136  14
   4  -5   8 2346.61 501.369   6
  -4  -5  -9 3449.88 563.660  14
   4  -5  10 2657.17 447.878   4
  -4  -5 -10 3187.17 546.114  14
  -4  -5 -11 7541.74 821.063  14
  -4  -5 -12 2381.96 500.461  14
   4  -4 -17 4233.50 638.282  12
   4  -4 -16 3163.23 531.738  12
  -4  -4  16 2972.20 631.018  13
   4  -4 -16 2460.02 518.556   2
  -4  -4  15 7629.81 903.901  13
   4  -4 -15 7704.80 785.715  12
   4  -4 -15 6305.71 752.709   2
   4  -4 -14 2668.63 471.693  12
   4  -4 -14 2154.20 415.978   7
  -4  -4  14 3049.52 584.667  13
   4  -4 -14 2299.30 495.219   2
   4  -4 -13 648.871 257.709  12
   4  -4 -13 614.994 256.900   7
  -4  -4  13 979.442 413.370  13
   4  -4 -13 383.448 301.425   2
   4  -4 -12 1967.64 385.212  12
   4  -4 -12 1539.84 316.022   7
  -4  -4  12 1813.55 446.056  13
   4  -4 -12 1236.97 378.107   2
   4  -4 -11 831.422 272.237  12
   4  -4 -11 1269.31 292.052   7
  -4  -4  11 956.431 351.304  13
   4  -4 -11 1424.88 358.074   2
   4  -4 -10 4061.73 465.493  12
   4  -4 -10 4689.15 464.841   7
  -4  -4  10 4840.60 585.308  13
   4  -4 -10 4310.81 553.240   2
   4  -4  -9 3628.18 435.449  12
   4  -4  -9 4227.76 429.685   7
  -4  -4   9 5075.54 588.135  13
   4  -4  -9 3493.11 519.373   2
   4  -4  -8 32147.0 1213.50   7
  -4  -4   8 32051.1 1440.82  13
   4  -4  -8 33205.7 1501.84   2
   4  -4  -8 33096.6 1314.31  12
   4  -4  -7 7264.08 510.097   7
  -4  -4   7 7624.17 659.092  13
   4  -4  -7 7220.71 658.265   2
   4  -4  -7 7884.24 585.692  12
   4  -4  -6 59436.2 1720.31   7
  -4  -4   6 58572.7 1954.29  13
   4  -4  -6 59516.3 2048.57   2
   4  -4  -6 61708.2 1847.74  12
   4  -4  -5 17787.0 779.889   7
  -4  -4   5 17264.8 919.471  13
   4  -4  -5 16198.8 952.767   2
   4  -4  -5 18296.6 851.847  12
   4  -4  -4 5037.28 423.596   1
   4  -4  -4 5195.80 391.929   7
  -4  -4   4 5274.67 477.546  13
   4  -4  -4 4731.04 505.786   2
  -4  -4   3 23724.8 1043.89  10
   4  -4  -3 20614.5 886.762   1
   4  -4  -3 22655.2 861.319   7
  -4  -4   3 21196.3 960.282  13
   4  -4  -3 21365.6 1054.89   2
  -4  -4   2 2462.51 329.303  10
   4  -4  -2 2551.81 295.470   1
  -4  -4   2 2496.31 445.658  14
   4  -4  -2 3115.36 433.990   6
  -4  -4   2 2557.39 311.064  13
   4  -4  -2 2252.03 360.580   2
  -4  -4   1 6978.92 534.211  10
   4  -4  -1 6327.94 434.465   1
  -4  -4   1 5716.54 620.963  14
   4  -4  -1 6465.52 618.819   6
  -4  -4   1 6601.89 472.492  13
   4  -4  -1 6739.66 561.898   2
  -4  -4   0 23780.8 1041.69  10
   4  -4   0 23049.0 879.839   1
  -4  -4   0 23664.7 1229.42  14
   4  -4   0 22572.9 1152.00   6
  -4  -4   0 21360.3 874.697  13
   4  -4   0 20167.0 985.619   2
   4  -4   1 23259.9 892.126   1
  -4  -4  -1 24537.3 1251.71  14
   4  -4   1 22754.8 1172.72   6
  -4  -4  -1 23063.4 857.911  13
   4  -4   1 20845.1 992.750   2
   4  -4   2 1118.61 260.484   2
  -4  -4  -2 1194.25 322.118  14
   4  -4   2 725.971 301.249   6
   4  -4   2 1545.82 251.761   1
   4  -4   3 3485.89 366.919   1
  -4  -4  -3 3112.14 462.835  14
   4  -4   3 3445.65 483.429   6
   4  -4   4 4615.55 420.786   1
  -4  -4  -4 4388.44 530.031  14
   4  -4   4 5766.80 626.164   6
   4  -4   5 828.212 235.303   1
  -4  -4  -5 842.497 280.926  14
   4  -4   5 1041.13 326.602   6
  -4  -4  -6 4548.53 566.845  14
   4  -4   6 4745.89 463.069   1
   4  -4   6 5277.01 625.492   6
  -4  -4  -7 14636.6 1010.03  14
   4  -4   7 14612.7 1067.34   6
   4  -4   8 18822.1 1112.76   4
  -4  -4  -8 19717.9 1200.38  14
   4  -4   8 20121.8 1281.25   6
   4  -4   9 1051.09 334.396   4
  -4  -4  -9 798.030 334.313  14
   4  -4   9 1010.99 344.911   6
   4  -4  10 2769.50 452.526   4
  -4  -4 -10 2705.64 482.595  14
   4  -4  10 2414.77 510.737   6
  -4  -4 -11 2101.60 452.068  14
  -4  -4 -12 7532.84 810.470  14
  -4  -4 -13 1354.51 423.066  14
   4  -3 -18 283.355 308.968  12
   4  -3 -17 1396.13 386.401  12
   4  -3 -17 1517.08 425.375   2
   4  -3 -16 241.334 243.516  12
   4  -3 -16 751.985 325.481   2
   4  -3 -15 1027.29 335.286  12
  -4  -3  15 1304.88 463.798  13
   4  -3 -15 1970.51 430.685   2
   4  -3 -14 3916.67 536.914  12
  -4  -3  14 3937.71 631.543  13
  -4  -3  14 3818.76 537.336   1
   4  -3 -14 4565.96 622.706   2
   4  -3 -13 3751.74 494.139  12
   4  -3 -13 4611.50 542.998   7
  -4  -3  13 3100.15 486.313   1
  -4  -3  13 4547.11 630.705  13
   4  -3 -13 4206.70 574.428   2
   4  -3 -12 583.960 239.159  12
   4  -3 -12 849.790 261.397   7
  -4  -3  12 431.269 235.972   1
  -4  -3  12 654.843 297.930  13
   4  -3 -12 797.747 295.912   2
   4  -3 -11 836.343 263.369  12
   4  -3 -11 640.527 206.628   4
  -4  -3  11 217.708 164.745   1
   4  -3 -11 1069.67 311.167   7
  -4  -3  11 490.972 269.757  13
   4  -3 -11 963.633 319.065   2
   4  -3 -10 2492.99 376.706  12
  -4  -3  10 2233.62 336.162   1
   4  -3 -10 2740.78 376.886   4
   4  -3 -10 2123.95 351.242   7
  -4  -3  10 2642.50 444.429  13
   4  -3 -10 2891.93 462.124   2
   4  -3  -9 436.482 194.605  12
   4  -3  -9 293.344 220.390   7
  -4  -3   9 511.268 279.267  13
   4  -3  -9 699.546 305.831   2
   4  -3  -8 26499.8 1100.30   7
  -4  -3   8 26034.5 1267.51  13
   4  -3  -8 26162.8 1273.91   2
   4  -3  -8 24807.0 1054.52  12
   4  -3  -7 4263.67 422.520   7
  -4  -3   7 5089.76 531.673  13
   4  -3  -7 4796.25 421.461  12
   4  -3  -7 4928.69 538.093   2
   4  -3  -6 58502.5 1723.31   7
  -4  -3   6 53029.4 1850.72  13
   4  -3  -6 55239.8 1911.55   2
   4  -3  -6 55965.6 1638.03  12
   4  -3  -5 47365.6 1486.71   7
  -4  -3   5 44347.0 1597.40  13
   4  -3  -5 46820.6 1683.65   2
   4  -3  -5 47157.0 1415.72  12
   4  -3  -4 32346.1 1062.30   1
   4  -3  -4 33082.8 1165.10   7
  -4  -3   4 32674.7 1266.55  13
   4  -3  -4 31231.9 1327.28   2
   4  -3  -3 12378.4 569.434   1
   4  -3  -3 11852.7 646.619   7
  -4  -3   3 12085.7 709.498  13
   4  -3  -3 11215.7 744.398   2
  -4  -3   2 22199.9 914.659  10
   4  -3  -2 20634.2 742.189   1
   4  -3  -2 19446.6 855.294   7
  -4  -3   2 21289.9 925.688  13
   4  -3  -2 19056.9 967.011   2
  -4  -3   1 9771.87 587.176  10
   4  -3  -1 9091.15 445.240   1
  -4  -3   1 8742.06 707.417  14
   4  -3  -1 8813.00 708.348   6
  -4  -3   1 8593.51 546.622  13
   4  -3  -1 8524.29 620.842   2
  -4  -3   0 11794.6 647.614  10
   4  -3   0 11714.5 512.480   1
  -4  -3   0 12491.9 829.345  14
   4  -3   0 10277.4 763.291   6
  -4  -3   0 10597.2 627.251  13
   4  -3   0 11130.1 706.537   2
   4  -3   1 2815.76 366.073   2
   4  -3   1 3332.52 280.734   1
  -4  -3  -1 4025.30 493.834  14
   4  -3   1 3490.83 474.101   6
  -4  -3  -1 3364.80 339.292  13
  -4  -3  -2 13767.2 893.953  14
   4  -3   2 13166.5 593.129   1
   4  -3   2 13811.3 893.484   6
  -4  -3  -2 13922.7 689.183  13
  -4  -3  -3 10121.7 759.166  14
   4  -3   3 9296.31 518.437   1
   4  -3   3 10011.9 774.502   6
  -4  -3  -3 9758.07 558.387  13
   4  -3   4 776.146 198.079   1
  -4  -3  -4 717.519 237.054  14
   4  -3   4 1386.14 356.290   6
   4  -3   5 9058.13 730.398   4
  -4  -3  -5 9840.99 759.629  14
   4  -3   5 8701.89 763.127   6
   4  -3   5 8026.66 532.511   1
   4  -3   6-104.542 223.599   4
  -4  -3  -6 164.261 201.234  14
   4  -3   6 282.453 244.639   6
   4  -3   7 15815.7 972.991   4
  -4  -3  -7 16918.6 1043.09  14
   4  -3   7 16635.4 1108.93   6
   4  -3   8 7948.19 694.712   8
   4  -3   8 8945.75 725.163   4
  -4  -3  -8 8635.01 755.197  14
   4  -3   8 7882.95 781.435   6
   4  -3   9 2028.50 398.010   8
   4  -3   9 1461.06 348.069   4
  -4  -3  -9 1398.42 358.055  14
   4  -3   9 1695.85 392.521   6
   4  -3  10 3955.62 531.104   8
   4  -3  10 3659.58 486.715   4
  -4  -3 -10 3887.45 555.212  14
   4  -3  10 3649.54 607.751   6
   4  -3  11 3006.86 482.799   8
  -4  -3 -11 3601.71 534.050  14
   4  -3  11 2754.00 533.661   6
   4  -3  12 770.251 292.976   8
  -4  -3 -12 975.951 309.236  14
   4  -3  12 1700.11 417.845   6
  -4  -3 -13 5408.74 675.422  14
   4  -3  13 4812.64 692.808   6
   4  -2 -18 571.149 288.361  12
   4  -2 -18 1111.25 391.259   2
   4  -2 -17 2979.55 517.376  12
  -4  -2  17 3388.15 673.662  13
   4  -2 -17 3329.69 531.429   2
   4  -2 -16 1249.08 346.408  12
  -4  -2  16 1404.42 367.781   1
  -4  -2  16 1303.97 510.447  13
   4  -2 -16 2019.85 454.130   2
   4  -2 -15 1308.12 347.153  12
  -4  -2  15 1456.47 369.888   1
  -4  -2  15 1615.81 476.537  13
   4  -2 -15 1488.26 416.046   2
   4  -2 -14 13.5446 182.837  12
  -4  -2  14 121.000 245.861   1
  -4  -2  14 969.684 434.277  13
   4  -2 -14 420.270 314.504   2
   4  -2 -13 13038.2 907.109   7
  -4  -2  13 11748.8 1022.00  13
   4  -2 -13 12446.8 941.301   2
   4  -2 -13 12102.2 840.023  12
  -4  -2  13 9006.88 776.180   1
   4  -2 -12 2214.88 354.062  12
  -4  -2  12 1273.61 310.775   1
   4  -2 -12 1868.65 365.215   7
  -4  -2  12 2311.08 488.074  13
   4  -2 -12 1745.72 354.577   2
   4  -2 -11 3747.11 441.618  12
   4  -2 -11 4063.07 413.873   4
   4  -2 -11 4772.92 521.683   7
  -4  -2  11 4836.30 591.382  13
  -4  -2  11 3558.37 433.880   1
   4  -2 -11 4386.66 545.922   2
   4  -2 -10 20177.2 951.185   4
   4  -2 -10 21213.9 1064.61   7
  -4  -2  10 19190.1 1149.61  13
   4  -2 -10 21116.2 1148.27   2
   4  -2 -10 18928.8 939.093  12
  -4  -2  10 19036.6 876.714   1
   4  -2  -9 32975.1 1261.25   4
   4  -2  -9 31612.6 1294.66   7
  -4  -2   9 29984.4 1399.29  13
   4  -2  -9 30126.0 1375.27   2
   4  -2  -9 30270.1 1169.71  12
  -4  -2   9 29043.3 1060.91   1
   4  -2  -8 25846.6 1119.14   4
   4  -2  -8 25230.8 1102.18   7
  -4  -2   8 24104.9 1206.58  13
   4  -2  -8 24551.5 1202.52   2
   4  -2  -8 23409.8 964.163  12
  -4  -2   8 23693.0 860.215   1
   4  -2  -7 2190.55 268.305  12
   4  -2  -7 3260.57 421.914   4
   4  -2  -7 3309.58 389.440   7
  -4  -2   7 3219.78 439.147  13
   4  -2  -7 2553.80 396.651   2
  -4  -2   6 8930.95 511.138  16
   4  -2  -6 11797.3 751.068   4
   4  -2  -6 12243.6 697.021   7
  -4  -2   6 10833.4 742.117  13
   4  -2  -6 10165.6 740.496   2
   4  -2  -6 10732.8 551.404  12
   4  -2  -5 5015.98 497.317   4
   4  -2  -5 5110.98 461.625   7
  -4  -2   5 5332.10 522.315  13
   4  -2  -5 4928.57 512.273   2
   4  -2  -5 4140.17 314.472  12
   4  -2  -4 535.093 223.998   2
   4  -2  -4 438.925 137.709   1
   4  -2  -4 501.455 252.642   4
   4  -2  -4 89.4402 163.258   7
  -4  -2   4 506.519 197.592  13
   4  -2  -3 3914.21 436.834   2
   4  -2  -3 3584.52 250.566   1
   4  -2  -3 4045.29 392.093   7
   4  -2  -3 3683.29 436.800   4
  -4  -2   3 3389.73 397.909  13
   4  -2  -2 4191.95 445.564   2
  -4  -2   2 2695.37 197.259  11
   4  -2  -2 3612.94 238.219   1
   4  -2  -2 4882.66 419.840   7
  -4  -2   2 4221.33 406.584  13
   4  -2  -1 132.349 176.419   2
  -4  -2   1-1.55712 110.925  10
   4  -2  -1 355.995 229.794   4
  -4  -2   1 62.9531 172.037  14
   4  -2  -1 54.1596 60.6374   1
   4  -2  -1 334.587 213.091   6
  -4  -2   1 153.805 139.505  13
  -4  -2   0 24887.2 899.901  10
   4  -2   0 26558.3 1167.46   4
   4  -2   0 23186.6 656.797   1
  -4  -2   0 24206.2 1128.77  14
   4  -2   0 24005.1 1169.48   6
  -4  -2   0 23527.3 996.363  13
   4  -2   0 21298.7 1028.24   2
   4  -2   1 18647.1 976.569   4
  -4  -2  -1 15869.7 896.054  14
   4  -2   1 16316.3 543.952   1
   4  -2   1 17062.2 979.786   6
   4  -2   2 5275.03 539.142   4
  -4  -2  -2 5257.35 515.201  14
   4  -2   2 4872.78 529.040   6
   4  -2   3 31303.2 1331.76   8
   4  -2   3 28559.5 1284.56   4
  -4  -2  -3 29569.3 1277.70  14
   4  -2   3 30328.7 1389.72   6
   4  -2   4 1489.44 356.558   8
   4  -2   4 2336.07 401.448   4
  -4  -2  -4 1897.04 325.785  14
   4  -2   4 2243.25 419.711   6
   4  -2   5 7675.02 659.520   8
   4  -2   5 7219.29 651.864   4
  -4  -2  -5 8441.51 660.008  14
   4  -2   5 8231.61 739.764   6
   4  -2   6 10856.0 769.169   4
   4  -2   6 12518.0 848.395   8
  -4  -2  -6 11669.0 798.395  14
   4  -2   6 11097.6 863.619   6
   4  -2   7 8423.83 688.554   4
   4  -2   7 9939.49 761.843   8
  -4  -2  -7 8916.43 715.611  14
   4  -2   7 8460.63 783.072   6
   4  -2   8 628.712 324.756   8
   4  -2   8 54.3121 213.222   4
  -4  -2  -8 153.171 209.749  14
   4  -2   8-37.9690 200.825   6
   4  -2   9 4794.41 554.267   8
   4  -2   9 5140.22 558.621   4
  -4  -2  -9 4902.64 561.211  14
   4  -2   9 5148.44 631.108   6
   4  -2  10 4338.39 539.710   8
   4  -2  10 3889.55 480.235   4
  -4  -2 -10 5101.73 597.595  14
   4  -2  10 5541.00 656.019   6
   4  -2  11 6015.05 637.751   8
  -4  -2 -11 7764.22 721.980  14
   4  -2  11 6986.50 786.097   6
   4  -2  12 1131.67 352.009   8
  -4  -2 -12 1601.33 361.470  14
   4  -2  12 838.652 304.839   6
   4  -2  13 6174.99 677.695   8
   4  -2  13 7292.97 829.548   6
   4  -2  14 960.900 387.843   6
   4  -1 -19 576.218 298.800  12
   4  -1 -18 680.937 310.749  12
   4  -1 -18 589.972 306.443   2
  -4  -1  18 356.279 351.332   1
   4  -1 -17 3308.85 530.625  12
  -4  -1  17 3991.34 589.543   1
  -4  -1  17 3794.60 661.298  13
   4  -1 -17 4834.42 620.745   2
   4  -1 -16 4436.71 586.499  12
  -4  -1  16 5965.83 785.543  13
  -4  -1  16 5240.82 619.314   1
   4  -1 -16 6013.00 688.061   2
  -4  -1  15 7373.90 750.009   1
  -4  -1  15 9131.74 916.338  13
   4  -1 -15 9786.42 838.306   2
   4  -1 -15 8062.37 734.730  12
  -4  -1  14 7041.12 704.900   1
   4  -1 -14 8907.21 799.003   7
  -4  -1  14 7873.78 833.571  13
   4  -1 -14 8533.08 774.256   2
   4  -1 -14 7818.82 692.110  12
   4  -1 -13 1606.20 336.583  12
  -4  -1  13 1182.87 344.582   1
   4  -1 -13 1209.89 362.293   7
  -4  -1  13 2218.99 498.911  13
   4  -1 -13 1046.54 342.336   2
  -4  -1  12 10741.6 814.470   1
   4  -1 -12 15492.2 976.893   7
  -4  -1  12 13905.8 1033.34  13
   4  -1 -12 14569.2 955.624   2
   4  -1 -12 13712.8 823.092  12
   4  -1 -11 2072.41 322.313  12
  -4  -1  11 2068.62 356.136   1
   4  -1 -11 2184.59 316.438   4
   4  -1 -11 2376.46 403.555   7
  -4  -1  11 2176.71 442.878  13
   4  -1 -11 2501.01 438.787   2
   4  -1 -10 3724.37 381.977  12
  -4  -1  10 3652.63 391.746   1
   4  -1 -10 5311.33 454.844   4
   4  -1 -10 4969.15 525.787   7
  -4  -1  10 4143.93 553.473  13
   4  -1 -10 4166.01 499.218   2
   4  -1  -9 2142.38 285.959  12
   4  -1  -9 2556.18 329.801   4
  -4  -1   9 2247.16 278.136   1
   4  -1  -9 1857.89 340.534   7
  -4  -1   9 2183.85 407.177  13
   4  -1  -9 2854.97 426.075   2
  -4  -1   8 20448.1 793.109   1
   4  -1  -8 21839.2 986.530   4
   4  -1  -8 22008.9 1043.01   7
  -4  -1   8 20296.6 1084.03  13
   4  -1  -8 20015.3 1043.98   2
   4  -1  -8 18591.6 806.384  12
   4  -1  -7 2659.70 385.169   2
  -4  -1   7 2468.00 241.148  16
   4  -1  -7 3232.35 396.951   4
   4  -1  -7 3230.74 398.110   7
  -4  -1   7 3311.96 438.386  13
   4  -1  -7 2705.61 276.771  12
   4  -1  -6 2662.47 400.123   2
  -4  -1   6 2550.71 262.939  16
   4  -1  -6 3325.40 401.597   4
   4  -1  -6 3542.59 415.702   7
  -4  -1   6 3224.22 433.932  13
   4  -1  -6 3000.01 257.135  12
  -4  -1   5 14105.5 677.068  16
   4  -1  -5 18964.4 891.564   7
   4  -1  -5 18231.2 915.401   4
  -4  -1   5 17156.3 924.553  13
   4  -1  -5 17760.6 921.997   2
   4  -1  -5 14920.2 549.150  12
   4  -1  -4 9618.11 668.962   4
  -4  -1   4 8368.77 531.941  16
   4  -1  -4 10054.7 637.774   7
  -4  -1   4 10132.7 661.106  13
   4  -1  -4 8453.89 634.974   2
   4  -1  -3 18536.2 941.035   4
  -4  -1   3 14922.8 775.964  16
   4  -1  -3 18725.2 880.930   7
  -4  -1   3 18542.2 910.569  13
   4  -1  -3 16295.8 894.834   2
  -4  -1   2 12915.4 511.766  11
   4  -1  -2 18063.7 858.058   7
  -4  -1   2 16879.3 843.161  13
   4  -1  -2 17028.2 891.232   4
   4  -1  -2 16470.1 858.031   2
   4  -1  -1 3879.57 423.397   2
  -4  -1   1 3716.09 284.999  11
   4  -1  -1 4625.51 479.427   4
   4  -1  -1 3909.19 403.218   7
  -4  -1   0 2555.36 230.009  10
   4  -1   0 2407.94 382.864   8
   4  -1   0 3381.63 446.022   4
  -4  -1   0 2245.75 338.527  14
  -4  -1  -1 16727.7 648.271  10
   4  -1   1 16542.4 910.022   4
   4  -1   1 17162.7 942.081   8
  -4  -1  -1 16866.5 871.550  14
   4  -1   1 17228.7 970.105   6
   4  -1   2 9083.73 673.311   4
   4  -1   2 10455.2 759.602   8
  -4  -1  -2 10328.3 669.379  14
   4  -1   2 9849.08 738.405   6
   4  -1   3 9569.57 695.152   4
   4  -1   3 8979.17 709.996   8
  -4  -1  -3 9390.45 634.867  14
   4  -1   3 8880.19 715.527   6
   4  -1   4 78775.2 2384.59   4
   4  -1   4 83535.9 2471.73   8
  -4  -1  -4 80780.2 2312.54  14
   4  -1   4 79515.7 2492.81   6
   4  -1   5 28144.9 1246.62   4
   4  -1   5 27991.2 1292.23   8
  -4  -1  -5 27682.0 1181.09  14
   4  -1   5 28377.8 1330.38   6
   4  -1   6 25842.8 1206.06   4
   4  -1   6 26844.0 1277.53   8
  -4  -1  -6 26503.3 1172.54  14
   4  -1   6 25567.3 1299.88   6
   4  -1   7 11083.6 767.820   4
   4  -1   7 10786.2 802.357   8
  -4  -1  -7 11111.6 752.849  14
   4  -1   7 9949.52 807.079   6
   4  -1   8 9734.65 733.316   4
   4  -1   8 9583.20 764.522   8
  -4  -1  -8 10780.1 745.185  14
   4  -1   8 10150.6 840.670   6
   4  -1   9 5409.96 566.716   4
   4  -1   9 5744.32 607.845   8
  -4  -1  -9 5177.09 549.305  14
   4  -1   9 4211.37 557.868   6
   4  -1  10 2461.22 397.408   4
   4  -1  10 2530.97 442.796   8
  -4  -1 -10 2124.37 368.336  14
   4  -1  10 2601.77 465.341   6
   4  -1  11 2724.54 462.076   8
   4  -1  11 3382.08 523.984   6
   4  -1  12 116.477 246.291   8
  -4  -1 -12-99.9162 276.907  16
   4  -1  12 30.6223 211.679   6
   4  -1  13 421.738 284.079   8
  -4  -1 -13 481.385 285.798  16
   4  -1  13 1018.40 377.296   6
  -4  -1 -14 5602.87 769.080  16
   4  -1  14 6552.91 765.343   6
   4   0 -18 14622.7 1105.44  12
   4   0 -17 411.992 295.002   2
  -4   0  17 599.290 422.404  13
   4   0 -17 325.233 217.784  12
   4   0 -16 3853.18 540.451   2
  -4   0  16 4231.26 725.101  13
   4   0 -16 3966.15 562.985  12
   4   0 -15 5612.42 687.106   7
  -4   0  15 4874.92 649.233  13
   4   0 -15 3692.58 514.139  12
   4   0 -15 4785.02 580.089   2
   4   0 -14 10084.1 857.783   7
  -4   0  14 8756.85 878.197  13
   4   0 -14 8254.13 753.422   2
   4   0 -14 7705.10 683.495  12
   4   0 -13 6339.51 677.955   7
  -4   0  13 6838.45 755.948  13
   4   0 -13 6577.23 651.383   2
   4   0 -13 5669.61 557.160  12
   4   0 -12 1060.78 327.878   2
   4   0 -12 1889.65 404.427   7
  -4   0  12 991.029 354.368  13
   4   0 -12 1140.29 278.868  12
   4   0 -11 870.838 268.731   2
   4   0 -11 1003.68 296.913   7
  -4   0  11 1062.13 360.007  13
   4   0 -11 1383.34 260.980  12
   4   0 -10 1073.61 220.188  12
   4   0 -10 1230.14 307.710   2
   4   0 -10 1299.50 266.193   4
   4   0 -10 1205.76 307.227   7
  -4   0  10 843.416 298.267  13
   4   0  -9 13098.1 742.509   4
   4   0  -9 13837.1 863.107   7
  -4   0   9 12666.0 878.598  13
   4   0  -9 14307.6 862.969   2
   4   0  -9 12130.2 644.770  12
   4   0  -8 55.8870 117.661  12
   4   0  -8-95.5186 186.351   2
   4   0  -8-66.1313 164.718   4
   4   0  -8 237.130 231.147   7
  -4   0   8 183.309 243.245  13
   4   0  -7 38388.2 1365.08   4
  -4   0   7 30592.1 1009.56  16
   4   0  -7 37987.9 1417.19   7
  -4   0   7 34714.3 1433.18  13
   4   0  -7 36541.7 1412.53   2
   4   0  -7 32393.8 1013.36  12
   4   0  -6 157.988 90.6075  12
   4   0  -6 15.9304 206.107   2
  -4   0   6 312.027 146.926  16
   4   0  -6 150.952 193.121   4
   4   0  -6 101.896 172.012   7
  -4   0   6 60.6085 204.968  13
   4   0  -5 2705.46 379.496   2
   4   0  -5 2792.32 369.145   4
  -4   0   5 2193.34 255.010  16
   4   0  -5 3007.93 383.971   7
  -4   0   5 2249.55 349.014  13
   4   0  -5 1457.40 133.790  12
   4   0  -4 743.698 257.036   2
   4   0  -4 886.922 266.998   4
  -4   0   4 566.657 148.546  16
   4   0  -4 336.647 189.577   7
  -4   0   4 692.231 224.378  13
   4   0  -3 693.623 249.595   2
   4   0  -3 833.503 286.706   4
  -4   0   3 529.584 171.934  16
   4   0  -3 485.729 182.777   7
   4   0  -2 32759.9 1311.50   4
   4   0  -2 34854.7 1314.57   8
  -4   0   2 31495.5 1218.03  16
   4   0  -2 35166.8 1312.07   7
  -4   0   1 9810.77 511.591  11
   4   0  -1 11787.8 739.884   4
   4   0  -1 11975.8 749.798   8
  -4   0   1 11199.6 686.469  16
   4   0  -1 11767.0 716.204   7
  -4   0   0 4477.17 360.236  11
  -4   0   0 5206.92 481.416  16
   4   0   0 4776.36 492.453   8
   4   0   0 4437.10 477.706   4
  -4   0   0 4599.34 421.937  14
  -4   0  -1 34629.0 1197.38  11
  -4   0  -1 36485.4 948.389  10
   4   0   1 36485.7 1408.81   4
  -4   0  -1 35919.9 1400.43  16
   4   0   1 36020.9 1419.79   8
  -4   0  -1 37052.7 1295.63  14
   4   0   2 69396.8 2164.67   4
  -4   0  -2 69029.9 2205.71  16
   4   0   2 75077.1 2238.95   8
  -4   0  -2 75878.9 2060.53  14
   4   0   2 71514.2 2254.83   6
   4   0   3 1775.03 377.813   8
   4   0   3 1493.13 332.597   4
  -4   0  -3 1824.44 339.828  16
  -4   0  -3 1193.66 220.770  14
   4   0   3 2122.15 375.892   6
   4   0   4 185851. 4442.46   4
  -4   0  -4 182515. 4564.65  16
   4   0   4 183993. 4490.77   8
  -4   0  -4 192550. 4244.22  14
   4   0   4 185824. 4539.99   6
   4   0   5 19365.8 1013.86   4
  -4   0  -5 19968.2 1114.76  16
   4   0   5 20888.6 1097.15   8
  -4   0  -5 19464.4 908.406  14
   4   0   5 18944.7 1069.25   6
   4   0   6 1848.09 381.129   4
   4   0   6 1831.51 367.402   8
  -4   0  -6 1383.05 342.782  16
  -4   0  -6 2021.18 297.786  14
   4   0   6 1114.15 319.066   3
   4   0   6 1631.39 351.471   6
   4   0   7 1337.51 329.866   4
   4   0   7 1261.37 332.113   8
  -4   0  -7 929.976 314.432  16
  -4   0  -7 1593.60 280.219  14
   4   0   7 1176.85 320.579   3
   4   0   7 1132.41 298.003   6
   4   0   8 5865.34 606.228   8
   4   0   8 5485.01 555.691   4
  -4   0  -8 5379.70 619.489  16
  -4   0  -8 5672.02 512.595  14
   4   0   8 5555.12 596.215   3
   4   0   8 5361.27 592.605   6
   4   0   9 724.374 277.406   4
   4   0   9 840.852 297.479   8
  -4   0  -9 144.129 227.179  16
   4   0   9 743.437 288.140   3
   4   0   9 844.687 315.785   6
   4   0  10 337.631 236.446   4
   4   0  10 513.301 332.868   8
  -4   0 -10 530.539 291.553  16
   4   0  10 176.565 218.594   3
   4   0  10-164.607 208.282   6
   4   0  11 3587.37 525.013   8
  -4   0 -11 2669.97 512.125  16
   4   0  11 3152.01 488.655   3
   4   0  11 4256.06 577.721   6
   4   0  12 3882.09 565.746   8
  -4   0 -12 4190.14 614.260  16
   4   0  12 3568.12 528.756   3
   4   0  12 3938.03 571.542   6
   4   0  13 440.326 279.763   8
  -4   0 -13-24.9472 239.660  16
   4   0  13 143.271 233.475   3
   4   0  13 158.054 223.903   6
   4   0  14 1238.53 406.727   8
  -4   0 -14 340.237 275.551  16
   4   1 -17 4499.95 679.808   7
  -4   1  17 4005.30 652.216  13
   4   1 -17 3088.38 506.330  12
   4   1 -16 7224.94 800.021   7
  -4   1  16 7320.05 850.583  13
   4   1 -16 5940.96 644.549   2
   4   1 -16 4528.19 574.553  12
   4   1 -15 10011.9 888.103   7
  -4   1  15 8199.47 872.808  13
   4   1 -15 7986.59 714.536   2
   4   1 -15 6667.16 651.059  12
   4   1 -14 9874.25 865.843   7
  -4   1  14 8522.64 886.920  13
   4   1 -14 8623.06 738.081   2
   4   1 -14 6975.94 640.523  12
   4   1 -13 1330.78 312.378   2
   4   1 -13 744.931 313.314   7
  -4   1  13 701.648 315.268  13
   4   1 -13 1150.37 282.529  12
   4   1 -12 15527.5 1020.11   7
  -4   1  12 13331.2 978.233  13
   4   1 -12 14594.6 908.350   2
   4   1 -12 11800.6 759.797  12
   4   1 -11 2794.64 418.919   2
   4   1 -11 2295.40 433.106   7
  -4   1  11 2082.41 430.824  13
   4   1 -11 2132.34 307.031  12
   4   1 -10 4321.95 494.656   2
   4   1 -10 4704.42 534.265   7
  -4   1  10 4002.35 526.176  13
   4   1 -10 3784.13 379.576  12
   4   1  -9 2706.73 402.675   2
   4   1  -9 2571.81 414.666   7
  -4   1   9 2109.41 391.154  13
   4   1  -9 1842.28 247.472  12
   4   1  -8 19468.7 943.625   4
   4   1  -8 20826.5 1062.83   7
  -4   1   8 20546.0 1113.83  13
   4   1  -8 19697.4 1016.01   2
   4   1  -8 16509.5 714.775  12
   4   1  -7 2789.80 397.562   2
   4   1  -7 2751.97 380.299   4
  -4   1   7 2324.63 251.453  16
   4   1  -7 3359.91 444.497   7
  -4   1   7 2274.93 393.962  13
   4   1  -7 2241.17 227.521  12
   4   1  -6 3511.62 424.370   2
  -4   1   6 3195.74 308.924  16
   4   1  -6 3112.76 381.322   4
   4   1  -6 2916.62 406.043   7
  -4   1   6 4049.64 495.287  13
   4   1  -6 2285.45 192.390  12
   4   1  -5 18502.7 928.689   4
  -4   1   5 15412.8 744.807  16
   4   1  -5 17428.1 921.074   7
  -4   1   5 17201.1 965.114  13
   4   1  -5 18071.0 941.954   2
   4   1  -4 9776.94 675.683   4
  -4   1   4 8496.85 551.691  16
   4   1  -4 8191.01 615.581   7
   4   1  -3 17994.8 939.619   4
  -4   1   3 17054.9 831.447  16
   4   1  -3 16352.1 874.601   8
   4   1  -3 17524.5 905.985   7
   4   1  -2 17465.3 921.991   4
  -4   1   2 15712.6 823.913  16
   4   1  -2 17965.6 913.199   8
   4   1  -2 18028.2 924.087   7
  -4   1   1 4369.23 366.236  11
   4   1  -1 4602.50 491.864   4
  -4   1   1 3840.77 410.465  16
   4   1  -1 3718.12 447.963   8
   4   1  -1 4080.86 448.133   7
  -4   1   0 2330.25 286.240  11
   4   1   0 2704.37 394.264   4
   4   1   0 2804.12 408.629   8
   4   1   0 1663.65 326.251   7
  -4   1   0 2785.98 368.773  16
  -4   1   0 2705.37 311.820  14
  -4   1  -1 15140.4 765.062  11
   4   1   1 16988.7 910.208   4
  -4   1  -1 16653.4 906.801  16
   4   1   1 17409.7 924.920   8
  -4   1  -1 16193.2 752.351  14
  -4   1  -2 9546.96 628.748  11
   4   1   2 9660.82 707.220   4
  -4   1  -2 9627.07 709.944  16
   4   1   2 10887.9 732.774   8
  -4   1  -2 10385.1 570.774  14
   4   1   2 8745.12 397.561   5
  -4   1  -3 9020.02 629.894  11
   4   1   3 9909.59 705.036   4
  -4   1  -3 8735.71 697.526  16
   4   1   3 8990.31 697.527   8
  -4   1  -3 9553.11 553.193  14
   4   1   3 9584.45 724.548   3
   4   1   3 7929.54 422.514   5
   4   1   4 78792.0 2369.47   4
  -4   1  -4 78093.3 2459.27  16
   4   1   4 83404.9 2440.84   8
  -4   1  -4 81462.2 2073.26  14
   4   1   4 80065.1 2427.38   3
   4   1   4 78062.2 2399.97   6
   4   1   4 72556.9 1923.61   5
   4   1   5 26178.2 1229.53   4
  -4   1  -5 29237.0 1359.72  16
   4   1   5 28383.5 1293.30   8
  -4   1  -5 28829.9 1045.47  14
   4   1   5 24451.4 1271.91   3
   4   1   5 28531.0 1290.33   6
   4   1   5 25533.0 995.604   5
   4   1   6 26173.0 1225.98   4
  -4   1  -6 24846.2 1288.43  16
   4   1   6 27908.5 1307.04   8
  -4   1  -6 27142.1 1026.02  14
   4   1   6 24599.0 1251.02   3
   4   1   6 24628.6 1217.03   6
   4   1   6 23941.5 1006.40   5
   4   1   7 11663.8 806.667   4
  -4   1  -7 10211.5 837.737  16
   4   1   7 11692.2 858.095   8
   4   1   7 9567.14 780.510   3
   4   1   7 10729.7 784.962   6
   4   1   7 9678.29 656.085   5
  -4   1  -8 9032.04 821.546  16
   4   1   8 9789.57 786.703   8
   4   1   8 8570.77 737.841   3
   4   1   8 9462.45 750.476   6
   4   1   9 4945.59 584.163   8
  -4   1  -9 5456.84 642.019  16
   4   1   9 4209.92 523.798   3
   4   1   9 4724.88 546.415   6
   4   1  10 2038.30 451.856   8
  -4   1 -10 2019.14 467.585  16
   4   1  10 1809.54 393.058   3
   4   1  10 2228.47 394.922   6
   4   1  11 3312.43 508.609   8
  -4   1 -11 2699.13 536.349  16
   4   1  11 2302.01 427.808   3
   4   1  11 3023.11 476.081   6
   4   1  12-30.3019 292.211   8
  -4   1 -12 257.431 246.185  16
   4   1  12 471.972 314.042   3
   4   1  13 730.818 295.490   8
  -4   1 -13 880.777 346.042  16
   4   1  13 640.868 278.235   3
   4   1  14 6216.23 728.943   8
  -4   1 -14 5555.67 743.692  16
   4   1  14 4408.95 634.053   3
   4   2 -17 3573.17 607.395   7
  -4   2  17 3135.80 618.821  13
   4   2 -16 1744.44 458.564   7
  -4   2  16 1890.14 514.021  13
   4   2 -16 639.543 268.062  12
   4   2 -15 1028.33 293.623   2
   4   2 -15 1710.83 419.730   7
  -4   2  15 1609.42 470.620  13
   4   2 -15 763.260 277.601  12
   4   2 -14 456.370 265.415   2
   4   2 -14 785.828 384.720   7
  -4   2  14 642.958 330.094  13
   4   2 -14 40.9032 184.361  12
   4   2 -13 14750.0 1046.46   7
  -4   2  13 11557.3 943.625  13
   4   2 -13 12493.6 850.661   2
   4   2 -13 10150.7 740.170  12
   4   2 -12 1589.81 319.535   2
   4   2 -12 2765.37 471.603   7
  -4   2  12 2370.23 495.515  13
   4   2 -12 1379.56 289.222  12
   4   2 -11 4320.18 482.729   2
   4   2 -11 3813.10 530.217   7
  -4   2  11 4033.10 552.117  13
   4   2 -11 3701.35 411.586  12
   4   2 -10 20496.3 1139.09   7
  -4   2  10 18349.3 1090.75  13
   4   2 -10 19772.1 1020.90   2
   4   2 -10 16856.9 828.989  12
  -4   2   9 28115.0 1359.27  13
   4   2  -9 25092.5 987.887  12
   4   2  -9 27684.5 1253.39   2
  -4   2   8 22586.9 875.594  16
   4   2  -8 24405.8 1186.27   7
  -4   2   8 24376.5 1227.19  13
   4   2  -8 19250.7 795.684  12
   4   2  -8 23993.9 1120.60   2
  -4   2   7 1952.32 241.197  16
   4   2  -7 3131.18 440.242   7
  -4   2   7 2559.04 439.245  13
   4   2  -7 2291.13 230.917  12
  -4   2   6 10922.0 613.573  16
   4   2  -6 12624.8 820.021   7
  -4   2   6 9965.41 768.871  13
  -4   2   5 4945.11 419.550  16
   4   2  -5 4589.29 434.461   8
   4   2  -5 4586.12 482.594   7
   4   2  -4 446.496 195.380   8
  -4   2   4 349.538 159.974  16
   4   2  -4 975.160 303.805   7
   4   2  -3 3715.07 430.660   4
   4   2  -3 3709.96 423.055   8
  -4   2   3 3403.43 369.920  16
   4   2  -3 3908.63 445.395   7
   4   2  -2 4441.33 472.264   4
   4   2  -2 4093.63 432.816   8
  -4   2   2 3654.00 404.428  16
   4   2  -2 4888.02 494.815   7
   4   2  -1 267.111 214.705   4
   4   2  -1 44.2793 216.478   8
  -4   2   1 323.403 184.464  16
   4   2  -1 28.2945 197.929   7
  -4   2   0 23075.8 992.481  11
   4   2   0 23600.8 1115.42   4
  -4   2   0 22908.6 1089.87  16
   4   2   0 26187.8 1139.69   8
   4   2   0 25683.0 1176.87   7
  -4   2   0 23642.4 883.110  14
   4   2   0 22819.4 738.688   5
  -4   2  -1 17825.7 871.048  11
   4   2   1 17959.4 976.301   4
  -4   2  -1 15429.0 912.434  16
   4   2   1 16629.8 935.835   8
  -4   2  -1 16908.1 702.337  14
   4   2   1 17429.3 965.074   3
   4   2   1 16417.2 616.791   5
  -4   2  -2 4008.26 439.445  11
   4   2   2 5530.27 560.702   4
   4   2   2 4934.69 535.486   8
  -4   2  -2 4465.75 486.214  16
  -4   2  -2 5677.30 379.878  14
   4   2   2 5155.02 545.076   3
   4   2   2 4687.75 329.310   5
  -4   2  -3 28347.8 1224.92  11
  -4   2  -3 29721.4 1335.26  16
   4   2   3 31015.3 1322.74   8
  -4   2  -3 30254.7 967.280  14
   4   2   3 29370.5 1323.57   3
   4   2   3 27684.8 966.786   5
   4   2   4 1865.19 265.612   5
  -4   2  -4 2053.63 338.554  11
  -4   2  -4 1822.17 333.508  16
   4   2   4 2234.34 408.121   3
  -4   2  -5 7069.28 638.456  11
  -4   2  -5 7512.28 682.008  16
   4   2   5 8220.09 689.115   3
   4   2   5 7449.12 520.741   5
  -4   2  -6 10570.1 785.242  11
  -4   2  -6 10879.6 860.289  16
   4   2   6 13296.1 894.558   3
   4   2   6 11639.2 697.416   5
  -4   2  -7 8483.47 735.397  11
  -4   2  -7 8226.31 764.648  16
   4   2   7 9749.39 774.260   3
   4   2   7 8431.50 685.509   6
   4   2   7 8143.86 626.435   5
   4   2   8-122.672 163.688   5
  -4   2  -8-96.9456 202.810  16
   4   2   8-86.6178 213.585   3
   4   2   8 208.021 218.686   6
  -4   2  -9 4328.84 617.897  16
   4   2   9 5274.66 608.489   3
   4   2   9 4552.54 532.710   6
  -4   2 -10 4025.31 596.146  16
   4   2  10 4026.41 544.967   3
   4   2  10 4083.07 511.046   6
  -4   2 -11 6268.87 725.452  16
   4   2  11 6424.82 693.390   3
  -4   2 -12 1814.47 433.461  16
   4   2  12 1010.81 390.875   3
  -4   2 -13 7205.28 831.493  16
   4   2  13 5300.30 666.979   3
   4   2  14 1665.68 476.590   8
   4   2  14 822.793 355.683   3
  -4   3  17 2209.73 569.503  13
   4   3 -16 1250.44 402.474   7
  -4   3  16 639.535 344.646  13
   4   3 -15 1562.32 455.737   7
  -4   3  15 1021.35 396.020  13
   4   3 -14 4667.97 628.474   7
  -4   3  14 3435.11 572.056  13
   4   3 -14 3488.46 478.441  12
  -4   3  13 4070.78 598.752  13
   4   3 -13 3011.91 430.263  12
   4   3 -12 795.759 365.316   7
  -4   3  12 246.430 273.055  13
   4   3 -12 493.128 216.310  12
   4   3 -11 687.862 366.939   7
  -4   3  11 887.540 358.343  13
   4   3 -11 581.041 199.495  12
   4   3 -10 2469.48 437.421   7
  -4   3  10 2243.98 408.168  13
   4   3 -10 2107.01 297.402  12
   4   3  -9 340.524 286.734   7
  -4   3   9-142.866 234.213  13
   4   3  -9-234.010 140.133  12
  -4   3   8 24558.5 997.359  16
   4   3  -8 26758.1 1276.59   7
  -4   3   8 25572.8 1285.23  13
   4   3  -8 21068.1 861.102  12
  -4   3   7 4783.23 427.695  16
   4   3  -7 5163.51 562.107   7
  -4   3   7 4845.46 569.625  13
  -4   3   6 54812.2 1724.77  16
   4   3  -6 56064.1 1682.36   8
   4   3  -6 57730.4 1975.08   7
  -4   3   5 45399.9 1545.21  16
   4   3  -5 47192.5 1515.10   8
   4   3  -5 46376.0 1724.12   7
  -4   3   4 32596.3 1269.71  16
   4   3  -4 34009.0 1267.05   8
   4   3  -4 32970.0 1389.95   7
  -4   3   3 10749.3 698.116  16
   4   3  -3 12542.2 742.272   8
   4   3  -3 10252.4 740.953   7
  -4   3   2 20380.9 1010.13  16
   4   3  -2 20843.8 1006.63   8
   4   3  -2 21257.0 1083.97   7
  -4   3   1 8222.49 640.150  16
   4   3  -1 9613.68 681.950   8
   4   3  -1 8242.96 657.942   7
   4   3  -1 9983.50 703.183   3
   4   3  -1 8457.33 479.803   5
  -4   3   0 12943.0 808.994  16
   4   3   0 11796.0 771.306   8
   4   3   0 11857.6 804.327   7
   4   3   0 11495.4 767.996   3
  -4   3   0 11494.2 525.950  14
   4   3   0 11539.3 582.028   5
  -4   3  -1 3124.61 388.126  11
  -4   3  -1 3596.48 462.872  16
   4   3   1 2771.43 423.279   3
   4   3   1 3239.00 314.948   5
  -4   3  -2 12513.0 799.058  11
  -4   3  -2 13572.5 870.485  16
   4   3   2 14372.6 893.411   3
   4   3   2 13897.6 662.464   5
  -4   3  -3 10616.6 743.155  11
  -4   3  -3 9006.16 724.612  16
   4   3   3 9557.14 733.484   3
   4   3   3 9962.79 582.823   5
   4   3   4 1072.33 234.563   5
  -4   3  -4 709.828 241.902  11
  -4   3  -4 737.997 283.973  16
   4   3   4 913.512 310.898   3
  -4   3  -5 8918.66 732.162  11
  -4   3  -5 8929.55 763.207  16
   4   3   5 9840.51 775.471   3
   4   3   5 8940.31 609.757   5
   4   3   6-201.040 153.805   5
  -4   3  -6 72.5717 217.488  11
  -4   3  -6-186.991 231.286  16
   4   3   6 427.742 277.091   3
  -4   3  -7 16153.7 1034.14  11
  -4   3  -7 15891.8 1068.95  16
   4   3   7 15529.2 1029.72   3
   4   3   7 15556.3 909.922   5
  -4   3  -8 8161.74 764.759  11
  -4   3  -8 8033.26 775.696  16
   4   3   8 8369.30 749.243   3
   4   3   8 7866.45 678.904   5
   4   3   9 1670.20 376.094   5
  -4   3  -9 1222.49 357.379  11
  -4   3  -9 1528.07 395.529  16
   4   3   9 1332.62 379.791   3
  -4   3 -10 2870.50 498.857  11
  -4   3 -10 3062.49 527.269  16
   4   3  10 3708.27 563.550   3
  -4   3 -11 2451.75 507.894  11
  -4   3 -11 2673.96 572.204  16
   4   3  11 2031.52 458.613   3
  -4   3 -12 1161.62 399.763  11
  -4   3 -12 1446.90 418.703  16
   4   3  12 1157.98 381.931   3
  -4   3 -13 4670.24 697.525  16
   4   3  13 3941.80 619.945   3
  -4   4  17 6084.98 789.570  13
   4   4 -16 3981.50 641.412   7
  -4   4  16 2876.32 556.436  13
   4   4 -15 8246.06 864.636   7
  -4   4  15 6364.03 764.051  13
   4   4 -14 2981.83 511.031   7
  -4   4  14 2489.01 503.208  13
   4   4 -13 1189.75 395.929   7
  -4   4  13 656.346 358.086  13
   4   4 -12 1621.58 397.117   7
  -4   4  12 1990.40 414.287  13
   4   4 -11 1164.38 379.381   7
  -4   4  11 809.846 331.117  13
   4   4 -10 4516.96 573.310   7
  -4   4  10 3310.39 506.918  13
   4   4  -9 4382.46 552.938   7
  -4   4   9 4384.24 562.815  13
  -4   4   8 34130.3 1298.92  16
   4   4  -8 30918.5 1442.48   7
  -4   4   8 30286.6 1465.48  13
  -4   4   7 7997.98 607.577  16
   4   4  -7 7890.73 700.266   7
  -4   4   6 61581.9 1930.81  16
   4   4  -6 58133.9 1749.07   8
   4   4  -6 57767.2 2049.88   7
  -4   4   5 18341.5 948.655  16
   4   4  -5 18023.8 859.372   8
   4   4  -5 16723.5 1004.62   7
  -4   4   4 5148.31 520.164  16
   4   4  -4 5437.88 476.571   8
   4   4  -4 5134.43 550.878   7
  -4   4   3 21477.4 1061.72  16
   4   4  -3 20823.4 987.889   8
   4   4  -3 21050.8 1121.10   7
   4   4  -2 2417.28 303.078   5
  -4   4   2 2714.16 395.472  16
   4   4  -2 2199.90 340.579   8
   4   4  -2 2576.15 414.184   7
   4   4  -2 2837.54 390.542   3
  -4   4   1 6033.30 560.251  16
   4   4  -1 5380.79 581.602   7
   4   4  -1 6457.14 584.600   3
   4   4  -1 6557.56 487.001   5
  -4   4   0 22740.7 1137.57  16
   4   4   0 23171.5 1186.82   7
   4   4   0 21006.8 1102.32   3
   4   4   0 22730.0 941.233   5
  -4   4  -1 23208.6 1185.93  16
   4   4   1 24369.6 1190.44   3
   4   4   1 23607.1 976.318   5
  -4   4  -2 1572.81 352.681  11
   4   4   2 951.244 232.291   5
  -4   4  -2 1585.00 374.222  16
   4   4   2 649.350 250.520   3
  -4   4  -3 3484.06 459.982  11
  -4   4  -3 3643.55 494.717  16
   4   4   3 3792.54 500.987   3
   4   4   3 4098.46 404.630   5
  -4   4  -4 4956.31 551.219  11
  -4   4  -4 5002.45 581.759  16
   4   4   4 4932.94 572.896   3
   4   4   4 5308.64 489.738   5
   4   4   5 966.438 262.848   5
  -4   4  -5 1184.30 316.960  11
  -4   4  -5 1096.97 352.553  16
   4   4   5 1485.48 357.081   3
   4   4   6 4526.74 499.040   5
  -4   4  -6 5462.15 612.354  11
  -4   4  -6 4702.68 583.349  16
   4   4   6 4522.80 575.190   3
  -4   4  -7 13040.4 964.844  11
  -4   4  -7 14193.2 1020.61  16
   4   4   7 12290.9 941.186   3
   4   4   7 12785.3 861.494   5
  -4   4  -8 17859.2 1174.57  11
  -4   4  -8 19884.4 1240.97  16
   4   4   8 20300.6 1212.32   3
   4   4   8 18311.8 1094.87   5
   4   4   9 833.407 300.190   5
  -4   4  -9 349.484 227.298  11
  -4   4  -9 474.786 307.323  16
   4   4   9 717.939 307.564   3
   4   4  10 3363.48 523.593   5
  -4   4 -10 3126.92 542.349  11
  -4   4 -10 3003.68 524.177  16
   4   4  10 2197.98 448.703   3
  -4   4 -11 2327.50 498.241  11
  -4   4 -11 2834.95 529.488  16
   4   4  11 1980.33 431.746   3
  -4   4 -12 5376.52 746.456  11
  -4   4 -12 6433.39 756.840  16
   4   4  12 5267.79 705.921   3
  -4   5  17 1388.88 424.635  13
  -4   5  16 4743.81 701.833  13
   4   5 -15 1186.10 443.505   7
  -4   5  15 131.939 315.703  13
   4   5 -14 1439.80 407.721   7
  -4   5  14 937.043 378.768  13
   4   5 -13 3028.48 543.874   7
  -4   5  13 2601.49 503.856  13
   4   5 -12 1171.65 359.700   7
  -4   5  12 510.684 315.001  13
   4   5 -11 969.265 380.915   7
  -4   5  11 686.260 351.447  13
   4   5 -10 8704.09 787.099   7
  -4   5  10 8953.18 803.299  13
   4   5  -9 13821.1 969.047   7
  -4   5   9 10819.7 878.830  13
  -4   5   8 1145.63 294.267  16
   4   5  -8 858.736 298.028   7
  -4   5   8 1671.86 412.105  13
  -4   5   7 18289.5 1002.80  16
   4   5  -7 17583.4 1077.53   7
  -4   5   6 13700.1 862.639  16
   4   5  -6 12879.8 705.425   8
   4   5  -6 13355.9 925.402   7
  -4   5   5 22704.5 1132.37  16
   4   5  -5 22979.3 987.317   8
   4   5  -5 19493.6 1114.87   7
   4   5  -4 4513.16 441.313   8
  -4   5   4 4438.19 505.962  16
   4   5  -4 4055.72 506.549   7
  -4   5   3 3285.98 441.905  16
   4   5  -3 2293.10 348.217   8
   4   5  -3 2770.69 430.959   7
  -4   5   2 8355.55 695.936  16
   4   5  -2 7799.56 701.837   7
   4   5  -2 8878.52 689.975   3
   4   5  -2 8155.19 604.681   5
   4   5  -1 632.330 211.992   5
  -4   5   1 666.036 289.278  16
   4   5  -1 95.2616 231.807   7
   4   5  -1 576.008 223.202   3
   4   5   0 1361.22 269.994   5
  -4   5   0 1358.73 321.888  16
   4   5   0 1175.84 306.153   7
   4   5   0 951.323 292.513   3
  -4   5  -1 5137.08 564.304  16
   4   5   1 4918.25 534.390   3
   4   5   1 4868.65 467.596   5
   4   5   2 2670.86 354.885   5
  -4   5  -2 2335.77 421.472  16
   4   5   2 2153.15 383.045   3
  -4   5  -3 12488.6 889.951  11
  -4   5  -3 10858.0 853.372  16
   4   5   3 10119.6 790.659   3
   4   5   3 10767.0 721.556   5
  -4   5  -4 13750.7 964.220  11
  -4   5  -4 12932.7 944.930  16
   4   5   4 14112.4 956.035   3
   4   5   4 14267.9 851.492   5
   4   5   5 1966.51 369.136   5
  -4   5  -5 2702.76 445.678  11
  -4   5  -5 2524.45 448.706  16
   4   5   5 2244.65 422.424   3
   4   5   6 2307.09 396.096   5
  -4   5  -6 2221.67 456.946  11
  -4   5  -6 1845.52 426.301  16
   4   5   6 2174.03 435.157   3
   4   5   7 1975.59 401.401   5
  -4   5  -7 1800.91 405.343  11
  -4   5  -7 2048.62 465.523  16
   4   5   7 2343.79 455.431   3
   4   5   8 1556.83 365.239   5
  -4   5  -8 1911.06 410.552  11
  -4   5  -8 2049.69 457.259  16
   4   5   8 1819.57 415.841   3
   4   5   9 2273.02 439.022   5
  -4   5  -9 3058.02 548.688  11
  -4   5  -9 2208.48 491.525  16
   4   5   9 3451.79 567.404   3
   4   5  10 1780.36 401.961   5
  -4   5 -10 3346.37 585.726  11
  -4   5 -10 2804.73 536.530  16
   4   5  10 2587.21 494.721   3
  -4   5 -11 6145.10 765.247  11
  -4   5 -11 7564.64 812.888  16
   4   5  11 7312.15 800.064   3
  -4   5 -12 1554.35 441.862  16
  -4   6  16 11352.1 1021.19  13
  -4   6  15 3128.11 541.254  13
   4   6 -14 1469.49 409.137   7
  -4   6  14 1128.78 423.716  13
   4   6 -13 3464.70 544.596   7
  -4   6  13 4121.71 578.729  13
   4   6 -12 1824.18 415.985   7
  -4   6  12 2221.33 491.684  13
   4   6 -11 4327.41 589.786   7
  -4   6  11 3703.82 548.338  13
   4   6 -10 1397.46 409.112   7
  -4   6  10 1237.24 343.618  13
  -4   6   9 20127.6 1101.85  16
   4   6  -9 19920.9 1204.87   7
  -4   6   9 17595.4 1144.87  13
  -4   6   8 6401.31 627.243  16
   4   6  -8 6507.53 668.337   7
  -4   6   8 6753.27 703.593  13
  -4   6   7 25726.4 1281.52  16
   4   6  -7 23796.9 1293.74   7
  -4   6   6 75.3584 230.343  16
   4   6  -6 214.087 261.118   7
  -4   6   5 3678.43 491.439  16
   4   6  -5 3497.45 390.424   8
   4   6  -5 3421.73 492.693   7
  -4   6   4 7113.12 658.771  16
   4   6  -4 7495.46 576.114   8
   4   6  -4 7082.65 673.979   7
  -4   6   3 6768.50 656.031  16
   4   6  -3 6617.14 653.268   7
   4   6  -3 6487.46 599.247   3
   4   6  -3 7852.03 619.491   5
   4   6  -2 2676.72 391.530   5
  -4   6   2 2833.81 432.917  16
   4   6  -2 3530.04 496.225   7
   4   6  -2 2975.84 418.965   3
   4   6  -1 3198.94 426.731   5
  -4   6   1 2831.72 423.418  16
   4   6  -1 2952.18 461.033   7
   4   6  -1 2867.77 425.950   3
  -4   6   0 7142.16 690.410  16
   4   6   0 6874.20 618.755   3
   4   6   0 7078.04 613.128   5
  -4   6  -1 4040.47 542.306  16
   4   6   1 4874.93 543.952   3
   4   6   1 5739.90 562.816   5
  -4   6  -2 14978.2 1020.19  16
   4   6   2 13495.3 926.545   3
   4   6   2 15060.7 910.559   5
  -4   6  -3 11792.5 919.302  16
   4   6   3 12303.8 898.928   3
   4   6   3 13636.9 880.000   5
   4   6   4 2410.77 412.256   5
  -4   6  -4 2150.23 439.629  16
   4   6   4 1948.01 378.283   3
  -4   6  -5 1535.05 367.379  11
   4   6   5 713.849 250.849   5
  -4   6  -5 544.343 312.427  16
   4   6   5 935.632 337.320   3
   4   6   6 5892.75 625.693   5
  -4   6  -6 5115.51 642.046  11
  -4   6  -6 5461.39 675.146  16
   4   6   6 4964.07 605.138   3
  -4   6  -7 8975.01 855.680  11
  -4   6  -7 7576.10 793.546  16
   4   6   7 8159.63 809.147   3
   4   6   7 8505.69 790.145   5
   4   6   8 219.538 251.021   5
  -4   6  -8 619.923 333.878  11
  -4   6  -8 919.658 339.086  16
   4   6   8 1063.29 408.302   3
   4   6   9 3211.64 571.500   5
  -4   6  -9 3182.50 545.797  11
  -4   6  -9 3027.74 543.044  16
   4   6   9 3675.91 575.728   3
   4   6  10 1926.70 464.074   5
  -4   6 -10 3611.02 635.231  11
  -4   6 -10 1953.66 459.773  16
   4   6  10 1924.55 449.527   3
  -4   6 -11 742.931 359.590  16
  -4   7  14 1303.52 428.917  13
   4   7 -13 288.314 323.345   7
  -4   7  13 268.007 313.454  13
   4   7 -12 9139.49 910.510  15
   4   7 -12 8129.09 829.315   7
  -4   7  12 8791.03 849.368  13
   4   7 -11 18887.0 1281.11  15
   4   7 -11 20416.5 1276.88   7
  -4   7  11 17242.5 1179.19  13
   4   7 -10 7649.50 816.870  15
   4   7 -10 8221.06 797.016   7
  -4   7  10 5623.21 681.819  13
  -4   7   9 5538.05 611.114  16
   4   7  -9 5346.59 681.251  15
   4   7  -9 4377.27 579.822   7
  -4   7   9 5181.87 646.156  13
  -4   7   8 4777.12 589.333  16
   4   7  -8 4402.67 630.987  15
   4   7  -8 4589.90 603.325   7
  -4   7   7 10327.0 851.580  16
   4   7  -7 10139.0 908.891  15
   4   7  -7 9462.59 807.269   7
  -4   7   6 6033.84 655.869  16
   4   7  -6 4726.92 615.015  15
   4   7  -6 5539.96 627.375   7
  -4   7   5-3.26293 213.987  16
   4   7  -5 300.776 287.977  15
   4   7  -5-63.7264 210.642   7
  -4   7   4 10962.3 866.609  16
   4   7  -4 9964.62 824.750   7
   4   7  -4 8195.85 646.144   3
  -4   7   3 5975.70 661.151  16
   4   7  -3 5953.26 663.947   7
   4   7  -3 5861.87 569.435   3
   4   7  -3 6625.54 630.053   5
   4   7  -2 2369.82 388.577   5
  -4   7   2 2388.61 430.102  16
   4   7  -2 2548.43 462.761   7
   4   7  -2 2437.81 387.301   3
   4   7  -1 4545.52 545.590   5
  -4   7   1 4565.81 572.845  16
   4   7  -1 5421.88 616.815   7
   4   7  -1 4538.66 523.392   3
   4   7   0 461.903 236.675   5
  -4   7   0 973.246 329.389  16
   4   7   0 598.828 230.877   3
  -4   7  -1 6809.20 692.194  16
   4   7   1 6120.34 615.005   3
   4   7   1 6014.49 622.171   5
  -4   7  -2 4359.95 587.802  16
   4   7   2 3826.59 531.669   3
   4   7   2 5311.84 594.452   5
  -4   7  -3 8785.20 830.015  16
   4   7   3 8324.11 764.808   3
   4   7   3 9606.01 783.724   5
  -4   7  -4 7343.92 760.242  16
   4   7   4 7499.54 754.237   3
   4   7   4 8798.49 776.783   5
  -4   7  -5 13774.7 1058.21  16
   4   7   5 12811.0 997.793   3
   4   7   5 13244.1 979.127   5
   4   7   6 5473.11 657.856   5
  -4   7  -6 5064.04 671.166  16
   4   7   6 5195.80 638.655   3
   4   7   7 2231.27 468.600   5
  -4   7  -7 3424.72 567.261  16
   4   7   7 1876.12 463.977   3
   4   7   8 97.3795 250.926   5
  -4   7  -8 13.2125 254.235  11
  -4   7  -8 471.754 324.660  16
   4   7   8 19.4737 232.844   3
   4   7   9 2115.46 500.934   5
  -4   7  -9 2437.93 530.024  11
  -4   7  -9 2048.62 504.530  16
   4   7   9 2284.74 486.612   3
   4   8 -12 6199.70 783.187  15
   4   8 -12 5751.21 708.154   7
  -4   8  12 4253.38 605.751  13
   4   8 -11 2825.56 565.837  15
   4   8 -11 1833.48 442.626   7
  -4   8  11 1909.07 468.052  13
   4   8 -10 11807.2 1054.33  15
   4   8 -10 12553.7 985.721   7
  -4   8  10 10945.5 956.110  13
  -4   8   9 14617.1 1056.29  16
   4   8  -9 12237.5 1055.10  15
   4   8  -9 14303.2 1041.36   7
  -4   8   9 13607.0 1043.42  13
  -4   8   8 7088.97 749.172  16
   4   8  -8 6399.91 769.520  15
   4   8  -8 5860.08 661.085   7
  -4   8   7-225.999 245.744  16
   4   8  -7 280.833 341.518  15
   4   8  -7 405.393 321.612   7
  -4   8   6 7226.20 749.576  16
   4   8  -6 6102.41 738.527  15
   4   8  -6 5537.25 624.974   7
  -4   8   5 1553.71 408.322  16
   4   8  -5 490.776 293.852  15
   4   8  -5 1142.97 361.732   7
  -4   8   4 6659.63 714.095  16
   4   8  -4 5597.10 686.437  15
   4   8  -4 6509.23 713.952   7
   4   8  -3 4192.76 546.792   5
  -4   8   3 3736.12 551.992  16
   4   8  -3 3547.44 560.424  15
   4   8  -3 3365.55 540.330   7
   4   8  -3 3536.21 443.910   3
   4   8  -2 5423.91 637.903   5
  -4   8   2 6180.19 705.842  16
   4   8  -2 6909.03 727.015   7
   4   8  -2 5581.98 565.879   3
   4   8  -1 4453.55 576.062   5
  -4   8   1 5127.34 655.700  16
   4   8  -1 4297.97 512.446   3
   4   8   0 520.739 275.661   5
  -4   8   0 1240.99 361.252  16
   4   8   0 1083.13 299.231   3
   4   8   1 3627.13 526.064   5
  -4   8  -1 3794.25 564.688  16
   4   8   1 3769.83 508.719   3
   4   8   2 1951.78 418.296   5
  -4   8  -2 1596.91 417.601  16
   4   8   2 2174.16 434.248   3
  -4   8  -3 6688.88 750.642  16
   4   8   3 6224.34 672.298   3
   4   8   3 6647.90 712.579   5
   4   8   4 4321.01 602.273   5
  -4   8  -4 3650.70 591.289  16
   4   8   4 2990.17 530.054   3
  -4   8  -5 15799.6 1181.75  16
   4   8   5 14763.6 1094.13   3
   4   8   5 15306.1 1093.97   5
   4   8   6 2737.12 514.337   5
  -4   8  -6 2523.63 495.209  16
   4   8   6 2788.49 510.576   3
  -4   8  -7 6562.72 784.336  16
   4   8   7 6606.12 772.971   3
   4   8   7 7329.59 825.711   5
   4   8   8 4928.67 692.077   5
   4   8   9 782.700 399.654   5
   4   9 -11 497.155 342.153   7
   4   9 -10 1513.66 414.602   7
  -4   9  10 1343.62 350.367  13
  -4   9   9 2959.21 562.013  16
   4   9  -9 2818.84 585.622  15
   4   9  -9 2936.81 506.888   7
  -4   9   9 2948.37 557.503  13
  -4   9   8 1448.73 404.529  16
   4   9  -8 1388.23 400.037  15
   4   9  -8 1311.17 389.535   7
  -4   9   7 5397.91 686.843  16
   4   9  -7 4271.66 623.389  15
   4   9  -7 4815.14 616.320   7
  -4   9   6 8734.21 877.049  16
   4   9  -6 8321.01 888.940  15
   4   9  -6 7981.04 780.334   7
  -4   9   5 2151.71 481.435  16
   4   9  -5 2091.86 480.146  15
   4   9  -5 2471.33 499.484   7
  -4   9   4 11379.5 978.446  16
   4   9  -4 10376.1 886.317   7
   4   9  -4 9025.39 905.281  15
   4   9  -3 1055.13 353.037   5
  -4   9   3 1355.24 375.993  16
   4   9  -3 1294.24 392.861  15
   4   9  -3 1177.33 374.226   7
   4   9  -2 839.836 294.135   5
  -4   9   2 462.515 282.372  16
   4   9  -2 1152.62 401.523  15
   4   9  -1 717.888 319.872   5
  -4   9   1 787.491 331.712  16
   4   9  -1 953.693 285.266   3
  -4   9   0 12065.7 1020.87  16
   4   9   0 10376.4 829.785   3
   4   9   0 12198.6 997.915   5
  -4   9  -1 6174.88 745.803  16
   4   9   1 5591.86 633.288   3
   4   9   1 7170.33 778.154   5
   4   9   2 2005.48 464.981   5
  -4   9  -2 2166.38 472.927  16
   4   9   2 1653.49 383.989   3
  -4   9  -3 10780.1 1002.33  16
   4   9   3 11249.6 952.129   3
   4   9   3 12040.7 1020.22   5
   4   9   4 5974.61 731.393   5
  -4   9  -4 4999.93 704.440  16
   4   9   4 4339.84 631.103   3
   4   9   5 5190.48 707.930   5
  -4   9  -5 5088.18 729.317  16
   4   9   5 3446.62 598.592   3
   4   9   6 1763.34 464.965   5
   4   9   7 2468.81 552.756   5
   4   9   8 1086.80 411.825   5
   4  10  -9 816.311 349.765   7
  -4  10   8 2129.43 521.145  16
   4  10  -8 1783.13 436.209   7
  -4  10   7 1142.89 394.632  16
   4  10  -7 1041.39 416.357   7
  -4  10   6 5676.34 757.606  16
   4  10  -6 6330.93 709.468   7
  -4  10   5 8079.45 867.014  16
   4  10  -5 8218.49 800.749   7
   4  10  -5 7118.37 849.550  15
  -4  10   4 1164.47 402.138  16
   4  10  -4 1293.99 465.510  15
   4  10  -4 1861.98 456.911   7
  -4  10   3 8166.76 887.274  16
   4  10  -3 7157.95 830.543  15
   4  10  -3 7501.46 800.071   5
   4  10  -2 2624.06 528.923   5
  -4  10   2 1921.85 471.624  16
   4  10  -2 2217.95 514.499  15
   4  10  -1 1847.90 448.868   5
  -4  10   1 2328.82 491.263  16
   4  10   0 326.255 314.344   5
  -4  10   0 1182.75 386.256  16
   4  10   1 5130.05 707.491   5
  -4  10  -1 5197.14 711.979  16
   4  10   1 5215.05 628.998   3
   4  10   2 865.405 355.952   5
   4  10   2 949.040 314.551   3
   4  10   3 10434.0 920.065   3
   4  10   3 11494.3 1048.69   5
   4  10   4 3748.62 657.049   5
   4  10   5 594.931 378.510   5
   4  10   6 9216.24 997.865   5
   4  11  -2 449.786 347.850   5
   4  11  -1 5161.82 750.818   5
   4  11   0 6486.68 835.448   5
   4  11   1 2508.21 532.619   5
   5  -9  -6 475.590 316.311   2
   5  -9  -5 398.203 336.445   2
  -5  -9   2 1151.88 398.581  10
   5  -9  -2 1169.14 370.092   6
  -5  -9   1 677.962 310.256  10
   5  -9  -1 453.255 263.245   6
  -5  -9   0 328.610 354.159  10
   5  -9   0 517.879 299.111   6
  -5  -9  -1 4097.83 621.591  10
   5  -9   1 4393.45 639.928   6
   5  -8  -8 564.912 314.029   2
  -5  -8   7 2295.52 542.956  14
   5  -8  -7 2615.60 510.414   2
  -5  -8   6 7786.93 931.055  14
   5  -8  -6 7888.63 804.736   2
  -5  -8   5 382.835 316.530  14
   5  -8  -5 328.149 279.830   2
  -5  -8   4 1098.52 447.502  14
   5  -8  -4 1583.20 405.823   2
  -5  -8   3 3068.46 591.853  14
   5  -8  -3 1972.42 403.327   2
  -5  -8   2 240.457 300.350  10
  -5  -8   2 657.288 360.948  14
   5  -8  -2 281.026 228.146   6
  -5  -8   1 1755.49 432.194  10
  -5  -8   1 2351.38 543.707  14
   5  -8  -1 1929.84 452.453   6
  -5  -8   0 295.667 277.128  10
  -5  -8   0 714.216 351.644  14
   5  -8   0 806.407 337.534   6
  -5  -8  -1 2556.75 485.400  10
  -5  -8  -1 2359.19 541.626  14
   5  -8   1 2931.08 556.858   6
  -5  -8  -2 7016.03 758.855  10
  -5  -8  -2 7789.67 906.965  14
   5  -8   2 6255.73 773.055   6
  -5  -8  -3 8355.76 835.756  10
   5  -8   3 7930.20 876.219   6
  -5  -8  -4 7734.78 801.610  10
  -5  -7  12 1003.49 454.223  13
  -5  -7  11 5427.25 723.724  13
  -5  -7  10 7990.86 842.465  13
   5  -7 -10 8185.34 884.393   2
   5  -7  -9 407.932 350.552   2
   5  -7  -8 949.284 388.976   2
  -5  -7   7 1705.97 496.103  14
   5  -7  -7 2397.50 474.831   2
  -5  -7   6 2971.62 596.743  14
   5  -7  -6 2828.20 497.037   2
  -5  -7   5 2270.72 544.916  14
   5  -7  -5 3528.46 525.502   2
  -5  -7   4 4657.38 696.430  14
   5  -7  -4 4337.44 568.660   2
  -5  -7   3 1599.29 499.535  14
   5  -7  -3 993.884 309.004   2
   5  -7  -2 150.965 218.605   2
  -5  -7   2 301.363 243.083  10
  -5  -7   2 587.595 373.522  14
   5  -7  -2 857.910 324.476   6
   5  -7  -1 933.873 302.970   2
  -5  -7   1 1255.57 362.023  10
  -5  -7   1 1635.19 466.930  14
   5  -7  -1 2214.02 472.776   6
  -5  -7   0 249.974 222.735  10
  -5  -7   0 854.113 352.389  14
   5  -7   0 444.085 327.283   6
  -5  -7  -1 353.814 246.755  10
  -5  -7  -1 965.175 381.729  14
   5  -7   1 686.636 283.572   6
  -5  -7  -2 10590.4 870.933  10
  -5  -7  -2 10332.6 993.033  14
   5  -7   2 9024.00 889.506   6
  -5  -7  -3 8624.76 805.596  10
  -5  -7  -3 9144.73 946.422  14
   5  -7   3 9429.26 910.421   6
  -5  -7  -4 2371.12 441.764  10
  -5  -7  -4 2855.50 577.282  14
   5  -7   4 1895.31 473.010   6
  -5  -7  -5 4459.69 664.152  14
   5  -7   5 4498.02 699.033   6
  -5  -6  13 1053.95 438.136  13
  -5  -6  12 3491.52 614.684  13
  -5  -6  11 4523.92 629.656  13
   5  -6 -11 3587.62 605.837   2
  -5  -6  10 2097.62 485.779  13
   5  -6 -10 2859.23 541.506   2
  -5  -6   9 3629.81 559.922  13
   5  -6  -9 3389.17 575.084   2
  -5  -6   8 4198.30 567.226  13
   5  -6  -8 4033.50 602.966   2
  -5  -6   7 1069.32 303.505  13
   5  -6  -7 1327.76 395.277   2
   5  -6  -6 523.642 298.849   2
  -5  -6   5 2671.15 548.420  14
   5  -6  -5 2907.52 479.012   2
  -5  -6   4 1077.00 402.029  14
   5  -6  -4 854.213 322.736   2
   5  -6  -3 2088.68 410.110   2
  -5  -6   3 1529.97 439.538  14
   5  -6  -2 2473.22 426.748   2
  -5  -6   2 3156.38 458.171  10
  -5  -6   2 2370.93 501.733  14
   5  -6  -2 2951.32 484.999   6
   5  -6  -1 3.17388 165.662   2
  -5  -6   1-153.867 218.897  10
  -5  -6   1 155.385 256.696  14
   5  -6  -1-263.985 266.697   6
   5  -6   0 2499.15 387.651   2
  -5  -6   0 4381.48 541.817  10
  -5  -6   0 3759.15 591.178  14
   5  -6   0 4291.42 594.220   6
  -5  -6  -1 5046.93 575.776  10
  -5  -6  -1 4640.91 664.148  14
   5  -6   1 5101.30 658.404   6
  -5  -6  -2 2686.17 454.654  10
  -5  -6  -2 1533.84 403.025  14
   5  -6   2 2127.04 452.146   6
  -5  -6  -3 1835.79 394.685  10
  -5  -6  -3 1983.11 467.910  14
   5  -6   3 1598.80 455.956   6
  -5  -6  -4 1991.08 471.077  14
   5  -6   4 1971.89 443.961   6
  -5  -6  -5 2158.44 480.056  14
   5  -6   5 2279.98 529.059   6
  -5  -6  -6 3500.43 601.512  14
   5  -6   6 3004.84 582.066   6
  -5  -6  -7 750.304 346.219  14
   5  -6   8 1162.23 414.780   4
   5  -6   9 4363.19 653.155   4
  -5  -5  13 476.854 363.478  13
   5  -5 -13 882.286 379.079   2
  -5  -5  12 4792.13 688.688  13
   5  -5 -12 3017.89 539.724   2
  -5  -5  11 2855.31 529.611  13
   5  -5 -11 2841.49 549.817   2
  -5  -5  10 7947.13 815.660  13
   5  -5 -10 7559.77 810.563   2
  -5  -5   9 4423.56 600.444  13
   5  -5  -9 3694.93 568.813   2
  -5  -5   8 2322.79 438.008  13
   5  -5  -8 1606.12 404.712   2
  -5  -5   7 1601.44 382.826  13
   5  -5  -7 1029.65 359.837   2
  -5  -5   6 3402.05 493.413  13
   5  -5  -6 2858.25 483.223   2
  -5  -5   5 4854.75 529.510  13
   5  -5  -5 5181.50 609.041   2
   5  -5  -4 4233.85 547.230   2
  -5  -5   4 4068.54 615.355  14
  -5  -5   4 3802.60 439.481  13
   5  -5  -3 1458.89 350.875   2
  -5  -5   3 1377.29 398.271  14
  -5  -5   2 13481.4 844.419  10
  -5  -5   2 12787.6 1019.78  14
   5  -5  -2 9391.94 773.078   2
   5  -5  -1 4547.86 525.089   2
  -5  -5   1 7016.33 603.903  10
  -5  -5   1 6574.32 739.623  14
   5  -5  -1 7453.05 745.307   6
  -5  -5   0 8031.23 666.225  10
  -5  -5   0 9231.53 854.674  14
   5  -5   0 9011.89 824.814   6
   5  -5   0 5997.97 597.948   2
  -5  -5  -1 3485.08 452.564  10
  -5  -5  -1 4186.56 606.140  14
   5  -5   1 3857.45 578.590   6
  -5  -5  -2 7355.37 650.669  10
  -5  -5  -2 7177.31 763.984  14
   5  -5   2 6917.48 758.956   6
  -5  -5  -3 217.254 249.410  14
   5  -5   3 864.483 372.872   6
  -5  -5  -4 3916.27 614.614  14
   5  -5   4 3995.50 601.274   6
  -5  -5  -5 2714.24 519.570  14
   5  -5   5 3244.73 563.871   6
   5  -5   6 903.825 399.963   4
  -5  -5  -6 955.847 344.412  14
   5  -5   6 880.845 411.732   6
   5  -5   7 3249.18 555.017   4
  -5  -5  -7 4399.47 628.921  14
   5  -5   7 3746.36 637.947   6
   5  -5   8 1569.89 462.694   4
  -5  -5  -8 2408.23 501.442  14
   5  -5   8 1681.60 455.493   6
   5  -5   9 1615.05 452.147   4
  -5  -5  -9 2457.05 576.316  14
  -5  -4  14-458.597 358.056  13
   5  -4 -14 665.687 358.413   2
  -5  -4  13 1557.03 455.604  13
   5  -4 -13 1368.02 420.473   2
  -5  -4  12 1141.99 434.576  13
   5  -4 -12 1453.18 462.857   2
  -5  -4  11 45.3329 268.717  13
   5  -4 -11-17.3858 239.541   2
   5  -4 -10 935.400 299.770   4
  -5  -4  10 1027.02 345.077  13
   5  -4 -10 544.229 314.234   2
   5  -4  -9 244.289 218.121   4
  -5  -4   9 517.702 305.491  13
   5  -4  -9 205.160 280.991   2
   5  -4  -8 20416.4 1185.91   4
  -5  -4   8 18570.4 1136.88  13
   5  -4  -8 19544.3 1206.41   2
  -5  -4   7 4317.74 537.932  13
   5  -4  -7 3453.11 520.960   2
  -5  -4   6 8986.27 723.092  13
   5  -4  -6 8342.24 749.243   2
   5  -4  -5-10.3777 211.825   2
  -5  -4   5 597.093 253.331  13
   5  -4  -4 2505.97 415.002   2
  -5  -4   4 3320.61 403.735  13
   5  -4  -3 2571.44 441.521   2
  -5  -4   3 2171.22 435.009  14
  -5  -4   3 3178.66 402.909  13
  -5  -4   2 6949.19 749.995  14
  -5  -4   2 7210.01 570.469  13
   5  -4  -2 6467.48 626.447   2
  -5  -4   1 18702.6 927.019  10
  -5  -4   1 15840.1 1106.31  14
   5  -4  -1 16595.8 1096.74   6
   5  -4  -1 14283.5 937.458   2
   5  -4   0 1610.45 359.386   2
  -5  -4   0 1633.00 299.068  10
  -5  -4   0 1779.64 420.502  14
   5  -4   0 1486.70 370.760   6
  -5  -4  -1 1716.77 399.935  14
   5  -4   1 1869.24 428.210   6
  -5  -4  -2 6075.61 664.929  14
   5  -4   2 5115.25 671.682   6
   5  -4   3 8711.52 804.321   4
  -5  -4  -3 7783.87 764.702  14
   5  -4   3 6970.35 765.432   6
   5  -4   4 3698.13 576.079   4
  -5  -4  -4 4399.14 594.612  14
   5  -4   4 4217.50 616.313   6
   5  -4   5 2009.41 461.402   4
  -5  -4  -5 1934.08 442.632  14
   5  -4   5 2708.29 532.546   6
   5  -4   6 3136.51 550.155   4
  -5  -4  -6 3320.25 525.795  14
   5  -4   6 3679.12 606.031   6
   5  -4   7 768.763 324.046   4
   5  -4   7 1139.88 346.374   6
   5  -4   8 2619.85 493.667   4
  -5  -4  -8 1907.95 435.000  14
   5  -4   8 1629.04 411.526   6
   5  -4   9 1369.68 416.504   4
  -5  -4  -9 1689.16 436.436  14
   5  -4   9 1469.19 452.026   6
   5  -4  10-272.942 257.650   4
  -5  -4 -10 739.107 314.051  14
   5  -3 -15 3077.35 513.401   7
   5  -3 -15 2242.69 511.528   2
   5  -3 -14 3111.08 488.271   7
  -5  -3  14 2758.45 581.405  13
   5  -3 -14 3386.89 599.065   2
   5  -3 -13 1875.27 392.004   7
  -5  -3  13 1645.94 492.530  13
   5  -3 -13 2238.22 494.158   2
   5  -3 -12 6469.61 648.862   7
  -5  -3  12 6145.64 763.141  13
   5  -3 -12 6079.51 719.450   2
   5  -3 -11 991.714 292.387   7
  -5  -3  11 542.128 334.128  13
   5  -3 -11 929.352 341.200   2
   5  -3 -10 2253.20 396.086   4
   5  -3 -10 1826.99 351.722   7
  -5  -3  10 1966.24 430.835  13
   5  -3 -10 1676.48 367.730   2
   5  -3  -9 2709.77 409.982   4
   5  -3  -9 2629.33 410.774   7
  -5  -3   9 3385.81 525.393  13
   5  -3  -9 2582.79 481.849   2
   5  -3  -8 1767.48 381.998   4
   5  -3  -8 1226.74 297.353   7
  -5  -3   8 1656.64 386.607  13
   5  -3  -8 1579.31 395.560   2
   5  -3  -7 14550.4 972.023   4
   5  -3  -7 13441.4 819.237   7
  -5  -3   7 13934.0 947.288  13
   5  -3  -7 12562.8 929.153   2
   5  -3  -6 5262.69 597.004   2
   5  -3  -6 6196.30 641.391   4
   5  -3  -6 5323.54 506.255   7
  -5  -3   6 5379.84 574.003  13
   5  -3  -5 10073.8 801.290   4
   5  -3  -5 9409.36 667.482   7
  -5  -3   5 8031.79 658.418  13
   5  -3  -5 8791.37 744.434   2
   5  -3  -4 3695.39 488.478   2
   5  -3  -4 4908.58 602.641   4
   5  -3  -4 3262.57 398.695   7
  -5  -3   4 3566.37 436.899  13
   5  -3  -3 1246.71 321.251   2
   5  -3  -3 1696.02 412.464   4
  -5  -3   3 1797.40 392.576  14
  -5  -3   3 2019.77 336.014  13
   5  -3  -2 10587.2 844.109   4
  -5  -3   2 9402.52 817.245  14
  -5  -3   2 10122.7 693.135  13
   5  -3  -2 8964.54 733.448   2
   5  -3  -1 333.751 268.410   2
   5  -3  -1 114.796 316.162   4
  -5  -3   1 32.8515 186.298  14
  -5  -3   1 317.865 188.213  13
   5  -3   0 486.470 354.359   4
  -5  -3   0 319.893 203.598  14
   5  -3   0 252.990 287.136   6
  -5  -3   0 276.374 191.628  13
   5  -3   1 22103.8 1255.17   4
  -5  -3  -1 21729.6 1225.76  14
   5  -3   1 21488.1 1259.32   6
   5  -3   2 12809.2 955.923   4
  -5  -3  -2 14234.0 986.572  14
   5  -3   2 13444.1 1002.18   6
   5  -3   3 5989.29 655.138   4
  -5  -3  -3 7269.88 690.960  14
   5  -3   3 6376.82 709.112   6
   5  -3   4 1862.19 428.624   4
  -5  -3  -4 1082.03 310.098  14
   5  -3   4 2017.20 460.288   6
   5  -3   5 5547.13 627.098   4
  -5  -3  -5 6041.17 647.172  14
   5  -3   5 4793.92 647.436   6
   5  -3   6 1468.54 388.862   4
  -5  -3  -6 1347.97 339.861  14
   5  -3   6 1189.15 376.201   6
   5  -3   7 620.821 232.325   4
  -5  -3  -7 1140.79 349.814  14
   5  -3   7 886.759 352.212   6
   5  -3   8 1457.10 356.754   4
  -5  -3  -8 1759.85 411.933  14
   5  -3   8 1717.24 444.536   6
   5  -3   9 2252.46 464.599   4
  -5  -3  -9 1940.55 397.376  14
   5  -3   9 1250.83 402.384   6
   5  -3  10 223.093 257.000   4
   5  -3  10 171.625 311.657   6
   5  -2 -16 3258.43 529.072   7
   5  -2 -16 3030.46 579.186   2
   5  -2 -15 2307.51 442.700   7
  -5  -2  15 1312.38 502.501  13
   5  -2 -15 1469.56 421.018   2
   5  -2 -14 1684.04 412.527   7
  -5  -2  14 2440.88 504.484  13
   5  -2 -14 2416.58 502.348   2
   5  -2 -13 1361.27 393.611   7
  -5  -2  13 1592.06 492.651  13
   5  -2 -13 1753.42 431.135   2
   5  -2 -12 9672.64 805.392   7
  -5  -2  12 9284.75 909.039  13
   5  -2 -12 9283.88 856.064   2
   5  -2 -11 4616.75 612.573   2
   5  -2 -11 3420.42 489.733   7
  -5  -2  11 4434.99 623.553  13
   5  -2 -10 6982.76 650.251   4
   5  -2 -10 5978.69 607.877   7
  -5  -2  10 7368.07 761.591  13
   5  -2 -10 7164.58 735.173   2
   5  -2  -9 8093.81 694.075   4
   5  -2  -9 8111.81 671.377   7
  -5  -2   9 6993.57 723.277  13
   5  -2  -9 7084.51 702.962   2
   5  -2  -8 5092.09 598.884   2
   5  -2  -8 5193.07 557.393   4
   5  -2  -8 5972.17 577.409   7
  -5  -2   8 5929.44 667.110  13
   5  -2  -7 5153.78 572.957   2
   5  -2  -7 5853.59 601.442   4
   5  -2  -7 5214.73 536.911   7
  -5  -2   7 5796.80 618.613  13
   5  -2  -6 2437.15 418.735   2
   5  -2  -6 2581.94 434.833   4
   5  -2  -6 2002.17 342.061   7
  -5  -2   6 2982.82 442.929  13
   5  -2  -5 1842.54 368.419   2
  -5  -2   5 1704.46 290.210  16
   5  -2  -5 2589.62 430.369   4
   5  -2  -5 2676.57 397.572   7
  -5  -2   5 2931.81 422.045  13
   5  -2  -4 21937.6 1175.41   4
  -5  -2   4 17553.2 941.351  16
   5  -2  -4 24512.8 1111.27   7
  -5  -2   4 21513.1 1112.65  13
   5  -2  -4 18920.8 1090.80   2
   5  -2  -3 4213.48 512.482   2
   5  -2  -3 3999.96 534.385   4
   5  -2  -3 3773.27 445.104   7
  -5  -2   3 4069.53 484.277  13
   5  -2  -2 21577.9 1178.17   4
  -5  -2   2 19227.6 1123.47  14
  -5  -2   2 21530.7 1071.01  13
   5  -2  -2 19225.5 1087.56   2
   5  -2  -1 22155.3 1220.55   4
  -5  -2   1 23284.9 1220.09  14
  -5  -2   1 22112.1 1069.18  13
   5  -2   0 5695.33 633.305   4
  -5  -2   0 6555.58 629.909  14
  -5  -2   0 6580.12 567.364  13
   5  -2   1 36420.5 1606.49   4
  -5  -2  -1 35945.7 1548.92  14
   5  -2   1 36005.9 1659.18   6
  -5  -2  -1 37032.0 1425.80  13
   5  -2   2 3980.67 515.153   4
  -5  -2  -2 5337.62 563.166  14
   5  -2   2 4308.11 579.437   6
   5  -2   3 508.290 273.516   4
  -5  -2  -3 157.431 175.278  14
   5  -2   3 814.207 349.381   6
   5  -2   4 7217.19 712.964   4
  -5  -2  -4 7474.67 675.984  14
   5  -2   4 7696.70 773.529   6
   5  -2   5 12847.0 915.283   4
   5  -2   5 11351.0 899.610   8
  -5  -2  -5 11835.4 855.599  14
   5  -2   5 12461.0 975.240   6
   5  -2   6 1994.55 408.372   8
   5  -2   6 2095.63 425.739   4
  -5  -2  -6 3144.78 454.478  14
   5  -2   6 2409.62 489.058   6
   5  -2   7 3115.14 526.975   8
   5  -2   7 4145.57 555.616   4
  -5  -2  -7 4687.12 570.063  14
   5  -2   7 4448.54 629.025   6
   5  -2   8 1589.85 398.842   8
   5  -2   8 2017.96 429.554   4
  -5  -2  -8 1308.89 313.484  14
   5  -2   8 1828.03 443.108   6
   5  -2   9 283.483 310.579   8
   5  -2   9 137.866 347.080   4
   5  -2   9 551.444 314.082   6
   5  -2  10 721.481 392.502   8
   5  -2  10 304.357 257.518   4
   5  -2  11 1009.33 351.964   8
   5  -1 -16 433.805 272.796   2
   5  -1 -16 849.613 347.624   7
   5  -1 -15 2555.55 493.808   2
   5  -1 -15 2657.87 528.708   7
  -5  -1  15 2894.28 596.471  13
   5  -1 -14 3694.21 572.671   2
   5  -1 -14 4159.50 609.265   7
  -5  -1  14 3615.51 622.577  13
   5  -1 -13 859.422 358.430   2
   5  -1 -13 283.692 240.901   7
  -5  -1  13 877.971 401.318  13
   5  -1 -12 2176.95 447.828   2
   5  -1 -12 2301.48 446.261   7
  -5  -1  12 2463.62 523.408  13
   5  -1 -11 1206.13 363.851   2
   5  -1 -11 1026.40 362.300   7
  -5  -1  11 1712.46 400.438  13
   5  -1 -10 885.937 307.069   2
   5  -1 -10 1375.26 313.106   4
   5  -1 -10 575.261 283.116   7
  -5  -1  10 1221.63 380.926  13
   5  -1  -9 27867.2 1287.84   4
   5  -1  -9 27653.3 1326.75   7
  -5  -1   9 27147.7 1419.55  13
   5  -1  -9 27306.3 1387.39   2
   5  -1  -8 31316.9 1375.01   4
   5  -1  -8 30126.0 1374.89   7
  -5  -1   8 29741.8 1463.99  13
   5  -1  -8 27952.3 1410.05   2
   5  -1  -7 13973.3 909.568   4
   5  -1  -7 13625.9 874.475   7
  -5  -1   7 14164.4 971.254  13
   5  -1  -7 13894.9 940.296   2
   5  -1  -6 7515.54 656.616   4
   5  -1  -6 7300.71 631.025   7
  -5  -1   6 7446.56 685.895  13
   5  -1  -6 7039.14 659.741   2
   5  -1  -5 11241.3 810.580   4
  -5  -1   5 9648.93 641.743  16
   5  -1  -5 12287.4 808.255   7
  -5  -1   5 11827.2 840.201  13
   5  -1  -5 11849.7 834.102   2
   5  -1  -4 751.928 309.153   2
  -5  -1   4 950.029 237.005  16
   5  -1  -4 1347.89 358.783   4
   5  -1  -4 715.803 247.522   7
  -5  -1   4 803.818 279.764  13
  -5  -1   3 3539.21 436.768  16
   5  -1  -3 4637.75 543.963   4
   5  -1  -3 4095.71 490.489   7
  -5  -1   3 4490.82 508.693  13
   5  -1  -2 255.451 188.185   7
  -5  -1   2 489.519 220.644  16
   5  -1  -2-226.206 231.771   4
  -5  -1   2-171.552 196.279  13
   5  -1  -1 1303.42 334.621   4
  -5  -1   1 823.161 237.928  16
  -5  -1   1 955.572 276.568  14
  -5  -1   1 1355.78 308.297  13
   5  -1   0 11994.1 856.606   4
  -5  -1   0 9361.03 741.152  16
  -5  -1   0 11834.7 811.652  14
   5  -1   1 6291.77 666.499   8
  -5  -1  -1 5928.53 599.345  16
   5  -1   1 5180.51 596.164   4
  -5  -1  -1 6602.54 599.106  14
   5  -1   2 23860.0 1241.09   4
   5  -1   2 24559.7 1306.19   8
  -5  -1  -2 23205.9 1258.02  16
  -5  -1  -2 26737.9 1232.15  14
   5  -1   3 4870.14 585.338   8
   5  -1   3 4415.81 550.481   4
  -5  -1  -3 3853.38 521.670  16
  -5  -1  -3 4466.19 485.533  14
   5  -1   3 4564.79 613.480   6
   5  -1   4 20483.3 1170.06   4
   5  -1   4 21100.8 1223.84   8
  -5  -1  -4 18851.9 1181.56  16
  -5  -1  -4 21027.1 1089.12  14
   5  -1   4 21634.2 1267.13   6
   5  -1   5 4037.39 566.844   8
   5  -1   5 4317.13 545.620   4
  -5  -1  -5 3658.61 568.964  16
  -5  -1  -5 4190.57 471.270  14
   5  -1   5 4471.96 606.505   6
   5  -1   6 2595.52 453.648   8
   5  -1   6 3081.54 482.822   4
  -5  -1  -6 2061.84 431.722  16
  -5  -1  -6 2994.03 416.557  14
   5  -1   6 2316.57 454.711   6
   5  -1   7 2615.43 511.219   8
   5  -1   7 2970.08 498.384   4
  -5  -1  -7 1329.24 403.210  16
   5  -1   7 1876.82 423.793   6
   5  -1   8 202.360 252.407   8
   5  -1   8 632.282 304.888   4
  -5  -1  -8-263.154 259.573  16
   5  -1   8 266.869 283.593   6
   5  -1   9 1065.63 318.595   4
   5  -1   9 1677.35 435.941   8
  -5  -1  -9 1920.77 463.928  16
   5  -1   9 2097.99 435.238   6
   5  -1  10 2603.06 471.431   4
   5  -1  10 2932.45 525.038   8
  -5  -1 -10 3361.66 595.466  16
   5  -1  10 3271.64 559.826   6
   5  -1  11 7479.04 809.317   8
   5  -1  11 8138.09 864.182   6
   5   0 -17 2764.31 522.107   2
   5   0 -16 80.1075 366.602   2
   5   0 -16 365.338 313.933   7
   5   0 -15 89.3183 291.002   2
   5   0 -15-100.958 245.188   7
  -5   0  15-180.888 353.103  13
   5   0 -14 257.086 281.761   2
   5   0 -14 263.727 256.796   7
  -5   0  14 198.456 367.700  13
   5   0 -13 2545.11 481.794   2
   5   0 -13 3839.58 561.723   7
  -5   0  13 2567.89 529.277  13
   5   0 -12 4366.51 577.776   2
   5   0 -12 4250.04 587.932   7
  -5   0  12 4096.65 579.425  13
   5   0 -11 32508.6 1549.61   7
  -5   0  11 33571.0 1658.94  13
   5   0 -11 30476.8 1509.25   2
   5   0 -10 14083.0 883.473   4
   5   0 -10 15335.2 1002.55   7
  -5   0  10 15716.5 1088.42  13
   5   0 -10 12965.6 945.193   2
   5   0  -9 1271.83 332.477   2
   5   0  -9 2023.10 362.343   4
   5   0  -9 2423.96 433.232   7
  -5   0   9 1519.48 413.081  13
   5   0  -8 964.831 298.807   2
   5   0  -8 971.168 305.427   4
   5   0  -8 1207.56 329.994   7
  -5   0   8 1396.18 383.453  13
   5   0  -7 1060.18 310.793   2
   5   0  -7 1335.19 307.261   4
   5   0  -7 1409.72 353.423   7
  -5   0   7 1190.03 391.434  13
   5   0  -6 929.324 317.213   2
   5   0  -6 1243.14 322.137   4
   5   0  -6 1525.86 315.286   7
  -5   0   6 1106.67 339.129  13
   5   0  -5 15484.7 941.994   4
  -5   0   5 12172.6 737.754  16
   5   0  -5 15504.4 929.315   7
  -5   0   5 14771.7 959.766  13
   5   0  -5 14449.5 936.055   2
   5   0  -4 551.400 285.078   4
  -5   0   4 431.948 172.098  16
   5   0  -4-161.903 241.247   7
  -5   0   4 196.486 241.738  13
   5   0  -3 7866.60 696.642   4
  -5   0   3 6557.29 564.820  16
   5   0  -3 8311.03 677.449   7
  -5   0   3 7663.96 668.946  13
   5   0  -2 298.968 243.334   4
  -5   0   2 660.548 216.607  16
   5   0  -2 466.726 244.411   7
   5   0  -1 8403.75 709.843   4
   5   0  -1 9706.23 771.178   8
  -5   0   1 7748.01 647.054  16
  -5   0   1 8549.34 657.534  14
   5   0   0 1343.32 352.389   8
   5   0   0 2063.27 410.343   4
  -5   0   0 1224.68 291.290  16
  -5   0   0 1300.70 274.158  14
  -5   0  -1 491.629 171.157  11
   5   0   1 547.143 285.868   8
   5   0   1 878.189 315.040   4
  -5   0  -1 568.900 232.150  16
  -5   0  -1 831.034 227.810  14
  -5   0  -2 17681.5 924.211  11
   5   0   2 21200.6 1168.15   4
   5   0   2 20145.3 1182.34   8
  -5   0  -2 18899.5 1112.84  16
  -5   0  -2 23510.4 1070.21  14
  -5   0  -3 933.190 240.478  11
   5   0   3 1416.54 392.298   8
   5   0   3 1454.47 388.536   4
  -5   0  -3 1846.35 391.255  16
  -5   0  -3 1435.43 285.148  14
  -5   0  -4-130.830 166.863  11
   5   0   4 314.035 267.564   8
   5   0   4 659.244 319.449   4
  -5   0  -4 474.601 245.658  16
   5   0   5 359.856 244.917   4
   5   0   5 209.959 270.064   8
  -5   0  -5 274.815 237.314  16
   5   0   5 696.176 297.013   6
   5   0   6-4.80917 222.506   4
   5   0   6 440.269 299.490   8
  -5   0  -6-67.6967 209.647  16
   5   0   6 583.499 308.823   6
   5   0   7 571.857 278.752   4
   5   0   7 407.026 329.739   8
  -5   0  -7 379.003 311.007  16
   5   0   7 186.197 202.170   6
  -5   0  -8 6919.55 796.000  16
   5   0   8 5080.77 619.483   4
   5   0   8 5919.11 683.467   8
   5   0   8 6066.44 698.793   6
   5   0   9 13651.5 1011.51   4
  -5   0  -9 14005.9 1141.95  16
   5   0   9 17381.2 1164.88   8
   5   0   9 14723.2 1101.07   6
   5   0  10 1908.19 441.911   8
  -5   0 -10 2070.60 511.936  16
   5   0  10 1628.80 432.788   6
   5   0  11 2028.33 442.652   8
   5   0  11 2001.73 461.470   6
   5   0  12 401.446 293.199   6
   5   1 -17 1036.28 332.559   2
   5   1 -16 550.234 286.650   2
   5   1 -15 2883.13 513.722   2
   5   1 -15 2163.79 480.936   7
  -5   1  15 1841.20 501.603  13
   5   1 -14 2954.32 513.069   2
   5   1 -14 4588.57 649.371   7
  -5   1  14 3959.65 638.250  13
   5   1 -13 1028.41 378.932   2
   5   1 -13 786.066 328.816   7
  -5   1  13 498.636 354.788  13
   5   1 -12 1398.53 364.604   2
   5   1 -12 2444.47 447.990   7
  -5   1  12 1857.11 498.603  13
   5   1 -11 1515.41 360.029   2
   5   1 -11 1446.89 393.738   7
  -5   1  11 1270.44 419.397  13
   5   1 -10 1099.11 342.670   2
   5   1 -10 660.574 297.406   7
  -5   1  10 1723.35 462.506  13
   5   1  -9 25990.2 1344.77   7
  -5   1   9 26953.0 1423.36  13
   5   1  -9 24892.3 1311.69   2
   5   1  -8 28842.0 1322.42   4
   5   1  -8 32796.8 1488.23   7
  -5   1   8 31550.0 1520.98  13
   5   1  -8 28028.6 1375.91   2
   5   1  -7 13778.3 905.596   4
   5   1  -7 14824.5 966.930   7
  -5   1   7 13701.0 1000.07  13
   5   1  -6 7349.19 656.651   4
  -5   1   6 5765.75 484.838  16
   5   1  -6 7229.80 668.352   7
  -5   1   6 8001.31 734.012  13
   5   1  -5 13274.3 874.821   4
  -5   1   5 10352.9 683.427  16
   5   1  -5 12464.5 847.136   7
  -5   1   5 11818.1 870.265  13
   5   1  -4 870.122 308.443   4
  -5   1   4 558.107 180.902  16
   5   1  -4 997.733 293.806   7
  -5   1   4 554.488 322.025  13
   5   1  -3 4412.33 524.690   8
  -5   1   3 4145.56 459.400  16
   5   1  -3 3812.36 496.128   4
   5   1  -3 4784.15 537.662   7
   5   1  -2 192.206 261.279   4
   5   1  -2 675.434 294.423   8
  -5   1   2 41.6001 159.845  16
   5   1  -2 289.095 207.796   7
   5   1  -1 1288.98 369.115   4
   5   1  -1 350.185 238.833   8
  -5   1   1 912.321 273.165  16
   5   1  -1 957.252 295.115   7
  -5   1   1 1467.43 287.048  14
  -5   1   0 10062.1 651.382  11
   5   1   0 12294.4 876.125   4
  -5   1   0 10355.0 783.255  16
   5   1   0 12070.2 896.783   8
  -5   1   0 12929.1 748.563  14
  -5   1  -1 5339.14 496.749  11
  -5   1  -1 5624.09 592.745  16
   5   1   1 6290.74 662.906   8
   5   1   1 5498.25 591.032   4
  -5   1  -1 6022.30 490.495  14
  -5   1  -2 22557.1 1083.46  11
   5   1   2 23776.4 1240.74   4
  -5   1  -2 23347.1 1258.15  16
   5   1   2 25489.9 1304.88   8
  -5   1  -3 3808.83 452.656  11
   5   1   3 4539.68 584.582   4
   5   1   3 3455.08 521.652   8
  -5   1  -3 3852.94 533.597  16
  -5   1  -4 17327.1 1015.89  11
   5   1   4 19337.9 1152.18   4
  -5   1  -4 19077.6 1174.32  16
   5   1   4 22141.4 1220.02   8
  -5   1  -5 3984.69 500.676  11
   5   1   5 4648.70 599.306   4
   5   1   5 4312.82 561.475   8
  -5   1  -5 3983.87 581.976  16
  -5   1  -6 1616.67 349.006  11
   5   1   6 2289.26 479.439   4
   5   1   6 3199.20 551.792   8
  -5   1  -6 1996.57 454.886  16
  -5   1  -7 1769.30 379.532  11
  -5   1  -7 1480.82 435.770  16
  -5   1  -8 295.928 274.541  11
   5   1   8 147.057 286.930   8
  -5   1  -8 411.435 270.515  16
   5   1   9 2584.69 506.951   8
  -5   1  -9 2089.26 490.155  16
   5   1   9 2042.46 439.709   6
   5   1  10 3668.31 605.287   8
  -5   1 -10 1932.69 469.313  16
   5   1  10 2923.83 515.503   6
   5   2 -16 2649.53 488.980   2
   5   2 -15 1206.64 342.024   2
   5   2 -15 794.368 339.731   7
  -5   2  15 1314.48 509.154  13
   5   2 -14 1316.86 350.145   2
   5   2 -14 2192.54 503.229   7
  -5   2  14 2281.79 538.025  13
   5   2 -13 1883.52 449.355   7
  -5   2  13 1488.63 455.305  13
   5   2 -12 10764.0 916.465   7
  -5   2  12 8072.73 869.603  13
   5   2 -11 3846.58 563.940   7
  -5   2  11 4509.42 649.776  13
   5   2 -10 7222.08 721.935   7
  -5   2  10 7319.02 777.794  13
   5   2  -9 8499.20 752.940   7
  -5   2   9 6093.15 719.256  13
   5   2  -8 5511.96 639.819   7
  -5   2   8 5321.83 649.014  13
   5   2  -7 5997.43 627.500   7
  -5   2   7 6121.29 669.382  13
  -5   2   6 2138.05 325.028  16
   5   2  -6 2655.83 443.320   7
  -5   2   6 3041.05 527.830  13
  -5   2   5 1925.85 314.315  16
   5   2  -5 1974.23 373.979   7
  -5   2   4 17027.5 951.579  16
   5   2  -4 22578.2 1116.73   8
   5   2  -4 20900.1 1144.67   7
   5   2  -3 4352.83 534.023   8
  -5   2   3 3490.58 434.972  16
   5   2  -3 4142.75 538.405   7
  -5   2   2 17867.4 1020.07  16
   5   2  -2 19780.7 1104.27   8
   5   2  -2 20830.9 1160.98   7
  -5   2   1 21677.3 1147.80  16
   5   2  -1 24395.5 1217.80   8
   5   2  -1 21034.4 1195.20   7
  -5   2   0 5802.41 600.495  16
   5   2   0 6075.49 638.523   8
  -5   2  -1 32315.9 1350.02  11
  -5   2  -1 31848.0 1499.72  16
   5   2   1 36677.9 1572.61   8
  -5   2  -2 3868.96 466.374  11
   5   2   2 4404.78 562.088   8
  -5   2  -2 4401.57 558.807  16
  -5   2  -3 550.005 216.150  11
   5   2   3 151.773 245.144   8
  -5   2  -3 361.622 242.870  16
  -5   2  -4 6375.83 621.497  11
  -5   2  -4 6905.37 716.045  16
   5   2   4 7150.75 727.849   8
  -5   2  -5 9834.64 808.417  11
  -5   2  -5 11201.0 953.201  16
   5   2   5 11342.8 903.989   8
   5   2   5 10293.1 872.793   3
  -5   2  -6 1819.29 392.418  11
   5   2   6 2600.85 490.223   8
  -5   2  -6 1799.16 428.638  16
   5   2   6 3209.96 528.290   3
  -5   2  -7 3708.66 523.645  11
   5   2   7 4483.82 609.710   8
  -5   2  -7 3051.27 545.398  16
   5   2   7 2674.14 497.085   3
  -5   2  -8 1326.81 346.321  11
   5   2   8 1797.84 464.491   8
  -5   2  -8 1795.64 456.836  16
   5   2   8 2441.59 468.263   3
  -5   2  -9 216.131 272.853  11
   5   2   9 241.845 326.494   8
  -5   2  -9 192.220 268.484  16
   5   2   9 14.3867 278.303   3
  -5   2 -10 473.643 301.016  11
   5   2  10 1199.37 403.288   8
  -5   2 -10 1025.54 378.181  16
   5   2  10 1047.98 357.396   3
   5   2  11 1283.11 433.979   3
  -5   3  15 3779.59 672.186  13
   5   3 -14 2543.27 499.813   7
  -5   3  14 2251.76 498.042  13
   5   3 -13 2064.76 504.684   7
  -5   3  13 1508.90 443.952  13
   5   3 -12 6534.36 748.171   7
  -5   3  12 5888.84 746.409  13
   5   3 -11 713.525 329.983   7
  -5   3  11 875.756 382.451  13
   5   3 -10 2094.21 451.589   7
  -5   3  10 2813.59 492.328  13
   5   3  -9 2143.29 420.859   7
  -5   3   9 2792.88 514.387  13
   5   3  -8 1464.76 388.146   7
  -5   3   8 1453.15 412.673  13
   5   3  -7 13794.7 974.062   7
  -5   3   7 15050.2 1061.02  13
  -5   3   6 5396.56 517.552  16
   5   3  -6 4711.48 573.673   7
  -5   3   6 5627.03 688.527  13
  -5   3   5 7387.92 619.158  16
   5   3  -5 8184.22 704.042   8
   5   3  -5 9528.65 790.608   7
  -5   3   4 4052.53 472.194  16
   5   3  -4 5587.01 573.323   8
   5   3  -4 3674.03 501.884   7
   5   3  -3 1752.69 357.525   8
  -5   3   3 1420.12 330.277  16
   5   3  -3 1555.46 379.096   7
  -5   3   2 8955.94 720.081  16
   5   3  -2 9488.92 765.738   8
   5   3  -2 10227.0 833.136   7
   5   3  -1 283.981 271.181   8
  -5   3   1-290.879 212.691  16
   5   3  -1-77.5286 251.656   7
   5   3   0 675.628 277.744   8
  -5   3   0 264.290 200.758  16
  -5   3  -1 18888.6 1140.46  16
   5   3   1 20200.0 1150.13   8
  -5   3  -2 11801.3 827.437  11
  -5   3  -2 11707.5 918.379  16
   5   3   2 13003.7 930.675   8
  -5   3  -3 5262.82 577.546  11
  -5   3  -3 6092.61 681.151  16
   5   3   3 7385.28 729.144   8
   5   3   3 6325.75 702.737   3
  -5   3  -4 1446.98 346.810  11
  -5   3  -4 2283.44 461.547  16
   5   3   4 2518.52 466.464   8
   5   3   4 1802.48 414.500   3
  -5   3  -5 4892.07 582.735  11
  -5   3  -5 4671.81 611.667  16
   5   3   5 5403.24 632.394   8
   5   3   5 5946.46 676.398   3
  -5   3  -6 681.360 280.790  11
  -5   3  -6 1425.05 393.831  16
   5   3   6 751.801 320.349   8
   5   3   6 1258.17 388.510   3
  -5   3  -7 871.018 305.648  11
  -5   3  -7 426.467 331.261  16
   5   3   7 1194.67 405.844   8
   5   3   7 993.526 344.536   3
  -5   3  -8 908.567 311.119  11
  -5   3  -8 743.946 412.636  16
   5   3   8 1252.17 404.684   8
   5   3   8 1794.82 396.651   3
  -5   3  -9 2187.34 462.701  11
  -5   3  -9 2250.29 485.016  16
   5   3   9 1808.46 441.393   8
   5   3   9 1377.08 399.802   3
  -5   3 -10 409.673 307.120  11
   5   3  10 532.426 332.212   3
   5   4 -14 237.276 280.234   7
  -5   4  14 468.461 378.801  13
   5   4 -13 1745.68 465.479   7
  -5   4  13 1238.41 404.896  13
   5   4 -12 1073.60 355.464   7
  -5   4  12 1253.95 457.453  13
   5   4 -11 635.957 327.955   7
  -5   4  11 784.117 334.358  13
   5   4 -10 796.034 338.400   7
  -5   4  10 123.134 291.247  13
   5   4  -9 49.7546 263.786   7
  -5   4   9 899.922 369.934  13
   5   4  -8 18209.7 1175.29   7
  -5   4   8 20643.0 1286.10  13
   5   4  -7 3510.29 526.514   7
  -5   4   7 3815.35 594.241  13
  -5   4   6 7501.31 641.821  16
   5   4  -6 8291.60 646.972   8
   5   4  -6 8376.30 786.578   7
   5   4  -5 639.150 282.920   8
  -5   4   5 683.422 243.466  16
   5   4  -5 164.206 243.847   7
   5   4  -4 2701.21 442.676   8
  -5   4   4 2953.42 445.410  16
   5   4  -4 2771.98 479.379   7
  -5   4   3 3434.73 469.427  16
   5   4  -3 2545.13 449.418   8
   5   4  -3 2511.12 432.815   7
  -5   4   2 6928.91 652.493  16
   5   4  -2 7061.08 679.444   8
   5   4  -2 7430.62 742.498   7
  -5   4   1 15944.9 1035.44  16
   5   4  -1 17354.2 1033.74   8
   5   4  -1 16068.0 1080.06   7
  -5   4   0 1421.68 358.564  16
   5   4   0 2206.55 415.068   8
  -5   4  -1 1665.10 366.247  16
   5   4   1 2490.70 450.667   8
   5   4   1 1945.39 415.235   3
   5   4   2 5911.03 667.204   8
  -5   4  -2 5637.64 658.825  16
   5   4   2 5273.41 664.835   3
  -5   4  -3 7136.79 705.290  11
  -5   4  -3 8309.61 795.184  16
   5   4   3 8454.65 794.184   8
   5   4   3 8030.58 792.451   3
  -5   4  -4 4083.70 543.329  11
  -5   4  -4 3324.24 540.859  16
   5   4   4 4001.10 573.500   3
  -5   4  -5 1290.13 341.132  11
  -5   4  -5 1480.76 396.329  16
   5   4   5 1114.03 404.552   3
  -5   4  -6 3161.34 522.699  11
  -5   4  -6 2684.67 526.496  16
   5   4   6 2815.25 531.666   3
  -5   4  -7 704.144 281.308  11
  -5   4  -7 1160.41 345.424  16
   5   4   7 1123.06 385.551   3
  -5   4  -8 1033.56 375.850  11
  -5   4  -8 2021.94 478.305  16
   5   4   8 1871.71 473.407   3
  -5   4  -9 980.375 367.880  11
  -5   4  -9 1581.53 458.270  16
   5   4   9 1352.99 412.016   3
   5   5 -13 2073.08 543.656   7
  -5   5  13 1521.40 480.304  13
   5   5 -12 3670.00 595.380   7
  -5   5  12 4895.05 678.507  13
   5   5 -11 3703.75 578.314   7
  -5   5  11 3168.31 601.963  13
   5   5 -10 7543.71 798.055   7
  -5   5  10 7121.46 806.087  13
   5   5  -9 4364.95 606.142   7
  -5   5   9 4358.07 651.075  13
   5   5  -8 1692.44 421.249   7
  -5   5   8 2470.46 485.651  13
  -5   5   7 1677.38 377.865  16
   5   5  -7 897.924 332.655   7
  -5   5   6 2713.29 433.473  16
   5   5  -6 3239.14 510.316   7
   5   5  -5 5423.90 561.700   8
  -5   5   5 4495.84 539.480  16
   5   5  -5 5662.24 665.211   7
  -5   5   4 3598.11 504.498  16
   5   5  -4 4231.06 492.989   8
   5   5  -4 4204.93 580.272   7
  -5   5   3 1145.26 305.639  16
   5   5  -3 1891.29 375.138   8
   5   5  -3 1431.30 406.070   7
  -5   5   2 11725.9 904.398  16
   5   5  -2 12236.6 853.376   8
   5   5  -2 12197.8 963.207   7
  -5   5   1 6262.02 666.276  16
   5   5  -1 7064.36 686.701   8
  -5   5   0 7607.52 744.271  16
   5   5   0 6988.66 701.681   8
   5   5   0 7953.78 737.536   3
  -5   5  -1 3996.22 589.240  16
   5   5   1 4023.35 550.188   8
   5   5   1 3499.45 522.351   3
  -5   5  -2 8973.10 837.114  16
   5   5   2 8017.32 774.931   3
  -5   5  -3 351.070 304.439  16
   5   5   3 732.168 305.793   3
  -5   5  -4 2598.34 481.555  11
  -5   5  -4 3509.76 581.565  16
   5   5   4 2975.50 503.640   3
  -5   5  -5 2529.87 465.706  11
  -5   5  -5 2894.73 542.281  16
   5   5   5 2568.71 474.899   3
  -5   5  -6 1201.32 375.014  11
  -5   5  -6 696.158 360.597  16
   5   5   6 1066.11 372.436   3
  -5   5  -7 3281.01 548.775  11
  -5   5  -7 3670.00 618.875  16
   5   5   7 3007.40 557.840   3
  -5   5  -8 2218.59 503.711  11
  -5   5  -8 1972.15 487.897  16
   5   5   8 1688.79 433.327   3
  -5   6  13 1634.08 485.877  13
  -5   6  12 2357.59 533.185  13
   5   6 -11 4023.63 623.614   7
  -5   6  11 3011.64 544.246  13
   5   6 -10 2838.87 522.860   7
  -5   6  10 1977.64 503.890  13
   5   6  -9 4265.06 620.096   7
  -5   6   9 3464.63 590.937  13
   5   6  -8 4298.06 618.792   7
  -5   6   8 3918.79 632.329  13
  -5   6   7 934.819 309.281  16
   5   6  -7 1615.48 428.596   7
  -5   6   6 1238.84 353.685  16
   5   6  -6 390.651 275.234   7
  -5   6   5 3800.82 551.755  16
   5   6  -5 2692.67 488.179   7
  -5   6   4 1181.47 357.402  16
   5   6  -4 1551.67 326.567   8
   5   6  -4 757.116 316.630   7
  -5   6   3 2696.99 476.392  16
   5   6  -3 3131.96 452.653   8
   5   6  -3 2434.11 512.132   7
  -5   6   2 3036.91 507.153  16
   5   6  -2 2856.63 437.209   8
   5   6  -2 3584.78 562.507   7
  -5   6   1 137.820 269.403  16
   5   6  -1-71.0453 206.904   8
   5   6  -1 396.317 250.849   3
  -5   6   0 4027.10 581.485  16
   5   6   0 3718.93 525.265   3
  -5   6  -1 4429.63 602.302  16
   5   6   1 3672.49 547.101   3
  -5   6  -2 2545.40 478.462  16
   5   6   2 1261.13 347.614   3
  -5   6  -3 1925.22 450.943  16
   5   6   3 1394.14 412.454   3
  -5   6  -4 1816.79 449.892  16
   5   6   4 2286.40 482.272   3
  -5   6  -5 2237.94 500.760  16
   5   6   5 2383.89 479.983   3
  -5   6  -6 3179.08 553.631  11
  -5   6  -6 2056.96 494.019  16
   5   6   6 2995.19 530.397   3
  -5   6  -7 1079.24 387.055  11
  -5   7  11 5520.95 744.602  13
   5   7 -10 9737.89 935.988   7
  -5   7  10 8142.99 885.907  13
   5   7  -9 280.235 343.618   7
  -5   7   9 206.589 323.792  13
   5   7  -8 828.805 315.351   7
  -5   7   8 949.536 408.938  13
  -5   7   7 2332.47 488.093  16
   5   7  -7 2400.56 500.017   7
  -5   7   6 2925.46 515.244  16
   5   7  -6 3441.86 575.312   7
  -5   7   5 3412.19 540.755  16
   5   7  -5 3522.88 562.387   7
  -5   7   4 5349.30 658.807  16
   5   7  -4 5945.58 712.501   7
  -5   7   3 1045.41 339.621  16
   5   7  -3 1531.45 340.934   8
   5   7  -3 2086.56 484.867   7
  -5   7   2 466.248 275.033  16
   5   7  -2 516.673 294.620   8
   5   7  -2-3.91074 259.212   7
  -5   7   1 1014.77 362.025  16
   5   7  -1 1072.88 344.835   3
  -5   7   0 806.517 361.769  16
   5   7   0 592.276 264.366   3
  -5   7  -1 1209.55 375.814  16
   5   7   1 1295.93 343.592   3
  -5   7  -2 9714.77 919.433  16
   5   7   2 9104.35 868.719   3
  -5   7  -3 8703.44 892.589  16
   5   7   3 9175.34 862.641   3
  -5   7  -4 1819.54 485.803  16
   5   7   4 1848.91 447.291   3
  -5   7  -5 3711.37 648.320  16
   5   7   5 3870.63 600.168   3
  -5   8   9 2529.62 592.683  13
   5   8  -8 708.507 338.251   7
  -5   8   7 2354.68 493.153  16
   5   8  -7 2575.48 529.962   7
  -5   8   6 8024.38 833.666  16
   5   8  -6 7992.21 852.952   7
  -5   8   5 531.083 339.563  16
   5   8  -5-58.0833 355.541   7
  -5   8   4 2667.15 510.146  16
   5   8  -4 2586.65 546.464   7
  -5   8   3 3374.83 592.587  16
   5   8  -3 4188.87 648.875   7
  -5   8   2 660.626 345.534  16
   5   8  -2 175.577 198.999   3
  -5   8   1 1542.92 424.768  16
   5   8  -1 1758.49 417.273   3
  -5   8   0-50.1382 302.262  16
   5   8   0 160.194 185.557   3
  -5   8  -1 1995.67 490.605  16
   5   8   1 2240.51 437.035   3
  -5   8  -2 6821.45 830.751  16
   5   8   2 5170.83 662.553   3
   5   8   3 6514.08 746.896   3
  -5   9   7 1055.17 378.864  16
  -5   9   6 397.029 291.711  16
  -5   9   5 1918.54 480.158  16
  -5   9   4 1369.28 418.592  16
   5   9  -4 1336.98 454.717   7
  -5   9   3 1777.96 498.655  16
   5   9  -1 148.334 218.677   3
   5   9   0 84.3353 212.175   3
   5   9   1 3248.17 540.074   3
   6  -7  -4 313.026 285.264   2
   6  -7  -3 339.590 229.225   2
   6  -6  -9 1505.68 442.753   4
   6  -6  -8 316.526 333.915   4
   6  -6  -6 2946.29 534.909   2
   6  -6  -5 2385.39 482.587   2
  -6  -6   5 4510.76 706.537  14
   6  -6  -4 448.653 278.197   2
  -6  -6   4 367.142 333.903  14
   6  -6  -3 2532.43 481.924   2
  -6  -6   3 3163.54 631.931  14
   6  -6  -2 324.975 238.904   2
  -6  -6   2-284.612 308.975  14
  -6  -6   1 1417.56 425.123  14
  -6  -6   0 9868.70 1013.00  14
  -6  -6  -1 8147.23 924.429  14
  -6  -5  11 560.843 354.856  13
   6  -5 -10 4124.71 616.167   4
  -6  -5  10 2797.72 560.774  13
   6  -5  -9 1116.23 373.307   4
  -6  -5   9 1177.54 402.198  13
   6  -5  -8 3031.99 572.699   2
   6  -5  -8 3265.02 638.493   4
  -6  -5   8 4289.85 616.506  13
   6  -5  -7 4256.23 642.453   2
   6  -5  -7 5480.02 731.720   4
   6  -5  -6 827.035 355.979   2
   6  -5  -6 1048.69 401.759   4
  -6  -5   6 159.346 291.451  14
   6  -5  -5 1400.70 413.278   2
   6  -5  -5 1941.84 503.906   4
  -6  -5   5 730.935 358.224  14
   6  -5  -4 1526.35 382.144   2
  -6  -5   4 2445.63 515.317  14
   6  -5  -3 3470.72 542.858   2
  -6  -5   3 4438.40 682.495  14
   6  -5  -2 1037.63 404.807   2
   6  -5  -2 1690.75 525.071   4
  -6  -5   2 1675.35 472.589  14
   6  -5  -1 9182.14 935.038   4
  -6  -5   1 11092.1 1014.92  14
   6  -5   0 2161.38 508.513   4
  -6  -5   0 1624.33 468.078  14
   6  -5   1 1535.85 519.895   4
  -6  -5  -1 1333.85 427.447  14
   6  -5   2 657.967 377.950   4
  -6  -5  -2 486.282 312.890  14
   6  -5   2 631.043 330.045   6
  -6  -5  -3 3051.60 571.292  14
  -6  -5  -4 1880.42 460.365  14
  -6  -4  11 2471.75 557.886  13
   6  -4 -10 4050.13 576.407   4
  -6  -4  10 3040.59 594.169  13
   6  -4  -9 4552.60 664.952   2
   6  -4  -9 3633.15 588.199   4
  -6  -4   9 4564.92 646.748  13
   6  -4  -8 3901.57 600.758   2
   6  -4  -8 3747.23 604.293   4
  -6  -4   8 3141.36 551.556  13
   6  -4  -7 1506.01 438.055   2
   6  -4  -7 1155.94 391.313   4
  -6  -4   7 1900.89 455.951  13
   6  -4  -6 10054.2 949.239   4
  -6  -4   6 12334.9 934.965  13
   6  -4  -6 9207.38 863.599   2
   6  -4  -5 1008.96 373.161   2
   6  -4  -5 959.996 423.925   4
  -6  -4   5 503.527 365.357  14
   6  -4  -4 598.284 340.136   2
   6  -4  -4 740.083 321.041   4
  -6  -4   4 575.405 340.510  14
   6  -4  -3 2186.51 436.167   2
   6  -4  -3 3754.54 613.926   4
  -6  -4   3 3112.01 561.661  14
   6  -4  -2 4837.88 676.338   4
  -6  -4   2 3847.97 622.934  14
   6  -4  -1 5427.32 706.406   4
  -6  -4   1 4802.65 674.475  14
   6  -4   0 6912.43 826.008   4
  -6  -4   0 8372.05 856.459  14
   6  -4   1 7908.71 856.368   4
  -6  -4  -1 8906.07 877.649  14
   6  -4   2 1246.96 442.963   4
  -6  -4  -2 466.097 303.722  14
   6  -4   2 1349.99 416.358   6
   6  -4   3 4516.83 678.945   4
  -6  -4  -3 4467.33 638.857  14
   6  -4   3 3719.00 658.725   6
   6  -4   4 3607.95 638.247   4
  -6  -4  -4 4989.77 665.361  14
  -6  -4  -5 1685.88 433.159  14
  -6  -4  -6 2155.37 482.437  14
   6  -3 -11 1437.53 456.171   2
  -6  -3  11 1473.32 471.666  13
   6  -3 -10 3281.46 582.531   2
   6  -3 -10 3956.21 589.954   4
  -6  -3  10 5139.58 698.593  13
   6  -3  -9 2857.43 566.128   2
   6  -3  -9 3698.88 556.754   4
  -6  -3   9 3510.30 578.676  13
   6  -3  -8 2682.13 550.450   2
   6  -3  -8 3158.98 526.651   4
  -6  -3   8 3625.99 568.831  13
   6  -3  -7 5218.75 662.595   2
   6  -3  -7 5903.02 692.895   4
  -6  -3   7 5132.36 641.104  13
   6  -3  -6 527.163 279.558   2
  -6  -3   6 605.917 252.401  13
   6  -3  -5 1055.54 363.283   2
   6  -3  -5 1056.79 404.179   4
  -6  -3   5 528.393 215.337  13
   6  -3  -4 736.874 312.270   2
   6  -3  -4 1473.26 410.624   4
  -6  -3   4 731.769 333.210  14
  -6  -3   4 870.586 272.845  13
   6  -3  -3 7046.23 780.411   4
  -6  -3   3 6848.84 768.410  14
  -6  -3   3 5805.27 621.377  13
  -6  -3   2 2380.91 423.662  16
   6  -3  -2 3576.65 584.962   4
  -6  -3   2 2872.60 509.731  14
   6  -3  -1 1591.82 405.178   4
  -6  -3   1 1745.18 433.087  14
   6  -3   0 5521.01 718.957   4
  -6  -3   0 5309.00 667.443  14
   6  -3   1 7140.81 795.752   4
  -6  -3  -1 9191.13 843.109  14
   6  -3   2 5228.04 705.053   4
  -6  -3  -2 5578.35 653.939  14
   6  -3   3 801.804 428.191   4
  -6  -3  -3 798.515 305.992  14
   6  -3   4 1867.52 467.813   4
  -6  -3  -4 2290.94 453.037  14
   6  -3   4 832.644 331.785   6
   6  -3   5 7700.55 830.734   4
   6  -3   5 8386.63 904.864   6
   6  -3   6 1875.44 499.759   4
   6  -2 -13 3851.51 569.077   7
   6  -2 -12 778.048 318.293   7
  -6  -2  12-20.5511 315.340  13
   6  -2 -11 2030.85 499.388   2
   6  -2 -11 2245.92 455.631   7
  -6  -2  11 1821.11 475.668  13
   6  -2 -10 3286.85 560.539   2
   6  -2 -10 3645.98 552.462   4
   6  -2 -10 3807.91 535.083   7
  -6  -2  10 3688.06 611.055  13
   6  -2  -9 3075.85 556.915   2
   6  -2  -9 4581.41 583.323   4
   6  -2  -9 4146.93 529.876   7
  -6  -2   9 3072.84 552.028  13
   6  -2  -8 3760.75 557.650   2
   6  -2  -8 5194.19 646.744   4
   6  -2  -8 5416.46 609.698   7
  -6  -2   8 5536.07 654.974  13
   6  -2  -7 566.540 347.486   2
   6  -2  -7 836.939 352.537   4
   6  -2  -7 989.189 321.233   7
  -6  -2   7 308.949 253.828  13
   6  -2  -6 501.754 279.812   2
   6  -2  -6 162.001 295.950   4
   6  -2  -6 219.082 231.399   7
  -6  -2   6 952.686 413.767  13
   6  -2  -5 3520.26 523.280   2
   6  -2  -5 4003.00 561.921   4
   6  -2  -5 4399.24 555.712   7
  -6  -2   5 4296.49 583.114  13
   6  -2  -4 3449.04 505.621   7
   6  -2  -4 3842.00 580.327   4
  -6  -2   4 2840.84 513.221  14
  -6  -2   4 2541.40 451.108  13
   6  -2  -3 2417.17 449.447   4
  -6  -2   3 1351.47 316.515  16
  -6  -2   3 1511.38 360.165  14
  -6  -2   3 1897.22 402.727  13
   6  -2  -2 4443.87 629.838   4
  -6  -2   2 2833.73 459.674  16
  -6  -2   2 3214.14 521.063  14
  -6  -2   2 3041.76 458.749  13
   6  -2  -1 5125.56 690.043   4
  -6  -2   1 4258.70 541.815  16
  -6  -2   1 5050.55 611.739  14
  -6  -2   1 5367.13 584.335  13
   6  -2   0 2211.81 471.886   4
  -6  -2   0 1640.50 366.725  16
  -6  -2   0 1815.81 378.621  14
   6  -2   1 1727.33 450.331   4
  -6  -2  -1 522.129 210.964  16
  -6  -2  -1 1839.57 392.511  14
   6  -2   2 1629.68 433.980   4
  -6  -2  -2 1244.68 359.397  16
  -6  -2  -2 1711.84 365.119  14
   6  -2   3 843.031 372.102   4
  -6  -2  -3 756.486 310.746  16
   6  -2   4 1206.18 395.168   4
  -6  -2  -4 1407.42 403.443  16
   6  -2   5 2338.36 488.487   4
  -6  -2  -5 2417.77 503.919  16
   6  -2   5 3224.25 596.585   6
   6  -2   6 1684.66 468.876   4
   6  -2   6 1183.20 428.981   6
   6  -2   7 2836.03 535.871   4
   6  -1 -14 736.441 368.623   7
   6  -1 -13 11240.7 942.831   7
   6  -1 -12 8741.09 827.355   7
  -6  -1  12 7966.69 899.059  13
   6  -1 -12 7535.48 821.435   2
   6  -1 -11 2576.65 538.785   2
   6  -1 -11 2189.67 449.513   7
  -6  -1  11 2894.10 578.731  13
   6  -1 -10 2182.04 481.189   2
   6  -1 -10 2328.06 442.434   4
   6  -1 -10 1842.29 423.860   7
  -6  -1  10 1797.90 517.401  13
   6  -1  -9 2173.08 437.565   2
   6  -1  -9 2399.14 462.365   4
   6  -1  -9 2467.35 473.000   7
  -6  -1   9 2540.22 520.059  13
   6  -1  -8 1354.16 374.003   2
   6  -1  -8 1567.20 393.731   4
   6  -1  -8 1819.98 398.649   7
  -6  -1   8 1389.55 421.113  13
   6  -1  -7 1023.23 349.887   2
   6  -1  -7 1755.98 416.412   4
   6  -1  -7 1110.81 340.442   7
  -6  -1   7 1879.48 457.081  13
   6  -1  -6 549.956 336.331   4
   6  -1  -6 733.907 320.958   7
  -6  -1   6 474.041 271.262  13
   6  -1  -5 2705.74 488.345   4
   6  -1  -5 2567.61 473.387   7
  -6  -1   5 2686.95 490.466  13
   6  -1  -4 1520.00 421.732   4
   6  -1  -4 1426.62 363.825   7
  -6  -1   4 1937.64 408.446  13
   6  -1  -3 2066.88 448.999   4
  -6  -1   3 957.360 276.532  16
  -6  -1   3 945.908 294.395  14
  -6  -1   3 1080.46 337.656  13
   6  -1  -2 4296.55 600.225   4
  -6  -1   2 2465.57 425.722  16
  -6  -1   2 3830.99 521.747  14
  -6  -1   2 3720.83 535.856  13
   6  -1  -1 545.761 340.518   4
  -6  -1   1 569.842 266.167  16
  -6  -1   1 824.484 273.647  14
  -6  -1   1 623.901 260.138  13
   6  -1   0 1182.01 363.474   4
  -6  -1   0 717.782 232.089  16
  -6  -1   0 990.376 293.739  14
  -6  -1   0 896.687 300.976  13
   6  -1   1 1805.44 433.213   4
  -6  -1  -1 729.899 272.337  16
   6  -1   2 1089.66 403.880   4
  -6  -1  -2 608.320 275.003  16
   6  -1   3 3781.64 604.703   4
  -6  -1  -3 3887.49 599.640  16
   6  -1   4 491.866 280.711   4
  -6  -1  -4 196.712 272.070  16
   6  -1   5 1910.76 459.932   8
   6  -1   5 1803.44 456.799   4
  -6  -1  -5 797.710 382.204  16
   6  -1   6 579.614 341.196   4
  -6  -1  -6 537.131 368.294  16
   6  -1   7 3941.84 627.319   4
   6   0 -13 1667.53 498.276   7
   6   0 -12 4034.68 628.336   2
   6   0 -12 3774.76 576.819   7
  -6   0  12 4955.18 755.235  13
   6   0 -11 2144.61 477.178   2
   6   0 -11 2027.71 463.404   7
  -6   0  11 1835.63 499.455  13
   6   0 -10 22145.4 1259.20   4
   6   0 -10 23686.8 1363.75   7
  -6   0  10 24158.5 1478.27  13
   6   0 -10 22086.2 1359.36   2
   6   0  -9 2513.27 449.508   4
   6   0  -9 2577.68 480.162   7
  -6   0   9 1591.31 478.648  13
   6   0  -8 1912.14 433.750   4
   6   0  -8 1417.29 346.395   7
  -6   0   8 2125.90 518.595  13
   6   0  -7 12666.8 964.818   4
   6   0  -7 12559.4 945.551   7
  -6   0   7 12793.2 1010.56  13
   6   0  -6 1872.71 431.954   4
   6   0  -6 1238.13 375.295   7
  -6   0   6 1096.21 391.476  13
   6   0  -5 3654.40 556.975   4
   6   0  -5 5084.73 610.830   7
  -6   0   5 4175.67 601.569  13
   6   0  -4 1070.92 316.379   4
   6   0  -4 518.735 279.828   7
  -6   0   4 1323.94 367.672  13
   6   0  -3 100.054 301.416   4
  -6   0   3 365.842 206.851  16
   6   0  -3 304.852 235.524   7
  -6   0   3 232.534 198.479  14
  -6   0   3 573.996 311.610  13
   6   0  -2 1959.74 432.342   4
  -6   0   2 1144.53 319.006  16
  -6   0   2 2060.29 381.811  14
  -6   0   2 1772.76 407.641  13
  -6   0   1 5205.29 604.750  16
   6   0  -1 5930.28 683.695   4
   6   0   0 5294.79 676.673   4
  -6   0   0 3633.63 527.824  16
   6   0   1-132.264 266.460   8
   6   0   1 499.125 296.725   4
  -6   0  -1-88.6686 190.327  16
   6   0   2 2740.32 519.322   8
   6   0   2 1851.78 445.079   4
  -6   0  -2 1789.59 406.612  16
   6   0   3 392.905 307.440   4
   6   0   3-204.869 266.003   8
  -6   0  -3-538.626 338.289  16
   6   0   4 17131.3 1184.51   4
   6   0   4 17829.1 1238.84   8
  -6   0  -4 15017.1 1168.91  16
   6   0   5-200.166 242.683   4
   6   0   5 223.943 363.081   8
  -6   0  -5 80.7027 236.687  16
   6   0   6 622.378 334.721   4
   6   0   6 971.903 385.370   8
  -6   0  -6 484.629 331.396  16
   6   0   7 804.162 382.907   4
   6   1 -13 11555.0 1008.32   7
   6   1 -12 9895.75 929.013   7
  -6   1  12 9167.81 950.022  13
   6   1 -11 2857.06 522.552   7
  -6   1  11 2747.10 603.231  13
   6   1 -10 1739.90 426.884   7
  -6   1  10 415.309 364.799  13
   6   1  -9 2279.50 458.073   7
  -6   1   9 1959.41 497.642  13
   6   1  -8 1205.23 363.340   7
  -6   1   8 1593.73 467.642  13
   6   1  -7 1384.99 386.782   7
  -6   1   7 1430.95 416.712  13
   6   1  -6 215.386 290.181   4
   6   1  -6 304.297 253.086   7
  -6   1   6 344.870 282.722  13
   6   1  -5 2567.17 483.412   4
   6   1  -5 2828.13 493.414   7
  -6   1   5 1892.52 490.232  13
   6   1  -4 778.707 338.524   4
  -6   1   4 1140.89 279.995  16
   6   1  -4 1500.79 384.125   7
   6   1  -3 1171.55 365.488   4
  -6   1   3 713.590 259.169  16
   6   1  -3 930.790 357.596   7
  -6   1   3 1328.95 385.156  13
   6   1  -2 3586.46 567.737   4
  -6   1   2 2734.82 458.913  16
   6   1  -1 677.861 310.715   8
   6   1  -1 1282.66 395.951   4
  -6   1   1 1116.44 344.851  16
   6   1   0 918.672 339.786   4
   6   1   0 1286.21 377.155   8
  -6   1   0 1040.11 309.246  16
   6   1   1 1305.66 380.406   8
  -6   1  -1 1254.28 374.917  16
   6   1   2 1156.44 385.733   4
   6   1   2 837.231 337.665   8
  -6   1  -2 945.356 347.005  16
   6   1   3 5101.62 677.309   4
   6   1   3 4575.13 660.466   8
  -6   1  -3 4361.14 643.286  16
   6   1   4 756.309 338.325   4
   6   1   4 319.081 360.540   8
  -6   1  -4 661.939 325.903  16
   6   1   5 930.626 413.748   8
  -6   1  -5 1443.15 440.159  16
   6   1   6 206.695 294.945   8
  -6   1  -6 187.215 330.096  16
   6   2 -12 541.738 315.472   7
   6   2 -11 2371.53 520.144   7
  -6   2  11 781.488 396.904  13
   6   2 -10 2881.42 520.843   7
  -6   2  10 1875.47 466.122  13
   6   2  -9 4394.83 620.791   7
  -6   2   9 4301.19 706.942  13
   6   2  -8 5593.53 682.369   7
  -6   2   8 4725.84 721.397  13
   6   2  -7-40.0904 242.674   7
  -6   2   7 1078.74 432.243  13
   6   2  -6 609.964 357.176   7
  -6   2   6 120.512 324.824  13
   6   2  -5 3080.78 516.604   7
  -6   2   5 4617.99 650.162  13
  -6   2   4 1321.61 315.203  16
   6   2  -4 2753.71 490.168   7
  -6   2   4 3290.47 535.471  13
  -6   2   3 1271.93 311.061  16
   6   2  -3 1377.28 366.136   7
   6   2  -2 3217.07 536.453   8
  -6   2   2 2727.50 438.692  16
   6   2  -1 5579.47 664.951   8
  -6   2   1 4297.86 562.838  16
   6   2   0 2022.90 460.586   8
  -6   2   0 1774.83 419.328  16
   6   2   1 1511.36 395.982   8
  -6   2  -1 1895.83 430.635  16
   6   2   2 1819.64 440.970   8
  -6   2  -2 1608.69 446.391  16
   6   2   3 833.201 360.117   8
  -6   2  -3 1199.95 435.044  16
   6   2   4 2178.06 489.908   8
  -6   2  -4 940.499 363.658  16
   6   2   5 2444.14 489.056   8
  -6   2  -5 2748.03 555.439  16
  -6   2  -8 738.810 313.363  11
   6   3 -11 756.369 374.288   7
  -6   3  11 694.741 368.779  13
   6   3 -10 3470.55 583.226   7
  -6   3  10 5013.47 727.071  13
   6   3  -9 3161.82 545.200   7
  -6   3   9 3687.52 643.593  13
   6   3  -8 4041.50 632.768   7
  -6   3   8 3676.49 619.616  13
   6   3  -7 5451.91 681.234   7
  -6   3   7 5755.53 755.617  13
   6   3  -6 1218.09 384.410   7
  -6   3   6 1085.06 447.850  13
   6   3  -5 658.272 316.682   7
  -6   3   5 998.208 401.164  13
   6   3  -4 928.240 317.364   8
  -6   3   4 1024.76 299.030  16
   6   3  -4 565.520 306.294   7
   6   3  -3 5511.18 653.362   8
  -6   3   3 4410.64 566.480  16
   6   3  -3 6501.73 767.842   7
   6   3  -2 2771.08 497.607   8
  -6   3   2 2415.35 468.045  16
   6   3  -1 1692.54 428.835   8
  -6   3   1 1310.52 325.002  16
   6   3   0 4795.31 635.776   8
  -6   3   0 4419.31 611.436  16
  -6   3  -1 6711.99 755.961  16
   6   3   1 9270.28 856.134   8
   6   3   2 4683.57 675.827   8
  -6   3  -2 3457.54 575.329  16
   6   3   3 1038.13 351.619   8
  -6   3  -3 1031.78 376.550  16
   6   3   4 1759.91 466.759   8
  -6   3  -4 1359.21 414.442  16
  -6   3  -5 9183.49 955.237  16
   6   3   5 9425.98 929.108   8
  -6   3  -7 432.676 284.167  11
   6   4 -10 3516.26 588.091   7
  -6   4  10 3719.64 652.469  13
   6   4  -9 5188.23 676.906   7
  -6   4   9 4581.89 706.955  13
   6   4  -8 3447.84 591.322   7
  -6   4   8 3919.37 677.080  13
   6   4  -7 2021.53 453.735   7
  -6   4   7 1810.63 488.831  13
   6   4  -6 11732.1 994.107   7
  -6   4   6 12438.1 1086.43  13
   6   4  -5 1661.37 371.896   8
   6   4  -5 475.261 330.231   7
   6   4  -4 968.951 329.311   8
  -6   4   4 738.893 301.312  16
   6   4  -4-41.2473 249.636   7
   6   4  -3 3192.69 487.437   8
  -6   4   3 3080.24 506.808  16
   6   4  -3 3152.85 531.507   7
   6   4  -2 4020.47 586.741   8
  -6   4   2 3834.23 565.641  16
   6   4  -1 3400.62 556.950   8
  -6   4   1 4047.37 607.471  16
  -6   4   0 6620.42 787.965  16
   6   4   0 7584.60 805.914   8
  -6   4  -1 6609.64 777.282  16
   6   4   1 8709.74 845.896   8
   6   4   2 1747.93 443.770   8
  -6   4  -2 855.318 352.250  16
   6   4   3 3343.61 589.693   8
  -6   4  -3 3371.02 588.268  16
  -6   4  -4 3958.39 655.870  16
   6   4   4 4201.98 628.515   8
  -6   4  -6 1085.93 371.354  11
   6   5  -8 5573.04 726.890   7
  -6   5   8 3199.33 606.036  13
   6   5  -7 5718.69 734.926   7
  -6   5   7 5771.49 790.288  13
   6   5  -6 965.804 402.768   7
   6   5  -5 2000.46 509.294   7
   6   5  -4 2547.18 455.867   8
  -6   5   4 2509.66 498.830  16
   6   5  -4 2118.86 466.328   7
   6   5  -3 5205.56 640.341   8
  -6   5   3 4217.53 614.561  16
   6   5  -3 5438.05 710.545   7
   6   5  -2 726.310 339.332   8
  -6   5   2 1441.75 395.162  16
  -6   5   1 8507.21 856.808  16
   6   5  -1 11004.9 946.233   8
  -6   5   0 2118.76 502.393  16
   6   5   0 1884.88 439.602   8
  -6   5  -1 2254.57 500.129  16
   6   5   1 1915.32 469.812   8
  -6   5  -2 623.730 337.454  16
   6   5   2 465.679 301.267   8
   6   5   3 3390.46 573.953   8
  -6   6   4 52.9372 294.176  16
   6   6  -4-299.582 278.862   7
  -6   6   3 3265.67 538.624  16
   6   6  -3 3710.86 533.231   8
   6   6  -3 3977.07 617.792   7
  -6   6   2 530.864 316.686  16
   6   6  -2 243.050 268.606   8
  -6   6   1 1386.58 466.138  16
   6   6  -1 996.625 372.325   8
  -6   6   0 8527.90 877.715  16
   6   6   0 8969.75 883.842   8
   6   6   1 8526.80 863.523   8
  -6   7   4 281.337 320.928  16
  -6   7   3 1389.91 396.825  16
   6   7  -1 1718.85 418.012   8
   6   7   0-465.198 297.540   8
  -7  -3   4 6245.93 785.026  14
  -7  -3   3 630.188 317.725  14
  -7  -3   2 897.300 351.547  14
  -7  -3   1 2922.63 564.080  14
  -7  -3   0 1253.46 364.759  16
  -7  -2   7 300.109 386.885  13
  -7  -2   6-322.557 225.861  14
  -7  -2   6 963.429 377.718  13
  -7  -2   5 3058.91 551.357  14
  -7  -2   5 4022.65 651.643  13
  -7  -2   4 305.065 248.645  14
  -7  -2   0 431.519 276.045  16
   7  -1  -9 1682.66 462.927   7
   7  -1  -8 3432.61 547.720   7
   7  -1  -7 1284.49 406.294   7
   7  -1  -6 1250.28 471.222   7
  -7  -1   6 2469.28 533.824  13
  -7  -1   5 5548.33 726.889  13
  -7  -1   4 1342.59 416.300  13
  -7  -1   3 1409.79 381.855  13
  -7  -1   1 533.169 244.446  16
  -7  -1   0 913.741 370.282  16
   7   0  -8 8505.55 873.426   7
   7   0  -7 2296.44 500.597   7
   7   0  -6-127.881 287.444   7
  -7   0   6 251.837 275.080  13
   7   0  -5 372.177 359.659   7
  -7   0   5 495.812 333.409  13
  -7   0   4 1033.20 415.609  13
  -7   0   3 126.640 243.763  13
  -7   0   2 1861.39 438.410  13
  -7   0   1 2587.49 491.281  16
  -7   0   1 4225.53 623.846  13
  -7   0   0 363.004 258.155  16
   7   1  -6 1382.93 457.460   7
   7   1  -5 4764.54 680.858   7
  -7   1   5 3950.57 643.205  13
  -7   1   4 1198.83 424.224  13
  -7   1   3 1510.25 402.542  13
  -7   1   2 1625.24 427.840  13
  -7   1   1 747.549 309.342  16
  -7   1   1 444.553 303.472  13
  -7   1   0 1656.52 445.045  16
  -7   2   1 511.920 311.571  16
  -7   2   0 829.021 356.544  16
  -7   3   2 722.130 345.437  16
  -7   3   1 2227.41 517.776  16
   0   0   0    0.00    0.00   0
TITL 7072-9479_vasilev184_2 in P2(1)
REM P2(1) (#4 in standard setting)
CELL 0.71073   5.017908   9.174776  14.144102  90.0000 100.1681  90.0000
ZERR    2.00   0.000184   0.000265   0.000589   0.0000   0.0038   0.0000
LATT -1
SYMM -x, y+1/2,-z
SFAC C N O F
UNIT 30.00 2.00 2.00 6.00
TREF
HKLF 4
END
;
_shelx_hkl_checksum              9634
_olex2_submission_special_instructions 'No special instructions were received'
loop_
_space_group_symop_operation_xyz
'x, y, z'
'-x, y+1/2, -z'
loop_
_atom_site_label
_atom_site_type_symbol
_atom_site_fract_x
_atom_site_fract_y
_atom_site_fract_z
_atom_site_U_iso_or_equiv
_atom_site_adp_type
_atom_site_occupancy
_atom_site_site_symmetry_order
_atom_site_calc_flag
_atom_site_refinement_flags_posn
F3 F -0.7914(2) -0.34922(15) -0.24646(9) 0.0254(3) Uani 1 1 d .
F1 F -0.3835(3) -0.34369(15) -0.16625(9) 0.0271(3) Uani 1 1 d .
F2 F -0.4804(3) -0.23149(14) -0.30209(10) 0.0269(3) Uani 1 1 d .
O1 O -0.0330(3) -0.65609(15) -0.21010(10) 0.0188(3) Uani 1 1 d .
N1 N -0.4864(3) -0.61580(17) -0.24735(12) 0.0152(3) Uani 1 1 d .
H1 H -0.6492 -0.6446 -0.2406 0.018 Uiso 1 1 calc R
C1 C -0.2654(4) -0.6896(2) -0.20188(13) 0.0132(4) Uani 1 1 d .
C3 C -0.5287(4) -0.3530(2) -0.25498(14) 0.0184(4) Uani 1 1 d .
C4 C -0.3230(4) -0.81507(19) -0.14073(13) 0.0143(4) Uani 1 1 d .
C2 C -0.4564(4) -0.4901(2) -0.30686(14) 0.0155(4) Uani 1 1 d .
H2 H -0.2604 -0.4828 -0.3117 0.019 Uiso 1 1 calc R
C11 C -0.6154(4) -0.5004(2) -0.40869(13) 0.0161(4) Uani 1 1 d .
C6 C -0.5497(4) -0.9040(2) -0.16634(15) 0.0175(4) Uani 1 1 d .
H6 H -0.6739 -0.8857 -0.2240 0.021 Uiso 1 1 calc R
C7 C -0.5936(4) -1.0200(2) -0.10703(16) 0.0215(4) Uani 1 1 d .
H7 H -0.7452 -1.0823 -0.1250 0.026 Uiso 1 1 calc R
C10 C -0.1411(4) -0.8414(2) -0.05525(14) 0.0179(4) Uani 1 1 d .
H10 H 0.0153 -0.7822 -0.0382 0.021 Uiso 1 1 calc R
C9 C -0.1908(4) -0.9551(2) 0.00464(15) 0.0226(4) Uani 1 1 d .
H9 H -0.0712 -0.9717 0.0636 0.027 Uiso 1 1 calc R
C8 C -0.4152(4) -1.0437(2) -0.02198(16) 0.0226(4) Uani 1 1 d .
H8 H -0.4469 -1.1218 0.0187 0.027 Uiso 1 1 calc R
C16 C -0.8383(4) -0.5915(2) -0.43269(15) 0.0207(4) Uani 1 1 d .
H16 H -0.8976 -0.6487 -0.3844 0.025 Uiso 1 1 calc R
C12 C -0.5308(5) -0.4165(3) -0.48060(16) 0.0241(5) Uani 1 1 d .
H12 H -0.3787 -0.3538 -0.4651 0.029 Uiso 1 1 calc R
C15 C -0.9756(5) -0.5993(3) -0.52740(16) 0.0261(5) Uani 1 1 d .
H15 H -1.1282 -0.6615 -0.5433 0.031 Uiso 1 1 calc R
C13 C -0.6692(5) -0.4248(3) -0.57478(17) 0.0295(5) Uani 1 1 d .
H13 H -0.6120 -0.3671 -0.6233 0.035 Uiso 1 1 calc R
C14 C -0.8899(5) -0.5166(3) -0.59824(16) 0.0296(5) Uani 1 1 d .
H14 H -0.9823 -0.5229 -0.6628 0.035 Uiso 1 1 calc R
loop_
_atom_site_aniso_label
_atom_site_aniso_U_11
_atom_site_aniso_U_22
_atom_site_aniso_U_33
_atom_site_aniso_U_23
_atom_site_aniso_U_13
_atom_site_aniso_U_12
F3 0.0230(6) 0.0199(6) 0.0346(7) -0.0037(6) 0.0084(5) 0.0020(5)
F1 0.0358(7) 0.0207(6) 0.0214(6) -0.0024(5) -0.0039(5) 0.0007(6)
F2 0.0388(7) 0.0120(6) 0.0298(7) 0.0044(5) 0.0058(6) -0.0035(5)
O1 0.0141(6) 0.0186(7) 0.0240(7) 0.0038(6) 0.0045(5) 0.0009(6)
N1 0.0140(7) 0.0127(8) 0.0197(8) 0.0040(6) 0.0048(6) -0.0004(6)
C1 0.0154(9) 0.0118(9) 0.0122(8) -0.0025(7) 0.0021(7) -0.0004(7)
C3 0.0202(9) 0.0137(9) 0.0204(10) 0.0019(8) 0.0014(7) -0.0021(8)
C4 0.0170(9) 0.0107(9) 0.0166(9) -0.0006(7) 0.0070(7) 0.0021(7)
C2 0.0152(9) 0.0121(9) 0.0194(9) 0.0042(8) 0.0040(7) -0.0002(7)
C11 0.0183(9) 0.0140(9) 0.0166(9) 0.0022(8) 0.0049(7) 0.0058(7)
C6 0.0179(10) 0.0126(9) 0.0220(10) -0.0003(8) 0.0036(8) 0.0013(7)
C7 0.0214(10) 0.0123(9) 0.0329(11) 0.0008(8) 0.0106(8) -0.0017(8)
C10 0.0178(9) 0.0157(9) 0.0200(9) 0.0006(8) 0.0031(7) 0.0006(8)
C9 0.0274(11) 0.0209(10) 0.0194(10) 0.0070(8) 0.0040(8) 0.0061(8)
C8 0.0285(11) 0.0139(10) 0.0286(11) 0.0081(8) 0.0138(9) 0.0041(8)
C16 0.0223(10) 0.0197(10) 0.0202(10) -0.0006(9) 0.0038(8) 0.0017(8)
C12 0.0269(11) 0.0214(10) 0.0253(11) 0.0049(9) 0.0080(9) 0.0022(9)
C15 0.0248(11) 0.0260(11) 0.0254(11) -0.0047(10) -0.0015(9) 0.0045(9)
C13 0.0387(13) 0.0298(12) 0.0216(11) 0.0090(10) 0.0096(9) 0.0105(11)
C14 0.0364(12) 0.0331(13) 0.0172(10) -0.0018(9) -0.0009(8) 0.0165(10)
loop_
_atom_type_symbol
_atom_type_description
_atom_type_scat_dispersion_real
_atom_type_scat_dispersion_imag
_atom_type_scat_source
C C 0.0033 0.0016 'International Tables Vol C Tables 4.2.6.8 and 6.1.1.4'
H H 0.0000 0.0000 'International Tables Vol C Tables 4.2.6.8 and 6.1.1.4'
F F 0.0171 0.0103 'International Tables Vol C Tables 4.2.6.8 and 6.1.1.4'
N N 0.0061 0.0033 'International Tables Vol C Tables 4.2.6.8 and 6.1.1.4'
O O 0.0106 0.0060 'International Tables Vol C Tables 4.2.6.8 and 6.1.1.4'
loop_
_geom_angle_atom_site_label_1
_geom_angle_atom_site_label_2
_geom_angle_atom_site_label_3
_geom_angle
C1 N1 C2 120.70(16)
O1 C1 N1 122.54(17)
O1 C1 C4 121.92(17)
N1 C1 C4 115.55(16)
F3 C3 C2 112.50(16)
F1 C3 F3 107.13(15)
F1 C3 F2 107.24(16)
F1 C3 C2 111.45(16)
F2 C3 F3 106.79(16)
F2 C3 C2 111.43(15)
C6 C4 C1 122.07(17)
C6 C4 C10 120.02(17)
C10 C4 C1 117.91(17)
N1 C2 C3 108.49(15)
N1 C2 C11 114.17(17)
C11 C2 C3 112.04(16)
C16 C11 C2 122.24(17)
C16 C11 C12 119.17(19)
C12 C11 C2 118.58(18)
C4 C6 C7 119.85(18)
C8 C7 C6 119.70(19)
C9 C10 C4 119.63(18)
C8 C9 C10 119.86(19)
C7 C8 C9 120.91(19)
C11 C16 C15 120.3(2)
C13 C12 C11 120.1(2)
C14 C15 C16 120.2(2)
C14 C13 C12 120.4(2)
C13 C14 C15 119.8(2)
loop_
_geom_bond_atom_site_label_1
_geom_bond_atom_site_label_2
_geom_bond_distance
F3 C3 1.345(2)
F1 C3 1.338(2)
F2 C3 1.343(2)
O1 C1 1.231(2)
N1 C1 1.360(2)
N1 C2 1.451(2)
C1 C4 1.498(3)
C3 C2 1.532(3)
C4 C6 1.395(3)
C4 C10 1.401(3)
C2 C11 1.521(3)
C11 C16 1.390(3)
C11 C12 1.400(3)
C6 C7 1.397(3)
C7 C8 1.384(3)
C10 C9 1.393(3)
C9 C8 1.386(3)
C16 C15 1.396(3)
C12 C13 1.391(3)
C15 C14 1.384(3)
C13 C14 1.384(4)
