#------------------------------------------------------------------------------
#$Date: 2019-11-11 17:40:08 +0200 (Mon, 11 Nov 2019) $
#$Revision: 226758 $
#$URL: file:///home/coder/svn-repositories/cod/cif/4/03/52/4035294.cif $
#------------------------------------------------------------------------------
#
# This file is available in the Crystallography Open Database (COD),
# http://www.crystallography.net/
#
# All data on this site have been placed in the public domain by the
# contributors.
#
data_4035294
loop_
_publ_author_name
'Bala, Saikat'
'Liao, Jen-Yu'
'Zhang, Li'
'Tran, Chantel N.'
'Chim, Nicholas'
'Chaput, John C.'
_publ_section_title
;
 Synthesis of 2'-Deoxy-\a-l-threofuranosyl Nucleoside Triphosphates.
;
_journal_issue                   16
_journal_name_full               'The Journal of organic chemistry'
_journal_page_first              8840
_journal_page_last               8850
_journal_paper_doi               10.1021/acs.joc.8b00875
_journal_volume                  83
_journal_year                    2018
_chemical_absolute_configuration syn
_chemical_formula_sum            'C16 H15 N5 O3'
_chemical_formula_weight         325.33
_space_group_crystal_system      monoclinic
_space_group_IT_number           4
_space_group_name_Hall           'P 2yb'
_space_group_name_H-M_alt        'P 1 21 1'
_atom_sites_solution_hydrogens   difmap
_atom_sites_solution_primary     dual
_atom_sites_solution_secondary   difmap
_audit_creation_method           SHELXL-2014/7
_cell_angle_alpha                90
_cell_angle_beta                 101.960(7)
_cell_angle_gamma                90
_cell_formula_units_Z            2
_cell_length_a                   6.817(4)
_cell_length_b                   7.077(4)
_cell_length_c                   15.985(9)
_cell_measurement_reflns_used    8739
_cell_measurement_temperature    88(2)
_cell_measurement_theta_max      30.60
_cell_measurement_theta_min      3.88
_cell_volume                     754.4(7)
_computing_cell_refinement       'Bruker SAINT 8.34a, 2013'
_computing_data_collection       'Bruker APEX2 2014.11-0, 2014'
_computing_data_reduction        'Bruker SAINT 8.34a, 2013'
_computing_molecular_graphics    'Bruker SHELXTL'
_computing_publication_material  'Bruker SHELXTL'
_computing_structure_refinement  'SHELXL-2014/7 (Sheldrick, 2014)'
_computing_structure_solution    'Bruker SHELXTL 2014/4'
_diffrn_ambient_temperature      88(2)
_diffrn_measured_fraction_theta_full 0.995
_diffrn_measured_fraction_theta_max 0.993
_diffrn_measurement_device_type  'Bruker SMART APEX II CCD'
_diffrn_measurement_method       '\f and \w scans'
_diffrn_radiation_type           MoK\a
_diffrn_radiation_wavelength     0.71073
_diffrn_reflns_av_R_equivalents  0.0184
_diffrn_reflns_av_unetI/netI     0.0241
_diffrn_reflns_Laue_measured_fraction_full 0.995
_diffrn_reflns_Laue_measured_fraction_max 0.993
_diffrn_reflns_limit_h_max       9
_diffrn_reflns_limit_h_min       -9
_diffrn_reflns_limit_k_max       10
_diffrn_reflns_limit_k_min       -10
_diffrn_reflns_limit_l_max       22
_diffrn_reflns_limit_l_min       -22
_diffrn_reflns_number            11727
_diffrn_reflns_point_group_measured_fraction_full 0.997
_diffrn_reflns_point_group_measured_fraction_max 0.989
_diffrn_reflns_theta_full        25.500
_diffrn_reflns_theta_max         30.601
_diffrn_reflns_theta_min         3.884
_diffrn_source                   'fine-focus sealed tube'
_exptl_absorpt_coefficient_mu    0.103
_exptl_absorpt_correction_T_max  1.0000
_exptl_absorpt_correction_T_min  0.9635
_exptl_absorpt_correction_type   multi-scan
_exptl_absorpt_process_details   'Bruker SADABS 2014/5'
_exptl_crystal_colour            colorless
_exptl_crystal_density_diffrn    1.432
_exptl_crystal_density_meas      ?
_exptl_crystal_density_method    not_measured
_exptl_crystal_description       irregular
_exptl_crystal_F_000             340
_exptl_crystal_size_max          0.596
_exptl_crystal_size_mid          0.251
_exptl_crystal_size_min          0.138
_refine_diff_density_max         0.428
_refine_diff_density_min         -0.164
_refine_diff_density_rms         0.045
_refine_ls_abs_structure_details
; 
 Flack x determined using 1984 quotients [(I+)-(I-)]/[(I+)+(I-)] 
 (Parsons, Flack and Wagner, Acta Cryst. B69 (2013) 249-259). 
;
_refine_ls_abs_structure_Flack   -0.2(3)
_refine_ls_extinction_method     none
_refine_ls_goodness_of_fit_ref   1.048
_refine_ls_hydrogen_treatment    refall
_refine_ls_matrix_type           full
_refine_ls_number_parameters     277
_refine_ls_number_reflns         4580
_refine_ls_number_restraints     1
_refine_ls_restrained_S_all      1.048
_refine_ls_R_factor_all          0.0324
_refine_ls_R_factor_gt           0.0311
_refine_ls_shift/su_max          0.000
_refine_ls_shift/su_mean         0.000
_refine_ls_structure_factor_coef Fsqd
_refine_ls_weighting_details
'w=1/[\s^2^(Fo^2^)+(0.0506P)^2^+0.0997P] where P=(Fo^2^+2Fc^2^)/3'
_refine_ls_weighting_scheme      calc
_refine_ls_wR_factor_gt          0.0791
_refine_ls_wR_factor_ref         0.0801
_reflns_Friedel_coverage         0.856
_reflns_Friedel_fraction_full    0.998
_reflns_Friedel_fraction_max     0.985
_reflns_number_gt                4425
_reflns_number_total             4580
_reflns_threshold_expression     'I > 2\s(I)'
_cod_data_source_file            jo8b00875_si_002.cif
_cod_data_source_block           jcc5
_cod_depositor_comments
;
The following automatic conversions were performed:

data item '_exptl_crystal_density_meas' value 'not_measured' was
changed to '?' -- the value is perceived as not measured.

Automatic conversion script
Id: cif_fix_values 6909 2019-04-08 15:41:33Z antanas 
;
_cod_original_cell_volume        754.4(8)
_cod_original_sg_symbol_H-M      'P 21'
_cod_database_code               4035294
_shelx_shelxl_version_number     2014/7
_shelx_space_group_comment
; 
The symmetry employed for this shelxl refinement is uniquely defined 
by the following loop, which should always be used as a source of 
symmetry information in preference to the above space-group names. 
They are only intended as comments. 
;
_shelx_estimated_absorpt_t_min   0.941
_shelx_estimated_absorpt_t_max   0.986
_exptl_absorpt_special_details
; 
Reflections not merged 
11743 Corrected reflections written to file jcc5s.hkl 
Estimated minimum and maximum transmission:  0.9635  1.0000 
The ratio (0.9635) of these values is more reliable than their absolute values 
Additional spherical absorption correction applied with mu*r =  0.0000 
Lambda/2 correction factor = 0.00150 
;
_shelx_res_file
; 
  
    jcc5.res created by SHELXL-2014/7 
  
  
TITL jcc5 in P2(1) 
CELL 0.71073   6.81730   7.07660  15.98520  90.0000 101.9601  90.0000 
ZERR    2.00   0.00390   0.00410   0.00920   0.0000   0.0072   0.0000 
LATT -1 
SYMM -X, 0.5+Y, -Z 
SFAC C H N O 
UNIT 32 30 10 6 
TEMP -185.000 
SIZE 0.138 0.251 0.596 
  
L.S. 14 
FMAP 2 
PLAN 10 
  
EQIV $1 -x+1, y-1/2, -z+1 
HTAB O3' O1"_$1 
HTAB O3' N1_$1 
EQIV $2 -x+2, y-1/2, -z+1 
HTAB N6 O4'_$2 
  
CONF 
BOND $H 
ACTA 51 
  
WGHT    0.050600    0.099700 
FVAR       0.32956 
O1"   4    0.319185    0.557265    0.209403    11.00000    0.01336    0.04070 = 
         0.01794   -0.00808    0.00080    0.00423 
O3'   4    0.964643    0.282787    0.703690    11.00000    0.01332    0.01199 = 
         0.01490   -0.00167    0.00092   -0.00171 
O4'   4    1.106096    0.695488    0.710997    11.00000    0.01602    0.01700 = 
         0.01400    0.00212   -0.00212   -0.00495 
N1    3    0.414923    0.660708    0.382029    11.00000    0.01205    0.01295 = 
         0.01259    0.00041    0.00303    0.00136 
N3    3    0.522767    0.717119    0.533634    11.00000    0.01336    0.01186 = 
         0.01311   -0.00082    0.00326    0.00107 
N6    3    0.628940    0.530387    0.297884    11.00000    0.01168    0.02386 = 
         0.00983   -0.00032    0.00097    0.00651 
N7    3    0.945674    0.525919    0.462314    11.00000    0.01142    0.01500 = 
         0.01347    0.00162    0.00262    0.00169 
N9    3    0.871627    0.631748    0.585336    11.00000    0.01114    0.01122 = 
         0.01104   -0.00014    0.00057   -0.00050 
C1'   1    0.899725    0.701351    0.673979    11.00000    0.01535    0.01249 = 
         0.01101   -0.00129    0.00063   -0.00052 
C1"   1    0.496985    0.521401    0.220340    11.00000    0.01421    0.01267 = 
         0.01113   -0.00072    0.00177    0.00009 
C2'   1    0.796911    0.577279    0.729860    11.00000    0.01584    0.01528 = 
         0.01193   -0.00110    0.00430    0.00062 
C2    1    0.390015    0.715904    0.459870    11.00000    0.01241    0.01206 = 
         0.01452   -0.00008    0.00367    0.00158 
C2"   1    0.590411    0.462731    0.147444    11.00000    0.01432    0.01130 = 
         0.01061   -0.00021    0.00218    0.00226 
C3'   1    0.956744    0.428606    0.763713    11.00000    0.01586    0.01360 = 
         0.01044    0.00065    0.00165   -0.00174 
C3"   1    0.789085    0.503592    0.144887    11.00000    0.01458    0.01418 = 
         0.01228    0.00040    0.00100    0.00108 
C4'   1    1.147480    0.544410    0.773802    11.00000    0.01808    0.01473 = 
         0.01646    0.00114   -0.00420   -0.00336 
C4    1    0.701197    0.653504    0.523684    11.00000    0.01262    0.00930 = 
         0.01034    0.00097    0.00159   -0.00060 
C4"   1    0.861944    0.457855    0.072314    11.00000    0.01726    0.02186 = 
         0.01726    0.00027    0.00584    0.00202 
C5    1    0.749607    0.588276    0.447979    11.00000    0.01136    0.01206 = 
         0.00989    0.00085    0.00258    0.00051 
C5"   1    0.737907    0.369010    0.003162    11.00000    0.02766    0.02464 = 
         0.01518   -0.00338    0.00783    0.00314 
C6    1    0.594060    0.593681    0.375335    11.00000    0.01284    0.01286 = 
         0.00980    0.00108    0.00202    0.00098 
C6"   1    0.540509    0.327135    0.006063    11.00000    0.02516    0.02008 = 
         0.01454   -0.00647    0.00162    0.00020 
C7"   1    0.466568    0.374543    0.077709    11.00000    0.01626    0.01555 = 
         0.01455   -0.00322    0.00066   -0.00057 
C8    1    1.011813    0.556294    0.544810    11.00000    0.01228    0.01373 = 
         0.01339    0.00169    0.00189    0.00041 
H3'   2    0.848092    0.231839    0.690326    11.00000    0.02469 
H6    2    0.737006    0.487871    0.298509    11.00000    0.02324 
H1A   2    0.854149    0.835398    0.670389    11.00000    0.01271 
H2A   2    0.672275    0.521663    0.700669    11.00000    0.02267 
H2B   2    0.777811    0.648599    0.779292    11.00000    0.03206 
H2    2    0.260717    0.756224    0.460753    11.00000    0.00863 
H3A   2    0.940658    0.378528    0.815999    11.00000    0.01701 
H3"   2    0.877136    0.569147    0.193081    11.00000    0.02465 
H4A   2    1.187956    0.603040    0.830874    11.00000    0.02415 
H4B   2    1.257870    0.468071    0.762298    11.00000    0.02033 
H4"   2    1.002728    0.495298    0.070375    11.00000    0.02295 
H5"   2    0.789282    0.335280   -0.048828    11.00000    0.02409 
H6"   2    0.457598    0.259073   -0.040718    11.00000    0.02528 
H7"   2    0.331352    0.350969    0.080392    11.00000    0.02148 
H8    2    1.146058    0.531273    0.576327    11.00000    0.01236 
HKLF 4 
  
REM  jcc5 in P2(1) 
REM R1 =  0.0311 for    4425 Fo > 4sig(Fo)  and  0.0324 for all    4580 data 
REM    277 parameters refined using      1 restraints 
  
END 
  
WGHT      0.0506      0.0995 
  
REM Highest difference peak  0.428,  deepest hole -0.164,  1-sigma level  0.045 
Q1    1   0.7268  0.6211  0.4866  11.00000  0.05    0.43 
Q2    1   0.6767  0.5909  0.4105  11.00000  0.05    0.41 
Q3    1   0.5611  0.5353  0.2605  11.00000  0.05    0.36 
Q4    1   0.7773  0.6397  0.5599  11.00000  0.05    0.35 
Q5    1   0.4570  0.7101  0.4978  11.00000  0.05    0.34 
Q6    1   0.5448  0.4924  0.1822  11.00000  0.05    0.33 
Q7    1   0.8125  0.4668  0.1112  11.00000  0.05    0.32 
Q8    1   0.4187  0.6973  0.4232  11.00000  0.05    0.31 
Q9    1   0.8745  0.6678  0.6283  11.00000  0.05    0.30 
Q10   1   0.5080  0.3538  0.0428  11.00000  0.05    0.30 
;
_shelx_res_checksum              67309
_shelx_hkl_file
; 
  -2   0   0   98.83    2.28 
   2   0   0  102.64    2.27 
  -2   0   0   98.91    2.24 
   3   0   0    5.66    0.21 
  -3   0   0    5.23    0.22 
  -3   0   0    5.68    0.17 
  -4   0   0    0.67    0.10 
   4   0   0    0.73    0.11 
  -4   0   0    0.68    0.07 
   5   0   0    0.47    0.10 
  -5   0   0    0.70    0.08 
  -5   0   0    0.71    0.12 
   6   0   0    0.86    0.15 
  -6   0   0    0.92    0.15 
  -6   0   0    1.06    0.10 
  -7   0   0    1.51    0.13 
   7   0   0    1.47    0.21 
  -7   0   0    1.76    0.23 
  -8   0   0    5.55    0.38 
   8   0   0    5.06    0.37 
  -8   0   0    5.09    0.25 
  -9   0   0    0.85    0.21 
   9   0   0    1.39    0.31 
  -1  -1   0  299.16    6.64 
   1   1   0  290.83    6.67 
  -1   1   0  304.67    6.76 
  -2  -1   0   14.10    0.38 
  -2  -1   0   13.41    0.35 
  -2   1   0   13.77    0.35 
  -2   1   0   14.33    0.36 
   2   1   0   15.43    0.42 
  -2   1   0   14.90    0.38 
  -2   1   0   14.17    0.40 
  -3  -1   0   36.38    0.93 
  -3  -1   0   36.04    0.87 
   3  -1   0   38.14    0.90 
   3   1   0   37.25    0.94 
  -3   1   0   36.27    0.93 
  -3   1   0   37.35    0.87 
  -3   1   0   36.45    0.85 
  -4  -1   0    4.17    0.21 
   4  -1   0    4.19    0.19 
  -4  -1   0    4.10    0.16 
  -4   1   0    3.87    0.15 
  -4   1   0    3.84    0.12 
   4   1   0    4.02    0.21 
  -4   1   0    3.96    0.21 
  -5  -1   0   18.97    0.51 
   5  -1   0   18.74    0.58 
  -5  -1   0   18.49    0.60 
   5   1   0   19.13    0.62 
  -5   1   0   18.48    0.61 
  -5   1   0   19.02    0.51 
   6  -1   0   23.92    0.77 
  -6  -1   0   24.58    0.80 
  -6  -1   0   27.49    0.69 
  -6   1   0   26.21    0.80 
   6   1   0   25.22    0.80 
  -6   1   0   24.31    0.67 
   7  -1   0    4.22    0.29 
  -7  -1   0    3.91    0.21 
  -7  -1   0    3.87    0.30 
  -7   1   0    3.84    0.20 
  -7   1   0    4.32    0.32 
   7   1   0    4.35    0.31 
   8  -1   0    9.38    0.48 
  -8  -1   0    8.98    0.49 
  -8  -1   0    8.93    0.36 
   8   1   0    9.82    0.51 
  -8   1   0    9.61    0.51 
  -9  -1   0    0.36    0.20 
   9   1   0    0.30    0.15 
  -9   1   0   -0.07    0.17 
   0  -2   0  448.47    9.99 
   0   2   0  495.40   11.05 
   0   2   0  486.68   10.90 
   0   2   0  485.74   10.91 
   1  -2   0    7.57    0.20 
  -1  -2   0    7.23    0.21 
  -1   2   0    7.30    0.22 
   1   2   0    7.45    0.24 
  -1   2   0    7.11    0.20 
   1   2   0    7.06    0.19 
   1   2   0    7.25    0.21 
  -2  -2   0   66.88    1.56 
  -2  -2   0   69.69    1.58 
  -2   2   0   70.62    1.62 
   2   2   0   71.46    1.67 
  -2   2   0   70.42    1.59 
  -2   2   0   69.83    1.60 
  -2   2   0   70.03    1.63 
  -3  -2   0    4.40    0.20 
  -3  -2   0    4.78    0.17 
  -3   2   0    4.53    0.15 
  -3   2   0    4.84    0.18 
   3   2   0    4.57    0.22 
  -3   2   0    4.71    0.16 
  -3   2   0    4.30    0.20 
  -4  -2   0   38.03    1.01 
  -4  -2   0   39.21    0.94 
   4   2   0   38.52    1.05 
  -4   2   0   39.96    0.99 
  -4   2   0   39.30    0.94 
  -4   2   0   38.93    1.03 
  -4   2   0   39.70    0.92 
   5  -2   0   12.11    0.41 
  -5  -2   0   12.67    0.38 
  -5  -2   0   11.99    0.45 
   5  -2   0   12.20    0.32 
  -5   2   0   12.52    0.46 
   5   2   0   12.51    0.48 
  -5   2   0   12.40    0.37 
   6  -2   0    5.78    0.29 
  -6  -2   0    6.35    0.25 
  -6  -2   0    6.17    0.33 
  -6   2   0    6.22    0.24 
  -6   2   0    6.79    0.35 
   6   2   0    6.61    0.36 
   7  -2   0    1.83    0.20 
  -7  -2   0    1.55    0.15 
  -7  -2   0    2.04    0.24 
   7   2   0    1.86    0.24 
  -7   2   0    1.65    0.23 
   8  -2   0    2.18    0.26 
  -8  -2   0    2.23    0.28 
  -8  -2   0    2.19    0.19 
   8   2   0    2.47    0.29 
  -8   2   0    1.95    0.27 
  -9  -2   0    1.45    0.18 
  -9  -2   0    1.23    0.25 
  -9   2   0    1.48    0.28 
   9   2   0    1.21    0.25 
   0  -3   0   -0.06    0.02 
   0   3   0   -0.04    0.02 
   0   3   0   -0.03    0.04 
   0   3   0   -0.03    0.02 
   1  -3   0   12.82    0.33 
  -1  -3   0   12.65    0.35 
   1   3   0   12.95    0.32 
  -1   3   0   12.83    0.36 
  -1   3   0   12.49    0.32 
   1   3   0   12.44    0.34 
  -1   3   0   12.27    0.34 
   1   3   0   12.70    0.39 
   2  -3   0    7.03    0.21 
  -2  -3   0    7.61    0.23 
   2   3   0    7.37    0.29 
  -2   3   0    7.58    0.25 
  -2   3   0    7.90    0.23 
   2   3   0    7.77    0.24 
  -2   3   0    7.42    0.25 
  -3  -3   0   33.95    0.84 
  -3  -3   0   34.00    0.86 
  -3  -3   0   33.91    0.77 
   3   3   0   34.33    0.85 
  -3   3   0   34.95    0.83 
  -3   3   0   35.05    0.88 
  -3   3   0   34.60    0.84 
  -3   3   0   35.38    0.89 
   3   3   0   34.30    0.94 
  -4  -3   0   14.13    0.46 
  -4  -3   0   13.91    0.41 
   4   3   0   14.78    0.52 
  -4   3   0   14.38    0.40 
  -4   3   0   13.78    0.47 
  -4   3   0   14.58    0.39 
  -5  -3   0    2.22    0.19 
  -5  -3   0    2.39    0.15 
  -5   3   0    2.40    0.20 
  -5   3   0    2.45    0.16 
  -5   3   0    2.87    0.14 
   5   3   0    2.75    0.22 
  -6  -3   0   27.71    0.78 
  -6  -3   0   30.32    0.89 
   6  -3   0   28.96    0.84 
  -6   3   0   29.98    0.90 
   6   3   0   28.64    0.93 
  -7  -3   0   11.27    0.51 
  -7  -3   0   10.95    0.40 
   7  -3   0   11.62    0.48 
   7   3   0   11.58    0.54 
  -7   3   0   11.56    0.52 
   8  -3   0    0.22    0.12 
  -8  -3   0    0.15    0.09 
  -8  -3   0    0.17    0.14 
  -8   3   0   -0.05    0.13 
   8   3   0    0.23    0.15 
  -9  -3   0    2.15    0.22 
   9   3   0    2.60    0.33 
   9   3   0    2.10    0.31 
  -9   3   0    1.90    0.29 
   0   4   0   19.88    0.52 
   0   4   0   21.10    0.58 
   1  -4   0    6.74    0.22 
  -1  -4   0    6.98    0.23 
  -1   4   0    6.80    0.26 
  -1   4   0    6.84    0.22 
   1   4   0    7.03    0.23 
   1   4   0    6.86    0.28 
   1   4   0    6.70    0.21 
  -1   4   0    7.23    0.21 
  -2  -4   0   29.78    0.78 
   2  -4   0   31.13    0.76 
  -2  -4   0   31.89    0.73 
   2   4   0   29.89    0.73 
   2   4   0   30.35    0.75 
  -2   4   0   29.18    0.74 
  -2   4   0   30.10    0.78 
   2   4   0   29.85    0.84 
  -2   4   0   29.92    0.74 
   3  -4   0   10.77    0.31 
  -3  -4   0   10.33    0.33 
  -3   4   0   11.01    0.35 
   3   4   0    9.96    0.33 
   3   4   0   10.86    0.33 
   3   4   0    9.90    0.40 
  -3   4   0   10.75    0.35 
  -3   4   0   10.35    0.32 
  -4  -4   0   24.59    0.66 
  -4   4   0   25.44    0.66 
   4   4   0   25.76    0.72 
  -4   4   0   26.05    0.73 
  -4   4   0   25.96    0.72 
   4   4   0   25.00    0.80 
  -5  -4   0    7.89    0.30 
  -5   4   0    8.05    0.33 
  -5   4   0    8.27    0.36 
   5   4   0    8.27    0.41 
  -6  -4   0   16.10    0.50 
   6   4   0   16.05    0.57 
   6   4   0   15.20    0.63 
  -6   4   0   15.35    0.58 
  -6   4   0   16.09    0.54 
   7  -4   0   12.55    0.50 
  -7  -4   0   12.20    0.43 
  -7   4   0   12.10    0.53 
   7   4   0   11.35    0.56 
   7   4   0   11.65    0.51 
  -8  -4   0    0.02    0.08 
   8   4   0    0.14    0.17 
  -8   4   0    0.25    0.16 
   8   4   0    0.31    0.15 
   0  -5   0    0.00    0.03 
   0   5   0    0.04    0.05 
   0   5   0    0.00    0.03 
   0   5   0    0.01    0.03 
   1  -5   0    9.75    0.30 
  -1  -5   0    9.12    0.30 
  -1   5   0    9.56    0.29 
   1   5   0    9.33    0.37 
   1   5   0    9.30    0.28 
  -1   5   0    9.30    0.30 
  -1   5   0    9.17    0.34 
   1   5   0    9.75    0.31 
  -2  -5   0    7.60    0.27 
  -2  -5   0    7.64    0.23 
  -2   5   0    7.17    0.29 
  -2   5   0    7.45    0.26 
   2   5   0    7.39    0.26 
  -2   5   0    7.46    0.23 
   2   5   0    7.29    0.33 
  -3  -5   0    3.30    0.18 
   3  -5   0    3.49    0.16 
  -3   5   0    3.25    0.16 
  -3   5   0    3.44    0.19 
   3   5   0    3.32    0.24 
   4  -5   0    6.76    0.24 
  -4  -5   0    6.16    0.26 
  -4   5   0    6.50    0.29 
   4   5   0    6.32    0.35 
  -4   5   0    6.59    0.25 
   5  -5   0    9.01    0.30 
  -5  -5   0    9.48    0.35 
   5   5   0    8.99    0.45 
  -5   5   0    8.75    0.36 
   6  -5   0    4.94    0.21 
  -6  -5   0    4.96    0.26 
   6   5   0    5.53    0.38 
  -6   5   0    5.23    0.29 
   7  -5   0   17.94    0.65 
  -7  -5   0   18.41    0.60 
   7   5   0   19.13    0.79 
  -8  -5   0    8.96    0.40 
   8   5   0    9.27    0.56 
   0  -6   0   33.32    0.86 
   0   6   0   34.76    0.88 
   0   6   0   34.50    0.87 
   0   6   0   35.19    0.97 
  -1  -6   0    7.67    0.29 
   1  -6   0    7.62    0.28 
  -1  -6   0    8.17    0.25 
   1   6   0    8.07    0.35 
  -1   6   0    8.06    0.28 
   1   6   0    7.21    0.28 
  -1   6   0    7.33    0.26 
  -1   6   0    7.70    0.32 
  -2  -6   0    2.97    0.13 
   2  -6   0    2.62    0.15 
  -2  -6   0    2.68    0.17 
  -2   6   0    2.67    0.18 
  -2   6   0    2.75    0.14 
   2   6   0    2.84    0.16 
  -2   6   0    2.71    0.15 
   2   6   0    2.69    0.22 
  -3  -6   0    4.91    0.24 
   3  -6   0    6.17    0.23 
  -3   6   0    3.54    0.22 
   3   6   0    5.14    0.31 
  -3   6   0    5.16    0.21 
  -4  -6   0    2.99    0.19 
   4  -6   0    2.85    0.15 
   4   6   0    2.93    0.25 
  -4   6   0    3.18    0.21 
  -5  -6   0   10.25    0.38 
   5  -6   0    9.70    0.33 
  -5   6   0   10.37    0.42 
   5   6   0   10.22    0.50 
  -6  -6   0    2.21    0.18 
   6  -6   0    1.76    0.14 
   6   6   0    1.60    0.25 
  -6   6   0    1.76    0.19 
  -7  -6   0    6.89    0.35 
   7   6   0    7.28    0.47 
   0  -7   0    0.07    0.06 
   0  -7   0   -0.01    0.04 
   0   7   0   -0.05    0.04 
   0   7   0    0.03    0.07 
   1  -7   0    9.01    0.33 
   1  -7   0    9.37    0.31 
  -1  -7   0    9.24    0.30 
  -1  -7   0    9.14    0.34 
  -1   7   0    9.28    0.39 
  -1   7   0    9.66    0.33 
   1   7   0    8.79    0.41 
   1   7   0    9.35    0.34 
   2  -7   0    0.06    0.05 
  -2  -7   0    0.07    0.06 
  -2  -7   0   -0.02    0.04 
   2  -7   0    0.10    0.05 
  -2   7   0    0.04    0.04 
   2   7   0   -0.01    0.05 
   2   7   0    0.14    0.09 
  -2   7   0    0.16    0.08 
  -2   7   0    0.11    0.06 
  -3  -7   0    9.29    0.36 
   3  -7   0    9.64    0.33 
   3   7   0    9.46    0.46 
  -3   7   0    9.12    0.39 
  -3   7   0    9.86    0.31 
   4  -7   0   17.07    0.51 
  -4  -7   0   16.84    0.55 
   4   7   0   17.04    0.67 
  -4   7   0   16.64    0.58 
   5  -7   0    9.28    0.33 
  -5  -7   0    9.26    0.38 
   5   7   0    8.66    0.50 
  -5   7   0    9.69    0.42 
   6  -7   0    8.27    0.32 
  -6  -7   0    8.21    0.37 
  -6   7   0    8.09    0.40 
   6   7   0    7.71    0.48 
   0  -8   0    4.92    0.25 
   0  -8   0    5.41    0.23 
   0   8   0    5.38    0.32 
   0   8   0    5.20    0.25 
  -1  -8   0   11.87    0.37 
  -1  -8   0   11.03    0.41 
   1  -8   0   12.07    0.39 
   1  -8   0   11.94    0.41 
   1   8   0   11.39    0.41 
   1   8   0   11.51    0.51 
  -1   8   0   11.44    0.39 
  -1   8   0   12.13    0.48 
   2  -8   0    2.98    0.18 
  -2  -8   0    3.14    0.20 
  -2   8   0    2.64    0.23 
  -2   8   0    2.93    0.17 
   2   8   0    2.73    0.26 
   3  -8   0    8.08    0.32 
  -3  -8   0    8.84    0.36 
  -3   8   0    9.44    0.42 
  -3   8   0    8.40    0.31 
   3   8   0    8.79    0.47 
   4  -8   0    2.29    0.17 
  -4  -8   0    2.72    0.22 
  -4   8   0    2.31    0.14 
   4   8   0    2.74    0.29 
  -4   8   0    2.43    0.23 
  -5  -8   0    0.32    0.12 
   5  -8   0    0.31    0.09 
  -5   8   0    0.40    0.14 
   5   8   0    0.49    0.18 
   0  -9   0   -0.02    0.07 
   0  -9   0   -0.12    0.06 
   0   9   0   -0.06    0.08 
   0   9   0   -0.03    0.05 
  -1  -9   0    1.38    0.13 
   1  -9   0    1.47    0.14 
  -1  -9   0    1.42    0.17 
  -1   9   0    1.14    0.14 
   1   9   0    1.15    0.19 
  -1   9   0    1.39    0.20 
   1   9   0    1.14    0.15 
   2  -9   0    2.30    0.18 
  -2  -9   0    2.45    0.20 
  -2   9   0    2.39    0.17 
   2   9   0    2.55    0.28 
  -2   9   0    1.94    0.22 
  -3  -9   0    2.78    0.22 
   3  -9   0    2.28    0.18 
   3   9   0    2.50    0.28 
  -3   9   0    3.05    0.18 
  -3   9   0    2.24    0.24 
  -4  -9   0    6.34    0.34 
   4  -9   0    6.30    0.30 
   4   9   0    5.67    0.42 
  -4   9   0    6.61    0.38 
  -4   9   0    6.59    0.26 
   0 -10   0   -0.06    0.07 
   0  10   0   -0.02    0.07 
   0  10   0    0.10    0.12 
   1 -10   0    0.00    0.07 
   1  10   0    0.01    0.08 
   1  10   0    0.13    0.12 
  -1  10   0    0.01    0.11 
  -1  10   0    0.10    0.08 
  -9   0   1    0.92    0.22 
   8   0  -1    2.97    0.30 
  -8   0   1    3.84    0.33 
  -7   0   1   15.58    0.61 
  -7   0   1   15.19    0.47 
   7   0  -1   15.43    0.61 
  -6   0   1    5.37    0.31 
   6   0  -1    5.36    0.31 
  -6   0   1    4.97    0.21 
  -5   0   1    5.40    0.20 
  -5   0   1    5.66    0.29 
   5   0  -1    5.78    0.28 
  -4   0   1   56.42    1.41 
   4   0  -1   57.39    1.40 
  -4   0   1   56.56    1.32 
  -3   0   1   54.76    1.33 
   3   0  -1   55.91    1.33 
  -3   0   1   55.35    1.27 
   2   0  -1   43.22    1.01 
  -2   0   1   41.88    0.97 
  -2   0   1   41.86    1.01 
   2   0   1   27.97    0.67 
  -2   0  -1   27.23    0.65 
  -2   0  -1   27.71    0.69 
   3   0   1   37.08    0.92 
  -3   0  -1   36.35    0.93 
  -3   0  -1   37.51    0.88 
  -4   0  -1    7.08    0.29 
  -4   0  -1    6.90    0.23 
   4   0   1    7.50    0.29 
  -5   0  -1   15.67    0.54 
  -5   0  -1   16.44    0.46 
   5   0   1   16.75    0.54 
  -6   0  -1    3.04    0.17 
  -6   0  -1    2.57    0.22 
   6   0   1    2.86    0.22 
  -7   0  -1   26.06    0.74 
  -7   0  -1   27.01    0.88 
   7   0   1   26.63    0.87 
   8   0   1    1.53    0.23 
  -8   0  -1    1.01    0.13 
  -8   0  -1    1.00    0.20 
  -9   0  -1    2.91    0.35 
   9  -1  -1    9.61    0.53 
  -9  -1   1    9.60    0.55 
   9   1  -1   10.64    0.58 
  -9   1   1    9.85    0.57 
  -8  -1   1    0.69    0.18 
  -8  -1   1    0.86    0.12 
   8  -1  -1    1.17    0.21 
  -8   1   1    0.83    0.20 
   8   1  -1    0.03    0.13 
  -7  -1   1    3.55    0.29 
  -7  -1   1    3.26    0.19 
   7  -1  -1    3.79    0.28 
   7   1  -1    4.03    0.30 
  -7   1   1    4.01    0.29 
  -7   1   1    3.49    0.29 
  -6  -1   1   15.31    0.56 
   6  -1  -1   14.06    0.53 
  -6  -1   1   15.92    0.45 
  -6   1   1   16.19    0.47 
  -6   1   1   16.31    0.59 
   6   1  -1   16.56    0.60 
  -5  -1   1   12.28    0.36 
   5  -1  -1   12.55    0.43 
  -5  -1   1   12.22    0.45 
  -5   1   1   12.27    0.36 
   5   1  -1   12.55    0.47 
  -5   1   1   12.19    0.46 
   4  -1  -1   34.67    0.88 
   4  -1  -1   34.52    0.78 
  -4  -1   1   34.23    0.91 
  -4  -1   1   33.23    0.83 
   4   1  -1   33.17    0.91 
  -4   1   1   33.93    0.81 
  -4   1   1   34.05    0.90 
   3  -1  -1  159.23    3.49 
  -3  -1   1  157.22    3.58 
  -3  -1   1  156.33    3.52 
  -3   1   1  158.32    3.55 
  -3   1   1  144.58    3.51 
  -3   1   1  161.61    3.47 
   3   1  -1  158.18    3.56 
   2  -1  -1    0.98    0.04 
  -2  -1   1    0.93    0.08 
  -2  -1   1    1.01    0.06 
  -2   1   1    1.02    0.07 
  -2   1   1    0.93    0.09 
  -2   1   1    1.20    0.05 
   2   1  -1    1.00    0.09 
   1  -1  -1  722.08   15.76 
  -1  -1   1  700.15   15.76 
   1   1  -1  671.34   15.03 
  -1  -1  -1  349.77    7.77 
  -1   1  -1  343.71    7.59 
   1   1   1  339.05    7.58 
  -1   1  -1  336.29    7.53 
  -2  -1  -1   40.90    0.98 
  -2  -1  -1   40.64    0.94 
   2   1   1   41.17    1.01 
  -2   1  -1   41.26    1.00 
  -2   1  -1   42.53    0.96 
  -2   1  -1   41.71    0.97 
  -2   1  -1   41.51    0.95 
  -3  -1  -1   50.52    1.21 
   3  -1   1   53.72    1.23 
  -3  -1  -1   51.36    1.26 
   3   1   1   51.95    1.27 
  -3   1  -1   52.27    1.18 
  -3   1  -1   51.07    1.26 
  -3   1  -1   51.62    1.20 
  -4  -1  -1   27.68    0.71 
  -4  -1  -1   28.57    0.79 
   4  -1   1   28.93    0.75 
   4   1   1   28.77    0.80 
  -4   1  -1   29.28    0.68 
  -4   1  -1   29.16    0.72 
  -4   1  -1   28.33    0.79 
  -5  -1  -1   29.70    0.86 
   5  -1   1   29.98    0.82 
  -5  -1  -1   28.99    0.76 
   5   1   1   28.61    0.84 
  -5   1  -1   28.61    0.84 
  -5   1  -1   29.50    0.74 
  -6  -1  -1   10.80    0.46 
   6  -1   1   11.29    0.44 
  -6  -1  -1   11.36    0.37 
  -6   1  -1   10.83    0.47 
  -6   1  -1   11.49    0.37 
   6   1   1   11.64    0.47 
  -7  -1  -1    0.27    0.13 
   7  -1   1    0.34    0.12 
  -7  -1  -1    0.39    0.09 
  -7   1  -1    0.31    0.08 
   7   1   1    0.57    0.15 
  -7   1  -1    0.59    0.16 
  -8  -1  -1    4.39    0.36 
  -8  -1  -1    4.73    0.26 
   8  -1   1    4.23    0.39 
   8   1   1    4.22    0.34 
  -8   1  -1    4.88    0.38 
  -9  -1  -1    0.93    0.15 
  -9  -1  -1    0.97    0.24 
  -9   1  -1    1.02    0.25 
   9  -2  -1    5.14    0.40 
  -9  -2   1    5.52    0.43 
  -9  -2   1    4.94    0.28 
   9   2  -1    5.58    0.43 
  -9   2   1    5.32    0.44 
   8  -2  -1    8.53    0.46 
  -8  -2   1    8.84    0.47 
  -8  -2   1    8.33    0.35 
   8   2  -1    8.14    0.47 
  -8   2   1    8.76    0.48 
  -7  -2   1   10.52    0.49 
  -7  -2   1   11.37    0.39 
   7  -2  -1   11.01    0.47 
   7   2  -1   11.78    0.52 
  -7   2   1   11.17    0.51 
  -6  -2   1    5.13    0.22 
   6  -2  -1    4.85    0.27 
  -6  -2   1    4.87    0.29 
  -6   2   1    5.02    0.23 
  -6   2   1    5.32    0.31 
   6   2  -1    5.23    0.32 
  -5  -2   1    4.02    0.24 
   5  -2  -1    3.83    0.13 
   5  -2  -1    4.00    0.21 
  -5  -2   1    4.18    0.18 
   5   2  -1    4.16    0.26 
  -5   2   1    3.58    0.24 
  -5   2   1    3.94    0.16 
  -4  -2   1    8.12    0.31 
   4  -2  -1    8.35    0.23 
  -4  -2   1    8.16    0.26 
  -4   2   1    8.05    0.24 
  -4   2   1    8.16    0.32 
  -4   2   1    7.98    0.28 
   4   2  -1    7.87    0.33 
  -3  -2   1   90.29    2.11 
  -3  -2   1   91.46    2.07 
  -3   2   1   92.59    2.15 
  -3   2   1   92.96    2.10 
  -3   2   1   93.88    2.18 
  -3   2   1   93.67    2.10 
  -2  -2   1   36.33    0.86 
  -2  -2   1   36.08    0.87 
   2   2  -1   36.09    0.81 
   2   2  -1   36.66    0.90 
  -2   2   1   29.89    0.81 
  -2   2   1   35.74    0.82 
  -2   2   1   37.13    0.86 
  -2   2   1   36.91    0.86 
  -1  -2   1  202.85    4.51 
   1  -2  -1  202.81    4.49 
   1   2  -1  208.68    4.66 
  -1   2   1  199.67    4.61 
   1   2  -1  201.92    4.60 
   1   2  -1  200.48    4.62 
  -1   2   1  222.29    4.65 
  -1   2   1  214.93    4.63 
   0  -2  -1 1000.00   22.17 
   0   2  -1  939.48   20.78 
   0   2  -1  944.90   20.76 
   0   2  -1  935.68   20.89 
   0   2   1  940.10   20.75 
   0   2   1  936.53   20.77 
   0   2   1  917.94   20.88 
  -1  -2  -1   16.58    0.42 
   1  -2   1   17.06    0.41 
  -1  -2  -1   16.40    0.39 
  -1   2  -1   16.37    0.41 
   1   2   1   15.88    0.40 
   1   2   1   15.93    0.41 
  -1   2  -1   16.25    0.40 
   1   2   1   16.53    0.45 
  -2  -2  -1    1.49    0.10 
  -2  -2  -1    1.82    0.07 
  -2  -2  -1    1.54    0.08 
   2   2   1    1.61    0.12 
  -2   2  -1    1.64    0.08 
  -2   2  -1    1.89    0.11 
  -2   2  -1    1.60    0.09 
  -2   2  -1    1.66    0.08 
  -3  -2  -1   23.26    0.63 
  -3  -2  -1   22.94    0.58 
  -3   2  -1   23.30    0.64 
  -3   2  -1   23.45    0.59 
  -3   2  -1   23.53    0.58 
   3   2   1   24.20    0.67 
  -4  -2  -1   33.14    0.83 
  -4  -2  -1   33.56    0.90 
  -4   2  -1   33.39    0.91 
  -4   2  -1   33.65    0.81 
  -4   2  -1   34.14    0.83 
   4   2   1   32.71    0.92 
  -4   2  -1   34.92    0.86 
   5  -2   1    5.90    0.25 
  -5  -2  -1    5.93    0.30 
  -5  -2  -1    5.73    0.23 
   5   2   1    6.31    0.31 
  -5   2  -1    5.98    0.23 
  -5   2  -1    6.13    0.30 
  -6  -2  -1   18.35    0.53 
  -6  -2  -1   17.95    0.63 
   6  -2   1   17.74    0.59 
   6   2   1   18.33    0.65 
  -6   2  -1   18.62    0.64 
  -6   2  -1   17.75    0.52 
  -7  -2  -1    5.32    0.35 
   7  -2   1    5.53    0.32 
  -7  -2  -1    5.49    0.26 
  -7   2  -1    5.78    0.37 
   7   2   1    6.05    0.37 
  -7   2  -1    5.49    0.26 
  -8  -2  -1    7.91    0.34 
  -8  -2  -1    8.12    0.47 
  -8   2  -1    7.08    0.45 
   8   2   1    7.35    0.45 
  -9  -2  -1    6.68    0.34 
   9   2   1    5.93    0.44 
  -9   2  -1    6.82    0.48 
  -9  -3   1    0.48    0.12 
  -9  -3   1    0.58    0.21 
  -9   3   1    0.79    0.23 
   9   3  -1    0.91    0.23 
   8  -3  -1    7.58    0.42 
  -8  -3   1    7.81    0.34 
  -8  -3   1    7.69    0.45 
   8   3  -1    8.01    0.48 
  -8   3   1    7.97    0.47 
   7  -3  -1    3.20    0.25 
  -7  -3   1    2.96    0.27 
  -7  -3   1    3.22    0.20 
  -7   3   1    3.05    0.28 
   7   3  -1    3.28    0.30 
  -6  -3   1   10.38    0.44 
  -6  -3   1   10.32    0.36 
   6  -3  -1   10.61    0.41 
   6   3  -1   10.31    0.48 
  -6   3   1   10.59    0.45 
  -5  -3   1   26.26    0.77 
  -5  -3   1   25.87    0.69 
   5  -3  -1   26.03    0.64 
  -5   3   1   26.49    0.73 
  -5   3   1   25.53    0.78 
   5   3  -1   27.00    0.83 
  -5   3   1   25.23    0.68 
   4  -3  -1    6.98    0.21 
  -4  -3   1    6.95    0.25 
  -4  -3   1    7.19    0.29 
   4   3  -1    7.81    0.34 
  -4   3   1    7.33    0.23 
  -4   3   1    7.41    0.31 
  -4   3   1    7.74    0.28 
  -3  -3   1   14.83    0.43 
  -3  -3   1   14.15    0.40 
   3   3  -1   14.57    0.40 
  -3   3   1   14.80    0.44 
   3   3  -1   14.16    0.48 
  -3   3   1   14.60    0.38 
  -3   3   1   14.77    0.39 
   2  -3  -1   25.20    0.60 
  -2  -3   1   25.08    0.62 
  -2  -3   1   24.11    0.62 
  -2   3   1   24.95    0.65 
   2   3  -1   25.28    0.71 
   2   3  -1   25.30    0.60 
  -2   3   1   26.11    0.65 
   2   3  -1   25.37    0.64 
  -1  -3   1  192.81    4.30 
   1  -3  -1  192.27    4.28 
   1   3  -1  193.78    4.33 
   1   3  -1  196.39    4.39 
  -1   3   1  194.09    4.30 
  -1   3   1  190.33    4.31 
  -1   3   1  194.40    4.35 
   1   3  -1  193.31    4.31 
   0  -3  -1  150.38    3.33 
   0  -3   1  147.27    3.33 
   0   3   1  152.61    3.44 
   0   3   1  151.91    3.39 
   0   3  -1  150.27    3.39 
   0   3  -1  155.00    3.44 
   0   3   1  149.11    3.39 
   0   3  -1  152.15    3.39 
   1  -3   1   36.05    0.85 
  -1  -3  -1   34.80    0.85 
  -1  -3  -1   36.89    0.83 
   1   3   1   35.90    0.86 
   1   3   1   37.11    0.93 
   1   3   1   36.01    0.85 
  -1   3  -1   36.05    0.88 
   2  -3   1    4.60    0.15 
  -2  -3  -1    4.51    0.13 
  -2  -3  -1    4.48    0.17 
  -2   3  -1    4.41    0.16 
   2   3   1    4.39    0.16 
  -2   3  -1    4.72    0.18 
  -2   3  -1    4.65    0.18 
   2   3   1    4.21    0.17 
   2   3   1    4.81    0.22 
  -3  -3  -1   19.39    0.51 
   3   3   1   19.65    0.60 
  -3   3  -1   19.92    0.51 
  -3   3  -1   19.98    0.55 
  -3   3  -1   19.66    0.54 
   3   3   1   19.33    0.55 
   3   3   1   19.14    0.51 
  -4  -3  -1    0.56    0.10 
  -4  -3  -1    0.54    0.07 
  -4   3  -1    0.69    0.08 
  -4   3  -1    0.66    0.09 
  -4   3  -1    0.42    0.09 
  -4   3  -1    0.69    0.07 
   4   3   1    0.80    0.13 
  -5  -3  -1   13.51    0.49 
  -5  -3  -1   13.43    0.42 
  -5   3  -1   14.34    0.51 
  -5   3  -1   13.81    0.41 
  -5   3  -1   14.22    0.45 
   5   3   1   13.42    0.53 
  -5   3  -1   14.39    0.40 
  -6  -3  -1    4.98    0.31 
  -6  -3  -1    5.51    0.25 
   6  -3   1    5.89    0.28 
  -6   3  -1    5.56    0.24 
   6   3   1    5.50    0.34 
  -6   3  -1    6.06    0.33 
   7  -3   1   28.74    0.88 
  -7  -3  -1   27.67    0.79 
   7   3   1   28.28    0.92 
   7   3   1   29.09    0.96 
  -7   3  -1   28.49    0.93 
  -8  -3  -1    9.71    0.40 
   8   3   1   10.79    0.52 
  -8   3  -1    9.47    0.52 
   8   3   1    9.87    0.53 
  -9  -3  -1    0.05    0.10 
  -9   3  -1    0.00    0.16 
   9   3   1    0.16    0.15 
   8  -4  -1    4.03    0.31 
  -8  -4   1    4.31    0.26 
   8   4  -1    3.51    0.36 
  -8   4   1    3.85    0.35 
   8   4  -1    3.80    0.36 
  -7  -4   1    6.64    0.30 
  -7  -4   1    6.74    0.39 
   7  -4  -1    6.66    0.35 
  -7   4   1    7.04    0.40 
   7   4  -1    7.21    0.44 
  -6  -4   1    0.72    0.15 
  -6  -4   1    0.93    0.12 
  -6   4   1    0.74    0.15 
  -6   4   1    1.03    0.15 
   6   4  -1    0.81    0.18 
  -5  -4   1   13.92    0.48 
   5  -4  -1   13.64    0.39 
  -5  -4   1   14.17    0.44 
   5   4  -1   13.39    0.55 
  -5   4   1   13.55    0.49 
  -5   4   1   13.67    0.47 
   4  -4  -1    0.42    0.06 
  -4  -4   1    0.49    0.10 
   4  -4  -1    0.41    0.06 
  -4  -4   1    0.39    0.07 
   4   4  -1    0.55    0.13 
  -4   4   1    0.41    0.09 
  -4   4   1    0.50    0.09 
  -3  -4   1   27.30    0.73 
  -3  -4   1   28.55    0.73 
  -3  -4   1   28.42    0.68 
   3  -4  -1   29.42    0.70 
  -3   4   1   29.09    0.77 
   3   4  -1   28.17    0.84 
  -3   4   1   28.91    0.76 
   3   4  -1   29.61    0.74 
  -3   4   1   28.54    0.72 
  -2  -4   1   30.78    0.79 
   2  -4  -1   31.68    0.76 
  -2   4   1   30.58    0.77 
  -2   4   1   32.55    0.78 
   2   4  -1   32.16    0.79 
  -2   4   1   30.54    0.81 
   2   4  -1   31.56    0.87 
   2   4  -1   30.70    0.75 
  -1  -4   1   44.93    1.10 
   1  -4  -1   46.77    1.08 
   1   4  -1   45.95    1.18 
   1   4  -1   46.55    1.11 
  -1   4   1   47.01    1.15 
  -1   4   1   45.20    1.10 
  -1   4   1   47.17    1.09 
   1   4  -1   47.18    1.09 
   0  -4   1    2.84    0.13 
   0  -4  -1    2.82    0.13 
   0   4  -1    2.88    0.13 
   0   4   1    2.90    0.13 
   0   4   1    2.92    0.12 
   0   4  -1    2.73    0.12 
   0   4   1    2.61    0.15 
   0   4  -1    2.97    0.16 
   1  -4   1   86.87    1.99 
  -1  -4  -1   86.75    1.96 
  -1  -4  -1   86.09    1.99 
  -1   4  -1   87.30    1.95 
   1   4   1   84.01    1.97 
   1   4   1   86.50    2.05 
  -1   4  -1   84.42    1.97 
  -1   4  -1   87.38    2.01 
  -2  -4  -1   14.45    0.42 
  -2  -4  -1   14.59    0.37 
   2  -4   1   14.87    0.40 
  -2   4  -1   14.39    0.40 
  -2   4  -1   13.75    0.40 
   2   4   1   15.23    0.41 
  -2   4  -1   14.52    0.43 
   2   4   1   14.60    0.48 
   2   4   1   14.55    0.40 
  -3  -4  -1    0.33    0.06 
   3  -4   1    0.23    0.05 
   3   4   1    0.27    0.06 
  -3   4  -1    0.20    0.05 
  -3   4  -1    0.20    0.07 
  -3   4  -1    0.31    0.07 
   3   4   1    0.23    0.08 
  -4  -4  -1   31.01    0.81 
  -4   4  -1   31.16    0.78 
  -4   4  -1   31.08    0.84 
   4   4   1   31.32    0.92 
  -4   4  -1   30.33    0.82 
  -4   4  -1   30.40    0.78 
   4   4   1   30.45    0.84 
  -5  -4  -1    7.87    0.30 
  -5   4  -1    7.68    0.28 
  -5   4  -1    8.11    0.27 
  -5   4  -1    8.12    0.36 
   5   4   1    7.56    0.34 
  -5   4  -1    7.79    0.32 
   5   4   1    7.61    0.39 
  -6  -4  -1    0.80    0.12 
   6   4   1    0.80    0.15 
  -6   4  -1    0.57    0.15 
   6   4   1    0.76    0.16 
  -6   4  -1    0.80    0.13 
   7  -4   1    5.72    0.38 
  -7  -4  -1    5.74    0.28 
   7   4   1    5.85    0.39 
  -7   4  -1    5.81    0.37 
   7   4   1    5.60    0.36 
  -8  -4  -1    0.12    0.11 
   8   4   1    0.19    0.16 
   8   4   1   -0.08    0.13 
  -8   4  -1    0.11    0.13 
   8  -5  -1    0.61    0.17 
  -8  -5   1    0.31    0.11 
   8   5  -1    0.22    0.20 
  -7  -5   1   13.81    0.49 
   7   5  -1   13.90    0.66 
  -7   5   1   14.07    0.54 
   6  -5  -1    1.26    0.11 
  -6  -5   1    1.28    0.15 
  -6   5   1    1.22    0.16 
   6   5  -1    1.35    0.22 
   5  -5  -1   11.45    0.35 
  -5  -5   1   11.38    0.40 
  -5   5   1   12.19    0.45 
   5   5  -1   11.41    0.52 
   4  -5  -1   13.64    0.39 
  -4  -5   1   13.53    0.43 
  -4   5   1   13.41    0.47 
   4   5  -1   13.61    0.54 
  -3  -5   1    0.31    0.07 
   3  -5  -1    0.35    0.06 
   3   5  -1    0.22    0.08 
  -3   5   1    0.45    0.09 
  -3   5   1    0.38    0.07 
   3   5  -1    0.25    0.09 
  -2  -5   1   15.31    0.46 
   2  -5  -1   15.61    0.43 
  -2   5   1   15.76    0.49 
   2   5  -1   15.62    0.46 
  -2   5   1   15.88    0.42 
   2   5  -1   15.27    0.42 
  -2   5   1   15.53    0.44 
   2   5  -1   16.22    0.55 
   1  -5  -1    0.56    0.07 
  -1  -5   1    0.54    0.08 
  -1   5   1    0.47    0.08 
   1   5  -1    0.45    0.09 
   1   5  -1    0.40    0.07 
  -1   5   1    0.50    0.06 
  -1   5   1    0.48    0.07 
   1   5  -1    0.46    0.06 
   0  -5  -1   10.15    0.32 
   0  -5  -1   10.23    0.29 
   0  -5   1   10.18    0.32 
   0   5  -1   10.48    0.32 
   0   5  -1   10.95    0.33 
   0   5   1   10.34    0.38 
   0   5  -1   10.84    0.38 
  -1  -5  -1   34.92    0.87 
  -1  -5  -1   33.99    0.83 
   1  -5   1   34.46    0.86 
  -1   5  -1   34.82    0.86 
   1   5   1   34.36    0.86 
  -1   5  -1   34.22    0.84 
   1   5   1   34.07    0.95 
  -1   5  -1   35.11    0.91 
  -2  -5  -1    0.17    0.06 
   2  -5   1    0.17    0.05 
  -2  -5  -1    0.23    0.04 
  -2   5  -1    0.16    0.04 
  -2   5  -1    0.08    0.04 
   2   5   1    0.23    0.08 
   2   5   1    0.14    0.05 
  -2   5  -1    0.22    0.06 
  -3  -5  -1   36.73    0.93 
   3  -5   1   36.06    0.90 
  -3   5  -1   36.37    0.91 
  -3   5  -1   35.53    0.95 
   3   5   1   35.73    1.03 
   4  -5   1   23.32    0.62 
  -4  -5  -1   22.77    0.64 
   4   5   1   22.23    0.76 
  -4   5  -1   23.06    0.67 
  -4   5  -1   23.27    0.63 
  -5  -5  -1   14.35    0.47 
   5   5   1   13.22    0.56 
  -5   5  -1   14.08    0.43 
  -5   5  -1   14.39    0.49 
  -6  -5  -1    6.04    0.28 
  -6   5  -1    6.34    0.31 
   6   5   1    6.61    0.40 
  -7  -5  -1    2.93    0.23 
   7   5   1    3.44    0.33 
  -8  -5  -1    0.35    0.12 
   8   5   1    0.17    0.16 
  -7  -6   1    5.34    0.30 
   7   6  -1    4.87    0.40 
  -7   6   1    5.65    0.34 
   6  -6  -1    7.33    0.28 
  -6  -6   1    7.24    0.33 
   6   6  -1    7.36    0.45 
  -6   6   1    6.85    0.36 
   5  -6  -1    2.61    0.15 
  -5  -6   1    2.57    0.18 
  -5   6   1    3.09    0.23 
   5   6  -1    3.22    0.29 
   4  -6  -1    2.35    0.14 
  -4  -6   1    2.41    0.17 
  -4   6   1    2.47    0.19 
   4   6  -1    2.45    0.24 
  -3  -6   1    3.86    0.21 
   3  -6  -1    3.71    0.17 
  -3   6   1    3.76    0.15 
   3   6  -1    3.51    0.26 
   2  -6  -1   49.52    1.14 
  -2  -6   1   41.48    1.15 
   2  -6  -1   47.37    1.12 
   2   6  -1   43.20    1.20 
   2   6  -1   49.21    1.32 
  -2   6   1   51.23    1.16 
   2   6  -1   48.62    1.16 
  -2   6   1   49.28    1.25 
   1  -6  -1   10.76    0.33 
  -1  -6   1    9.81    0.34 
   1  -6  -1    9.97    0.31 
  -1   6   1   10.68    0.32 
   1   6  -1   10.38    0.42 
   1   6  -1   10.05    0.32 
  -1   6   1   10.56    0.39 
   1   6  -1    9.94    0.34 
   0  -6   1    6.01    0.24 
   0  -6  -1    6.26    0.24 
   0  -6  -1    6.30    0.22 
   0   6  -1    6.61    0.25 
   0   6  -1    6.50    0.25 
   0   6   1    6.54    0.25 
   0   6  -1    6.75    0.31 
   0   6   1    6.69    0.31 
   1  -6   1    0.03    0.04 
  -1  -6  -1    0.03    0.04 
  -1  -6  -1    0.08    0.05 
   1   6   1    0.16    0.05 
  -1   6  -1    0.05    0.04 
  -1   6  -1    0.04    0.06 
   1   6   1    0.13    0.07 
  -1   6  -1    0.09    0.05 
  -2  -6  -1    4.65    0.21 
  -2  -6  -1    4.56    0.17 
   2  -6   1    4.54    0.20 
  -2   6  -1    4.55    0.21 
  -2   6  -1    4.85    0.19 
   2   6   1    4.79    0.28 
  -2   6  -1    4.80    0.24 
   2   6   1    4.78    0.22 
  -3  -6  -1    4.51    0.22 
   3  -6   1    4.56    0.21 
   3   6   1    4.50    0.29 
  -3   6  -1    4.51    0.21 
  -4  -6  -1   17.88    0.55 
  -4   6  -1   17.91    0.58 
   4   6   1   16.82    0.65 
  -4   6  -1   18.15    0.53 
  -5  -6  -1    6.84    0.30 
   5   6   1    7.41    0.42 
  -5   6  -1    7.34    0.34 
   6  -6   1    4.97    0.23 
  -6  -6  -1    5.24    0.28 
   6   6   1    5.28    0.38 
  -7  -6  -1    2.85    0.24 
   7   6   1    2.88    0.33 
   6  -7  -1    3.26    0.20 
  -6  -7   1    3.23    0.23 
  -6   7   1    3.35    0.27 
   6   7  -1    4.02    0.36 
  -5  -7   1    6.15    0.30 
   5  -7  -1    6.40    0.27 
  -5   7   1    7.40    0.37 
   5   7  -1    6.83    0.43 
   4  -7  -1    1.83    0.14 
  -4  -7   1    1.82    0.17 
   4   7  -1    2.14    0.25 
  -4   7   1    1.66    0.19 
   3  -7  -1    7.86    0.29 
  -3  -7   1    7.86    0.33 
   3   7  -1    9.18    0.44 
  -3   7   1    7.97    0.28 
  -3   7   1    8.53    0.37 
  -2  -7   1    5.41    0.26 
  -2  -7   1    5.51    0.21 
   2  -7  -1    5.42    0.22 
   2   7  -1    5.53    0.33 
  -2   7   1    5.51    0.29 
   2   7  -1    5.37    0.25 
  -2   7   1    5.62    0.22 
   1  -7  -1   17.15    0.48 
   1  -7  -1   16.94    0.50 
  -1  -7   1   16.17    0.52 
   1   7  -1   16.77    0.61 
   1   7  -1   16.74    0.49 
   1   7  -1   16.40    0.52 
  -1   7   1   16.94    0.49 
  -1   7   1   17.69    0.58 
   0  -7   1   25.71    0.72 
   0  -7  -1   26.07    0.71 
   0  -7  -1   26.05    0.68 
   0   7   1   25.64    0.70 
   0   7  -1   25.87    0.71 
   0   7   1   26.45    0.80 
   0   7  -1   24.97    0.79 
   0   7  -1   25.67    0.70 
  -1  -7  -1   10.11    0.35 
   1  -7   1    8.66    0.34 
  -1  -7  -1   10.32    0.32 
   1   7   1   10.19    0.44 
  -1   7  -1    9.88    0.41 
  -1   7  -1   10.02    0.34 
   1   7   1   10.06    0.36 
  -1   7  -1   11.19    0.36 
  -2  -7  -1   11.38    0.33 
   2  -7   1    9.96    0.36 
  -2  -7  -1    9.86    0.37 
   2   7   1   10.10    0.45 
  -2   7  -1   10.08    0.40 
  -2   7  -1   10.08    0.33 
  -2   7  -1   10.44    0.36 
  -3  -7  -1    4.76    0.24 
  -3   7  -1    4.90    0.20 
  -3   7  -1    5.32    0.24 
   3   7   1    5.12    0.33 
  -3   7  -1    5.15    0.28 
  -4  -7  -1   16.31    0.53 
  -4   7  -1   13.21    0.50 
   4   7   1   13.70    0.60 
  -4   7  -1   13.85    0.45 
   5  -7   1    1.29    0.13 
  -5  -7  -1    1.47    0.17 
   5   7   1    1.21    0.23 
  -5   7  -1    1.21    0.17 
  -6  -7  -1    0.61    0.13 
   6  -7   1    0.61    0.10 
   6   7   1    0.52    0.18 
  -5  -8   1    5.21    0.30 
   5  -8  -1    5.38    0.26 
   5   8  -1    4.59    0.38 
  -5   8   1    4.89    0.33 
  -4  -8   1    3.26    0.23 
   4  -8  -1    3.51    0.20 
  -4   8   1    3.51    0.17 
   4   8  -1    3.24    0.32 
  -4   8   1    3.13    0.26 
   3  -8  -1    2.54    0.17 
  -3  -8   1    2.43    0.20 
   3   8  -1    2.75    0.27 
  -3   8   1    2.55    0.22 
  -3   8   1    2.57    0.16 
   2  -8  -1    1.99    0.15 
  -2  -8   1    2.16    0.18 
   2   8  -1    1.72    0.22 
   2   8  -1    2.17    0.17 
  -2   8   1    2.32    0.15 
  -2   8   1    2.04    0.21 
  -1  -8   1    1.71    0.16 
   1  -8  -1    2.03    0.15 
  -1  -8   1    2.00    0.14 
   1   8  -1    2.18    0.16 
  -1   8   1    2.02    0.20 
   1   8  -1    1.54    0.21 
  -1   8   1    1.89    0.15 
   0  -8   1    2.73    0.16 
   0  -8  -1    2.69    0.16 
   0  -8   1    2.54    0.18 
   0  -8  -1    2.89    0.19 
   0   8  -1    2.85    0.18 
   0   8  -1    2.98    0.24 
   0   8   1    2.88    0.18 
   0   8   1    3.17    0.25 
   1  -8   1    3.85    0.19 
   1  -8   1    3.88    0.22 
  -1  -8  -1    3.48    0.21 
  -1  -8  -1    3.55    0.18 
  -1   8  -1    3.64    0.25 
   1   8   1    3.47    0.27 
  -1   8  -1    3.36    0.19 
  -2  -8  -1    0.46    0.10 
   2  -8   1    0.38    0.08 
  -2   8  -1    0.38    0.08 
  -2   8  -1    0.40    0.12 
   2   8   1    0.37    0.13 
   3  -8   1    7.85    0.31 
  -3  -8  -1    8.38    0.35 
  -3   8  -1    8.25    0.39 
   3   8   1    7.98    0.44 
  -3   8  -1    8.53    0.30 
   4  -8   1    6.52    0.28 
  -4  -8  -1    6.76    0.32 
   4   8   1    6.68    0.43 
  -4   8  -1    6.89    0.36 
  -5  -8  -1    7.03    0.34 
   5  -8   1    6.03    0.28 
   5   8   1    5.29    0.40 
  -4  -9   1    5.74    0.32 
   4  -9  -1    5.85    0.28 
  -4   9   1    5.49    0.25 
   4   9  -1    5.21    0.40 
  -4   9   1    5.82    0.36 
  -3  -9   1   15.35    0.56 
   3  -9  -1   16.26    0.52 
  -3   9   1   15.70    0.62 
  -3   9   1   15.62    0.49 
   2  -9  -1    1.96    0.17 
  -2  -9   1    2.04    0.19 
  -2   9   1    2.32    0.24 
   2   9  -1    2.28    0.26 
  -2   9   1    2.03    0.16 
  -1  -9   1    1.04    0.12 
  -1  -9   1    0.86    0.14 
   1  -9  -1    0.92    0.12 
  -1   9   1    0.96    0.17 
  -1   9   1    0.78    0.12 
   1   9  -1    0.86    0.13 
   1   9  -1    0.75    0.16 
   0  -9   1    0.12    0.08 
   0  -9  -1    0.11    0.07 
   0  -9   1    0.22    0.08 
   0   9  -1    0.22    0.08 
   0   9   1    0.25    0.11 
   0   9  -1    0.36    0.12 
   0   9   1    0.07    0.06 
  -1  -9  -1    0.98    0.11 
   1  -9   1    0.86    0.12 
  -1  -9  -1    1.06    0.15 
  -1   9  -1    1.05    0.13 
   1   9   1    0.71    0.12 
  -1   9  -1    0.66    0.14 
   1   9   1    0.85    0.18 
  -2  -9  -1    1.08    0.16 
   2  -9   1    0.97    0.13 
  -2   9  -1    1.04    0.13 
   2   9   1    0.83    0.18 
  -2   9  -1    1.13    0.18 
  -3  -9  -1    1.63    0.19 
   3  -9   1    1.56    0.16 
  -3   9  -1    1.43    0.21 
  -3   9  -1    1.52    0.14 
   3   9   1    1.08    0.21 
  -4  -9  -1    2.97    0.23 
   4  -9   1    2.42    0.19 
   4   9   1    2.74    0.31 
  -4   9  -1    2.72    0.17 
  -4   9  -1    2.42    0.25 
  -1 -10   1    0.26    0.11 
   1 -10  -1    0.16    0.08 
  -1 -10   1    0.13    0.10 
   1  10  -1    0.09    0.08 
  -1  10   1    0.00    0.07 
   1  10  -1    0.19    0.13 
  -1  10   1    0.06    0.11 
   0 -10   1    2.27    0.18 
   0 -10  -1    2.32    0.18 
   0  10  -1    2.17    0.25 
   0  10   1    2.28    0.20 
   0  10  -1    2.34    0.20 
   0  10   1    2.48    0.27 
   1 -10   1    1.29    0.15 
  -1  10  -1    1.59    0.23 
   1  10   1    1.26    0.24 
  -1  10  -1    1.34    0.16 
   9   0  -2   -0.54    0.13 
  -9   0   2    0.44    0.19 
  -8   0   2   -0.14    0.10 
   8   0  -2   -0.31    0.09 
  -7   0   2   17.59    0.66 
   7   0  -2   18.87    0.68 
  -7   0   2   17.63    0.52 
  -6   0   2    0.69    0.14 
  -6   0   2    0.87    0.09 
   6   0  -2    1.11    0.17 
  -5   0   2    0.43    0.06 
   5   0  -2    0.43    0.10 
  -5   0   2    0.27    0.09 
  -4   0   2  152.27    3.57 
   4   0  -2  158.51    3.57 
  -4   0   2  154.78    3.47 
  -3   0   2   31.32    0.84 
   3   0  -2   33.45    0.83 
  -3   0   2   33.42    0.77 
  -2   0   2   21.14    0.50 
  -2   0   2   21.39    0.55 
   2   0  -2   21.91    0.55 
  -1   0  -2   15.29    0.37 
   1   0   2   15.49    0.40 
   2   0   2   72.59    1.65 
  -2   0  -2   70.73    1.67 
  -2   0  -2   72.34    1.63 
   3   0   2    6.13    0.22 
  -3   0  -2    5.75    0.16 
  -3   0  -2    5.84    0.19 
  -3   0  -2    5.65    0.24 
  -4   0  -2    1.75    0.15 
  -4   0  -2    1.78    0.10 
   4   0   2    1.91    0.14 
  -5   0  -2    2.01    0.13 
  -5   0  -2    2.34    0.20 
   5   0   2    2.25    0.17 
   6   0   2    6.31    0.32 
  -6   0  -2    6.37    0.26 
  -6   0  -2    6.42    0.35 
  -7   0  -2    3.25    0.19 
   7   0   2    2.64    0.24 
  -7   0  -2    2.93    0.27 
  -8   0  -2    4.00    0.35 
  -8   0  -2    5.06    0.26 
   9   0   2    2.73    0.34 
  -9   0  -2    2.60    0.32 
   9  -1  -2   13.91    0.67 
  -9  -1   2   14.53    0.67 
   9   1  -2   13.48    0.66 
  -9   1   2   14.05    0.67 
  -8  -1   2    1.51    0.24 
  -8  -1   2    1.03    0.13 
   8  -1  -2    1.15    0.22 
   8   1  -2    0.49    0.17 
  -8   1   2    1.23    0.22 
   7  -1  -2    2.96    0.26 
  -7  -1   2    3.02    0.17 
  -7  -1   2    3.32    0.28 
   7   1  -2    2.98    0.26 
  -7   1   2    2.88    0.27 
   6  -1  -2    7.21    0.34 
  -6  -1   2    6.93    0.26 
  -6  -1   2    6.98    0.35 
   6   1  -2    7.21    0.37 
  -6   1   2    7.19    0.25 
  -6   1   2    6.74    0.36 
   5  -1  -2   26.71    0.75 
  -5  -1   2   26.63    0.77 
  -5  -1   2   24.99    0.66 
   5   1  -2   26.12    0.78 
  -5   1   2   26.28    0.78 
  -5   1   2   25.98    0.66 
   4  -1  -2   32.56    0.84 
   4  -1  -2   33.46    0.75 
  -4  -1   2   32.04    0.87 
  -4  -1   2   31.82    0.79 
  -4   1   2   32.25    0.88 
  -4   1   2   33.05    0.78 
   4   1  -2   32.19    0.89 
  -3  -1   2   55.47    1.36 
   3  -1  -2   57.45    1.27 
  -3  -1   2   56.70    1.30 
  -3   1   2   57.11    1.35 
  -3   1   2   57.65    1.30 
   3   1  -2   57.22    1.39 
  -3   1   2   56.31    1.38 
   2  -1  -2   21.38    0.50 
  -2  -1   2   21.62    0.55 
  -2  -1   2   21.62    0.52 
  -2   1   2   21.87    0.56 
   2   1  -2   21.41    0.57 
   1  -1  -2  261.74    6.21 
  -1  -1   2  302.15    6.24 
   1   1  -2  265.95    5.97 
  -1   1   2  263.43    5.88 
  -1   1   2  267.01    6.01 
   0  -1   2  108.65    2.41 
   0   1  -2  115.13    2.64 
   0   1  -2  122.40    2.64 
  -1  -1  -2   61.07    1.38 
  -1   1  -2   60.14    1.35 
   1   1   2   60.60    1.37 
   1   1   2   57.23    1.37 
  -1   1  -2   60.27    1.34 
  -2  -1  -2   63.02    1.44 
  -2  -1  -2   63.31    1.48 
  -2   1  -2   63.21    1.51 
   2   1   2   64.25    1.52 
  -2   1  -2   65.93    1.48 
  -2   1  -2   65.09    1.47 
  -2   1  -2   65.79    1.48 
  -3  -1  -2   43.85    1.12 
  -3  -1  -2   44.51    1.06 
   3  -1   2   47.00    1.08 
  -3   1  -2   45.50    1.04 
   3   1   2   44.95    1.11 
  -3   1  -2   44.62    1.06 
  -3   1  -2   45.01    1.12 
  -4  -1  -2   38.00    1.02 
  -4  -1  -2   38.22    0.94 
   4  -1   2   39.10    0.97 
  -4   1  -2   36.15    0.96 
  -4   1  -2   37.33    0.88 
  -4   1  -2   36.72    0.84 
   4   1   2   33.09    0.94 
  -5  -1  -2   41.22    1.05 
   5  -1   2   43.66    1.12 
  -5  -1  -2   43.43    1.16 
  -5   1  -2   42.51    1.12 
  -5   1  -2   42.11    1.01 
   5   1   2   37.03    1.09 
  -6  -1  -2   74.36    1.89 
   6  -1   2   73.95    1.86 
  -6  -1  -2   72.46    1.76 
   6   1   2   75.48    1.88 
  -6   1  -2   72.43    1.88 
  -6   1  -2   71.76    1.75 
  -7  -1  -2    9.04    0.35 
  -7  -1  -2    9.44    0.46 
   7  -1   2    9.33    0.43 
   7   1   2   10.30    0.47 
  -7   1  -2   10.14    0.48 
  -7   1  -2    9.39    0.36 
  -8  -1  -2    0.29    0.10 
  -8  -1  -2    0.39    0.18 
  -8   1  -2    0.23    0.16 
  -8   1  -2    0.36    0.10 
  -9  -1  -2    3.23    0.24 
   9   1   2    3.74    0.38 
  -9  -2   2    8.46    0.51 
   9  -2  -2    8.93    0.53 
   9   2  -2    7.70    0.51 
  -9   2   2    8.22    0.51 
  -8  -2   2    1.47    0.24 
  -8  -2   2    1.93    0.16 
   8  -2  -2    2.18    0.25 
   8   2  -2    1.61    0.24 
  -8   2   2    1.31    0.23 
   7  -2  -2    4.18    0.29 
  -7  -2   2    4.44    0.22 
  -7  -2   2    5.10    0.32 
   7   2  -2    3.54    0.30 
  -7   2   2    4.61    0.32 
   6  -2  -2    4.42    0.26 
  -6  -2   2    4.46    0.28 
  -6  -2   2    4.76    0.21 
   6   2  -2    4.98    0.31 
  -6   2   2    4.23    0.29 
  -5  -2   2    8.60    0.28 
   5  -2  -2    8.59    0.33 
   5  -2  -2    8.61    0.24 
  -5  -2   2    8.62    0.36 
  -5   2   2    8.74    0.26 
  -5   2   2    8.24    0.36 
   5   2  -2    8.47    0.38 
  -4  -2   2   33.33    0.82 
   4  -2  -2   33.41    0.78 
  -4  -2   2   33.32    0.89 
   4   2  -2   33.49    0.93 
  -4   2   2   32.87    0.90 
  -4   2   2   34.12    0.80 
  -4   2   2   32.80    0.86 
  -3  -2   2   76.32    1.79 
  -3  -2   2   75.18    1.75 
   3  -2  -2   77.94    1.72 
  -3   2   2   75.58    1.81 
  -3   2   2   76.34    1.78 
   3   2  -2   76.11    1.84 
  -3   2   2   77.64    1.72 
   2  -2  -2    6.27    0.18 
  -2  -2   2    6.17    0.20 
  -2  -2   2    6.54    0.21 
  -2   2   2    6.69    0.22 
   2   2  -2    6.33    0.17 
  -2   2   2    5.99    0.17 
   2   2  -2    6.77    0.25 
   2   2  -2    6.11    0.20 
   1  -2  -2  531.37   12.11 
  -1  -2   2  560.31   12.19 
  -1   2   2  531.54   11.67 
   1   2  -2  517.32   11.74 
   1   2  -2  531.87   11.83 
  -1   2   2  523.92   11.70 
   1   2  -2  532.23   11.70 
  -1   2   2  522.94   11.80 
   0  -2   2  104.72    2.55 
   0  -2  -2  115.07    2.53 
   0  -2  -2  121.68    2.54 
   0   2  -2  104.69    2.39 
   0   2   2  106.17    2.36 
   0   2  -2  104.63    2.36 
   0   2   2  105.39    2.40 
   0   2  -2  108.34    2.37 
  -1  -2  -2  384.45    8.46 
  -1  -2  -2  376.90    8.40 
  -1   2  -2  386.58    8.42 
   1   2   2  381.87    8.47 
  -1   2  -2  371.03    8.51 
   1   2   2  381.66    8.44 
  -1   2  -2  382.33    8.47 
   1   2   2  383.81    8.51 
  -2  -2  -2   99.53    2.16 
  -2  -2  -2   95.08    2.20 
   2   2   2   96.17    2.27 
  -2   2  -2   96.81    2.21 
  -2   2  -2   97.38    2.24 
   2   2   2   97.82    2.24 
  -2   2  -2   98.10    2.21 
  -2   2  -2  100.01    2.21 
  -3  -2  -2   55.57    1.30 
  -3   2  -2   57.22    1.33 
  -3   2  -2   55.70    1.32 
  -3   2  -2   56.52    1.37 
   3   2   2   56.33    1.39 
  -3   2  -2   56.69    1.30 
   3   2   2   55.67    1.37 
  -4  -2  -2   13.30    0.39 
  -4  -2  -2   13.68    0.46 
  -4   2  -2   13.12    0.44 
   4   2   2   11.84    0.44 
  -4   2  -2   13.20    0.35 
  -4   2  -2   13.11    0.38 
  -4   2  -2   13.08    0.39 
  -5  -2  -2    4.84    0.28 
   5  -2   2    4.88    0.23 
  -5  -2  -2    4.85    0.21 
   5   2   2    5.20    0.28 
  -5   2  -2    4.52    0.20 
  -5   2  -2    4.98    0.28 
  -6  -2  -2   18.25    0.64 
  -6  -2  -2   18.03    0.54 
   6  -2   2   17.91    0.59 
   6   2   2   17.47    0.63 
  -6   2  -2   18.35    0.63 
  -6   2  -2   16.68    0.51 
  -7  -2  -2    2.74    0.19 
  -7   2  -2    2.98    0.19 
   7   2   2    3.24    0.28 
  -7   2  -2    2.86    0.28 
  -8  -2  -2    2.10    0.19 
   8   2   2    1.57    0.26 
   8   2   2    1.79    0.26 
  -8   2  -2    1.31    0.24 
  -9  -2  -2    2.48    0.23 
  -9   2  -2    2.66    0.34 
   9   2   2    3.09    0.35 
  -9  -3   2    0.15    0.10 
  -9  -3   2    0.23    0.16 
   9  -3  -2    0.17    0.14 
   9   3  -2    0.35    0.18 
  -9   3   2    0.24    0.19 
  -8  -3   2    0.49    0.17 
   8  -3  -2    0.43    0.16 
  -8  -3   2    0.39    0.10 
   8   3  -2    0.58    0.18 
  -8   3   2    0.26    0.16 
  -7  -3   2    4.51    0.31 
  -7  -3   2    3.60    0.21 
   7  -3  -2    4.19    0.28 
  -7   3   2    3.94    0.31 
   7   3  -2    4.01    0.33 
  -6  -3   2    4.34    0.21 
   6  -3  -2    4.31    0.25 
  -6  -3   2    4.54    0.28 
  -6   3   2    4.36    0.29 
   6   3  -2    4.46    0.31 
  -5  -3   2   20.05    0.56 
  -5  -3   2   20.33    0.63 
   5  -3  -2   19.62    0.51 
  -5   3   2   19.87    0.64 
   5   3  -2   20.14    0.69 
  -5   3   2   20.47    0.61 
  -4  -3   2   19.76    0.54 
  -4  -3   2   19.79    0.58 
   4  -3  -2   19.88    0.50 
  -4   3   2   20.21    0.61 
  -4   3   2   19.98    0.51 
  -4   3   2   20.58    0.58 
   4   3  -2   20.34    0.65 
   3  -3  -2   16.43    0.41 
  -3  -3   2   16.05    0.46 
  -3  -3   2   15.64    0.44 
   3   3  -2   15.97    0.39 
   3   3  -2   16.16    0.53 
  -3   3   2   16.13    0.48 
   3   3  -2   16.35    0.45 
  -2  -3   2   11.54    0.33 
   2  -3  -2   11.51    0.31 
   2  -3  -2   11.90    0.30 
  -2  -3   2   11.73    0.32 
   2   3  -2   11.10    0.30 
  -2   3   2   11.32    0.34 
  -2   3   2   12.02    0.35 
   2   3  -2   11.87    0.34 
   2   3  -2   11.77    0.39 
   1  -3  -2  143.40    2.96 
  -1  -3   2  111.96    2.97 
   1  -3  -2  141.11    2.96 
  -1   3   2  144.23    3.20 
  -1   3   2  141.26    3.18 
  -1   3   2  141.73    3.23 
   1   3  -2  142.72    3.19 
   1   3  -2  144.07    3.27 
   1   3  -2  142.47    3.21 
   0  -3  -2   15.82    0.39 
   0  -3  -2   16.28    0.40 
   0  -3   2   15.63    0.42 
   0   3  -2   16.17    0.45 
   0   3  -2   16.03    0.41 
   0   3   2   15.90    0.40 
   0   3  -2   13.99    0.40 
   0   3   2   16.90    0.45 
  -1  -3  -2   15.37    0.40 
   1  -3   2   15.40    0.40 
  -1  -3  -2   15.07    0.37 
  -1   3  -2   15.07    0.40 
   1   3   2   15.36    0.45 
  -1   3  -2   15.07    0.42 
   1   3   2   15.18    0.40 
   1   3   2   15.43    0.40 
  -2  -3  -2   21.41    0.56 
  -2  -3  -2   22.23    0.52 
  -2   3  -2   22.02    0.57 
   2   3   2   21.93    0.63 
   2   3   2   21.89    0.56 
  -2   3  -2   21.77    0.56 
  -2   3  -2   22.56    0.57 
  -2   3  -2   22.05    0.56 
   2   3   2   22.55    0.58 
  -3  -3  -2    8.82    0.22 
  -3  -3  -2    8.67    0.28 
  -3   3  -2    9.02    0.31 
   3   3   2    8.76    0.31 
   3   3   2    8.66    0.35 
  -3   3  -2    8.83    0.29 
  -3   3  -2    9.16    0.27 
  -3   3  -2    8.67    0.27 
  -4  -3  -2    0.68    0.08 
  -4   3  -2    0.60    0.08 
  -4   3  -2    0.57    0.10 
   4   3   2    0.53    0.11 
  -4   3  -2    0.72    0.08 
  -4   3  -2    0.55    0.08 
   4   3   2    0.44    0.10 
  -5  -3  -2   24.80    0.68 
  -5   3  -2   23.24    0.63 
  -5   3  -2   23.99    0.72 
  -5   3  -2   19.84    0.65 
   5   3   2   24.34    0.72 
   5   3   2   23.80    0.76 
  -5   3  -2   24.58    0.61 
  -6  -3  -2   21.53    0.63 
   6  -3   2   21.59    0.67 
  -6   3  -2   21.64    0.61 
   6   3   2   21.53    0.72 
   6   3   2   21.74    0.75 
  -6   3  -2   21.42    0.72 
  -7  -3  -2    0.11    0.09 
  -7   3  -2    0.22    0.12 
   7   3   2    0.09    0.11 
   7   3   2    0.25    0.14 
  -8  -3  -2    6.95    0.34 
   8   3   2    6.10    0.43 
  -8   3  -2    6.77    0.44 
   8   3   2    7.38    0.45 
   8  -4  -2    3.12    0.29 
  -8  -4   2    3.17    0.22 
  -8  -4   2    2.77    0.29 
  -8   4   2    3.26    0.32 
   8   4  -2    2.90    0.35 
  -7  -4   2    4.12    0.23 
   7  -4  -2    3.81    0.27 
  -7  -4   2    3.83    0.29 
  -7   4   2    4.00    0.31 
   7   4  -2    3.49    0.33 
  -6  -4   2   16.34    0.58 
  -6  -4   2   16.19    0.51 
   6   4  -2   16.47    0.66 
  -6   4   2   16.35    0.56 
  -6   4   2   16.47    0.60 
   5  -4  -2    0.09    0.04 
  -5  -4   2    0.11    0.06 
  -5  -4   2    0.09    0.08 
   5   4  -2    0.02    0.08 
  -5   4   2    0.10    0.07 
  -5   4   2   -0.04    0.08 
  -4  -4   2    0.86    0.10 
   4  -4  -2    0.82    0.08 
  -4  -4   2    0.85    0.11 
   4   4  -2    0.99    0.16 
  -4   4   2    0.91    0.13 
  -4   4   2    1.06    0.12 
  -3  -4   2   19.42    0.53 
   3  -4  -2   19.41    0.49 
  -3  -4   2   18.99    0.53 
   3  -4  -2   19.41    0.50 
   3   4  -2   19.90    0.54 
   3   4  -2   19.51    0.49 
  -3   4   2   20.35    0.56 
   3   4  -2   19.46    0.63 
  -3   4   2   19.02    0.57 
   2  -4  -2   14.87    0.39 
  -2  -4   2   15.05    0.43 
   2  -4  -2   14.88    0.40 
  -2   4   2   14.83    0.45 
   2   4  -2   15.57    0.50 
  -2   4   2   15.15    0.43 
   2   4  -2   15.67    0.43 
   2   4  -2   14.27    0.39 
  -2   4   2   14.96    0.38 
  -1  -4   2  117.97    2.65 
   1  -4  -2  116.89    2.61 
   1  -4  -2  112.63    2.61 
  -1   4   2  119.54    2.70 
   1   4  -2  119.11    2.73 
  -1   4   2  119.62    2.77 
   1   4  -2  121.61    2.80 
   1   4  -2  120.28    2.71 
   0  -4   2   52.38    1.26 
   0  -4  -2   53.85    1.23 
   0  -4  -2   53.87    1.25 
   0   4  -2   53.93    1.28 
   0   4   2   55.91    1.28 
   0   4  -2   54.84    1.28 
   0   4   2   53.17    1.34 
   0   4  -2   55.62    1.34 
   1  -4   2   11.86    0.34 
  -1  -4  -2   11.70    0.33 
  -1  -4  -2   11.29    0.31 
  -1   4  -2   11.92    0.37 
   1   4   2   11.63    0.34 
  -1   4  -2   11.67    0.34 
  -1   4  -2   11.82    0.32 
   1   4   2   11.80    0.40 
  -2  -4  -2   71.52    1.70 
   2  -4   2   73.52    1.69 
  -2  -4  -2   73.25    1.65 
  -2   4  -2   71.44    1.69 
   2   4   2   73.44    1.69 
  -2   4  -2   74.10    1.68 
  -2   4  -2   72.94    1.71 
   2   4   2   71.58    1.69 
   2   4   2   72.33    1.78 
  -3  -4  -2    7.22    0.26 
   3  -4   2    7.86    0.25 
   3   4   2    7.34    0.28 
  -3   4  -2    7.83    0.28 
  -3   4  -2    7.95    0.26 
   3   4   2    7.42    0.33 
  -3   4  -2    7.20    0.28 
  -4  -4  -2   17.62    0.51 
  -4   4  -2   17.70    0.53 
   4   4   2   17.82    0.56 
  -4   4  -2   18.06    0.56 
  -4   4  -2   18.30    0.50 
   4   4   2   17.20    0.61 
  -4   4  -2   18.20    0.50 
  -5  -4  -2   15.91    0.49 
  -5   4  -2   15.33    0.50 
   5   4   2   15.20    0.54 
  -5   4  -2   16.10    0.54 
  -5   4  -2   15.77    0.45 
   5   4   2   14.97    0.59 
  -5   4  -2   15.66    0.47 
  -6  -4  -2    9.14    0.36 
   6  -4   2   10.44    0.40 
  -6   4  -2   10.43    0.46 
   6   4   2   10.30    0.45 
   6   4   2   11.28    0.51 
  -7  -4  -2    4.62    0.26 
   7   4   2    4.59    0.36 
  -7   4  -2    4.35    0.33 
   7   4   2    4.55    0.33 
  -8  -4  -2    3.85    0.27 
   8   4   2    4.00    0.38 
  -8   4  -2    4.19    0.36 
   8   4   2    4.97    0.37 
  -8  -5   2    1.69    0.20 
   8  -5  -2    1.20    0.20 
   8   5  -2    1.44    0.28 
  -7  -5   2    5.10    0.28 
  -7   5   2    5.73    0.33 
   7   5  -2    5.53    0.42 
   6  -5  -2    9.49    0.31 
  -6  -5   2    9.46    0.37 
  -6   5   2    9.31    0.41 
   6   5  -2    9.04    0.49 
  -5  -5   2    9.70    0.36 
   5  -5  -2    9.91    0.31 
  -5   5   2    9.91    0.39 
   5   5  -2    9.19    0.47 
  -4  -5   2   18.69    0.54 
   4  -5  -2   17.66    0.49 
   4   5  -2   17.93    0.61 
  -4   5   2   13.08    0.49 
   3  -5  -2    2.10    0.12 
  -3  -5   2    2.44    0.15 
   3   5  -2    2.25    0.14 
   3   5  -2    2.11    0.19 
  -3   5   2    2.08    0.16 
   3   5  -2    2.31    0.11 
   2  -5  -2   11.61    0.34 
   2  -5  -2   11.61    0.33 
  -2  -5   2   11.42    0.37 
   2   5  -2   11.90    0.44 
  -2   5   2   11.04    0.32 
   2   5  -2   11.55    0.33 
  -2   5   2   10.93    0.38 
   2   5  -2   11.20    0.36 
   1  -5  -2    7.52    0.24 
   1  -5  -2    7.78    0.25 
  -1  -5   2    7.52    0.27 
   1   5  -2    7.59    0.32 
  -1   5   2    6.95    0.28 
  -1   5   2    7.40    0.24 
   1   5  -2    7.43    0.24 
   1   5  -2    7.36    0.26 
   0  -5   2   19.90    0.55 
   0  -5  -2   19.74    0.51 
   0  -5  -2   19.78    0.53 
   0   5   2   19.39    0.54 
   0   5   2   19.77    0.61 
   0   5  -2   22.87    0.55 
   0   5  -2   20.24    0.61 
   0   5  -2   20.46    0.55 
   1  -5   2   15.57    0.44 
  -1  -5  -2   15.44    0.41 
  -1  -5  -2   15.35    0.44 
  -1   5  -2   16.01    0.44 
  -1   5  -2   16.92    0.46 
   1   5   2   16.45    0.53 
   1   5   2   16.19    0.46 
  -1   5  -2   15.50    0.49 
  -2  -5  -2    6.26    0.20 
   2  -5   2    6.53    0.24 
  -2  -5  -2    5.96    0.23 
  -2   5  -2    6.01    0.25 
   2   5   2    6.35    0.30 
  -2   5  -2    5.84    0.23 
   2   5   2    5.95    0.23 
  -3  -5  -2    6.22    0.25 
   3  -5   2    6.01    0.23 
  -3   5  -2    6.51    0.27 
  -3   5  -2    6.07    0.24 
   3   5   2    6.52    0.33 
   4  -5   2    7.65    0.27 
  -4  -5  -2    6.83    0.28 
  -4   5  -2    7.36    0.28 
   4   5   2    7.25    0.37 
  -4   5  -2    7.56    0.31 
  -5  -5  -2    8.27    0.33 
   5  -5   2    9.23    0.31 
  -5   5  -2    9.42    0.33 
   5   5   2    9.06    0.45 
  -6  -5  -2    0.35    0.10 
   6   5   2    0.70    0.17 
  -7  -5  -2   16.76    0.57 
   7   5   2   15.71    0.69 
  -8  -5  -2    5.44    0.33 
   8   5   2    6.16    0.45 
  -7  -6   2    1.87    0.20 
   7   6  -2    1.88    0.30 
  -7   6   2    1.72    0.21 
   6  -6  -2    2.35    0.15 
  -6  -6   2    2.44    0.20 
   6   6  -2    2.59    0.29 
  -6   6   2    2.28    0.22 
  -5  -6   2   10.93    0.41 
   5  -6  -2   11.35    0.36 
   5   6  -2   11.73    0.55 
  -5   6   2   11.96    0.47 
  -4  -6   2   26.15    0.74 
   4  -6  -2   26.08    0.69 
  -4   6   2   25.27    0.76 
   4   6  -2   25.54    0.85 
   3  -6  -2   28.93    0.74 
  -3  -6   2   28.04    0.78 
  -3   6   2   25.23    0.69 
  -3   6   2   30.14    0.82 
   3   6  -2   28.81    0.89 
  -2  -6   2   19.76    0.59 
   2  -6  -2   20.19    0.59 
   2  -6  -2   21.20    0.55 
   2   6  -2   20.33    0.59 
   2   6  -2   19.88    0.55 
   2   6  -2   21.21    0.69 
  -2   6   2   20.16    0.63 
  -2   6   2   21.25    0.55 
  -1  -6   2    5.22    0.23 
   1  -6  -2    5.44    0.20 
   1  -6  -2    5.53    0.22 
   1   6  -2    5.42    0.29 
   1   6  -2    6.11    0.25 
  -1   6   2    5.57    0.22 
  -1   6   2    5.81    0.27 
   1   6  -2    5.56    0.22 
   0  -6  -2    2.35    0.14 
   0  -6   2    2.45    0.15 
   0  -6  -2    2.43    0.13 
   0   6   2    2.23    0.18 
   0   6   2    2.66    0.14 
   0   6  -2    2.50    0.14 
   0   6  -2    2.49    0.19 
   0   6  -2    2.35    0.14 
  -1  -6  -2   22.32    0.64 
  -1  -6  -2   22.13    0.60 
   1  -6   2   26.93    0.66 
  -1   6  -2   22.49    0.62 
  -1   6  -2   23.19    0.68 
   1   6   2   22.72    0.71 
  -1   6  -2   22.55    0.61 
  -2  -6  -2   15.46    0.40 
  -2  -6  -2   14.34    0.45 
   2  -6   2   14.17    0.44 
  -2   6  -2   14.94    0.42 
  -2   6  -2   14.95    0.45 
   2   6   2   14.23    0.54 
  -2   6  -2   15.08    0.49 
   2   6   2   15.00    0.46 
   3  -6   2    3.64    0.19 
  -3  -6  -2    3.42    0.19 
   3   6   2    3.31    0.25 
  -3   6  -2    3.53    0.19 
  -3   6  -2    3.43    0.21 
   4  -6   2   16.85    0.50 
  -4  -6  -2   16.41    0.52 
  -4   6  -2   16.91    0.51 
  -4   6  -2   16.53    0.54 
   4   6   2   15.83    0.63 
  -5  -6  -2    8.52    0.34 
  -5   6  -2    9.15    0.39 
  -5   6  -2    8.96    0.34 
   5   6   2    8.85    0.46 
   6  -6   2    0.49    0.09 
  -6  -6  -2    0.73    0.14 
   6   6   2    0.61    0.18 
  -7  -6  -2    2.41    0.22 
   7   6   2    1.64    0.27 
  -7  -7   2    0.88    0.19 
   6  -7  -2    5.05    0.24 
  -6  -7   2    5.03    0.28 
  -6   7   2    4.16    0.30 
   6   7  -2    5.12    0.40 
   5  -7  -2    5.15    0.24 
  -5  -7   2    5.24    0.29 
   5   7  -2    5.59    0.38 
  -5   7   2    5.09    0.31 
  -4  -7   2   15.53    0.52 
   4  -7  -2   15.83    0.48 
  -4   7   2   15.67    0.57 
   4   7  -2   16.48    0.66 
  -3  -7   2    0.41    0.10 
   3  -7  -2    0.64    0.09 
  -3   7   2    0.48    0.11 
   3   7  -2    0.77    0.16 
  -3   7   2    0.43    0.07 
  -2  -7   2    2.30    0.17 
   2  -7  -2    2.60    0.15 
  -2   7   2    2.40    0.14 
   2   7  -2    2.60    0.18 
   2   7  -2    2.49    0.15 
  -2   7   2    2.98    0.21 
   2   7  -2    2.98    0.25 
  -1  -7   2    0.65    0.10 
   1  -7  -2    0.70    0.09 
   1  -7  -2    0.79    0.10 
   1   7  -2    0.61    0.10 
  -1   7   2    0.90    0.14 
   1   7  -2    0.63    0.09 
  -1   7   2    0.65    0.09 
   1   7  -2    0.77    0.15 
   0  -7  -2    0.07    0.05 
   0  -7   2   -0.01    0.05 
   0  -7  -2    0.02    0.05 
   0   7  -2    0.12    0.06 
   0   7   2    0.05    0.05 
   0   7  -2    0.16    0.09 
   0   7  -2    0.07    0.05 
   0   7   2    0.03    0.07 
   1  -7   2    8.27    0.33 
  -1  -7  -2    9.21    0.29 
  -1  -7  -2    8.87    0.32 
  -1   7  -2    8.70    0.32 
  -1   7  -2    7.41    0.30 
  -1   7  -2    8.27    0.36 
   1   7   2    8.67    0.39 
   1   7   2    9.02    0.32 
  -2  -7  -2    9.50    0.30 
  -2  -7  -2    9.76    0.35 
   2  -7   2    9.60    0.35 
   2   7   2    8.79    0.42 
  -2   7  -2    9.37    0.38 
  -2   7  -2    9.44    0.34 
   2   7   2    9.28    0.46 
  -2   7  -2   10.23    0.32 
   3  -7   2    5.21    0.24 
  -3  -7  -2    4.56    0.24 
  -3   7  -2    4.54    0.26 
   3   7   2    4.62    0.32 
  -3   7  -2    4.21    0.23 
  -4  -7  -2    3.57    0.22 
  -4   7  -2    3.13    0.20 
  -4   7  -2    3.29    0.23 
   4   7   2    3.56    0.30 
  -5  -7  -2    1.73    0.18 
  -5   7  -2    1.55    0.16 
   5   7   2    1.67    0.25 
   6  -7   2    5.19    0.25 
  -6  -7  -2    5.62    0.31 
   6   7   2    5.38    0.41 
  -5  -8   2    2.01    0.21 
   5  -8  -2    2.32    0.17 
  -5   8   2    2.06    0.24 
   5   8  -2    1.47    0.26 
   4  -8  -2    4.14    0.22 
  -4  -8   2    4.44    0.27 
   4   8  -2    4.52    0.35 
  -4   8   2    4.04    0.29 
  -4   8   2    4.17    0.21 
  -3  -8   2    4.04    0.25 
   3  -8  -2    3.98    0.21 
  -3   8   2    3.81    0.19 
  -3   8   2    3.78    0.27 
   3   8  -2    3.69    0.32 
   2  -8  -2    6.38    0.26 
  -2  -8   2    5.55    0.28 
  -2   8   2    6.30    0.33 
   2   8  -2    6.30    0.37 
  -2   8   2    6.37    0.26 
   2   8  -2    5.95    0.28 
  -1  -8   2    4.69    0.25 
   1  -8  -2    4.24    0.21 
   1   8  -2    4.53    0.21 
   1   8  -2    4.54    0.30 
  -1   8   2    4.49    0.22 
  -1   8   2    4.84    0.29 
   1   8  -2    3.69    0.22 
   0  -8  -2   14.65    0.44 
   0  -8  -2   14.60    0.47 
   0  -8   2   14.61    0.49 
   0   8   2   14.51    0.56 
   0   8  -2   14.53    0.48 
   0   8  -2   14.26    0.46 
   0   8   2   14.87    0.47 
  -1  -8  -2   13.19    0.45 
  -1  -8  -2   13.03    0.41 
   1  -8   2   13.53    0.46 
  -1   8  -2   13.21    0.43 
  -1   8  -2   13.49    0.51 
  -1   8  -2   12.84    0.44 
   1   8   2   12.55    0.53 
   1   8   2   13.08    0.44 
   2  -8   2    3.77    0.22 
  -2  -8  -2    3.84    0.22 
  -2   8  -2    3.75    0.26 
  -2   8  -2    4.12    0.22 
  -2   8  -2    4.17    0.21 
   2   8   2    3.45    0.27 
  -3  -8  -2    2.19    0.19 
   3   8   2    1.93    0.24 
  -3   8  -2    1.98    0.20 
  -3   8  -2    2.17    0.18 
  -3   8  -2    2.38    0.15 
  -4  -8  -2    1.70    0.18 
   4  -8   2    1.94    0.16 
   4   8   2    1.92    0.27 
  -4   8  -2    2.18    0.22 
  -5  -8  -2    4.16    0.27 
   5  -8   2    3.78    0.22 
   5   8   2    4.05    0.36 
   4  -9  -2    0.35    0.10 
  -4  -9   2    0.25    0.11 
  -4   9   2    0.46    0.14 
  -4   9   2    0.31    0.08 
   4   9  -2    0.23    0.16 
  -3  -9   2    3.82    0.27 
   3  -9  -2    4.17    0.23 
  -3   9   2    4.36    0.31 
  -3   9   2    4.16    0.22 
   3   9  -2    3.92    0.35 
   2  -9  -2    1.57    0.15 
  -2  -9   2    1.62    0.19 
  -2   9   2    1.53    0.22 
   2   9  -2    2.36    0.26 
  -2   9   2    1.61    0.15 
  -1  -9   2    0.77    0.11 
  -1  -9   2    0.83    0.14 
   1  -9  -2    1.00    0.12 
  -1   9   2    0.78    0.16 
   1   9  -2    0.96    0.19 
  -1   9   2    0.88    0.12 
   1   9  -2    0.77    0.12 
   0  -9  -2    2.11    0.16 
   0  -9   2    1.97    0.15 
   0  -9   2    1.84    0.18 
   0   9  -2    1.77    0.22 
   0   9   2    2.14    0.23 
   0   9   2    1.86    0.17 
   0   9  -2    1.99    0.17 
   1  -9   2    1.77    0.17 
   1  -9   2    2.13    0.17 
  -1  -9  -2    2.15    0.24 
  -1  -9  -2    2.22    0.16 
  -1   9  -2    1.87    0.21 
   1   9   2    1.67    0.17 
  -1   9  -2    1.82    0.16 
   1   9   2    1.91    0.23 
   2  -9   2    1.70    0.16 
  -2  -9  -2    1.80    0.19 
  -2   9  -2    1.82    0.15 
   2   9   2    1.81    0.25 
  -2   9  -2    1.87    0.22 
   3  -9   2    0.76    0.12 
  -3  -9  -2    0.66    0.14 
  -3   9  -2    0.48    0.14 
   3   9   2    1.01    0.20 
  -3   9  -2    0.96    0.12 
   4  -9   2    3.57    0.25 
  -4  -9  -2    3.16    0.25 
   4   9   2    3.45    0.35 
   1 -10  -2    0.73    0.12 
  -1 -10   2    0.41    0.14 
  -1 -10   2    0.74    0.11 
  -1  10   2    0.48    0.11 
  -1  10   2    0.56    0.16 
   1  10  -2    0.95    0.19 
   1  10  -2    0.79    0.13 
   0 -10  -2    1.50    0.16 
   0 -10   2    1.89    0.16 
   0  10   2    1.85    0.25 
   0  10  -2    1.49    0.22 
   0  10  -2    1.48    0.17 
   0  10   2    1.69    0.19 
   9   0  -3    3.31    0.35 
  -9   0   3    3.60    0.36 
   8   0  -3    0.07    0.12 
  -8   0   3    0.21    0.13 
   7   0  -3    6.85    0.39 
  -7   0   3    6.90    0.38 
  -6   0   3   80.53    2.00 
   6   0  -3   77.94    2.00 
  -6   0   3   78.00    1.84 
  -5   0   3   13.80    0.49 
  -5   0   3   14.38    0.39 
   5   0  -3   14.04    0.49 
   4   0  -3  113.13    2.60 
  -4   0   3  108.81    2.49 
  -4   0   3  110.00    2.60 
   3   0  -3   11.61    0.36 
  -3   0   3   11.67    0.37 
  -3   0   3   11.85    0.30 
   3   0  -3   11.64    0.28 
   2   0  -3    2.09    0.07 
  -2   0   3    2.31    0.12 
   2   0  -3    2.09    0.11 
  -1   0   3    0.37    0.05 
   0   0  -3    3.71    0.10 
   1   0   3   22.02    0.54 
  -1   0  -3   21.02    0.50 
  -1   0  -3   21.80    0.51 
   2   0   3   35.85    0.84 
   2   0   3   34.80    0.88 
  -2   0  -3   35.56    0.81 
  -3   0  -3   45.91    1.11 
  -3   0  -3   47.22    1.06 
  -3   0  -3   46.51    1.17 
   3   0   3   47.59    1.14 
   4   0   3    0.67    0.10 
  -4   0  -3    0.63    0.11 
  -4   0  -3    0.65    0.07 
   5   0   3   18.28    0.57 
  -5   0  -3   17.52    0.51 
  -5   0  -3   17.51    0.60 
   6   0   3    4.14    0.26 
  -6   0  -3    5.01    0.31 
  -6   0  -3    4.52    0.22 
  -7   0  -3   10.30    0.49 
  -7   0  -3   10.06    0.38 
   8   0   3    6.94    0.43 
  -8   0  -3    6.11    0.31 
   9   0   3    0.21    0.16 
  -9   0  -3    0.18    0.11 
   9  -1  -3    2.54    0.32 
  -9  -1   3    1.88    0.28 
   9   1  -3    2.88    0.34 
  -9   1   3    2.94    0.35 
   8  -1  -3    2.13    0.27 
  -8  -1   3    2.85    0.29 
  -8   1   3    2.82    0.31 
   8   1  -3    2.53    0.28 
   7  -1  -3    4.97    0.32 
  -7  -1   3    4.58    0.32 
  -7  -1   3    4.54    0.21 
   7   1  -3    3.93    0.31 
  -7   1   3    4.86    0.33 
  -6  -1   3   24.07    0.77 
   6  -1  -3   23.58    0.75 
  -6  -1   3   24.24    0.63 
   6   1  -3   23.65    0.79 
  -6   1   3   24.86    0.78 
  -5  -1   3    2.11    0.19 
   5  -1  -3    2.23    0.17 
  -5  -1   3    2.20    0.12 
  -5   1   3    2.16    0.19 
  -5   1   3    2.29    0.11 
   5   1  -3    2.23    0.19 
   4  -1  -3   24.20    0.65 
  -4  -1   3   23.94    0.59 
   4  -1  -3   23.50    0.56 
  -4  -1   3   23.44    0.68 
  -4   1   3   22.63    0.66 
  -4   1   3   23.25    0.56 
   4   1  -3   23.19    0.68 
  -3  -1   3   21.76    0.53 
  -3  -1   3   20.60    0.58 
   3  -1  -3   21.91    0.50 
  -3   1   3   22.07    0.50 
  -3   1   3   21.23    0.56 
   3   1  -3   20.72    0.60 
  -3   1   3   20.66    0.59 
  -2  -1   3   62.50    1.39 
  -2  -1   3   59.67    1.42 
   2  -1  -3   61.05    1.37 
  -2   1   3   60.24    1.43 
   2   1  -3   61.60    1.44 
  -1  -1   3  105.73    2.42 
   1  -1  -3  109.28    2.39 
  -1  -1   3  107.61    2.40 
  -1   1   3  107.28    2.43 
   1   1  -3  107.71    2.39 
   1   1  -3  108.24    2.43 
  -1   1   3  107.14    2.41 
   0  -1  -3  179.17    3.91 
   0  -1   3  175.06    3.92 
   0   1  -3  177.74    3.91 
   0   1   3  175.34    3.93 
  -1  -1  -3   14.77    0.35 
   1  -1   3   15.33    0.39 
  -1  -1  -3   14.54    0.36 
  -1   1  -3   15.02    0.37 
   1   1   3   14.63    0.40 
  -1   1  -3   15.26    0.36 
   1   1   3   14.41    0.38 
  -2  -1  -3   36.58    0.86 
  -2  -1  -3   36.03    0.82 
   2   1   3   35.30    0.91 
  -2   1  -3   37.25    0.88 
   2   1   3   36.15    0.90 
  -2   1  -3   38.43    0.86 
  -2   1  -3   37.46    0.86 
  -2   1  -3   36.93    0.91 
   3  -1   3   14.19    0.39 
  -3  -1  -3   13.98    0.38 
  -3  -1  -3   13.73    0.33 
  -3   1  -3   13.83    0.43 
   3   1   3   13.52    0.42 
  -3   1  -3   14.07    0.36 
   3   1   3   14.06    0.44 
  -3   1  -3   13.73    0.38 
  -4  -1  -3    9.47    0.36 
  -4  -1  -3    8.83    0.29 
   4  -1   3    9.21    0.31 
  -4   1  -3    9.41    0.30 
   4   1   3    8.58    0.33 
  -4   1  -3    9.72    0.26 
  -4   1  -3    9.17    0.36 
  -5  -1  -3   81.49    1.93 
   5  -1   3   81.52    1.99 
  -5  -1  -3   83.68    2.04 
  -5   1  -3   80.54    1.92 
  -5   1  -3   83.13    2.03 
   5   1   3   81.64    2.01 
   6  -1   3   41.46    1.14 
  -6  -1  -3   42.51    1.19 
  -6  -1  -3   40.03    1.05 
   6   1   3   40.98    1.15 
  -6   1  -3   40.87    1.05 
  -7  -1  -3    2.73    0.19 
   7   1   3    2.70    0.26 
  -7   1  -3    2.83    0.19 
   7   1   3    3.12    0.29 
  -7   1  -3    2.76    0.28 
  -8  -1  -3    1.60    0.18 
   8   1   3    1.59    0.26 
  -8   1  -3    1.68    0.17 
  -9  -1  -3    5.73    0.32 
   9  -1   3    6.55    0.46 
   9   1   3    5.11    0.43 
   9  -2  -3    1.50    0.28 
  -9  -2   3    1.84    0.28 
  -9   2   3    1.86    0.28 
   9   2  -3    1.60    0.29 
  -8  -2   3    5.34    0.26 
  -8  -2   3    5.44    0.38 
   8  -2  -3    5.26    0.36 
   8   2  -3    5.41    0.39 
  -8   2   3    4.91    0.38 
   7  -2  -3    4.26    0.29 
  -7  -2   3    4.34    0.30 
  -7  -2   3    4.02    0.20 
   7   2  -3    4.62    0.34 
  -7   2   3    4.45    0.32 
  -6  -2   3   16.30    0.58 
  -6  -2   3   16.43    0.48 
   6  -2  -3   17.11    0.57 
  -6   2   3   16.59    0.59 
   6   2  -3   16.06    0.61 
  -5  -2   3    0.51    0.07 
   5  -2  -3    0.50    0.10 
   5  -2  -3    0.56    0.05 
  -5  -2   3    0.45    0.10 
   5   2  -3    0.63    0.13 
  -5   2   3    0.57    0.12 
  -4  -2   3   39.29    0.95 
   4  -2  -3   39.34    0.91 
  -4  -2   3   39.05    1.02 
  -4   2   3   38.66    1.03 
  -4   2   3   39.63    0.92 
   4   2  -3   38.68    1.06 
  -4   2   3   40.04    1.00 
  -3  -2   3   42.74    1.01 
  -3  -2   3   41.79    1.05 
   3  -2  -3   42.88    0.98 
   3   2  -3   41.24    0.96 
   3   2  -3   42.67    1.10 
  -3   2   3   42.51    1.06 
  -3   2   3   43.56    0.97 
  -3   2   3   42.46    1.04 
  -2  -2   3  104.17    2.36 
  -2  -2   3  104.74    2.37 
   2  -2  -3  104.71    2.34 
  -2   2   3  103.45    2.35 
   2   2  -3  102.97    2.39 
   2   2  -3  101.85    2.33 
  -2   2   3  102.49    2.36 
   2   2  -3  103.79    2.30 
   1  -2  -3  406.12    8.86 
  -1  -2   3  392.61    8.88 
  -1   2   3  404.95    8.70 
  -1   2   3  386.98    8.73 
  -1   2   3  390.27    8.74 
   1   2  -3  390.09    8.71 
   1   2  -3  385.24    8.73 
   1   2  -3  400.10    8.73 
   0  -2  -3  261.96    5.63 
   0  -2  -3  245.14    5.62 
   0  -2   3  256.85    5.65 
   0   2   3  264.67    5.85 
   0   2  -3  265.06    5.86 
   0   2  -3  262.58    5.83 
   0   2   3  265.92    5.86 
   0   2   3  262.22    5.85 
   0   2  -3  260.02    5.84 
  -1  -2  -3    3.45    0.10 
  -1  -2  -3    3.42    0.12 
   1  -2   3    3.43    0.13 
  -1   2  -3    3.24    0.12 
   1   2   3    3.45    0.15 
  -1   2  -3    3.56    0.13 
  -1   2  -3    3.46    0.12 
   1   2   3    3.32    0.14 
   1   2   3    3.43    0.12 
  -2  -2  -3   17.67    0.45 
  -2  -2  -3   17.53    0.41 
  -2   2  -3   17.27    0.48 
   2   2   3   17.66    0.49 
   2   2   3   17.20    0.50 
  -2   2  -3   18.38    0.45 
  -2   2  -3   17.73    0.45 
  -2   2  -3   17.51    0.46 
  -3  -2  -3   70.99    1.65 
  -3   2  -3   72.48    1.66 
  -3   2  -3   71.30    1.71 
   3   2   3   70.00    1.71 
  -3   2  -3   70.32    1.66 
   3   2   3   71.68    1.73 
  -3   2  -3   73.14    1.64 
   4  -2   3   50.78    1.23 
  -4  -2  -3   49.99    1.21 
  -4   2  -3   50.56    1.21 
   4   2   3   50.36    1.29 
  -4   2  -3   49.63    1.28 
   4   2   3   49.74    1.28 
  -4   2  -3   50.05    1.17 
   5  -2   3   25.61    0.72 
  -5  -2  -3   25.62    0.69 
  -5   2  -3   25.44    0.78 
   5   2   3   26.55    0.79 
  -5   2  -3   25.19    0.69 
   5   2   3   26.13    0.78 
   6  -2   3    1.57    0.17 
  -6  -2  -3    1.54    0.14 
  -6   2  -3    1.51    0.13 
  -6   2  -3    1.68    0.21 
   6   2   3    1.97    0.20 
   6   2   3    1.25    0.18 
  -7  -2  -3    0.55    0.11 
   7   2   3    0.60    0.16 
  -7   2  -3    0.38    0.09 
   7   2   3    0.44    0.13 
  -7   2  -3    0.60    0.16 
  -8  -2  -3    4.96    0.28 
   8   2   3    5.05    0.39 
  -9  -2  -3    5.00    0.31 
  -9  -3   3    0.54    0.12 
  -9  -3   3    0.38    0.18 
   9  -3  -3    0.36    0.17 
  -9   3   3    0.42    0.19 
   9   3  -3    0.56    0.21 
  -8  -3   3    0.71    0.12 
   8  -3  -3    0.96    0.19 
  -8  -3   3    0.60    0.17 
  -8   3   3    0.50    0.18 
   8   3  -3    0.63    0.19 
  -7  -3   3    3.66    0.20 
   7  -3  -3    3.49    0.26 
  -7  -3   3    3.87    0.29 
   7   3  -3    4.20    0.33 
  -7   3   3    4.23    0.32 
   6  -3  -3    3.92    0.24 
  -6  -3   3    3.81    0.26 
  -6  -3   3    3.63    0.19 
  -6   3   3    3.72    0.27 
   6   3  -3    4.02    0.30 
  -5  -3   3   22.19    0.61 
   5  -3  -3   22.85    0.56 
  -5  -3   3   22.50    0.68 
   5   3  -3   22.71    0.75 
  -5   3   3   22.56    0.66 
  -5   3   3   22.60    0.70 
   4  -3  -3    5.47    0.18 
  -4  -3   3    5.69    0.22 
  -4  -3   3    5.85    0.25 
   4   3  -3    5.48    0.29 
  -4   3   3    5.53    0.26 
  -4   3   3    5.73    0.24 
  -3  -3   3   18.27    0.50 
   3  -3  -3   18.73    0.47 
   3  -3  -3   18.98    0.45 
  -3  -3   3   18.63    0.52 
   3   3  -3   18.48    0.57 
   3   3  -3   18.43    0.44 
  -3   3   3   18.66    0.53 
   3   3  -3   18.43    0.49 
  -3   3   3   16.92    0.51 
   2  -3  -3   69.43    1.58 
   2  -3  -3   69.83    1.59 
  -2  -3   3   70.84    1.61 
  -2   3   3   74.94    1.63 
   2   3  -3   71.22    1.63 
  -2   3   3   71.91    1.69 
   2   3  -3   70.97    1.74 
  -2   3   3   70.56    1.68 
   1  -3  -3   56.42    1.24 
   1  -3  -3   52.65    1.25 
  -1  -3   3   54.69    1.28 
   1   3  -3   55.91    1.29 
   1   3  -3   57.03    1.36 
  -1   3   3   57.26    1.31 
  -1   3   3   55.20    1.33 
  -1   3   3   55.60    1.28 
   0  -3   3   29.89    0.73 
   0  -3  -3   30.23    0.71 
   0  -3  -3   29.72    0.70 
   0   3   3   30.32    0.73 
   0   3   3   29.88    0.77 
   0   3   3   30.51    0.72 
   0   3  -3   30.46    0.77 
   0   3  -3   29.99    0.72 
  -1  -3  -3   46.01    1.08 
  -1  -3  -3   46.01    1.06 
   1  -3   3   47.36    1.09 
  -1   3  -3   47.45    1.07 
  -1   3  -3   46.69    1.10 
   1   3   3   46.06    1.16 
  -1   3  -3   47.21    1.12 
   1   3   3   47.09    1.10 
   1   3   3   46.90    1.11 
  -2  -3  -3    3.74    0.12 
  -2  -3  -3    3.90    0.15 
  -2   3  -3    3.90    0.15 
  -2   3  -3    3.71    0.15 
  -2   3  -3    3.53    0.15 
   2   3   3    3.88    0.15 
   2   3   3    3.80    0.17 
   2   3   3    3.72    0.20 
  -3  -3  -3   35.64    0.91 
  -3  -3  -3   39.22    0.88 
  -3   3  -3   36.00    0.88 
  -3   3  -3   36.75    0.92 
   3   3   3   36.13    0.97 
  -3   3  -3   35.59    0.89 
   3   3   3   35.44    0.93 
  -3   3  -3   35.28    0.88 
  -4  -3  -3   12.37    0.38 
  -4   3  -3   11.91    0.37 
  -4   3  -3   12.65    0.43 
   4   3   3   12.29    0.45 
  -4   3  -3   12.33    0.38 
   4   3   3   11.99    0.43 
  -4   3  -3   11.94    0.35 
  -5  -3  -3   13.45    0.43 
   5  -3   3   14.18    0.45 
  -5   3  -3   13.62    0.51 
   5   3   3   14.59    0.54 
  -5   3  -3   13.99    0.43 
   5   3   3   14.49    0.52 
  -5   3  -3   14.48    0.41 
  -6  -3  -3   12.73    0.43 
  -6   3  -3   12.49    0.42 
   6   3   3   13.34    0.53 
   6   3   3   12.82    0.53 
  -6   3  -3   12.44    0.52 
  -7  -3  -3    9.58    0.38 
   7   3   3   10.75    0.51 
  -7   3  -3    9.73    0.49 
  -7   3  -3    9.44    0.38 
   7   3   3   10.08    0.49 
   8  -3   3    2.30    0.30 
  -8  -3  -3    2.42    0.22 
   8   3   3    2.32    0.30 
  -8  -4   3    0.11    0.13 
  -8  -4   3    0.11    0.09 
   8  -4  -3   -0.12    0.10 
  -8   4   3    0.10    0.14 
   8   4  -3   -0.05    0.14 
  -7  -4   3    0.88    0.16 
  -7  -4   3    1.08    0.14 
   7  -4  -3    1.00    0.17 
  -7   4   3    1.23    0.20 
   7   4  -3    1.05    0.22 
  -6  -4   3    8.43    0.33 
  -6  -4   3    8.74    0.39 
  -6   4   3    8.57    0.37 
   6   4  -3    8.96    0.45 
  -6   4   3    7.88    0.40 
  -5  -4   3    4.34    0.21 
  -5  -4   3    4.53    0.25 
   5  -4  -3    4.13    0.17 
  -5   4   3    3.99    0.23 
  -5   4   3    4.33    0.26 
   5   4  -3    4.22    0.30 
  -4  -4   3    4.59    0.20 
   4  -4  -3    4.64    0.17 
  -4  -4   3    4.16    0.21 
  -4   4   3    4.59    0.24 
   4   4  -3    4.17    0.27 
  -4   4   3    4.46    0.22 
   3  -4  -3    0.68    0.06 
  -3  -4   3    0.70    0.09 
   3  -4  -3    0.63    0.06 
  -3  -4   3    0.75    0.09 
   3   4  -3    0.59    0.08 
  -3   4   3    0.68    0.10 
  -3   4   3    0.75    0.10 
   3   4  -3    0.76    0.13 
   3   4  -3    0.73    0.06 
   2  -4  -3   33.43    0.76 
   2  -4  -3   32.05    0.77 
  -2  -4   3   30.29    0.80 
   2   4  -3   34.21    0.92 
  -2   4   3   33.11    0.86 
   2   4  -3   33.47    0.84 
  -2   4   3   31.93    0.79 
   2   4  -3   33.32    0.80 
  -2   4   3   33.50    0.83 
   1  -4  -3  143.67    3.23 
   1  -4  -3  143.52    3.22 
  -1  -4   3  144.34    3.26 
  -1   4   3  144.39    3.33 
   1   4  -3  142.22    3.29 
  -1   4   3  148.32    3.28 
   1   4  -3  145.71    3.36 
   1   4  -3  146.27    3.28 
  -1   4   3  145.79    3.26 
   0  -4  -3   26.38    0.64 
   0  -4   3   25.39    0.65 
   0  -4  -3   25.09    0.62 
   0   4   3   26.10    0.72 
   0   4   3   26.27    0.65 
   0   4  -3   26.24    0.66 
   0   4  -3   26.74    0.66 
   0   4   3   26.25    0.65 
   0   4  -3   26.25    0.71 
   1  -4   3   35.54    0.88 
  -1  -4  -3   35.94    0.87 
  -1  -4  -3   36.52    0.85 
   1   4   3   35.95    0.88 
  -1   4  -3   35.37    0.88 
  -1   4  -3   35.74    0.91 
   1   4   3   35.67    0.88 
  -1   4  -3   36.38    0.85 
   1   4   3   36.46    0.95 
  -2  -4  -3    2.07    0.12 
   2  -4   3    2.12    0.12 
  -2  -4  -3    1.97    0.09 
   2  -4   3    2.00    0.11 
   2   4   3    1.97    0.16 
  -2   4  -3    2.04    0.12 
   2   4   3    2.15    0.13 
  -2   4  -3    1.93    0.11 
   2   4   3    1.95    0.12 
  -3  -4  -3   28.87    0.76 
   3  -4   3   30.03    0.75 
  -3   4  -3   29.71    0.75 
  -3   4  -3   29.53    0.78 
   3   4   3   29.20    0.85 
   3   4   3   28.57    0.78 
  -3   4  -3   29.24    0.76 
  -4  -4  -3    3.16    0.17 
  -4   4  -3    3.00    0.16 
  -4   4  -3    2.83    0.17 
  -4   4  -3    3.06    0.16 
   4   4   3    3.12    0.20 
  -4   4  -3    3.12    0.21 
   4   4   3    3.07    0.22 
  -5  -4  -3   28.13    0.77 
   5   4   3   27.66    0.85 
  -5   4  -3   28.64    0.75 
  -5   4  -3   28.20    0.85 
  -5   4  -3   29.48    0.77 
   5   4   3   28.71    0.90 
  -5   4  -3   28.61    0.81 
  -6  -4  -3    0.79    0.11 
  -6   4  -3    1.02    0.12 
   6   4   3    0.92    0.16 
  -6   4  -3    0.42    0.13 
   6   4   3    0.87    0.18 
  -7  -4  -3    3.68    0.25 
  -7   4  -3    4.13    0.32 
   7   4   3    3.82    0.32 
   7   4   3    3.89    0.34 
  -8  -4  -3    1.22    0.18 
   8  -4   3    1.41    0.25 
   8   4   3    0.83    0.20 
   8  -5  -3    1.10    0.20 
  -8  -5   3    0.89    0.15 
   8   5  -3    1.14    0.26 
  -7  -5   3    1.91    0.18 
  -7   5   3    1.93    0.22 
   7   5  -3    1.44    0.26 
  -6  -5   3    3.36    0.21 
   6  -5  -3    3.16    0.16 
   6   5  -3    3.67    0.33 
  -6   5   3    3.59    0.25 
  -5  -5   3    2.02    0.16 
   5  -5  -3    2.09    0.13 
  -5   5   3    2.53    0.20 
   5   5  -3    2.17    0.25 
   4  -5  -3    5.34    0.21 
  -4  -5   3    5.51    0.24 
  -4   5   3    5.11    0.26 
   4   5  -3    5.91    0.33 
   3  -5  -3   11.22    0.33 
  -3  -5   3   10.81    0.37 
   3   5  -3   11.46    0.37 
  -3   5   3   11.51    0.40 
  -3   5   3   11.22    0.31 
   3   5  -3   11.00    0.32 
   3   5  -3   11.24    0.46 
   2  -5  -3   67.15    1.54 
   2  -5  -3   66.42    1.54 
  -2  -5   3   65.00    1.58 
   2   5  -3   65.26    1.56 
  -2   5   3   68.71    1.55 
  -2   5   3   67.30    1.64 
   2   5  -3   66.99    1.61 
   2   5  -3   67.40    1.70 
   1  -5  -3   47.27    1.11 
  -1  -5   3   46.83    1.15 
   1  -5  -3   45.97    1.11 
   1   5  -3   48.24    1.16 
  -1   5   3   46.71    1.20 
   1   5  -3   47.12    1.24 
   1   5  -3   48.37    1.14 
  -1   5   3   46.90    1.13 
   0  -5  -3    4.32    0.17 
   0  -5   3    5.12    0.20 
   0  -5  -3    4.19    0.16 
   0   5  -3    4.30    0.22 
   0   5   3    4.26    0.22 
   0   5  -3    4.13    0.18 
   0   5   3    4.37    0.18 
   0   5  -3    4.06    0.18 
  -1  -5  -3   61.53    1.46 
  -1  -5  -3   62.11    1.43 
   1   5   3   63.62    1.59 
  -1   5  -3   61.96    1.54 
  -1   5  -3   63.16    1.50 
   1   5   3   64.62    1.50 
  -2  -5  -3    3.49    0.14 
   2  -5   3    3.78    0.17 
  -2  -5  -3    3.53    0.17 
   2   5   3    3.40    0.17 
   2   5   3    3.47    0.22 
  -2   5  -3    3.16    0.16 
  -2   5  -3    3.44    0.18 
   3  -5   3   12.62    0.39 
  -3  -5  -3   12.35    0.39 
  -3   5  -3   12.50    0.41 
  -3   5  -3   11.16    0.37 
   3   5   3   13.03    0.49 
   4  -5   3   25.02    0.66 
  -4  -5  -3   23.44    0.67 
   4   5   3   24.57    0.80 
  -4   5  -3   25.23    0.68 
  -4   5  -3   25.04    0.71 
   5  -5   3    0.24    0.06 
  -5  -5  -3    0.25    0.08 
  -5   5  -3    0.09    0.06 
   5   5   3    0.26    0.12 
  -6  -5  -3    0.30    0.09 
   6   5   3    0.36    0.14 
  -7  -5  -3    2.72    0.23 
   7   5   3    2.49    0.30 
  -7  -6   3    0.25    0.10 
  -7   6   3    0.16    0.11 
   7   6  -3    0.39    0.18 
  -6  -6   3    7.53    0.34 
   6  -6  -3    7.68    0.28 
   6   6  -3    7.31    0.45 
  -6   6   3    7.36    0.37 
  -5  -6   3    0.60    0.11 
   5  -6  -3    0.52    0.08 
  -5   6   3    0.66    0.13 
   5   6  -3    0.67    0.16 
   4  -6  -3   15.16    0.45 
  -4  -6   3   15.83    0.51 
   4   6  -3   15.86    0.62 
  -4   6   3   16.34    0.56 
  -3  -6   3    9.34    0.35 
   3  -6  -3   10.22    0.32 
   3   6  -3   10.16    0.45 
  -3   6   3   10.74    0.41 
  -3   6   3   10.22    0.31 
   2  -6  -3   16.89    0.47 
  -2  -6   3   16.36    0.51 
  -2   6   3   16.57    0.54 
  -2   6   3   16.95    0.46 
   2   6  -3   15.73    0.58 
   2   6  -3   17.32    0.51 
   2   6  -3   16.58    0.47 
   1  -6  -3    7.81    0.26 
   1  -6  -3    7.94    0.26 
  -1  -6   3    7.29    0.29 
   1   6  -3    7.59    0.27 
   1   6  -3    7.78    0.35 
  -1   6   3    7.54    0.26 
   1   6  -3    7.68    0.29 
  -1   6   3    7.25    0.32 
   0  -6  -3    2.59    0.13 
   0  -6  -3    2.67    0.14 
   0  -6   3    2.83    0.16 
   0   6  -3    2.75    0.15 
   0   6   3    2.78    0.20 
   0   6   3    2.61    0.15 
   0   6  -3    2.61    0.15 
   0   6  -3    2.48    0.19 
  -1  -6  -3   19.44    0.52 
  -1  -6  -3   20.52    0.56 
   1  -6   3   20.00    0.57 
   1   6   3   20.86    0.67 
  -1   6  -3   20.20    0.62 
  -1   6  -3   20.65    0.58 
   1   6   3   21.01    0.58 
  -1   6  -3   20.75    0.56 
  -2  -6  -3   11.84    0.34 
  -2  -6  -3   12.06    0.39 
   2  -6   3   11.69    0.39 
   2   6   3   11.63    0.39 
  -2   6  -3   12.22    0.36 
  -2   6  -3   12.07    0.39 
  -2   6  -3   12.10    0.42 
   2   6   3   12.18    0.48 
   3  -6   3   10.27    0.35 
  -3  -6  -3    9.90    0.35 
  -3   6  -3    9.79    0.37 
  -3   6  -3    9.98    0.35 
   3   6   3    9.64    0.44 
   4  -6   3    0.46    0.08 
  -4  -6  -3    0.57    0.10 
   4   6   3    0.48    0.13 
  -4   6  -3    0.45    0.11 
  -4   6  -3    0.76    0.11 
  -5  -6  -3    4.41    0.24 
   5   6   3    4.12    0.32 
  -5   6  -3    4.13    0.22 
  -6  -6  -3    8.80    0.38 
   6   6   3    7.81    0.46 
  -7  -6  -3    1.78    0.21 
   7   6   3    1.41    0.26 
  -7  -7   3    0.98    0.17 
  -7   7   3    0.80    0.18 
   7   7  -3    0.76    0.22 
   6  -7  -3    0.73    0.11 
  -6  -7   3    0.65    0.13 
   6   7  -3    0.97    0.22 
  -6   7   3    0.64    0.15 
   5  -7  -3    2.85    0.17 
  -5  -7   3    2.71    0.21 
   5   7  -3    2.91    0.29 
  -5   7   3    2.94    0.25 
   4  -7  -3    0.91    0.11 
  -4  -7   3    1.10    0.15 
   4   7  -3    1.08    0.21 
  -4   7   3    1.04    0.16 
  -4   7   3    0.97    0.10 
  -3  -7   3    5.17    0.26 
   3  -7  -3    5.50    0.23 
   3   7  -3    5.47    0.34 
  -3   7   3    5.59    0.21 
  -3   7   3    3.84    0.26 
   2  -7  -3    0.97    0.10 
  -2  -7   3    0.94    0.13 
  -2   7   3    0.90    0.10 
   2   7  -3    0.85    0.11 
   2   7  -3    0.68    0.11 
   2   7  -3    0.94    0.17 
  -2   7   3    0.70    0.13 
   1  -7  -3   27.95    0.72 
  -1  -7   3   26.90    0.77 
  -1   7   3   28.44    0.76 
   1   7  -3   29.15    0.88 
   1   7  -3   28.29    0.76 
   1   7  -3   29.85    0.80 
  -1   7   3   28.15    0.85 
   0  -7  -3   12.02    0.36 
   0  -7   3   11.62    0.41 
   0  -7  -3   10.99    0.37 
   0   7  -3   11.58    0.38 
   0   7   3   11.80    0.46 
   0   7  -3   11.72    0.39 
   0   7  -3   11.58    0.46 
   0   7   3   11.07    0.38 
  -1  -7  -3    2.17    0.13 
  -1  -7  -3    2.22    0.15 
   1  -7   3    2.26    0.16 
   1   7   3    2.14    0.15 
   1   7   3    2.15    0.20 
  -1   7  -3    2.41    0.19 
  -1   7  -3    2.25    0.16 
  -1   7  -3    2.37    0.15 
   2  -7   3    2.65    0.17 
  -2  -7  -3    2.86    0.18 
  -2   7  -3    2.57    0.17 
  -2   7  -3    2.38    0.14 
  -2   7  -3    2.25    0.19 
   2   7   3    2.42    0.23 
  -3  -7  -3    2.14    0.17 
  -3   7  -3    2.08    0.19 
  -3   7  -3    1.78    0.15 
   3   7   3    2.26    0.22 
  -4  -7  -3    6.24    0.29 
   4   7   3    5.84    0.38 
  -4   7  -3    6.00    0.28 
  -5  -7  -3    0.13    0.09 
   5   7   3    0.04    0.11 
  -5   7  -3    0.05    0.07 
   6  -7   3    6.92    0.29 
  -6  -7  -3    7.24    0.36 
   6   7   3    7.33    0.46 
  -5  -8   3    2.51    0.22 
   5  -8  -3    2.74    0.18 
  -5   8   3    2.29    0.25 
   5   8  -3    2.60    0.30 
   4  -8  -3    8.12    0.32 
  -4  -8   3    8.09    0.37 
  -4   8   3    8.30    0.30 
   4   8  -3    7.96    0.46 
  -4   8   3    7.55    0.39 
  -3  -8   3    5.35    0.29 
   3  -8  -3    5.56    0.25 
  -3   8   3    5.09    0.32 
  -3   8   3    5.36    0.24 
   3   8  -3    5.44    0.37 
   2  -8  -3    0.06    0.06 
  -2  -8   3    0.12    0.08 
   2   8  -3    0.27    0.12 
   2   8  -3    0.07    0.06 
  -2   8   3    0.08    0.06 
  -2   8   3    0.04    0.08 
   2   8  -3    0.13    0.06 
   1  -8  -3    0.70    0.10 
  -1  -8   3    0.65    0.12 
   1   8  -3    0.49    0.13 
  -1   8   3    0.74    0.14 
   1   8  -3    0.67    0.11 
  -1   8   3    0.55    0.09 
   1   8  -3    0.58    0.10 
   0  -8   3    1.01    0.14 
   0  -8  -3    0.79    0.10 
   0   8  -3    0.61    0.10 
   0   8   3    0.82    0.15 
   0   8  -3    0.79    0.12 
   0   8   3    0.77    0.11 
   0   8  -3    0.78    0.15 
  -1  -8  -3   19.10    0.59 
  -1  -8  -3   20.64    0.56 
   1  -8   3   19.05    0.62 
  -1   8  -3   20.44    0.59 
   1   8   3   19.35    0.60 
   1   8   3   18.78    0.70 
  -1   8  -3   20.23    0.60 
  -1   8  -3   20.17    0.67 
   2  -8   3    2.06    0.17 
  -2  -8  -3    2.37    0.18 
  -2   8  -3    2.26    0.21 
   2   8   3    2.03    0.23 
  -2   8  -3    2.04    0.15 
  -2   8  -3    2.37    0.18 
  -3  -8  -3    3.65    0.23 
  -3   8  -3    3.48    0.19 
  -3   8  -3    4.09    0.26 
  -3   8  -3    3.71    0.23 
   3   8   3    3.64    0.31 
  -4  -8  -3    3.25    0.23 
  -4   8  -3    3.70    0.23 
   4   8   3    2.86    0.30 
  -5  -8  -3   13.81    0.50 
   5  -8   3   12.38    0.44 
   5   8   3   13.61    0.65 
  -4  -9   3    3.70    0.27 
   4  -9  -3    3.69    0.22 
  -4   9   3    3.60    0.29 
  -4   9   3    3.89    0.21 
   4   9  -3    3.93    0.37 
  -3  -9   3   17.01    0.59 
   3  -9  -3   16.68    0.53 
   3   9  -3   17.12    0.72 
  -3   9   3   16.92    0.53 
  -3   9   3   18.28    0.67 
  -2  -9   3    1.70    0.19 
   2  -9  -3    1.47    0.15 
  -2   9   3    1.33    0.15 
  -2   9   3    1.39    0.20 
   2   9  -3    1.56    0.24 
  -1  -9   3    0.64    0.13 
   1  -9  -3    0.76    0.11 
  -1  -9   3    0.85    0.11 
   1   9  -3    0.67    0.16 
  -1   9   3    0.59    0.11 
  -1   9   3    0.57    0.15 
   1   9  -3    0.66    0.12 
   0  -9   3    8.92    0.39 
   0  -9  -3    9.70    0.34 
   0   9  -3    9.55    0.37 
   0   9  -3    9.23    0.45 
   0   9  -3   10.05    0.39 
   0   9   3    9.51    0.38 
   0   9   3    9.73    0.46 
   1  -9   3    4.21    0.25 
  -1  -9  -3    4.14    0.21 
  -1   9  -3    3.76    0.28 
   1   9   3    3.95    0.31 
  -1   9  -3    4.18    0.23 
  -1   9  -3    3.86    0.23 
  -2  -9  -3    2.97    0.22 
  -2   9  -3    3.06    0.25 
  -2   9  -3    2.79    0.19 
   2   9   3    2.51    0.27 
  -2   9  -3    2.76    0.20 
  -3  -9  -3    2.92    0.23 
   3   9   3    3.36    0.31 
  -3   9  -3    3.11    0.19 
  -3   9  -3    3.33    0.23 
   0 -10   3    4.44    0.28 
   0  10   3    5.10    0.47 
   0  10  -3    4.36    0.26 
   0  10  -3    4.44    0.33 
  -9   0   4    1.87    0.27 
   9   0  -4    1.65    0.29 
  -8   0   4    0.64    0.17 
   8   0  -4    0.75    0.19 
  -7   0   4    0.06    0.10 
   7   0  -4    0.09    0.11 
   6   0  -4   60.26    1.57 
  -6   0   4   58.82    1.40 
  -6   0   4   58.52    1.56 
  -5   0   4    2.67    0.12 
  -5   0   4    2.40    0.19 
   5   0  -4    2.61    0.19 
  -4   0   4   53.68    1.37 
  -4   0   4   55.59    1.27 
   4   0  -4   56.11    1.23 
   4   0  -4   54.62    1.37 
   3   0  -4    0.06    0.02 
  -3   0   4    0.10    0.05 
   3   0  -4    0.04    0.04 
  -3   0   4    0.08    0.02 
  -2   0   4   81.39    1.89 
   2   0  -4   82.26    1.88 
   2   0  -4   81.99    1.82 
   1   0  -4    4.36    0.12 
  -1   0   4    4.21    0.16 
   1   0  -4    4.08    0.14 
   0   0  -4  327.51    7.44 
   0   0   4  342.94    7.47 
   0   0  -4  340.75    7.48 
  -1   0  -4   62.90    1.46 
   1   0   4   63.52    1.49 
  -1   0  -4   65.74    1.44 
   2   0   4   36.70    0.87 
  -2   0  -4   36.57    0.85 
   2   0   4   36.75    0.92 
  -2   0  -4   38.02    0.88 
   3   0   4   29.04    0.78 
  -3   0  -4   28.57    0.72 
   3   0   4   28.74    0.73 
  -3   0  -4   29.09    0.68 
   4   0   4   53.61    1.32 
  -4   0  -4   54.34    1.28 
   4   0   4   51.81    1.36 
   5   0   4  111.64    2.64 
   5   0   4  112.41    2.69 
  -5   0  -4  110.25    2.58 
  -6   0  -4    0.04    0.06 
   6   0   4    0.01    0.09 
   7   0   4   12.48    0.55 
  -7   0  -4   11.91    0.43 
  -8   0  -4   -0.15    0.07 
   8   0   4   -0.01    0.12 
   9   0   4    3.31    0.42 
  -9   0  -4    2.74    0.25 
  -9  -1   4    6.87    0.46 
   9  -1  -4    7.46    0.48 
  -9   1   4    7.56    0.49 
   9   1  -4    7.90    0.52 
  -8  -1   4    4.32    0.34 
   8  -1  -4    3.41    0.32 
   8   1  -4    4.22    0.35 
  -8   1   4    4.09    0.35 
   7  -1  -4   23.50    0.79 
  -7  -1   4   23.09    0.64 
  -7  -1   4   24.05    0.80 
  -7   1   4   23.95    0.81 
   7   1  -4   23.39    0.82 
  -6  -1   4   27.52    0.72 
  -6  -1   4   29.30    0.86 
   6  -1  -4   27.57    0.85 
  -6   1   4   28.49    0.87 
   6   1  -4   28.57    0.89 
  -5  -1   4   34.49    0.96 
   5  -1  -4   34.49    0.94 
  -5  -1   4   34.61    0.84 
   5   1  -4   35.10    0.99 
  -5   1   4   34.57    0.83 
  -5   1   4   34.21    0.97 
   4  -1  -4    2.82    0.16 
  -4  -1   4    3.02    0.19 
  -4  -1   4    2.91    0.12 
   4  -1  -4    3.03    0.10 
  -4   1   4    3.00    0.11 
  -4   1   4    2.95    0.19 
   4   1  -4    3.02    0.19 
  -3  -1   4   19.08    0.48 
   3  -1  -4   19.14    0.45 
  -3  -1   4   18.89    0.54 
  -3   1   4   19.19    0.54 
   3   1  -4   18.77    0.55 
   3   1  -4   19.26    0.44 
  -3   1   4   18.47    0.51 
   2  -1  -4    7.93    0.21 
  -2  -1   4    7.87    0.26 
  -2  -1   4    8.05    0.22 
  -2   1   4    8.06    0.25 
  -2   1   4    7.87    0.27 
   2   1  -4    8.05    0.20 
   2   1  -4    8.01    0.27 
   1  -1  -4    7.83    0.20 
  -1  -1   4    7.80    0.22 
  -1  -1   4    8.19    0.24 
  -1   1   4    7.85    0.25 
   1   1  -4    8.10    0.21 
  -1   1   4    7.96    0.23 
   1   1  -4    7.84    0.22 
   1   1  -4    8.15    0.24 
   0  -1   4   17.13    0.44 
   0  -1  -4   17.43    0.41 
   0  -1  -4   17.62    0.41 
   0   1   4   17.09    0.44 
   0   1  -4   17.51    0.41 
   0   1   4   16.50    0.41 
   0   1  -4   16.97    0.42 
  -1  -1  -4   28.22    0.68 
  -1  -1  -4   29.83    0.67 
   1  -1   4   29.33    0.72 
   1   1   4   28.17    0.69 
   1   1   4   28.73    0.72 
  -1   1  -4   29.40    0.67 
  -1   1  -4   28.26    0.68 
  -2  -1  -4   57.98    1.28 
   2  -1   4   56.89    1.37 
   2  -1   4   56.93    1.30 
   2   1   4   58.44    1.39 
   2   1   4   56.21    1.35 
  -2   1  -4   57.62    1.34 
  -2   1  -4   58.18    1.32 
  -3  -1  -4   24.56    0.63 
   3  -1   4   24.50    0.69 
   3  -1   4   25.29    0.63 
  -3  -1  -4   25.12    0.58 
  -3   1  -4   24.61    0.59 
   3   1   4   24.08    0.68 
  -3   1  -4   24.18    0.62 
   3   1   4   24.38    0.65 
   4  -1   4   48.86    1.19 
  -4  -1  -4   47.42    1.17 
  -4   1  -4   48.91    1.12 
   4   1   4   47.63    1.21 
  -4   1  -4   47.99    1.16 
   4   1   4   47.32    1.24 
  -4   1  -4   47.13    1.24 
   5  -1   4   12.14    0.43 
  -5  -1  -4   12.81    0.40 
  -5   1  -4   12.98    0.40 
  -5   1  -4   12.45    0.48 
   5   1   4   12.34    0.48 
   5   1   4   12.88    0.46 
  -6  -1  -4    7.19    0.30 
   6   1   4    7.10    0.38 
   6   1   4    6.90    0.34 
  -6   1  -4    7.00    0.29 
  -7  -1  -4    0.95    0.14 
   7  -1   4    0.92    0.18 
  -7   1  -4    0.83    0.13 
   7   1   4    0.72    0.17 
  -8  -1  -4    7.15    0.34 
   8  -1   4    6.69    0.44 
  -8   1  -4    6.95    0.33 
   8   1   4    7.23    0.47 
  -9  -1  -4    0.75    0.16 
   9  -2  -4    2.36    0.31 
  -9  -2   4    2.00    0.29 
   9   2  -4    2.55    0.33 
  -9   2   4    2.37    0.32 
   8  -2  -4    0.43    0.15 
  -8  -2   4    0.11    0.08 
  -8  -2   4    0.37    0.15 
   8   2  -4    0.26    0.16 
  -8   2   4    0.08    0.14 
   7  -2  -4    5.80    0.33 
  -7  -2   4    5.52    0.34 
  -7  -2   4    5.17    0.23 
  -7   2   4    6.36    0.37 
   7   2  -4    5.60    0.37 
  -6  -2   4   29.42    0.77 
  -6  -2   4   29.46    0.90 
   6  -2  -4   30.78    0.88 
   6   2  -4   28.53    0.92 
  -6   2   4   29.04    0.89 
  -5  -2   4    3.70    0.16 
   5  -2  -4    3.38    0.20 
   5  -2  -4    3.53    0.13 
  -5  -2   4    3.67    0.23 
  -5   2   4    3.70    0.23 
   5   2  -4    3.45    0.24 
  -4  -2   4   12.23    0.41 
  -4  -2   4   11.67    0.34 
   4  -2  -4   11.86    0.31 
  -4   2   4   11.60    0.37 
  -4   2   4   11.00    0.40 
   4   2  -4   11.34    0.43 
  -3  -2   4   27.00    0.67 
   3  -2  -4   27.47    0.64 
  -3  -2   4   26.92    0.71 
  -3   2   4   26.09    0.69 
   3   2  -4   26.65    0.75 
   3   2  -4   26.67    0.67 
   3   2  -4   26.92    0.62 
  -3   2   4   27.07    0.72 
  -2  -2   4    3.32    0.14 
  -2  -2   4    3.27    0.13 
   2  -2  -4    3.36    0.11 
   2   2  -4    3.48    0.14 
  -2   2   4    3.23    0.14 
   2   2  -4    3.39    0.11 
   2   2  -4    3.04    0.17 
  -2   2   4    3.04    0.16 
  -1  -2   4   44.03    1.05 
  -1  -2   4   45.51    1.04 
   1  -2  -4   45.17    1.03 
   1   2  -4   45.32    1.06 
  -1   2   4   45.94    1.08 
  -1   2   4   45.01    1.07 
   1   2  -4   45.36    1.10 
   1   2  -4   45.77    1.05 
   0  -2  -4    0.31    0.04 
   0  -2   4    0.43    0.05 
   0  -2   4    0.20    0.04 
   0  -2  -4    0.25    0.03 
   0   2  -4    0.25    0.04 
   0   2  -4    0.26    0.05 
   0   2   4    0.29    0.05 
   0   2  -4    0.25    0.04 
   0   2   4    0.28    0.05 
  -1  -2  -4   21.13    0.49 
   1  -2   4   20.53    0.53 
  -1  -2  -4   20.43    0.51 
   1   2   4   20.36    0.53 
  -1   2  -4   20.19    0.49 
  -1   2  -4   19.50    0.51 
  -1   2  -4   20.23    0.50 
   1   2   4   20.65    0.54 
  -2  -2  -4   60.57    1.37 
   2  -2   4   61.74    1.45 
   2   2   4   60.49    1.47 
   2   2   4   60.56    1.47 
  -2   2  -4   61.71    1.43 
  -2   2  -4   62.42    1.42 
  -2   2  -4   62.20    1.41 
   3  -2   4   13.45    0.43 
  -3  -2  -4   13.14    0.38 
  -3  -2  -4   14.53    0.33 
  -3   2  -4   13.31    0.39 
   3   2   4   14.18    0.45 
  -3   2  -4   14.00    0.38 
  -3   2  -4   14.31    0.38 
   3   2   4   13.95    0.44 
   4  -2   4   12.55    0.37 
  -4  -2  -4   11.75    0.37 
  -4   2  -4   12.12    0.37 
  -4   2  -4   12.17    0.34 
  -4   2  -4   12.15    0.43 
   4   2   4   11.98    0.43 
   4   2   4   11.40    0.42 
   5  -2   4   19.98    0.60 
  -5   2  -4   20.22    0.57 
   5   2   4   20.01    0.65 
  -5   2  -4   19.92    0.66 
   5   2   4   19.87    0.66 
  -6  -2  -4    4.03    0.22 
   6   2   4    3.91    0.29 
  -6   2  -4    3.69    0.28 
  -6   2  -4    3.64    0.20 
   6   2   4    3.61    0.25 
   7  -2   4    0.05    0.11 
  -7  -2  -4    0.32    0.10 
  -7   2  -4    0.14    0.08 
   7   2   4    0.24    0.13 
  -8  -2  -4    0.62    0.14 
   8  -2   4    0.64    0.19 
   8   2   4    0.70    0.20 
  -8   2  -4    0.57    0.12 
   9  -3  -4    0.94    0.23 
  -9  -3   4    1.71    0.26 
   9   3  -4    1.74    0.30 
  -9   3   4    1.73    0.29 
   8  -3  -4    2.59    0.27 
  -8  -3   4    2.36    0.29 
  -8  -3   4    2.88    0.19 
   8   3  -4    3.23    0.33 
  -8   3   4    2.44    0.29 
   7  -3  -4    0.88    0.16 
  -7  -3   4    1.06    0.17 
  -7  -3   4    0.82    0.11 
  -7   3   4    0.43    0.15 
   7   3  -4    1.01    0.20 
  -6  -3   4    0.07    0.06 
   6  -3  -4    0.16    0.08 
  -6  -3   4    0.07    0.09 
   6   3  -4    0.10    0.11 
  -6   3   4    0.11    0.10 
   5  -3  -4    2.73    0.12 
  -5  -3   4    2.46    0.15 
  -5  -3   4    2.66    0.20 
   5   3  -4    3.14    0.24 
  -5   3   4    2.69    0.21 
  -5   3   4    2.59    0.18 
   4  -3  -4   44.27    1.04 
  -4  -3   4   43.34    1.13 
  -4  -3   4   45.86    1.09 
  -4   3   4   43.34    1.11 
   4   3  -4   43.78    1.19 
  -4   3   4   44.56    1.15 
   3  -3  -4   20.01    0.51 
  -3  -3   4   20.13    0.54 
  -3  -3   4   20.64    0.56 
  -3   3   4   20.41    0.58 
   3   3  -4   19.61    0.54 
   3   3  -4   20.21    0.62 
  -3   3   4   20.17    0.57 
   3   3  -4   19.69    0.49 
  -2  -3   4   38.20    0.93 
  -2  -3   4   38.78    0.92 
   2  -3  -4   38.25    0.90 
  -2   3   4   39.01    0.97 
   2   3  -4   38.78    1.02 
  -2   3   4   38.88    0.97 
   2   3  -4   39.45    0.92 
   2   3  -4   39.76    0.95 
   1  -3  -4    3.09    0.12 
  -1  -3   4    3.17    0.13 
   1  -3  -4    3.23    0.11 
  -1   3   4    3.21    0.12 
  -1   3   4    3.09    0.15 
   1   3  -4    3.27    0.14 
   1   3  -4    3.42    0.13 
  -1   3   4    3.20    0.15 
   1   3  -4    3.51    0.17 
   0  -3  -4   19.49    0.50 
   0  -3  -4   20.82    0.50 
   0  -3   4   21.23    0.53 
   0   3   4   21.28    0.55 
   0   3   4   21.32    0.53 
   0   3  -4   21.68    0.57 
   0   3  -4   20.42    0.53 
   0   3   4   20.83    0.57 
   0   3  -4   21.69    0.53 
   1  -3   4  136.21    3.06 
  -1  -3  -4  137.17    3.04 
   1  -3   4  135.67    3.07 
  -1  -3  -4  136.00    3.06 
   1   3   4  133.88    3.10 
  -1   3  -4  133.80    3.05 
   1   3   4  135.95    3.05 
  -1   3  -4  135.25    3.05 
  -1   3  -4  136.42    3.02 
   1   3   4  135.67    3.07 
  -2  -3  -4   24.77    0.58 
   2  -3   4   21.40    0.59 
  -2  -3  -4   22.01    0.54 
  -2   3  -4   21.11    0.56 
   2   3   4   21.86    0.59 
  -2   3  -4   21.00    0.55 
   2   3   4   21.54    0.61 
  -3  -3  -4    1.03    0.09 
   3  -3   4    0.97    0.11 
  -3   3  -4    1.22    0.09 
  -3   3  -4    1.00    0.08 
   3   3   4    1.05    0.12 
  -3   3  -4    0.98    0.09 
   3   3   4    1.09    0.12 
  -4  -3  -4   89.84    2.09 
  -4   3  -4   81.09    1.92 
  -4   3  -4   81.17    1.91 
  -4   3  -4   82.37    1.89 
   4   3   4   80.52    2.01 
   4   3   4   82.35    2.00 
  -5  -3  -4   23.35    0.65 
  -5   3  -4   23.74    0.73 
   5   3   4   21.98    0.72 
   5   3   4   23.49    0.74 
  -5   3  -4   22.45    0.64 
  -6  -3  -4   13.63    0.46 
   6   3   4   15.07    0.56 
  -6   3  -4   12.58    0.44 
   6   3   4   14.10    0.55 
  -7  -3  -4   11.61    0.44 
   7  -3   4   12.02    0.54 
  -7   3  -4   11.04    0.41 
   7   3   4   11.46    0.53 
   8  -3   4   12.40    0.60 
  -8  -3  -4   11.43    0.47 
   8   3   4   11.69    0.58 
   8  -4  -4    9.77    0.49 
  -8  -4   4    9.67    0.38 
   8   4  -4    9.42    0.54 
  -8   4   4    8.89    0.49 
  -7  -4   4    1.86    0.22 
  -7  -4   4    2.25    0.17 
   7  -4  -4    2.11    0.22 
   7   4  -4    2.08    0.27 
  -7   4   4    2.15    0.26 
  -6  -4   4    4.34    0.27 
   6  -4  -4    4.34    0.19 
  -6  -4   4    4.08    0.21 
  -6   4   4    4.03    0.29 
   6   4  -4    4.18    0.31 
  -6   4   4    4.21    0.25 
   5  -4  -4   12.10    0.36 
  -5  -4   4   13.07    0.41 
  -5  -4   4   12.73    0.45 
  -5   4   4   12.68    0.47 
   5   4  -4   11.89    0.52 
  -5   4   4   13.13    0.46 
  -4  -4   4    0.21    0.06 
  -4  -4   4    0.03    0.06 
   4  -4  -4    0.09    0.04 
   4   4  -4    0.17    0.09 
  -4   4   4    0.09    0.06 
  -4   4   4    0.14    0.07 
  -3  -4   4    0.57    0.08 
   3  -4  -4    0.63    0.07 
  -3  -4   4    0.74    0.10 
   3   4  -4    0.61    0.06 
  -3   4   4    0.81    0.10 
   3   4  -4    0.59    0.12 
  -3   4   4    0.76    0.11 
   3   4  -4    0.66    0.09 
   2  -4  -4  172.46    3.80 
   2  -4  -4  170.25    3.82 
  -2  -4   4  168.98    3.86 
  -2   4   4  167.64    3.86 
   2   4  -4  170.98    3.92 
   2   4  -4  171.63    3.80 
  -2   4   4  156.07    3.83 
  -2   4   4  173.90    3.79 
   2   4  -4  176.05    3.84 
   1  -4  -4   11.90    0.33 
   1  -4  -4   12.35    0.32 
  -1  -4   4   11.84    0.36 
   1   4  -4   11.90    0.34 
  -1   4   4   11.13    0.34 
   1   4  -4   12.83    0.36 
  -1   4   4   12.44    0.38 
  -1   4   4   12.31    0.36 
   1   4  -4   11.75    0.40 
   0  -4  -4   37.10    0.87 
   0  -4  -4   36.61    0.88 
   0   4  -4   37.91    0.96 
   0   4  -4   37.88    0.92 
   0   4  -4   37.89    0.91 
   0   4   4   36.43    0.97 
   0   4   4   38.72    0.93 
   1  -4   4   27.55    0.69 
  -1  -4  -4   26.75    0.65 
  -1  -4  -4   27.00    0.68 
   1   4   4   27.03    0.70 
  -1   4  -4   26.83    0.71 
  -1   4  -4   27.77    0.70 
   1   4   4   28.78    0.70 
   1   4   4   26.60    0.75 
  -1   4  -4   27.90    0.67 
  -2  -4  -4   30.32    0.72 
   2  -4   4   30.53    0.77 
   2  -4   4   30.41    0.77 
  -2  -4  -4   30.67    0.76 
  -2   4  -4   30.61    0.76 
   2   4   4   30.11    0.84 
  -2   4  -4   28.77    0.76 
   2   4   4   30.06    0.76 
   2   4   4   29.24    0.78 
   3  -4   4   10.58    0.35 
  -3  -4  -4   10.14    0.33 
  -3   4  -4   10.40    0.34 
  -3   4  -4   11.06    0.34 
   3   4   4   10.18    0.40 
   3   4   4   10.47    0.38 
   4  -4   4   20.67    0.63 
  -4  -4  -4   21.41    0.59 
  -4   4  -4   21.66    0.58 
  -4   4  -4   22.04    0.61 
  -4   4  -4   21.47    0.60 
   4   4   4   21.18    0.66 
   4   4   4   20.20    0.69 
   5  -4   4    0.70    0.13 
  -5  -4  -4    0.54    0.09 
   5   4   4    0.82    0.15 
  -5   4  -4    0.73    0.10 
   5   4   4    0.83    0.15 
  -5   4  -4    0.61    0.09 
   6  -4   4   -0.06    0.08 
  -6  -4  -4    0.00    0.07 
   6   4   4   -0.10    0.08 
  -6   4  -4    0.01    0.06 
   6   4   4    0.08    0.11 
   7  -4   4    0.25    0.15 
  -7  -4  -4    0.52    0.13 
   7   4   4    0.33    0.18 
   7   4   4    0.41    0.16 
  -8  -4  -4    4.33    0.29 
   8  -4   4    4.20    0.36 
   8   4   4    3.87    0.36 
  -8  -5   4    3.39    0.24 
   8  -5  -4    2.69    0.27 
   8   5  -4    2.87    0.35 
  -7  -5   4    2.29    0.19 
   7   5  -4    2.27    0.29 
  -7   5   4    2.42    0.23 
   6  -5  -4    0.05    0.05 
  -6  -5   4    0.03    0.07 
  -6   5   4    0.08    0.08 
   6   5  -4   -0.05    0.10 
   5  -5  -4   12.56    0.38 
  -5  -5   4   12.87    0.43 
   5   5  -4   12.94    0.56 
  -5   5   4   13.05    0.48 
   4  -5  -4    3.33    0.16 
  -4  -5   4    3.89    0.20 
   4   5  -4    3.75    0.28 
  -4   5   4    3.45    0.22 
  -3  -5   4    6.54    0.26 
   3  -5  -4    6.23    0.22 
   3   5  -4    6.84    0.34 
   3   5  -4    6.76    0.27 
  -3   5   4    6.65    0.29 
   3   5  -4    6.48    0.22 
  -3   5   4    6.52    0.22 
   2  -5  -4   79.93    1.83 
  -2  -5   4   78.33    1.88 
   2   5  -4   81.74    1.86 
   2   5  -4   79.47    1.81 
  -2   5   4   69.01    1.80 
  -2   5   4   81.34    1.89 
   2   5  -4   79.42    1.95 
   1  -5  -4   42.30    1.03 
  -1  -5   4   43.72    1.08 
   1  -5  -4   43.38    1.03 
   1   5  -4   43.41    1.06 
  -1   5   4   43.80    1.05 
  -1   5   4   41.95    1.11 
   1   5  -4   45.20    1.08 
   1   5  -4   43.28    1.15 
   0  -5  -4   25.95    0.66 
   0  -5  -4   25.97    0.65 
   0   5   4   26.74    0.69 
   0   5  -4   26.73    0.70 
   0   5  -4   26.60    0.75 
   0   5   4   26.82    0.76 
   0   5  -4   27.87    0.70 
  -1  -5  -4    5.13    0.20 
   1  -5   4    5.22    0.22 
  -1  -5  -4    5.00    0.18 
   1   5   4    5.40    0.22 
  -1   5  -4    4.93    0.23 
  -1   5  -4    5.06    0.19 
   1   5   4    5.32    0.26 
  -2  -5  -4   11.44    0.31 
   2  -5   4   11.22    0.36 
  -2  -5  -4   11.11    0.35 
  -2   5  -4   12.09    0.38 
   2   5   4   11.10    0.44 
   2   5   4   12.00    0.37 
  -2   5  -4   10.97    0.36 
  -3  -5  -4    6.81    0.26 
   3  -5   4    6.47    0.25 
   3   5   4    7.21    0.34 
  -3   5  -4    6.71    0.27 
  -3   5  -4    6.51    0.26 
   4  -5   4    8.50    0.31 
  -4  -5  -4    8.74    0.32 
   4   5   4    8.30    0.40 
  -4   5  -4    8.08    0.30 
   5  -5   4    3.69    0.19 
  -5  -5  -4    3.31    0.21 
   5   5   4    3.22    0.27 
  -5   5  -4    3.24    0.19 
  -6  -5  -4    3.99    0.24 
   6   5   4    4.17    0.33 
  -7  -5  -4    1.06    0.15 
   7   5   4    0.80    0.19 
  -7  -6   4    4.81    0.28 
   7   6  -4    4.42    0.39 
  -7   6   4    4.40    0.31 
  -6  -6   4    7.52    0.34 
   6  -6  -4    8.05    0.29 
  -6   6   4    7.88    0.39 
   6   6  -4    8.13    0.48 
  -5  -6   4    8.41    0.35 
   5  -6  -4    8.93    0.31 
   5   6  -4    9.21    0.47 
  -5   6   4    8.77    0.40 
  -4  -6   4    5.35    0.26 
   4  -6  -4    5.73    0.23 
   4   6  -4    5.34    0.34 
  -4   6   4    5.30    0.28 
   3  -6  -4    2.21    0.13 
  -3  -6   4    2.42    0.17 
  -3   6   4    2.68    0.20 
  -3   6   4    2.52    0.13 
   3   6  -4    2.49    0.22 
   2  -6  -4   25.55    0.68 
  -2  -6   4   26.87    0.73 
  -2   6   4   27.16    0.69 
  -2   6   4   26.11    0.77 
   2   6  -4   25.08    0.72 
   2   6  -4   25.36    0.81 
   2   6  -4   27.30    0.69 
   1  -6  -4   14.80    0.42 
  -1  -6   4   14.41    0.46 
   1   6  -4   14.23    0.45 
  -1   6   4   14.65    0.43 
  -1   6   4   14.58    0.49 
   1   6  -4   14.20    0.51 
   1   6  -4   14.64    0.43 
   0  -6  -4   36.74    0.90 
   0  -6  -4   35.59    0.91 
   0  -6   4   37.05    0.95 
   0   6  -4   37.41    1.00 
   0   6   4   33.63    1.00 
   0   6  -4   36.40    0.93 
   0   6   4   38.21    0.93 
   0   6  -4   36.50    0.93 
   1  -6   4    2.93    0.17 
  -1  -6  -4    3.12    0.16 
  -1  -6  -4    2.82    0.14 
   1   6   4    2.94    0.17 
  -1   6  -4    2.87    0.15 
  -1   6  -4    3.09    0.20 
  -1   6  -4    2.86    0.16 
   1   6   4    3.02    0.21 
  -2  -6  -4   14.92    0.46 
  -2  -6  -4   15.19    0.41 
   2  -6   4   15.31    0.47 
  -2   6  -4   11.70    0.39 
  -2   6  -4   14.71    0.44 
   2   6   4   15.18    0.54 
  -2   6  -4   15.32    0.47 
   3  -6   4    1.60    0.14 
  -3  -6  -4    1.78    0.14 
  -3   6  -4    1.38    0.14 
  -3   6  -4    2.15    0.16 
   3   6   4    1.88    0.19 
  -4  -6  -4    2.06    0.16 
   4  -6   4    2.08    0.16 
   4   6   4    2.04    0.22 
  -4   6  -4    2.12    0.16 
   5  -6   4    5.91    0.27 
  -5  -6  -4    6.20    0.29 
  -5   6  -4    6.01    0.27 
   5   6   4    6.52    0.39 
  -6  -6  -4    5.29    0.28 
   6   6   4    5.17    0.38 
  -7  -6  -4    0.08    0.10 
   7   6   4    0.28    0.15 
  -7  -7   4    2.60    0.24 
   7   7  -4    3.92    0.47 
  -7   7   4    2.69    0.28 
   6  -7  -4   13.13    0.44 
  -6  -7   4   14.55    0.51 
  -6   7   4   13.03    0.54 
   6   7  -4   12.55    0.63 
   5  -7  -4   12.65    0.41 
  -5  -7   4   12.65    0.47 
  -5   7   4   12.09    0.51 
   5   7  -4   12.45    0.59 
  -4  -7   4    2.36    0.19 
   4  -7  -4    2.11    0.15 
  -4   7   4    2.39    0.21 
   4   7  -4    2.11    0.26 
   3  -7  -4   15.27    0.49 
  -3  -7   4   19.20    0.57 
  -3   7   4   15.49    0.46 
   3   7  -4   16.11    0.63 
  -3   7   4   15.08    0.55 
   2  -7  -4   29.67    0.79 
  -2  -7   4   31.01    0.85 
   2   7  -4   30.49    0.93 
  -2   7   4   25.42    0.76 
   2   7  -4   29.42    0.77 
   2   7  -4   30.55    0.82 
  -2   7   4   30.73    0.88 
   1  -7  -4    5.27    0.22 
  -1  -7   4    4.92    0.25 
  -1   7   4    5.48    0.23 
   1   7  -4    5.37    0.25 
  -1   7   4    5.41    0.29 
   1   7  -4    5.10    0.23 
   1   7  -4    4.60    0.29 
   0  -7   4   12.32    0.43 
   0  -7  -4   12.42    0.40 
   0  -7  -4   12.43    0.38 
   0   7   4   12.84    0.49 
   0   7   4   12.75    0.41 
   0   7  -4   12.66    0.42 
   0   7  -4   11.91    0.41 
   0   7  -4   12.00    0.47 
   1  -7   4    8.32    0.33 
  -1  -7  -4    9.32    0.33 
  -1  -7  -4    9.25    0.30 
  -1   7  -4    9.04    0.33 
  -1   7  -4    9.16    0.37 
   1   7   4    8.70    0.40 
   1   7   4    8.09    0.33 
  -1   7  -4    9.04    0.32 
  -2  -7  -4    4.37    0.22 
   2  -7   4    4.43    0.23 
  -2   7  -4    4.22    0.24 
  -2   7  -4    3.93    0.21 
   2   7   4    4.03    0.28 
  -2   7  -4    3.82    0.19 
  -3  -7  -4    0.14    0.08 
   3  -7   4    0.17    0.08 
  -3   7  -4    0.19    0.09 
  -3   7  -4    0.29    0.09 
   3   7   4    0.09    0.10 
  -4  -7  -4    6.59    0.31 
   4  -7   4    7.23    0.31 
  -4   7  -4    7.71    0.32 
   4   7   4    7.57    0.43 
  -5  -7  -4    2.64    0.21 
  -5   7  -4    2.09    0.19 
   5   7   4    2.82    0.28 
  -6  -7  -4    1.42    0.19 
   6   7   4    1.18    0.22 
  -5  -8   4    0.00    0.10 
   5  -8  -4   -0.05    0.07 
  -5   8   4    0.05    0.11 
   5   8  -4    0.16    0.14 
   4  -8  -4    0.03    0.07 
  -4  -8   4    0.02    0.09 
  -4   8   4    0.12    0.09 
   4   8  -4    0.00    0.11 
   3  -8  -4   13.83    0.45 
  -3  -8   4   14.12    0.51 
   3   8  -4   13.98    0.61 
  -3   8   4   14.00    0.55 
  -3   8   4   14.16    0.45 
  -2  -8   4    5.73    0.30 
   2  -8  -4    6.56    0.27 
  -2   8   4    6.10    0.26 
   2   8  -4    5.71    0.26 
   2   8  -4    5.89    0.29 
   2   8  -4    6.26    0.37 
  -2   8   4    6.36    0.34 
  -1  -8   4    2.31    0.19 
   1  -8  -4    2.23    0.16 
   1   8  -4    2.44    0.17 
   1   8  -4    2.65    0.19 
   1   8  -4    2.20    0.23 
  -1   8   4    2.44    0.21 
  -1   8   4    2.71    0.19 
   0  -8  -4    8.75    0.31 
   0  -8   4    8.99    0.37 
   0   8   4    8.43    0.35 
   0   8  -4    9.01    0.34 
   0   8   4    8.72    0.41 
   0   8  -4   10.33    0.44 
   0   8  -4    8.30    0.35 
  -1  -8  -4    5.94    0.28 
   1  -8   4    6.00    0.29 
  -1  -8  -4    6.27    0.25 
  -1   8  -4    6.54    0.33 
   1   8   4    6.81    0.30 
   1   8   4    6.29    0.36 
  -1   8  -4    5.95    0.28 
  -1   8  -4    6.15    0.27 
  -2  -8  -4    0.94    0.13 
   2  -8   4    0.94    0.14 
   2   8   4    0.98    0.18 
  -2   8  -4    1.02    0.13 
  -2   8  -4    0.86    0.14 
  -2   8  -4    0.96    0.12 
   3  -8   4    0.59    0.11 
  -3  -8  -4    0.50    0.11 
  -3   8  -4    0.61    0.11 
  -3   8  -4    0.56    0.09 
   3   8   4    0.84    0.19 
  -4  -8  -4    0.61    0.12 
  -4   8  -4    0.66    0.13 
   4   8   4    0.65    0.17 
  -5  -8  -4    1.78    0.21 
  -5   8  -4    1.19    0.16 
   5   8   4    1.01    0.22 
  -4  -9   4    1.32    0.18 
   4  -9  -4    1.53    0.16 
  -4   9   4    1.57    0.23 
   4   9  -4    1.43    0.26 
   3  -9  -4   14.18    0.48 
  -3  -9   4   14.52    0.54 
  -3   9   4   14.41    0.59 
   3   9  -4   14.94    0.65 
  -3   9   4   14.23    0.48 
  -2  -9   4   10.19    0.44 
   2  -9  -4   11.19    0.39 
   2   9  -4   10.81    0.52 
  -2   9   4   10.15    0.48 
  -2   9   4   10.04    0.38 
   1  -9  -4   12.96    0.43 
  -1  -9   4   13.12    0.49 
   1   9  -4   13.74    0.58 
  -1   9   4   12.03    0.53 
   1   9  -4   12.33    0.44 
   1   9  -4   12.73    0.47 
  -1   9   4   13.91    0.47 
   0  -9   4    8.56    0.38 
   0  -9  -4    8.71    0.33 
   0   9  -4    9.21    0.36 
   0   9   4    8.56    0.44 
   0   9   4    8.82    0.37 
   0   9  -4    8.75    0.37 
   0   9  -4    8.79    0.43 
  -1  -9  -4    2.05    0.15 
   1  -9   4    1.85    0.19 
   1   9   4    2.06    0.23 
  -1   9  -4    1.79    0.21 
  -1   9  -4    1.91    0.17 
  -1   9  -4    1.68    0.17 
   2  -9   4    1.94    0.20 
   2   9   4    1.63    0.25 
  -2   9  -4    1.73    0.17 
  -2   9  -4    1.51    0.15 
  -3  -9  -4    7.96    0.36 
  -3   9  -4    7.19    0.30 
  -3   9  -4    7.66    0.35 
   3   9   4    6.78    0.43 
   9   0  -5    5.17    0.42 
  -9   0   5    4.87    0.40 
  -8   0   5    1.17    0.22 
   8   0  -5    1.31    0.23 
   7   0  -5   19.65    0.73 
  -7   0   5   20.57    0.72 
   6   0  -5    3.02    0.24 
  -6   0   5    2.78    0.24 
  -5   0   5    0.10    0.03 
   5   0  -5   -0.03    0.05 
  -5   0   5    0.03    0.07 
   4   0  -5   16.57    0.52 
  -4   0   5   17.24    0.42 
  -4   0   5   16.22    0.52 
   4   0  -5   16.74    0.40 
  -3   0   5   13.62    0.33 
  -3   0   5   12.58    0.41 
   3   0  -5   13.13    0.40 
   3   0  -5   13.20    0.32 
   2   0  -5  213.22    4.73 
   2   0  -5  206.17    4.79 
  -2   0   5  209.76    4.81 
  -2   0   5  227.54    4.75 
  -1   0   5   34.47    0.84 
   1   0  -5   33.88    0.80 
   1   0  -5   34.39    0.78 
   0   0  -5   10.81    0.26 
   0   0  -5   10.69    0.27 
   0   0   5   10.60    0.31 
  -1   0  -5  158.38    3.55 
  -1   0  -5  162.50    3.53 
   1   0   5  156.00    3.59 
  -2   0  -5   30.66    0.75 
  -2   0  -5   31.30    0.72 
   2   0   5   30.54    0.80 
   2   0   5   30.06    0.75 
   3   0   5    2.65    0.13 
  -3   0  -5    2.52    0.13 
   3   0   5    2.67    0.17 
  -3   0  -5    2.51    0.10 
  -4   0  -5   16.82    0.49 
   4   0   5   17.80    0.51 
   4   0   5   17.52    0.57 
  -5   0  -5    1.18    0.12 
   5   0   5    1.32    0.17 
   6   0   5    3.43    0.27 
  -6   0  -5    3.05    0.19 
   7   0   5    0.37    0.15 
  -7   0  -5    0.56    0.12 
  -8   0  -5   -0.05    0.09 
   8   0   5    0.06    0.12 
   9  -1  -5    0.26    0.17 
  -9  -1   5   -0.10    0.13 
  -9   1   5   -0.03    0.15 
   9   1  -5   -0.10    0.15 
   8  -1  -5    3.30    0.32 
  -8  -1   5    3.59    0.32 
  -8   1   5    3.78    0.33 
   8   1  -5    3.46    0.33 
   7  -1  -5   18.66    0.69 
  -7  -1   5   19.36    0.70 
   7   1  -5   19.33    0.73 
  -7   1   5   19.11    0.70 
  -6  -1   5    2.32    0.22 
   6  -1  -5    2.42    0.20 
  -6  -1   5    2.47    0.13 
  -6   1   5    2.21    0.21 
   6   1  -5    2.45    0.22 
   5  -1  -5    6.66    0.19 
  -5  -1   5    6.25    0.21 
   5  -1  -5    6.16    0.29 
  -5  -1   5    5.72    0.29 
  -5   1   5    5.81    0.30 
   5   1  -5    5.83    0.30 
  -4  -1   5    2.38    0.17 
  -4  -1   5    2.47    0.11 
   4  -1  -5    2.45    0.15 
   4  -1  -5    2.27    0.09 
  -4   1   5    2.38    0.09 
  -4   1   5    2.61    0.17 
   4   1  -5    2.48    0.18 
   4   1  -5    2.26    0.08 
  -3  -1   5   51.26    1.27 
  -3  -1   5   52.69    1.20 
   3  -1  -5   52.04    1.18 
   3   1  -5   50.83    1.28 
  -3   1   5   51.19    1.23 
   3   1  -5   51.97    1.16 
  -3   1   5   51.17    1.27 
  -2  -1   5   61.29    1.38 
  -2  -1   5   59.38    1.43 
   2  -1  -5   60.86    1.37 
  -2   1   5   59.14    1.42 
  -2   1   5   60.64    1.39 
   2   1  -5   60.12    1.34 
   2   1  -5   58.56    1.40 
   2   1  -5   59.59    1.42 
   1  -1  -5   72.22    1.65 
  -1  -1   5   73.37    1.66 
  -1  -1   5   74.55    1.69 
  -1   1   5   75.40    1.73 
   1   1  -5   74.18    1.71 
   1   1  -5   74.43    1.70 
   1   1  -5   74.68    1.67 
  -1   1   5   74.13    1.70 
   0  -1  -5   59.00    1.31 
   0  -1  -5   58.29    1.31 
   0  -1   5   57.35    1.35 
   0   1  -5   58.00    1.31 
   0   1  -5   57.37    1.31 
   0   1   5   58.07    1.35 
   0   1   5   56.71    1.31 
  -1  -1  -5   59.75    1.37 
  -1  -1  -5   60.29    1.34 
   1  -1   5   59.27    1.40 
  -1   1  -5   58.39    1.35 
   1   1   5   56.96    1.34 
  -1   1  -5   60.22    1.34 
   1   1   5   58.63    1.39 
  -2  -1  -5  100.61    2.28 
   2  -1   5  103.83    2.38 
  -2  -1  -5  102.78    2.32 
   2   1   5  100.12    2.35 
  -2   1  -5  102.84    2.27 
   2   1   5  100.14    2.30 
  -2   1  -5  100.33    2.30 
   3  -1   5    0.84    0.08 
   3  -1   5    0.90    0.11 
  -3  -1  -5    0.86    0.05 
  -3  -1  -5    0.89    0.08 
  -3   1  -5    0.98    0.07 
  -3   1  -5    0.85    0.08 
   3   1   5    0.92    0.09 
   3   1   5    0.90    0.12 
   4  -1   5   15.80    0.47 
  -4  -1  -5   15.84    0.46 
   4  -1   5   16.06    0.53 
  -4   1  -5   16.05    0.46 
   4   1   5   15.23    0.52 
  -4   1  -5   15.87    0.42 
   4   1   5   15.73    0.49 
   5  -1   5   63.39    1.64 
  -5  -1  -5   63.11    1.54 
   5   1   5   63.81    1.60 
  -5   1  -5   63.05    1.54 
   5   1   5   64.14    1.65 
   6  -1   5   15.83    0.60 
  -6  -1  -5   14.52    0.48 
  -6   1  -5   15.32    0.49 
   6   1   5   15.71    0.60 
  -7  -1  -5    0.39    0.11 
   7  -1   5    0.41    0.15 
  -7   1  -5    0.35    0.09 
   7   1   5    0.41    0.16 
   8  -1   5    2.22    0.30 
  -8  -1  -5    1.99    0.21 
   8   1   5    1.63    0.25 
  -8   1  -5    2.05    0.20 
  -9  -2   5   13.20    0.62 
   9  -2  -5   10.82    0.59 
  -9   2   5   13.05    0.65 
   9   2  -5   13.82    0.68 
  -8  -2   5    2.05    0.26 
   8  -2  -5    2.88    0.29 
   8   2  -5    2.51    0.30 
  -8   2   5    2.00    0.27 
  -7  -2   5    5.37    0.34 
  -7  -2   5    5.05    0.22 
   7  -2  -5    4.89    0.32 
   7   2  -5    5.34    0.36 
  -7   2   5    4.81    0.34 
  -6  -2   5    3.98    0.18 
   6  -2  -5    4.62    0.26 
  -6  -2   5    4.03    0.27 
  -6   2   5    4.33    0.29 
   6   2  -5    4.33    0.30 
  -5  -2   5   23.44    0.61 
  -5  -2   5   23.10    0.70 
   5  -2  -5   23.19    0.69 
   5  -2  -5   23.46    0.57 
   5   2  -5   23.71    0.76 
  -5   2   5   23.35    0.73 
   4  -2  -5   22.11    0.53 
  -4  -2   5   20.87    0.63 
  -4  -2   5   22.21    0.57 
  -4   2   5   21.59    0.64 
   4   2  -5   20.92    0.66 
  -4   2   5   21.70    0.61 
  -3  -2   5   13.78    0.37 
   3  -2  -5   13.35    0.34 
  -3  -2   5   13.36    0.41 
   3   2  -5   13.38    0.44 
   3   2  -5   13.39    0.38 
  -3   2   5   13.08    0.40 
   3   2  -5   13.00    0.33 
  -3   2   5   13.06    0.42 
   2  -2  -5    6.48    0.19 
  -2  -2   5    6.76    0.23 
  -2  -2   5    6.08    0.21 
  -2   2   5    6.59    0.25 
  -2   2   5    6.63    0.23 
   2   2  -5    6.86    0.22 
   2   2  -5    6.76    0.19 
   2   2  -5    6.60    0.26 
   1  -2  -5   21.27    0.51 
  -1  -2   5   20.88    0.53 
  -1  -2   5   21.76    0.54 
  -1   2   5   20.93    0.54 
   1   2  -5   21.95    0.57 
  -1   2   5   21.15    0.56 
   1   2  -5   20.89    0.52 
   1   2  -5   21.39    0.54 
   0  -2   5   53.29    1.23 
   0  -2   5   53.93    1.24 
   0  -2  -5   52.76    1.21 
   0  -2  -5   53.70    1.21 
   0   2   5   53.53    1.23 
   0   2  -5   51.89    1.21 
   0   2  -5   53.52    1.21 
   0   2   5   51.97    1.25 
   0   2  -5   52.04    1.22 
   1  -2   5   21.11    0.55 
  -1  -2  -5   21.62    0.50 
  -1  -2  -5   20.87    0.52 
  -1   2  -5   21.52    0.54 
   1   2   5   21.31    0.56 
  -1   2  -5   21.63    0.52 
  -1   2  -5   20.93    0.54 
   1   2   5   21.53    0.58 
  -2  -2  -5   25.44    0.59 
  -2  -2  -5   25.42    0.63 
   2  -2   5   25.44    0.67 
   2   2   5   24.72    0.68 
   2   2   5   24.88    0.66 
  -2   2  -5   24.85    0.63 
  -2   2  -5   25.27    0.60 
  -2   2  -5   25.26    0.62 
  -3  -2  -5    0.76    0.08 
  -3  -2  -5    0.74    0.04 
   3  -2   5    0.74    0.11 
  -3   2  -5    0.72    0.08 
  -3   2  -5    0.67    0.07 
   3   2   5    0.73    0.10 
   3   2   5    0.66    0.10 
  -3   2  -5    0.68    0.06 
   4  -2   5    7.38    0.32 
  -4  -2  -5    7.49    0.27 
   4  -2   5    7.51    0.30 
  -4   2  -5    7.85    0.28 
   4   2   5    7.79    0.34 
   4   2   5    7.55    0.31 
  -4   2  -5    7.41    0.24 
  -5  -2  -5   29.36    0.79 
   5  -2   5   28.71    0.87 
  -5   2  -5   29.20    0.78 
   5   2   5   28.91    0.85 
   5   2   5   29.45    0.88 
  -6  -2  -5    2.34    0.18 
   6  -2   5    2.14    0.23 
  -6   2  -5    2.86    0.19 
   6   2   5    2.41    0.24 
  -7  -2  -5    2.88    0.22 
   7  -2   5    3.56    0.31 
  -7   2  -5    3.47    0.22 
   7   2   5    3.51    0.30 
   8  -2   5    2.42    0.31 
  -8  -2  -5    2.10    0.22 
   8   2   5    2.51    0.31 
  -8   2  -5    2.41    0.21 
  -9  -3   5   13.34    0.63 
   9  -3  -5   10.98    0.59 
  -9   3   5   12.36    0.62 
   9   3  -5   12.00    0.66 
  -8  -3   5    1.45    0.23 
  -8  -3   5    2.11    0.17 
   8  -3  -5    1.73    0.25 
   8   3  -5    1.81    0.28 
  -8   3   5    1.89    0.26 
  -7  -3   5   17.16    0.52 
  -7  -3   5   17.97    0.65 
   7  -3  -5   16.40    0.62 
   7   3  -5   17.11    0.71 
  -7   3   5   18.20    0.68 
  -6  -3   5   17.32    0.61 
   6  -3  -5   17.88    0.60 
  -6  -3   5   17.15    0.51 
   6   3  -5   17.50    0.67 
  -6   3   5   17.34    0.62 
  -5  -3   5   17.36    0.57 
  -5  -3   5   17.62    0.50 
   5  -3  -5   17.49    0.46 
  -5   3   5   17.53    0.56 
  -5   3   5   17.46    0.59 
   5   3  -5   17.82    0.64 
  -4  -3   5    0.96    0.09 
   4  -3  -5    0.98    0.07 
  -4  -3   5    0.90    0.12 
   4   3  -5    0.91    0.14 
  -4   3   5    0.92    0.10 
  -4   3   5    1.08    0.13 
  -3  -3   5    5.48    0.22 
  -3  -3   5    5.46    0.20 
   3  -3  -5    5.14    0.17 
   3   3  -5    5.24    0.17 
  -3   3   5    5.73    0.23 
   3   3  -5    5.67    0.21 
   3   3  -5    5.06    0.26 
  -3   3   5    5.11    0.23 
  -2  -3   5    3.00    0.14 
   2  -3  -5    2.99    0.12 
  -2  -3   5    2.90    0.13 
   2   3  -5    2.77    0.14 
  -2   3   5    2.99    0.16 
   2   3  -5    2.88    0.12 
  -2   3   5    2.71    0.15 
   2   3  -5    2.93    0.18 
   1  -3  -5  104.97    2.30 
   1  -3  -5  101.56    2.32 
  -1  -3   5  102.28    2.35 
   1   3  -5  105.71    2.37 
  -1   3   5  107.75    2.41 
   1   3  -5  101.03    2.43 
   1   3  -5  105.12    2.39 
  -1   3   5  104.32    2.41 
   0  -3  -5    5.34    0.16 
   0  -3   5    5.27    0.19 
   0  -3  -5    5.32    0.16 
   0   3   5    5.25    0.21 
   0   3   5    5.43    0.21 
   0   3  -5    5.63    0.19 
   0   3  -5    5.20    0.18 
   0   3  -5    5.50    0.20 
  -1  -3  -5   49.16    1.16 
   1  -3   5   50.65    1.18 
   1  -3   5   49.95    1.18 
  -1  -3  -5   49.75    1.14 
   1   3   5   48.32    1.19 
  -1   3  -5   49.25    1.15 
   1   3   5   48.77    1.19 
  -1   3  -5   48.53    1.15 
  -2  -3  -5   11.49    0.34 
  -2  -3  -5   11.56    0.30 
   2  -3   5   12.30    0.37 
   2   3   5   11.53    0.38 
  -2   3  -5   11.27    0.32 
  -2   3  -5   11.47    0.34 
   2   3   5   11.16    0.38 
  -2   3  -5   11.86    0.34 
  -3  -3  -5    4.39    0.19 
   3  -3   5    4.71    0.22 
   3   3   5    4.37    0.23 
   3   3   5    4.57    0.23 
  -3   3  -5    4.68    0.19 
  -3   3  -5    4.69    0.19 
  -3   3  -5    4.57    0.18 
  -4  -3  -5   35.66    0.91 
   4  -3   5   35.27    0.97 
  -4   3  -5   35.51    0.91 
   4   3   5   35.49    0.99 
   4   3   5   35.63    0.99 
  -4   3  -5   35.87    0.89 
   5  -3   5   26.53    0.81 
  -5  -3  -5   26.14    0.73 
  -5   3  -5   26.74    0.74 
   5   3   5   28.03    0.84 
   5   3   5   26.26    0.83 
  -6  -3  -5    1.47    0.16 
   6  -3   5    1.25    0.19 
  -6   3  -5    1.31    0.14 
   6   3   5    1.03    0.18 
   7  -3   5    0.41    0.15 
  -7  -3  -5    0.55    0.13 
  -7   3  -5    0.61    0.11 
   7   3   5    0.71    0.18 
   8  -3   5    3.19    0.34 
  -8  -3  -5    3.91    0.28 
   8   3   5    3.60    0.36 
   8  -4  -5    6.04    0.39 
  -8  -4   5    5.72    0.29 
  -8   4   5    5.40    0.40 
   8   4  -5    6.49    0.46 
  -7  -4   5    3.76    0.22 
   7  -4  -5    3.85    0.28 
  -7   4   5    3.71    0.30 
   7   4  -5    4.11    0.34 
  -6  -4   5   14.87    0.47 
   6  -4  -5   13.86    0.40 
  -6  -4   5   14.79    0.54 
  -6   4   5   14.26    0.52 
  -6   4   5   14.37    0.56 
   6   4  -5   15.06    0.62 
   5  -4  -5   66.81    1.54 
  -5  -4   5   65.98    1.65 
  -5  -4   5   64.91    1.59 
   5   4  -5   65.02    1.76 
  -5   4   5   65.52    1.66 
  -5   4   5   67.15    1.69 
   4  -4  -5    9.33    0.28 
  -4  -4   5    9.23    0.32 
  -4  -4   5    9.41    0.35 
   4   4  -5    8.98    0.41 
  -4   4   5    8.56    0.35 
  -4   4   5    8.92    0.34 
   3  -4  -5   34.26    0.85 
  -3  -4   5   36.09    0.90 
  -3   4   5   35.36    0.94 
   3   4  -5   34.77    1.00 
   3   4  -5   36.88    0.92 
  -3   4   5   35.60    0.94 
   3   4  -5   36.37    0.86 
  -2  -4   5   24.20    0.65 
   2  -4  -5   24.34    0.61 
   2   4  -5   24.93    0.65 
   2   4  -5   24.30    0.62 
   2   4  -5   24.04    0.71 
  -2   4   5   24.26    0.67 
  -2   4   5   24.59    0.67 
   1  -4  -5   15.72    0.41 
   1  -4  -5   15.34    0.39 
  -1   4   5   16.17    0.44 
   1   4  -5   16.20    0.44 
   1   4  -5   16.65    0.51 
  -1   4   5   16.35    0.48 
  -1   4   5   16.31    0.47 
   1   4  -5   16.09    0.46 
   0  -4   5   80.09    1.85 
   0  -4  -5   77.43    1.81 
   0  -4  -5   80.43    1.81 
   0   4   5   80.81    1.92 
   0   4   5   81.16    1.88 
   0   4   5   80.92    1.86 
   0   4  -5   81.52    1.86 
   0   4  -5   78.46    1.90 
   0   4  -5   80.32    1.87 
  -1  -4  -5    7.80    0.23 
  -1  -4  -5    7.68    0.24 
   1  -4   5    7.58    0.26 
  -1   4  -5    7.63    0.27 
  -1   4  -5    7.50    0.24 
   1   4   5    8.11    0.31 
   1   4   5    8.18    0.28 
  -1   4  -5    7.71    0.26 
   1   4   5    7.72    0.26 
   2  -4   5   11.28    0.35 
  -2  -4  -5   10.79    0.34 
   2  -4   5   11.80    0.35 
  -2  -4  -5   11.44    0.30 
  -2   4  -5   10.98    0.34 
  -2   4  -5   10.80    0.34 
   2   4   5   11.49    0.40 
   2   4   5   11.00    0.37 
   3  -4   5    6.34    0.26 
  -3  -4  -5    5.97    0.23 
   3   4   5    5.99    0.27 
  -3   4  -5    5.65    0.23 
  -3   4  -5    6.10    0.23 
  -3   4  -5    5.91    0.24 
   3   4   5    5.94    0.29 
  -4  -4  -5   20.29    0.59 
   4  -4   5   20.87    0.63 
  -4   4  -5   19.87    0.58 
   4   4   5   20.21    0.64 
   4   4   5   20.84    0.67 
  -4   4  -5   20.43    0.57 
  -5  -4  -5   12.11    0.42 
   5  -4   5   12.37    0.48 
   5   4   5   12.15    0.51 
   5   4   5   12.81    0.50 
  -5   4  -5   12.62    0.40 
   6  -4   5    2.84    0.26 
  -6  -4  -5    2.59    0.21 
   6   4   5    2.69    0.25 
  -6   4  -5    2.89    0.19 
   6   4   5    2.70    0.26 
   7  -4   5    6.16    0.39 
  -7  -4  -5    5.88    0.31 
   7   4   5    5.46    0.38 
  -7   4  -5    5.65    0.32 
  -8  -4  -5    6.40    0.36 
   8  -4   5    6.96    0.44 
   8   4   5    6.08    0.44 
   8  -5  -5    2.38    0.27 
  -8  -5   5    3.05    0.23 
   8   5  -5    2.69    0.36 
  -7  -5   5    0.26    0.10 
   7   5  -5    0.14    0.15 
  -7   5   5    0.22    0.11 
   6  -5  -5   13.35    0.40 
  -6  -5   5   13.12    0.45 
  -6   5   5   13.48    0.52 
  -6   5   5   13.54    0.57 
   6   5  -5   13.78    0.61 
  -5  -5   5    7.79    0.31 
   5  -5  -5    7.44    0.26 
  -5   5   5    7.00    0.34 
  -5   5   5    7.71    0.37 
   5   5  -5    7.32    0.42 
   4  -5  -5   11.96    0.35 
  -4  -5   5   11.46    0.40 
  -4   5   5   11.02    0.46 
   4   5  -5   11.54    0.50 
  -4   5   5   11.89    0.44 
   3  -5  -5    6.88    0.24 
  -3  -5   5    6.83    0.27 
   3   5  -5    6.38    0.27 
  -3   5   5    6.19    0.28 
   3   5  -5    6.73    0.22 
   3   5  -5    6.59    0.34 
  -2  -5   5   10.56    0.36 
   2  -5  -5   10.41    0.31 
  -2   5   5   10.48    0.32 
   2   5  -5   10.52    0.42 
  -2   5   5   10.63    0.38 
   2   5  -5   10.58    0.36 
   2   5  -5   10.74    0.33 
   1  -5  -5   10.84    0.31 
  -1  -5   5   11.66    0.37 
   1  -5  -5   11.37    0.33 
  -1   5   5   11.71    0.35 
  -1   5   5   11.05    0.39 
   1   5  -5   11.38    0.36 
   1   5  -5   11.70    0.35 
   1   5  -5   11.18    0.41 
   0  -5  -5   14.20    0.39 
   0  -5  -5   14.13    0.39 
   0  -5   5   14.05    0.43 
   0   5  -5   14.25    0.41 
   0   5  -5   13.81    0.42 
   0   5   5   14.83    0.48 
   0   5  -5   13.69    0.45 
   0   5   5   13.94    0.41 
  -1  -5  -5   22.61    0.57 
  -1  -5  -5   20.90    0.55 
   1  -5   5   21.39    0.60 
  -1   5  -5   21.26    0.55 
   1   5   5   20.38    0.63 
  -1   5  -5   20.91    0.59 
   1   5   5   20.54    0.57 
   2  -5   5   12.58    0.39 
  -2  -5  -5   12.00    0.33 
  -2  -5  -5   11.75    0.37 
  -2   5  -5   12.07    0.39 
  -2   5  -5   12.43    0.39 
   2   5   5   12.11    0.45 
   3  -5   5   19.81    0.56 
  -3  -5  -5   19.85    0.56 
  -3   5  -5   19.53    0.56 
   3   5   5   19.58    0.65 
  -4  -5  -5    4.15    0.22 
   4  -5   5    4.36    0.21 
   4   5   5    4.35    0.28 
  -4   5  -5    4.58    0.22 
  -5  -5  -5   19.07    0.57 
   5  -5   5   17.99    0.55 
  -5   5  -5   19.31    0.56 
   5   5   5   18.64    0.69 
  -6  -5  -5    3.06    0.22 
  -6   5  -5    3.23    0.21 
   6   5   5    3.47    0.30 
  -7  -5  -5    0.07    0.10 
  -7  -6   5    3.63    0.24 
   7   6  -5    3.69    0.38 
  -7   6   5    3.42    0.28 
   6  -6  -5    1.21    0.13 
  -6  -6   5    1.19    0.16 
   6   6  -5    1.11    0.22 
  -6   6   5    1.24    0.19 
  -5  -6   5    0.16    0.08 
   5  -6  -5    0.15    0.06 
   5   6  -5    0.43    0.15 
  -5   6   5    0.34    0.11 
   4  -6  -5    4.35    0.20 
  -4  -6   5    4.81    0.25 
  -4   6   5    4.41    0.26 
   4   6  -5    3.70    0.30 
   3  -6  -5   38.36    0.95 
  -3  -6   5   37.33    1.00 
   3   6  -5   39.35    1.12 
   3   6  -5   39.02    1.13 
   3   6  -5   37.97    0.96 
  -3   6   5   38.12    1.06 
   2  -6  -5   29.47    0.75 
  -2  -6   5   28.87    0.80 
   2   6  -5   28.56    0.87 
   2   6  -5   28.37    0.78 
   2   6  -5   28.46    0.74 
  -2   6   5   28.94    0.83 
  -2   6   5   28.52    0.74 
   1  -6  -5    1.64    0.11 
  -1  -6   5    1.24    0.13 
   1   6  -5    1.48    0.16 
   1   6  -5    1.60    0.13 
  -1   6   5    1.32    0.14 
   1   6  -5    1.35    0.11 
  -1   6   5    1.41    0.12 
   0  -6  -5    2.66    0.14 
   0  -6   5    2.70    0.16 
   0  -6  -5    2.75    0.14 
   0   6   5    2.75    0.16 
   0   6   5    2.80    0.20 
   0   6  -5    2.72    0.16 
   0   6  -5    2.76    0.19 
   0   6  -5    2.68    0.16 
  -1  -6  -5    6.92    0.23 
   1  -6   5    6.89    0.28 
  -1  -6  -5    6.57    0.25 
   1   6   5    6.97    0.28 
  -1   6  -5    7.12    0.27 
  -1   6  -5    7.11    0.30 
   1   6   5    7.46    0.34 
  -1   6  -5    7.19    0.26 
   2  -6   5    2.57    0.17 
  -2  -6  -5    2.54    0.13 
  -2  -6  -5    2.56    0.15 
  -2   6  -5    2.39    0.16 
   2   6   5    2.67    0.22 
  -2   6  -5    2.41    0.14 
  -2   6  -5    2.74    0.18 
   3  -6   5   13.07    0.43 
  -3  -6  -5   12.78    0.42 
  -3   6  -5   12.62    0.42 
   3   6   5   13.07    0.52 
  -4  -6  -5   23.72    0.70 
   4  -6   5   25.44    0.70 
   4   6   5   26.18    0.85 
  -4   6  -5   24.66    0.71 
   5  -6   5    1.62    0.15 
  -5  -6  -5    2.18    0.19 
  -5   6  -5    1.39    0.15 
   5   6   5    1.84    0.23 
  -6  -6  -5    6.51    0.33 
   6   6   5    5.98    0.40 
  -7  -7   5    3.70    0.28 
  -6  -7   5    2.51    0.22 
   6  -7  -5    2.25    0.17 
  -6   7   5    1.99    0.24 
   6   7  -5    2.43    0.31 
  -5  -7   5   -0.09    0.07 
   5  -7  -5    0.06    0.06 
   5   7  -5    0.03    0.12 
  -5   7   5    0.01    0.09 
  -4  -7   5    5.78    0.29 
   4  -7  -5    5.28    0.24 
   4   7  -5    5.74    0.38 
  -4   7   5    5.85    0.33 
  -3  -7   5    3.61    0.22 
   3  -7  -5    3.35    0.18 
  -3   7   5    3.61    0.25 
   3   7  -5    3.71    0.29 
  -2  -7   5   59.18    1.39 
   2  -7  -5   49.25    1.31 
   2   7  -5   50.81    1.31 
   2   7  -5   51.35    1.42 
  -2   7   5   50.56    1.37 
   2   7  -5   51.33    1.27 
  -2   7   5   52.55    1.27 
  -1  -7   5   12.88    0.46 
   1  -7  -5   13.79    0.41 
   1   7  -5   12.07    0.50 
  -1   7   5   13.39    0.43 
   1   7  -5   14.31    0.43 
  -1   7   5   13.54    0.50 
   1   7  -5   13.23    0.45 
   0  -7   5    0.55    0.10 
   0  -7  -5    0.57    0.08 
   0   7  -5    0.65    0.10 
   0   7   5    0.57    0.09 
   0   7   5    0.69    0.13 
   0   7  -5    0.53    0.10 
   0   7  -5    0.43    0.11 
  -1  -7  -5    0.04    0.05 
  -1  -7  -5    0.19    0.07 
   1  -7   5    0.02    0.05 
  -1   7  -5    0.17    0.08 
  -1   7  -5    0.03    0.06 
   1   7   5   -0.07    0.04 
   1   7   5    0.08    0.08 
  -1   7  -5    0.09    0.06 
  -2  -7  -5    4.32    0.22 
   2  -7   5    4.02    0.23 
  -2   7  -5    3.91    0.21 
   2   7   5    4.16    0.28 
  -2   7  -5    3.69    0.23 
  -2   7  -5    4.16    0.19 
   3  -7   5    3.01    0.21 
  -3  -7  -5    3.58    0.21 
  -3   7  -5    3.59    0.22 
   3   7   5    3.85    0.29 
  -4  -7  -5    4.14    0.24 
   4  -7   5    4.65    0.25 
  -4   7  -5    4.44    0.24 
   4   7   5    4.30    0.32 
  -5  -7  -5    0.11    0.09 
   5   7   5    0.29    0.14 
  -5   7  -5    0.14    0.08 
  -6  -7  -5    7.57    0.37 
   6   7   5    7.26    0.46 
   5  -8  -5    3.15    0.20 
  -5  -8   5    2.91    0.23 
   5   8  -5    3.37    0.35 
  -5   8   5    2.91    0.27 
   4  -8  -5    5.72    0.26 
  -4  -8   5    5.67    0.30 
   4   8  -5    4.85    0.37 
  -4   8   5    5.48    0.33 
  -3  -8   5   43.35    1.14 
   3  -8  -5   40.28    1.07 
   3   8  -5   39.06    1.20 
  -3   8   5   38.22    1.13 
  -2  -8   5    5.60    0.29 
   2  -8  -5    5.63    0.25 
   2   8  -5    6.04    0.29 
  -2   8   5    5.73    0.26 
   2   8  -5    5.69    0.26 
   2   8  -5    5.80    0.36 
  -2   8   5    5.76    0.32 
   1  -8  -5   12.00    0.40 
  -1  -8   5   12.34    0.46 
  -1   8   5   10.88    0.47 
  -1   8   5   11.73    0.41 
   1   8  -5   11.21    0.43 
   1   8  -5   11.86    0.50 
   1   8  -5   11.32    0.40 
   0  -8  -5    1.02    0.11 
   0  -8   5    0.83    0.14 
   0   8   5    1.34    0.17 
   0   8  -5    1.17    0.14 
   0   8   5    1.06    0.13 
   0   8  -5    1.06    0.13 
   0   8  -5    0.82    0.16 
   1  -8   5    0.91    0.13 
  -1  -8  -5    0.79    0.10 
  -1   8  -5    0.66    0.12 
  -1   8  -5    0.57    0.12 
   1   8   5    0.67    0.15 
  -1   8  -5    1.02    0.13 
  -2  -8  -5    6.84    0.30 
   2  -8   5    6.48    0.31 
  -2   8  -5    6.64    0.28 
   2   8   5    6.63    0.39 
  -2   8  -5    6.73    0.30 
   3  -8   5    1.33    0.16 
  -3  -8  -5    1.30    0.16 
   3   8   5    1.35    0.22 
  -3   8  -5    1.12    0.15 
  -3   8  -5    1.17    0.13 
  -4  -8  -5   10.01    0.41 
   4   8   5    9.65    0.51 
  -4   8  -5   10.20    0.40 
  -5  -8  -5    0.82    0.16 
   4  -9  -5    1.07    0.14 
  -4  -9   5    0.84    0.16 
   4   9  -5    0.97    0.23 
  -4   9   5    0.78    0.18 
   3  -9  -5    1.80    0.16 
  -3  -9   5    1.87    0.21 
  -3   9   5    2.40    0.25 
   3   9  -5    2.45    0.28 
   2  -9  -5    9.71    0.36 
  -2  -9   5    9.52    0.41 
  -2   9   5    9.31    0.45 
   2   9  -5   10.01    0.50 
  -2   9   5    9.62    0.38 
   1  -9  -5    8.39    0.33 
  -1  -9   5    8.33    0.38 
   1   9  -5    8.99    0.46 
   1   9  -5    8.60    0.35 
   1   9  -5    8.54    0.38 
  -1   9   5    8.56    0.36 
  -1   9   5    9.17    0.44 
   0  -9  -5    3.51    0.20 
   0  -9   5    3.56    0.24 
   0   9  -5    3.44    0.23 
   0   9   5    3.77    0.29 
   0   9   5    4.02    0.24 
   0   9  -5    3.54    0.28 
   0   9  -5    3.41    0.22 
   1  -9   5    2.21    0.20 
  -1  -9  -5    2.03    0.16 
  -1   9  -5    1.93    0.18 
   1   9   5    1.92    0.23 
  -1   9  -5    1.96    0.18 
  -1   9  -5    1.98    0.22 
   2  -9   5    3.22    0.24 
  -2   9  -5    3.20    0.21 
  -2   9  -5    3.31    0.23 
   2   9   5    3.13    0.29 
  -3  -9  -5    2.72    0.21 
  -3   9  -5    2.48    0.18 
  -3   9  -5    2.44    0.21 
   3   9   5    2.03    0.28 
  -9   0   6    0.43    0.19 
   9   0  -6    0.28    0.16 
  -8   0   6    6.66    0.42 
   8   0  -6    6.64    0.43 
  -7   0   6    4.40    0.31 
   7   0  -6    4.20    0.32 
  -6   0   6    1.62    0.19 
   6   0  -6    1.70    0.19 
   5   0  -6    1.18    0.14 
  -5   0   6    1.13    0.15 
  -5   0   6    1.05    0.07 
   4   0  -6   34.85    0.79 
  -4   0   6   33.33    0.92 
  -4   0   6   34.77    0.80 
   4   0  -6   33.60    0.92 
   3   0  -6   36.04    0.93 
  -3   0   6   36.70    0.85 
  -3   0   6   37.92    0.95 
   3   0  -6   36.77    0.84 
   2   0  -6    9.47    0.29 
   2   0  -6    9.78    0.25 
  -2   0   6    9.59    0.24 
  -2   0   6    9.28    0.31 
  -1   0   6    0.38    0.06 
   0   0   6    2.41    0.13 
   0   0  -6    2.48    0.10 
   0   0  -6    2.46    0.09 
  -1   0  -6   94.44    2.10 
  -1   0  -6   93.63    2.12 
   1   0   6   93.25    2.18 
  -2   0  -6    0.19    0.03 
   2   0   6    0.16    0.06 
  -2   0  -6    0.17    0.04 
  -3   0  -6    7.59    0.26 
   3   0   6    7.06    0.30 
   3   0   6    7.20    0.24 
  -3   0  -6    7.68    0.22 
   4   0   6    3.16    0.22 
  -4   0  -6    3.16    0.17 
   5   0   6    0.40    0.11 
  -5   0  -6    0.53    0.10 
   6   0   6   13.79    0.55 
  -6   0  -6   13.10    0.45 
  -7   0  -6    0.09    0.08 
   7   0   6    0.14    0.11 
  -8   0  -6    0.03    0.10 
   8   0   6    0.05    0.12 
   9  -1  -6    0.61    0.21 
  -9  -1   6    0.32    0.18 
  -9   1   6    0.43    0.17 
   9   1  -6   -0.16    0.15 
  -8  -1   6    1.26    0.21 
   8  -1  -6    0.87    0.20 
   8   1  -6    1.34    0.24 
  -8   1   6    0.76    0.18 
   7  -1  -6    5.38    0.34 
  -7  -1   6    5.49    0.35 
  -7   1   6    5.15    0.34 
   7   1  -6    5.14    0.35 
  -6  -1   6    6.99    0.24 
  -6  -1   6    6.54    0.34 
   6  -1  -6    6.89    0.34 
   6   1  -6    6.68    0.36 
  -6   1   6    7.00    0.36 
  -5  -1   6   21.53    0.55 
   5  -1  -6   21.12    0.51 
   5  -1  -6   21.37    0.65 
  -5  -1   6   20.83    0.67 
   5   1  -6   21.27    0.69 
  -5   1   6   20.95    0.67 
  -4  -1   6    1.55    0.14 
   4  -1  -6    1.45    0.07 
  -4  -1   6    1.72    0.09 
   4  -1  -6    1.49    0.12 
   4   1  -6    1.66    0.15 
  -4   1   6    1.33    0.14 
   4   1  -6    1.58    0.06 
   3  -1  -6    4.09    0.13 
  -3  -1   6    4.28    0.15 
  -3  -1   6    4.21    0.20 
   3   1  -6    4.21    0.21 
  -3   1   6    3.59    0.19 
   3   1  -6    4.13    0.12 
  -3   1   6    3.93    0.17 
  -2  -1   6   22.87    0.60 
   2  -1  -6   21.84    0.53 
  -2  -1   6   21.83    0.54 
  -2   1   6   21.78    0.55 
   2   1  -6   21.43    0.58 
   2   1  -6   21.38    0.51 
  -2   1   6   21.62    0.59 
   2   1  -6   21.27    0.55 
  -1  -1   6   45.02    1.05 
   1  -1  -6   45.82    1.04 
  -1  -1   6   45.62    1.09 
  -1   1   6   45.96    1.05 
   1   1  -6   45.08    1.06 
   1   1  -6   45.41    1.07 
   1   1  -6   44.21    1.03 
  -1   1   6   45.29    1.10 
   0  -1   6   46.34    1.12 
   0  -1  -6   47.21    1.07 
   0  -1  -6   46.13    1.06 
   0   1   6   46.70    1.13 
   0   1  -6   46.96    1.07 
   0   1  -6   46.54    1.08 
   0   1   6   45.97    1.07 
  -1  -1  -6   46.17    1.05 
   1  -1   6   46.43    1.13 
  -1  -1  -6   46.31    1.08 
  -1   1  -6   45.66    1.07 
   1   1   6   45.33    1.12 
  -1   1  -6   46.08    1.05 
   1   1   6   44.32    1.05 
   2  -1   6   66.46    1.60 
  -2  -1  -6   66.02    1.50 
  -2  -1  -6   66.77    1.54 
   2   1   6   66.22    1.53 
  -2   1  -6   66.77    1.51 
   2   1   6   64.64    1.59 
  -2   1  -6   65.63    1.53 
  -3  -1  -6   13.52    0.34 
   3  -1   6   13.92    0.38 
   3  -1   6   14.02    0.46 
  -3  -1  -6   13.15    0.39 
   3   1   6   13.83    0.46 
  -3   1  -6   13.32    0.40 
   3   1   6   13.43    0.40 
  -3   1  -6   13.61    0.37 
   4  -1   6   19.26    0.61 
  -4  -1  -6   18.36    0.53 
   4   1   6   18.31    0.61 
   4   1   6   19.29    0.56 
  -4   1  -6   18.96    0.54 
  -4   1  -6   19.01    0.49 
   5  -1   6   17.44    0.62 
  -5  -1  -6   17.91    0.53 
   5   1   6   17.48    0.63 
  -5   1  -6   18.41    0.54 
   6  -1   6   11.86    0.51 
  -6  -1  -6   11.46    0.42 
  -6   1  -6   11.05    0.40 
   6   1   6   11.37    0.50 
   7  -1   6    3.38    0.30 
  -7  -1  -6    3.60    0.24 
   7   1   6    3.94    0.33 
  -7   1  -6    3.82    0.24 
   8  -1   6    1.26    0.23 
  -8  -1  -6    1.77    0.20 
   8   1   6    1.69    0.27 
  -8   1  -6    1.81    0.20 
   9  -2  -6    4.19    0.38 
  -9  -2   6    3.92    0.37 
  -9   2   6    3.49    0.38 
   9   2  -6    4.00    0.41 
   8  -2  -6    3.01    0.29 
  -8  -2   6    2.55    0.29 
   8   2  -6    2.79    0.31 
  -8   2   6    2.53    0.30 
  -7  -2   6    6.96    0.27 
  -7  -2   6    7.07    0.38 
   7  -2  -6    6.79    0.37 
  -7   2   6    6.74    0.39 
   7   2  -6    7.93    0.44 
  -6  -2   6    6.39    0.24 
   6  -2  -6    6.28    0.32 
  -6  -2   6    6.59    0.34 
   6   2  -6    6.07    0.36 
  -6   2   6    6.93    0.36 
  -5  -2   6   49.32    1.18 
   5  -2  -6   48.74    1.27 
  -5  -2   6   48.76    1.28 
   5  -2  -6   48.57    1.13 
  -5   2   6   49.31    1.31 
   5   2  -6   49.30    1.34 
  -4  -2   6   19.11    0.58 
   4  -2  -6   19.12    0.48 
  -4  -2   6   19.47    0.51 
   4   2  -6   18.99    0.47 
  -4   2   6   19.36    0.56 
  -4   2   6   18.82    0.60 
   4   2  -6   19.88    0.62 
  -3  -2   6   36.91    0.94 
   3  -2  -6   37.09    0.87 
  -3  -2   6   37.05    0.89 
  -3   2   6   37.36    0.97 
  -3   2   6   36.49    0.93 
   3   2  -6   37.08    0.87 
   3   2  -6   38.56    0.93 
   3   2  -6   36.95    0.99 
  -2  -2   6   82.71    1.90 
   2  -2  -6   83.00    1.88 
  -2  -2   6   83.66    1.93 
   2   2  -6   83.63    1.97 
   2   2  -6   83.37    1.92 
  -2   2   6   80.58    1.96 
  -2   2   6   85.07    1.93 
   2   2  -6   83.60    1.88 
   1  -2  -6   11.42    0.29 
  -1  -2   6   11.48    0.33 
  -1  -2   6   10.99    0.31 
  -1   2   6   11.79    0.36 
   1   2  -6   11.59    0.33 
   1   2  -6   11.63    0.31 
  -1   2   6   11.44    0.33 
   1   2  -6   11.19    0.35 
   0  -2  -6   54.98    1.24 
   0  -2   6   51.69    1.26 
   0  -2  -6   57.28    1.24 
   0  -2   6   53.54    1.28 
   0   2   6   54.09    1.29 
   0   2  -6   60.70    1.28 
   0   2  -6   52.44    1.27 
   0   2   6   52.88    1.32 
   0   2  -6   55.53    1.28 
  -1  -2  -6   78.59    1.77 
   1  -2   6   78.19    1.81 
  -1  -2  -6   76.79    1.75 
  -1   2  -6   77.20    1.78 
   1   2   6   76.99    1.84 
  -1   2  -6   76.91    1.80 
  -1   2  -6   77.62    1.76 
   1   2   6   81.30    1.81 
   2  -2   6   13.02    0.40 
  -2  -2  -6   12.59    0.36 
  -2  -2  -6   13.02    0.32 
  -2   2  -6   13.59    0.34 
  -2   2  -6   12.43    0.36 
   2   2   6   13.24    0.39 
  -2   2  -6   13.27    0.38 
   2   2   6   13.54    0.43 
  -3  -2  -6    2.27    0.13 
   3  -2   6    2.38    0.17 
  -3  -2  -6    2.38    0.09 
   3   2   6    2.38    0.17 
  -3   2  -6    2.28    0.12 
  -3   2  -6    2.38    0.13 
   3   2   6    2.20    0.15 
   4  -2   6   17.49    0.56 
  -4  -2  -6   16.74    0.50 
   4   2   6   16.84    0.54 
  -4   2  -6   17.19    0.50 
  -4   2  -6   16.87    0.46 
   4   2   6   16.73    0.57 
  -5  -2  -6    3.93    0.21 
   5  -2   6    4.22    0.27 
  -5   2  -6    3.67    0.20 
   5   2   6    4.09    0.28 
   6  -2   6   23.88    0.81 
  -6  -2  -6   24.44    0.71 
   6   2   6   24.74    0.83 
  -6   2  -6   24.16    0.71 
   7  -2   6    9.29    0.48 
  -7  -2  -6    8.25    0.37 
  -7   2  -6    8.41    0.36 
   7   2   6    9.00    0.49 
  -8  -2  -6    1.97    0.22 
   8  -2   6    1.60    0.26 
  -8   2  -6    1.64    0.19 
   8   2   6    1.63    0.27 
  -9  -3   6    0.13    0.17 
   9  -3  -6    0.05    0.15 
   9   3  -6   -0.03    0.17 
  -9   3   6    0.22    0.17 
  -8  -3   6    4.46    0.35 
   8  -3  -6    4.48    0.34 
  -8   3   6    4.21    0.35 
   8   3  -6    4.62    0.39 
  -7  -3   6    8.42    0.32 
   7  -3  -6    8.58    0.41 
  -7  -3   6    8.48    0.43 
   7   3  -6    8.85    0.48 
  -7   3   6    8.99    0.45 
  -6  -3   6   34.98    0.91 
   6  -3  -6   35.18    1.01 
  -6  -3   6   36.03    1.02 
  -6   3   6   35.06    1.05 
   6   3  -6   36.29    1.10 
   5  -3  -6   19.56    0.51 
  -5  -3   6   20.12    0.63 
  -5  -3   6   19.76    0.55 
   5   3  -6   20.22    0.70 
  -5   3   6   21.28    0.67 
  -5   3   6   19.53    0.62 
  -4  -3   6    7.43    0.27 
   4  -3  -6    7.73    0.23 
  -4  -3   6    7.72    0.31 
  -4   3   6    7.40    0.32 
  -4   3   6    7.88    0.30 
   4   3  -6    7.42    0.35 
  -3  -3   6   52.01    1.25 
   3  -3  -6   51.01    1.19 
  -3  -3   6   49.76    1.22 
   3   3  -6   51.73    1.26 
  -3   3   6   53.07    1.31 
   3   3  -6   51.71    1.21 
   3   3  -6   52.25    1.34 
  -3   3   6   51.88    1.29 
  -2  -3   6    8.09    0.26 
   2  -3  -6    7.48    0.23 
  -2  -3   6    7.44    0.25 
   2   3  -6    7.46    0.26 
  -2   3   6    7.77    0.29 
   2   3  -6    7.64    0.23 
   2   3  -6    7.90    0.31 
  -2   3   6    7.60    0.27 
   1  -3  -6   12.21    0.30 
  -1  -3   6   11.99    0.35 
   1  -3  -6   11.86    0.32 
  -1  -3   6   12.78    0.34 
  -1   3   6   12.40    0.37 
  -1   3   6   11.38    0.37 
   1   3  -6   12.71    0.36 
   1   3  -6   11.96    0.34 
   1   3  -6   12.33    0.38 
   0  -3   6  126.99    2.91 
   0  -3   6  128.42    2.90 
   0  -3  -6  129.01    2.88 
   0  -3  -6  129.48    2.87 
   0   3  -6  128.55    2.94 
   0   3  -6  128.60    2.92 
   0   3  -6  131.41    2.92 
   0   3   6  129.03    2.95 
   0   3   6  128.46    2.96 
  -1  -3  -6    5.37    0.18 
   1  -3   6    5.01    0.19 
   1  -3   6    5.00    0.19 
  -1  -3  -6    4.99    0.16 
  -1   3  -6    5.17    0.19 
  -1   3  -6    5.01    0.17 
   1   3   6    5.09    0.22 
   1   3   6    5.18    0.21 
  -1   3  -6    5.04    0.17 
   2  -3   6   15.51    0.46 
  -2  -3  -6   15.64    0.38 
  -2  -3  -6   14.87    0.42 
  -2   3  -6   15.19    0.43 
   2   3   6   15.65    0.47 
  -2   3  -6   15.29    0.41 
  -2   3  -6   15.88    0.44 
   2   3   6   15.11    0.48 
  -3  -3  -6   20.37    0.55 
   3  -3   6   20.20    0.60 
   3   3   6   20.12    0.60 
   3   3   6   20.33    0.62 
  -3   3  -6   20.00    0.54 
  -3   3  -6   20.09    0.56 
  -4  -3  -6    8.78    0.31 
   4  -3   6    8.63    0.36 
   4   3   6    9.89    0.39 
  -4   3  -6    8.81    0.30 
   4   3   6    8.43    0.36 
  -4   3  -6    8.66    0.32 
  -5  -3  -6   26.87    0.73 
   5  -3   6   25.41    0.80 
   5   3   6   24.83    0.80 
  -5   3  -6   24.99    0.70 
   5   3   6   24.37    0.77 
   6  -3   6    0.33    0.13 
  -6  -3  -6    0.20    0.08 
  -6   3  -6    0.15    0.08 
   6   3   6    0.16    0.12 
  -7  -3  -6    1.01    0.16 
   7  -3   6    0.81    0.18 
   7   3   6    0.90    0.21 
  -7   3  -6    0.86    0.13 
  -8  -3  -6   10.14    0.45 
   8  -3   6    9.96    0.55 
   8   3   6   10.26    0.57 
  -8   3  -6   10.38    0.43 
  -8  -4   6    2.02    0.18 
   8  -4  -6    1.95    0.25 
   8   4  -6    1.74    0.28 
  -8   4   6    1.79    0.26 
  -7  -4   6    3.21    0.20 
   7  -4  -6    3.54    0.27 
  -7   4   6    3.64    0.30 
   7   4  -6    3.23    0.32 
   6  -4  -6    0.61    0.08 
  -6  -4   6    0.36    0.09 
  -6   4   6    0.45    0.12 
  -6   4   6    0.79    0.16 
   6   4  -6    0.55    0.16 
  -5  -4   6    0.72    0.10 
   5  -4  -6    0.84    0.08 
  -5   4   6    0.76    0.14 
  -5   4   6    1.12    0.15 
   5   4  -6    0.77    0.17 
   4  -4  -6    8.98    0.28 
  -4  -4   6    8.94    0.32 
   4   4  -6    9.08    0.41 
  -4   4   6    8.31    0.35 
  -4   4   6    8.44    0.34 
   3  -4  -6   14.61    0.40 
  -3  -4   6   14.58    0.44 
   3   4  -6   13.96    0.44 
  -3   4   6   14.99    0.47 
   3   4  -6   14.33    0.51 
   3   4  -6   14.89    0.40 
  -3   4   6   14.19    0.47 
  -2  -4   6    3.85    0.18 
   2  -4  -6    4.14    0.15 
   2   4  -6    3.54    0.18 
  -2   4   6    4.09    0.20 
   2   4  -6    4.03    0.16 
   2   4  -6    3.88    0.22 
  -2   4   6    4.42    0.21 
   1  -4  -6    4.52    0.16 
   1  -4  -6    4.36    0.14 
  -1  -4   6    4.51    0.19 
  -1   4   6    4.44    0.21 
   1   4  -6    4.82    0.18 
   1   4  -6    4.84    0.19 
  -1   4   6    4.47    0.20 
   1   4  -6    4.67    0.22 
   0  -4  -6    7.57    0.22 
   0  -4  -6    7.04    0.22 
   0  -4   6    7.31    0.26 
   0   4   6    7.41    0.28 
   0   4  -6    7.39    0.25 
   0   4  -6    7.40    0.27 
   0   4   6    7.46    0.27 
   0   4  -6    7.38    0.25 
  -1  -4  -6    1.45    0.09 
   1  -4   6    1.45    0.11 
  -1  -4  -6    1.35    0.08 
  -1   4  -6    1.45    0.10 
   1   4   6    1.14    0.12 
  -1   4  -6    1.21    0.10 
   1   4   6    1.22    0.12 
  -1   4  -6    1.26    0.08 
  -2  -4  -6   33.14    0.78 
  -2  -4  -6   33.79    0.83 
   2  -4   6   33.01    0.90 
   2  -4   6   32.05    0.83 
  -2   4  -6   32.55    0.82 
   2   4   6   32.29    0.88 
   2   4   6   34.26    0.91 
  -2   4  -6   32.45    0.84 
   3  -4   6   15.94    0.50 
  -3  -4  -6   15.75    0.46 
  -3   4  -6   15.80    0.48 
   3   4   6   16.08    0.54 
   3   4   6   15.96    0.53 
  -3   4  -6   15.95    0.47 
   4  -4   6    9.68    0.39 
  -4  -4  -6    9.92    0.34 
  -4   4  -6    9.68    0.33 
   4   4   6    9.30    0.40 
   4   4   6    8.91    0.39 
  -4   4  -6    9.04    0.33 
  -5  -4  -6    4.36    0.23 
   5  -4   6    4.09    0.27 
   5   4   6    4.08    0.28 
  -5   4  -6    3.67    0.19 
  -5   4  -6    4.01    0.22 
   5   4   6    4.45    0.29 
  -6  -4  -6    4.16    0.24 
   6  -4   6    4.04    0.29 
  -6   4  -6    4.02    0.24 
   6   4   6    3.75    0.30 
  -7  -4  -6    0.87    0.15 
   7  -4   6    0.99    0.18 
   7   4   6    0.61    0.17 
  -7   4  -6    1.12    0.15 
   8  -5  -6    0.74    0.17 
  -8  -5   6    0.71    0.13 
   8   5  -6    0.54    0.22 
  -7  -5   6    0.09    0.08 
  -7   5   6    0.11    0.09 
   7   5  -6    0.01    0.13 
  -7   5   6    0.08    0.12 
   6  -5  -6    2.15    0.14 
  -6  -5   6    1.98    0.17 
   6   5  -6    2.12    0.28 
  -6   5   6    2.33    0.24 
  -6   5   6    2.32    0.21 
   5  -5  -6   17.63    0.49 
  -5  -5   6   16.98    0.54 
   5   5  -6   17.57    0.68 
  -5   5   6   17.62    0.60 
  -5   5   6   17.64    0.61 
   4  -5  -6   17.19    0.47 
  -4  -5   6   16.45    0.52 
  -4   5   6   16.67    0.56 
  -4   5   6   16.80    0.56 
   4   5  -6   17.30    0.64 
  -3  -5   6    1.98    0.15 
   3  -5  -6    1.86    0.12 
   3   5  -6    1.94    0.15 
  -3   5   6    1.93    0.16 
   3   5  -6    2.18    0.12 
   3   5  -6    2.05    0.20 
  -3   5   6    1.87    0.16 
   2  -5  -6   41.83    1.01 
  -2  -5   6   41.17    1.06 
  -2   5   6   40.93    1.09 
  -2   5   6   43.23    1.10 
   2   5  -6   41.73    1.07 
   2   5  -6   41.90    1.03 
   2   5  -6   42.32    1.14 
   1  -5  -6   26.88    0.67 
  -1  -5   6   25.70    0.71 
  -1   5   6   26.59    0.76 
   1   5  -6   27.67    0.73 
   1   5  -6   26.84    0.70 
   1   5  -6   27.30    0.78 
   0  -5   6    3.31    0.18 
   0  -5  -6    3.24    0.14 
   0  -5  -6    3.40    0.14 
   0   5  -6    2.95    0.18 
   0   5  -6    3.08    0.16 
   0   5   6    3.39    0.20 
   0   5  -6    3.25    0.16 
  -1  -5  -6   12.25    0.36 
   1  -5   6   12.21    0.39 
  -1  -5  -6   12.52    0.35 
  -1   5  -6   12.30    0.39 
   1   5   6   12.10    0.44 
  -1   5  -6   11.97    0.36 
  -2  -5  -6    2.61    0.12 
   2  -5   6    2.61    0.16 
  -2  -5  -6    2.46    0.14 
  -2   5  -6    2.70    0.13 
  -2   5  -6    2.64    0.20 
  -2   5  -6    2.57    0.16 
   2   5   6    2.76    0.19 
   3  -5   6   17.23    0.51 
  -3  -5  -6   17.40    0.51 
   3   5   6   17.12    0.59 
  -3   5  -6   17.18    0.51 
  -4  -5  -6   17.28    0.53 
   4  -5   6   16.64    0.51 
   4   5   6   16.68    0.61 
  -4   5  -6   17.86    0.53 
  -5  -5  -6   22.69    0.68 
   5   5   6   23.15    0.79 
  -5   5  -6   23.26    0.66 
  -6  -5  -6   11.75    0.45 
  -6   5  -6   11.63    0.43 
  -7  -5  -6    2.05    0.22 
  -7  -6   6    5.55    0.30 
  -7   6   6    5.92    0.36 
   7   6  -6    4.91    0.42 
   6  -6  -6    1.80    0.14 
  -6  -6   6    1.79    0.18 
   6   6  -6    2.33    0.30 
  -6   6   6    1.99    0.22 
   5  -6  -6    1.12    0.11 
  -5  -6   6    1.00    0.15 
   5   6  -6    1.06    0.22 
  -5   6   6    1.16    0.18 
   4  -6  -6    9.26    0.31 
  -4  -6   6    9.25    0.36 
  -4   6   6    8.97    0.39 
   4   6  -6    9.74    0.47 
  -3  -6   6   14.66    0.48 
   3  -6  -6   14.32    0.43 
  -3   6   6   13.72    0.50 
   3   6  -6   13.68    0.51 
   3   6  -6   14.56    0.56 
   3   6  -6   13.84    0.41 
   2  -6  -6    1.25    0.10 
  -2  -6   6    1.12    0.13 
  -2   6   6    1.20    0.14 
   2   6  -6    1.25    0.13 
   2   6  -6    1.22    0.17 
   2   6  -6    1.36    0.11 
   1  -6  -6   21.57    0.59 
  -1  -6   6   23.06    0.65 
   1   6  -6   21.95    0.70 
  -1   6   6   23.26    0.63 
  -1   6   6   22.17    0.69 
   1   6  -6   23.10    0.65 
   1   6  -6   23.14    0.63 
   0  -6  -6   11.95    0.35 
   0  -6   6   11.13    0.39 
   0   6   6   11.61    0.44 
   0   6  -6   11.32    0.38 
   0   6  -6   12.30    0.39 
   0   6   6   11.41    0.38 
   0   6  -6   11.07    0.42 
  -1  -6  -6    4.65    0.18 
   1  -6   6    4.23    0.22 
  -1  -6  -6    4.44    0.20 
  -1   6  -6    4.62    0.20 
   1   6   6    4.65    0.27 
  -1   6  -6    4.72    0.22 
  -1   6  -6    4.30    0.23 
  -2  -6  -6    6.26    0.21 
   2  -6   6    6.01    0.27 
  -2  -6  -6    6.07    0.25 
  -2   6  -6    6.31    0.26 
  -2   6  -6    5.81    0.23 
   2   6   6    6.38    0.33 
   3  -6   6   10.82    0.39 
  -3  -6  -6   10.92    0.38 
  -3   6  -6    9.95    0.37 
   3   6   6   11.21    0.46 
   4  -6   6   43.08    1.12 
  -4  -6  -6   42.50    1.12 
   4   6   6   43.72    1.25 
  -4   6  -6   42.57    1.12 
  -5  -6  -6    3.92    0.24 
   5  -6   6    3.50    0.22 
   5   6   6    3.19    0.28 
  -5   6  -6    3.48    0.21 
   6  -6   6    6.76    0.43 
  -6  -6  -6    7.37    0.35 
   6  -7  -6    2.46    0.17 
  -6  -7   6    1.97    0.21 
   6   7  -6    1.59    0.27 
  -6   7   6    1.82    0.23 
  -5  -7   6    6.47    0.33 
   5  -7  -6    7.35    0.29 
  -5   7   6    6.87    0.37 
   5   7  -6    6.69    0.44 
   4  -7  -6    6.77    0.27 
  -4  -7   6    6.67    0.32 
  -4   7   6    6.70    0.35 
   4   7  -6    7.07    0.42 
  -3  -7   6    3.19    0.21 
   3  -7  -6    3.16    0.17 
  -3   7   6    2.85    0.22 
   3   7  -6    3.31    0.27 
   2  -7  -6   17.13    0.50 
  -2  -7   6   17.40    0.56 
   2   7  -6   16.42    0.53 
   2   7  -6   16.93    0.62 
  -2   7   6   16.40    0.57 
   2   7  -6   15.75    0.49 
   1  -7  -6    4.40    0.20 
  -1  -7   6    4.12    0.23 
  -1   7   6    4.06    0.21 
   1   7  -6    4.38    0.23 
   1   7  -6    3.90    0.27 
   1   7  -6    4.40    0.21 
  -1   7   6    3.97    0.25 
   0  -7  -6    7.37    0.26 
   0  -7   6    6.31    0.30 
   0   7   6    6.95    0.29 
   0   7  -6    6.84    0.29 
   0   7   6    7.12    0.34 
   0   7  -6    7.13    0.29 
   0   7  -6    7.12    0.34 
  -1  -7  -6   29.12    0.82 
   1  -7   6   28.33    0.81 
  -1  -7  -6   28.47    0.74 
  -1   7  -6   28.91    0.77 
  -1   7  -6   28.87    0.83 
   1   7   6   27.57    0.81 
  -1   7  -6   27.62    0.78 
   1   7   6   28.90    0.88 
  -2  -7  -6    3.36    0.19 
  -2   7  -6    3.62    0.21 
   2   7   6    3.90    0.27 
  -2   7  -6    3.74    0.19 
  -3  -7  -6    4.40    0.23 
   3  -7   6    3.96    0.23 
  -3   7  -6    4.76    0.24 
   3   7   6    3.77    0.29 
  -4  -7  -6    1.18    0.15 
   4  -7   6    1.38    0.17 
  -4   7  -6    1.08    0.14 
   4   7   6    1.30    0.20 
   5  -7   6    5.68    0.33 
  -5   7  -6    5.75    0.29 
   5   7   6    5.10    0.38 
  -5  -8   6    1.82    0.20 
   5  -8  -6    2.29    0.17 
  -5   8   6    1.96    0.24 
   5   8  -6    2.09    0.30 
  -4  -8   6    2.44    0.22 
   4  -8  -6    2.12    0.17 
  -4   8   6    1.70    0.23 
   4   8  -6    1.86    0.27 
   3  -8  -6   15.00    0.47 
  -3  -8   6   14.45    0.53 
  -3   8   6   15.21    0.59 
   3   8  -6   15.28    0.64 
   2  -8  -6   19.11    0.56 
  -2  -8   6   18.53    0.62 
  -2   8   6   18.98    0.65 
   2   8  -6   18.96    0.69 
   2   8  -6   18.35    0.54 
   2   8  -6   14.54    0.56 
  -1  -8   6    4.69    0.27 
   1  -8  -6    5.12    0.23 
   1   8  -6    5.44    0.33 
  -1   8   6    4.98    0.31 
   1   8  -6    4.80    0.24 
   1   8  -6    4.84    0.26 
   0  -8   6    1.34    0.16 
   0  -8  -6    1.28    0.13 
   0   8  -6    0.88    0.16 
   0   8   6    1.30    0.19 
   0   8  -6    1.59    0.15 
   0   8  -6    1.17    0.14 
   0   8   6    1.27    0.15 
  -1  -8  -6    2.01    0.14 
   1  -8   6    2.13    0.19 
  -1   8  -6    1.52    0.16 
   1   8   6    1.84    0.21 
  -1   8  -6    1.78    0.16 
   2  -8   6    6.58    0.32 
  -2   8  -6    6.36    0.30 
  -2   8  -6    5.75    0.27 
   2   8   6    6.93    0.38 
   3  -8   6    5.65    0.30 
  -3  -8  -6    5.40    0.28 
   3   8   6    5.57    0.36 
  -3   8  -6    5.25    0.28 
  -3   8  -6    4.93    0.24 
   4  -8   6   14.98    0.57 
  -4  -8  -6   11.81    0.47 
   4   8   6   11.70    0.56 
  -4   8  -6   12.30    0.46 
   4  -9  -6    1.68    0.21 
  -4  -9   6    2.11    0.28 
  -4   9   6    1.97    0.27 
   4   9  -6    1.55    0.26 
   3  -9  -6    3.68    0.22 
  -3  -9   6    3.91    0.28 
   3   9  -6    3.57    0.33 
  -3   9   6    3.54    0.29 
   2  -9  -6    9.71    0.37 
  -2  -9   6    9.91    0.43 
  -2   9   6    9.35    0.46 
   2   9  -6   10.00    0.42 
   2   9  -6    9.85    0.50 
   1  -9  -6    4.71    0.23 
  -1  -9   6    4.33    0.28 
   1   9  -6    4.14    0.24 
  -1   9   6    3.74    0.29 
   1   9  -6    4.47    0.27 
   1   9  -6    4.24    0.31 
   0  -9  -6    2.31    0.17 
   0  -9   6    2.08    0.20 
   0   9   6    2.50    0.24 
   0   9  -6    2.87    0.20 
   0   9  -6    2.46    0.24 
   0   9  -6    1.65    0.18 
   1  -9   6    3.81    0.26 
  -1   9  -6    3.26    0.23 
  -1   9  -6    4.37    0.24 
   1   9   6    4.01    0.30 
   2  -9   6    0.51    0.13 
  -2   9  -6    0.83    0.14 
   2   9   6    0.70    0.16 
  -2   9  -6    0.87    0.12 
  -9   0   7   -0.11    0.14 
   9   0  -7    0.07    0.16 
   8   0  -7    1.14    0.22 
  -8   0   7    1.40    0.23 
   7   0  -7    3.02    0.28 
  -7   0   7    3.11    0.27 
  -6   0   7   50.87    1.39 
   6   0  -7   50.62    1.40 
  -5   0   7    2.44    0.20 
   5   0  -7    2.54    0.20 
   4   0  -7    1.03    0.12 
  -4   0   7    0.85    0.06 
   4   0  -7    0.81    0.05 
  -4   0   7    0.69    0.11 
  -3   0   7    0.04    0.02 
   3   0  -7    0.03    0.02 
   3   0  -7    0.00    0.04 
  -3   0   7    0.00    0.05 
  -2   0   7   27.30    0.63 
  -2   0   7   26.11    0.71 
   2   0  -7   27.01    0.63 
   2   0  -7   26.34    0.68 
  -1   0   7   38.20    0.88 
  -1   0   7   39.50    0.96 
   1   0  -7   38.12    0.92 
   1   0  -7   39.91    0.91 
   1   0  -7   37.03    0.89 
   0   0  -7   41.15    0.96 
   0   0  -7   42.00    0.97 
   0   0   7   41.53    1.03 
   1   0   7   55.72    1.37 
  -1   0  -7   57.01    1.31 
  -1   0  -7   56.65    1.29 
  -2   0  -7    0.13    0.03 
  -2   0  -7    0.19    0.05 
   2   0   7    0.11    0.05 
   3   0   7    1.14    0.13 
  -3   0  -7    1.15    0.10 
  -3   0  -7    1.17    0.08 
  -4   0  -7    0.01    0.05 
   4   0   7   -0.03    0.06 
   5   0   7   40.38    1.21 
  -5   0  -7   45.68    1.11 
  -6   0  -7    0.92    0.13 
   6   0   7    0.84    0.17 
   7   0   7    1.24    0.22 
  -7   0  -7    1.05    0.15 
  -8   0  -7    4.89    0.30 
   8   0   7    4.33    0.40 
  -9  -1   7    1.75    0.28 
   9  -1  -7    1.48    0.29 
   9   1  -7    0.90    0.26 
  -9   1   7    1.52    0.27 
  -8  -1   7    4.51    0.36 
   8  -1  -7    4.76    0.37 
  -8   1   7    5.06    0.37 
   8   1  -7    4.96    0.38 
  -7  -1   7    3.87    0.29 
   7  -1  -7    3.49    0.28 
   7   1  -7    3.37    0.30 
  -7   1   7    3.27    0.28 
   6  -1  -7    1.86    0.19 
  -6  -1   7    1.39    0.19 
   6   1  -7    1.62    0.20 
  -6   1   7    1.80    0.20 
  -5  -1   7    3.32    0.14 
  -5  -1   7    3.40    0.23 
   5  -1  -7    3.17    0.21 
   5  -1  -7    3.32    0.12 
  -5   1   7    3.41    0.23 
   5   1  -7    3.75    0.25 
  -4  -1   7   16.14    0.52 
  -4  -1   7   16.46    0.43 
   4  -1  -7   16.36    0.41 
   4  -1  -7   16.25    0.50 
  -4   1   7   16.36    0.53 
   4   1  -7   15.98    0.54 
   4   1  -7   16.32    0.40 
  -3  -1   7    8.29    0.31 
   3  -1  -7    8.33    0.23 
  -3  -1   7    8.91    0.25 
  -3   1   7    8.15    0.32 
   3   1  -7    8.61    0.32 
  -3   1   7    8.50    0.28 
   3   1  -7    8.18    0.22 
   3   1  -7    8.37    0.32 
  -2  -1   7   90.97    2.15 
   2  -1  -7   92.06    2.07 
  -2  -1   7   93.34    2.08 
   2   1  -7   91.42    2.07 
   2   1  -7   89.95    2.03 
  -2   1   7   91.06    2.12 
   2   1  -7   87.47    2.10 
  -2   1   7   91.51    2.07 
  -1  -1   7  239.19    5.29 
   1  -1  -7  235.91    5.28 
  -1  -1   7  238.96    5.34 
   1  -1  -7  238.99    5.26 
  -1   1   7  240.49    5.28 
   1   1  -7  239.57    5.27 
   1   1  -7  238.49    5.30 
  -1   1   7  230.50    5.34 
   1   1  -7  239.04    5.29 
   0  -1   7   23.82    0.63 
   0  -1  -7   23.94    0.58 
   0  -1  -7   24.52    0.57 
   0   1  -7   24.53    0.60 
   0   1   7   24.73    0.59 
   0   1   7   24.00    0.66 
   0   1  -7   24.44    0.59 
  -1  -1  -7   52.94    1.23 
  -1  -1  -7   52.90    1.21 
   1  -1   7   52.84    1.29 
   1   1   7   52.08    1.28 
   1   1   7   50.36    1.19 
  -1   1  -7   52.64    1.22 
  -1   1  -7   53.23    1.21 
   2  -1   7   11.72    0.40 
  -2  -1  -7   12.00    0.31 
  -2  -1  -7   12.32    0.35 
  -2   1  -7   12.54    0.34 
   2   1   7   12.23    0.34 
   2   1   7   11.75    0.41 
  -2   1  -7   12.22    0.36 
  -3  -1  -7   18.91    0.51 
   3  -1   7   17.91    0.57 
  -3  -1  -7   18.51    0.46 
  -3   1  -7   16.88    0.50 
   3   1   7   18.35    0.50 
  -3   1  -7   18.12    0.47 
   3   1   7   17.95    0.57 
   4  -1   7    1.49    0.17 
  -4  -1  -7    1.54    0.12 
  -4   1  -7    1.55    0.10 
   4   1   7    1.57    0.18 
  -4   1  -7    1.69    0.13 
   5  -1   7   25.23    0.81 
  -5  -1  -7   24.90    0.71 
  -5   1  -7   25.31    0.71 
   5   1   7   24.33    0.80 
  -6  -1  -7    1.80    0.17 
   6  -1   7    2.03    0.23 
   6   1   7    1.50    0.22 
  -6   1  -7    1.87    0.17 
  -7  -1  -7    5.08    0.29 
   7  -1   7    5.42    0.38 
   7   1   7    5.80    0.40 
  -7   1  -7    4.59    0.27 
  -8  -1  -7    0.97    0.17 
   8  -1   7    0.96    0.22 
  -8   1  -7    0.81    0.16 
   8   1   7    0.76    0.20 
  -9  -2   7    0.58    0.20 
   9  -2  -7    0.83    0.22 
   9   2  -7    1.42    0.27 
  -9   2   7    0.80    0.24 
  -8  -2   7    2.85    0.30 
   8  -2  -7    2.74    0.29 
  -8   2   7    3.30    0.33 
   8   2  -7    3.19    0.33 
  -7  -2   7    4.60    0.32 
   7  -2  -7    4.54    0.31 
   7   2  -7    4.87    0.36 
  -7   2   7    4.80    0.33 
  -6  -2   7   28.48    0.73 
  -6  -2   7   27.65    0.86 
   6  -2  -7   27.96    0.84 
  -6   2   7   27.71    0.87 
   6   2  -7   27.55    0.90 
  -5  -2   7    5.00    0.27 
  -5  -2   7    4.53    0.19 
   5  -2  -7    4.62    0.25 
   5  -2  -7    4.84    0.16 
   5   2  -7    4.61    0.28 
  -5   2   7    4.09    0.26 
   4  -2  -7    5.36    0.17 
  -4  -2   7    5.15    0.25 
  -4  -2   7    5.75    0.20 
  -4   2   7    5.20    0.27 
   4   2  -7    5.35    0.28 
   4   2  -7    5.29    0.17 
  -4   2   7    5.43    0.24 
  -3  -2   7   18.37    0.48 
   3  -2  -7   18.01    0.45 
  -3  -2   7   17.81    0.53 
   3   2  -7   17.96    0.45 
   3   2  -7   17.76    0.50 
  -3   2   7   18.39    0.56 
   3   2  -7   17.63    0.56 
  -3   2   7   19.22    0.53 
   2  -2  -7   55.90    1.29 
  -2  -2   7   56.32    1.36 
  -2  -2   7   57.03    1.32 
  -2   2   7   55.16    1.37 
   2   2  -7   56.68    1.37 
   2   2  -7   56.08    1.29 
  -2   2   7   55.54    1.33 
   2   2  -7   56.60    1.33 
  -1  -2   7  115.97    2.60 
   1  -2  -7  111.92    2.58 
  -1  -2   7  117.10    2.63 
   1   2  -7  113.29    2.57 
   1   2  -7  111.72    2.61 
   1   2  -7  117.83    2.60 
  -1   2   7  113.45    2.64 
  -1   2   7  114.85    2.60 
   0  -2   7   20.95    0.54 
   0  -2   7   21.72    0.57 
   0  -2  -7   21.99    0.52 
   0  -2  -7   20.74    0.52 
   0   2  -7   20.82    0.53 
   0   2   7   20.81    0.53 
   0   2  -7   20.74    0.52 
   0   2  -7   20.88    0.53 
   0   2   7   21.37    0.59 
  -1  -2  -7   44.53    1.02 
   1  -2   7   44.24    1.09 
  -1  -2  -7   44.23    1.04 
   1   2   7   43.46    1.04 
  -1   2  -7   44.42    1.05 
  -1   2  -7   43.81    1.03 
   1   2   7   42.54    1.10 
  -2  -2  -7   20.70    0.54 
   2  -2   7   21.09    0.59 
  -2  -2  -7   19.86    0.49 
  -2   2  -7   20.14    0.54 
   2   2   7   20.20    0.55 
   2   2   7   19.92    0.60 
  -2   2  -7   20.35    0.53 
  -3  -2  -7   31.24    0.80 
   3  -2   7   31.32    0.87 
  -3  -2  -7   31.59    0.74 
   3   2   7   31.03    0.88 
   3   2   7   31.42    0.82 
  -3   2  -7   31.58    0.78 
  -3   2  -7   30.74    0.81 
  -4  -2  -7   11.95    0.38 
   4  -2   7   11.30    0.44 
   4   2   7   11.66    0.46 
  -4   2  -7   12.19    0.39 
  -4   2  -7   11.91    0.36 
  -5  -2  -7   46.25    1.18 
   5  -2   7   45.89    1.28 
  -5   2  -7   47.27    1.21 
   5   2   7   47.54    1.32 
   6  -2   7    3.35    0.28 
  -6  -2  -7    3.40    0.22 
  -6   2  -7    3.14    0.21 
   6   2   7    3.66    0.30 
   7  -2   7    4.75    0.36 
  -7  -2  -7    5.17    0.30 
  -7   2  -7    4.95    0.28 
   7   2   7    5.28    0.39 
  -8  -2  -7    3.18    0.26 
   8  -2   7    3.42    0.37 
  -8   2  -7    3.33    0.26 
   8   2   7    3.80    0.38 
  -9  -3   7   18.98    0.78 
   9  -3  -7   18.61    0.79 
  -9   3   7   19.48    0.81 
   9   3  -7   17.42    0.82 
  -8  -3   7    7.14    0.43 
   8  -3  -7    7.43    0.44 
  -8   3   7    7.22    0.45 
   8   3  -7    8.17    0.50 
  -7  -3   7    3.71    0.20 
  -7  -3   7    2.95    0.27 
   7  -3  -7    3.33    0.26 
   7   3  -7    3.67    0.32 
  -7   3   7    3.55    0.30 
  -6  -3   7    0.67    0.14 
   6  -3  -7    0.66    0.14 
  -6  -3   7    0.73    0.09 
   6   3  -7    1.00    0.19 
  -6   3   7    1.16    0.18 
  -5  -3   7   42.56    1.07 
   5  -3  -7   41.95    1.02 
  -5  -3   7   44.45    1.15 
  -5   3   7   41.32    1.12 
   5   3  -7   43.84    1.22 
  -5   3   7   42.70    1.17 
  -4  -3   7    7.67    0.31 
   4  -3  -7    7.58    0.24 
  -4  -3   7    8.05    0.27 
   4   3  -7    7.59    0.36 
  -4   3   7    7.54    0.34 
  -4   3   7    8.67    0.32 
  -3  -3   7   13.24    0.38 
   3  -3  -7   12.82    0.35 
  -3  -3   7   12.18    0.40 
   3   3  -7   12.70    0.40 
   3   3  -7   12.29    0.45 
  -3   3   7   13.30    0.44 
  -3   3   7   13.22    0.42 
   3   3  -7   12.66    0.35 
   2  -3  -7    8.15    0.23 
  -2  -3   7    7.44    0.26 
  -2  -3   7    7.82    0.27 
   2   3  -7    8.42    0.31 
   2   3  -7    6.62    0.26 
   2   3  -7    7.59    0.24 
  -2   3   7    7.41    0.29 
  -2   3   7    7.75    0.27 
  -1  -3   7   41.67    1.03 
  -1  -3   7   43.21    1.02 
   1  -3  -7   42.32    1.00 
   1   3  -7   43.72    1.01 
   1   3  -7   39.57    1.02 
   1   3  -7   42.64    1.06 
  -1   3   7   43.06    1.04 
  -1   3   7   42.16    1.07 
   0  -3  -7   57.93    1.32 
   0  -3   7   58.13    1.35 
   0  -3  -7   57.96    1.31 
   0  -3   7   55.43    1.35 
   0   3   7   58.41    1.40 
   0   3  -7   57.99    1.35 
   0   3   7   57.07    1.37 
   0   3  -7   57.10    1.34 
   0   3  -7   55.61    1.35 
   1  -3   7   38.53    0.94 
  -1  -3  -7   39.15    0.92 
   1  -3   7   39.38    0.96 
  -1  -3  -7   37.81    0.90 
  -1   3  -7   38.76    0.92 
   1   3   7   37.49    1.00 
  -1   3  -7   38.63    0.92 
   1   3   7   39.18    0.97 
  -1   3  -7   38.88    0.95 
   2  -3   7   53.44    1.36 
  -2  -3  -7   57.38    1.27 
  -2  -3  -7   56.09    1.32 
  -2   3  -7   55.53    1.31 
   2   3   7   55.41    1.38 
   2   3   7   54.29    1.35 
  -2   3  -7   53.82    1.32 
  -3  -3  -7   30.58    0.79 
   3  -3   7   30.11    0.84 
   3   3   7   30.25    0.84 
  -3   3  -7   30.94    0.81 
   3   3   7   30.57    0.87 
  -3   3  -7   30.87    0.79 
  -4  -3  -7    9.39    0.33 
   4  -3   7    8.74    0.38 
  -4   3  -7    8.34    0.29 
   4   3   7    8.10    0.34 
   4   3   7    8.17    0.37 
  -4   3  -7    7.84    0.31 
   5  -3   7    4.59    0.29 
  -5  -3  -7    4.25    0.23 
  -5   3  -7    4.32    0.23 
   5   3   7    4.21    0.30 
  -6  -3  -7    8.23    0.35 
   6  -3   7    7.27    0.41 
   6   3   7    8.34    0.43 
  -6   3  -7    7.57    0.33 
  -7  -3  -7    5.76    0.32 
   7  -3   7    5.23    0.38 
  -7   3  -7    5.77    0.30 
   7   3   7    5.46    0.39 
  -8  -3  -7    1.71    0.27 
  -8   3  -7    1.50    0.19 
   8   3   7    1.73    0.28 
   8  -4  -7    8.75    0.47 
  -8  -4   7    8.64    0.36 
  -8   4   7    9.29    0.51 
   8   4  -7    9.89    0.57 
   7  -4  -7    2.41    0.24 
  -7  -4   7    2.50    0.18 
   7   4  -7    3.25    0.31 
  -7   4   7    2.75    0.29 
  -6  -4   7    5.62    0.25 
   6  -4  -7    5.26    0.20 
  -6   4   7    5.52    0.30 
   6   4  -7    5.24    0.37 
  -6   4   7    5.53    0.34 
  -5  -4   7   17.52    0.53 
   5  -4  -7   17.29    0.47 
   5   4  -7   17.57    0.66 
  -5   4   7   17.85    0.61 
  -5   4   7   17.78    0.59 
  -4  -4   7   16.93    0.51 
   4  -4  -7   17.23    0.46 
   4   4  -7   17.75    0.64 
  -4   4   7   17.53    0.58 
  -4   4   7   17.96    0.57 
  -3  -4   7   19.59    0.56 
   3  -4  -7   20.09    0.52 
   3   4  -7   20.47    0.57 
   3   4  -7   19.42    0.52 
   3   4  -7   19.13    0.64 
  -3   4   7   19.78    0.59 
  -3   4   7   19.74    0.60 
  -2  -4   7    9.60    0.33 
   2  -4  -7    9.90    0.29 
  -2   4   7    9.91    0.35 
   2   4  -7   10.04    0.38 
   2   4  -7    9.43    0.30 
  -2   4   7    9.80    0.36 
   2   4  -7    9.79    0.33 
   1  -4  -7    0.00    0.03 
  -1  -4   7    0.08    0.04 
   1   4  -7    0.02    0.05 
  -1   4   7    0.01    0.05 
   1   4  -7    0.02    0.03 
  -1   4   7    0.06    0.04 
   1   4  -7    0.05    0.04 
   0  -4  -7    5.78    0.19 
   0  -4  -7    5.76    0.19 
   0  -4   7    5.29    0.22 
   0   4   7    5.73    0.24 
   0   4   7    5.48    0.24 
   0   4  -7    5.83    0.21 
   0   4  -7    5.18    0.22 
   0   4  -7    6.03    0.22 
   1  -4   7   22.31    0.61 
  -1  -4  -7   22.51    0.56 
  -1  -4  -7   23.08    0.58 
  -1   4  -7   23.18    0.58 
   1   4   7   22.89    0.65 
  -1   4  -7   22.25    0.59 
  -1   4  -7   21.97    0.61 
   1   4   7   22.65    0.65 
   2  -4   7    1.48    0.12 
  -2  -4  -7    1.57    0.08 
  -2  -4  -7    1.28    0.11 
  -2   4  -7    1.64    0.12 
   2   4   7    1.74    0.16 
   2   4   7    1.53    0.14 
  -2   4  -7    1.64    0.10 
  -3  -4  -7    5.31    0.22 
   3  -4   7    4.79    0.25 
   3   4   7    4.84    0.25 
   3   4   7    5.11    0.27 
  -3   4  -7    4.76    0.22 
  -3   4  -7    4.87    0.22 
   4  -4   7   16.24    0.55 
  -4  -4  -7   16.54    0.51 
  -4   4  -7   16.24    0.51 
   4   4   7   16.30    0.57 
  -4   4  -7   16.02    0.49 
   4   4   7   16.25    0.58 
  -5  -4  -7   15.08    0.51 
   5  -4   7   15.90    0.57 
  -5   4  -7   15.24    0.47 
   5   4   7   14.58    0.58 
  -5   4  -7   15.15    0.50 
  -6  -4  -7    0.12    0.10 
   6  -4   7   -0.10    0.09 
  -6   4  -7    0.08    0.08 
   6   4   7   -0.02    0.11 
  -7  -4  -7    0.53    0.13 
   7   4   7    0.50    0.18 
  -7   4  -7    0.59    0.13 
  -8  -5   7    8.54    0.36 
   8  -5  -7    8.03    0.46 
  -8   5   7    9.53    0.62 
   8   5  -7    7.95    0.54 
  -7  -5   7    6.68    0.31 
   7   5  -7    6.46    0.47 
  -7   5   7    7.30    0.38 
  -7   5   7    6.68    0.41 
  -6  -5   7   18.74    0.58 
   6  -5  -7   18.65    0.52 
  -6   5   7   18.28    0.65 
  -6   5   7   17.93    0.66 
   6   5  -7   18.62    0.75 
  -5  -5   7   13.92    0.46 
   5  -5  -7   13.81    0.41 
  -5   5   7   13.48    0.52 
  -5   5   7   13.73    0.51 
   5   5  -7   13.53    0.58 
   4  -5  -7    8.98    0.29 
  -4  -5   7    8.70    0.34 
   4   5  -7    9.71    0.45 
  -4   5   7    9.41    0.39 
  -4   5   7    8.80    0.37 
  -3  -5   7   10.87    0.37 
   3  -5  -7   10.34    0.32 
  -3   5   7   11.08    0.42 
  -3   5   7   11.65    0.42 
   3   5  -7   11.76    0.40 
   3   5  -7   10.74    0.46 
   3   5  -7   11.34    0.35 
  -2  -5   7   13.33    0.43 
   2  -5  -7   12.65    0.37 
  -2   5   7   13.38    0.45 
  -2   5   7   13.56    0.44 
   2   5  -7   13.72    0.40 
   2   5  -7   13.04    0.48 
   2   5  -7   13.00    0.43 
   1  -5  -7   14.64    0.41 
  -1  -5   7   14.65    0.45 
   1   5  -7   14.29    0.49 
   1   5  -7   14.44    0.45 
  -1   5   7   13.83    0.46 
   1   5  -7   15.24    0.44 
  -1   5   7   15.08    0.48 
   0  -5  -7   10.99    0.32 
   0  -5  -7   11.22    0.32 
   0   5  -7   10.69    0.38 
   0   5   7   11.04    0.39 
   0   5   7   10.89    0.38 
   0   5  -7   10.64    0.35 
   0   5  -7   11.08    0.35 
  -1  -5  -7   24.75    0.63 
  -1  -5  -7   25.28    0.65 
   1  -5   7   24.93    0.69 
   1   5   7   27.14    0.73 
  -1   5  -7   25.84    0.67 
   1   5   7   25.65    0.75 
  -1   5  -7   24.94    0.69 
  -1   5  -7   25.29    0.69 
  -2  -5  -7   12.81    0.38 
   2  -5   7   11.96    0.40 
  -2  -5  -7   12.04    0.34 
   2   5   7   12.40    0.44 
  -2   5  -7   12.40    0.36 
  -2   5  -7   12.01    0.40 
   2   5   7   12.27    0.45 
   3  -5   7    7.41    0.29 
  -3  -5  -7    7.29    0.29 
   3   5   7    7.59    0.36 
  -3   5  -7    7.63    0.30 
   3   5   7    8.21    0.35 
  -4  -5  -7    5.55    0.25 
   4  -5   7    5.15    0.24 
  -4   5  -7    5.15    0.24 
   4   5   7    4.81    0.29 
   4   5   7    4.25    0.28 
  -5  -5  -7    2.84    0.21 
  -5   5  -7    2.69    0.18 
  -6  -5  -7   10.91    0.44 
  -6   5  -7   10.77    0.42 
  -7  -5  -7    4.07    0.30 
  -7  -6   7    5.16    0.29 
   7   6  -7    4.05    0.40 
  -7   6   7    4.58    0.33 
   6  -6  -7   10.00    0.35 
  -6  -6   7   10.16    0.41 
   6   6  -7   10.65    0.56 
  -6   6   7   10.66    0.48 
  -5  -6   7    0.31    0.09 
   5  -6  -7    0.18    0.06 
   5   6  -7    0.45    0.16 
  -5   6   7    0.27    0.10 
  -4  -6   7    8.24    0.35 
   4  -6  -7    8.67    0.30 
   4   6  -7    8.97    0.45 
  -4   6   7    9.17    0.40 
  -3  -6   7   20.55    0.62 
   3  -6  -7   20.46    0.56 
   3   6  -7   19.85    0.57 
   3   6  -7   21.11    0.72 
  -3   6   7   21.41    0.67 
   3   6  -7   20.50    0.71 
   2  -6  -7   10.93    0.35 
  -2  -6   7   11.85    0.41 
   2   6  -7   10.91    0.39 
   2   6  -7   11.21    0.36 
   2   6  -7   11.30    0.46 
  -2   6   7   10.83    0.42 
   1  -6  -7    5.78    0.22 
  -1  -6   7    5.90    0.26 
   1   6  -7    5.21    0.28 
   1   6  -7    5.68    0.24 
   1   6  -7    5.43    0.25 
  -1   6   7    5.97    0.29 
   0  -6  -7    2.97    0.15 
   0  -6   7    3.26    0.19 
   0   6   7    3.43    0.22 
   0   6  -7    3.21    0.21 
   0   6  -7    3.03    0.18 
   0   6  -7    3.36    0.18 
   1  -6   7    0.50    0.09 
  -1  -6  -7    0.73    0.09 
  -1  -6  -7    0.34    0.06 
  -1   6  -7    0.67    0.11 
   1   6   7    0.61    0.12 
  -1   6  -7    0.56    0.09 
   2  -6   7    8.45    0.33 
  -2  -6  -7    8.93    0.28 
  -2  -6  -7    8.50    0.31 
   2   6   7    8.12    0.38 
  -2   6  -7    8.75    0.33 
  -2   6  -7    8.90    0.30 
   3  -6   7    7.63    0.32 
  -3  -6  -7    7.81    0.31 
  -3   6  -7    8.04    0.32 
   3   6   7    8.02    0.39 
  -4  -6  -7   13.57    0.44 
   4  -6   7   11.80    0.43 
  -4   6  -7   12.55    0.44 
   4   6   7   12.57    0.53 
   5  -6   7    2.76    0.20 
  -5  -6  -7    2.84    0.22 
   5   6   7    3.11    0.36 
  -5   6  -7    2.91    0.20 
  -6  -6  -7    0.47    0.13 
   6  -6   7    0.24    0.09 
  -6  -7   7    0.48    0.13 
   6  -7  -7    0.68    0.11 
  -6   7   7    0.72    0.16 
   6   7  -7    0.29    0.18 
   5  -7  -7    1.13    0.13 
  -5  -7   7    1.11    0.16 
  -5   7   7    0.89    0.17 
   5   7  -7    1.18    0.23 
  -4  -7   7    2.65    0.21 
   4  -7  -7    2.76    0.17 
  -4   7   7    2.67    0.22 
   4   7  -7    2.59    0.27 
   3  -7  -7    1.92    0.14 
  -3  -7   7    1.74    0.17 
   3   7  -7    2.05    0.23 
  -3   7   7    1.46    0.18 
   2  -7  -7    9.15    0.32 
  -2  -7   7    9.58    0.38 
   2   7  -7    9.77    0.35 
   2   7  -7    9.45    0.44 
   2   7  -7    9.75    0.38 
  -2   7   7   10.12    0.42 
  -1  -7   7    9.96    0.39 
   1  -7  -7    9.88    0.33 
   1   7  -7    8.10    0.40 
   1   7  -7   10.05    0.35 
   1   7  -7   10.38    0.37 
  -1   7   7    9.16    0.40 
   0  -7  -7    2.07    0.14 
   0  -7   7    2.20    0.17 
   0   7  -7    2.36    0.20 
   0   7   7    2.09    0.19 
   0   7  -7    2.09    0.16 
   0   7  -7    1.94    0.15 
   1  -7   7    0.74    0.12 
  -1  -7  -7    0.72    0.09 
   1   7   7    0.83    0.15 
  -1   7  -7    0.78    0.12 
  -1   7  -7    0.84    0.11 
  -2  -7  -7    3.41    0.20 
   2  -7   7    3.10    0.21 
  -2   7  -7    3.46    0.19 
   2   7   7    3.37    0.26 
  -2   7  -7    3.53    0.22 
  -3  -7  -7    8.71    0.35 
   3  -7   7    9.46    0.38 
  -3   7  -7   10.04    0.38 
   3   7   7    9.09    0.45 
  -4  -7  -7    2.68    0.22 
   4  -7   7    2.90    0.22 
  -4   7  -7    2.22    0.19 
   4   7   7    2.81    0.28 
  -5  -7  -7    3.86    0.26 
   5  -7   7    3.88    0.25 
  -5   7  -7    3.99    0.25 
   5   7   7    4.35    0.34 
  -5  -8   7    1.85    0.21 
   5  -8  -7    2.02    0.17 
   5   8  -7    1.71    0.28 
  -5   8   7    1.83    0.25 
   4  -8  -7    1.35    0.15 
  -4  -8   7    1.63    0.20 
  -4   8   7    1.39    0.20 
   4   8  -7    1.58    0.25 
   3  -8  -7    7.99    0.31 
  -3  -8   7    7.79    0.36 
   3   8  -7    8.37    0.46 
  -3   8   7    7.64    0.40 
   2  -8  -7   11.35    0.38 
  -2  -8   7   10.71    0.44 
   2   8  -7   10.64    0.50 
   2   8  -7   10.62    0.39 
  -2   8   7   11.71    0.49 
   2   8  -7   11.37    0.43 
   1  -8  -7    4.88    0.22 
  -1  -8   7    4.63    0.27 
   1   8  -7    5.03    0.32 
   1   8  -7    4.81    0.24 
  -1   8   7    4.65    0.30 
   1   8  -7    4.50    0.26 
   0  -8  -7    2.66    0.17 
   0  -8   7    2.84    0.21 
   0   8  -7    1.98    0.17 
   0   8   7    2.50    0.23 
   0   8  -7    2.74    0.20 
  -1  -8  -7    8.14    0.30 
   1  -8   7    7.99    0.36 
   1   8   7    8.46    0.42 
  -1   8  -7    8.22    0.34 
   2  -8   7    2.42    0.20 
  -2   8  -7    2.32    0.17 
  -2   8  -7    1.93    0.18 
   2   8   7    2.11    0.23 
  -3  -8  -7   26.44    0.77 
   3  -8   7   26.49    0.80 
  -3   8  -7   24.77    0.71 
   3   8   7   25.22    0.88 
  -3   8  -7   26.72    0.77 
   4  -8   7    3.29    0.25 
  -4  -8  -7    4.08    0.27 
   4   8   7    3.42    0.31 
  -4   8  -7    3.59    0.24 
  -3  -9   7    3.73    0.27 
   3  -9  -7    3.60    0.21 
   3   9  -7    4.08    0.34 
  -3   9   7    3.06    0.28 
  -2  -9   7   13.91    0.53 
   2  -9  -7   14.10    0.47 
   2   9  -7   13.76    0.49 
   2   9  -7   14.62    0.62 
  -2   9   7   14.48    0.59 
  -1  -9   7    2.67    0.23 
   1  -9  -7    2.83    0.19 
   1   9  -7    2.98    0.24 
   1   9  -7    2.95    0.27 
  -1   9   7    2.82    0.26 
   1   9  -7    3.23    0.21 
   0  -9  -7    1.71    0.16 
   0  -9   7    1.63    0.19 
   0   9   7    1.71    0.23 
   0   9  -7    1.45    0.17 
   0   9  -7    1.47    0.17 
   1  -9   7    1.83    0.20 
  -1   9  -7    1.45    0.17 
  -1   9  -7    1.36    0.17 
   1   9   7    1.69    0.22 
   2  -9   7    6.47    0.34 
  -2   9  -7    6.53    0.33 
   2   9   7    6.67    0.41 
  -2   9  -7    6.39    0.30 
  -9   0   8    0.77    0.22 
   9   0  -8    0.64    0.22 
  -8   0   8    0.12    0.14 
   8   0  -8    0.16    0.14 
   7   0  -8    1.82    0.25 
  -7   0   8    1.49    0.22 
   6   0  -8    0.19    0.11 
  -6   0   8    0.13    0.09 
   5   0  -8   13.90    0.50 
  -5   0   8   13.46    0.50 
   4   0  -8    4.46    0.14 
   4   0  -8    4.45    0.23 
  -4   0   8    4.02    0.23 
  -3   0   8   14.28    0.35 
  -3   0   8   13.62    0.45 
   3   0  -8   13.65    0.43 
   3   0  -8   13.72    0.35 
   2   0  -8   82.17    1.86 
  -2   0   8   74.03    1.80 
  -2   0   8   82.68    1.91 
   2   0  -8   80.23    1.85 
   2   0  -8   82.11    1.81 
   1   0  -8  199.20    4.37 
   1   0  -8  196.09    4.36 
  -1   0   8  194.14    4.44 
   1   0  -8  194.65    4.35 
   0   0  -8   25.07    0.61 
   0   0   8   25.62    0.69 
   0   0  -8   25.65    0.62 
   1   0   8    5.92    0.25 
  -1   0  -8    6.15    0.19 
  -1   0  -8    6.75    0.21 
  -2   0  -8  106.93    2.46 
   2   0   8  108.95    2.54 
  -2   0  -8  106.19    2.42 
  -3   0  -8    0.05    0.03 
   3   0   8   -0.01    0.06 
  -3   0  -8   -0.02    0.04 
   4   0   8    3.68    0.25 
  -4   0  -8    3.58    0.19 
  -5   0  -8   10.08    0.37 
   5   0   8    9.53    0.44 
  -6   0  -8   16.31    0.54 
   6   0   8   16.04    0.64 
  -7   0  -8    0.21    0.10 
   7   0   8    0.22    0.14 
  -8   0  -8   30.48    0.93 
   8   0   8   31.21    1.10 
   9  -1  -8    3.56    0.38 
  -9  -1   8    4.46    0.40 
  -9   1   8    3.78    0.36 
   9   1  -8    4.19    0.39 
   8  -1  -8    0.37    0.15 
  -8  -1   8    0.02    0.12 
   8   1  -8    0.15    0.15 
  -8   1   8    0.04    0.13 
  -7  -1   8   14.92    0.60 
   7  -1  -8   15.20    0.61 
   7   1  -8   15.07    0.63 
  -7   1   8   14.17    0.59 
  -6  -1   8   20.28    0.69 
   6  -1  -8   20.10    0.68 
   6   1  -8   19.23    0.70 
  -6   1   8   20.01    0.69 
   5  -1  -8   56.61    1.32 
   5  -1  -8   58.65    1.48 
  -5  -1   8   57.89    1.49 
  -5  -1   8   57.01    1.35 
   5   1  -8   58.46    1.54 
  -5   1   8   57.57    1.51 
   4  -1  -8   41.27    1.07 
  -4  -1   8   42.31    1.10 
   4  -1  -8   41.25    0.97 
  -4  -1   8   42.32    0.99 
   4   1  -8   41.97    1.13 
  -4   1   8   41.51    1.12 
   4   1  -8   42.55    0.97 
   3  -1  -8    1.88    0.08 
  -3  -1   8    1.90    0.15 
  -3  -1   8    2.10    0.10 
   3   1  -8    2.06    0.12 
   3   1  -8    1.93    0.08 
   3   1  -8    2.08    0.15 
  -3   1   8    1.79    0.15 
  -3   1   8    2.25    0.13 
   2  -1  -8   36.90    0.87 
  -2  -1   8   38.35    0.89 
  -2  -1   8   37.34    0.96 
  -2   1   8   37.62    0.99 
   2   1  -8   42.77    0.98 
   2   1  -8   37.57    0.90 
   2   1  -8   37.13    0.94 
  -2   1   8   38.01    0.94 
   1  -1  -8   13.66    0.34 
  -1  -1   8   13.93    0.42 
   1  -1  -8   13.60    0.35 
  -1  -1   8   13.23    0.36 
   1   1  -8   13.29    0.37 
  -1   1   8   13.39    0.42 
   1   1  -8   13.55    0.35 
   1   1  -8   13.15    0.38 
  -1   1   8   13.48    0.36 
   0  -1  -8    5.36    0.17 
   0  -1   8    5.81    0.23 
   0  -1  -8    5.48    0.17 
   0   1   8    5.48    0.17 
   0   1   8    5.80    0.24 
   0   1  -8    5.61    0.19 
   0   1  -8    5.59    0.18 
   1  -1   8    3.29    0.18 
  -1  -1  -8    3.33    0.14 
  -1  -1  -8    3.55    0.12 
  -1   1  -8    3.36    0.13 
   1   1   8    3.23    0.11 
   1   1   8    3.56    0.19 
  -1   1  -8    3.31    0.14 
   2  -1   8    9.38    0.34 
  -2  -1  -8    8.61    0.24 
  -2  -1  -8    8.70    0.28 
  -2   1  -8    8.56    0.28 
   2   1   8    8.67    0.34 
  -2   1  -8    8.91    0.26 
  -3  -1  -8    8.94    0.25 
  -3  -1  -8    8.76    0.30 
   3  -1   8    9.35    0.37 
  -3   1  -8    8.56    0.30 
  -3   1  -8    9.22    0.28 
   3   1   8    8.98    0.37 
  -4  -1  -8    2.22    0.15 
   4  -1   8    2.07    0.20 
  -4   1  -8    2.10    0.12 
  -4   1  -8    2.04    0.15 
   4   1   8    1.95    0.19 
   5  -1   8    3.72    0.28 
  -5  -1  -8    4.35    0.23 
  -5   1  -8    4.10    0.23 
   5   1   8    3.89    0.29 
   6  -1   8    1.56    0.23 
  -6  -1  -8    1.39    0.16 
   6   1   8    1.42    0.22 
  -6   1  -8    1.70    0.18 
  -7  -1  -8    0.14    0.10 
   7  -1   8   -0.07    0.12 
   7   1   8    0.08    0.13 
  -7   1  -8    0.21    0.10 
  -8  -1  -8    3.44    0.27 
   8  -1   8    3.36    0.37 
  -8   1  -8    3.69    0.28 
   8   1   8    3.56    0.39 
   9  -2  -8    0.86    0.25 
  -9  -2   8    0.86    0.21 
   9   2  -8    0.96    0.25 
  -9   2   8    1.16    0.26 
   8  -2  -8    2.99    0.30 
  -8  -2   8    2.36    0.29 
  -8   2   8    2.86    0.30 
   8   2  -8    3.27    0.33 
   7  -2  -8    4.02    0.30 
  -7  -2   8    3.75    0.30 
   7   2  -8    4.41    0.35 
  -7   2   8    4.60    0.33 
  -6  -2   8   15.38    0.58 
  -6  -2   8   15.95    0.46 
   6  -2  -8   15.68    0.56 
   6   2  -8   15.75    0.62 
  -6   2   8   15.15    0.59 
   5  -2  -8   19.33    0.62 
  -5  -2   8   20.57    0.54 
  -5  -2   8   19.74    0.64 
   5  -2  -8   19.73    0.50 
   5   2  -8   19.58    0.67 
  -5   2   8   19.15    0.65 
  -4  -2   8   28.71    0.80 
   4  -2  -8   28.35    0.68 
  -4  -2   8   27.57    0.71 
  -4   2   8   28.56    0.78 
   4   2  -8   28.68    0.69 
   4   2  -8   27.85    0.84 
  -4   2   8   28.99    0.83 
   3  -2  -8    1.53    0.08 
  -3  -2   8    1.46    0.13 
  -3  -2   8    1.50    0.10 
   3   2  -8    1.42    0.11 
   3   2  -8    1.51    0.08 
  -3   2   8    1.62    0.12 
  -3   2   8    1.55    0.15 
   3   2  -8    1.23    0.13 
  -2  -2   8   64.07    1.47 
  -2  -2   8   63.11    1.51 
   2  -2  -8   62.11    1.44 
  -2   2   8   63.59    1.56 
   2   2  -8   65.24    1.51 
  -2   2   8   63.32    1.51 
   2   2  -8   63.50    1.47 
   2   2  -8   62.80    1.54 
  -1  -2   8   32.34    0.80 
  -1  -2   8   33.53    0.84 
   1  -2  -8   32.54    0.78 
   1   2  -8   33.79    0.83 
   1   2  -8   33.40    0.84 
  -1   2   8   34.27    0.83 
  -1   2   8   33.99    0.89 
   1   2  -8   33.00    0.81 
   0  -2   8    7.22    0.23 
   0  -2   8    7.11    0.26 
   0  -2  -8    6.95    0.21 
   0  -2  -8    6.72    0.20 
   0   2   8    7.03    0.28 
   0   2  -8    7.21    0.23 
   0   2  -8    7.05    0.22 
   0   2   8    6.76    0.22 
   0   2  -8    6.59    0.21 
  -1  -2  -8   11.35    0.32 
  -1  -2  -8   11.67    0.30 
   1  -2   8   11.27    0.37 
  -1   2  -8   11.15    0.34 
  -1   2  -8   10.68    0.32 
   1   2   8   10.81    0.32 
   1   2   8   11.56    0.39 
  -2  -2  -8   12.91    0.33 
   2  -2   8   12.60    0.43 
  -2  -2  -8   12.99    0.38 
  -2   2  -8   12.59    0.37 
   2   2   8   12.41    0.38 
  -2   2  -8   12.90    0.39 
   2   2   8   13.63    0.45 
  -3  -2  -8   15.50    0.46 
   3  -2   8   15.85    0.52 
  -3  -2  -8   16.27    0.40 
  -3   2  -8   15.68    0.46 
  -3   2  -8   15.43    0.44 
   3   2   8   15.12    0.53 
  -4  -2  -8    3.51    0.19 
   4  -2   8    3.38    0.24 
   4   2   8    3.07    0.24 
  -4   2  -8    3.28    0.19 
  -4   2  -8    3.32    0.16 
  -5  -2  -8    0.34    0.08 
   5  -2   8    0.42    0.13 
   5   2   8    0.28    0.12 
  -5   2  -8    0.46    0.10 
  -6  -2  -8    2.12    0.19 
   6  -2   8    1.96    0.25 
  -6   2  -8    2.14    0.19 
   6   2   8    2.04    0.25 
  -7  -2  -8    0.46    0.14 
   7  -2   8    0.10    0.13 
   7   2   8    0.65    0.20 
  -7   2  -8    0.38    0.11 
   8  -2   8    5.61    0.45 
  -8  -2  -8    5.93    0.39 
   8   2   8    5.65    0.45 
  -8   2  -8    5.82    0.34 
   9  -3  -8    4.54    0.40 
  -9  -3   8    4.27    0.39 
  -9   3   8    4.60    0.41 
   9   3  -8    4.20    0.42 
  -8  -3   8    6.05    0.41 
   8  -3  -8    6.81    0.42 
  -8   3   8    6.85    0.43 
   8   3  -8    6.45    0.45 
   7  -3  -8    3.73    0.28 
  -7  -3   8    4.17    0.31 
  -7   3   8    4.24    0.33 
   7   3  -8    4.53    0.36 
  -6  -3   8    1.62    0.13 
  -6  -3   8    1.35    0.18 
   6  -3  -8    1.31    0.16 
   6   3  -8    1.36    0.22 
  -6   3   8    1.60    0.22 
   5  -3  -8   23.67    0.61 
  -5  -3   8   24.59    0.74 
  -5  -3   8   24.43    0.66 
   5   3  -8   24.15    0.79 
  -5   3   8   23.49    0.71 
  -5   3   8   23.42    0.75 
  -4  -3   8   36.13    0.90 
   4  -3  -8   34.70    0.86 
  -4  -3   8   35.66    0.95 
  -4   3   8   35.31    0.95 
  -4   3   8   34.97    0.98 
   4   3  -8   35.31    1.01 
   4   3  -8   34.55    0.84 
  -3  -3   8   -0.01    0.04 
   3  -3  -8    0.00    0.03 
  -3  -3   8    0.00    0.05 
   3   3  -8   -0.03    0.04 
   3   3  -8    0.01    0.03 
  -3   3   8    0.02    0.04 
  -3   3   8   -0.03    0.05 
   3   3  -8    0.01    0.06 
   2  -3  -8    1.78    0.09 
  -2  -3   8    2.18    0.12 
  -2  -3   8    1.82    0.13 
  -2   3   8    1.77    0.12 
   2   3  -8    1.77    0.12 
   2   3  -8    1.87    0.10 
  -2   3   8    1.98    0.15 
   2   3  -8    1.94    0.15 
  -1  -3   8    7.81    0.27 
   1  -3  -8    8.12    0.24 
  -1  -3   8    7.89    0.27 
   1   3  -8    8.11    0.27 
   1   3  -8    8.32    0.26 
   1   3  -8    7.44    0.28 
  -1   3   8    7.88    0.27 
  -1   3   8    8.07    0.31 
   0  -3  -8   25.24    0.63 
   0  -3   8   26.60    0.68 
   0  -3  -8   25.78    0.62 
   0  -3   8   25.19    0.66 
   0   3  -8   25.75    0.65 
   0   3  -8   25.87    0.65 
   0   3  -8   24.83    0.64 
   0   3   8   25.41    0.71 
   0   3   8   24.25    0.66 
  -1  -3  -8   22.49    0.55 
  -1  -3  -8   22.44    0.57 
   1  -3   8   22.87    0.62 
   1  -3   8   22.01    0.59 
  -1   3  -8   22.09    0.57 
   1   3   8   21.90    0.65 
   1   3   8   23.16    0.61 
  -1   3  -8   21.94    0.59 
   2  -3   8    3.56    0.20 
  -2  -3  -8    3.88    0.17 
  -2  -3  -8    3.94    0.14 
  -2   3  -8    3.71    0.17 
  -2   3  -8    3.91    0.18 
   2   3   8    3.69    0.18 
   2   3   8    3.77    0.22 
   3  -3   8    0.97    0.13 
  -3  -3  -8    0.85    0.10 
  -3   3  -8    1.01    0.11 
   3   3   8    1.03    0.12 
  -3   3  -8    0.87    0.10 
   3   3   8    0.80    0.13 
  -4  -3  -8   12.19    0.41 
   4  -3   8   12.23    0.47 
  -4   3  -8   12.06    0.41 
   4   3   8   12.32    0.48 
  -4   3  -8   11.38    0.37 
   5  -3   8   17.15    0.62 
  -5  -3  -8   16.90    0.54 
   5   3   8   17.21    0.64 
  -5   3  -8   17.46    0.56 
   6  -3   8    6.33    0.39 
  -6  -3  -8    7.27    0.33 
  -6   3  -8    6.99    0.33 
   6   3   8    7.30    0.42 
  -7  -3  -8    2.04    0.21 
   7  -3   8    2.09    0.28 
  -7   3  -8    2.54    0.23 
   7   3   8    2.58    0.31 
   8  -4  -8    3.97    0.33 
  -8   4   8    3.75    0.36 
   8   4  -8    4.05    0.39 
   7  -4  -8    3.95    0.29 
  -7  -4   8    3.95    0.22 
   7   4  -8    3.92    0.36 
  -7   4   8    3.55    0.32 
   6  -4  -8    2.38    0.13 
  -6  -4   8    2.17    0.16 
  -6   4   8    2.46    0.24 
  -6   4   8    2.61    0.21 
   6   4  -8    2.43    0.27 
  -5  -4   8    1.71    0.14 
   5  -4  -8    1.80    0.11 
  -5   4   8    1.49    0.16 
  -5   4   8    1.69    0.20 
   5   4  -8    1.61    0.23 
   4  -4  -8   21.46    0.56 
  -4  -4   8   21.33    0.61 
  -4   4   8   20.68    0.66 
  -4   4   8   20.62    0.64 
   4   4  -8   22.26    0.73 
  -3  -4   8   16.23    0.49 
   3  -4  -8   16.61    0.45 
  -3   4   8   15.45    0.51 
   3   4  -8   17.71    0.51 
  -3   4   8   16.72    0.54 
   3   4  -8   16.23    0.56 
   3   4  -8   15.75    0.45 
   2  -4  -8   11.82    0.34 
  -2  -4   8   11.78    0.38 
  -2   4   8   11.68    0.41 
   2   4  -8   11.90    0.43 
   2   4  -8   12.32    0.39 
  -2   4   8   12.13    0.40 
   2   4  -8   11.81    0.36 
  -1  -4   8   11.48    0.37 
   1  -4  -8   11.20    0.32 
   1   4  -8   11.81    0.35 
   1   4  -8   10.88    0.38 
   1   4  -8   11.17    0.36 
  -1   4   8   11.12    0.39 
  -1   4   8   11.40    0.38 
   0  -4  -8   19.34    0.46 
   0  -4  -8   17.41    0.47 
   0  -4   8   17.12    0.51 
   0   4  -8   17.50    0.49 
   0   4  -8   17.33    0.49 
   0   4  -8   17.28    0.50 
   0   4   8   17.57    0.54 
   0   4   8   17.82    0.52 
  -1  -4  -8   21.22    0.56 
   1  -4   8   20.61    0.59 
  -1  -4  -8   22.85    0.55 
  -1   4  -8   20.83    0.56 
   1   4   8   20.78    0.63 
  -1   4  -8   21.20    0.58 
   1   4   8   21.79    0.62 
   2  -4   8   20.95    0.59 
  -2  -4  -8   21.48    0.58 
  -2  -4  -8   21.77    0.54 
  -2   4  -8   21.49    0.55 
   2   4   8   21.52    0.63 
   2   4   8   21.68    0.66 
  -2   4  -8   20.61    0.59 
  -3  -4  -8   61.85    1.49 
   3   4   8   61.12    1.54 
   3   4   8   59.98    1.56 
  -3   4  -8   61.67    1.48 
  -3   4  -8   60.31    1.49 
  -4  -4  -8   12.01    0.42 
   4  -4   8   14.09    0.65 
  -4   4  -8   12.21    0.40 
  -4   4  -8   12.51    0.43 
   4   4   8   12.33    0.50 
  -5  -4  -8   18.24    0.58 
   5   4   8   18.11    0.67 
  -5   4  -8   18.30    0.58 
  -6  -4  -8    3.11    0.24 
  -6   4  -8    3.39    0.24 
   6   4   8    2.96    0.29 
  -7  -4  -8    9.40    0.42 
   7   4   8    9.71    0.53 
  -7   4  -8    9.56    0.42 
  -8  -5   8   12.41    0.46 
   8  -5  -8   11.95    0.57 
  -8   5   8   12.01    0.60 
   8   5  -8   12.56    0.67 
  -7  -5   8    2.92    0.21 
   7   5  -8    2.77    0.33 
  -7   5   8    3.00    0.29 
  -7   5   8    2.36    0.24 
  -6  -5   8    1.16    0.15 
   6  -5  -8    1.08    0.11 
  -6   5   8    1.09    0.17 
  -6   5   8    1.26    0.21 
   6   5  -8    1.19    0.23 
  -5  -5   8    1.24    0.14 
   5  -5  -8    1.30    0.11 
   5   5  -8    1.93    0.24 
  -5   5   8    1.25    0.16 
  -5   5   8    1.36    0.19 
  -4  -5   8   12.11    0.42 
   4  -5  -8   11.95    0.37 
  -4   5   8   11.94    0.45 
   4   5  -8   11.98    0.51 
  -4   5   8   10.87    0.44 
  -3  -5   8   31.04    0.84 
   3  -5  -8   31.42    0.79 
  -3   5   8   30.98    0.89 
  -3   5   8   32.52    0.90 
   3   5  -8   31.47    0.81 
   3   5  -8   31.93    0.86 
   3   5  -8   32.20    0.95 
   2  -5  -8    6.29    0.22 
  -2  -5   8    6.17    0.26 
   2   5  -8    6.41    0.27 
   2   5  -8    6.34    0.31 
   2   5  -8    6.32    0.24 
  -2   5   8    5.56    0.27 
  -2   5   8    6.18    0.28 
   1  -5  -8   41.92    1.02 
  -1  -5   8   42.77    1.08 
  -1   5   8   41.53    1.10 
  -1   5   8   42.16    1.11 
   1   5  -8   42.87    1.08 
   1   5  -8   43.16    1.06 
   1   5  -8   42.44    1.12 
   0  -5  -8    4.44    0.18 
   0  -5   8    4.33    0.21 
   0   5   8    3.56    0.21 
   0   5  -8    4.80    0.21 
   0   5  -8    4.18    0.20 
   0   5  -8    4.46    0.22 
   0   5   8    4.48    0.23 
  -1  -5  -8    6.75    0.24 
   1  -5   8    6.08    0.26 
  -1  -5  -8    6.64    0.22 
  -1   5  -8    6.34    0.26 
  -1   5  -8    6.42    0.24 
   1   5   8    6.64    0.30 
   1   5   8    6.05    0.29 
  -2  -5  -8   11.94    0.33 
   2  -5   8   11.54    0.39 
  -2  -5  -8   10.90    0.36 
  -2   5  -8   12.20    0.36 
   2   5   8   11.65    0.43 
  -2   5  -8   11.78    0.40 
   2   5   8   11.75    0.44 
   3  -5   8    8.71    0.33 
  -3  -5  -8    8.64    0.32 
  -3   5  -8    7.45    0.31 
   3   5   8    8.67    0.37 
   3   5   8    8.36    0.37 
  -4  -5  -8    1.54    0.16 
   4  -5   8    1.68    0.14 
   4   5   8    2.16    0.31 
  -4   5  -8    1.59    0.15 
   4   5   8    1.72    0.20 
  -5  -5  -8    1.82    0.19 
  -5   5  -8    2.01    0.16 
   5   5   8    1.47    0.22 
  -6  -5  -8    8.16    0.38 
  -6   5  -8    8.38    0.37 
  -7  -6   8    5.18    0.29 
  -7   6   8    5.26    0.35 
   7   6  -8    5.05    0.43 
  -6  -6   8    5.41    0.29 
   6  -6  -8    5.26    0.23 
   6   6  -8    5.56    0.42 
  -6   6   8    5.21    0.33 
   5  -6  -8    0.22    0.07 
  -5  -6   8    0.25    0.09 
  -5   6   8    0.34    0.11 
   5   6  -8    0.17    0.14 
  -4  -6   8    8.91    0.36 
   4  -6  -8    9.33    0.32 
  -4   6   8    8.99    0.41 
   4   6  -8    9.67    0.47 
  -3  -6   8   15.81    0.51 
   3  -6  -8   15.02    0.45 
   3   6  -8   18.12    0.50 
   3   6  -8   15.55    0.61 
  -3   6   8   15.56    0.56 
  -2  -6   8    9.22    0.36 
   2  -6  -8    8.73    0.30 
   2   6  -8    9.35    0.41 
   2   6  -8    9.07    0.32 
  -2   6   8    9.07    0.38 
   2   6  -8    9.24    0.36 
  -1  -6   8   16.60    0.52 
   1  -6  -8   15.31    0.45 
   1   6  -8   16.05    0.50 
   1   6  -8   14.94    0.53 
   1   6  -8   15.30    0.47 
  -1   6   8   15.03    0.52 
   0  -6  -8    6.61    0.24 
   0  -6   8    7.25    0.30 
   0   6  -8    7.02    0.29 
   0   6  -8    7.14    0.28 
   0   6   8    6.83    0.32 
   1  -6   8   17.31    0.54 
  -1  -6  -8   16.59    0.47 
  -1   6  -8   16.92    0.52 
  -1   6  -8   16.39    0.50 
   1   6   8   16.80    0.57 
  -2  -6  -8    3.55    0.19 
   2  -6   8    3.71    0.21 
  -2   6  -8    4.10    0.19 
   2   6   8    3.89    0.26 
  -2   6  -8    3.68    0.21 
  -3  -6  -8    4.72    0.23 
   3  -6   8    3.93    0.23 
  -3   6  -8    3.66    0.22 
   3   6   8    4.34    0.28 
  -4  -6  -8    2.85    0.20 
   4  -6   8    2.34    0.19 
   4   6   8    2.79    0.25 
  -4   6  -8    2.66    0.20 
  -5  -6  -8    0.99    0.15 
   5  -6   8    0.86    0.14 
  -5   6  -8    1.13    0.15 
  -6  -6  -8    0.79    0.15 
   6  -6   8    0.36    0.11 
   6  -7  -8    9.11    0.34 
  -6  -7   8    8.85    0.40 
  -6   7   8    7.15    0.42 
  -5  -7   8   11.34    0.45 
   5  -7  -8   12.07    0.40 
  -5   7   8   10.58    0.49 
   5   7  -8   11.81    0.57 
  -4  -7   8   -0.08    0.07 
   4  -7  -8    0.07    0.07 
   4   7  -8    0.02    0.11 
  -4   7   8   -0.02    0.07 
   3  -7  -8    6.69    0.27 
  -3  -7   8    6.33    0.31 
  -3   7   8    6.99    0.35 
   3   7  -8    6.76    0.39 
   2  -7  -8    8.57    0.31 
  -2  -7   8    8.22    0.35 
   2   7  -8    7.81    0.35 
  -2   7   8    8.45    0.38 
   2   7  -8    8.82    0.32 
   2   7  -8    8.79    0.42 
   1  -7  -8    2.29    0.15 
  -1  -7   8    2.29    0.18 
   1   7  -8    1.99    0.16 
   1   7  -8    2.20    0.21 
   1   7  -8    2.19    0.18 
  -1   7   8    2.12    0.19 
   0  -7  -8    0.50    0.08 
   0  -7   8    0.38    0.09 
   0   7  -8    0.44    0.10 
   0   7  -8    0.36    0.09 
   0   7   8    0.47    0.11 
   1  -7   8    3.36    0.21 
  -1  -7  -8    2.83    0.16 
  -1   7  -8    3.38    0.20 
  -1   7  -8    3.56    0.21 
   1   7   8    3.07    0.24 
   2  -7   8   42.78    1.15 
  -2   7  -8   42.53    1.07 
  -2   7  -8   41.26    1.11 
   2   7   8   41.65    1.20 
  -3  -7  -8   22.37    0.68 
   3  -7   8   23.50    0.71 
  -3   7  -8   22.92    0.64 
   3   7   8   23.37    0.79 
  -3   7  -8   22.36    0.69 
  -4  -7  -8    5.62    0.29 
   4  -7   8    5.36    0.30 
  -4   7  -8    5.75    0.29 
   4   7   8    5.16    0.35 
   5  -7   8    2.32    0.21 
  -5  -7  -8    1.80    0.21 
  -5   7  -8    2.20    0.20 
   5  -8  -8    1.45    0.16 
  -5  -8   8    1.39    0.20 
   5   8  -8    1.04    0.23 
  -5   8   8    1.18    0.20 
  -4  -8   8    4.70    0.29 
   4  -8  -8    4.78    0.24 
   4   8  -8    5.18    0.39 
  -4   8   8    5.27    0.33 
  -3  -8   8   16.98    0.60 
   3  -8  -8   17.93    0.54 
  -3   8   8   17.92    0.66 
   3   8  -8   17.09    0.70 
   2  -8  -8    1.24    0.14 
  -2  -8   8    1.26    0.17 
   2   8  -8    1.35    0.20 
   2   8  -8    1.51    0.17 
  -2   8   8    1.45    0.19 
   2   8  -8    1.41    0.15 
  -1  -8   8    1.65    0.18 
   1  -8  -8    1.78    0.15 
   1   8  -8    1.69    0.17 
   1   8  -8    1.93    0.28 
   1   8  -8    1.84    0.16 
  -1   8   8    2.13    0.22 
   0  -8  -8    0.13    0.07 
   0  -8   8    0.12    0.08 
   0   8  -8    0.05    0.07 
   0   8   8    0.08    0.09 
   0   8  -8    0.13    0.08 
   1  -8   8    0.72    0.13 
  -1  -8  -8    1.38    0.13 
   1   8   8    1.53    0.20 
  -1   8  -8    1.36    0.16 
  -1   8  -8    1.35    0.15 
   2  -8   8    7.56    0.36 
  -2   8  -8    7.34    0.33 
  -2   8  -8    6.89    0.30 
   2   8   8    6.71    0.39 
  -3   8  -8   21.57    0.68 
  -3   8  -8   21.64    0.63 
   3   8   8   21.33    0.78 
  -4  -8  -8    2.81    0.23 
   4  -8   8    3.14    0.25 
  -4   8  -8    2.73    0.23 
   4   8   8    3.20    0.30 
  -3  -9   8    2.66    0.24 
   3  -9  -8    3.07    0.20 
  -3   9   8    2.41    0.26 
   3   9  -8    2.87    0.31 
  -2  -9   8    5.67    0.33 
   2  -9  -8    5.79    0.27 
   2   9  -8    6.05    0.38 
  -2   9   8    5.46    0.35 
   2   9  -8    5.70    0.28 
   1  -9  -8    0.45    0.10 
  -1  -9   8    0.63    0.14 
   1   9  -8    0.55    0.12 
   1   9  -8    0.51    0.12 
  -1   9   8    0.61    0.16 
   0  -9   8    5.74    0.32 
   0  -9  -8    5.35    0.26 
   0   9  -8    5.44    0.29 
   0   9  -8    5.42    0.30 
   0   9   8    5.56    0.36 
   1  -9   8    1.31    0.18 
  -1   9  -8    1.08    0.15 
  -1   9  -8    1.14    0.16 
   1   9   8    1.42    0.22 
   2  -9   8    8.27    0.39 
  -2   9  -8    9.88    0.56 
   2   9   8    9.52    0.48 
  -9   0   9    0.69    0.21 
   8   0  -9    1.58    0.26 
  -8   0   9    2.12    0.27 
  -7   0   9    5.03    0.34 
   7   0  -9    4.79    0.35 
  -6   0   9    1.37    0.19 
   6   0  -9    1.22    0.19 
   5   0  -9   59.06    1.34 
   5   0  -9   58.57    1.52 
  -5   0   9   57.88    1.53 
   4   0  -9   27.03    0.77 
  -4   0   9   27.16    0.79 
   4   0  -9   26.68    0.65 
  -3   0   9    0.10    0.07 
  -3   0   9    0.09    0.03 
   3   0  -9    0.18    0.06 
   3   0  -9    0.19    0.03 
   2   0  -9    4.30    0.17 
   2   0  -9    4.23    0.14 
   2   0  -9    4.40    0.18 
  -2   0   9    4.21    0.14 
  -2   0   9    4.13    0.21 
   1   0  -9    1.07    0.08 
   1   0  -9    1.24    0.07 
   1   0  -9    1.22    0.07 
  -1   0   9    1.10    0.12 
   0   0  -9   15.19    0.41 
   0   0   9   15.38    0.48 
   0   0  -9   15.45    0.39 
   1   0   9    3.71    0.20 
  -1   0  -9    3.64    0.15 
  -1   0  -9    3.68    0.14 
  -2   0  -9    5.47    0.22 
   2   0   9    5.65    0.28 
  -2   0  -9    6.42    0.20 
   3   0   9    3.79    0.24 
  -3   0  -9    3.83    0.19 
  -3   0  -9    3.80    0.15 
   4   0   9   18.18    0.64 
  -4   0  -9   18.75    0.55 
  -5   0  -9    1.02    0.13 
   5   0   9    1.01    0.18 
   6   0   9    5.31    0.37 
  -6   0  -9    6.33    0.31 
   7   0   9    0.32    0.16 
  -7   0  -9    0.27    0.12 
  -9  -1   9    0.51    0.19 
   9  -1  -9    0.43    0.18 
  -9   1   9    0.90    0.22 
   9   1  -9    0.41    0.20 
   8  -1  -9    1.91    0.29 
  -8  -1   9    2.80    0.29 
   8   1  -9    2.39    0.31 
  -8   1   9    2.27    0.28 
  -7  -1   9    3.07    0.28 
   7  -1  -9    2.86    0.27 
  -7   1   9    2.95    0.27 
   7   1  -9    2.76    0.29 
   6  -1  -9   33.76    1.01 
  -6  -1   9   34.88    1.02 
   6   1  -9   34.63    1.06 
  -6   1   9   34.85    1.04 
   5  -1  -9   46.20    1.24 
   5  -1  -9   46.96    1.09 
  -5  -1   9   47.97    1.27 
  -5   1   9   45.90    1.26 
   5   1  -9   46.62    1.28 
   4  -1  -9   15.12    0.39 
  -4  -1   9   15.45    0.51 
  -4  -1   9   15.52    0.41 
   4  -1  -9   14.40    0.48 
   4   1  -9   15.11    0.52 
  -4   1   9   14.68    0.52 
   4   1  -9   15.46    0.39 
  -3  -1   9    6.86    0.29 
   3  -1  -9    6.76    0.26 
  -3  -1   9    6.89    0.22 
   3  -1  -9    6.67    0.20 
  -3   1   9    6.63    0.30 
  -3   1   9    7.23    0.26 
   3   1  -9    6.92    0.29 
   3   1  -9    7.14    0.27 
   3   1  -9    6.55    0.20 
  -2  -1   9   21.04    0.61 
   2  -1  -9   21.01    0.52 
   2  -1  -9   21.99    0.57 
  -2  -1   9   20.84    0.53 
   2   1  -9   21.18    0.59 
  -2   1   9   20.56    0.62 
  -2   1   9   21.43    0.56 
   2   1  -9   21.38    0.52 
   2   1  -9   21.13    0.56 
  -1  -1   9    3.29    0.18 
  -1  -1   9    2.98    0.12 
   1  -1  -9    2.78    0.11 
   1  -1  -9    3.01    0.11 
   1   1  -9    3.20    0.14 
   1   1  -9    2.75    0.11 
  -1   1   9    2.53    0.17 
   1   1  -9    2.96    0.13 
  -1   1   9    3.08    0.12 
   0  -1  -9    0.92    0.07 
   0  -1  -9    1.05    0.07 
   0  -1   9    1.21    0.12 
   0   1   9    1.00    0.12 
   0   1  -9    1.01    0.08 
   0   1   9    0.94    0.06 
   0   1  -9    0.94    0.07 
  -1  -1  -9   21.53    0.55 
  -1  -1  -9   20.71    0.52 
   1  -1   9   20.64    0.61 
  -1   1  -9   20.90    0.55 
  -1   1  -9   21.00    0.54 
   1   1   9   21.24    0.63 
   1   1   9   20.79    0.52 
  -2  -1  -9   17.20    0.44 
  -2  -1  -9   16.95    0.48 
   2  -1   9   17.70    0.55 
   2   1   9   16.52    0.54 
  -2   1  -9   17.11    0.45 
  -2   1  -9   16.56    0.48 
  -3  -1  -9   22.88    0.63 
   3  -1   9   22.58    0.70 
  -3  -1  -9   22.86    0.57 
  -3   1  -9   23.39    0.61 
   3   1   9   23.54    0.73 
  -3   1  -9   23.18    0.64 
   4  -1   9   33.40    0.96 
  -4  -1  -9   31.35    0.86 
  -4   1  -9   31.36    0.86 
   4   1   9   33.58    0.97 
  -4   1  -9   32.57    0.82 
   5  -1   9    4.92    0.32 
  -5  -1  -9    5.01    0.25 
   5   1   9    4.40    0.31 
  -5   1  -9    5.19    0.26 
  -6  -1  -9   12.66    0.47 
   6  -1   9   13.75    0.59 
  -6   1  -9   13.07    0.47 
   6   1   9   12.46    0.57 
   7  -1   9    4.96    0.39 
  -7  -1  -9    4.72    0.30 
  -7   1  -9    3.61    0.26 
   7   1   9    3.81    0.36 
  -9  -2   9    2.55    0.34 
   9  -2  -9    2.71    0.37 
  -9   2   9    2.96    0.36 
   9   2  -9    1.96    0.33 
   8  -2  -9    0.12    0.14 
  -8  -2   9    0.03    0.13 
   8   2  -9    0.12    0.14 
  -8   2   9    0.20    0.14 
  -7  -2   9    0.80    0.16 
   7  -2  -9    0.73    0.16 
  -7   2   9    0.73    0.17 
   7   2  -9    0.78    0.19 
   6  -2  -9    7.53    0.36 
  -6  -2   9    6.66    0.36 
   6   2  -9    7.64    0.41 
  -6   2   9    7.35    0.39 
   5  -2  -9   14.18    0.39 
  -5  -2   9   14.39    0.52 
   5  -2  -9   14.97    0.51 
  -5  -2   9   15.06    0.43 
   5   2  -9   15.44    0.57 
  -5   2   9   14.93    0.55 
   4  -2  -9   14.95    0.40 
  -4  -2   9   16.01    0.43 
  -4  -2   9   14.89    0.51 
  -4   2   9   15.12    0.53 
   4   2  -9   14.99    0.40 
   4   2  -9   15.59    0.54 
  -4   2   9   15.30    0.48 
  -3  -2   9    4.85    0.23 
  -3  -2   9    4.75    0.19 
   3  -2  -9    4.58    0.16 
  -3   2   9    4.86    0.25 
   3   2  -9    4.91    0.25 
   3   2  -9    5.32    0.18 
   3   2  -9    4.85    0.21 
  -3   2   9    4.81    0.21 
   2  -2  -9   44.01    1.04 
  -2  -2   9   44.13    1.12 
  -2  -2   9   44.95    1.07 
   2   2  -9   44.65    1.05 
  -2   2   9   44.06    1.08 
   2   2  -9   44.18    1.11 
   2   2  -9   44.95    1.09 
  -2   2   9   43.36    1.14 
   1  -2  -9   10.14    0.28 
  -1  -2   9   10.11    0.34 
  -1  -2   9   10.45    0.31 
   1   2  -9    9.75    0.31 
  -1   2   9   10.20    0.31 
   1   2  -9   10.18    0.32 
   1   2  -9   10.31    0.30 
  -1   2   9    9.93    0.36 
   0  -2   9   11.73    0.38 
   0  -2   9   11.63    0.34 
   0  -2  -9   11.27    0.31 
   0  -2  -9   11.81    0.31 
   0   2  -9   11.54    0.33 
   0   2   9   11.59    0.40 
   0   2   9   11.40    0.33 
   0   2  -9   11.48    0.34 
   1  -2   9   40.37    1.04 
  -1  -2  -9   39.78    0.97 
  -1  -2  -9   40.75    0.95 
   1   2   9   40.66    1.07 
  -1   2  -9   39.15    0.97 
   1   2   9   40.38    0.96 
  -1   2  -9   40.13    0.99 
   2  -2   9   13.96    0.46 
  -2  -2  -9   12.75    0.35 
  -2  -2  -9   13.29    0.39 
  -2   2  -9   12.72    0.40 
   2   2   9   13.12    0.47 
  -2   2  -9   13.34    0.38 
  -3  -2  -9    3.19    0.12 
   3  -2   9    3.10    0.21 
  -3  -2  -9    3.08    0.17 
  -3   2  -9    2.91    0.17 
  -3   2  -9    3.23    0.16 
   3   2   9    3.26    0.23 
   4  -2   9    4.85    0.29 
  -4  -2  -9    5.55    0.25 
  -4   2  -9    5.55    0.22 
  -4   2  -9    5.25    0.25 
   4   2   9    5.46    0.31 
  -5  -2  -9    7.74    0.33 
   5  -2   9    7.95    0.40 
   5   2   9    8.77    0.44 
  -5   2  -9    7.57    0.33 
   6  -2   9    5.99    0.38 
  -6  -2  -9    6.02    0.31 
   6   2   9    5.95    0.40 
  -6   2  -9    6.55    0.32 
  -7  -2  -9    1.10    0.17 
   7  -2   9    1.01    0.23 
   7   2   9    1.21    0.24 
  -7   2  -9    1.04    0.17 
   9  -3  -9    0.63    0.22 
  -9  -3   9    0.23    0.17 
   9   3  -9    0.43    0.21 
  -9   3   9    0.75    0.22 
   8  -3  -9    3.66    0.33 
  -8  -3   9    4.25    0.35 
   8   3  -9    4.49    0.40 
  -8   3   9    3.65    0.34 
   7  -3  -9    3.04    0.26 
  -7  -3   9    3.41    0.29 
  -7   3   9    3.05    0.30 
   7   3  -9    3.41    0.33 
   6  -3  -9    8.00    0.38 
  -6  -3   9    7.42    0.38 
   6  -3  -9    7.74    0.25 
  -6  -3   9    7.37    0.29 
  -6   3   9    7.99    0.41 
   6   3  -9    7.78    0.43 
   5  -3  -9    1.57    0.10 
  -5  -3   9    1.68    0.13 
  -5  -3   9    1.44    0.17 
  -5   3   9    1.68    0.16 
  -5   3   9    1.61    0.20 
   5   3  -9    1.71    0.20 
  -4  -3   9   42.74    1.05 
   4  -3  -9   42.13    1.01 
  -4  -3   9   41.95    1.11 
   4   3  -9   43.52    1.18 
  -4   3   9   41.01    1.15 
  -4   3   9   42.43    1.11 
   4   3  -9   42.72    1.02 
  -3  -3   9   32.89    0.83 
  -3  -3   9   31.83    0.86 
   3  -3  -9   31.95    0.79 
   3   3  -9   31.83    0.79 
  -3   3   9   31.23    0.89 
   3   3  -9   32.19    0.84 
  -3   3   9   32.30    0.85 
   3   3  -9   31.85    0.90 
  -2  -3   9    7.20    0.25 
   2  -3  -9    6.83    0.22 
  -2  -3   9    7.20    0.27 
   2   3  -9    7.30    0.29 
  -2   3   9    6.81    0.26 
   2   3  -9    6.54    0.26 
   2   3  -9    6.92    0.23 
  -2   3   9    7.01    0.30 
   1  -3  -9   71.02    1.66 
  -1  -3   9   71.81    1.70 
  -1  -3   9   74.27    1.72 
  -1   3   9   73.08    1.78 
  -1   3   9   73.18    1.72 
   1   3  -9   74.03    1.70 
   1   3  -9   72.57    1.73 
   1   3  -9   72.08    1.72 
   0  -3  -9   11.32    0.32 
   0  -3   9   11.68    0.37 
   0  -3   9   11.41    0.35 
   0  -3  -9   11.80    0.32 
   0   3  -9   11.60    0.35 
   0   3   9   11.40    0.36 
   0   3  -9   11.41    0.35 
   0   3   9   11.80    0.41 
  -1  -3  -9   29.17    0.65 
  -1  -3  -9   26.35    0.67 
   1  -3   9   24.69    0.72 
   1  -3   9   26.58    0.70 
   1   3   9   25.68    0.69 
   1   3   9   26.06    0.75 
  -1   3  -9   26.85    0.69 
  -1   3  -9   26.73    0.67 
  -2  -3  -9   30.24    0.73 
   2  -3   9   30.73    0.84 
  -2  -3  -9   30.03    0.77 
   2   3   9   28.92    0.85 
   2   3   9   29.58    0.78 
  -2   3  -9   29.95    0.77 
  -2   3  -9   29.61    0.78 
   3  -3   9    2.43    0.19 
  -3  -3  -9    2.63    0.16 
   3   3   9    2.68    0.22 
  -3   3  -9    2.47    0.17 
  -3   3  -9    2.64    0.16 
  -4  -3  -9   10.95    0.39 
   4  -3   9   11.73    0.46 
  -4   3  -9   11.43    0.38 
  -4   3  -9   11.15    0.40 
   4   3   9   11.78    0.48 
   5  -3   9    0.87    0.17 
  -5  -3  -9    0.96    0.14 
   5   3   9    0.53    0.14 
  -5   3  -9    0.63    0.12 
  -6  -3  -9    5.13    0.29 
   6  -3   9    5.49    0.37 
  -6   3  -9    5.19    0.29 
   6   3   9    5.39    0.38 
   7  -3   9    8.22    0.49 
  -7  -3  -9    7.29    0.38 
   7   3   9    7.08    0.47 
  -7   3  -9    7.62    0.37 
   8  -4  -9    3.70    0.32 
   8   4  -9    3.24    0.37 
  -8   4   9    3.50    0.34 
   7  -4  -9    4.39    0.32 
  -7  -4   9    4.37    0.23 
  -7   4   9    4.36    0.35 
   7   4  -9    4.04    0.36 
   6  -4  -9    3.58    0.17 
  -6  -4   9    3.88    0.21 
  -6   4   9    3.48    0.25 
  -6   4   9    3.78    0.29 
   6   4  -9    3.43    0.32 
   5  -4  -9   22.36    0.59 
  -5  -4   9   22.81    0.65 
  -5   4   9   22.78    0.71 
  -5   4   9   23.43    0.75 
   5   4  -9   21.67    0.78 
  -4  -4   9   16.83    0.51 
   4  -4  -9   17.40    0.47 
  -4   4   9   16.67    0.55 
   4   4  -9   17.09    0.62 
  -4   4   9   16.51    0.58 
   3  -4  -9   12.01    0.35 
  -3  -4   9   12.40    0.40 
  -3   4   9   12.34    0.43 
   3   4  -9   12.35    0.41 
   3   4  -9   12.59    0.48 
  -3   4   9   12.21    0.45 
   3   4  -9   12.24    0.37 
   2  -4  -9    2.49    0.12 
  -2  -4   9    2.25    0.14 
   2   4  -9    2.21    0.15 
  -2   4   9    2.52    0.16 
   2   4  -9    2.54    0.18 
  -2   4   9    2.21    0.18 
   2   4  -9    2.37    0.14 
  -1  -4   9   17.43    0.51 
   1  -4  -9   17.48    0.46 
  -1   4   9   17.44    0.52 
   1   4  -9   17.31    0.49 
  -1   4   9   17.17    0.55 
   1   4  -9   17.69    0.53 
   1   4  -9   17.63    0.51 
   0  -4   9   16.97    0.50 
   0  -4  -9   17.48    0.45 
   0  -4  -9   16.51    0.45 
   0   4  -9   17.33    0.50 
   0   4   9   17.38    0.52 
   0   4  -9   17.71    0.50 
   0   4   9   17.53    0.55 
  -1  -4  -9    8.47    0.28 
   1  -4   9    8.72    0.31 
  -1  -4  -9    8.93    0.26 
  -1   4  -9    8.60    0.28 
  -1   4  -9    8.38    0.30 
   1   4   9    8.18    0.31 
   1   4   9    8.65    0.35 
   2  -4   9   11.92    0.39 
  -2  -4  -9   13.48    0.34 
  -2  -4  -9   11.78    0.38 
   2   4   9   12.32    0.46 
   2   4   9   11.53    0.41 
  -2   4  -9   11.79    0.35 
  -2   4  -9   11.68    0.38 
  -3  -4  -9   12.38    0.40 
  -3   4  -9   13.08    0.44 
  -3   4  -9   12.82    0.42 
   3   4   9   12.82    0.50 
  -4  -4  -9    5.74    0.27 
  -4   4  -9    5.71    0.28 
  -4   4  -9    5.97    0.26 
   4   4   9    6.24    0.35 
  -5  -4  -9    2.09    0.19 
  -5   4  -9    1.56    0.17 
   5   4   9    1.51    0.22 
  -6  -4  -9   10.83    0.44 
   6   4   9   10.53    0.53 
  -6   4  -9   10.27    0.43 
  -7  -4  -9   18.66    0.66 
  -7   4  -9   19.12    0.66 
   7   4   9   18.36    0.78 
   8  -5  -9   13.75    0.62 
   8   5  -9   13.74    0.72 
  -8   5   9   13.95    0.65 
  -7  -5   9    1.90    0.18 
   7   5  -9    1.67    0.28 
  -7   5   9    1.82    0.22 
  -7   5   9    1.68    0.25 
  -6  -5   9   10.98    0.41 
   6  -5  -9   11.85    0.37 
  -6   5   9   11.50    0.52 
   6   5  -9   11.67    0.58 
  -6   5   9   11.68    0.49 
  -5  -5   9    0.60    0.11 
   5  -5  -9    0.78    0.09 
  -5   5   9    0.44    0.13 
  -5   5   9    0.67    0.13 
   5   5  -9    0.55    0.16 
   4  -5  -9    1.90    0.13 
  -4  -5   9    1.70    0.15 
   4   5  -9    1.97    0.23 
  -4   5   9    1.65    0.18 
  -4   5   9    1.78    0.17 
   3  -5  -9   15.94    0.46 
  -3  -5   9   16.41    0.51 
  -3   5   9   16.14    0.54 
  -3   5   9   16.00    0.56 
   3   5  -9   17.28    0.60 
   3   5  -9   16.89    0.48 
   3   5  -9   16.48    0.53 
  -2  -5   9    8.48    0.32 
   2  -5  -9    8.00    0.27 
   2   5  -9    7.79    0.35 
   2   5  -9    8.52    0.30 
  -2   5   9    8.30    0.34 
  -2   5   9    8.77    0.36 
   2   5  -9    8.46    0.32 
   1  -5  -9    6.73    0.24 
  -1  -5   9    6.86    0.28 
   1   5  -9    7.11    0.27 
   1   5  -9    7.08    0.30 
   1   5  -9    6.44    0.27 
  -1   5   9    6.94    0.31 
  -1   5   9    6.80    0.29 
   0  -5   9   15.63    0.49 
   0  -5  -9   15.70    0.43 
   0   5  -9   15.93    0.48 
   0   5   9   16.14    0.51 
   0   5   9   16.81    0.53 
   0   5  -9   15.44    0.48 
   1  -5   9   13.91    0.46 
  -1  -5  -9   14.09    0.40 
  -1  -5  -9   14.81    0.42 
   1   5   9   14.85    0.49 
  -1   5  -9   14.47    0.46 
   1   5   9   14.76    0.51 
  -1   5  -9   14.22    0.43 
   2  -5   9    4.07    0.21 
  -2  -5  -9    3.95    0.16 
  -2  -5  -9    3.95    0.20 
   2   5   9    3.63    0.23 
   2   5   9    4.18    0.25 
  -2   5  -9    4.18    0.21 
  -2   5  -9    4.06    0.18 
  -3  -5  -9    5.67    0.25 
   3  -5   9    5.28    0.25 
  -3   5  -9    5.73    0.26 
   3   5   9    5.79    0.30 
   3   5   9    5.46    0.31 
  -4  -5  -9    0.99    0.14 
   4  -5   9    0.79    0.12 
  -4   5  -9    0.81    0.13 
   4   5   9    0.80    0.15 
   5  -5   9    8.17    0.35 
  -5  -5  -9    8.24    0.37 
   5   5   9    9.25    0.46 
  -5   5  -9    8.27    0.34 
  -6  -5  -9    0.39    0.13 
  -6   5  -9    0.39    0.12 
  -7  -6   9    4.53    0.28 
  -7   6   9    5.20    0.36 
   7   6  -9    5.59    0.46 
  -6  -6   9    2.75    0.21 
   6  -6  -9    2.99    0.18 
   6   6  -9    2.57    0.32 
  -6   6   9    2.51    0.24 
   5  -6  -9    3.00    0.17 
  -5  -6   9    2.76    0.21 
   5   6  -9    2.74    0.29 
  -5   6   9    3.30    0.25 
   4  -6  -9    4.70    0.21 
  -4  -6   9    4.52    0.25 
   4   6  -9    4.88    0.34 
  -4   6   9    4.77    0.28 
  -3  -6   9   10.36    0.39 
   3  -6  -9    9.71    0.33 
   3   6  -9    9.53    0.34 
  -3   6   9    9.75    0.41 
   3   6  -9   10.21    0.46 
  -2  -6   9    1.27    0.15 
   2  -6  -9    1.26    0.11 
   2   6  -9    1.26    0.18 
   2   6  -9    1.31    0.15 
  -2   6   9    1.30    0.15 
   2   6  -9    1.32    0.12 
  -1  -6   9    1.46    0.14 
   1  -6  -9    1.29    0.11 
  -1   6   9    1.23    0.15 
   1   6  -9    1.12    0.13 
   1   6  -9    1.22    0.18 
   1   6  -9    1.36    0.12 
   0  -6   9   25.37    0.74 
   0  -6  -9   26.07    0.67 
   0   6   9   25.70    0.77 
   0   6  -9   26.21    0.73 
   0   6  -9   25.84    0.72 
  -1  -6  -9    1.53    0.11 
   1  -6   9    1.40    0.15 
  -1   6  -9    1.49    0.13 
   1   6   9    1.18    0.15 
  -1   6  -9    1.63    0.15 
   2  -6   9   13.57    0.48 
  -2  -6  -9   14.64    0.44 
  -2   6  -9   13.80    0.47 
   2   6   9   13.69    0.52 
  -2   6  -9   14.19    0.43 
   3  -6   9    7.90    0.33 
  -3  -6  -9    7.55    0.32 
   3   6   9    7.72    0.38 
  -3   6  -9    7.81    0.28 
  -3   6  -9    7.84    0.33 
  -4  -6  -9    1.37    0.17 
   4  -6   9    1.42    0.16 
  -4   6  -9    1.49    0.17 
   5  -6   9    0.37    0.10 
  -5  -6  -9    0.58    0.14 
  -5   6  -9    0.35    0.10 
   6  -7  -9    5.96    0.27 
  -6  -7   9    6.05    0.33 
   6   7  -9    5.69    0.44 
  -6   7   9    5.25    0.35 
   5  -7  -9    0.44    0.09 
  -5  -7   9    0.39    0.12 
  -5   7   9    0.32    0.13 
   5   7  -9    0.37    0.16 
   4  -7  -9    0.38    0.09 
  -4  -7   9    0.55    0.12 
   4   7  -9    0.53    0.16 
  -4   7   9    0.59    0.14 
  -3  -7   9    3.75    0.24 
   3  -7  -9    3.78    0.20 
  -3   7   9    3.64    0.26 
   3   7  -9    3.67    0.29 
   2  -7  -9    4.91    0.23 
  -2  -7   9    4.91    0.27 
   2   7  -9    5.48    0.33 
  -2   7   9    5.42    0.30 
   2   7  -9    5.42    0.28 
   2   7  -9    5.07    0.25 
  -1  -7   9   14.35    0.51 
   1  -7  -9   15.35    0.45 
   1   7  -9   14.69    0.50 
   1   7  -9   15.30    0.49 
  -1   7   9   14.58    0.54 
   0  -7   9    3.28    0.21 
   0  -7  -9    3.18    0.17 
   0   7  -9    2.82    0.19 
   0   7  -9    3.47    0.21 
   0   7   9    3.08    0.23 
  -1  -7  -9    5.64    0.23 
   1  -7   9    5.76    0.29 
  -1   7  -9    5.79    0.27 
   1   7   9    5.83    0.32 
  -1   7  -9    5.88    0.28 
   2  -7   9    1.94    0.18 
  -2   7  -9    1.85    0.15 
   2   7   9    2.39    0.23 
  -2   7  -9    1.82    0.18 
   3  -7   9   10.38    0.42 
  -3  -7  -9   10.40    0.39 
  -3   7  -9   10.67    0.42 
   3   7   9   11.61    0.51 
  -3   7  -9   11.56    0.39 
  -4  -7  -9    4.17    0.26 
   4  -7   9    4.06    0.27 
  -4   7  -9    3.77    0.25 
  -5  -8   9    0.47    0.13 
   5  -8  -9    0.25    0.09 
   5   8  -9    0.72    0.21 
  -5   8   9    0.41    0.14 
   4  -8  -9    0.79    0.12 
  -4  -8   9    0.60    0.14 
   4   8  -9    0.69    0.19 
  -4   8   9    0.86    0.18 
   3  -8  -9    4.70    0.23 
  -3  -8   9    4.60    0.28 
   3   8  -9    4.61    0.35 
  -3   8   9    4.18    0.30 
   2  -8  -9   14.25    0.46 
  -2  -8   9   13.85    0.52 
   2   8  -9   13.85    0.61 
  -2   8   9   13.40    0.55 
   2   8  -9   14.56    0.52 
   2   8  -9   13.92    0.47 
  -1  -8   9    6.71    0.34 
   1  -8  -9    7.01    0.28 
   1   8  -9    6.64    0.33 
  -1   8   9    6.84    0.36 
   1   8  -9    6.71    0.30 
   0  -8  -9    1.18    0.13 
   0  -8   9    1.28    0.17 
   0   8  -9    0.96    0.14 
   0   8  -9    1.13    0.15 
   0   8   9    1.01    0.18 
  -1  -8  -9    0.74    0.10 
   1  -8   9    0.70    0.14 
   1   8   9    1.08    0.18 
  -1   8  -9    0.79    0.13 
  -1   8  -9    0.85    0.13 
   2  -8   9    9.85    0.42 
  -2   8  -9   10.27    0.42 
   2   8   9   10.15    0.48 
  -2   8  -9   11.03    0.40 
   3  -8   9    0.11    0.09 
  -3   8  -9    0.20    0.11 
   3   8   9    0.20    0.12 
  -3   8  -9    0.21    0.09 
   2  -9  -9    0.15    0.09 
  -2  -9   9    0.14    0.10 
   2   9  -9    0.26    0.09 
  -2   9   9    0.33    0.13 
  -1  -9   9    9.26    0.42 
   1  -9  -9    9.06    0.35 
   1   9  -9    8.63    0.40 
  -1   9   9    8.94    0.45 
   1   9  -9    8.56    0.37 
   0  -9  -9    5.29    0.26 
   0  -9   9    5.26    0.32 
   0   9  -9    5.01    0.28 
   0   9   9    5.39    0.35 
   0   9  -9    5.57    0.30 
   1  -9   9    6.58    0.35 
   1   9   9    6.81    0.39 
  -1   9  -9    7.05    0.34 
  -1   9  -9    6.76    0.34 
  -9   0  10    1.47    0.29 
   9   0 -10    1.17    0.25 
  -8   0  10    1.06    0.21 
   8   0 -10    0.89    0.22 
   7   0 -10    1.89    0.26 
  -7   0  10    1.85    0.25 
  -6   0  10    2.74    0.24 
   6   0 -10    1.95    0.22 
  -5   0  10   51.40    1.40 
   5   0 -10   53.18    1.22 
   5   0 -10   53.22    1.40 
  -4   0  10    4.76    0.27 
   4   0 -10    4.31    0.24 
   4   0 -10    4.96    0.16 
  -3   0  10   30.87    0.87 
   3   0 -10   31.00    0.74 
   3   0 -10   30.64    0.83 
   2   0 -10   43.85    1.08 
   2   0 -10   43.97    1.03 
  -2   0  10   44.69    1.03 
   2   0 -10   43.31    1.08 
  -2   0  10   45.09    1.15 
   1   0 -10    3.53    0.14 
   1   0 -10    3.51    0.13 
   1   0 -10    3.61    0.14 
  -1   0  10    3.46    0.20 
   0   0 -10    5.28    0.18 
   0   0 -10    5.43    0.19 
   0   0  10    5.47    0.25 
  -1   0 -10    1.67    0.11 
   1   0  10    1.46    0.15 
  -1   0 -10    1.64    0.09 
  -2   0 -10   28.69    0.71 
  -2   0 -10   28.40    0.74 
   2   0  10   28.57    0.83 
  -3   0 -10    6.55    0.26 
  -3   0 -10    6.53    0.23 
   3   0  10    6.54    0.33 
  -4   0 -10   52.11    1.31 
   4   0  10   51.74    1.41 
  -5   0 -10    4.88    0.26 
   5   0  10    5.26    0.34 
  -6   0 -10    1.02    0.15 
   6   0  10    0.92    0.21 
   7   0  10    6.44    0.46 
  -7   0 -10    7.10    0.36 
  -9  -1  10   10.25    0.56 
   9  -1 -10    9.27    0.57 
   9   1 -10    9.28    0.58 
  -9   1  10   10.83    0.58 
   8  -1 -10    0.19    0.14 
  -8  -1  10   -0.05    0.12 
  -8   1  10   -0.02    0.12 
   8   1 -10   -0.06    0.13 
  -7  -1  10   14.92    0.61 
   7  -1 -10   14.63    0.61 
  -7   1  10   14.32    0.60 
   7   1 -10   14.40    0.63 
   6  -1 -10   19.22    0.67 
  -6  -1  10   18.85    0.67 
   6   1 -10   18.72    0.70 
  -6   1  10   19.97    0.69 
   5  -1 -10   52.69    1.22 
   5  -1 -10   52.22    1.38 
  -5  -1  10   52.94    1.40 
  -5   1  10   54.42    1.43 
   5   1 -10   52.59    1.44 
  -4  -1  10   35.76    0.98 
   4  -1 -10   35.38    0.94 
   4  -1 -10   34.20    0.83 
   4   1 -10   34.66    0.82 
  -4   1  10   35.15    0.98 
   4   1 -10   33.78    0.97 
   3  -1 -10    3.75    0.14 
  -3  -1  10    3.71    0.22 
  -3  -1  10    3.82    0.15 
   3  -1 -10    3.71    0.19 
   3   1 -10    3.73    0.14 
   3   1 -10    3.28    0.20 
  -3   1  10    3.70    0.22 
   2  -1 -10   24.37    0.60 
  -2  -1  10   24.31    0.61 
  -2  -1  10   25.36    0.70 
   2   1 -10   24.85    0.65 
   2   1 -10   24.37    0.60 
   2   1 -10   24.28    0.66 
  -2   1  10   23.59    0.70 
  -2   1  10   24.67    0.63 
   1  -1 -10   50.48    1.12 
  -1  -1  10   47.19    1.13 
  -1  -1  10   47.00    1.21 
   1  -1 -10   47.75    1.11 
   1   1 -10   46.13    1.13 
  -1   1  10   47.60    1.21 
  -1   1  10   47.99    1.12 
   1   1 -10   46.69    1.14 
   1   1 -10   47.91    1.11 
   0  -1 -10    8.59    0.25 
   0  -1 -10    8.50    0.25 
   0  -1  10    8.09    0.32 
   0   1 -10    8.50    0.26 
   0   1 -10    8.69    0.27 
   0   1  10    8.30    0.33 
   0   1  10    8.51    0.24 
  -1  -1 -10    2.06    0.10 
  -1  -1 -10    2.24    0.12 
   1  -1  10    2.30    0.17 
  -1   1 -10    2.05    0.11 
  -1   1 -10    2.35    0.13 
   1   1  10    2.05    0.17 
  -2  -1 -10    4.28    0.19 
   2  -1  10    4.49    0.25 
  -2  -1 -10    4.05    0.15 
   2   1  10    4.44    0.25 
  -2   1 -10    4.42    0.20 
  -2   1 -10    4.35    0.18 
  -3  -1 -10    0.34    0.07 
   3  -1  10    0.26    0.10 
  -3  -1 -10    0.35    0.06 
   3   1  10    0.47    0.12 
  -3   1 -10    0.22    0.06 
  -3   1 -10    0.34    0.08 
   4  -1  10   30.70    0.92 
  -4  -1 -10   28.78    0.81 
   4   1  10   31.55    0.95 
  -4   1 -10   30.14    0.84 
   5  -1  10    1.42    0.21 
  -5  -1 -10    1.30    0.15 
  -5   1 -10    1.34    0.16 
   5   1  10    1.25    0.21 
   6  -1  10    6.91    0.43 
  -6  -1 -10    7.02    0.34 
   6   1  10    7.33    0.44 
  -6   1 -10    7.19    0.35 
  -7  -1 -10    1.95    0.22 
   7  -1  10    2.27    0.31 
  -7   1 -10    2.21    0.22 
   7   1  10    2.71    0.34 
   9  -2 -10    2.48    0.35 
  -9  -2  10    1.97    0.30 
  -9   2  10    2.63    0.35 
   9   2 -10    1.96    0.32 
  -8  -2  10   13.38    0.61 
   8  -2 -10   14.39    0.64 
  -8   2  10   14.54    0.66 
   8   2 -10   14.65    0.69 
  -7  -2  10    1.32    0.21 
   7  -2 -10    1.31    0.21 
   7   2 -10    1.26    0.23 
  -7   2  10    1.48    0.23 
  -6  -2  10    5.12    0.32 
   6  -2 -10    5.39    0.31 
  -6   2  10    5.31    0.34 
   6   2 -10    5.48    0.35 
  -5  -2  10    0.59    0.08 
  -5  -2  10    0.45    0.12 
   5  -2 -10    0.71    0.13 
   5  -2 -10    0.78    0.07 
  -5   2  10    0.61    0.14 
   5   2 -10    0.89    0.16 
  -4  -2  10   27.40    0.79 
  -4  -2  10   27.40    0.70 
   4  -2 -10   26.55    0.67 
   4   2 -10   27.55    0.83 
  -4   2  10   26.60    0.76 
  -4   2  10   27.38    0.83 
   4   2 -10   28.42    0.68 
   3  -2 -10   16.36    0.42 
  -3  -2  10   15.99    0.52 
  -3  -2  10   15.64    0.45 
   3   2 -10   15.87    0.48 
  -3   2  10   15.26    0.47 
   3   2 -10   16.40    0.52 
   3   2 -10   15.60    0.42 
  -3   2  10   15.35    0.53 
   2  -2 -10   58.14    1.36 
  -2  -2  10   57.74    1.45 
  -2  -2  10   60.65    1.39 
  -2   2  10   58.20    1.39 
   2   2 -10   56.67    1.41 
  -2   2  10   58.65    1.46 
   2   2 -10   55.97    1.35 
   2   2 -10   58.72    1.39 
  -1  -2  10   47.07    1.19 
   1  -2 -10   46.71    1.08 
  -1  -2  10   47.61    1.13 
   1  -2 -10   47.11    1.10 
   1   2 -10   47.35    1.14 
   1   2 -10   47.36    1.12 
  -1   2  10   46.56    1.21 
  -1   2  10   47.37    1.13 
   1   2 -10   45.60    1.13 
   0  -2 -10   24.15    0.60 
   0  -2  10   24.73    0.63 
   0  -2  10   23.81    0.68 
   0  -2 -10   24.36    0.60 
   0   2  10   23.83    0.61 
   0   2 -10   23.95    0.62 
   0   2 -10   23.84    0.63 
   0   2  10   24.09    0.71 
  -1  -2 -10   51.11    1.20 
  -1  -2 -10   51.01    1.23 
   1  -2  10   53.18    1.31 
   1   2  10   51.53    1.33 
  -1   2 -10   51.86    1.26 
  -1   2 -10   51.99    1.24 
  -2  -2 -10    3.33    0.17 
  -2  -2 -10    3.49    0.14 
   2  -2  10    3.69    0.22 
  -2   2 -10    3.33    0.18 
  -2   2 -10    3.67    0.17 
   2   2  10    3.26    0.23 
   3  -2  10    8.06    0.36 
  -3  -2 -10    8.49    0.31 
  -3  -2 -10    8.59    0.25 
  -3   2 -10    7.66    0.28 
  -3   2 -10    8.60    0.32 
   3   2  10    8.65    0.39 
  -4  -2 -10   34.64    0.92 
   4  -2  10   34.17    1.01 
  -4   2 -10   33.86    0.86 
  -4   2 -10   31.63    0.90 
   4   2  10   34.88    1.02 
   5  -2  10   14.62    0.59 
  -5  -2 -10   14.22    0.49 
   5   2  10   15.25    0.61 
  -5   2 -10   14.19    0.50 
   6  -2  10    3.96    0.34 
  -6  -2 -10    3.86    0.25 
   6   2  10    3.97    0.34 
  -6   2 -10    3.74    0.26 
   7  -2  10    8.28    0.50 
  -7  -2 -10    8.26    0.40 
  -7   2 -10    8.78    0.41 
   7   2  10    7.97    0.52 
  -9   3  10    4.79    0.44 
  -8  -3  10    0.05    0.13 
   8  -3 -10   -0.05    0.11 
  -8   3  10    0.01    0.13 
   8   3 -10   -0.04    0.14 
   7  -3 -10    3.35    0.28 
  -7  -3  10    3.72    0.30 
   7   3 -10    3.18    0.33 
  -7   3  10    3.49    0.31 
   6  -3 -10    4.52    0.29 
  -6  -3  10    5.32    0.32 
   6  -3 -10    4.84    0.19 
  -6   3  10    5.45    0.34 
   6   3 -10    5.09    0.36 
   5  -3 -10    0.44    0.06 
  -5  -3  10    0.34    0.08 
  -5  -3  10    0.34    0.10 
  -5   3  10    0.51    0.10 
   5   3 -10    0.59    0.15 
  -5   3  10    0.37    0.11 
  -4  -3  10    5.82    0.23 
  -4  -3  10    5.67    0.28 
   4  -3 -10    5.50    0.20 
   4   3 -10    4.95    0.30 
   4   3 -10    5.28    0.20 
  -4   3  10    5.60    0.26 
  -4   3  10    5.49    0.30 
   3  -3 -10   40.56    1.00 
  -3  -3  10   42.88    1.05 
  -3  -3  10   41.95    1.09 
  -3   3  10   42.08    1.09 
   3   3 -10   42.26    1.02 
   3   3 -10   42.31    1.07 
   3   3 -10   42.07    1.13 
  -3   3  10   41.76    1.14 
  -2  -3  10    1.88    0.15 
  -2  -3  10    2.17    0.13 
   2  -3 -10    1.83    0.10 
   2   3 -10    1.85    0.13 
  -2   3  10    2.06    0.14 
   2   3 -10    1.99    0.16 
  -2   3  10    1.74    0.16 
   2   3 -10    1.71    0.11 
  -1  -3  10   35.91    0.90 
  -1  -3  10   35.28    0.92 
   1  -3 -10   36.17    0.86 
  -1   3  10   35.23    0.90 
   1   3 -10   35.34    0.88 
   1   3 -10   36.18    0.91 
  -1   3  10   35.52    0.97 
   0  -3  10    2.83    0.15 
   0  -3 -10    2.89    0.13 
   0  -3 -10    2.83    0.13 
   0  -3  10    2.71    0.17 
   0   3  10    3.01    0.15 
   0   3 -10    2.76    0.15 
   0   3  10    2.69    0.19 
   0   3 -10    2.91    0.15 
   1  -3  10    5.69    0.26 
  -1  -3 -10    5.77    0.21 
  -1  -3 -10    5.81    0.19 
   1  -3  10    5.81    0.23 
   1   3  10    5.79    0.29 
  -1   3 -10    5.47    0.22 
   1   3  10    5.57    0.22 
  -1   3 -10    5.68    0.22 
   2  -3  10    8.82    0.35 
  -2  -3 -10    8.74    0.30 
  -2  -3 -10    8.43    0.26 
  -2   3 -10    8.57    0.30 
  -2   3 -10    8.94    0.32 
   2   3  10    8.55    0.38 
   3  -3  10   11.16    0.43 
  -3  -3 -10   10.82    0.37 
  -3   3 -10   10.52    0.38 
  -3   3 -10   11.61    0.37 
   3   3  10   11.00    0.46 
   4  -3  10    3.48    0.25 
  -4  -3 -10    2.91    0.20 
  -4   3 -10    3.04    0.20 
  -4   3 -10    2.63    0.17 
   4   3  10    3.26    0.27 
   5  -3  10    9.87    0.47 
  -5  -3 -10   10.41    0.40 
   5   3  10   10.35    0.49 
  -5   3 -10    9.96    0.40 
  -6  -3 -10    0.49    0.13 
   6  -3  10    0.33    0.16 
   6   3  10    0.41    0.15 
  -6   3 -10    0.40    0.12 
   7  -3  10    4.46    0.40 
  -7  -3 -10    5.20    0.32 
   7   3  10    4.06    0.38 
  -7   3 -10    4.68    0.30 
   8  -4 -10    0.44    0.17 
   8   4 -10    0.16    0.18 
  -8   4  10    0.10    0.15 
   7  -4 -10    0.20    0.12 
  -7   4  10    0.13    0.12 
   7   4 -10    0.20    0.17 
  -6  -4  10    2.81    0.18 
   6  -4 -10    2.62    0.15 
  -6   4  10    2.59    0.22 
   6   4 -10    2.60    0.29 
  -6   4  10    2.95    0.28 
  -5  -4  10    2.69    0.18 
   5  -4 -10    2.77    0.14 
  -5   4  10    2.67    0.21 
   5   4 -10    2.65    0.26 
  -5   4  10    2.38    0.23 
   4  -4 -10    4.02    0.17 
  -4  -4  10    4.46    0.21 
  -4   4  10    3.86    0.26 
  -4   4  10    3.66    0.22 
   4   4 -10    4.01    0.29 
   3  -4 -10    5.03    0.19 
  -3  -4  10    5.02    0.23 
   3   4 -10    4.99    0.20 
  -3   4  10    4.90    0.24 
   3   4 -10    5.10    0.28 
  -3   4  10    4.74    0.27 
   3   4 -10    4.78    0.24 
   2  -4 -10   26.25    0.66 
  -2  -4  10   24.92    0.69 
   2   4 -10   26.36    0.71 
  -2   4  10   27.43    0.76 
  -2   4  10   27.42    0.80 
   2   4 -10   27.57    0.75 
   2   4 -10   27.20    0.78 
   1  -4 -10   27.29    0.69 
  -1  -4  10   27.56    0.74 
  -1   4  10   27.00    0.75 
   1   4 -10   29.42    0.75 
   1   4 -10   27.29    0.73 
  -1   4  10   26.75    0.80 
   0  -4  10   14.46    0.45 
   0  -4 -10   14.37    0.40 
   0   4  10   14.53    0.45 
   0   4 -10   14.43    0.44 
   0   4 -10   14.49    0.44 
   0   4  10   14.67    0.50 
  -1  -4 -10    7.70    0.27 
   1  -4  10    8.19    0.30 
  -1  -4 -10    7.90    0.25 
  -1   4 -10    8.23    0.28 
  -1   4 -10    7.43    0.29 
   1   4  10    7.83    0.30 
   1   4  10    8.13    0.35 
  -2  -4 -10   62.84    1.46 
  -2  -4 -10   62.04    1.50 
   2  -4  10   63.13    1.53 
  -2   4 -10   61.15    1.51 
   2   4  10   62.88    1.60 
  -2   4 -10   61.68    1.47 
  -3  -4 -10    6.49    0.27 
   3   4  10    6.63    0.35 
  -3   4 -10    6.31    0.27 
  -3   4 -10    6.71    0.29 
  -4  -4 -10    1.22    0.14 
   4   4  10    1.29    0.20 
  -4   4 -10    0.76    0.11 
  -4   4 -10    1.16    0.14 
  -5  -4 -10    3.57    0.24 
  -5   4 -10    2.94    0.22 
   5   4  10    2.51    0.28 
  -6  -4 -10    2.81    0.24 
  -6   4 -10    3.02    0.24 
   6   4  10    3.10    0.32 
   8  -5 -10    8.22    0.53 
   8   5 -10    7.64    0.55 
  -8   5  10    7.43    0.48 
  -7  -5  10    3.86    0.24 
   7   5 -10    3.03    0.36 
  -7   5  10    3.22    0.33 
  -7   5  10    3.61    0.30 
  -6  -5  10    9.81    0.37 
   6  -5 -10    8.20    0.30 
  -6   5  10    8.55    0.44 
  -6   5  10    8.81    0.42 
   6   5 -10    8.87    0.50 
  -5  -5  10    1.06    0.14 
   5  -5 -10    1.31    0.12 
   5   5 -10    1.40    0.23 
  -5   5  10    1.27    0.17 
  -5   5  10    1.42    0.20 
  -4  -5  10    6.13    0.27 
   4  -5 -10    5.94    0.23 
  -4   5  10    6.20    0.31 
   4   5 -10    5.66    0.35 
  -4   5  10    5.95    0.33 
   3  -5 -10    2.66    0.15 
  -3  -5  10    2.86    0.18 
  -3   5  10    2.71    0.21 
   3   5 -10    2.62    0.16 
   3   5 -10    2.60    0.22 
  -3   5  10    2.49    0.19 
  -2  -5  10    2.70    0.18 
   2  -5 -10    3.10    0.15 
   2   5 -10    3.13    0.21 
   2   5 -10    2.74    0.16 
   2   5 -10    2.81    0.19 
  -2   5  10    3.01    0.20 
  -2   5  10    3.10    0.22 
  -1  -5  10    8.20    0.32 
   1  -5 -10    7.60    0.26 
   1   5 -10    7.56    0.30 
   1   5 -10    7.90    0.29 
  -1   5  10    7.75    0.34 
  -1   5  10    7.58    0.32 
   0  -5 -10    7.83    0.26 
   0  -5  10    7.69    0.31 
   0   5  10    8.38    0.35 
   0   5 -10    7.62    0.30 
   0   5 -10    7.98    0.30 
   0   5  10    8.36    0.33 
  -1  -5 -10    5.67    0.21 
   1  -5  10    5.39    0.25 
   1   5  10    5.88    0.27 
  -1   5 -10    5.36    0.23 
   1   5  10    5.47    0.29 
  -1   5 -10    5.59    0.25 
  -2  -5 -10   31.27    0.83 
   2  -5  10   32.17    0.86 
  -2  -5 -10   31.05    0.78 
  -2   5 -10   31.00    0.85 
   2   5  10   31.61    0.89 
  -2   5 -10   31.54    0.82 
   2   5  10   32.03    0.93 
  -3  -5 -10    9.17    0.35 
   3  -5  10    9.34    0.36 
  -3   5 -10    9.49    0.36 
   3   5  10   10.07    0.45 
  -3   5 -10    9.73    0.32 
   4  -5  10    4.08    0.23 
  -4  -5 -10    4.61    0.25 
  -4   5 -10    4.11    0.23 
   4   5  10    3.58    0.29 
   5  -5  10    2.68    0.20 
  -5  -5 -10    2.57    0.22 
  -5   5 -10    2.57    0.21 
   5   5  10    2.51    0.27 
  -6  -5 -10    0.68    0.15 
   6   5  10    0.38    0.22 
  -6   5 -10    0.54    0.14 
  -7  -6  10    1.19    0.16 
  -7   6  10    0.61    0.16 
   7   6 -10    0.61    0.22 
  -6  -6  10    0.48    0.12 
   6  -6 -10    0.62    0.11 
   6   6 -10    0.68    0.20 
  -6   6  10    0.38    0.13 
   5  -6 -10    0.55    0.10 
  -5  -6  10    0.70    0.12 
   5   6 -10    0.84    0.20 
  -5   6  10    0.84    0.16 
   4  -6 -10    4.78    0.22 
  -4  -6  10    4.37    0.25 
  -4   6  10    4.94    0.30 
   4   6 -10    4.48    0.33 
   3  -6 -10    1.32    0.12 
  -3  -6  10    1.69    0.16 
  -3   6  10    1.84    0.18 
   3   6 -10    1.52    0.20 
   3   6 -10    1.68    0.14 
   2  -6 -10   22.68    0.62 
  -2  -6  10   23.16    0.69 
   2   6 -10   21.50    0.61 
   2   6 -10   18.76    0.64 
  -2   6  10   22.14    0.68 
   2   6 -10   22.03    0.71 
  -1  -6  10   12.61    0.44 
   1  -6 -10   12.31    0.38 
   1   6 -10   12.81    0.44 
   1   6 -10   11.99    0.41 
  -1   6  10   12.22    0.46 
   0  -6  10    6.14    0.29 
   0  -6 -10    5.87    0.23 
   0   6 -10    5.98    0.27 
   0   6  10    6.46    0.31 
   0   6 -10    6.82    0.28 
  -1  -6 -10    2.58    0.14 
   1  -6  10    2.39    0.18 
  -1   6 -10    2.53    0.17 
  -1   6 -10    2.40    0.17 
   1   6  10    2.31    0.19 
   2  -6  10    6.94    0.32 
   2   6  10    6.39    0.33 
  -2   6 -10    6.39    0.26 
  -2   6 -10    5.90    0.29 
  -3  -6 -10    0.08    0.08 
   3  -6  10    0.01    0.07 
  -3   6 -10    0.18    0.10 
  -3   6 -10    0.18    0.07 
  -4  -6 -10   16.74    0.55 
   4  -6  10   16.18    0.55 
  -4   6 -10   17.81    0.58 
   5  -6  10    4.04    0.26 
  -5  -6 -10    4.10    0.28 
  -5   6 -10    4.08    0.25 
   6  -7 -10   11.99    0.43 
  -6  -7  10   14.62    0.52 
  -6   7  10   13.13    0.58 
  -5  -7  10    1.41    0.19 
   5  -7 -10    1.40    0.14 
   5   7 -10    1.19    0.22 
  -5   7  10    1.61    0.22 
   4  -7 -10    0.27    0.08 
  -4  -7  10    0.39    0.11 
   4   7 -10    0.25    0.13 
  -4   7  10    0.38    0.13 
  -3  -7  10    0.42    0.11 
   3  -7 -10    0.55    0.10 
  -3   7  10    0.51    0.13 
   3   7 -10    0.62    0.16 
   3   7 -10    0.40    0.10 
   2  -7 -10    4.75    0.22 
  -2  -7  10    4.73    0.27 
   2   7 -10    4.87    0.24 
  -2   7  10    4.34    0.28 
   2   7 -10    5.00    0.27 
  -1  -7  10    2.62    0.20 
   1  -7 -10    2.30    0.16 
   1   7 -10    2.79    0.20 
  -1   7  10    2.44    0.21 
   1   7 -10    2.62    0.19 
   0  -7  10    0.26    0.09 
   0  -7 -10    0.16    0.07 
   0   7 -10    0.13    0.07 
   0   7 -10    0.14    0.08 
   0   7  10    0.25    0.10 
   1  -7  10    1.10    0.15 
  -1  -7 -10    1.06    0.12 
  -1   7 -10    0.89    0.14 
   1   7  10    0.80    0.15 
  -1   7 -10    1.07    0.14 
   2  -7  10    1.94    0.19 
   2   7  10    2.05    0.21 
  -2   7 -10    1.95    0.18 
  -2   7 -10    1.57    0.15 
   3  -7  10    5.76    0.31 
  -3   7 -10    6.55    0.32 
  -3   7 -10    6.46    0.28 
  -4  -7 -10    1.22    0.17 
   4  -7  10    1.03    0.16 
  -4   7 -10    1.31    0.17 
  -4  -8  10    0.66    0.14 
   4  -8 -10    0.94    0.13 
  -4   8  10    0.94    0.19 
   4   8 -10    0.36    0.15 
  -3  -8  10   -0.04    0.07 
   3  -8 -10    0.19    0.08 
  -3   8  10    0.05    0.10 
   3   8 -10    0.03    0.13 
   2  -8 -10    0.15    0.08 
  -2  -8  10    0.14    0.09 
   2   8 -10   -0.05    0.09 
  -2   8  10    0.07    0.10 
   2   8 -10    0.20    0.09 
  -1  -8  10    7.03    0.35 
   1  -8 -10    7.54    0.30 
  -1   8  10    7.93    0.39 
   1   8 -10    7.08    0.32 
   1   8 -10    7.06    0.34 
   0  -8  10    8.15    0.38 
   0  -8 -10    7.43    0.30 
   0   8 -10    7.15    0.33 
   0   8 -10    7.42    0.34 
   0   8  10    7.35    0.38 
  -1  -8 -10    1.03    0.13 
   1  -8  10    1.05    0.16 
  -1   8 -10    1.06    0.15 
   1   8  10    0.98    0.17 
  -1   8 -10    0.68    0.13 
   2  -8  10    0.51    0.13 
  -2   8 -10    0.44    0.12 
   2   8  10    0.56    0.14 
  -2   8 -10    0.58    0.12 
   3  -8  10    3.13    0.25 
  -3   8 -10    3.13    0.24 
  -3   8 -10    3.10    0.21 
  -2  -9  10    0.40    0.19 
  -2   9  10    0.37    0.14 
   1  -9 -10    1.41    0.15 
  -1  -9  10    1.11    0.18 
  -1   9  10    1.17    0.20 
   1   9 -10    1.20    0.16 
   1   9 -10    1.38    0.18 
   0  -9 -10   -0.10    0.07 
   0  -9  10   -0.11    0.08 
   0   9  10   -0.07    0.09 
   0   9 -10    0.03    0.08 
   0   9 -10    0.01    0.09 
  -9   0  11    2.70    0.36 
   9   0 -11    3.08    0.38 
  -8   0  11    7.46    0.46 
   8   0 -11    7.56    0.49 
  -7   0  11    5.14    0.35 
   7   0 -11    4.79    0.37 
  -6   0  11    8.11    0.41 
   6   0 -11    8.58    0.43 
   5   0 -11    7.67    0.23 
  -5   0  11    7.20    0.37 
   5   0 -11    8.21    0.37 
  -4   0  11   16.40    0.56 
   4   0 -11   15.43    0.53 
   4   0 -11   15.88    0.42 
  -3   0  11    1.74    0.16 
   3   0 -11    1.55    0.09 
   3   0 -11    1.53    0.13 
   2   0 -11    3.75    0.15 
  -2   0  11    4.07    0.23 
   2   0 -11    3.93    0.18 
   2   0 -11    3.98    0.18 
  -2   0  11    4.13    0.14 
   1   0 -11    0.35    0.05 
   1   0 -11    0.29    0.05 
  -1   0  11    0.19    0.07 
   0   0 -11   13.32    0.36 
   0   0  11   12.59    0.45 
   0   0 -11   13.03    0.37 
  -1   0 -11   20.34    0.53 
  -1   0 -11   20.71    0.56 
   1   0  11   20.85    0.64 
  -2   0 -11   19.00    0.51 
   2   0  11   19.21    0.63 
  -2   0 -11   19.81    0.55 
  -3   0 -11   17.30    0.53 
  -3   0 -11   17.56    0.48 
   3   0  11   17.15    0.61 
  -4   0 -11   11.64    0.41 
   4   0  11   11.09    0.49 
   5   0  11    2.19    0.25 
  -5   0 -11    2.21    0.19 
   6   0  11    2.30    0.29 
  -6   0 -11    2.33    0.22 
  -7   0 -11    2.72    0.26 
   7   0  11    2.87    0.36 
  -9  -1  11    0.32    0.19 
   9  -1 -11    0.41    0.19 
   9   1 -11    0.89    0.24 
  -9   1  11    0.49    0.19 
   8  -1 -11    0.18    0.16 
  -8  -1  11    0.26    0.14 
   8   1 -11    0.45    0.19 
  -8   1  11    0.26    0.15 
   7  -1 -11   11.75    0.54 
  -7  -1  11   11.51    0.53 
  -7   1  11   11.25    0.53 
   7   1 -11   10.96    0.54 
   6  -1 -11    1.29    0.20 
  -6  -1  11    1.01    0.17 
  -6   1  11    1.03    0.18 
   6   1 -11    1.24    0.21 
   5  -1 -11   21.10    0.54 
  -5  -1  11   20.74    0.69 
   5  -1 -11   21.47    0.68 
   5   1 -11   21.08    0.72 
  -5   1  11   21.45    0.71 
   4  -1 -11    9.44    0.37 
  -4  -1  11   10.45    0.42 
   4  -1 -11   10.42    0.29 
  -4   1  11   10.18    0.42 
   4   1 -11   10.37    0.42 
   4   1 -11   10.28    0.29 
  -3  -1  11    1.02    0.08 
   3  -1 -11    0.94    0.11 
  -3  -1  11    1.18    0.15 
   3  -1 -11    0.96    0.07 
   3   1 -11    1.00    0.13 
   3   1 -11    0.92    0.07 
  -3   1  11    0.94    0.14 
  -2  -1  11    3.63    0.21 
  -2  -1  11    4.01    0.16 
   2  -1 -11    3.51    0.14 
   2   1 -11    3.81    0.18 
   2   1 -11    3.85    0.19 
   2   1 -11    3.98    0.15 
  -2   1  11    3.65    0.22 
  -2   1  11    3.86    0.17 
   1  -1 -11    2.67    0.12 
  -1  -1  11    2.62    0.18 
  -1  -1  11    2.79    0.13 
   1  -1 -11    2.77    0.12 
  -1   1  11    2.56    0.12 
  -1   1  11    2.69    0.19 
   1   1 -11    2.76    0.12 
   1   1 -11    2.70    0.15 
   0  -1  11   13.83    0.47 
   0  -1 -11   14.05    0.38 
   0  -1 -11   14.16    0.39 
   0   1 -11   14.23    0.40 
   0   1 -11   13.36    0.38 
   0   1  11   13.39    0.47 
  -1  -1 -11   15.64    0.44 
  -1  -1 -11   15.15    0.41 
   1  -1  11   15.76    0.52 
   1   1  11   15.13    0.52 
  -1   1 -11   16.09    0.45 
  -1   1 -11   15.11    0.43 
   2  -1  11    8.33    0.36 
  -2  -1 -11    7.84    0.29 
  -2  -1 -11    8.41    0.25 
  -2   1 -11    8.15    0.30 
  -2   1 -11    7.87    0.27 
   2   1  11    7.94    0.36 
   3  -1  11   29.64    0.90 
  -3  -1 -11   30.31    0.74 
  -3  -1 -11   29.74    0.80 
  -3   1 -11   30.17    0.81 
   3   1  11   30.76    0.91 
  -3   1 -11   29.32    0.77 
  -4  -1 -11    1.50    0.15 
   4  -1  11    2.05    0.22 
  -4   1 -11    1.30    0.15 
   4   1  11    1.46    0.20 
   5  -1  11    3.24    0.28 
  -5  -1 -11    2.60    0.21 
  -5   1 -11    3.04    0.22 
   5   1  11    2.59    0.27 
   6  -1  11    3.49    0.34 
  -6  -1 -11    3.28    0.25 
   6   1  11    3.70    0.32 
  -6   1 -11    2.97    0.24 
   7  -1  11    5.88    0.45 
  -7  -1 -11    5.19    0.32 
   7   1  11    5.72    0.43 
  -7   1 -11    5.97    0.34 
   9  -2 -11    1.60    0.29 
  -9  -2  11    1.96    0.30 
  -9   2  11    2.08    0.32 
   9   2 -11    2.33    0.36 
   8  -2 -11    6.13    0.43 
  -8  -2  11    5.61    0.40 
  -8   2  11    5.92    0.43 
   8   2 -11    5.87    0.45 
  -7  -2  11    2.16    0.25 
   7  -2 -11    2.48    0.27 
  -7   2  11    2.35    0.28 
   7   2 -11    2.35    0.29 
   6  -2 -11   26.49    0.84 
  -6  -2  11   27.06    0.86 
  -6   2  11   27.99    0.89 
   6   2 -11   25.50    0.89 
   5  -2 -11   45.54    1.20 
   5  -2 -11   42.34    1.05 
  -5  -2  11   45.08    1.22 
  -5   2  11   44.56    1.26 
   5   2 -11   44.99    1.27 
  -4  -2  11    1.28    0.10 
   4  -2 -11    1.15    0.08 
  -4  -2  11    1.39    0.16 
  -4   2  11    1.22    0.13 
  -4   2  11    1.37    0.17 
   4   2 -11    1.29    0.09 
   4   2 -11    1.32    0.17 
  -3  -2  11    0.06    0.07 
   3  -2 -11    0.04    0.03 
  -3  -2  11    0.07    0.04 
  -3   2  11    0.05    0.06 
   3   2 -11    0.16    0.07 
  -3   2  11    0.02    0.04 
   3   2 -11    0.05    0.04 
   2  -2 -11   16.60    0.44 
  -2  -2  11   16.39    0.46 
  -2  -2  11   16.82    0.53 
   2   2 -11   16.39    0.49 
   2   2 -11   17.00    0.45 
   2   2 -11   16.53    0.50 
  -2   2  11   16.70    0.55 
  -2   2  11   16.13    0.47 
  -1  -2  11   46.47    1.20 
   1  -2 -11   46.81    1.11 
  -1  -2  11   47.87    1.14 
  -1   2  11   46.83    1.13 
  -1   2  11   45.79    1.22 
   1   2 -11   46.59    1.15 
   1   2 -11   47.15    1.12 
   0  -2 -11   12.79    0.36 
   0  -2  11   12.63    0.44 
   0  -2 -11   12.83    0.35 
   0  -2  11   13.04    0.38 
   0   2 -11   13.00    0.38 
   0   2 -11   12.82    0.39 
   0   2  11   12.58    0.38 
   0   2  11   12.69    0.46 
  -1  -2 -11   15.13    0.41 
  -1  -2 -11   15.26    0.43 
   1  -2  11   16.12    0.51 
  -1   2 -11   15.56    0.45 
  -1   2 -11   16.32    0.47 
   1   2  11   15.28    0.54 
   2  -2  11   26.40    0.77 
  -2  -2 -11   26.02    0.69 
  -2  -2 -11   25.22    0.64 
  -2   2 -11   25.77    0.70 
   2   2  11   26.33    0.80 
  -2   2 -11   25.12    0.68 
   3  -2  11   30.97    0.93 
  -3  -2 -11   31.55    0.84 
  -3  -2 -11   32.22    0.83 
  -3   2 -11   31.12    0.82 
  -3   2 -11   31.35    0.86 
   3   2  11   32.68    0.96 
   4  -2  11    2.47    0.24 
  -4  -2 -11    2.66    0.19 
   4   2  11    2.63    0.25 
  -4   2 -11    2.30    0.16 
  -4   2 -11    2.75    0.19 
  -5  -2 -11    6.70    0.32 
   5  -2  11    7.69    0.41 
   5   2  11    7.10    0.42 
  -5   2 -11    8.21    0.36 
  -6  -2 -11    3.47    0.26 
   6  -2  11    3.08    0.33 
   6   2  11    3.16    0.33 
  -6   2 -11    2.67    0.23 
  -7  -2 -11   10.02    0.45 
   7  -2  11   10.04    0.57 
   7   2  11   10.89    0.60 
  -7   2 -11   11.63    0.48 
   8  -3 -11    0.15    0.15 
  -8  -3  11    0.45    0.18 
  -8   3  11    0.43    0.19 
   8   3 -11    0.23    0.18 
  -7  -3  11    7.59    0.41 
   7  -3 -11    7.03    0.41 
   7   3 -11    6.81    0.45 
  -7   3  11    7.44    0.44 
  -6  -3  11    8.32    0.41 
   6  -3 -11    8.80    0.28 
   6  -3 -11    8.24    0.40 
  -6   3  11    8.68    0.45 
   6   3 -11    9.01    0.47 
  -5  -3  11   31.21    0.81 
  -5  -3  11   30.05    0.89 
   5  -3 -11   30.21    0.76 
  -5   3  11   29.76    0.94 
   5   3 -11   30.67    0.96 
  -5   3  11   30.70    0.88 
  -4  -3  11   24.17    0.66 
  -4  -3  11   24.78    0.73 
   4  -3 -11   23.67    0.62 
  -4   3  11   24.10    0.77 
  -4   3  11   24.42    0.71 
   4   3 -11   23.51    0.63 
   4   3 -11   25.14    0.78 
   3  -3 -11   29.65    0.73 
  -3  -3  11   28.79    0.82 
  -3  -3  11   28.98    0.77 
   3   3 -11   28.83    0.74 
  -3   3  11   29.23    0.80 
   3   3 -11   28.97    0.85 
  -3   3  11   28.93    0.86 
  -2  -3  11   18.26    0.52 
   2  -3 -11   17.87    0.48 
  -2  -3  11   18.11    0.55 
  -2   3  11   18.89    0.60 
   2   3 -11   16.10    0.52 
   2   3 -11   18.51    0.56 
   2   3 -11   18.62    0.50 
  -2   3  11   18.07    0.53 
   1  -3 -11    3.68    0.15 
  -1  -3  11    3.91    0.18 
  -1  -3  11    3.69    0.20 
   1   3 -11    3.75    0.17 
  -1   3  11    3.93    0.24 
  -1   3  11    3.74    0.18 
   1   3 -11    3.88    0.19 
   0  -3  11   18.40    0.51 
   0  -3 -11   17.11    0.47 
   0  -3  11   17.98    0.55 
   0   3  11   17.70    0.59 
   0   3 -11   17.09    0.50 
   0   3  11   18.27    0.50 
   0   3 -11   17.55    0.51 
   1  -3  11   49.47    1.25 
  -1  -3 -11   48.62    1.15 
   1  -3  11   48.07    1.20 
  -1  -3 -11   48.81    1.17 
  -1   3 -11   48.11    1.19 
   1   3  11   48.82    1.29 
  -1   3 -11   47.88    1.18 
   2  -3  11    5.12    0.27 
  -2  -3 -11    4.96    0.22 
  -2  -3 -11    5.09    0.18 
   2   3  11    5.10    0.30 
  -2   3 -11    5.06    0.23 
  -2   3 -11    5.09    0.24 
   3  -3  11   10.72    0.45 
  -3  -3 -11   11.49    0.39 
   3   3  11   12.15    0.49 
  -3   3 -11   11.81    0.39 
  -3   3 -11   11.56    0.41 
  -4  -3 -11    2.49    0.19 
   4  -3  11    2.40    0.24 
  -4   3 -11    2.55    0.17 
   4   3  11    2.46    0.25 
  -4   3 -11    2.61    0.20 
   5  -3  11    4.50    0.33 
  -5  -3 -11    4.17    0.26 
   5   3  11    4.44    0.34 
  -5   3 -11    4.20    0.26 
   6  -3  11    9.26    0.50 
  -6  -3 -11    9.01    0.41 
   6   3  11    8.59    0.50 
  -6   3 -11    9.22    0.41 
   8  -4 -11    5.07    0.38 
  -8   4  11    5.08    0.41 
   8   4 -11    4.71    0.44 
   7  -4 -11    2.78    0.28 
  -7   4  11    3.97    0.34 
   7   4 -11    3.34    0.35 
   6  -4 -11    3.32    0.16 
  -6  -4  11    3.13    0.19 
  -6   4  11    3.49    0.30 
   6   4 -11    3.03    0.30 
  -6   4  11    3.00    0.24 
  -5  -4  11    7.20    0.29 
   5  -4 -11    6.38    0.24 
  -5   4  11    6.45    0.32 
  -5   4  11    6.49    0.36 
   5   4 -11    6.21    0.38 
  -4  -4  11   52.36    1.32 
   4  -4 -11   53.53    1.27 
  -4   4  11   54.66    1.47 
  -4   4  11   53.29    1.41 
   4   4 -11   55.33    1.50 
   4   4 -11   55.69    1.33 
  -3  -4  11    5.63    0.25 
   3  -4 -11    5.28    0.21 
   3   4 -11    5.58    0.22 
  -3   4  11    5.53    0.27 
  -3   4  11    5.28    0.30 
   3   4 -11    5.68    0.30 
   2  -4 -11   28.32    0.72 
  -2  -4  11   28.80    0.77 
   2   4 -11   29.27    0.77 
  -2   4  11   28.93    0.86 
   2   4 -11   29.84    0.81 
  -2   4  11   29.66    0.81 
   1  -4 -11   14.79    0.42 
  -1  -4  11   15.32    0.47 
  -1   4  11   15.29    0.47 
  -1   4  11   14.43    0.52 
   1   4 -11   14.87    0.47 
   1   4 -11   14.95    0.45 
   0  -4 -11   16.02    0.44 
   0  -4  11   15.65    0.49 
   0   4  11   15.21    0.54 
   0   4 -11   16.72    0.48 
   0   4 -11   15.39    0.48 
   0   4  11   15.82    0.48 
  -1  -4 -11   14.22    0.40 
  -1  -4 -11   14.57    0.42 
   1  -4  11   14.64    0.46 
  -1   4 -11   15.38    0.46 
   1   4  11   14.29    0.53 
   1   4  11   14.23    0.51 
  -1   4 -11   14.41    0.44 
  -2  -4 -11    7.49    0.24 
  -2  -4 -11    7.58    0.29 
   2  -4  11    7.45    0.30 
  -2   4 -11    7.28    0.30 
   2   4  11    7.49    0.37 
  -2   4 -11    7.72    0.28 
  -3  -4 -11    6.63    0.28 
   3   4  11    5.85    0.35 
  -3   4 -11    6.26    0.29 
  -3   4 -11    6.33    0.28 
  -4  -4 -11    1.33    0.16 
  -4   4 -11    1.48    0.18 
  -4   4 -11    1.45    0.15 
   4   4  11    1.20    0.20 
  -5  -4 -11    4.84    0.28 
  -5   4 -11    4.37    0.28 
   5   4  11    4.21    0.34 
  -6  -4 -11    3.27    0.26 
   6   4  11    3.08    0.33 
  -6   4 -11    3.75    0.27 
  -7   5  11   10.95    0.56 
   7   5 -11   10.98    0.61 
  -7   5  11   11.40    0.52 
   6  -5 -11    5.00    0.22 
  -6  -5  11    5.13    0.27 
  -6   5  11    5.06    0.36 
  -6   5  11    4.94    0.31 
   6   5 -11    5.29    0.40 
  -5  -5  11    0.09    0.07 
   5  -5 -11    0.09    0.05 
  -5   5  11    0.01    0.10 
   5   5 -11    0.18    0.13 
  -5   5  11    0.20    0.09 
  -4  -5  11    4.28    0.23 
   4  -5 -11    4.17    0.19 
   4   5 -11    4.12    0.30 
  -4   5  11    3.55    0.24 
  -4   5  11    3.96    0.28 
  -3  -5  11   12.01    0.42 
   3  -5 -11   11.71    0.37 
  -3   5  11   12.93    0.47 
   3   5 -11   12.51    0.50 
  -3   5  11   12.40    0.49 
   3   5 -11   11.79    0.39 
   2  -5 -11    0.03    0.04 
  -2  -5  11    0.05    0.06 
   2   5 -11    0.04    0.05 
  -2   5  11    0.13    0.07 
   2   5 -11    0.06    0.07 
  -2   5  11    0.04    0.06 
  -1  -5  11   40.38    1.05 
   1  -5 -11   39.81    0.99 
   1   5 -11   39.35    1.04 
  -1   5  11   40.05    1.10 
   1   5 -11   39.73    1.02 
  -1   5  11   39.56    1.06 
   0  -5 -11   13.54    0.40 
   0  -5  11   13.93    0.46 
   0   5  11   13.30    0.49 
   0   5  11   14.09    0.46 
   0   5 -11   12.41    0.43 
   0   5 -11   13.67    0.44 
  -1  -5 -11    8.14    0.27 
   1  -5  11    8.25    0.33 
  -1   5 -11    8.38    0.31 
  -1   5 -11    8.88    0.33 
   1   5  11    8.21    0.34 
   1   5  11    8.45    0.39 
  -2  -5 -11    7.39    0.29 
   2  -5  11    7.24    0.31 
  -2  -5 -11    7.01    0.24 
  -2   5 -11    7.35    0.28 
   2   5  11    7.35    0.37 
  -2   5 -11    6.81    0.30 
  -3  -5 -11    2.39    0.19 
   3  -5  11    2.64    0.19 
  -3   5 -11    2.61    0.16 
   3   5  11    2.61    0.25 
  -3   5 -11    3.10    0.20 
  -4  -5 -11    0.65    0.13 
   4  -5  11    0.64    0.12 
   4   5  11    0.61    0.17 
  -4   5 -11    0.68    0.12 
   5  -5  11    2.32    0.20 
  -5  -5 -11    2.53    0.22 
   5   5  11    1.81    0.26 
  -7  -6  11    1.58    0.19 
  -7   6  11    1.70    0.25 
   7   6 -11    1.70    0.29 
   6  -6 -11    1.90    0.15 
  -6  -6  11    1.84    0.19 
   6   6 -11    2.41    0.33 
  -6   6  11    1.94    0.23 
   5  -6 -11    1.76    0.15 
  -5  -6  11    1.83    0.18 
   5   6 -11    1.40    0.23 
  -5   6  11    1.99    0.21 
  -4  -6  11    3.54    0.23 
   4  -6 -11    3.71    0.19 
  -4   6  11    3.74    0.26 
   4   6 -11    3.54    0.30 
   3  -6 -11    2.72    0.16 
  -3  -6  11    2.96    0.20 
   3   6 -11    2.93    0.18 
  -3   6  11    2.48    0.21 
   3   6 -11    2.85    0.24 
  -2  -6  11    0.78    0.13 
   2  -6 -11    0.66    0.09 
   2   6 -11    0.52    0.10 
  -2   6  11    0.80    0.14 
   2   6 -11    0.88    0.14 
  -1  -6  11    3.04    0.21 
   1  -6 -11    3.47    0.17 
  -1   6  11    3.38    0.22 
   1   6 -11    3.35    0.20 
   1   6 -11    3.24    0.21 
   0  -6 -11   12.82    0.39 
   0   6  11   12.83    0.47 
   0   6 -11   12.78    0.44 
   0   6 -11   13.26    0.45 
  -1  -6 -11    4.44    0.19 
   1  -6  11    4.19    0.24 
   1   6  11    4.68    0.26 
  -1   6 -11    4.64    0.23 
  -1   6 -11    4.33    0.24 
   2  -6  11   15.80    0.54 
  -2   6 -11   15.87    0.52 
  -2   6 -11   15.45    0.49 
  -3  -6 -11   12.54    0.44 
   3  -6  11   11.89    0.45 
  -3   6 -11   11.51    0.45 
  -3   6 -11   12.83    0.41 
   4  -6  11    3.21    0.23 
  -4  -6 -11    3.12    0.25 
  -4   6 -11    2.79    0.22 
   5  -6  11    4.95    0.29 
  -5  -6 -11    5.03    0.31 
  -5   6 -11    5.61    0.30 
   6  -7 -11    0.24    0.08 
  -6  -7  11    0.20    0.11 
   6   7 -11   -0.01    0.15 
  -6   7  11    0.19    0.13 
  -5  -7  11    0.55    0.13 
   5  -7 -11    0.59    0.11 
   5   7 -11    0.69    0.20 
  -5   7  11    0.58    0.16 
  -4  -7  11    9.28    0.41 
   4  -7 -11    9.68    0.35 
  -4   7  11    9.67    0.45 
   4   7 -11    9.71    0.50 
   3  -7 -11    0.78    0.11 
  -3  -7  11    0.71    0.14 
  -3   7  11    1.02    0.17 
   3   7 -11    0.91    0.13 
   2  -7 -11    2.87    0.18 
   2   7 -11    2.86    0.20 
  -2   7  11    3.33    0.25 
   2   7 -11    3.13    0.23 
   1  -7 -11    0.32    0.08 
  -1  -7  11    0.39    0.10 
  -1   7  11    0.26    0.10 
   1   7 -11    0.52    0.10 
   1   7 -11    0.32    0.10 
   0  -7 -11    1.30    0.13 
   0  -7  11    1.16    0.16 
   0   7  11    1.35    0.17 
   0   7 -11    1.33    0.16 
   0   7 -11    1.08    0.15 
  -1  -7 -11    3.35    0.18 
  -1   7 -11    3.36    0.22 
  -1   7 -11    3.29    0.22 
   1   7  11    3.34    0.24 
   2  -7  11    4.56    0.27 
  -2   7 -11    4.91    0.25 
  -2   7 -11    4.37    0.27 
   3  -7  11    5.60    0.31 
  -3   7 -11    5.80    0.31 
  -3   7 -11    5.73    0.27 
   4  -7  11    8.37    0.40 
  -4   7 -11    8.22    0.38 
  -4  -8  11    0.11    0.10 
   4  -8 -11    0.04    0.07 
  -4   8  11    0.16    0.11 
   3  -8 -11    3.94    0.23 
  -3  -8  11    4.32    0.29 
  -3   8  11    4.17    0.30 
  -2  -8  11    2.38    0.22 
   2  -8 -11    2.29    0.18 
   2   8 -11    2.20    0.22 
   2   8 -11    2.47    0.19 
  -2   8  11    2.35    0.24 
  -1  -8  11    4.05    0.27 
   1  -8 -11    4.32    0.23 
  -1   8  11    4.05    0.28 
   1   8 -11    4.14    0.25 
   1   8 -11    3.81    0.26 
   0  -8 -11   11.23    0.38 
   0  -8  11    9.88    0.44 
   0   8  11   11.38    0.49 
   0   8 -11   10.92    0.44 
   0   8 -11   10.64    0.43 
   1  -8  11    1.85    0.20 
  -1   8 -11    1.71    0.18 
  -1   8 -11    1.37    0.18 
   1   8  11    1.67    0.21 
   2  -8  11    1.19    0.18 
  -2   8 -11    1.31    0.17 
  -2   8 -11    1.16    0.15 
  -9   0  12    0.50    0.20 
   9   0 -12    0.71    0.24 
  -8   0  12   -0.03    0.13 
   8   0 -12    0.13    0.15 
   7   0 -12    0.14    0.13 
  -7   0  12    0.47    0.15 
   6   0 -12    8.85    0.44 
  -6   0  12    8.50    0.43 
   5   0 -12   45.89    1.07 
  -5   0  12   44.92    1.26 
   5   0 -12   44.00    1.24 
  -4   0  12   13.56    0.50 
   4   0 -12   12.27    0.46 
   4   0 -12   13.11    0.36 
   3   0 -12   50.42    1.18 
   3   0 -12   49.04    1.26 
  -3   0  12   50.57    1.32 
   2   0 -12    2.43    0.12 
   2   0 -12    2.49    0.15 
  -2   0  12    2.29    0.19 
  -1   0  12    6.05    0.30 
   1   0 -12    6.38    0.21 
   0   0 -12   71.09    1.63 
   0   0  12   70.40    1.76 
   0   0 -12   70.28    1.65 
  -1   0 -12    1.63    0.12 
   1   0  12    1.58    0.17 
  -1   0 -12    1.72    0.11 
  -2   0 -12   16.36    0.49 
  -2   0 -12   16.45    0.46 
   2   0  12   17.07    0.59 
  -3   0 -12   16.40    0.51 
   3   0  12   16.48    0.60 
  -3   0 -12   15.87    0.46 
   4   0  12    9.01    0.45 
  -4   0 -12    9.26    0.36 
   5   0  12    0.41    0.15 
  -5   0 -12    0.24    0.11 
   6   0  12    5.98    0.42 
  -6   0 -12    5.04    0.31 
  -7   0 -12    2.61    0.28 
   7   0  12    3.27    0.39 
  -9  -1  12    0.43    0.18 
   9  -1 -12    0.19    0.20 
  -9   1  12    1.80    0.30 
  -8  -1  12    1.69    0.26 
   8  -1 -12    1.71    0.27 
   8   1 -12    1.36    0.26 
  -8   1  12    1.33    0.24 
   7  -1 -12    3.83    0.32 
  -7  -1  12    4.43    0.32 
  -7   1  12    3.78    0.32 
   7   1 -12    4.17    0.35 
  -6  -1  12   10.37    0.48 
   6  -1 -12   10.63    0.48 
  -6   1  12   10.07    0.48 
   6   1 -12   10.29    0.49 
  -5  -1  12   36.23    1.05 
   5  -1 -12   36.02    1.02 
   5  -1 -12   35.34    0.87 
   5   1 -12   38.64    0.93 
   5   1 -12   34.79    1.07 
  -5   1  12   36.19    1.08 
   4  -1 -12    4.64    0.25 
  -4  -1  12    4.47    0.27 
   4  -1 -12    4.66    0.17 
   4   1 -12    4.40    0.17 
   4   1 -12    4.89    0.28 
  -4   1  12    4.51    0.28 
   3  -1 -12   16.97    0.45 
  -3  -1  12   17.03    0.57 
   3  -1 -12   17.09    0.51 
  -3   1  12   17.20    0.59 
   3   1 -12   17.35    0.55 
   3   1 -12   17.62    0.46 
  -2  -1  12    4.44    0.17 
   2  -1 -12    4.51    0.20 
   2  -1 -12    4.39    0.17 
  -2  -1  12    4.71    0.25 
  -2   1  12    4.62    0.26 
   2   1 -12    4.61    0.17 
   2   1 -12    4.49    0.21 
  -1  -1  12   15.76    0.52 
  -1  -1  12   15.47    0.43 
   1  -1 -12   15.92    0.41 
   1  -1 -12   15.03    0.41 
  -1   1  12   15.43    0.53 
   1   1 -12   16.00    0.43 
   1   1 -12   15.24    0.46 
   0  -1 -12    8.47    0.27 
   0  -1 -12    8.47    0.26 
   0  -1  12    8.64    0.36 
   0   1 -12    8.67    0.29 
   0   1  12    8.62    0.37 
   0   1 -12    8.04    0.27 
  -1  -1 -12    9.37    0.30 
   1  -1  12    9.12    0.38 
  -1  -1 -12    8.93    0.28 
  -1   1 -12    9.00    0.29 
   1   1  12    8.50    0.38 
  -1   1 -12    8.68    0.30 
  -2  -1 -12   18.23    0.53 
   2  -1  12   18.28    0.62 
  -2  -1 -12   18.83    0.49 
   2   1  12   18.04    0.63 
  -2   1 -12   18.29    0.54 
  -2   1 -12   18.84    0.52 
  -3  -1 -12   22.00    0.63 
   3  -1  12   21.81    0.72 
  -3  -1 -12   20.89    0.56 
  -3   1 -12   21.39    0.59 
  -3   1 -12   21.66    0.63 
   3   1  12   20.84    0.72 
  -4  -1 -12    2.99    0.20 
   4  -1  12    3.08    0.27 
  -4   1 -12    3.15    0.21 
   4   1  12    3.39    0.28 
  -5  -1 -12    0.85    0.15 
   5  -1  12    0.55    0.17 
   5   1  12    0.88    0.19 
  -5   1 -12    0.78    0.14 
  -6  -1 -12    6.02    0.33 
   6  -1  12    5.74    0.42 
  -6   1 -12    6.10    0.33 
   6   1  12    5.72    0.41 
  -7   1 -12    5.02    0.47 
   8  -2 -12    1.40    0.25 
  -8  -2  12    2.04    0.29 
   8   2 -12    1.36    0.26 
  -8   2  12    1.20    0.25 
  -7  -2  12    1.76    0.24 
   7  -2 -12    1.38    0.22 
  -7   2  12    2.18    0.28 
   7   2 -12    1.62    0.26 
  -6  -2  12   11.29    0.50 
   6  -2 -12   11.35    0.49 
   6   2 -12   11.64    0.54 
  -6   2  12   10.96    0.51 
   5  -2 -12    0.32    0.10 
  -5  -2  12    0.24    0.11 
   5  -2 -12    0.20    0.05 
  -5   2  12    0.20    0.12 
   5   2 -12    0.30    0.12 
   4  -2 -12   12.94    0.37 
  -4  -2  12   13.37    0.49 
   4   2 -12   13.66    0.51 
  -4   2  12   13.78    0.46 
  -4   2  12   13.33    0.52 
   4   2 -12   13.40    0.39 
   3  -2 -12    2.58    0.12 
  -3  -2  12    2.40    0.14 
  -3  -2  12    2.37    0.19 
  -3   2  12    2.34    0.21 
   3   2 -12    2.50    0.19 
  -3   2  12    2.28    0.15 
   3   2 -12    2.30    0.13 
   2  -2 -12    4.11    0.16 
  -2  -2  12    4.11    0.18 
  -2  -2  12    3.95    0.23 
   2   2 -12    4.26    0.18 
   2   2 -12    4.15    0.20 
  -2   2  12    3.95    0.19 
  -2   2  12    4.09    0.25 
   1  -2 -12   43.27    1.03 
  -1  -2  12   43.15    1.06 
  -1  -2  12   43.32    1.14 
   1   2 -12   43.28    1.05 
   1   2 -12   42.68    1.08 
  -1   2  12   43.17    1.05 
  -1   2  12   43.46    1.17 
   0  -2 -12   73.65    1.70 
   0  -2  12   73.22    1.73 
   0  -2  12   74.76    1.82 
   0  -2 -12   73.31    1.71 
   0   2 -12   73.29    1.75 
   0   2 -12   73.39    1.73 
   0   2  12   73.47    1.84 
   1  -2  12   39.53    1.06 
  -1  -2 -12   38.56    0.93 
  -1  -2 -12   37.75    0.95 
  -1   2 -12   38.53    0.97 
  -1   2 -12   39.03    0.99 
   1   2  12   38.69    1.09 
  -2  -2 -12    6.52    0.26 
  -2  -2 -12    6.88    0.22 
   2  -2  12    6.63    0.33 
  -2   2 -12    6.29    0.25 
   2   2  12    6.82    0.36 
  -2   2 -12    6.91    0.28 
  -3  -2 -12   11.46    0.39 
   3  -2  12   11.05    0.47 
   3   2  12   11.84    0.50 
  -3   2 -12   11.76    0.41 
  -3   2 -12   10.81    0.37 
   4  -2  12    2.12    0.23 
  -4  -2 -12    2.47    0.19 
   4   2  12    2.20    0.25 
  -4   2 -12    2.55    0.20 
  -4   2 -12    2.00    0.16 
  -5  -2 -12    1.95    0.19 
   5  -2  12    2.13    0.26 
  -5   2 -12    1.63    0.18 
   5   2  12    1.84    0.26 
   6  -2  12    1.07    0.22 
  -6  -2 -12    1.18    0.18 
   6   2  12    1.09    0.22 
  -6   2 -12    1.39    0.18 
  -8  -3  12    1.69    0.25 
   8  -3 -12    1.38    0.26 
   8   3 -12    1.43    0.27 
  -8   3  12    1.68    0.27 
  -7  -3  12   51.94    1.46 
   7  -3 -12   49.87    1.45 
  -7   3  12   53.01    1.52 
   7   3 -12   51.44    1.56 
   6  -3 -12   15.78    0.45 
   6  -3 -12   16.65    0.61 
  -6  -3  12   15.46    0.60 
   6   3 -12   15.06    0.65 
  -6   3  12   16.43    0.64 
   5  -3 -12    4.46    0.19 
  -5  -3  12    4.94    0.29 
  -5   3  12    4.78    0.32 
   5   3 -12    4.85    0.32 
  -5   3  12    4.56    0.26 
  -4  -3  12   11.13    0.36 
  -4  -3  12   10.37    0.42 
   4  -3 -12   10.56    0.32 
  -4   3  12   11.32    0.41 
   4   3 -12   10.74    0.34 
  -4   3  12   10.74    0.46 
   4   3 -12   10.64    0.45 
  -3  -3  12   15.12    0.45 
  -3  -3  12   14.82    0.51 
   3  -3 -12   14.38    0.41 
  -3   3  12   14.94    0.48 
   3   3 -12   14.71    0.43 
   3   3 -12   14.43    0.52 
  -3   3  12   15.06    0.55 
  -2  -3  12    3.95    0.19 
   2  -3 -12    4.42    0.17 
  -2  -3  12    4.52    0.24 
  -2   3  12    3.92    0.20 
  -2   3  12    4.34    0.26 
   2   3 -12    4.18    0.21 
   2   3 -12    4.11    0.19 
  -1  -3  12   10.74    0.39 
  -1  -3  12   10.34    0.35 
   1  -3 -12   10.55    0.31 
  -1   3  12    9.55    0.41 
   1   3 -12    9.58    0.34 
  -1   3  12   10.04    0.33 
   1   3 -12   10.26    0.33 
   0  -3  12   23.44    0.69 
   0  -3 -12   23.65    0.60 
   0  -3  12   23.23    0.64 
   0   3 -12   23.41    0.64 
   0   3 -12   23.46    0.64 
   0   3  12   22.96    0.73 
   1  -3  12   15.93    0.49 
  -1  -3 -12   16.09    0.44 
  -1  -3 -12   16.85    0.47 
   1  -3  12   16.86    0.55 
  -1   3 -12   16.89    0.50 
   1   3  12   16.52    0.59 
  -1   3 -12   17.56    0.51 
  -2  -3 -12    1.14    0.09 
   2  -3  12    0.84    0.14 
  -2  -3 -12    1.25    0.12 
  -2   3 -12    1.05    0.12 
  -2   3 -12    1.07    0.13 
   2   3  12    1.12    0.17 
  -3  -3 -12   10.38    0.37 
   3  -3  12   10.76    0.45 
  -3   3 -12   10.17    0.37 
   3   3  12   11.23    0.48 
  -3   3 -12   10.66    0.40 
  -4  -3 -12    1.50    0.16 
   4  -3  12    1.33    0.21 
   4   3  12    1.51    0.22 
  -4   3 -12    1.64    0.17 
  -4   3 -12    1.66    0.15 
  -5  -3 -12    0.95    0.15 
   5  -3  12    0.90    0.19 
   5   3  12    0.61    0.17 
  -5   3 -12    0.96    0.15 
   6  -3  12    3.83    0.37 
  -6  -3 -12    3.55    0.27 
  -6   3 -12    3.68    0.28 
   6   3  12    3.43    0.36 
   8  -4 -12    0.81    0.21 
  -8   4  12    0.49    0.21 
   8   4 -12    0.69    0.22 
   7  -4 -12    1.34    0.22 
   7   4 -12    1.10    0.24 
  -7   4  12    1.49    0.24 
   6  -4 -12    2.13    0.14 
  -6   4  12    1.97    0.21 
  -6   4  12    1.60    0.24 
   6   4 -12    2.09    0.29 
  -5  -4  12    4.16    0.23 
   5  -4 -12    4.60    0.19 
  -5   4  12    4.71    0.28 
  -5   4  12    4.68    0.32 
   5   4 -12    4.34    0.32 
   4  -4 -12    5.09    0.21 
  -4  -4  12    5.02    0.24 
   4   4 -12    4.95    0.33 
  -4   4  12    5.12    0.28 
  -4   4  12    5.31    0.32 
   4   4 -12    5.15    0.22 
  -3  -4  12    7.78    0.31 
   3  -4 -12    8.00    0.27 
   3   4 -12    8.33    0.30 
  -3   4  12    8.62    0.34 
  -3   4  12    7.61    0.38 
   3   4 -12    8.04    0.38 
  -2  -4  12   10.16    0.36 
   2  -4 -12    9.98    0.31 
   2   4 -12   10.22    0.34 
   2   4 -12    9.82    0.37 
  -2   4  12   10.37    0.37 
  -2   4  12    9.19    0.41 
  -1  -4  12   10.45    0.38 
   1  -4 -12   11.41    0.34 
  -1   4  12   11.00    0.38 
  -1   4  12   10.28    0.43 
   1   4 -12   10.68    0.37 
   1   4 -12   11.20    0.38 
   0  -4  12   37.82    0.97 
   0  -4 -12   35.94    0.90 
   0   4 -12   37.53    0.94 
   0   4  12   38.20    0.94 
   0   4  12   36.33    1.02 
   0   4 -12   31.54    0.92 
  -1  -4 -12   32.26    0.82 
   1  -4  12   33.97    0.89 
   1   4  12   33.59    0.99 
  -1   4 -12   33.07    0.87 
  -1   4 -12   33.05    0.89 
   2  -4  12    6.11    0.27 
  -2  -4 -12    5.87    0.26 
  -2  -4 -12    6.29    0.22 
   2   4  12    6.04    0.34 
  -2   4 -12    6.00    0.27 
  -2   4 -12    6.22    0.25 
  -3  -4 -12   14.28    0.47 
   3   4  12   13.52    0.57 
  -3   4 -12   14.00    0.46 
  -4  -4 -12    1.73    0.18 
   4   4  12    1.82    0.25 
  -4   4 -12    1.81    0.19 
  -4   4 -12    1.84    0.17 
  -5  -4 -12    1.31    0.18 
   5   4  12    0.98    0.20 
  -5   4 -12    0.92    0.16 
  -6  -4 -12    3.38    0.26 
  -6   4 -12    2.66    0.26 
   6   4  12    3.53    0.34 
  -7   5  12   15.09    0.68 
   7   5 -12   15.92    0.74 
  -7   5  12   15.87    0.63 
   6  -5 -12    1.48    0.13 
  -6  -5  12    1.86    0.17 
  -6   5  12    1.32    0.21 
   6   5 -12    1.51    0.27 
  -6   5  12    1.45    0.20 
  -5  -5  12    2.71    0.20 
   5  -5 -12    2.76    0.16 
   5   5 -12    3.79    0.31 
  -5   5  12    3.02    0.27 
  -5   5  12    2.61    0.23 
  -4  -5  12    5.20    0.26 
   4  -5 -12    5.06    0.22 
   4   5 -12    5.19    0.34 
  -4   5  12    5.13    0.32 
  -4   5  12    5.07    0.29 
   3  -5 -12   23.88    0.65 
  -3  -5  12   24.59    0.72 
  -3   5  12   24.34    0.78 
   3   5 -12   23.46    0.66 
  -3   5  12   23.18    0.73 
  -2  -5  12    0.72    0.11 
   2  -5 -12    0.76    0.09 
   2   5 -12    0.89    0.11 
  -2   5  12    0.93    0.14 
   2   5 -12    0.91    0.13 
  -2   5  12    0.97    0.15 
  -1  -5  12    3.29    0.21 
   1  -5 -12    3.49    0.17 
   1   5 -12    3.28    0.20 
   1   5 -12    3.50    0.21 
  -1   5  12    3.21    0.24 
  -1   5  12    3.46    0.21 
   0  -5 -12    1.32    0.11 
   0  -5  12    1.42    0.15 
   0   5 -12    1.32    0.15 
   0   5 -12    1.46    0.15 
   0   5  12    1.52    0.15 
   0   5  12    1.55    0.18 
  -1  -5 -12    0.89    0.10 
   1  -5  12    1.01    0.14 
  -1   5 -12    1.16    0.13 
  -1   5 -12    0.93    0.12 
   1   5  12    0.73    0.15 
   2  -5  12    3.77    0.22 
  -2   5 -12    3.46    0.22 
   2   5  12    3.52    0.27 
  -2   5 -12    3.54    0.20 
  -3  -5 -12    4.00    0.24 
   3  -5  12    3.89    0.23 
   3   5  12    4.55    0.31 
  -3   5 -12    4.27    0.25 
  -3   5 -12    4.00    0.21 
  -4  -5 -12   13.66    0.49 
   4  -5  12   13.43    0.49 
   4   5  12   12.96    0.58 
  -4   5 -12   12.89    0.47 
  -4   5 -12   13.64    0.43 
  -5  -5 -12    0.44    0.13 
   5  -5  12    0.24    0.10 
   5   5  12    0.33    0.14 
   6  -6 -12    3.35    0.20 
  -6  -6  12    3.70    0.24 
  -6   6  12    2.92    0.27 
   6   6 -12    3.22    0.34 
   5  -6 -12    1.75    0.15 
  -5  -6  12    1.71    0.19 
  -5   6  12    1.65    0.21 
   5   6 -12    1.40    0.23 
   4  -6 -12   11.26    0.38 
  -4  -6  12   11.15    0.43 
  -4   6  12   11.17    0.47 
   4   6 -12   10.68    0.51 
   3  -6 -12    0.47    0.09 
  -3  -6  12    0.56    0.12 
  -3   6  12    0.96    0.15 
   3   6 -12    0.55    0.10 
  -2  -6  12    0.63    0.12 
   2  -6 -12    0.46    0.09 
   2   6 -12    0.51    0.10 
   2   6 -12    0.34    0.10 
  -2   6  12    0.71    0.13 
  -1  -6  12    1.05    0.15 
   1  -6 -12    0.99    0.11 
   1   6 -12    0.91    0.13 
   1   6 -12    0.99    0.13 
  -1   6  12    1.03    0.15 
   0  -6 -12   11.94    0.38 
   0   6  12   11.22    0.44 
   0   6 -12   11.40    0.42 
   0   6 -12   11.51    0.42 
   1  -6  12    0.79    0.13 
  -1  -6 -12    0.73    0.09 
  -1   6 -12    0.69    0.11 
  -1   6 -12    0.74    0.13 
   2  -6  12    4.03    0.25 
  -2   6 -12    3.92    0.25 
  -2   6 -12    4.40    0.23 
   3  -6  12    1.30    0.17 
  -3   6 -12    1.09    0.16 
  -3   6 -12    1.23    0.15 
   4  -6  12    1.27    0.17 
  -4  -6 -12    1.33    0.17 
  -4   6 -12    1.92    0.20 
  -4   6 -12    1.33    0.14 
   5  -7 -12    1.78    0.16 
  -5  -7  12    1.64    0.20 
  -5   7  12    1.65    0.23 
   5   7 -12    1.93    0.27 
   4  -7 -12    8.73    0.33 
  -4  -7  12    7.78    0.37 
  -4   7  12    8.50    0.43 
   3  -7 -12    0.87    0.12 
  -3  -7  12    0.75    0.13 
  -3   7  12    0.91    0.16 
   3   7 -12    0.84    0.12 
  -2  -7  12    6.72    0.34 
   2  -7 -12    6.42    0.27 
   2   7 -12    6.95    0.34 
  -2   7  12    6.82    0.36 
   2   7 -12    6.85    0.31 
  -1  -7  12    2.63    0.21 
   1  -7 -12    2.68    0.17 
   1   7 -12    3.04    0.22 
   1   7 -12    2.65    0.20 
  -1   7  12    2.70    0.23 
   0  -7  12    3.11    0.23 
   0  -7 -12    3.62    0.19 
   0   7  12    2.91    0.23 
   0   7 -12    3.25    0.22 
   0   7 -12    3.15    0.22 
   1  -7  12    0.46    0.12 
  -1  -7 -12    0.51    0.09 
  -1   7 -12    0.37    0.10 
  -1   7 -12    0.44    0.11 
   2  -7  12    2.87    0.24 
  -2   7 -12    2.73    0.23 
  -2   7 -12    2.46    0.19 
   3  -7  12    2.73    0.24 
  -3   7 -12    2.59    0.23 
  -3   7 -12    2.91    0.20 
  -4  -8  12    0.89    0.16 
   4  -8 -12    0.82    0.17 
  -4   8  12    0.81    0.19 
  -3  -8  12    1.59    0.22 
   3  -8 -12    1.84    0.17 
  -3   8  12    1.21    0.20 
   2  -8 -12    0.00    0.07 
  -2  -8  12    0.14    0.10 
   2   8 -12   -0.01    0.08 
  -2   8  12   -0.02    0.10 
   2   8 -12    0.05    0.09 
   1  -8 -12    3.31    0.20 
  -1  -8  12    2.90    0.24 
   1   8 -12    2.81    0.23 
  -1   8  12    3.12    0.26 
   1   8 -12    3.10    0.23 
   0  -8 -12    6.16    0.27 
   0  -8  12    5.49    0.32 
   0   8  12    5.07    0.33 
   0   8 -12    6.23    0.32 
   0   8 -12    5.79    0.31 
   1  -8  12    0.56    0.13 
  -1   8 -12    0.69    0.14 
  -1   8 -12    0.60    0.13 
   1   8  12    0.76    0.22 
  -9   0  13    7.38    0.60 
  -8   0  13    1.66    0.26 
   8   0 -13    1.51    0.27 
   7   0 -13    7.18    0.44 
  -7   0  13    7.00    0.43 
  -6   0  13    7.83    0.42 
   6   0 -13    7.23    0.41 
   5   0 -13    1.48    0.20 
   5   0 -13    1.56    0.10 
  -5   0  13    1.46    0.20 
   4   0 -13    1.31    0.15 
  -4   0  13    1.38    0.18 
   4   0 -13    1.62    0.10 
   3   0 -13   16.75    0.45 
   3   0 -13   16.12    0.52 
  -3   0  13   16.82    0.58 
  -2   0  13   83.95    2.09 
   2   0 -13   84.95    1.94 
  -1   0  13    0.99    0.15 
   1   0 -13    1.20    0.09 
   0   0  13  229.32    5.20 
   0   0 -13  224.50    5.06 
   0   0 -13  223.23    5.05 
   1   0  13   53.56    1.41 
  -1   0 -13   52.47    1.27 
  -1   0 -13   53.22    1.29 
   2   0  13    7.65    0.38 
  -2   0 -13    7.70    0.30 
  -2   0 -13    7.52    0.26 
  -3   0 -13    2.47    0.18 
  -3   0 -13    1.90    0.14 
   3   0  13    2.21    0.23 
  -4   0 -13    3.68    0.24 
   4   0  13    3.79    0.31 
  -5   0 -13    4.51    0.28 
   5   0  13    5.54    0.39 
  -6   0 -13    0.16    0.11 
   6   0  13   -0.07    0.13 
   8  -1 -13    5.85    0.44 
  -8  -1  13    5.88    0.42 
   8   1 -13    5.66    0.45 
  -8   1  13    5.92    0.43 
   7  -1 -13    0.65    0.18 
  -7  -1  13    0.69    0.17 
  -7   1  13    0.44    0.15 
   7   1 -13    0.61    0.20 
  -6  -1  13    5.30    0.34 
   6  -1 -13    5.43    0.34 
  -6   1  13    6.05    0.37 
   6   1 -13    5.99    0.38 
   5  -1 -13    7.06    0.23 
  -5  -1  13    7.00    0.36 
   5  -1 -13    6.57    0.34 
  -5   1  13    7.19    0.38 
   5   1 -13    7.22    0.38 
   5   1 -13    6.75    0.23 
   4  -1 -13    9.87    0.38 
   4  -1 -13    9.12    0.28 
  -4  -1  13    9.01    0.40 
  -4   1  13    8.76    0.41 
   4   1 -13    8.96    0.39 
   4   1 -13    9.01    0.28 
  -3  -1  13    9.19    0.39 
   3  -1 -13    9.27    0.28 
   3  -1 -13    9.14    0.34 
  -3   1  13    9.01    0.40 
   3   1 -13    9.30    0.36 
   3   1 -13    8.93    0.28 
   2  -1 -13    1.13    0.09 
  -2  -1  13    1.23    0.10 
  -2  -1  13    1.29    0.16 
   2   1 -13    0.97    0.11 
  -2   1  13    1.01    0.15 
   2   1 -13    1.05    0.09 
  -1  -1  13   29.30    0.73 
  -1  -1  13   28.75    0.84 
   1  -1 -13   28.75    0.72 
   1   1 -13   29.19    0.78 
   1   1 -13   29.19    0.74 
  -1   1  13   29.42    0.87 
   0  -1  13   54.92    1.44 
   0  -1 -13   57.70    1.33 
   0  -1 -13   54.15    1.31 
   0   1 -13   54.92    1.34 
   0   1 -13   56.10    1.33 
   0   1  13   55.53    1.46 
   1  -1  13   12.60    0.48 
  -1  -1 -13   12.73    0.39 
  -1  -1 -13   12.91    0.37 
   1   1  13   12.70    0.50 
  -1   1 -13   13.29    0.40 
  -1   1 -13   13.27    0.42 
  -2  -1 -13    9.23    0.33 
   2  -1  13    9.15    0.41 
  -2  -1 -13    8.41    0.28 
   2   1  13    8.69    0.42 
  -2   1 -13    9.13    0.31 
  -2   1 -13    8.68    0.33 
   3  -1  13    3.08    0.26 
  -3  -1 -13    3.19    0.16 
  -3  -1 -13    3.39    0.21 
   3   1  13    3.09    0.26 
  -3   1 -13    3.01    0.20 
  -3   1 -13    3.05    0.18 
   4  -1  13    3.72    0.31 
  -4  -1 -13    3.60    0.23 
  -4   1 -13    3.48    0.23 
   4   1  13    3.51    0.30 
  -5  -1 -13    2.26    0.22 
   5  -1  13    2.28    0.29 
   5   1  13    2.78    0.31 
  -5   1 -13    2.33    0.22 
  -6  -1 -13    3.83    0.29 
   6  -1  13    3.96    0.38 
  -6   1 -13    4.03    0.28 
   6   1  13    3.50    0.36 
  -8  -2  13    7.93    0.48 
   8  -2 -13    8.54    0.51 
  -8   2  13    8.24    0.51 
   8   2 -13    7.56    0.50 
  -7  -2  13    2.51    0.28 
   7  -2 -13    2.44    0.28 
  -7   2  13    2.28    0.28 
   7   2 -13    2.31    0.31 
  -6  -2  13   17.36    0.65 
   6  -2 -13   17.57    0.65 
   6   2 -13   16.88    0.69 
  -6   2  13   18.36    0.68 
   5  -2 -13    9.63    0.30 
   5  -2 -13    9.14    0.40 
  -5  -2  13    9.70    0.43 
  -5   2  13   10.30    0.47 
   5   2 -13    9.44    0.45 
   4  -2 -13    8.16    0.27 
   4  -2 -13    8.36    0.35 
  -4  -2  13    8.24    0.38 
   4   2 -13    8.13    0.28 
  -4   2  13    8.11    0.40 
   4   2 -13    8.66    0.39 
  -3  -2  13    8.42    0.37 
  -3  -2  13    8.48    0.29 
   3  -2 -13    8.31    0.27 
  -3   2  13    8.59    0.39 
  -3   2  13    8.63    0.32 
   3   2 -13    8.37    0.28 
  -2  -2  13    6.06    0.23 
  -2  -2  13    6.52    0.30 
   2  -2 -13    6.02    0.21 
  -2   2  13    5.58    0.31 
  -2   2  13    5.90    0.24 
   2   2 -13    5.69    0.25 
   2   2 -13    5.74    0.22 
   1  -2 -13   11.97    0.36 
  -1  -2  13   13.33    0.39 
  -1  -2  13   12.76    0.46 
   1   2 -13   12.60    0.41 
  -1   2  13   12.18    0.48 
   1   2 -13   12.84    0.38 
   0  -2  13    7.70    0.34 
   0  -2  13    7.54    0.27 
   0  -2 -13    7.77    0.25 
   0   2 -13    7.90    0.28 
   0   2 -13    8.21    0.30 
   0   2  13    8.26    0.38 
   1  -2  13   19.90    0.65 
  -1  -2 -13   20.22    0.53 
  -1  -2 -13   20.27    0.56 
  -1   2 -13   20.19    0.58 
  -1   2 -13   20.54    0.59 
   1   2  13   20.78    0.69 
  -2  -2 -13    1.85    0.12 
  -2  -2 -13    2.21    0.16 
   2  -2  13    2.12    0.21 
  -2   2 -13    1.91    0.16 
  -2   2 -13    2.18    0.15 
   2   2  13    2.39    0.24 
   3  -2  13    0.69    0.15 
  -3  -2 -13    0.71    0.11 
  -3   2 -13    0.63    0.10 
  -3   2 -13    0.61    0.11 
   3   2  13    0.61    0.15 
   4  -2  13    2.67    0.27 
  -4  -2 -13    3.30    0.22 
   4   2  13    2.95    0.29 
  -4   2 -13    3.23    0.23 
  -4   2 -13    3.40    0.21 
  -5  -2 -13    0.79    0.15 
   5  -2  13    0.80    0.20 
   5   2  13    0.72    0.20 
  -5   2 -13    0.87    0.15 
  -6  -2 -13    6.96    0.37 
   6  -2  13    6.67    0.46 
  -6   2 -13    6.76    0.37 
   8  -3 -13    0.20    0.17 
  -8  -3  13    0.43    0.18 
  -8   3  13    0.29    0.17 
   8   3 -13    0.33    0.20 
   7  -3 -13    0.36    0.15 
  -7  -3  13    0.19    0.14 
  -7   3  13    0.46    0.18 
   7   3 -13    0.35    0.18 
  -6  -3  13    6.02    0.35 
   6  -3 -13    5.86    0.34 
   6  -3 -13    5.89    0.22 
   6   3 -13    6.79    0.42 
  -6   3  13    5.93    0.38 
  -5  -3  13    5.51    0.31 
   5  -3 -13    5.28    0.20 
   5   3 -13    5.00    0.34 
  -5   3  13    5.36    0.29 
  -5   3  13    5.17    0.34 
  -4  -3  13    5.73    0.24 
  -4  -3  13    5.98    0.31 
   4  -3 -13    5.76    0.22 
   4   3 -13    6.35    0.34 
  -4   3  13    6.35    0.29 
  -4   3  13    5.71    0.34 
   4   3 -13    5.85    0.24 
  -3  -3  13   14.85    0.52 
  -3  -3  13   14.71    0.46 
   3  -3 -13   15.01    0.42 
   3   3 -13   14.67    0.44 
  -3   3  13   14.70    0.55 
  -3   3  13   14.44    0.48 
  -2  -3  13    1.38    0.12 
   2  -3 -13    1.25    0.10 
  -2  -3  13    0.98    0.14 
   2   3 -13    1.24    0.11 
  -2   3  13    1.17    0.16 
   2   3 -13    1.32    0.14 
  -2   3  13    1.31    0.12 
   1  -3 -13    8.07    0.27 
  -1  -3  13    8.34    0.35 
  -1  -3  13    8.52    0.31 
   1   3 -13    8.33    0.32 
  -1   3  13    8.86    0.40 
   1   3 -13    8.59    0.31 
   0  -3  13    5.89    0.25 
   0  -3 -13    6.17    0.22 
   0  -3  13    6.29    0.30 
   0   3  13    6.65    0.34 
   0   3 -13    6.22    0.26 
   0   3 -13    6.22    0.25 
   1  -3  13   11.30    0.39 
   1  -3  13   11.39    0.45 
  -1  -3 -13   12.64    0.38 
  -1  -3 -13   11.67    0.35 
  -1   3 -13   11.50    0.39 
   1   3  13   11.99    0.49 
  -1   3 -13   11.62    0.39 
   2  -3  13   33.70    1.00 
  -2  -3 -13   35.56    0.86 
  -2  -3 -13   34.91    0.91 
   2   3  13   34.94    1.04 
  -2   3 -13   34.42    0.93 
  -2   3 -13   35.98    0.95 
  -3  -3 -13    6.62    0.29 
   3  -3  13    5.86    0.34 
   3   3  13    5.50    0.36 
  -3   3 -13    5.37    0.26 
  -3   3 -13    6.08    0.29 
   4  -3  13    0.18    0.12 
  -4  -3 -13    0.10    0.09 
  -4   3 -13    0.23    0.09 
   4   3  13    0.15    0.12 
  -4   3 -13    0.15    0.08 
  -5  -3 -13    0.43    0.12 
   5  -3  13    0.44    0.15 
   5   3  13    0.71    0.18 
  -5   3 -13    0.30    0.12 
  -6  -3 -13    4.16    0.30 
   6  -3  13    3.86    0.38 
  -6   3 -13    3.80    0.29 
   6   3  13    3.55    0.37 
   8  -4 -13    3.33    0.36 
  -8   4  13    3.59    0.38 
   8   4 -13    2.84    0.37 
   7  -4 -13    6.21    0.39 
   7   4 -13    5.93    0.45 
  -7   4  13    6.54    0.44 
   6  -4 -13   15.73    0.46 
   6   4 -13   15.01    0.66 
  -6   4  13   14.59    0.63 
  -6   4  13   15.60    0.59 
   5  -4 -13    0.58    0.09 
  -5  -4  13    0.93    0.12 
  -5   4  13    0.73    0.17 
   5   4 -13    0.84    0.18 
  -5   4  13    0.95    0.15 
   4  -4 -13    9.91    0.32 
  -4  -4  13    9.88    0.36 
  -4   4  13    9.38    0.44 
  -4   4  13    9.14    0.39 
   4   4 -13   10.12    0.34 
   4   4 -13    9.49    0.45 
   3  -4 -13    1.55    0.12 
  -3  -4  13    1.50    0.14 
   3   4 -13    1.66    0.13 
  -3   4  13    1.21    0.14 
  -3   4  13    1.21    0.18 
  -2  -4  13    1.55    0.14 
   2  -4 -13    1.74    0.12 
   2   4 -13    1.72    0.14 
  -2   4  13    1.75    0.15 
   2   4 -13    1.59    0.16 
  -2   4  13    1.64    0.19 
  -1  -4  13    5.14    0.24 
   1  -4 -13    5.13    0.21 
  -1   4  13    4.93    0.24 
  -1   4  13    5.32    0.30 
   1   4 -13    4.92    0.25 
   1   4 -13    4.58    0.23 
   0  -4 -13    9.48    0.30 
   0  -4  13    9.20    0.35 
   0   4 -13    9.78    0.35 
   0   4 -13    9.50    0.35 
   0   4  13    9.18    0.42 
   1  -4  13   15.52    0.50 
  -1  -4 -13   15.78    0.44 
   1   4  13   15.76    0.60 
  -1   4 -13   16.77    0.52 
  -1   4 -13   15.92    0.50 
  -2  -4 -13    6.22    0.23 
  -2  -4 -13    6.51    0.28 
   2  -4  13    7.18    0.30 
  -2   4 -13    6.79    0.28 
  -2   4 -13    7.06    0.30 
   2   4  13    6.61    0.37 
  -3  -4 -13    7.40    0.33 
   3  -4  13    8.22    0.34 
  -3   4 -13    8.38    0.34 
   3   4  13    7.68    0.42 
  -4  -4 -13   10.72    0.42 
  -4   4 -13   12.00    0.47 
  -4   4 -13   11.80    0.43 
   4   4  13   12.01    0.57 
  -5  -4 -13    1.22    0.17 
  -5   4 -13    0.70    0.16 
   5   4  13    1.14    0.23 
   7  -5 -13   13.43    0.61 
   7   5 -13   14.60    0.71 
  -7   5  13   15.11    0.67 
   6  -5 -13    3.13    0.18 
   6   5 -13    2.12    0.30 
  -6   5  13    2.58    0.29 
  -6   5  13    2.41    0.24 
  -5  -5  13    2.07    0.18 
   5  -5 -13    1.54    0.14 
  -5   5  13    1.83    0.24 
  -5   5  13    1.86    0.20 
   5   5 -13    2.01    0.27 
  -4  -5  13    0.77    0.13 
   4  -5 -13    0.89    0.11 
  -4   5  13    0.67    0.16 
  -4   5  13    1.18    0.17 
  -3  -5  13    2.99    0.21 
   3  -5 -13    3.32    0.17 
   3   5 -13    3.23    0.19 
  -3   5  13    3.32    0.23 
  -3   5  13    2.73    0.25 
   2  -5 -13    5.93    0.24 
  -2  -5  13    5.81    0.27 
  -2   5  13    5.74    0.34 
   2   5 -13    5.90    0.29 
   2   5 -13    6.08    0.27 
  -2   5  13    6.36    0.30 
  -1  -5  13    5.39    0.26 
   1  -5 -13    4.46    0.20 
  -1   5  13    4.27    0.29 
   1   5 -13    4.47    0.23 
  -1   5  13    4.52    0.25 
   1   5 -13    4.58    0.24 
   0  -5  13    1.39    0.15 
   0  -5 -13    1.06    0.11 
   0   5 -13    1.22    0.14 
   0   5 -13    1.31    0.14 
   0   5  13    0.94    0.16 
  -1  -5 -13    2.78    0.15 
   1  -5  13    2.35    0.19 
  -1   5 -13    2.73    0.19 
  -1   5 -13    2.63    0.18 
   1   5  13    2.44    0.23 
   2  -5  13    3.82    0.23 
   2   5  13    3.89    0.31 
  -2   5 -13    4.61    0.23 
  -2   5 -13    4.06    0.25 
   3  -5  13    0.04    0.07 
  -3  -5 -13    0.19    0.11 
  -3   5 -13    0.14    0.09 
   3   5  13    0.28    0.13 
  -3   5 -13    0.14    0.07 
   4  -5  13    0.49    0.12 
  -4  -5 -13    0.54    0.13 
  -4   5 -13    0.54    0.12 
   4   5  13    0.61    0.17 
  -4   5 -13    0.64    0.11 
   5  -5  13    0.80    0.14 
  -5  -5 -13    0.72    0.16 
   5   5  13    0.70    0.20 
   6  -6 -13    4.31    0.22 
  -6  -6  13    4.10    0.26 
  -6   6  13    3.24    0.29 
   6   6 -13    4.49    0.38 
  -5  -6  13    2.61    0.22 
   5  -6 -13    2.52    0.17 
  -5   6  13    2.21    0.24 
   5   6 -13    2.37    0.29 
  -4  -6  13    3.07    0.22 
   4  -6 -13    3.13    0.19 
  -4   6  13    3.36    0.26 
   3  -6 -13    3.07    0.18 
  -3  -6  13    3.30    0.23 
  -3   6  13    2.90    0.23 
   3   6 -13    3.01    0.20 
   2  -6 -13    7.65    0.29 
  -2  -6  13    7.16    0.34 
  -2   6  13    7.52    0.36 
   2   6 -13    7.89    0.33 
   2   6 -13    7.91    0.36 
  -1  -6  13    1.32    0.15 
   1  -6 -13    1.50    0.13 
   1   6 -13    1.53    0.16 
   1   6 -13    1.83    0.18 
  -1   6  13    1.62    0.17 
   0  -6  13   11.71    0.45 
   0  -6 -13   11.58    0.37 
   0   6 -13   12.34    0.45 
   0   6 -13   12.62    0.45 
   1  -6  13    5.83    0.30 
  -1  -6 -13    5.72    0.23 
  -1   6 -13    6.11    0.29 
  -1   6 -13    5.56    0.29 
   2  -6  13    2.25    0.21 
  -2   6 -13    2.48    0.21 
  -2   6 -13    2.44    0.19 
   3  -6  13    8.45    0.38 
  -3   6 -13    8.87    0.38 
  -3   6 -13    8.96    0.35 
   4  -6  13    0.75    0.14 
  -4   6 -13    0.57    0.11 
  -4   6 -13    0.28    0.12 
  -5  -7  13    1.79    0.21 
   5  -7 -13    1.68    0.17 
  -5   7  13    1.85    0.23 
  -4  -7  13    3.27    0.24 
   4  -7 -13    3.16    0.20 
  -4   7  13    3.17    0.27 
  -3  -7  13    9.35    0.42 
   3  -7 -13   10.38    0.37 
  -3   7  13    9.66    0.45 
   3   7 -13    9.47    0.37 
  -2  -7  13    1.35    0.18 
   2  -7 -13    1.11    0.13 
   2   7 -13    1.53    0.17 
  -2   7  13    1.21    0.19 
   2   7 -13    1.11    0.16 
   1  -7 -13    0.65    0.10 
  -1  -7  13    0.65    0.13 
  -1   7  13    0.81    0.16 
   1   7 -13    0.47    0.12 
   1   7 -13    0.73    0.12 
   0  -7  13    0.97    0.15 
   0  -7 -13    0.93    0.11 
   0   7 -13    0.91    0.14 
   0   7 -13    0.97    0.14 
   0   7  13    1.28    0.21 
  -1  -7 -13    7.62    0.29 
  -1   7 -13    7.31    0.35 
  -1   7 -13    7.70    0.35 
   2  -7  13    1.13    0.17 
  -2   7 -13    1.35    0.16 
  -2   7 -13    1.27    0.18 
   3  -7  13    5.55    0.34 
  -3   7 -13    5.19    0.32 
  -3   7 -13    5.07    0.31 
   3  -8 -13    2.31    0.20 
  -3  -8  13    2.60    0.24 
  -3   8  13    3.12    0.27 
  -2  -8  13    6.99    0.37 
   2  -8 -13    7.25    0.31 
   2   8 -13    7.87    0.36 
  -2   8  13    7.45    0.41 
   1  -8 -13    5.98    0.27 
  -1  -8  13    5.45    0.32 
   1   8 -13    5.76    0.31 
   1   8 -13    5.54    0.32 
  -1   8  13    5.71    0.35 
   0  -8 -13    0.70    0.12 
   0  -8  13    0.28    0.11 
   0   8 -13    0.37    0.12 
   0   8  13    0.69    0.15 
   0   8 -13    0.42    0.12 
   8   0 -14    1.79    0.29 
  -8   0  14    2.81    0.32 
   7   0 -14    6.21    0.43 
  -7   0  14    7.01    0.42 
   6   0 -14    8.27    0.45 
  -6   0  14    9.02    0.45 
   5   0 -14    0.45    0.07 
  -5   0  14    0.40    0.13 
   5   0 -14    0.45    0.13 
  -4   0  14    0.17    0.10 
   4   0 -14    0.00    0.07 
   4   0 -14    0.10    0.04 
   3   0 -14    2.72    0.14 
  -3   0  14    2.57    0.22 
   2   0 -14    8.98    0.29 
  -2   0  14    9.11    0.40 
   1   0 -14   49.50    1.23 
   1   0 -14   49.49    1.17 
  -1   0  14   46.55    1.25 
  -1   0  14   48.85    1.31 
   0   0  14   19.14    0.66 
   0   0 -14   20.40    0.55 
   0   0 -14   19.70    0.54 
  -1   0 -14   20.28    0.58 
  -1   0 -14   20.61    0.56 
   1   0  14   21.11    0.70 
  -2   0 -14    2.17    0.17 
  -2   0 -14    2.37    0.15 
   2   0  14    2.16    0.23 
  -3   0 -14   12.17    0.43 
  -3   0 -14   11.72    0.38 
   3   0  14   12.06    0.52 
   4   0  14    1.87    0.26 
  -4   0 -14    1.80    0.19 
  -5   0 -14    9.25    0.41 
   5   0  14    8.81    0.51 
  -6   0 -14    0.03    0.12 
   6   0  14    0.42    0.19 
  -8  -1  14    6.82    0.46 
   8  -1 -14    6.59    0.47 
   8   1 -14    6.25    0.46 
  -8   1  14    7.84    0.48 
  -7  -1  14    9.87    0.51 
   7  -1 -14   10.45    0.53 
  -7   1  14    9.44    0.51 
   7   1 -14   10.56    0.55 
   6  -1 -14    2.60    0.26 
  -6  -1  14    2.82    0.27 
   6   1 -14    2.35    0.26 
  -6   1  14    2.84    0.28 
   5  -1 -14    0.25    0.12 
   5  -1 -14    0.14    0.05 
  -5  -1  14    0.36    0.12 
   5   1 -14    0.25    0.12 
  -5   1  14    0.22    0.12 
   5   1 -14    0.11    0.05 
   4  -1 -14   25.73    0.77 
   4  -1 -14   25.71    0.66 
  -4  -1  14   25.97    0.82 
  -4   1  14   26.20    0.85 
   4   1 -14   27.98    0.69 
   4   1 -14   25.94    0.81 
  -3  -1  14    5.72    0.31 
   3  -1 -14    5.70    0.21 
  -3   1  14    5.70    0.32 
   3   1 -14    5.74    0.21 
   2  -1 -14    9.93    0.31 
  -2  -1  14   10.17    0.42 
   2   1 -14   10.30    0.32 
  -2   1  14    9.60    0.42 
  -1  -1  14   12.11    0.37 
   1  -1 -14   11.98    0.36 
  -1  -1  14   12.91    0.48 
  -1   1  14   12.28    0.48 
   1   1 -14   12.21    0.41 
   1   1 -14   12.09    0.37 
   0  -1 -14   34.35    0.85 
   0  -1  14   33.71    0.99 
   0  -1 -14   34.58    0.86 
   0   1  14   34.52    1.01 
   0   1 -14   34.04    0.88 
   0   1 -14   34.26    0.87 
  -1  -1 -14   33.32    0.83 
   1  -1  14   32.91    0.97 
  -1  -1 -14   33.59    0.86 
  -1   1 -14   32.91    0.87 
  -1   1 -14   34.34    0.89 
   1   1  14   34.39    1.01 
   2  -1  14    5.21    0.32 
  -2  -1 -14    5.17    0.24 
  -2  -1 -14    4.95    0.21 
  -2   1 -14    5.05    0.22 
  -2   1 -14    5.26    0.25 
   2   1  14    5.63    0.33 
  -3  -1 -14    4.55    0.20 
   3  -1  14    4.36    0.31 
  -3  -1 -14    4.84    0.25 
  -3   1 -14    4.39    0.22 
  -3   1 -14    4.80    0.25 
   3   1  14    4.35    0.32 
   4  -1  14    7.01    0.41 
  -4  -1 -14    7.23    0.34 
  -4   1 -14    6.67    0.33 
   4   1  14    6.96    0.42 
   5  -1  14    4.31    0.36 
  -5  -1 -14    4.68    0.30 
   5   1  14    4.54    0.39 
  -5   1 -14    5.23    0.31 
  -6  -1 -14   21.29    0.72 
   6  -1  14   20.42    0.85 
  -6   1 -14   21.15    0.72 
   6   1  14   20.48    0.86 
  -8  -2  14    0.13    0.16 
   8  -2 -14    0.24    0.19 
  -8   2  14    0.53    0.20 
   8   2 -14    0.22    0.19 
  -7  -2  14    3.55    0.32 
   7  -2 -14    2.75    0.30 
  -7   2  14    3.63    0.34 
   7   2 -14    4.00    0.36 
  -6  -2  14    4.84    0.34 
   6  -2 -14    5.34    0.22 
   6  -2 -14    4.71    0.32 
  -6   2  14    4.55    0.34 
   6   2 -14    4.82    0.36 
  -5  -2  14    0.74    0.16 
   5  -2 -14    0.49    0.11 
   5  -2 -14    0.64    0.08 
   5   2 -14    0.82    0.17 
  -5   2  14    0.82    0.17 
   4  -2 -14   11.36    0.34 
  -4  -2  14   10.91    0.46 
   4  -2 -14   11.32    0.43 
   4   2 -14   10.73    0.35 
  -4   2  14   11.57    0.49 
   3  -2 -14   11.08    0.34 
  -3  -2  14   12.23    0.47 
  -3   2  14   11.29    0.48 
   3   2 -14   11.29    0.36 
  -3   2  14   11.43    0.39 
  -2  -2  14   13.94    0.42 
  -2  -2  14   13.76    0.50 
   2  -2 -14   13.42    0.39 
   2   2 -14   13.47    0.45 
  -2   2  14   14.12    0.53 
   2   2 -14   13.08    0.41 
   1  -2 -14   66.65    1.55 
  -1  -2  14   64.78    1.57 
  -1  -2  14   66.25    1.68 
   1   2 -14   64.90    1.56 
  -1   2  14   64.25    1.70 
   1   2 -14   66.66    1.60 
   0  -2  14   26.90    0.73 
   0  -2  14   28.41    0.83 
   0  -2 -14   27.78    0.70 
   0   2 -14   28.19    0.74 
   0   2 -14   27.83    0.77 
   0   2  14   27.78    0.87 
  -1  -2 -14   39.39    0.98 
  -1  -2 -14   40.90    1.01 
   1  -2  14   39.73    1.12 
   1   2  14   39.77    1.16 
  -1   2 -14   40.09    1.03 
  -1   2 -14   39.78    1.02 
  -2  -2 -14    7.43    0.30 
  -2  -2 -14    7.05    0.25 
   2  -2  14    7.35    0.38 
   2   2  14    7.46    0.40 
  -2   2 -14    7.44    0.32 
  -2   2 -14    9.22    0.32 
  -3  -2 -14    2.56    0.19 
   3  -2  14    2.60    0.25 
  -3   2 -14    2.87    0.21 
  -3   2 -14    2.30    0.17 
   3   2  14    2.49    0.27 
   4  -2  14    6.81    0.40 
  -4  -2 -14    6.21    0.32 
  -4   2 -14    6.80    0.34 
   4   2  14    6.76    0.43 
   5  -2  14    0.47    0.18 
  -5  -2 -14    0.44    0.12 
   5   2  14    0.35    0.18 
  -5   2 -14    0.21    0.12 
  -6  -2 -14    7.73    0.41 
   6  -2  14    8.11    0.52 
   6   2  14    8.17    0.56 
  -6   2 -14    7.73    0.46 
   8  -3 -14    4.83    0.40 
  -8   3  14    4.65    0.41 
   8   3 -14    4.99    0.45 
  -7  -3  14   13.39    0.58 
   7  -3 -14   11.33    0.55 
   7   3 -14   12.90    0.63 
  -7   3  14   12.89    0.61 
  -6  -3  14    3.62    0.29 
   6  -3 -14    3.45    0.27 
   6  -3 -14    3.38    0.17 
  -6   3  14    3.70    0.32 
   6   3 -14    3.19    0.30 
   5  -3 -14    5.81    0.33 
  -5  -3  14    5.85    0.33 
   5  -3 -14    5.81    0.22 
  -5   3  14    5.83    0.37 
   5   3 -14    6.71    0.38 
  -4  -3  14    0.33    0.11 
   4  -3 -14    0.24    0.06 
   4   3 -14    0.30    0.07 
  -4   3  14    0.40    0.13 
  -4   3  14    0.25    0.09 
  -3  -3  14    0.63    0.13 
  -3  -3  14    0.92    0.11 
   3  -3 -14    0.88    0.09 
  -3   3  14    0.82    0.12 
  -3   3  14    0.87    0.16 
   3   3 -14    0.74    0.10 
  -2  -3  14    1.95    0.14 
   2  -3 -14    2.07    0.13 
  -2  -3  14    1.88    0.18 
  -2   3  14    2.24    0.18 
   2   3 -14    2.06    0.15 
  -2   3  14    2.10    0.21 
   2   3 -14    1.96    0.17 
   1  -3 -14    6.29    0.23 
  -1  -3  14    5.99    0.30 
  -1  -3  14    5.97    0.26 
   1   3 -14    5.90    0.25 
   1   3 -14    6.42    0.28 
  -1   3  14    6.02    0.34 
   0  -3  14    8.19    0.36 
   0  -3  14    8.08    0.31 
   0  -3 -14    7.80    0.27 
   0   3  14    8.35    0.40 
   0   3 -14    8.36    0.32 
   0   3 -14    8.21    0.31 
   1  -3  14    0.27    0.08 
  -1  -3 -14    0.32    0.07 
   1  -3  14    0.23    0.10 
  -1   3 -14    0.34    0.09 
  -1   3 -14    0.41    0.09 
   1   3  14    0.29    0.12 
   2  -3  14   10.85    0.45 
  -2  -3 -14   10.47    0.33 
  -2  -3 -14   10.89    0.38 
   2   3  14   10.62    0.49 
  -2   3 -14   11.41    0.41 
  -2   3 -14   10.70    0.39 
   3  -3  14    4.02    0.30 
  -3  -3 -14    4.47    0.25 
   3   3  14    4.46    0.33 
  -3   3 -14    4.53    0.26 
  -3   3 -14    4.75    0.25 
   4  -3  14    1.22    0.21 
  -4  -3 -14    1.33    0.17 
  -4   3 -14    1.08    0.14 
  -4   3 -14    1.45    0.18 
   4   3  14    1.71    0.25 
   5  -3  14    3.35    0.33 
  -5  -3 -14    3.05    0.26 
  -5   3 -14    3.72    0.27 
   5   3  14    2.96    0.34 
   7  -4 -14    1.16    0.22 
   7   4 -14    1.28    0.27 
  -7   4  14    1.85    0.27 
   6  -4 -14    1.07    0.12 
   6  -4 -14    1.36    0.21 
   6   4 -14    1.29    0.24 
  -6   4  14    0.95    0.20 
   5  -4 -14    5.16    0.22 
  -5   4  14    5.35    0.36 
  -5   4  14    4.86    0.29 
   5   4 -14    4.37    0.34 
  -4  -4  14    7.08    0.30 
   4  -4 -14    7.32    0.27 
  -4   4  14    7.28    0.34 
   4   4 -14    6.92    0.28 
  -4   4  14    6.90    0.39 
  -3  -4  14    0.67    0.11 
   3  -4 -14    0.73    0.09 
   3   4 -14    0.70    0.10 
  -3   4  14    0.73    0.12 
  -3   4  14    0.74    0.15 
   2  -4 -14    2.20    0.13 
  -2  -4  14    2.23    0.17 
   2   4 -14    2.24    0.16 
  -2   4  14    1.99    0.17 
  -2   4  14    1.84    0.21 
   2   4 -14    2.09    0.18 
  -1  -4  14   36.18    0.97 
   1  -4 -14   36.06    0.90 
  -1   4  14   36.99    1.08 
   1   4 -14   36.86    0.96 
   1   4 -14   35.63    0.98 
   0  -4 -14    6.57    0.24 
   0  -4  14    6.34    0.29 
   0   4 -14    6.38    0.28 
   0   4  14    6.95    0.37 
   0   4 -14    6.30    0.29 
  -1  -4 -14    1.15    0.11 
   1  -4  14    1.48    0.15 
  -1   4 -14    1.38    0.15 
  -1   4 -14    1.38    0.15 
   1   4  14    1.27    0.19 
   2  -4  14    3.92    0.23 
  -2  -4 -14    3.85    0.18 
   2   4  14    3.55    0.30 
  -2   4 -14    3.74    0.21 
  -2   4 -14    3.43    0.22 
  -3  -4 -14    1.77    0.18 
   3  -4  14    1.79    0.17 
   3   4  14    1.78    0.24 
  -3   4 -14    1.83    0.18 
  -3   4 -14    1.75    0.16 
  -4  -4 -14    1.95    0.22 
   4   4  14    2.66    0.31 
  -4   4 -14    2.23    0.22 
  -4   4 -14    2.48    0.21 
  -5  -4 -14    1.00    0.17 
  -5   4 -14    1.11    0.18 
   5   4  14    0.81    0.20 
   7  -5 -14   14.29    0.64 
  -7   5  14   14.31    0.66 
   7   5 -14   13.51    0.69 
   6  -5 -14    8.81    0.32 
   6   5 -14    8.89    0.52 
  -6   5  14    8.83    0.49 
  -6   5  14    8.24    0.43 
   5  -5 -14    1.40    0.13 
  -5  -5  14    1.04    0.15 
  -5   5  14    1.43    0.19 
  -5   5  14    1.55    0.23 
   4  -5 -14   11.66    0.37 
  -4  -5  14   10.61    0.42 
  -4   5  14   11.06    0.50 
  -4   5  14   10.05    0.43 
  -3  -5  14    6.50    0.30 
   3  -5 -14    6.34    0.25 
  -3   5  14    7.22    0.39 
  -3   5  14    6.05    0.31 
   3   5 -14    6.30    0.28 
  -2  -5  14    1.82    0.17 
   2  -5 -14    1.63    0.13 
   2   5 -14    1.95    0.18 
   2   5 -14    1.90    0.17 
  -2   5  14    1.70    0.21 
  -2   5  14    1.84    0.17 
  -1  -5  14    2.57    0.19 
   1  -5 -14    2.60    0.16 
  -1   5  14    2.48    0.24 
   1   5 -14    2.55    0.20 
   1   5 -14    2.58    0.19 
   0  -5 -14    0.60    0.09 
   0  -5  14    0.45    0.11 
   0   5 -14    0.57    0.11 
   0   5  14    0.47    0.14 
   0   5 -14    0.60    0.11 
  -1  -5 -14    2.03    0.14 
   1  -5  14    2.23    0.19 
  -1   5 -14    1.92    0.17 
  -1   5 -14    1.76    0.17 
   1   5  14    1.78    0.23 
   2  -5  14   16.37    0.55 
  -2   5 -14   16.83    0.54 
  -2   5 -14   17.20    0.57 
   2   5  14   17.44    0.67 
   3  -5  14    5.30    0.29 
   3   5  14    5.17    0.37 
  -3   5 -14    4.97    0.28 
  -3   5 -14    5.22    0.26 
   4  -5  14    3.05    0.23 
  -4  -5 -14    3.71    0.25 
  -4   5 -14    3.27    0.21 
  -4   5 -14    3.38    0.24 
   4   5  14    3.86    0.34 
   6  -6 -14    2.01    0.17 
  -6  -6  14    2.68    0.23 
  -6   6  14    2.29    0.25 
   5  -6 -14    3.89    0.22 
  -5  -6  14    4.03    0.26 
  -5   6  14    4.18    0.30 
  -4  -6  14    1.45    0.17 
   4  -6 -14    1.24    0.14 
  -4   6  14    1.41    0.20 
   3  -6 -14    5.27    0.24 
  -3  -6  14    4.92    0.28 
   3   6 -14    5.05    0.27 
  -3   6  14    5.22    0.31 
   2  -6 -14   13.07    0.42 
  -2  -6  14   12.98    0.49 
   2   6 -14   13.30    0.47 
  -2   6  14   13.92    0.51 
   2   6 -14   12.87    0.49 
   1  -6 -14    2.78    0.17 
  -1  -6  14    2.88    0.22 
   1   6 -14    3.03    0.22 
   1   6 -14    2.90    0.22 
   0  -6  14    3.44    0.24 
   0  -6 -14    3.37    0.19 
   0   6 -14    3.19    0.22 
   0   6 -14    2.93    0.22 
   1  -6  14    2.96    0.23 
  -1  -6 -14    3.38    0.18 
  -1   6 -14    2.82    0.21 
  -1   6 -14    2.81    0.21 
   2  -6  14    3.50    0.25 
  -2   6 -14    3.40    0.23 
  -2   6 -14    3.04    0.24 
   3  -6  14    1.04    0.16 
  -3   6 -14    0.91    0.12 
  -3   6 -14    0.78    0.14 
   4  -7 -14    0.16    0.08 
  -4  -7  14   -0.06    0.09 
  -4   7  14   -0.01    0.10 
  -3  -7  14    3.54    0.26 
   3  -7 -14    3.32    0.20 
   3   7 -14    3.38    0.22 
  -3   7  14    3.51    0.28 
  -2  -7  14    9.16    0.41 
   2  -7 -14    8.76    0.34 
   2   7 -14    9.51    0.44 
   2   7 -14    8.39    0.37 
  -2   7  14    9.27    0.43 
   1  -7 -14   13.58    0.44 
  -1  -7  14   13.07    0.51 
   1   7 -14   13.17    0.51 
  -1   7  14   13.31    0.55 
   1   7 -14   13.10    0.48 
   0  -7 -14    7.84    0.30 
   0  -7  14    7.47    0.37 
   0   7 -14    6.79    0.34 
   0   7 -14    7.41    0.35 
  -1  -7 -14    0.26    0.09 
   1  -7  14    0.26    0.11 
  -1   7 -14    0.41    0.11 
  -1   7 -14    0.54    0.13 
   2  -7  14    2.25    0.22 
  -2   7 -14    2.30    0.20 
  -2   7 -14    2.20    0.22 
   8   0 -15    0.33    0.19 
  -8   0  15    0.34    0.18 
  -7   0  15    7.83    0.47 
   7   0 -15    7.66    0.47 
   6   0 -15    0.43    0.15 
  -6   0  15    0.60    0.17 
   5   0 -15    0.66    0.15 
  -5   0  15    1.33    0.20 
   5   0 -15    1.16    0.10 
   4   0 -15   20.54    0.55 
  -4   0  15   20.66    0.72 
  -3   0  15   26.69    0.84 
   3   0 -15   26.03    0.68 
  -2   0  15    4.67    0.29 
   2   0 -15    4.28    0.18 
  -1   0  15    4.35    0.28 
   1   0 -15    3.65    0.17 
   0   0 -15   12.82    0.41 
   0   0 -15   13.12    0.39 
   0   0  15   13.12    0.52 
  -1   0 -15    2.48    0.15 
   1   0  15    2.44    0.24 
  -1   0 -15    2.52    0.17 
  -2   0 -15    0.35    0.08 
  -2   0 -15    0.43    0.10 
   2   0  15    0.25    0.11 
  -3   0 -15    0.82    0.11 
   3   0  15    0.66    0.18 
  -3   0 -15    0.86    0.14 
   4   0  15    0.55    0.18 
  -4   0 -15    0.51    0.13 
   5   0  15    6.65    0.46 
  -5   0 -15    7.07    0.36 
   8  -1 -15    1.65    0.29 
  -8  -1  15    1.97    0.30 
  -8   1  15    1.99    0.29 
   8   1 -15    2.28    0.34 
   7  -1 -15    1.19    0.24 
  -7  -1  15    1.44    0.25 
  -7   1  15    1.95    0.27 
   7   1 -15    1.42    0.26 
   6  -1 -15    3.20    0.29 
  -6  -1  15    3.10    0.29 
   6   1 -15    2.93    0.29 
  -6   1  15    2.91    0.28 
  -5  -1  15    1.27    0.20 
   5  -1 -15    1.59    0.11 
   5  -1 -15    1.63    0.22 
   5   1 -15    1.52    0.21 
   5   1 -15    1.34    0.11 
  -5   1  15    1.42    0.21 
   4  -1 -15    9.23    0.30 
   4  -1 -15    9.27    0.42 
  -4  -1  15    8.68    0.42 
   4   1 -15    8.87    0.30 
  -4   1  15    8.73    0.43 
  -3  -1  15    8.94    0.42 
   3  -1 -15    9.52    0.30 
  -3   1  15    9.35    0.44 
   3   1 -15    9.74    0.31 
  -2  -1  15   44.72    1.25 
   2  -1 -15   46.13    1.10 
   2   1 -15   45.40    1.12 
  -2   1  15   46.82    1.29 
  -1  -1  15    5.55    0.31 
  -1  -1  15    5.95    0.23 
   1  -1 -15    5.70    0.22 
   1   1 -15    5.63    0.23 
  -1   1  15    5.34    0.32 
   1   1 -15    5.76    0.26 
   0  -1  15   25.24    0.81 
   0  -1 -15   25.79    0.67 
   0   1  15   26.00    0.83 
   0   1 -15   25.67    0.69 
   0   1 -15   25.37    0.70 
   1  -1  15   12.36    0.51 
  -1  -1 -15   11.82    0.37 
  -1  -1 -15   12.48    0.40 
   1   1  15   12.34    0.52 
  -1   1 -15   11.82    0.39 
  -1   1 -15   12.26    0.41 
  -2  -1 -15   11.71    0.40 
  -2  -1 -15   10.93    0.36 
   2  -1  15   11.84    0.50 
  -2   1 -15   11.79    0.42 
  -2   1 -15   12.17    0.40 
   2   1  15   11.76    0.52 
  -3  -1 -15    1.30    0.18 
  -3  -1 -15    1.15    0.15 
   3  -1  15    0.89    0.19 
  -3   1 -15    1.08    0.13 
  -3   1 -15    0.71    0.13 
   3   1  15    1.08    0.20 
  -4  -1 -15    9.92    0.41 
   4  -1  15    9.96    0.51 
  -4   1 -15   10.08    0.42 
   4   1  15   10.39    0.53 
   5  -1  15    0.90    0.21 
  -5  -1 -15    1.01    0.18 
   5   1  15    0.98    0.22 
  -5   1 -15    1.03    0.17 
   8  -2 -15    6.90    0.48 
  -8  -2  15    6.77    0.46 
  -8   2  15    5.44    0.44 
   8   2 -15    6.01    0.47 
  -7  -2  15    1.61    0.24 
   7  -2 -15    1.42    0.25 
  -7   2  15    1.28    0.26 
   7   2 -15    2.36    0.31 
  -6  -2  15    1.25    0.21 
   6  -2 -15    1.17    0.20 
   6  -2 -15    1.39    0.12 
  -6   2  15    1.13    0.22 
   6   2 -15    1.42    0.23 
  -5  -2  15    3.54    0.28 
   5  -2 -15    3.56    0.17 
   5  -2 -15    3.57    0.26 
   5   2 -15    4.19    0.40 
  -5   2  15    3.31    0.30 
  -4  -2  15    9.87    0.44 
   4  -2 -15    9.64    0.39 
   4  -2 -15    9.63    0.31 
  -4   2  15    9.29    0.46 
   4   2 -15    9.51    0.32 
  -3  -2  15    4.57    0.29 
   3  -2 -15    4.80    0.19 
  -3   2  15    4.76    0.32 
   3   2 -15    4.70    0.21 
  -2  -2  15    1.20    0.17 
   2  -2 -15    1.10    0.10 
  -2  -2  15    1.45    0.12 
  -2   2  15    1.38    0.20 
   2   2 -15    1.61    0.13 
  -1  -2  15   48.28    1.30 
   1  -2 -15   46.62    1.15 
  -1  -2  15   48.00    1.18 
   1   2 -15   46.81    1.19 
  -1   2  15   48.98    1.34 
   1   2 -15   48.54    1.23 
   0  -2  15    0.41    0.12 
   0  -2  15    0.56    0.09 
   0  -2 -15    0.48    0.08 
   0   2  15    0.39    0.14 
   0   2 -15    0.54    0.10 
   0   2 -15    0.59    0.09 
  -1  -2 -15   11.67    0.36 
   1  -2  15   12.31    0.50 
  -1   2 -15   12.08    0.41 
  -1   2 -15   12.39    0.42 
   1   2  15   11.99    0.52 
  -2  -2 -15    0.34    0.07 
  -2  -2 -15    0.23    0.08 
   2  -2  15    0.26    0.11 
   2   2  15    0.17    0.12 
  -2   2 -15    0.33    0.09 
  -2   2 -15    0.41    0.09 
   3  -2  15   11.26    0.52 
  -3  -2 -15   11.11    0.42 
  -3   2 -15   10.92    0.42 
   3   2  15   11.93    0.55 
  -3   2 -15    9.95    0.38 
  -4  -2 -15    0.04    0.09 
   4  -2  15   -0.03    0.12 
  -4   2 -15    0.04    0.10 
   4   2  15   -0.08    0.12 
  -5  -2 -15    0.08    0.11 
   5  -2  15    0.00    0.14 
   5   2  15    0.04    0.17 
  -5   2 -15    0.00    0.11 
   7  -3 -15    2.92    0.31 
  -7   3  15    3.41    0.35 
   7   3 -15    2.96    0.33 
   6  -3 -15   16.47    0.48 
  -6  -3  15   16.56    0.65 
   6  -3 -15   16.67    0.63 
  -6   3  15   15.99    0.68 
   6   3 -15   16.94    0.69 
   5  -3 -15    0.70    0.09 
   5  -3 -15    0.76    0.15 
  -5  -3  15    0.68    0.15 
  -5   3  15    0.72    0.17 
  -4  -3  15    4.54    0.29 
   4  -3 -15    4.32    0.19 
  -4   3  15    4.62    0.33 
   4   3 -15    4.55    0.22 
  -4   3  15    4.30    0.25 
  -3  -3  15    1.39    0.13 
  -3  -3  15    1.24    0.18 
   3  -3 -15    1.17    0.11 
  -3   3  15    0.96    0.17 
  -3   3  15    1.50    0.14 
   3   3 -15    1.18    0.12 
   2  -3 -15    5.85    0.23 
  -2  -3  15    5.82    0.31 
   2   3 -15    6.08    0.29 
  -2   3  15    5.73    0.35 
   2   3 -15    5.96    0.26 
  -1  -3  15    4.13    0.21 
   1  -3 -15    3.98    0.18 
  -1  -3  15    4.28    0.26 
  -1   3  15    3.92    0.29 
   1   3 -15    4.04    0.21 
   1   3 -15    4.25    0.24 
   0  -3 -15   29.51    0.75 
   0  -3  15   30.14    0.80 
   0  -3  15   27.62    0.86 
   0   3  15   29.80    0.93 
   0   3 -15   29.57    0.80 
   0   3 -15   29.06    0.82 
  -1  -3 -15    0.35    0.07 
   1  -3  15    0.41    0.09 
   1  -3  15    0.38    0.11 
  -1   3 -15    0.29    0.09 
   1   3  15    0.44    0.15 
  -1   3 -15    0.26    0.08 
  -2  -3 -15    3.88    0.18 
  -2  -3 -15    4.11    0.33 
   2  -3  15    3.88    0.29 
   2   3  15    3.76    0.31 
  -2   3 -15    3.58    0.22 
  -2   3 -15    3.48    0.23 
   3  -3  15    4.82    0.34 
  -3  -3 -15    4.82    0.26 
  -3   3 -15    4.41    0.25 
  -3   3 -15    5.05    0.29 
   3   3  15    5.18    0.36 
   4  -3  15    1.62    0.25 
  -4  -3 -15    1.56    0.19 
  -4   3 -15    1.99    0.22 
  -4   3 -15    1.29    0.16 
   4   3  15    1.61    0.26 
  -5  -3 -15    0.46    0.14 
   5  -3  15    0.53    0.18 
   5   3  15    0.54    0.20 
  -5   3 -15    0.65    0.15 
   7  -4 -15    5.12    0.38 
  -7   4  15    5.84    0.43 
   7   4 -15    5.27    0.43 
   6  -4 -15    1.24    0.13 
   6  -4 -15    1.17    0.20 
   6   4 -15    1.09    0.26 
  -6   4  15    1.23    0.23 
   5  -4 -15    4.18    0.20 
  -5   4  15    4.73    0.35 
  -5   4  15    4.61    0.29 
  -4  -4  15    5.74    0.27 
   4  -4 -15    5.15    0.22 
  -4   4  15    6.00    0.37 
  -4   4  15    5.37    0.30 
   4   4 -15    5.73    0.26 
   3  -4 -15   12.83    0.39 
  -3  -4  15   12.35    0.44 
  -3   4  15   12.69    0.47 
   3   4 -15   12.49    0.42 
  -3   4  15   12.18    0.53 
  -2  -4  15    0.61    0.11 
   2  -4 -15    0.63    0.09 
   2   4 -15    0.56    0.10 
   2   4 -15    0.65    0.12 
  -2   4  15    0.57    0.14 
   1  -4 -15   25.41    0.67 
  -1  -4  15   24.98    0.73 
   1   4 -15   25.20    0.74 
   1   4 -15   24.67    0.71 
  -1   4  15   23.82    0.82 
   0  -4 -15    1.42    0.12 
   0  -4  15    1.47    0.15 
   0   4  15    1.36    0.21 
   0   4 -15    1.54    0.16 
   0   4 -15    1.55    0.17 
   1  -4  15   11.31    0.42 
  -1  -4 -15   11.29    0.36 
   1   4  15   11.46    0.52 
  -1   4 -15   11.03    0.41 
  -1   4 -15   11.09    0.41 
  -2  -4 -15    2.02    0.14 
   2  -4  15    2.36    0.19 
  -2   4 -15    1.77    0.18 
  -2   4 -15    1.96    0.17 
   2   4  15    1.74    0.24 
   3  -4  15    3.60    0.23 
   3   4  15    3.42    0.32 
  -3   4 -15    3.35    0.24 
  -3   4 -15    3.65    0.22 
  -4  -4 -15    5.79    0.32 
  -4   4 -15    6.06    0.32 
  -4   4 -15    6.38    0.34 
   4   4  15    7.01    0.45 
   6  -5 -15   11.45    0.39 
  -6   5  15   11.37    0.51 
  -6   5  15   11.50    0.57 
   5  -5 -15    3.78    0.20 
  -5   5  15    3.94    0.28 
  -5   5  15    4.15    0.35 
   4  -5 -15    1.59    0.14 
  -4  -5  15    1.74    0.17 
  -4   5  15    1.56    0.23 
  -4   5  15    1.90    0.20 
   3  -5 -15    0.25    0.08 
  -3  -5  15    0.44    0.11 
  -3   5  15    0.41    0.11 
   3   5 -15    0.19    0.08 
  -3   5  15    0.31    0.14 
   2  -5 -15    9.99    0.34 
  -2  -5  15    9.84    0.39 
   2   5 -15    9.88    0.41 
   2   5 -15   10.21    0.39 
  -2   5  15   11.18    0.50 
   1  -5 -15    1.53    0.13 
  -1   5  15    1.50    0.22 
   1   5 -15    1.44    0.16 
   1   5 -15    1.67    0.18 
   0  -5 -15    8.34    0.30 
   0  -5  15    8.77    0.37 
   0   5 -15    7.82    0.34 
   0   5  15    8.38    0.43 
   0   5 -15    8.70    0.36 
   1  -5  15    3.36    0.23 
  -1  -5 -15    3.21    0.18 
  -1   5 -15    3.34    0.22 
   1   5  15    3.48    0.30 
  -1   5 -15    3.59    0.24 
   2  -5  15    5.81    0.31 
   2   5  15    5.41    0.39 
  -2   5 -15    7.39    0.33 
  -2   5 -15    5.91    0.29 
   3  -5  15   11.03    0.44 
   3   5  15   10.94    0.55 
  -3   5 -15   11.17    0.44 
  -3   5 -15   10.87    0.41 
   4  -5  15    2.55    0.24 
  -4   5 -15    1.71    0.18 
  -4   5 -15    1.57    0.19 
   4   5  15    2.18    0.29 
   5  -6 -15    5.62    0.25 
  -5  -6  15    4.91    0.29 
  -5   6  15    5.45    0.34 
   4  -6 -15    9.51    0.35 
  -4  -6  15    9.89    0.42 
  -4   6  15    9.50    0.44 
   3  -6 -15    1.70    0.15 
  -3  -6  15    2.11    0.20 
  -3   6  15    1.83    0.20 
   3   6 -15    1.50    0.17 
  -2  -6  15    1.69    0.18 
   2  -6 -15    1.63    0.15 
   2   6 -15    2.08    0.22 
   2   6 -15    2.20    0.19 
   1  -6 -15    1.60    0.15 
  -1  -6  15    1.72    0.18 
   1   6 -15    1.52    0.18 
   1   6 -15    1.46    0.17 
   0  -6 -15    6.73    0.27 
   0  -6  15    6.63    0.34 
   0   6 -15    6.53    0.33 
   0   6 -15    6.68    0.33 
   1  -6  15    9.60    0.42 
  -1  -6 -15    9.64    0.34 
  -1   6 -15   10.04    0.41 
  -1   6 -15   10.04    0.42 
   2  -6  15   16.23    0.59 
  -2   6 -15   16.15    0.54 
  -2   6 -15   15.34    0.56 
   3  -6  15    3.52    0.29 
  -3   6 -15    2.74    0.23 
  -3   6 -15    2.97    0.24 
  -4  -7  15   17.76    0.62 
   4  -7 -15   16.68    0.55 
  -4   7  15   16.61    0.66 
   3  -7 -15    1.45    0.16 
  -3  -7  15    1.22    0.18 
  -3   7  15    1.41    0.21 
   3   7 -15    1.00    0.15 
  -2  -7  15    3.31    0.26 
   2  -7 -15    3.28    0.21 
   2   7 -15    3.43    0.24 
  -2   7  15    3.17    0.27 
  -1  -7  15    0.14    0.09 
   1  -7 -15    0.03    0.07 
   1   7 -15    0.12    0.10 
   1   7 -15   -0.06    0.08 
   0  -7 -15    0.28    0.09 
   0  -7  15    0.26    0.11 
   0   7 -15    0.25    0.10 
   0   7 -15    0.08    0.09 
  -1   7 -15    4.39    0.28 
  -1   7 -15    5.05    0.29 
   8   0 -16    8.90    0.55 
  -8   0  16    8.27    0.52 
  -7   0  16    0.17    0.14 
   7   0 -16    0.07    0.16 
   6   0 -16   15.55    0.65 
  -6   0  16   15.86    0.66 
  -5   0  16    1.29    0.20 
   5   0 -16    1.46    0.12 
   4   0 -16    3.88    0.18 
  -4   0  16    4.00    0.31 
  -3   0  16    5.77    0.34 
   3   0 -16    5.10    0.21 
  -2   0  16   13.55    0.54 
   2   0 -16   13.52    0.40 
   1   0 -16    0.50    0.08 
  -1   0  16    0.68    0.16 
   0   0 -16   10.67    0.36 
   0   0 -16   10.16    0.35 
   0   0  16   11.03    0.48 
  -1   0 -16    1.10    0.12 
   1   0  16    0.85    0.17 
  -1   0 -16    1.01    0.13 
  -2   0 -16    2.33    0.16 
  -2   0 -16    2.20    0.19 
   2   0  16    1.88    0.24 
   3   0  16    0.09    0.12 
  -3   0 -16    0.07    0.07 
  -3   0 -16    0.06    0.09 
  -4   0 -16    3.01    0.25 
   4   0  16    2.61    0.31 
   5   0  16   28.20    1.02 
  -5   0 -16   27.63    0.87 
  -8  -1  16    1.33    0.26 
   8  -1 -16    1.05    0.26 
  -8   1  16    1.12    0.24 
   8   1 -16    1.35    0.27 
   7  -1 -16    0.99    0.22 
  -7  -1  16    1.13    0.24 
   7   1 -16    1.03    0.24 
  -7   1  16    1.06    0.21 
  -6  -1  16    8.02    0.45 
   6  -1 -16    7.78    0.43 
   6   1 -16    7.21    0.43 
  -6   1  16    7.29    0.44 
  -5  -1  16    7.42    0.42 
   5  -1 -16    7.52    0.40 
   5  -1 -16    8.22    0.28 
  -5   1  16    7.76    0.44 
   5   1 -16    8.38    0.29 
  -4  -1  16    2.98    0.26 
   4  -1 -16    2.45    0.14 
   4   1 -16    2.63    0.16 
  -4   1  16    3.30    0.28 
  -3  -1  16    2.58    0.24 
   3  -1 -16    2.68    0.15 
  -3   1  16    2.15    0.23 
   3   1 -16    2.69    0.15 
   2  -1 -16    6.18    0.24 
  -2  -1  16    6.56    0.35 
  -2   1  16    6.46    0.36 
   2   1 -16    6.26    0.25 
   1  -1 -16    6.05    0.23 
  -1  -1  16    5.87    0.34 
   1   1 -16    5.94    0.29 
  -1   1  16    6.02    0.35 
   1   1 -16    5.67    0.24 
   0  -1  16   30.38    0.93 
   0  -1  16   30.56    0.80 
   0  -1 -16   29.33    0.77 
   0   1  16   29.18    0.93 
   0   1 -16   30.30    0.79 
   1  -1  16    0.55    0.16 
  -1  -1 -16    0.46    0.08 
  -1  -1 -16    0.49    0.09 
  -1   1 -16    0.47    0.09 
   1   1  16    0.40    0.14 
  -1   1 -16    0.52    0.10 
  -2  -1 -16   10.01    0.34 
  -2  -1 -16    9.68    0.37 
   2  -1  16   10.14    0.48 
   2   1  16   10.09    0.49 
  -2   1 -16    9.43    0.35 
  -2   1 -16    9.74    0.38 
  -3  -1 -16    1.11    0.15 
   3  -1  16    1.03    0.20 
  -3   1 -16    0.88    0.15 
   3   1  16    0.74    0.18 
  -3   1 -16    0.95    0.13 
   4  -1  16    6.69    0.45 
  -4  -1 -16    8.24    0.37 
   4   1  16    6.70    0.46 
  -4   1 -16    7.50    0.37 
  -5  -1 -16    0.52    0.15 
   5  -1  16    0.52    0.20 
  -5   1 -16    0.49    0.15 
   5   1  16    0.60    0.21 
   7  -2 -16    6.61    0.43 
  -7  -2  16    6.60    0.44 
  -7   2  16    6.74    0.44 
   7   2 -16    6.28    0.44 
  -6  -2  16    0.20    0.13 
   6  -2 -16    0.36    0.08 
   6  -2 -16    0.48    0.15 
  -6   2  16    0.37    0.15 
  -5  -2  16   10.00    0.48 
   5  -2 -16   10.18    0.45 
   5  -2 -16   10.36    0.34 
  -5   2  16    9.79    0.50 
  -4  -2  16    1.50    0.21 
   4  -2 -16    1.60    0.12 
  -4   2  16    1.92    0.23 
   4   2 -16    1.47    0.13 
  -3  -2  16   13.47    0.54 
   3  -2 -16   14.23    0.42 
  -3   2  16   14.08    0.58 
   3   2 -16   14.32    0.44 
  -2  -2  16    4.89    0.30 
   2  -2 -16    4.89    0.20 
  -2   2  16    5.33    0.34 
   2   2 -16    4.97    0.23 
  -1  -2  16    0.94    0.17 
   1  -2 -16    0.86    0.10 
  -1  -2  16    0.78    0.11 
   1   2 -16    0.59    0.10 
  -1   2  16    0.88    0.17 
   1   2 -16    0.87    0.13 
   0  -2 -16   10.32    0.33 
   0  -2  16   10.06    0.44 
   0  -2  16    9.66    0.35 
   0   2 -16   10.44    0.39 
   0   2  16    9.89    0.47 
   0   2 -16    9.84    0.36 
  -1  -2 -16    7.97    0.28 
   1  -2  16    7.44    0.40 
  -1   2 -16    7.51    0.31 
   1   2  16    7.73    0.43 
  -1   2 -16    8.28    0.33 
   2  -2  16    1.77    0.24 
  -2  -2 -16    1.80    0.14 
  -2  -2 -16    1.59    0.17 
  -2   2 -16    2.02    0.19 
   2   2  16    1.33    0.22 
  -2   2 -16    1.68    0.16 
   3  -2  16    4.78    0.35 
  -3  -2 -16    5.55    0.29 
  -3   2 -16    5.27    0.27 
  -3   2 -16    5.46    0.30 
   3   2  16    5.22    0.38 
   4  -2  16    2.01    0.29 
  -4  -2 -16    2.33    0.23 
   4   2  16    1.78    0.27 
  -4   2 -16    1.98    0.22 
  -5  -2 -16   10.58    0.47 
   5  -2  16   10.34    0.57 
  -5   2 -16   10.12    0.46 
   5   2  16   10.64    0.61 
   7  -3 -16    0.71    0.20 
  -7   3  16    0.81    0.22 
   7   3 -16    0.81    0.22 
   6  -3 -16    4.59    0.21 
   6  -3 -16    4.62    0.34 
  -6   3  16    4.38    0.36 
   5  -3 -16    8.00    0.29 
  -5  -3  16    8.48    0.47 
   5  -3 -16    8.15    0.40 
  -5   3  16    8.48    0.47 
  -4  -3  16    0.75    0.15 
   4  -3 -16    0.75    0.10 
  -4   3  16    1.08    0.20 
   4   3 -16    0.90    0.12 
  -4   3  16    0.79    0.14 
   3  -3 -16    2.30    0.15 
  -3  -3  16    2.38    0.23 
  -3   3  16    2.21    0.25 
   3   3 -16    2.65    0.17 
  -2  -3  16   15.08    0.56 
   2  -3 -16   15.41    0.45 
   2   3 -16   15.52    0.49 
  -2   3  16   15.71    0.62 
  -1  -3  16    4.07    0.27 
   1  -3 -16    3.45    0.18 
  -1  -3  16    3.45    0.20 
   1   3 -16    3.82    0.21 
  -1   3  16    3.51    0.29 
   1   3 -16    3.74    0.23 
   0  -3 -16    4.82    0.21 
   0  -3  16    5.05    0.31 
   0  -3  16    5.08    0.25 
   0   3  16    5.20    0.34 
   0   3 -16    4.80    0.24 
   0   3 -16    4.75    0.26 
  -1  -3 -16    3.79    0.19 
   1  -3  16    4.04    0.23 
   1  -3  16    3.57    0.28 
  -1   3 -16    4.19    0.24 
   1   3  16    3.74    0.31 
  -1   3 -16    3.74    0.23 
   2  -3  16    1.16    0.15 
   2  -3  16    1.24    0.20 
  -2  -3 -16    1.21    0.12 
   2   3  16    1.01    0.20 
  -2   3 -16    1.18    0.15 
  -3  -3 -16    0.42    0.12 
   3  -3  16    0.67    0.17 
   3   3  16    0.62    0.18 
  -3   3 -16    0.33    0.12 
  -3   3 -16    0.50    0.12 
   4  -3  16    2.31    0.31 
  -4  -3 -16    1.76    0.21 
  -4   3 -16    2.27    0.23 
   4   3  16    2.10    0.29 
   7  -4 -16    3.92    0.35 
  -7   4  16    4.20    0.39 
   6  -4 -16    1.39    0.22 
   6  -4 -16    1.79    0.15 
  -6   4  16    1.80    0.27 
   5  -4 -16   14.03    0.44 
  -5   4  16   15.07    0.65 
  -5   4  16   13.81    0.55 
   4  -4 -16    0.43    0.08 
  -4   4  16    0.23    0.10 
   4   4 -16    0.27    0.09 
  -4   4  16    0.32    0.13 
  -3  -4  16    1.73    0.16 
   3  -4 -16    1.53    0.13 
   3   4 -16    1.67    0.16 
  -3   4  16    1.75    0.23 
   2  -4 -16    4.63    0.21 
  -2  -4  16    4.40    0.24 
  -2   4  16    4.48    0.32 
   2   4 -16    4.67    0.24 
   1  -4 -16   11.00    0.36 
  -1  -4  16   10.93    0.41 
   1   4 -16   11.62    0.42 
   1   4 -16   11.23    0.44 
  -1   4  16   11.96    0.53 
   0  -4 -16   17.64    0.48 
   0  -4  16   15.11    0.53 
   0   4  16   15.00    0.62 
   0   4 -16   15.46    0.51 
   0   4 -16   15.04    0.52 
   1  -4  16    8.68    0.36 
  -1  -4 -16    8.94    0.31 
   1   4  16    9.09    0.47 
  -1   4 -16    8.96    0.37 
  -1   4 -16    8.88    0.37 
   2  -4  16    3.49    0.23 
   2   4  16    3.07    0.32 
  -2   4 -16    2.58    0.21 
  -2   4 -16    2.93    0.22 
   3  -4  16    1.97    0.19 
  -3   4 -16    2.10    0.19 
  -3   4 -16    2.11    0.21 
   3   4  16    1.87    0.27 
   4  -4  16    5.41    0.31 
  -4  -4 -16    5.40    0.39 
  -4   4 -16    5.46    0.30 
   4   4  16    5.38    0.42 
   6  -5 -16    3.04    0.19 
  -6   5  16    2.73    0.28 
  -6   5  16    2.91    0.33 
   5  -5 -16    2.35    0.16 
  -5   5  16    2.04    0.28 
  -5   5  16    2.94    0.26 
  -4  -5  16    0.26    0.09 
   4  -5 -16    0.28    0.08 
  -4   5  16    0.36    0.15 
  -4   5  16    0.31    0.11 
   3  -5 -16    0.75    0.11 
  -3  -5  16    0.61    0.12 
   3   5 -16    1.02    0.14 
  -3   5  16    0.66    0.18 
  -2  -5  16   13.41    0.49 
   2  -5 -16   13.53    0.43 
   2   5 -16   13.16    0.47 
  -2   5  16   13.42    0.58 
  -1  -5  16    0.65    0.12 
   1  -5 -16    0.76    0.11 
   1   5 -16    0.91    0.15 
   1   5 -16    0.85    0.14 
  -1   5  16    0.67    0.17 
   0  -5 -16    8.29    0.30 
   0  -5  16    7.96    0.36 
   0   5 -16    7.56    0.35 
   0   5 -16    7.87    0.34 
   0   5  16    6.92    0.42 
   1  -5  16   15.69    0.54 
  -1  -5 -16   14.14    0.45 
  -1   5 -16   14.48    0.51 
   1   5  16   14.58    0.62 
  -1   5 -16   14.86    0.53 
   2  -5  16    1.79    0.19 
  -2   5 -16    1.91    0.20 
  -2   5 -16    1.50    0.18 
   2   5  16    1.45    0.24 
   3  -5  16    2.55    0.23 
   3   5  16    2.86    0.33 
  -3   5 -16    2.81    0.22 
  -3   5 -16    2.37    0.23 
  -5  -6  16    2.05    0.26 
   5  -6 -16    2.02    0.17 
  -5   6  16    1.85    0.24 
  -4  -6  16    0.29    0.11 
   4  -6 -16    0.48    0.10 
  -4   6  16    0.53    0.14 
   3  -6 -16   18.48    0.56 
  -3  -6  16   19.48    0.66 
   3   6 -16   18.19    0.60 
  -2  -6  16    2.66    0.22 
   2  -6 -16    2.56    0.18 
   2   6 -16    2.70    0.21 
   1  -6 -16   15.71    0.49 
  -1  -6  16   16.00    0.57 
   1   6 -16   15.77    0.55 
   1   6 -16   15.62    0.57 
   0  -6 -16    5.83    0.26 
   0  -6  16    6.12    0.33 
   0   6 -16    5.20    0.30 
   0   6 -16    5.78    0.31 
   1  -6  16    8.32    0.39 
  -1  -6 -16    8.77    0.32 
  -1   6 -16    8.30    0.38 
  -1   6 -16    7.46    0.37 
   2  -6  16    4.77    0.31 
  -2   6 -16    4.47    0.29 
  -2   6 -16    4.62    0.28 
   3  -7 -16   10.86    0.48 
  -3  -7  16   10.13    0.45 
  -3   7  16   10.36    0.56 
   2  -7 -16    1.38    0.15 
  -2  -7  16    1.78    0.21 
   2   7 -16    2.00    0.21 
   1  -7 -16    3.00    0.19 
  -1  -7  16    3.57    0.26 
   1   7 -16    3.51    0.27 
   1   7 -16    2.91    0.24 
   0  -7 -16    1.22    0.14 
   0  -7  16    0.80    0.16 
   0   7 -16    0.94    0.16 
   0   7 -16    1.25    0.17 
  -7   0  17    1.57    0.25 
   7   0 -17    1.34    0.25 
  -6   0  17    2.70    0.30 
  -5   0  17    2.76    0.29 
   5   0 -17    3.15    0.17 
  -4   0  17    8.13    0.44 
   4   0 -17    8.08    0.29 
  -3   0  17    0.60    0.15 
   3   0 -17    0.83    0.11 
   2   0 -17   26.92    0.71 
  -2   0  17   26.03    0.87 
   1   0 -17    5.58    0.24 
  -1   0  17    6.52    0.37 
   0   0 -17    4.54    0.21 
   0   0  17    4.47    0.32 
   1   0  17   11.32    0.53 
  -1   0 -17   11.50    0.40 
  -1   0 -17   11.15    0.38 
  -2   0 -17    0.08    0.07 
   2   0  17    0.08    0.11 
  -2   0 -17    0.03    0.08 
  -3   0 -17    0.85    0.12 
   3   0  17    1.01    0.21 
  -3   0 -17    1.12    0.16 
   4   0  17    3.23    0.36 
  -4   0 -17    4.09    0.28 
   7  -1 -17   14.04    0.65 
  -7  -1  17   13.98    0.65 
   7   1 -17   14.43    0.68 
  -7   1  17   14.84    0.68 
  -6  -1  17    1.39    0.23 
   6  -1 -17    1.27    0.26 
  -6   1  17    1.43    0.24 
  -5  -1  17    7.19    0.42 
   5  -1 -17    7.32    0.27 
   5   1 -17    7.48    0.29 
  -5   1  17    8.15    0.45 
  -4  -1  17    6.56    0.39 
   4  -1 -17    5.97    0.24 
   4   1 -17    6.46    0.26 
  -4   1  17    6.54    0.39 
  -3  -1  17    1.24    0.20 
   3  -1 -17    1.06    0.11 
  -3   1  17    1.18    0.20 
   3   1 -17    1.15    0.12 
   2  -1 -17    4.22    0.20 
  -2  -1  17    4.43    0.31 
  -2   1  17    4.09    0.30 
   2   1 -17    3.95    0.20 
   1  -1 -17    1.42    0.12 
  -1  -1  17    1.59    0.22 
   1   1 -17    1.50    0.14 
  -1   1  17    1.47    0.21 
   0  -1  17    2.44    0.25 
   0  -1 -17    2.48    0.16 
   0  -1  17    2.91    0.17 
   0   1 -17    2.61    0.20 
   0   1  17    2.67    0.25 
   0   1 -17    2.87    0.18 
  -1  -1 -17    8.80    0.31 
   1  -1  17    8.16    0.44 
  -1   1 -17    8.21    0.34 
  -1   1 -17    8.63    0.33 
   1   1  17    7.34    0.43 
  -2  -1 -17   10.48    0.36 
  -2  -1 -17   10.42    0.40 
   2  -1  17   10.09    0.50 
  -2   1 -17   10.12    0.38 
  -2   1 -17   10.34    0.41 
   2   1  17   10.82    0.52 
  -3  -1 -17    6.50    0.32 
   3  -1  17    6.12    0.40 
  -3   1 -17    5.83    0.29 
  -3   1 -17    6.46    0.33 
   3   1  17    7.05    0.43 
   4  -1  17   19.60    0.80 
  -4  -1 -17   19.15    0.65 
  -4   1 -17   19.34    0.66 
   7  -2 -17    0.10    0.15 
  -7  -2  17    0.04    0.14 
  -7   2  17   -0.04    0.13 
  -6  -2  17    0.51    0.17 
   6  -2 -17    0.46    0.09 
   6  -2 -17    0.39    0.16 
  -6   2  17    0.38    0.15 
  -5  -2  17    5.59    0.37 
   5  -2 -17    5.69    0.24 
  -5   2  17    5.33    0.38 
  -4  -2  17    4.28    0.32 
   4  -2 -17    4.14    0.20 
   4   2 -17    4.41    0.22 
  -4   2  17    4.33    0.33 
  -3  -2  17    6.38    0.37 
   3  -2 -17    6.86    0.26 
   3   2 -17    6.76    0.28 
  -3   2  17    6.67    0.39 
  -2  -2  17    5.19    0.32 
   2  -2 -17    5.14    0.22 
  -2   2  17    5.42    0.35 
   2   2 -17    5.31    0.25 
  -1  -2  17    2.88    0.25 
   1  -2 -17    2.67    0.16 
  -1  -2  17    2.82    0.18 
   1   2 -17    2.63    0.18 
   1   2 -17    2.31    0.19 
  -1   2  17    2.66    0.26 
   0  -2  17   10.86    0.49 
   0  -2 -17   11.18    0.36 
   0  -2  17   10.75    0.38 
   0   2 -17   11.29    0.39 
   0   2 -17   10.47    0.41 
   0   2  17   11.14    0.51 
   1  -2  17    3.24    0.20 
  -1  -2 -17    3.27    0.18 
   1  -2  17    3.01    0.28 
  -1   2 -17    2.94    0.20 
   1   2  17    3.50    0.30 
  -1   2 -17    3.40    0.23 
   2  -2  17    2.58    0.28 
  -2  -2 -17    2.63    0.17 
  -2   2 -17    2.83    0.20 
   2   2  17    2.69    0.30 
  -2   2 -17    2.71    0.22 
   3  -2  17    0.34    0.14 
  -3  -2 -17    0.13    0.10 
  -3   2 -17    0.41    0.13 
   3   2  17   -0.05    0.13 
  -3   2 -17    0.10    0.09 
  -4  -2 -17   11.77    0.48 
   4   2  17   11.93    0.61 
  -4   2 -17   11.82    0.50 
   7  -3 -17    0.15    0.16 
  -7   3  17    0.37    0.19 
   6  -3 -17    2.88    0.29 
   6  -3 -17    2.94    0.17 
  -6   3  17    3.23    0.34 
   5  -3 -17    1.66    0.14 
  -5   3  17    1.74    0.25 
   4  -3 -17    2.51    0.16 
  -4   3  17    2.92    0.30 
   4   3 -17    2.98    0.20 
   3  -3 -17   20.30    0.57 
   3   3 -17   18.28    0.56 
  -3   3  17   18.40    0.71 
   2  -3 -17    0.85    0.11 
  -2  -3  17    0.76    0.11 
  -2  -3  17    0.57    0.15 
   2   3 -17    0.67    0.12 
  -2   3  17    0.48    0.15 
  -1  -3  17    0.00    0.06 
  -1  -3  17    0.15    0.11 
   1  -3 -17    0.12    0.06 
   1   3 -17   -0.07    0.07 
   1   3 -17   -0.01    0.07 
  -1   3  17   -0.11    0.08 
   0  -3  17    0.32    0.12 
   0  -3 -17    0.65    0.09 
   0  -3  17    0.72    0.11 
   0   3  17    0.47    0.15 
   0   3 -17    0.65    0.12 
   0   3 -17    0.60    0.13 
   1  -3  17   10.84    0.40 
   1  -3  17    9.78    0.49 
  -1  -3 -17   10.68    0.35 
   1   3  17    9.87    0.51 
  -1   3 -17   10.03    0.39 
  -1   3 -17   10.48    0.41 
  -2  -3 -17    9.35    0.33 
   2  -3  17    9.29    0.38 
   2  -3  17   11.29    0.63 
  -2   3 -17    9.09    0.38 
  -2   3 -17    9.66    0.39 
   2   3  17    9.89    0.53 
   3   3  17    0.98    0.21 
  -3   3 -17    0.78    0.14 
  -3   3 -17    1.24    0.17 
  -4  -3 -17   25.63    0.80 
   4   3  17   25.37    0.95 
  -4   3 -17   25.16    0.81 
   6  -4 -17    2.47    0.27 
   6  -4 -17    2.15    0.17 
  -6   4  17    1.70    0.28 
   5  -4 -17    5.07    0.23 
  -5   4  17    4.77    0.39 
   4  -4 -17    1.35    0.13 
  -4   4  17    1.39    0.22 
   4   4 -17    1.43    0.16 
  -3  -4  17    1.29    0.18 
   3  -4 -17    1.44    0.13 
   3   4 -17    0.76    0.12 
  -3   4  17    0.99    0.19 
  -2  -4  17   22.32    0.67 
   2  -4 -17   22.03    0.62 
   2   4 -17   22.03    0.66 
  -2   4  17   21.37    0.79 
   1  -4 -17    4.12    0.21 
  -1  -4  17    4.46    0.25 
   1   4 -17    4.18    0.26 
  -1   4  17    4.38    0.34 
   1   4 -17    4.56    0.25 
   0  -4 -17    1.07    0.12 
   0  -4  17    1.13    0.15 
   0   4 -17    1.35    0.17 
   0   4 -17    0.88    0.14 
   0   4  17    1.26    0.20 
  -1  -4 -17    0.11    0.07 
   1  -4  17    0.20    0.09 
   1   4  17   -0.22    0.10 
  -1   4 -17    0.13    0.10 
  -1   4 -17    0.20    0.10 
   2  -4  17    1.53    0.18 
  -2   4 -17    1.57    0.19 
  -2   4 -17    1.84    0.20 
   2   4  17    1.67    0.26 
   3  -4  17    0.41    0.12 
   3   4  17    0.42    0.19 
  -3   4 -17    0.23    0.12 
  -3   4 -17    0.41    0.12 
   5  -5 -17    0.87    0.12 
  -5   5  17    0.78    0.19 
  -5   5  17    0.82    0.17 
   4  -5 -17    2.04    0.16 
  -4   5  17    1.67    0.26 
  -3  -5  17    0.99    0.15 
   3  -5 -17    0.90    0.12 
   3   5 -17    0.99    0.15 
  -3   5  17    0.98    0.20 
  -2  -5  17   14.78    0.52 
   2  -5 -17   14.52    0.46 
   2   5 -17   15.26    0.52 
  -2   5  17   14.67    0.63 
  -1  -5  17    0.39    0.11 
   1  -5 -17    0.30    0.09 
   1   5 -17    0.24    0.11 
  -1   5  17    0.19    0.14 
   1   5 -17    0.33    0.11 
   0  -5  17    1.90    0.20 
   0  -5 -17    2.25    0.17 
   0   5 -17    2.00    0.20 
   0   5  17    2.34    0.29 
   0   5 -17    2.29    0.22 
   1  -5  17    3.40    0.25 
  -1  -5 -17    3.35    0.20 
  -1   5 -17    3.97    0.26 
   1   5  17    3.13    0.31 
  -1   5 -17    3.61    0.26 
   2  -5  17    5.33    0.31 
  -2   5 -17    5.45    0.31 
   2   5  17    5.29    0.40 
  -2   5 -17    5.14    0.29 
  -4  -6  17    0.98    0.17 
   4  -6 -17    0.78    0.12 
  -3  -6  17    1.62    0.21 
   3  -6 -17    1.35    0.15 
   3   6 -17    1.47    0.18 
   2  -6 -17    6.10    0.27 
  -2  -6  17    6.00    0.33 
   2   6 -17    6.33    0.32 
  -1  -6  17    7.35    0.36 
   1  -6 -17    7.49    0.30 
   1   6 -17    7.36    0.37 
   1   6 -17    7.48    0.36 
   0  -6 -17    1.35    0.15 
   0  -6  17    1.40    0.19 
   0   6 -17    1.97    0.21 
   0   6 -17    1.32    0.18 
   1  -6  17    5.97    0.34 
  -1  -6 -17    6.03    0.27 
  -1   6 -17    5.63    0.32 
  -1   6 -17    5.41    0.32 
  -7   0  18   -0.01    0.15 
  -6   0  18    0.71    0.20 
  -5   0  18    2.42    0.28 
   5   0 -18    2.65    0.17 
   4   0 -18    0.12    0.07 
  -4   0  18    0.15    0.12 
  -3   0  18    0.31    0.12 
   3   0 -18    0.30    0.08 
  -2   0  18   10.01    0.49 
   2   0 -18    9.60    0.34 
   1   0 -18    6.97    0.28 
  -1   0  18    7.13    0.41 
   0   0 -18   -0.02    0.06 
   0   0  18    0.03    0.10 
  -1   0 -18    6.91    0.29 
   1   0  18    6.79    0.41 
  -1   0 -18    7.65    0.32 
  -2   0 -18    1.54    0.16 
  -2   0 -18    1.66    0.20 
   2   0  18    1.53    0.24 
  -3   0 -18    3.62    0.26 
   3   0  18    3.02    0.33 
  -4   0 -18    8.39    0.40 
   4   0  18    8.64    0.53 
  -7  -1  18    6.33    0.45 
  -7   1  18    6.99    0.48 
  -6  -1  18    5.36    0.40 
  -6   1  18    5.98    0.43 
  -5  -1  18    0.54    0.18 
   5  -1 -18    0.67    0.10 
   5   1 -18    0.76    0.11 
  -5   1  18    1.08    0.22 
  -4  -1  18    0.88    0.19 
   4  -1 -18    1.14    0.12 
  -4   1  18    1.07    0.20 
   4   1 -18    1.14    0.13 
  -3  -1  18   15.36    0.62 
   3  -1 -18   15.67    0.47 
   3   1 -18   16.06    0.49 
  -3   1  18   15.82    0.65 
  -2  -1  18    3.31    0.29 
   2  -1 -18    3.15    0.18 
  -2   1  18    2.79    0.27 
   2   1 -18    3.26    0.19 
   1  -1 -18    2.10    0.15 
  -1  -1  18    1.85    0.23 
  -1   1  18    1.82    0.24 
   1   1 -18    1.89    0.16 
   0  -1  18    2.29    0.25 
   0  -1 -18    2.29    0.16 
   0   1  18    2.26    0.26 
   0   1 -18    2.08    0.19 
   0   1 -18    2.22    0.18 
   1  -1  18   11.45    0.54 
  -1  -1 -18   11.38    0.39 
  -1   1 -18   11.47    0.42 
   1   1  18   11.82    0.56 
  -1   1 -18   12.43    0.44 
  -2  -1 -18    4.29    0.26 
  -2  -1 -18    3.80    0.21 
   2  -1  18    3.77    0.33 
  -2   1 -18    3.87    0.26 
  -2   1 -18    4.04    0.24 
   2   1  18    3.56    0.33 
   3  -1  18    8.59    0.50 
  -3  -1 -18    9.46    0.41 
  -3   1 -18    8.97    0.40 
   3   1  18    9.17    0.51 
  -3   1 -18    8.70    0.36 
   4  -1  18    0.16    0.16 
  -4  -1 -18    0.37    0.14 
  -4   1 -18    0.58    0.15 
   4   1  18    0.33    0.17 
  -7  -2  18    6.20    0.44 
   7  -2 -18    5.46    0.44 
  -7   2  18    5.32    0.42 
  -6  -2  18    2.74    0.31 
   6  -2 -18    3.06    0.18 
  -6   2  18    3.19    0.33 
  -5  -2  18    0.37    0.15 
   5  -2 -18    0.76    0.11 
  -5   2  18    0.54    0.18 
   5   2 -18    0.59    0.14 
  -4  -2  18    3.82    0.31 
   4  -2 -18    4.07    0.20 
   4   2 -18    4.07    0.22 
  -4   2  18    4.09    0.33 
  -3  -2  18    3.15    0.28 
   3  -2 -18    2.68    0.17 
   3   2 -18    2.48    0.18 
  -3   2  18    2.68    0.28 
   2  -2 -18    0.68    0.10 
  -2  -2  18    0.94    0.18 
  -2   2  18    0.89    0.19 
   2   2 -18    1.11    0.14 
   1  -2 -18    4.97    0.22 
  -1  -2  18    4.95    0.34 
  -1   2  18    4.64    0.34 
   1   2 -18    4.44    0.24 
   0  -2 -18    0.54    0.10 
   0  -2  18    0.47    0.15 
   0  -2  18    0.45    0.10 
   0   2 -18    0.51    0.11 
   0   2 -18    0.33    0.11 
   0   2  18    0.54    0.16 
  -1  -2 -18    3.85    0.20 
   1  -2  18    4.31    0.23 
   1  -2  18    3.59    0.32 
  -1   2 -18    3.68    0.23 
  -1   2 -18    3.52    0.25 
   1   2  18    3.74    0.33 
   2  -2  18    2.40    0.29 
  -2  -2 -18    2.74    0.18 
  -2   2 -18    2.74    0.21 
  -2   2 -18    2.70    0.23 
   2   2  18    2.81    0.31 
   3  -2  18    0.78    0.20 
  -3  -2 -18    0.62    0.20 
  -3   2 -18    0.47    0.12 
   3   2  18    0.72    0.20 
  -3   2 -18    0.48    0.14 
   6  -3 -18    1.93    0.16 
  -6   3  18    1.98    0.29 
   5  -3 -18    0.92    0.12 
  -5   3  18    0.85    0.20 
   4  -3 -18    0.21    0.08 
  -4   3  18    0.39    0.16 
   4   3 -18    0.45    0.10 
   3  -3 -18    5.30    0.24 
   3   3 -18    5.56    0.27 
  -3   3  18    5.84    0.39 
   2  -3 -18    2.99    0.18 
  -2   3  18    2.78    0.30 
   2   3 -18    3.01    0.21 
   1  -3 -18    0.10    0.06 
  -1  -3  18    0.05    0.07 
  -1   3  18   -0.06    0.10 
   1   3 -18    0.07    0.11 
   1   3 -18    0.04    0.08 
   0  -3 -18    1.33    0.13 
   0  -3  18    1.48    0.16 
   0   3 -18    1.37    0.17 
   0   3 -18    1.42    0.16 
   0   3  18    0.89    0.19 
  -1  -3 -18    5.47    0.25 
   1  -3  18    6.16    0.30 
  -1   3 -18    5.59    0.30 
  -1   3 -18    5.96    0.31 
   1   3  18    5.97    0.41 
  -2  -3 -18    0.54    0.11 
   2  -3  18    0.56    0.13 
  -2   3 -18    0.58    0.13 
  -2   3 -18    0.78    0.14 
   2   3  18    0.35    0.18 
   3  -3  18    0.24    0.10 
   3   3  18    0.33    0.17 
  -3   3 -18    0.25    0.11 
   6  -4 -18    7.12    0.30 
  -6   4  18    8.54    0.52 
   5  -4 -18    6.60    0.28 
  -5   4  18    5.97    0.44 
   4  -4 -18    6.45    0.28 
  -4   4  18    6.70    0.44 
   4   4 -18    6.74    0.31 
   3  -4 -18    6.63    0.28 
   3   4 -18    6.94    0.32 
  -3   4  18    7.32    0.44 
   2  -4 -18    1.40    0.14 
  -2  -4  18    1.12    0.15 
   2   4 -18    1.09    0.15 
  -2   4  18    0.95    0.20 
  -1  -4  18    5.12    0.28 
   1  -4 -18    5.36    0.24 
   1   4 -18    5.50    0.29 
   1   4 -18    5.31    0.31 
  -1   4  18    5.78    0.40 
   0  -4  18    5.72    0.30 
   0  -4 -18    4.85    0.24 
   0   4  18    5.22    0.38 
   0   4 -18    4.18    0.28 
   0   4 -18    5.60    0.29 
   1  -4  18    0.01    0.08 
  -1  -4 -18    0.04    0.07 
  -1   4 -18    0.06    0.10 
  -1   4 -18   -0.01    0.09 
   1   4  18    0.10    0.14 
   2  -4  18    8.11    0.37 
  -2   4 -18    8.76    0.38 
   2   4  18    8.54    0.51 
  -2   4 -18    8.07    0.38 
   5  -5 -18    9.84    0.36 
  -5   5  18   10.64    0.58 
   4  -5 -18    2.99    0.20 
  -4   5  18    3.21    0.34 
   3  -5 -18    8.02    0.31 
  -3  -5  18    7.59    0.36 
  -3   5  18    7.25    0.46 
   3   5 -18    7.74    0.35 
   2  -5 -18    2.80    0.19 
  -2  -5  18    2.80    0.22 
   2   5 -18    2.97    0.23 
  -2   5  18    3.04    0.32 
  -1  -5  18    6.99    0.34 
   1  -5 -18    6.91    0.29 
   1   5 -18    6.86    0.36 
   1   5 -18    7.25    0.35 
  -1   5  18    7.26    0.46 
   0  -5  18    2.93    0.23 
   0  -5 -18    2.86    0.19 
   0   5 -18    2.91    0.24 
   0   5  18    2.62    0.31 
   0   5 -18    3.00    0.26 
  -1  -5 -18    7.58    0.30 
   1  -5  18    6.77    0.36 
   1   5  18    7.77    0.48 
  -1   5 -18    7.28    0.37 
  -1   5 -18    7.67    0.37 
  -3  -6  18   17.11    0.62 
   3  -6 -18   16.92    0.60 
   3   6 -18   16.62    0.58 
  -2  -6  18   14.85    0.55 
   2  -6 -18   13.65    0.47 
   2   6 -18   15.09    0.55 
   1  -6 -18    3.78    0.22 
  -1  -6  18    4.21    0.27 
   1   6 -18    3.79    0.28 
   1   6 -18    3.48    0.26 
  -7   0  19   -0.09    0.15 
  -6   0  19    9.64    0.54 
  -5   0  19   -0.15    0.12 
   5   0 -19    0.06    0.07 
  -4   0  19   -0.02    0.12 
   4   0 -19    0.05    0.07 
   3   0 -19    0.77    0.11 
  -3   0  19    1.56    0.23 
   2   0 -19    6.11    0.26 
  -2   0  19    5.32    0.37 
  -1   0  19    6.30    0.40 
   1   0 -19    6.67    0.28 
   0   0  19    0.15    0.12 
   0   0 -19    0.27    0.09 
   1   0  19   16.82    0.70 
  -1   0 -19   16.05    0.52 
   2   0  19    1.39    0.25 
  -2   0 -19    1.58    0.17 
  -2   0 -19    1.37    0.17 
  -3   0 -19    0.16    0.13 
   3   0  19    0.27    0.18 
  -6  -1  19    0.04    0.14 
  -6   1  19    0.09    0.14 
  -5  -1  19    0.75    0.18 
   5  -1 -19    0.60    0.10 
   5   1 -19    0.70    0.11 
  -5   1  19    0.72    0.19 
  -4  -1  19    2.97    0.31 
   4  -1 -19    2.80    0.18 
   4   1 -19    2.60    0.18 
  -4   1  19    2.84    0.30 
   3  -1 -19    1.96    0.15 
  -3  -1  19    1.16    0.21 
   3   1 -19    1.89    0.16 
  -3   1  19    1.85    0.26 
   2  -1 -19   14.68    0.45 
  -2  -1  19   13.61    0.60 
  -2   1  19   14.29    0.63 
   2   1 -19   14.76    0.48 
  -1  -1  19    0.65    0.16 
   1  -1 -19    0.78    0.11 
  -1   1  19    0.58    0.17 
   1   1 -19    0.69    0.12 
   0  -1 -19    2.57    0.18 
   0  -1  19    2.84    0.30 
   0   1 -19    2.60    0.20 
   0   1  19    2.71    0.29 
  -1  -1 -19    7.18    0.30 
   1  -1  19    7.66    0.45 
  -1   1 -19    7.46    0.33 
   1   1  19    7.55    0.46 
  -1   1 -19    7.75    0.34 
   2  -1  19    5.25    0.41 
  -2  -1 -19    5.03    0.26 
   2   1  19    4.71    0.40 
  -2   1 -19    4.99    0.27 
  -2   1 -19    5.32    0.31 
  -3  -1 -19    9.92    0.42 
   3  -1  19    9.10    0.53 
  -3   1 -19    9.09    0.38 
  -3   1 -19    9.12    0.42 
   3   1  19    8.35    0.53 
  -6  -2  19   11.92    0.60 
   6  -2 -19   13.04    0.42 
  -6   2  19   13.41    0.65 
   5  -2 -19    5.83    0.26 
  -5  -2  19    6.00    0.41 
  -5   2  19    5.42    0.41 
   5   2 -19    5.16    0.30 
   4  -2 -19    0.83    0.11 
  -4  -2  19    0.89    0.20 
  -4   2  19    0.86    0.20 
   4   2 -19    0.96    0.13 
  -3  -2  19    1.50    0.23 
   3  -2 -19    1.97    0.15 
  -3   2  19    1.91    0.27 
   3   2 -19    2.05    0.18 
   2  -2 -19    5.25    0.24 
  -2  -2  19    5.30    0.36 
   2   2 -19    4.88    0.26 
  -2   2  19    4.62    0.36 
   1  -2 -19    2.88    0.18 
  -1  -2  19    2.83    0.28 
  -1   2  19    3.30    0.31 
   1   2 -19    3.13    0.21 
   0  -2 -19    3.60    0.20 
   0  -2  19    3.45    0.30 
   0  -2  19    3.19    0.26 
   0   2 -19    3.22    0.23 
   0   2  19    3.54    0.33 
   0   2 -19    3.20    0.24 
   1  -2  19    2.56    0.29 
   1  -2  19    2.95    0.21 
  -1  -2 -19    2.64    0.18 
  -1   2 -19    2.51    0.21 
  -1   2 -19    2.64    0.23 
   1   2  19    2.33    0.29 
  -2  -2 -19    2.68    0.19 
   2   2  19    2.23    0.30 
  -2   2 -19    2.65    0.24 
  -2   2 -19    3.07    0.23 
   3  -2  19    0.55    0.20 
  -3   2 -19    0.39    0.14 
  -3   2 -19    0.54    0.13 
   3   2  19    0.69    0.19 
   6  -3 -19   18.99    0.57 
  -6   3  19   17.65    0.78 
   5  -3 -19    4.42    0.23 
  -5   3  19    3.68    0.37 
   4  -3 -19    1.61    0.15 
   4   3 -19    1.52    0.17 
  -4   3  19    1.65    0.26 
   3  -3 -19    5.99    0.26 
   3   3 -19    6.10    0.30 
  -3   3  19    6.61    0.42 
   2  -3 -19   11.96    0.40 
   2   3 -19   12.19    0.45 
  -2   3  19   12.54    0.59 
   1  -3 -19    5.66    0.25 
   1   3 -19    5.28    0.28 
  -1   3  19    5.17    0.39 
   0  -3  19    9.69    0.39 
   0  -3 -19   10.02    0.35 
   0   3 -19    9.77    0.40 
   0   3  19   10.15    0.53 
   0   3 -19    9.65    0.42 
   1  -3  19    9.97    0.40 
  -1  -3 -19    9.39    0.35 
  -1   3 -19    8.50    0.39 
   1   3  19    9.58    0.53 
  -1   3 -19    9.81    0.42 
   2  -3  19    0.50    0.13 
  -2   3 -19    0.44    0.13 
   2   3  19    0.26    0.18 
  -2   3 -19    0.15    0.11 
   5  -4 -19    1.44    0.15 
  -5   4  19    0.94    0.22 
   4  -4 -19    4.28    0.22 
  -4   4  19    3.22    0.34 
   4   4 -19    3.86    0.25 
   3  -4 -19    4.55    0.23 
   3   4 -19    4.84    0.27 
  -3   4  19    4.52    0.37 
   2  -4 -19    3.06    0.20 
  -2   4  19    3.97    0.36 
   2   4 -19    3.50    0.24 
  -1  -4  19    0.14    0.09 
   1  -4 -19    0.11    0.07 
  -1   4  19    0.07    0.13 
   1   4 -19    0.06    0.09 
   0  -4  19    2.19    0.21 
   0  -4 -19    2.37    0.18 
   0   4 -19    1.99    0.23 
   0   4  19    1.96    0.29 
   0   4 -19    1.95    0.20 
   1  -4  19    4.40    0.28 
  -1  -4 -19    4.68    0.23 
  -1   4 -19    4.26    0.29 
  -1   4 -19    4.33    0.29 
   1   4  19    5.03    0.40 
   2  -4  19    0.58    0.13 
  -2   4 -19    0.61    0.14 
   2   4  19    0.46    0.19 
   4  -5 -19   14.31    0.49 
  -4   5  19   14.96    0.69 
   3  -5 -19    2.72    0.20 
  -3   5  19    3.11    0.34 
   3   5 -19    3.09    0.24 
   2  -5 -19    5.92    0.28 
  -2  -5  19    6.04    0.32 
  -2   5  19    5.67    0.42 
   2   5 -19    6.19    0.33 
   1  -5 -19    3.90    0.23 
  -1  -5  19    4.20    0.28 
   1   5 -19    3.79    0.27 
  -1   5  19    4.51    0.39 
   0  -5 -19    3.51    0.21 
   0  -5  19    3.29    0.26 
   0   5  19    3.85    0.36 
   0   5 -19    3.69    0.29 
   0   5 -19    3.33    0.26 
  -6   0  20    5.59    0.43 
   5   0 -20   -0.09    0.07 
  -5   0  20    0.06    0.14 
   4   0 -20    0.22    0.08 
  -4   0  20    0.05    0.14 
  -3   0  20    8.97    0.50 
   3   0 -20    9.43    0.35 
   2   0 -20    1.72    0.16 
  -2   0  20    2.00    0.28 
   1   0 -20    6.80    0.29 
  -1   0  20    5.85    0.41 
   0   0  20    0.32    0.17 
   0   0 -20    0.31    0.09 
  -1   0 -20    1.83    0.18 
   1   0  20    1.48    0.24 
  -2   0 -20    0.72    0.14 
   2   0  20    0.64    0.21 
  -6  -1  20    0.99    0.23 
  -6   1  20    1.23    0.25 
   5  -1 -20    4.04    0.22 
  -5  -1  20    3.77    0.34 
  -5   1  20    4.43    0.38 
   5   1 -20    4.22    0.24 
   4  -1 -20    6.65    0.28 
  -4  -1  20    6.37    0.42 
   4   1 -20    6.33    0.29 
  -4   1  20    6.97    0.45 
  -3  -1  20    1.43    0.23 
   3  -1 -20    1.41    0.15 
   3   1 -20    1.52    0.16 
  -3   1  20    1.75    0.27 
   2  -1 -20    0.97    0.13 
  -2  -1  20    0.78    0.19 
  -2   1  20    0.79    0.19 
   2   1 -20    0.76    0.12 
  -1  -1  20    5.93    0.40 
   1  -1 -20    6.10    0.27 
  -1   1  20    5.71    0.41 
   1   1 -20    6.69    0.30 
   0  -1  20    1.97    0.27 
   0  -1 -20    1.79    0.17 
   0   1  20    1.60    0.25 
   0   1 -20    2.00    0.19 
   1  -1  20    3.63    0.35 
  -1  -1 -20    4.50    0.25 
   1   1  20    3.54    0.35 
  -1   1 -20    4.38    0.25 
  -2  -1 -20    5.94    0.30 
   2  -1  20    6.79    0.46 
   2   1  20    5.43    0.43 
  -2   1 -20    6.02    0.31 
  -2   1 -20    6.24    0.33 
  -6  -2  20    2.55    0.32 
  -5  -2  20   -0.08    0.12 
   5  -2 -20   -0.03    0.07 
   5   2 -20    0.45    0.12 
  -5   2  20   -0.10    0.10 
  -4  -2  20    2.34    0.29 
   4  -2 -20    2.31    0.17 
   4   2 -20    2.42    0.20 
  -4   2  20    2.31    0.29 
  -3  -2  20    1.10    0.22 
   3  -2 -20    1.07    0.13 
  -3   2  20    1.04    0.22 
   3   2 -20    0.96    0.14 
   2  -2 -20    6.52    0.28 
  -2  -2  20    6.70    0.42 
  -2   2  20    6.85    0.43 
   2   2 -20    7.19    0.33 
   1  -2 -20    9.23    0.35 
  -1  -2  20    9.07    0.49 
  -1   2  20    8.95    0.50 
   1   2 -20    8.40    0.36 
   0  -2  20    5.26    0.39 
   0  -2 -20    5.67    0.26 
   0   2  20    5.31    0.40 
   0   2 -20    5.11    0.29 
   1  -2  20    2.76    0.31 
  -1  -2 -20    2.81    0.20 
   1  -2  20    3.11    0.22 
   1   2  20    2.96    0.33 
  -1   2 -20    3.01    0.24 
  -1   2 -20    3.20    0.26 
  -2  -2 -20    0.92    0.13 
   2  -2  20    0.95    0.15 
   2  -2  20    1.16    0.23 
   2   2  20    0.97    0.22 
  -2   2 -20    1.27    0.17 
  -2   2 -20    1.11    0.18 
   5  -3 -20   11.85    0.41 
  -5   3  20   11.78    0.62 
   4  -3 -20    5.12    0.25 
   4   3 -20    5.37    0.29 
  -4   3  20    5.23    0.41 
   3  -3 -20    0.08    0.08 
  -3   3  20    0.32    0.15 
   3   3 -20    0.13    0.09 
   2  -3 -20    6.68    0.28 
  -2   3  20    6.41    0.44 
   2   3 -20    7.49    0.35 
   1  -3 -20    3.98    0.22 
  -1   3  20    4.14    0.37 
   0  -3 -20    1.60    0.16 
   0  -3  20    1.52    0.18 
   0   3  20    1.33    0.24 
   0   3 -20    1.48    0.20 
   0   3 -20    1.49    0.18 
  -1  -3 -20    6.97    0.30 
   1  -3  20    6.74    0.33 
   1   3  20    7.17    0.48 
  -1   3 -20    6.87    0.37 
  -1   3 -20    6.93    0.35 
   4  -4 -20    7.81    0.32 
  -4   4  20    8.15    0.51 
   3  -4 -20    1.81    0.17 
   3   4 -20    1.55    0.18 
  -3   4  20    1.83    0.28 
   2  -4 -20    2.49    0.19 
  -2   4  20    2.93    0.32 
   2   4 -20    2.63    0.23 
   1  -4 -20    1.85    0.17 
  -1  -4  20    1.75    0.19 
   1   4 -20    2.26    0.22 
  -1   4  20    2.28    0.30 
   0  -4  20    7.82    0.37 
   0  -4 -20    7.44    0.31 
   0   4 -20    7.08    0.35 
   0   4 -20    7.25    0.37 
   0   4  20    6.10    0.45 
  -5   0  21    0.08    0.15 
   5   0 -21    0.01    0.09 
   4   0 -21    2.16    0.19 
  -4   0  21    2.72    0.33 
  -3   0  21   -0.01    0.11 
   3   0 -21    0.11    0.08 
   2   0 -21    1.22    0.15 
  -2   0  21    1.16    0.23 
  -1   0  21    9.88    0.53 
   1   0 -21    8.97    0.37 
   0   0 -21    3.55    0.24 
   0   0  21    2.80    0.33 
  -1   0 -21    2.49    0.21 
   1   0  21    2.30    0.31 
  -5  -1  21   13.71    0.65 
   5  -1 -21   13.54    0.45 
  -5   1  21   12.44    0.64 
   5   1 -21   13.43    0.46 
   4  -1 -21    2.92    0.20 
  -4  -1  21    2.79    0.31 
   4   1 -21    2.71    0.20 
  -4   1  21    2.90    0.33 
   3  -1 -21    1.75    0.17 
  -3  -1  21    1.92    0.26 
   3   1 -21    1.80    0.18 
  -3   1  21    1.70    0.27 
   2  -1 -21   16.34    0.52 
  -2  -1  21   16.75    0.69 
  -2   1  21   16.77    0.72 
   2   1 -21   16.56    0.55 
  -1  -1  21    2.46    0.29 
   1  -1 -21    2.75    0.20 
   1   1 -21    2.38    0.20 
  -1   1  21    2.28    0.31 
   0  -1 -21    8.27    0.34 
   0  -1  21    8.26    0.49 
   0   1 -21    8.11    0.36 
   0   1  21    8.36    0.50 
  -1  -1 -21    3.41    0.23 
   1  -1  21    3.68    0.34 
  -1   1 -21    2.95    0.23 
   1   1  21    3.04    0.35 
   5  -2 -21    6.88    0.30 
  -5  -2  21    7.09    0.46 
  -5   2  21    7.34    0.54 
   5   2 -21    7.40    0.41 
  -4  -2  21    7.16    0.45 
   4  -2 -21    6.67    0.29 
  -4   2  21    6.51    0.45 
   4   2 -21    6.27    0.31 
  -3  -2  21    4.03    0.35 
   3  -2 -21    4.16    0.23 
  -3   2  21    3.89    0.35 
   3   2 -21    3.85    0.25 
   2  -2 -21    2.19    0.17 
  -2  -2  21    1.79    0.27 
  -2   2  21    1.74    0.26 
   2   2 -21    1.60    0.18 
   1  -2 -21    3.42    0.21 
  -1  -2  21    3.63    0.33 
   1   2 -21    3.28    0.24 
  -1   2  21    3.41    0.34 
   0  -2 -21    5.50    0.27 
   0  -2  21    5.39    0.41 
   0   2  21    5.46    0.41 
   0   2 -21    5.14    0.30 
   1  -2  21    1.01    0.23 
  -1  -2 -21    1.13    0.15 
  -1   2 -21    1.04    0.16 
   1   2  21    1.24    0.24 
   4  -3 -21    4.77    0.25 
   4   3 -21    4.88    0.29 
  -4   3  21    4.67    0.42 
   3  -3 -21    4.66    0.25 
  -3   3  21    4.48    0.40 
   3   3 -21    4.66    0.28 
   2  -3 -21    6.42    0.29 
   2   3 -21    5.09    0.30 
  -2   3  21    5.63    0.43 
   1  -3 -21    0.64    0.12 
   1   3 -21    0.68    0.14 
  -1   3  21    0.49    0.20 
   0  -3 -21    0.34    0.10 
   0   3  21    0.63    0.20 
   0   3 -21    0.58    0.14 
  -2   4  21    4.50    0.41 
  -4   0  22    8.53    0.53 
   4   0 -22    9.53    0.37 
   3   0 -22    4.44    0.26 
  -3   0  22    5.30    0.40 
  -2   0  22    1.19    0.22 
   2   0 -22    1.01    0.14 
  -1   0  22    1.06    0.24 
   1   0 -22    1.20    0.16 
   0   0  22    1.53    0.25 
   0   0 -22    1.43    0.18 
  -4  -1  22    1.54    0.27 
   4  -1 -22    1.26    0.15 
  -4   1  22    1.58    0.28 
   4   1 -22    1.40    0.17 
   3  -1 -22    5.43    0.28 
  -3  -1  22    6.01    0.43 
   3   1 -22    5.67    0.30 
  -3   1  22    5.39    0.43 
   2  -1 -22    4.01    0.24 
  -2  -1  22    4.14    0.37 
  -2   1  22    4.22    0.39 
   2   1 -22    3.83    0.25 
  -1  -1  22    0.21    0.15 
   1  -1 -22    0.08    0.09 
  -1   1  22    0.30    0.17 
   1   1 -22    0.03    0.09 
   0  -1  22    1.80    0.28 
   0  -1 -22    2.02    0.20 
   0   1 -22    1.94    0.22 
   0   1  22    1.89    0.30 
  -3  -2  22    4.28    0.37 
   3  -2 -22    3.87    0.24 
  -3   2  22    4.00    0.37 
   3   2 -22    3.72    0.25 
  -2  -2  22    3.29    0.33 
   2  -2 -22    3.91    0.23 
   2   2 -22    4.37    0.28 
  -2   2  22    4.22    0.38 
  -1  -2  22    9.88    0.54 
   1  -2 -22    9.62    0.38 
  -1   2  22   10.71    0.58 
   1   2 -22   10.62    0.44 
   0   0   0    0.00    0.00 
;
_shelx_hkl_checksum              9260
loop_
_space_group_symop_operation_xyz
'x, y, z'
'-x, y+1/2, -z'
loop_
_atom_site_label
_atom_site_type_symbol
_atom_site_fract_x
_atom_site_fract_y
_atom_site_fract_z
_atom_site_U_iso_or_equiv
_atom_site_adp_type
_atom_site_occupancy
_atom_site_site_symmetry_order
_atom_site_calc_flag
O1" O 0.31918(17) 0.5573(2) 0.20940(8) 0.0244(3) Uani 1 1 d
O3' O 0.96464(17) 0.28279(15) 0.70369(7) 0.0137(2) Uani 1 1 d
O4' O 1.10610(17) 0.69549(16) 0.71100(7) 0.0164(2) Uani 1 1 d
N1 N 0.41492(18) 0.66071(17) 0.38203(8) 0.0125(2) Uani 1 1 d
N3 N 0.52277(18) 0.71712(17) 0.53363(7) 0.0127(2) Uani 1 1 d
N6 N 0.62894(19) 0.5304(2) 0.29788(8) 0.0153(2) Uani 1 1 d
N7 N 0.94567(18) 0.52592(18) 0.46231(8) 0.0133(2) Uani 1 1 d
N9 N 0.87163(18) 0.63175(17) 0.58534(7) 0.0114(2) Uani 1 1 d
C1' C 0.8997(2) 0.7014(2) 0.67398(9) 0.0133(2) Uani 1 1 d
C1" C 0.4970(2) 0.5214(2) 0.22034(9) 0.0128(2) Uani 1 1 d
C2' C 0.7969(2) 0.5773(2) 0.72986(9) 0.0141(3) Uani 1 1 d
C2 C 0.3900(2) 0.7159(2) 0.45987(9) 0.0129(2) Uani 1 1 d
C2" C 0.5904(2) 0.46273(19) 0.14744(9) 0.0121(2) Uani 1 1 d
C3' C 0.9567(2) 0.4286(2) 0.76371(9) 0.0135(3) Uani 1 1 d
C3" C 0.7891(2) 0.5036(2) 0.14489(9) 0.0139(3) Uani 1 1 d
C4' C 1.1475(2) 0.5444(2) 0.77380(10) 0.0175(3) Uani 1 1 d
C4 C 0.7012(2) 0.65350(18) 0.52368(8) 0.0109(2) Uani 1 1 d
C4" C 0.8619(2) 0.4579(2) 0.07231(10) 0.0185(3) Uani 1 1 d
C5 C 0.7496(2) 0.58828(19) 0.44798(8) 0.0111(2) Uani 1 1 d
C5" C 0.7379(3) 0.3690(3) 0.00316(10) 0.0220(3) Uani 1 1 d
C6 C 0.5941(2) 0.59368(19) 0.37533(8) 0.0119(2) Uani 1 1 d
C6" C 0.5405(3) 0.3271(2) 0.00606(10) 0.0203(3) Uani 1 1 d
C7" C 0.4666(2) 0.3745(2) 0.07771(9) 0.0158(3) Uani 1 1 d
C8 C 1.0118(2) 0.5563(2) 0.54481(9) 0.0132(2) Uani 1 1 d
H3' H 0.848(4) 0.232(4) 0.6903(15) 0.025(6) Uiso 1 1 d
H6 H 0.737(4) 0.488(4) 0.2985(15) 0.023(6) Uiso 1 1 d
H1A H 0.854(3) 0.835(3) 0.6704(13) 0.013(5) Uiso 1 1 d
H2A H 0.672(3) 0.522(4) 0.7007(14) 0.023(5) Uiso 1 1 d
H2B H 0.778(4) 0.649(4) 0.7793(16) 0.032(6) Uiso 1 1 d
H2 H 0.261(3) 0.756(3) 0.4608(12) 0.009(4) Uiso 1 1 d
H3A H 0.941(3) 0.379(3) 0.8160(14) 0.017(5) Uiso 1 1 d
H3" H 0.877(4) 0.569(4) 0.1931(15) 0.025(6) Uiso 1 1 d
H4A H 1.188(4) 0.603(4) 0.8309(15) 0.024(6) Uiso 1 1 d
H4B H 1.258(3) 0.468(3) 0.7623(14) 0.020(5) Uiso 1 1 d
H4" H 1.003(4) 0.495(4) 0.0704(14) 0.023(5) Uiso 1 1 d
H5" H 0.789(3) 0.335(4) -0.0488(15) 0.024(6) Uiso 1 1 d
H6" H 0.458(4) 0.259(4) -0.0407(14) 0.025(6) Uiso 1 1 d
H7" H 0.331(4) 0.351(4) 0.0804(15) 0.021(5) Uiso 1 1 d
H8 H 1.146(3) 0.531(3) 0.5763(13) 0.012(5) Uiso 1 1 d
loop_
_atom_site_aniso_label
_atom_site_aniso_U_11
_atom_site_aniso_U_22
_atom_site_aniso_U_33
_atom_site_aniso_U_23
_atom_site_aniso_U_13
_atom_site_aniso_U_12
O1" 0.0134(5) 0.0407(7) 0.0179(5) -0.0081(5) 0.0008(4) 0.0042(5)
O3' 0.0133(5) 0.0120(4) 0.0149(4) -0.0017(4) 0.0009(4) -0.0017(4)
O4' 0.0160(5) 0.0170(5) 0.0140(4) 0.0021(4) -0.0021(4) -0.0050(4)
N1 0.0120(5) 0.0130(5) 0.0126(5) 0.0004(4) 0.0030(4) 0.0014(4)
N3 0.0134(5) 0.0119(5) 0.0131(5) -0.0008(4) 0.0033(4) 0.0011(4)
N6 0.0117(5) 0.0239(6) 0.0098(5) -0.0003(4) 0.0010(4) 0.0065(5)
N7 0.0114(5) 0.0150(5) 0.0135(5) 0.0016(4) 0.0026(4) 0.0017(4)
N9 0.0111(5) 0.0112(5) 0.0110(5) -0.0001(4) 0.0006(4) -0.0005(4)
C1' 0.0154(6) 0.0125(5) 0.0110(5) -0.0013(4) 0.0006(5) -0.0005(5)
C1" 0.0142(6) 0.0127(6) 0.0111(5) -0.0007(5) 0.0018(4) 0.0001(5)
C2' 0.0158(6) 0.0153(6) 0.0119(6) -0.0011(5) 0.0043(5) 0.0006(5)
C2 0.0124(6) 0.0121(5) 0.0145(6) -0.0001(5) 0.0037(5) 0.0016(5)
C2" 0.0143(6) 0.0113(5) 0.0106(5) -0.0002(4) 0.0022(5) 0.0023(5)
C3' 0.0159(6) 0.0136(6) 0.0104(5) 0.0007(5) 0.0017(5) -0.0017(5)
C3" 0.0146(6) 0.0142(6) 0.0123(6) 0.0004(5) 0.0010(5) 0.0011(5)
C4' 0.0181(7) 0.0147(6) 0.0165(6) 0.0011(5) -0.0042(5) -0.0034(5)
C4 0.0126(6) 0.0093(5) 0.0103(5) 0.0010(4) 0.0016(4) -0.0006(5)
C4" 0.0173(7) 0.0219(7) 0.0173(6) 0.0003(5) 0.0058(5) 0.0020(6)
C5 0.0114(6) 0.0121(5) 0.0099(5) 0.0008(4) 0.0026(4) 0.0005(5)
C5" 0.0277(8) 0.0246(8) 0.0152(6) -0.0034(6) 0.0078(6) 0.0031(6)
C6 0.0128(6) 0.0129(5) 0.0098(5) 0.0011(4) 0.0020(4) 0.0010(4)
C6" 0.0252(8) 0.0201(7) 0.0145(6) -0.0065(5) 0.0016(6) 0.0002(6)
C7" 0.0163(7) 0.0156(6) 0.0146(6) -0.0032(5) 0.0007(5) -0.0006(5)
C8 0.0123(6) 0.0137(6) 0.0134(6) 0.0017(5) 0.0019(5) 0.0004(5)
loop_
_atom_type_symbol
_atom_type_description
_atom_type_scat_dispersion_real
_atom_type_scat_dispersion_imag
_atom_type_scat_source
C C 0.0033 0.0016 'International Tables Vol C Tables 4.2.6.8 and 6.1.1.4'
H H 0.0000 0.0000 'International Tables Vol C Tables 4.2.6.8 and 6.1.1.4'
N N 0.0061 0.0033 'International Tables Vol C Tables 4.2.6.8 and 6.1.1.4'
O O 0.0106 0.0060 'International Tables Vol C Tables 4.2.6.8 and 6.1.1.4'
loop_
_geom_angle_atom_site_label_1
_geom_angle_atom_site_label_2
_geom_angle_atom_site_label_3
_geom_angle
C3' O3' H3' 108.1(17)
C1' O4' C4' 110.22(11)
C6 N1 C2 117.99(12)
C2 N3 C4 111.18(12)
C1" N6 C6 128.38(13)
C1" N6 H6 115.2(17)
C6 N6 H6 116.3(17)
C8 N7 C5 103.43(12)
C4 N9 C8 105.96(12)
C4 N9 C1' 125.21(12)
C8 N9 C1' 128.35(12)
O4' C1' N9 108.25(11)
O4' C1' C2' 106.11(12)
N9 C1' C2' 112.77(12)
O4' C1' H1A 108.9(12)
N9 C1' H1A 106.6(12)
C2' C1' H1A 114.0(12)
O1" C1" N6 124.56(13)
O1" C1" C2" 121.22(13)
N6 C1" C2" 114.22(13)
C1' C2' C3' 102.90(12)
C1' C2' H2A 114.7(14)
C3' C2' H2A 112.4(15)
C1' C2' H2B 109.5(16)
C3' C2' H2B 106.0(16)
H2A C2' H2B 111(2)
N3 C2 N1 128.89(14)
N3 C2 H2 117.3(12)
N1 C2 H2 113.8(12)
C3" C2" C7" 119.94(13)
C3" C2" C1" 122.53(12)
C7" C2" C1" 117.40(14)
O3' C3' C4' 108.25(13)
O3' C3' C2' 112.65(12)
C4' C3' C2' 101.42(13)
O3' C3' H3A 110.9(15)
C4' C3' H3A 111.5(14)
C2' C3' H3A 111.7(14)
C4" C3" C2" 119.55(13)
C4" C3" H3" 119.7(13)
C2" C3" H3" 120.8(13)
O4' C4' C3' 106.53(12)
O4' C4' H4A 107.8(15)
C3' C4' H4A 113.2(14)
O4' C4' H4B 108.9(13)
C3' C4' H4B 111.0(14)
H4A C4' H4B 109.2(19)
N3 C4 N9 127.60(13)
N3 C4 C5 126.75(12)
N9 C4 C5 105.61(12)
C3" C4" C5" 120.21(16)
C3" C4" H4" 118.3(13)
C5" C4" H4" 121.5(13)
N7 C5 C4 110.86(12)
N7 C5 C6 133.35(12)
C4 C5 C6 115.77(13)
C6" C5" C4" 120.17(15)
C6" C5" H5" 119.2(14)
C4" C5" H5" 120.6(14)
N1 C6 N6 121.12(12)
N1 C6 C5 119.40(12)
N6 C6 C5 119.48(13)
C7" C6" C5" 119.83(14)
C7" C6" H6" 120.4(14)
C5" C6" H6" 119.7(14)
C6" C7" C2" 120.29(15)
C6" C7" H7" 121.3(14)
C2" C7" H7" 118.4(14)
N7 C8 N9 114.13(13)
N7 C8 H8 125.6(12)
N9 C8 H8 120.3(12)
loop_
_geom_bond_atom_site_label_1
_geom_bond_atom_site_label_2
_geom_bond_distance
O1" C1" 1.215(2)
O3' C3' 1.4177(18)
O3' H3' 0.86(3)
O4' C1' 1.4093(19)
O4' C4' 1.4537(19)
N1 C6 1.3349(19)
N1 C2 1.3481(19)
N3 C2 1.3294(19)
N3 C4 1.3371(19)
N6 C1" 1.3739(18)
N6 C6 1.3827(19)
N6 H6 0.79(3)
N7 C8 1.3199(19)
N7 C5 1.3809(19)
N9 C4 1.3676(18)
N9 C8 1.3692(19)
N9 C1' 1.4747(19)
C1' C2' 1.523(2)
C1' H1A 1.00(2)
C1" C2" 1.498(2)
C2' C3' 1.531(2)
C2' H2A 0.96(2)
C2' H2B 0.97(3)
C2 H2 0.93(2)
C2" C3" 1.394(2)
C2" C7" 1.398(2)
C3' C4' 1.517(2)
C3' H3A 0.93(2)
C3" C4" 1.391(2)
C3" H3" 0.99(2)
C4' H4A 0.99(2)
C4' H4B 0.97(2)
C4 C5 1.3971(19)
C4" C5" 1.395(2)
C4" H4" 1.00(2)
C5 C6 1.4014(18)
C5" C6" 1.388(3)
C5" H5" 1.00(2)
C6" C7" 1.385(2)
C6" H6" 0.97(2)
C7" H7" 0.95(2)
C8 H8 0.97(2)
loop_
_geom_hbond_atom_site_label_D
_geom_hbond_atom_site_label_H
_geom_hbond_atom_site_label_A
_geom_hbond_distance_DH
_geom_hbond_distance_HA
_geom_hbond_distance_DA
_geom_hbond_angle_DHA
_geom_hbond_site_symmetry_A
O3' H3' O1" 0.86(3) 2.48(3) 3.0553(19) 125(2) 2_646
O3' H3' N1 0.86(3) 1.99(3) 2.802(2) 158(2) 2_646
N6 H6 O4' 0.79(3) 2.35(3) 3.001(2) 140(2) 2_746
loop_
_geom_torsion_atom_site_label_1
_geom_torsion_atom_site_label_2
_geom_torsion_atom_site_label_3
_geom_torsion_atom_site_label_4
_geom_torsion
C4' O4' C1' N9 -108.16(13)
C4' O4' C1' C2' 13.14(15)
C4 N9 C1' O4' -165.27(12)
C8 N9 C1' O4' 5.70(19)
C4 N9 C1' C2' 77.65(17)
C8 N9 C1' C2' -111.39(16)
C6 N6 C1" O1" -5.5(3)
C6 N6 C1" C2" 174.32(14)
O4' C1' C2' C3' -30.58(14)
N9 C1' C2' C3' 87.76(14)
C4 N3 C2 N1 0.2(2)
C6 N1 C2 N3 1.4(2)
O1" C1" C2" C3" 149.34(16)
N6 C1" C2" C3" -30.53(19)
O1" C1" C2" C7" -26.5(2)
N6 C1" C2" C7" 153.64(14)
C1' C2' C3' O3' -80.41(14)
C1' C2' C3' C4' 35.10(14)
C7" C2" C3" C4" 0.7(2)
C1" C2" C3" C4" -175.05(14)
C1' O4' C4' C3' 9.93(16)
O3' C3' C4' O4' 90.50(14)
C2' C3' C4' O4' -28.21(15)
C2 N3 C4 N9 -178.76(13)
C2 N3 C4 C5 -1.5(2)
C8 N9 C4 N3 177.83(14)
C1' N9 C4 N3 -9.5(2)
C8 N9 C4 C5 0.07(14)
C1' N9 C4 C5 172.71(12)
C2" C3" C4" C5" -1.0(2)
C8 N7 C5 C4 -0.75(15)
C8 N7 C5 C6 -178.72(15)
N3 C4 C5 N7 -177.36(13)
N9 C4 C5 N7 0.43(15)
N3 C4 C5 C6 1.0(2)
N9 C4 C5 C6 178.79(12)
C3" C4" C5" C6" 0.5(3)
C2 N1 C6 N6 178.47(13)
C2 N1 C6 C5 -1.84(19)
C1" N6 C6 N1 -1.4(2)
C1" N6 C6 C5 178.95(14)
N7 C5 C6 N1 178.67(14)
C4 C5 C6 N1 0.77(19)
N7 C5 C6 N6 -1.6(2)
C4 C5 C6 N6 -179.54(13)
C4" C5" C6" C7" 0.3(3)
C5" C6" C7" C2" -0.6(2)
C3" C2" C7" C6" 0.1(2)
C1" C2" C7" C6" 176.08(14)
C5 N7 C8 N9 0.81(16)
C4 N9 C8 N7 -0.58(16)
C1' N9 C8 N7 -172.91(13)
