#------------------------------------------------------------------------------
#$Date: 2019-11-11 20:30:54 +0200 (Mon, 11 Nov 2019) $
#$Revision: 227279 $
#$URL: file:///home/coder/svn-repositories/cod/cif/4/03/58/4035867.cif $
#------------------------------------------------------------------------------
#
# This file is available in the Crystallography Open Database (COD),
# http://www.crystallography.net/
#
# All data on this site have been placed in the public domain by the
# contributors.
#
data_4035867
loop_
_publ_author_name
'Bookser, Brett C.'
'Weinhouse, Michael I.'
'Burns, Aaron C.'
'Valiere, Andrew N.'
'Valdez, Lino J.'
'Stanczak, Pawel'
'Na, Jim'
'Rheingold, Arnold L.'
'Moore, Curtis E.'
'Dyck, Brian'
_publ_section_title
;
 Solvent-Controlled, Site-Selective N-Alkylation Reactions of Azolo-Fused
 Ring Heterocycles at N1-, N2-, and N3-Positions, Including Pyrazolo[3,4-
 d]pyrimidines, Purines, [1,2,3]Triazolo[4,5]pyridines, and Related
 Deaza-Compounds.
;
_journal_issue                   12
_journal_name_full               'The Journal of organic chemistry'
_journal_page_first              6334
_journal_page_last               6353
_journal_paper_doi               10.1021/acs.joc.8b00540
_journal_volume                  83
_journal_year                    2018
_chemical_absolute_configuration ad
_chemical_formula_moiety         'C7 H8 N4 O'
_chemical_formula_sum            'C7 H8 N4 O'
_chemical_formula_weight         164.17
_space_group_crystal_system      orthorhombic
_space_group_IT_number           19
_space_group_name_Hall           'P 2ac 2ab'
_space_group_name_H-M_alt        'P 21 21 21'
_atom_sites_solution_hydrogens   geom
_atom_sites_solution_primary     dual
_atom_sites_solution_secondary   difmap
_audit_creation_date             2015-08-21
_audit_creation_method
;
Olex2 1.2-beta
(compiled 2015.08.17 svn.r3210 for OlexSys, GUI svn.r5083)
;
_cell_angle_alpha                90
_cell_angle_beta                 90
_cell_angle_gamma                90
_cell_formula_units_Z            4
_cell_length_a                   3.8226(5)
_cell_length_b                   7.1075(12)
_cell_length_c                   27.806(4)
_cell_measurement_reflns_used    1789
_cell_measurement_temperature    100(2)
_cell_measurement_theta_max      25.260
_cell_measurement_theta_min      2.926
_cell_volume                     755.46(19)
_computing_cell_refinement       'SAINT v8.34A (Bruker, 2013)'
_computing_data_collection       'APEX2 v2013.6-2 (Bruker, 2013)'
_computing_data_reduction        'SAINT v8.34A (Bruker, 2013)'
_computing_molecular_graphics    'Olex2 (Dolomanov et al., 2009)'
_computing_publication_material  'Olex2 (Dolomanov et al., 2009)'
_computing_structure_refinement  'XL (Sheldrick, 2008)'
_computing_structure_solution    'ShelXT (Sheldrick, 2008)'
_diffrn_ambient_temperature      100.0
_diffrn_detector                 'Bruker APEX-II CCD'
_diffrn_detector_area_resol_mean 7.9
_diffrn_detector_type            'CCD Area Detector'
_diffrn_measured_fraction_theta_full 0.891
_diffrn_measured_fraction_theta_max 0.891
_diffrn_measurement_device       'Kappa Four-Circle Diffractometer'
_diffrn_measurement_device_type  'Bruker APEX-II CCD'
_diffrn_measurement_method       '\f and \w scans'
_diffrn_radiation_monochromator  'Double Bounce Multilayer Mirrors'
_diffrn_radiation_probe          x-ray
_diffrn_radiation_type           MoK\a
_diffrn_radiation_wavelength     0.71073
_diffrn_reflns_av_R_equivalents  0.0696
_diffrn_reflns_av_unetI/netI     0.0527
_diffrn_reflns_Laue_measured_fraction_full 0.891
_diffrn_reflns_Laue_measured_fraction_max 0.891
_diffrn_reflns_limit_h_max       4
_diffrn_reflns_limit_h_min       -4
_diffrn_reflns_limit_k_max       5
_diffrn_reflns_limit_k_min       -8
_diffrn_reflns_limit_l_max       32
_diffrn_reflns_limit_l_min       -20
_diffrn_reflns_number            1758
_diffrn_reflns_point_group_measured_fraction_full 0.858
_diffrn_reflns_point_group_measured_fraction_max 0.856
_diffrn_reflns_theta_full        25.242
_diffrn_reflns_theta_max         25.335
_diffrn_reflns_theta_min         1.465
_diffrn_source                   'Micro Focus Rotating Anode'
_diffrn_source_type              'Bruker TXS'
_diffrn_standards_number         0
_exptl_absorpt_coefficient_mu    0.104
_exptl_absorpt_correction_T_max  0.0916
_exptl_absorpt_correction_T_min  0.0632
_exptl_absorpt_correction_type   multi-scan
_exptl_absorpt_process_details
;
SADABS-2014/4 (Bruker,2014/4) was used for absorption correction.
wR2(int) was 0.0980 before and 0.0378 after correction.
The Ratio of minimum to maximum transmission is 0.6900.
The \l/2 correction factor is 0.00150.
;
_exptl_crystal_colour            colourless
_exptl_crystal_colour_primary    colourless
_exptl_crystal_density_diffrn    1.443
_exptl_crystal_description       needle
_exptl_crystal_F_000             344
_exptl_crystal_size_max          0.32
_exptl_crystal_size_mid          0.1
_exptl_crystal_size_min          0.08
_refine_diff_density_max         0.272
_refine_diff_density_min         -0.211
_refine_diff_density_rms         0.053
_refine_ls_abs_structure_details
;
 Flack x determined using 382 quotients [(I+)-(I-)]/[(I+)+(I-)]
 (Parsons, Flack and Wagner, Acta Cryst. B69 (2013) 249-259).
;
_refine_ls_abs_structure_Flack   -1.7(10)
_refine_ls_extinction_method     none
_refine_ls_goodness_of_fit_ref   1.074
_refine_ls_hydrogen_treatment    constr
_refine_ls_matrix_type           full
_refine_ls_number_parameters     111
_refine_ls_number_reflns         1192
_refine_ls_number_restraints     0
_refine_ls_restrained_S_all      1.074
_refine_ls_R_factor_all          0.0430
_refine_ls_R_factor_gt           0.0403
_refine_ls_shift/su_max          0.060
_refine_ls_shift/su_mean         0.005
_refine_ls_structure_factor_coef Fsqd
_refine_ls_weighting_details
'w=1/[\s^2^(Fo^2^)+(0.0678P)^2^+0.0678P] where P=(Fo^2^+2Fc^2^)/3'
_refine_ls_weighting_scheme      calc
_refine_ls_wR_factor_gt          0.1067
_refine_ls_wR_factor_ref         0.1089
_reflns_Friedel_coverage         0.530
_reflns_Friedel_fraction_full    0.802
_reflns_Friedel_fraction_max     0.796
_reflns_number_gt                1116
_reflns_number_total             1192
_reflns_threshold_expression     'I > 2\s(I)'
_cod_data_source_file            jo8b00540_si_002.cif
_cod_data_source_block           dart130
_cod_depositor_comments
;
The following automatic conversions were performed:

data item '_diffrn_radiation_probe' value 'X-ray' was changed to
'x-ray' in accordance with the
/home/data/users/saulius/crontab/automatic-downloads/current/ACS/lib/dictionaries/cif_core.dic
dictionary named 'cif_core.dic' version 2.4.2 last updated on
2011-04-26.

Automatic conversion script
Id: cif_fix_values 6909 2019-04-08 15:41:33Z antanas 
;
_cod_database_code               4035867
_shelxl_version_number           2014/6
_shelx_space_group_comment
;
The symmetry employed for this shelxl refinement is uniquely defined
by the following loop, which should always be used as a source of
symmetry information in preference to the above space-group names.
They are only intended as comments.
;
_shelx_estimated_absorpt_t_max   0.992
_shelx_estimated_absorpt_t_min   0.967
_olex2_refinement_description
;
1. Fixed Uiso
 At 1.2 times of:
  All C(H) groups
 At 1.5 times of:
  All C(H,H,H) groups
2.a Aromatic/amide H refined with riding coordinates:
 C6(H6), C7(H7)
2.b Idealised Me refined as rotating group:
 C1(H1A,H1B,H1C), C5(H5A,H5B,H5C)
;
_shelx_res_file
;
TITL dart126 in P2(1)2(1)2(1)
CELL 0.71073 3.8226 7.1075 27.8057 90 90 90
ZERR 4 0.0005 0.0012 0.004 0 0 0
LATT -1
SYMM 0.5+X,0.5-Y,-Z
SYMM -X,0.5+Y,0.5-Z
SYMM 0.5-X,-Y,0.5+Z
SFAC C H N O
UNIT 28 32 16 4

L.S. 1
PLAN  -2 0 0
SIZE 0.08 0.1 0.32
TEMP -173.15
HTAB
BOND $H
CONF
fmap 2
acta
MORE -1
OMIT -1 6 12
REM <olex2.extras>
REM <HklSrc "%.\\dart126_01.raw">
REM </olex2.extras>

WGHT    0.067800    0.067800
FVAR       5.61862
O1    4    2.055492    1.584659    1.102684    11.00000    0.02811    0.01921 =
         0.01820    0.00119    0.00021   -0.00326
N1    3    1.728701    1.041603    1.178082    11.00000    0.02590    0.01991 =
         0.01503    0.00065    0.00106    0.00157
N2    3    1.776710    1.355182    1.057939    11.00000    0.02493    0.02014 =
         0.01558   -0.00325    0.00023    0.00072
N3    3    1.590650    1.061288    1.093614    11.00000    0.02489    0.02059 =
         0.01438   -0.00203   -0.00186    0.00109
N4    3    1.878899    1.152749    1.212518    11.00000    0.02658    0.02387 =
         0.01782   -0.00263   -0.00093    0.00204
C1    1    1.591883    0.855907    1.189820    11.00000    0.02864    0.02442 =
         0.02099    0.00699   -0.00009   -0.00043
AFIX 137
H1A   2    1.487154    0.799659    1.161042    11.00000   -1.50000
H1B   2    1.413681    0.867502    1.214984    11.00000   -1.50000
H1C   2    1.782771    0.775634    1.201331    11.00000   -1.50000
AFIX   0
C2    1    1.723603    1.130172    1.135368    11.00000    0.01608    0.01954 =
         0.01658   -0.00137    0.00134    0.00171
C3    1    1.877139    1.306700    1.141414    11.00000    0.02244    0.01780 =
         0.01571   -0.00152    0.00191    0.00491
C4    1    1.900692    1.416467    1.099859    11.00000    0.01701    0.01499 =
         0.02236   -0.00396    0.00463    0.00145
C5    1    2.093257    1.687091    1.058021    11.00000    0.03045    0.01997 =
         0.02138    0.00566    0.00129   -0.00377
AFIX 137
H5A   2    2.227979    1.611309    1.035131    11.00000   -1.50000
H5B   2    2.215991    1.805800    1.064084    11.00000   -1.50000
H5C   2    1.861382    1.713549    1.044594    11.00000   -1.50000
AFIX   0
C6    1    1.628249    1.182589    1.057659    11.00000    0.02186    0.01870 =
         0.01614   -0.00060    0.00027    0.00047
AFIX  43
H6    2    1.538180    1.142432    1.027516    11.00000   -1.20000
AFIX   0
C7    1    1.971820    1.311037    1.190877    11.00000    0.02564    0.02190 =
         0.01428   -0.00229    0.00004   -0.00007
AFIX  43
H7    2    2.085971    1.413371    1.206265    11.00000   -1.20000
AFIX   0
HKLF 4

REM  dart126 in P2(1)2(1)2(1)
REM R1 =  0.0403 for    1116 Fo > 4sig(Fo)  and  0.0430 for all    1192 data
REM    111 parameters refined using      0 restraints

END

WGHT      0.0678      0.0678

REM Instructions for potential hydrogen bonds
EQIV $1 x+1, y+1, z
HTAB C5 N3_$1
EQIV $2 x-1/2, -y+5/2, -z+2
HTAB C6 N2_$2

REM Highest difference peak  0.272,  deepest hole -0.211,  1-sigma level  0.053
Q1    1   1.9237  1.5067  1.0678  11.00000  0.05    0.27
Q2    1   2.0587  1.4417  1.1558  11.00000  0.05    0.21
;
_shelx_res_checksum              33901
_shelx_hkl_file
;
   0   0  -2-0.67548  3.0939   1 0.24564-0.24564-0.96902 0.96902-0.02556-0.02556  0 398.18 245.33   38.12 398.48 246.85   38.01
   0   0  -3-1.50783  6.2339   1 0.25441-0.25441-0.96634 0.96634-0.03834-0.03834  0 408.14 240.88   39.74 407.79 241.38   39.40
   0   0   3 1.03154  4.5072   1 0.19899-0.19899-0.97925 0.97925 0.03834 0.03834  0 354.57 274.69   30.70 354.99 274.63   30.93
   0   0  -4 187793.   2908.   1 0.26295-0.26295-0.96345 0.96345-0.05111-0.05111  0 417.28 235.92   40.84 417.35 235.90   40.79
   0   0   4 190761.    949.   1 0.18908-0.18908-0.98063 0.98063 0.05111 0.05111  0 346.75 280.37   29.57 346.81 280.36   29.49
   0   0  -5  23.411  11.825   1 0.27137-0.27137-0.96035 0.96035-0.06389-0.06389  0 426.64 230.03   41.74 427.17 230.42   42.18
   0   0   5   6.304  11.569   1 0.17899-0.17899-0.98177 0.98177 0.06389 0.06389  0 339.97 286.04   28.27 338.78 286.17   28.04
   0   0  -6 33259.0   197.4   1 0.27960-0.27960-0.95705 0.95705-0.07667-0.07667  0 437.24 224.95   43.56 437.27 224.92   43.56
   0   0   6 30202.7   182.2   1 0.16870-0.16870-0.98268 0.98268 0.07667 0.07667  0 330.79 292.09   26.59 330.88 292.08   26.59
   0   0   7  26.620  17.389   1 0.15821-0.15821-0.98335 0.98335 0.08945 0.08945  0 323.33 298.16   25.03 323.11 298.10   25.12
   0   0  -8 233093.   1446.   1 0.29556-0.29556-0.94984 0.94984-0.10223-0.10223  0 458.41 213.85   46.40 458.42 213.81   46.30
   0   0   8 217973.   1241.   1 0.14752-0.14752-0.98376 0.98376 0.10223 0.10223  0 315.38 304.29   23.71 315.45 304.24   23.64
   0   0  -9  84.785  20.642   1 0.30330-0.30330-0.94593 0.94593-0.11501-0.11501  0 467.75 208.59   47.02 469.53 208.16   47.67
   0   0   9  73.682  20.809   1 0.13659-0.13659-0.98393 0.98393 0.11501 0.11501  0 310.26 310.71   21.69 307.90 310.51   22.15
   0   0 -10 27700.7   234.2   1 0.31085-0.31085-0.94183 0.94183-0.12778-0.12778  0 481.05 202.49   49.07 481.03 202.44   49.04
   0   0  10 26510.6   221.3   1 0.12544-0.12544-0.98384 0.98384 0.12778 0.12778  0 300.34 316.94   20.67 300.45 316.94   20.65
   0   0 -11 172.295  27.662   1 0.31831-0.31831-0.93751 0.93751-0.14056-0.14056  0 492.76 196.11   50.33 492.98 196.65   50.41
   0   0 -12 23321.2   312.8   1 0.32556-0.32556-0.93300 0.93300-0.15334-0.15334  2 505.08 190.75   51.74 505.37 190.72   51.78
   0   0  12 21899.2   220.5   1 0.10249-0.10249-0.98284 0.98284 0.15334 0.15334  0 285.69 330.30   17.63 285.82 330.30   17.60
   0   0  14  2124.3    78.9   1 0.07850-0.07850-0.98073 0.98073 0.17890 0.17890  0 271.98 344.70   14.37 271.50 344.47   14.49
   0   0  16  5944.3   134.1   1 0.05357-0.05357-0.97741 0.97741 0.20445 0.20445  0 257.51 359.73   11.29 257.48 359.61   11.31
   0   0  17  62.886  29.099   1 0.04067-0.04067-0.97527 0.97527 0.21723 0.21723  0 251.31 367.92    9.54 250.56 367.60    9.69
   0   0  18  2166.5    91.1   1 0.02751-0.02751-0.97280 0.97280 0.23001 0.23001  0 243.67 376.03    8.01 243.71 375.91    8.04
   0   0  19 131.352  35.161   1 0.01402-0.01402-0.96998 0.96998 0.24279 0.24279  0 236.46 385.38    6.26 236.91 384.57    6.38
   0   0  20 36971.5   365.4   1 0.00022-0.00022-0.96679 0.96679 0.25557 0.25557  0 230.07 393.65    4.67 230.17 393.62    4.68
   0  -1   0   8.598  10.051   1 0.26833-0.26833-0.04997-0.04997-0.96203 0.96203  0 348.81 233.95  167.64 348.75 234.19  167.58
   0   1   0-5.16640  8.5291   1 0.19747-0.19747 0.04997 0.04997-0.97903 0.97903  0 412.23 284.53  178.50 412.38 284.25  178.58
   0  -1  -1 66733.9   425.3   1 0.07042-0.07042 0.19682-0.29676-0.97791 0.95235  0 352.33 228.48  195.98 352.39 228.51  195.84
   0  -1   1 71083.6   509.0   1 0.39049-0.39049-0.27766 0.17769-0.87774 0.90330  0 343.56 239.93  143.48 343.60 239.89  143.37
   0   1  -1 66815.1   483.2   1 0.34563-0.34562-0.18214 0.28209-0.92053 0.89497  0 418.46 278.58  153.58 418.51 278.52  153.48
   0  -1   2  1389.4    40.2   1 0.44889-0.44889-0.45600 0.35604-0.76848 0.81960  0 337.51 245.63  124.09 337.47 245.58  124.05
   0   1  -2  1329.9    38.9   1 0.42235-0.42234-0.36190 0.46186-0.83106 0.77994  0 425.70 272.99  134.41 425.72 272.96  134.36
   0  -1   3 52125.2   467.8   1 0.46788-0.46788-0.58649 0.48652-0.66115 0.73782  0 330.74 251.39  108.95 330.78 251.34  108.94
   0   1  -3 48075.7   452.5   1 0.45603-0.45603-0.49029 0.59025-0.74273 0.66606  0 433.63 267.53  120.20 433.70 267.47  120.19
   0  -1   4 127169.    925.   1 0.46608-0.46608-0.68051 0.58055-0.56540 0.66763  0 323.74 257.21   96.94 323.73 257.15   97.01
   0   1  -4 133528.    971.   1 0.46749-0.46749-0.57999 0.67996-0.66713 0.56490  0 442.24 262.10  109.79 442.31 262.07  109.72
   0  -1   5 264.161  32.826   1 0.45348-0.45348-0.74908 0.64912-0.48295 0.61074  0 316.66 262.82   87.46 316.56 263.00   87.42
   0   1  -5 302.956  34.526   1 0.46842-0.46842-0.64296 0.74292-0.60596 0.47817  0 451.44 256.69  102.01 451.43 256.69  101.93
   0  -1   6 16370.9   166.5   1 0.43586-0.43586-0.80004 0.70009-0.41226 0.56560  0 309.28 268.90   79.56 309.29 268.94   79.53
   0   1  -6 16246.2   164.6   1 0.46524-0.46524-0.68760 0.78755-0.55746 0.40412  0 461.02 251.38   95.96 461.04 251.27   96.06
   0  -1   7 656.284  46.019   1 0.41616-0.41616-0.83871 0.73876-0.35124 0.53014  0 302.02 275.00   72.76 301.96 274.96   72.88
   0   1  -7 662.367  42.306   1 0.46012-0.46012-0.71992 0.81988-0.51961 0.34071  0 471.18 246.03   91.65 471.12 245.89   91.62
   0  -1   8  2140.9    72.1   1 0.39573-0.39573-0.86867 0.76871-0.29802 0.50248  0 294.62 281.09   67.20 294.63 281.07   67.16
   0   1  -8  2250.9    71.5   1 0.45491-0.45491-0.74351 0.84347-0.49015 0.28570  0 481.56 240.66   88.23 481.62 240.51   88.24
   0  -1   9  23.120  22.646   1 0.37529-0.37529-0.89227 0.79231-0.25102 0.48104  0 287.44 288.10   62.41 287.30 287.30   62.16
   0   1  -9   9.917  18.162   1 0.45012-0.45012-0.76089 0.86084-0.46738 0.23737  0 492.87 234.81   85.34 492.59 235.09   85.66
   0  -1 -10  4427.9    89.9   1 0.02451-0.02451-0.97220 0.87225 0.23288-0.48845  0 471.81 177.20    7.66 471.81 177.25    7.67
   0  -1  10  5122.2   114.8   1 0.35510-0.35510-0.91116 0.81120-0.20903 0.46460  0 279.92 293.65   57.70 279.97 293.65   57.70
   0   1 -10  5340.4   131.1   1 0.44603-0.44603-0.77370 0.87366-0.44994 0.19436  2 503.95 229.82   83.70 504.04 229.63   83.70
   0  -1 -11 19191.4   193.4   1 0.06790-0.06790-0.97945 0.87951 0.18989-0.47102  0 483.02 171.00   13.13 483.00 171.04   13.13
   0  -1  11 20798.3   233.5   1 0.33530-0.33530-0.92645 0.82649-0.17107 0.45220  0 272.61 300.12   53.68 272.67 300.15   53.66
   0  -1 -12  62.947  21.990   1 0.10489-0.10489-0.98300 0.88305 0.15073-0.45741  0 494.67 164.89   17.81 494.83 164.69   17.91
   0  -1  12  93.489  31.185   1 0.31592-0.31592-0.93893 0.83898-0.13639 0.44307  0 265.92 306.88   50.09 265.38 306.80   49.97
   0  -1  13  1716.9    79.6   1 0.29688-0.29688-0.94919 0.84924-0.10439 0.43663  0 258.13 313.65   46.57 258.14 313.67   46.54
   0  -1  14 410.661  52.382   1 0.27830-0.27830-0.95759 0.85764-0.07464 0.43243  0 250.58 320.60   43.36 250.90 320.70   43.34
   0  -1  15 18673.2   250.9   1 0.26008-0.26008-0.96445 0.86451-0.04675 0.43010  0 243.64 327.90   40.34 243.68 327.94   40.32
   0  -1  16  7145.4   161.8   1 0.24204-0.24204-0.97005 0.87010-0.02043 0.42934  0 236.44 335.36   37.49 236.48 335.41   37.45
   0  -1  17  2821.2   109.1   1 0.22422-0.22422-0.97453 0.87458 0.00454 0.42992  0 229.26 343.12   34.74 229.29 343.13   34.70
   0  -1  18  6575.9   164.0   1 0.20656-0.20656-0.97802 0.87807 0.02838 0.43164  0 222.12 351.23   32.06 222.11 351.14   32.05
   0  -1  19  11.935  31.973   1 0.18899-0.18899-0.98064 0.88070 0.05123 0.43435  0 215.04 359.67   29.53 214.94 359.46   29.48
   0  -1  20  6961.4   177.0   1 0.17149-0.17149-0.98246 0.88251 0.07323 0.43791  0 207.74 368.14   26.99 207.77 368.11   26.98
   0  -1  21  1851.3   100.8   1 0.15401-0.15401-0.98354 0.88359 0.09449 0.44220  0 200.46 377.21   24.55 200.60 377.14   24.54
   0  -1  22 16446.3   282.0   1 0.13651-0.13651-0.98393 0.88398 0.11510 0.44715  0 193.40 386.66   22.14 193.43 386.57   22.14
   0  -1  23  1732.8   108.6   1 0.11891-0.11891-0.98366 0.88372 0.13514 0.45266  0 186.35 396.48   19.83 186.25 396.46   19.77
   0  -1  24  3544.5   148.4   1 0.10126-0.10126-0.98276 0.88281 0.15469 0.45868  0 178.93 406.85   17.44 179.06 406.84   17.44
   0  -1  25  8408.9   217.1   1 0.08338-0.08338-0.98125 0.88130 0.17378 0.46514  0 171.79 417.84   15.12 171.85 417.76   15.11
   0  -1  26 904.526  93.604   1 0.06537-0.06537-0.97912 0.87917 0.19248 0.47200  0 165.00 429.30   12.83 164.64 429.31   12.81
   0  -1  27  1977.7   124.1   1 0.04717-0.04717-0.97638 0.87644 0.21083 0.47920  0 157.43 441.73   10.45 157.40 441.52   10.50
   0  -1  28 411.509  76.331   1 0.02870-0.02870-0.97303 0.87309 0.22887 0.48672  0 150.36 454.37    8.39 150.16 454.50    8.19
   0  -1  29 574.710  86.206   1 0.00991-0.00991-0.96906 0.86911 0.24663 0.49452  0 143.17 468.81    5.70 142.90 468.32    5.87
   0  -1  30  66.496  46.524   1-0.00923 0.00923-0.96444 0.86449 0.26414 0.50256  0 135.97 483.88    3.42 135.64 483.10    3.53
   0  -2   0 10612.8   129.4   1 0.29971-0.29971-0.09995-0.09995-0.94878 0.94878  0 316.73 212.60  162.25 316.77 212.57  162.21
   0   2   0  9919.1   119.1   1 0.15748-0.15748 0.09995 0.09995-0.98245 0.98245  0 444.75 314.43  184.30 444.82 314.40  184.27
   0  -2  -1  4893.1    86.7   1 0.21758-0.21758 0.02317-0.22307-0.97577 0.95021  0 320.49 206.80  175.66 320.49 206.86  175.59
   0  -2   1  5242.2    95.1   1 0.36329-0.36329-0.21741 0.01752-0.90595 0.93151  0 312.23 218.35  149.77 312.26 218.30  149.75
   0   2  -1  4822.1    87.6   1 0.24983-0.24983-0.02219 0.22208-0.96804 0.94248  0 451.25 308.62  170.67 451.32 308.61  170.60
   0   2   1  4727.1    80.4   1 0.04165-0.04165 0.22606-0.02621-0.97322 0.99879  0 438.93 320.38  199.59 439.06 320.28  199.51
   0  -2  -2  20.103  16.431   1 0.11894-0.11894 0.14470-0.34459-0.98230 0.93119  0 323.26 201.53  189.51 323.26 201.16  189.51
   0  -2   2  23.032  19.291   1 0.40908-0.40908-0.32454 0.12461-0.85284 0.90395  0 307.57 224.23  138.31 307.13 224.07  138.38
   0   2  -2  17.081  17.726   1 0.31921-0.31921-0.13343 0.33332-0.93824 0.88713  0 458.73 303.22  158.45 458.51 302.97  158.65
   0  -2  -3 22178.1   174.3   1 0.01003-0.01003 0.25630-0.45615-0.96654 0.88985  0 324.87 195.43  203.49 324.91 195.46  203.45
   0  -2   3 24691.3   216.7   1 0.43969-0.43969-0.41927 0.21934-0.79428 0.87096  0 301.52 229.87  128.16 301.51 229.86  128.12
   0   2  -3 24021.0   207.7   1 0.36946-0.36946-0.23056 0.43049-0.90019 0.82352  0 466.18 297.49  148.42 466.32 297.48  148.37
   0  -2   4 22823.6   215.9   1 0.45790-0.45790-0.50146 0.30153-0.73407 0.83631  0 295.54 235.69  118.93 295.51 235.72  118.93
   0   2  -4 22361.6   208.5   1 0.40483-0.40483-0.31318 0.51311-0.85909 0.75686  0 474.61 292.08  139.62 474.67 292.04  139.59
   0  -2   5  4670.5   103.7   1 0.46690-0.46690-0.57191 0.37198-0.67448 0.80227  0 289.25 241.61  110.72 289.25 241.63  110.69
   0   2  -5  4473.7    99.3   1 0.42891-0.42891-0.38232 0.58225-0.81845 0.69067  0 483.53 286.68  132.19 483.53 286.65  132.15
   0   2  -6  5494.5   113.6   1 0.44498-0.44498-0.43964 0.63957-0.78020 0.62685  0 492.87 281.42  125.85 492.93 281.34  125.87
   0  -2   7 26072.9   257.0   1 0.46577-0.46577-0.68324 0.48333-0.56235 0.74125  0 276.15 253.60   96.69 276.10 253.66   96.64
   0   2  -7 24038.0   242.8   1 0.45539-0.45539-0.48693 0.68686-0.74533 0.56642  0 502.74 276.14  120.60 502.84 276.08  120.57
   0  -2   8 23680.6   253.1   1 0.45870-0.45870-0.72703 0.52711-0.51091 0.71536  0 269.39 259.71   90.66 269.35 259.79   90.61
   0  -2   9  2028.6    84.7   1 0.44904-0.44904-0.76447 0.56456-0.46255 0.69256  0 262.58 266.08   85.18 262.50 266.02   85.12
   0  -2  10 62661.5   437.8   1 0.43728-0.43728-0.79669 0.59678-0.41721 0.67278  0 255.60 272.28   80.07 255.58 272.37   80.07
   0  -2  11  3890.2   118.8   1 0.42421-0.42421-0.82444 0.62453-0.37462 0.65575  0 248.64 278.79   75.46 248.59 278.84   75.41
   0  -2  12 41658.7   379.5   1 0.41008-0.41008-0.84847 0.64855-0.33457 0.64126  0 241.55 285.36   71.10 241.54 285.45   71.08
   0  -2  13 125.946  40.362   1 0.39523-0.39523-0.86931 0.66940-0.29680 0.62905  0 234.97 292.13   67.43 234.47 292.22   67.03
   0  -2  14 48173.2   429.4   1 0.37986-0.37986-0.88743 0.68752-0.26109 0.61889  0 227.32 299.10   63.25 227.34 299.17   63.23
   0  -2  15  4518.5   141.5   1 0.36406-0.36406-0.90323 0.70332-0.22721 0.61057  0 220.17 306.32   59.67 220.16 306.30   59.63
   0  -2  16 25760.5   331.4   1 0.34793-0.34793-0.91702 0.71710-0.19499 0.60391  0 212.96 313.58   56.23 212.95 313.65   56.21
   0  -2  17 14397.7   258.6   1 0.33159-0.33159-0.92902 0.72911-0.16424 0.59871  0 205.76 321.28   52.95 205.69 321.24   52.94
   0  -2  18 158.347  50.791   1 0.31501-0.31501-0.93947 0.73955-0.13481 0.59484  0 198.69 329.71   49.90 198.39 329.08   49.80
   0  -2  19  1530.2   100.9   1 0.29819-0.29819-0.94854 0.74865-0.10654 0.59212  0 191.12 337.24   46.74 191.06 337.26   46.77
   0  -2  20 908.529  88.374   1 0.28130-0.28130-0.95633 0.75644-0.07934 0.59048  0 183.73 345.36   43.91 183.66 345.70   43.84
   0  -2  21 627.601  85.178   1 0.26427-0.26427-0.96299 0.76309-0.05310 0.58979  0 176.31 354.89   40.96 176.21 354.48   41.01
   0  -2  22  2379.1   129.9   1 0.24712-0.24712-0.96859 0.76869-0.02770 0.58995  0 168.66 363.64   38.19 168.69 363.63   38.24
   0  -2  23 115.273  53.620   1 0.22974-0.22974-0.97325 0.77335-0.00308 0.59088  0 161.40 374.08   35.40 161.09 373.20   35.54
   0  -2  24  1295.9   108.3   1 0.21221-0.21221-0.97700 0.77711 0.02085 0.59251  0 153.15 383.40   32.89 153.43 383.23   32.89
   0  -2  25 11713.7   274.2   1 0.19451-0.19451-0.97991 0.78001 0.04415 0.59477  0 145.66 393.85   30.27 145.70 393.75   30.28
   0  -2  26 362.351  76.301   1 0.17659-0.17659-0.98201 0.78211 0.06689 0.59759  0 137.89 404.77   27.96 137.86 404.83   27.70
   0  -2  27  9116.1   254.3   1 0.15849-0.15849-0.98333 0.78344 0.08911 0.60092  0 129.90 416.50   25.15 129.94 416.53   25.16
   0  -2  28  1535.3   126.0   1 0.14015-0.14015-0.98390 0.78401 0.11087 0.60472  0 121.81 428.68   22.76 121.91 428.93   22.63
   0  -2  29   5.787  54.064   1 0.12153-0.12153-0.98374 0.78385 0.13221 0.60894  0 113.62 442.79   19.93 113.77 442.09   20.12
   0  -2  30 854.670 115.165   1 0.10266-0.10266-0.98285 0.78296 0.15316 0.61354  0 105.99 456.51   17.51 105.50 456.12   17.62
   0  -2  31 199.912  69.442   1 0.08338-0.08338-0.98125 0.78136 0.17377 0.61849  0  97.49 471.44   15.15  97.11 471.12   15.12
   0  -2  32  89.101  66.343   1 0.06381-0.06381-0.97891 0.77902 0.19407 0.62375  0  88.68 487.24   12.77  88.58 487.23   12.61
   0  -3   0  -0.302  19.939   1 0.32841-0.32841-0.14992-0.14992-0.93256 0.93256  0 283.69 192.79  156.74 284.10 192.31  156.90
   0   3   0   6.593  17.734   1 0.11426-0.11426 0.14992 0.14992-0.98207 0.98207  0 478.08 349.82  190.03 478.09 349.54  190.13
   0  -3  -1 12557.2   170.8   1 0.28086-0.28086-0.06942-0.23042-0.95723 0.93168  0 287.66 186.49  165.55 287.68 186.53  165.49
   0  -3   1 12695.7   178.7   1 0.36820-0.36820-0.22786-0.07204-0.90140 0.92695  0 279.93 198.15  148.69 279.98 198.11  148.66
   0   3  -1 11900.7   162.3   1 0.18385-0.18385 0.06742 0.23241-0.98064 0.95508  0 485.42 343.74  180.60 485.39 343.70  180.55
   0   3   1 11357.2   150.0   1 0.03364-0.03364 0.23385 0.06592-0.97169 0.99726  0 471.25 355.61  200.59 471.29 355.47  200.51
   0  -3  -2  7300.8   129.5   1 0.22591-0.22591 0.01178-0.31161-0.97408 0.92296  0 290.61 180.74  174.36 290.62 180.77  174.33
   0  -3   2  8025.6   146.2   1 0.40037-0.40037-0.30178 0.00188-0.86524 0.91635  0 275.36 203.98  140.81 275.37 203.95  140.81
   0   3  -2  7425.7   133.2   1 0.24217-0.24217-0.01111 0.31095-0.97017 0.91906  0 493.18 337.99  171.86 493.17 337.97  171.81
   0  -3  -3 623.851  44.188   1 0.16453-0.16453 0.09141-0.39125-0.98213 0.90546  0 292.41 174.62  183.02 292.88 175.02  183.29
   0  -3   3 738.591  53.300   1 0.42529-0.42529-0.37083 0.07093-0.82560 0.90227  0 269.98 209.81  133.34 270.38 209.82  133.40
   0   3  -3 609.812  46.658   1 0.29003-0.29003-0.08405 0.38388-0.95332 0.87665  2 500.86 332.45  163.84 501.46 332.41  163.91
   0  -3  -4 10864.1   153.9   1 0.09856-0.09856 0.16712-0.46695-0.98100 0.87877  0 294.35 169.22  192.24 294.36 169.29  192.20
   0  -3   4 12280.7   188.8   1 0.44370-0.44370-0.43455 0.13465-0.78377 0.88600  0 265.05 215.75  126.47 265.03 215.73  126.43
   0  -3  -5 660.197  43.957   1 0.03043-0.03043 0.23694-0.53671-0.97105 0.84322  0 295.04 163.64  200.90 295.02 163.55  200.91
   0  -3   5 764.693  56.849   1 0.45650-0.45650-0.49282 0.19293-0.74076 0.86855  0 259.32 221.66  119.82 259.40 221.70  119.90
   0  -3   6 369.766  46.039   1 0.46438-0.46438-0.54579 0.24590-0.69747 0.85082  0 253.61 227.83  113.57 253.52 227.74  113.79
   0  -3   7  4017.7   118.8   1 0.46814-0.46814-0.59373 0.29384-0.65446 0.83337  0 247.70 233.35  108.22 247.45 233.83  108.06
   0  -3   8  8986.1   178.4   1 0.46860-0.46860-0.63697 0.33707-0.61211 0.81657  0 241.19 239.98  102.71 241.19 240.00  102.69
   0  -3  10 22159.2   291.8   1 0.46177-0.46177-0.71092 0.41105-0.53043 0.78601  0 228.30 252.62   92.90 228.21 252.69   92.88
   0  -3  11 434.008  59.011   1 0.45517-0.45517-0.74248 0.44261-0.49148 0.77261  0 221.84 258.69   88.48 221.55 259.19   88.39
   0  -3  12 532.699  65.426   1 0.44697-0.44697-0.77089 0.47102-0.45381 0.76050  0 214.48 266.36   84.07 214.78 265.81   84.14
   0  -3  13  2579.2   115.8   1 0.43736-0.43736-0.79652 0.49665-0.41746 0.74971  0 207.72 272.38   80.27 207.92 272.58   80.10
   0  -3  14  22.747  33.766   1 0.42671-0.42671-0.81960 0.51973-0.38234 0.74014  0 201.07 279.62   76.32 200.94 279.52   76.25
   0  -3  15 492.832  72.195   1 0.41515-0.41515-0.84039 0.54052-0.34841 0.73177  0 193.94 286.68   72.49 193.87 286.63   72.57
   0  -3  16  5842.7   180.2   1 0.40281-0.40281-0.85914 0.55927-0.31563 0.72454  0 186.71 293.82   69.10 186.71 293.94   69.05
   0  -3  17  19.513  44.259   1 0.38982-0.38982-0.87603 0.57616-0.28391 0.71838  0 180.21 301.65   65.49 179.46 301.47   65.66
   0  -3  18  1464.1   110.3   1 0.37629-0.37629-0.89123 0.59136-0.25320 0.71323  0 172.15 308.91   62.47 172.10 309.25   62.39
   0  -3  19   4.490  47.253   1 0.36223-0.36223-0.90491 0.60504-0.22344 0.70902  0 164.05 316.61   59.59 164.65 317.29   59.23
   0  -3  20  1401.5   115.1   1 0.34770-0.34770-0.91720 0.61733-0.19455 0.70570  0 157.24 325.92   56.21 157.09 325.62   56.16
   0  -3  21 118.340  62.045   1 0.33281-0.33281-0.92818 0.62831-0.16648 0.70318  0 148.48 333.60   53.40 149.41 334.28   53.17
   0  -3  22  6435.6   213.5   1 0.31751-0.31751-0.93799 0.63812-0.13916 0.70142  0 141.69 343.36   50.29 141.62 343.30   50.26
   0  -3  23  8064.5   241.3   1 0.30181-0.30181-0.94670 0.64686-0.11254 0.70034  0 133.78 352.78   47.43 133.74 352.79   47.41
   0  -3  24 691.271 102.045   1 0.28586-0.28586-0.95435 0.65451-0.08656 0.69993  0 125.71 362.79   44.66 125.69 362.62   44.62
   0  -3  25  2253.3   149.5   1 0.26960-0.26960-0.96103 0.66118-0.06119 0.70011  0 117.58 373.20   41.90 117.50 372.95   41.88
   0  -3  26 591.835 101.574   1 0.25306-0.25306-0.96677 0.66692-0.03636 0.70084  0 109.11 383.94   38.95 109.15 383.80   39.19
   0  -3  27  4771.4   208.7   1 0.23614-0.23614-0.97165 0.67180-0.01205 0.70208  0 100.73 395.41   36.52 100.63 395.24   36.53
   0  -3  28  28.526  60.955   1 0.21891-0.21891-0.97567 0.67583 0.01180 0.70380  0  92.28 406.93   34.05  91.92 407.34   33.89
   0  -3  29 111.975  66.880   1 0.20138-0.20138-0.97888 0.67904 0.03521 0.70594  0  83.05 420.19   31.14  83.03 420.16   31.28
   0  -3  30 348.282  91.156   1 0.18349-0.18349-0.98130 0.68145 0.05822 0.70848  0  73.78 433.45   28.88  73.91 433.79   28.69
   0  -3  31  37.479  63.904   1 0.16528-0.16528-0.98293 0.68308 0.08087 0.71139  0  65.22 448.65   25.92  64.56 448.34   26.11
   0  -4   0 63572.5   456.5   1 0.35467-0.35467-0.19989-0.19989-0.91337 0.91337  0 250.16 172.83  151.65 250.17 172.85  151.60
   0  -4  -1 21356.6   262.6   1 0.32342-0.32342-0.14089-0.25889-0.93571 0.91015  0 253.59 166.95  157.91 253.59 166.94  157.85
   0  -4   1 22263.5   275.5   1 0.38178-0.38178-0.25748-0.14238-0.88766 0.91322  0 246.36 178.75  145.57 246.32 178.76  145.52
   0   4   1 20750.3   280.3   1 0.00332-0.00332 0.26239 0.13731-0.96496 0.99052  2 504.25 397.42  204.34 504.42 397.37  204.26
   0  -4  -2 193.545  39.595   1 0.28825-0.28825-0.08117-0.31861-0.95411 0.90300  0 256.77 161.79  164.19 256.53 161.06  164.22
   0  -4   2 154.160  37.560   1 0.40478-0.40478-0.31303-0.08683-0.85917 0.91028  0 241.82 184.40  139.60 242.07 184.71  139.61
   0  -4  -3  1059.4    64.1   1 0.24941-0.24941-0.02157-0.37821-0.96816 0.89149  0 259.03 155.11  170.81 258.94 155.18  170.67
   0  -4   3  1171.5    72.8   1 0.42376-0.42376-0.36614-0.03372-0.82847 0.90515  0 237.59 190.78  133.87 237.48 190.69  133.90
   0  -4  -4  1232.8    67.7   1 0.20727-0.20727 0.03701-0.43679-0.97758 0.87536  0 260.80 149.34  177.13 260.80 149.30  177.13
   0  -4   4  1492.6    82.7   1 0.43894-0.43894-0.41654 0.01668-0.79613 0.89836  0 232.73 196.92  128.50 232.57 196.70  128.42
   0  -4  -5 28379.3   292.1   1 0.16271-0.16271 0.09364-0.49342-0.98222 0.85444  0 262.04 143.37  183.56 262.05 143.42  183.54
   0  -4   5 32103.9   352.9   1 0.45067-0.45067-0.46406 0.06420-0.76259 0.89038  0 227.43 202.73  123.20 227.38 202.77  123.15
   0  -4  -6  5485.1   130.6   1 0.11650-0.11650 0.14743-0.54721-0.98219 0.82885  0 262.64 137.49  189.90 262.66 137.55  189.84
   0  -4   6  6302.7   162.2   1 0.45912-0.45912-0.50865 0.10879-0.72834 0.88169  0 222.03 208.85  118.19 221.92 208.90  118.10
   0  -4  -7  39.723  23.546   1 0.06963-0.06963 0.19763-0.59741-0.97780 0.79890  0 263.09 131.72  196.00 262.62 131.67  195.95
   0  -4   7  21.070  27.556   1 0.46488-0.46488-0.55028 0.15042-0.69360 0.87250  0 216.15 215.11  113.64 216.25 215.08  113.26
   0  -4  -8 193.748  39.025   1 0.02321-0.02321 0.24394-0.64363-0.96951 0.76498  0 261.92 125.94  202.00 261.90 125.76  201.82
   0  -4   8 209.059  46.744   1 0.46802-0.46802-0.58905 0.18919-0.65876 0.86323  0 210.58 221.59  108.52 210.38 221.34  108.63
   0  -4   9  7329.6   185.4   1 0.46879-0.46879-0.62510 0.22524-0.62409 0.85411  0 204.35 227.70  104.20 204.31 227.69  104.19
   0  -4  10  1954.9   103.2   1 0.46762-0.46762-0.65850 0.25864-0.58967 0.84524  0 198.10 234.38   99.82 198.07 234.14   99.93
   0  -4  11  1472.1    97.3   1 0.46503-0.46503-0.68933 0.28950-0.55549 0.83662  0 191.88 240.81   95.78 191.65 240.76   95.83
   0  -4  12 12359.5   254.3   1 0.46050-0.46050-0.71794 0.31812-0.52201 0.82870  0 185.17 247.34   91.92 185.10 247.44   91.90
   0  -4  13 29789.6   400.6   1 0.45469-0.45469-0.74436 0.34453-0.48907 0.82131  0 178.50 254.12   88.15 178.39 254.28   88.11
   0  -4  14  1262.9    99.4   1 0.44768-0.44768-0.76875 0.36892-0.45675 0.81455  0 171.99 261.03   84.58 171.55 261.26   84.47
   0  -4  15 681.195  84.755   1 0.43958-0.43958-0.79126 0.39143-0.42507 0.80843  0 165.20 268.28   80.73 164.56 268.42   80.94
   0  -4  16  38.864  45.449   1 0.43042-0.43042-0.81206 0.41223-0.39408 0.80300  0 157.51 275.75   77.38 157.44 275.76   77.54
   0  -4  17  2766.9   144.6   1 0.42053-0.42053-0.83119 0.43136-0.36370 0.79817  0 150.15 283.33   74.28 150.17 283.32   74.23
   0  -4  18 247.031  70.748   1 0.40985-0.40985-0.84881 0.44899-0.33397 0.79400  0 142.72 291.31   71.30 142.75 291.11   71.02
   0  -4  19  8499.4   247.2   1 0.39851-0.39851-0.86502 0.46519-0.30485 0.79043  0 135.29 299.16   67.90 135.19 299.17   67.89
   0  -4  20  3479.1   175.0   1 0.38657-0.38657-0.87989 0.48006-0.27632 0.78746  0 127.45 307.59   64.83 127.46 307.50   64.85
   0  -4  21  4556.8   197.6   1 0.37407-0.37407-0.89352 0.49370-0.24837 0.78507  0 119.65 316.04   61.86 119.57 316.16   61.88
   0  -4  22  30.782  66.294   1 0.36103-0.36103-0.90600 0.50617-0.22097 0.78323  0 111.55 324.44   59.23 111.51 325.16   58.97
   0  -4  23  5527.8   227.7   1 0.34747-0.34747-0.91738 0.51755-0.19411 0.78192  0 103.34 334.48   56.10 103.25 334.54   56.11
   0  -4  24  1608.0   144.5   1 0.33349-0.33349-0.92771 0.52789-0.16773 0.78110  0  95.20 344.36   53.38  94.81 344.35   53.31
   0  -4  25  3398.4   193.8   1 0.31904-0.31904-0.93707 0.53724-0.14183 0.78076  0  86.17 354.70   50.59  86.15 354.63   50.55
   0  -4  26  3112.4   195.9   1 0.30411-0.30411-0.94550 0.54572-0.11636 0.78084  0  77.27 365.30   47.92  77.31 365.52   47.82
   0  -4  27  35.719  69.924   1 0.28883-0.28883-0.95301 0.55323-0.09132 0.78136  0  68.54 376.56   45.01  68.19 376.89   45.13
   0  -4  28 -57.657  67.765   1 0.27317-0.27317-0.95965 0.55986-0.06667 0.78226  0  58.52 388.11   42.46  58.80 388.92   42.48
   0  -4  29 693.422 122.336   1 0.25715-0.25715-0.96544 0.56565-0.04238 0.78352  0  49.04 401.40   39.91  49.12 401.64   39.84
   0  -5   0  13.813  28.102   1 0.37840-0.37840-0.24991-0.24991-0.89127 0.89127  0 214.51 153.44  146.42 214.32 153.58  146.32
   0  -5  -1  1051.0    76.0   1 0.35667-0.35667-0.20389-0.29584-0.91171 0.88615  0 217.43 147.49  151.14 217.60 147.52  151.18
   0  -5   1 970.330  75.727   1 0.39766-0.39766-0.29499-0.20483-0.86882 0.89438  0 210.48 159.76  141.53 210.67 159.68  141.53
   0  -5  -2  45.501  30.278   1 0.33248-0.33248-0.15737-0.34236-0.92989 0.87877  0 220.75 140.76  156.16 220.48 141.43  156.11
   0  -5   2  48.350  32.294   1 0.41435-0.41435-0.33891-0.16092-0.84466 0.89578  0 206.40 165.46  136.44 206.66 165.80  136.84
   0  -5  -3  1228.5    78.8   1 0.30612-0.30612-0.11068-0.38905-0.94554 0.86887  0 223.17 135.14  161.20 222.93 135.36  161.07
   0  -5   3  1321.8    87.5   1 0.42863-0.42863-0.38143-0.11840-0.81902 0.89569  0 202.39 171.91  132.37 202.34 171.93  132.25
   0  -5  -4  6643.6   166.4   1 0.27756-0.27756-0.06423-0.43549-0.95856 0.85633  0 224.91 129.19  166.09 224.91 129.27  166.04
   0  -5   4  7428.6   191.4   1 0.44053-0.44053-0.42239-0.07744-0.79216 0.89439  0 197.77 178.18  127.78 197.73 178.10  127.77
   0  -5  -5 135.135  38.961   1 0.24729-0.24729-0.01848-0.48124-0.96877 0.84098  0 226.70 123.07  170.92 226.41 123.17  171.00
   0  -5   5 224.263  50.229   1 0.45014-0.45014-0.46167-0.03816-0.76435 0.89214  0 192.78 184.33  123.46 192.83 184.32  123.42
   0  -5  -6 172.619  41.891   1 0.21539-0.21539 0.02615-0.52587-0.97618 0.82284  0 227.23 117.45  175.88 227.40 117.05  175.92
   0  -5   6 140.148  46.554   1 0.45751-0.45751-0.49920-0.00063-0.73586 0.88921  0 187.85 190.65  119.38 187.67 190.59  119.18
   0  -5  -7 170.498  42.206   1 0.18243-0.18243 0.06922-0.56895-0.98078 0.80188  0 228.04 110.84  180.94 227.86 110.90  180.75
   0  -5   7 191.352  53.660   1 0.46301-0.46301-0.53490 0.03508-0.70676 0.88566  0 182.60 197.25  115.28 182.28 196.92  115.07
   0  -5  -8  6600.4   166.2   1 0.14876-0.14876 0.11036-0.61009-0.98270 0.77824  0 227.74 104.61  185.49 227.76 104.72  185.48
   0  -5   8  8202.4   215.6   1 0.46665-0.46665-0.56879 0.06896-0.67729 0.88175  0 176.71 203.22  111.13 176.66 203.31  111.07
   0  -5  -9 296.256  51.542   1 0.11488-0.11488 0.14924-0.64896-0.98211 0.75210  0 227.22  98.73  190.07 227.11  98.52  190.05
   0  -5   9 292.870  62.940   1 0.46843-0.46843-0.60090 0.10108-0.64768 0.87770  0 171.31 209.40  107.44 170.83 209.79  107.19
   0  -5 -10 117.539  36.388   1 0.08124-0.08124 0.18559-0.68532-0.97926 0.72370  0 225.62  91.76  194.64 225.87  92.27  194.46
   0  -5  10 126.578  46.404   1 0.46872-0.46872-0.63123 0.13140-0.61794 0.87352  0 164.62 216.24  103.49 164.79 216.37  103.42
   0  -5 -11 26601.5   345.1   1 0.04819-0.04819 0.21926-0.71898-0.97448 0.69336  0 224.07  85.89  198.69 224.06  85.97  198.67
   0  -5  11 32483.9   442.0   1 0.46753-0.46753-0.65984 0.16001-0.58824 0.86937  0 158.63 223.03   99.76 158.55 223.05   99.76
   0  -5 -12  5852.0   164.3   1 0.01635-0.01635 0.25040-0.75002-0.96800 0.66121  0 221.68  79.70  202.62 221.67  79.60  202.67
   0  -5  12  7057.4   217.7   1 0.46535-0.46535-0.68669 0.18691-0.55848 0.86517  0 152.43 229.72   96.33 152.12 229.93   96.18
   0  -5  13 773.407  94.575   1 0.46158-0.46158-0.71205 0.21227-0.52909 0.86133  0 145.55 236.68   92.69 145.51 236.87   92.72
   0  -5  14  3615.8   165.6   1 0.45677-0.45677-0.73585 0.23606-0.49989 0.85769  0 138.88 243.86   89.41 138.71 243.97   89.35
   0  -5  15 12108.2   299.0   1 0.45092-0.45092-0.75819 0.25840-0.47098 0.85434  0 131.84 251.06   86.11 131.73 251.24   86.07
   0  -5  16 13993.3   325.3   1 0.44416-0.44416-0.77912 0.27934-0.44237 0.85129  0 124.60 258.59   82.87 124.56 258.70   82.86
   0  -5  17 159.649  63.434   1 0.43641-0.43641-0.79877 0.29898-0.41415 0.84862  0 117.97 266.43   79.72 117.23 266.36   79.74
   0  -5  18  2105.7   148.7   1 0.42795-0.42795-0.81712 0.31734-0.38623 0.84626  0 109.73 274.18   76.62 109.69 274.26   76.68
   0  -5  19  4506.9   203.6   1 0.41879-0.41879-0.83426 0.33447-0.35866 0.84424  0 101.80 282.44   73.64 101.94 282.41   73.68
   0  -5  20  7783.7   263.6   1 0.40891-0.40891-0.85026 0.35047-0.33145 0.84259  0  94.05 290.88   70.75  93.98 290.85   70.75
   0  -5  21  2451.2   169.7   1 0.39841-0.39841-0.86516 0.36537-0.30459 0.84129  0  85.98 299.60   67.86  85.80 299.61   67.87
   0  -5  22 -21.898  70.409   1 0.38734-0.38734-0.87900 0.37922-0.27808 0.84034  0  77.40 309.52   65.25  77.38 308.70   65.04
   0  -5  23 180.022  84.516   1 0.37570-0.37570-0.89185 0.39207-0.25191 0.83972  0  68.95 317.65   62.40  68.72 318.19   62.25
   0  -5  24  34.718  82.323   1 0.36351-0.36351-0.90374 0.40396-0.22608 0.83945  0  59.65 328.89   59.42  59.80 328.11   59.51
   0  -5  25 341.593 106.219   1 0.35082-0.35082-0.91471 0.41493-0.20057 0.83950  0  50.77 338.93   56.78  50.60 338.49   56.80
   0  -5  26  59.925  92.396   1 0.33762-0.33762-0.92480 0.42502-0.17538 0.83986  0  41.45 349.47   54.04  41.07 349.41   54.12
   0  -5  27 547.089 131.731   1 0.32394-0.32394-0.93403 0.43425-0.15049 0.84053  0  30.45 360.72   51.45  31.23 360.91   51.47
   0  -6   0  3573.6   148.7   1 0.39962-0.39962-0.29990-0.29990-0.86624 0.86624  0 175.64 133.91  141.03 175.66 133.93  141.01
   0  -6  -1  52.198  39.165   1 0.38409-0.38409-0.26272-0.33707-0.88513 0.85957  0 178.27 127.43  144.94 178.83 127.59  144.96
   0  -6   1  46.694  41.298   1 0.41347-0.41347-0.33649-0.26330-0.84606 0.87161  0 171.96 139.94  137.09 172.15 140.28  137.10
   0  -6  -2  1147.0    91.5   1 0.36691-0.36691-0.22515-0.37464-0.90260 0.85148  0 181.80 121.20  148.94 181.63 121.23  148.94
   0  -6   2  1171.0    94.2   1 0.42579-0.42579-0.37235-0.22744-0.82466 0.87577  0 168.29 146.73  133.40 168.32 146.62  133.23
   0  -6  -3  3046.2   133.1   1 0.34829-0.34829-0.18731-0.41237-0.91848 0.84181  0 184.03 114.66  153.05 184.06 114.91  152.93
   0  -6   3  3257.5   147.9   1 0.43637-0.43637-0.40735-0.19244-0.80228 0.87895  0 164.21 153.00  129.46 164.18 152.99  129.42
   0  -6  -4  8321.8   210.8   1 0.32821-0.32821-0.14955-0.45012-0.93269 0.83047  0 186.08 108.38  157.01 186.07 108.52  156.94
   0  -6   4  9332.3   239.7   1 0.44541-0.44541-0.44138-0.15841-0.77897 0.88120  0 159.72 159.37  125.68 159.75 159.37  125.68
   0  -6  -5  7709.7   204.5   1 0.30693-0.30693-0.11206-0.48761-0.94511 0.81733  0 187.62 102.14  160.95 187.67 102.12  160.92
   0  -6   5  9088.2   246.6   1 0.45287-0.45287-0.47435-0.12544-0.75492 0.88271  0 155.12 165.73  122.05 155.04 165.80  122.00
   0  -6  -6  5128.9   168.0   1 0.28442-0.28442-0.07505-0.52462-0.95576 0.80242  0 188.86  95.68  164.95 188.83  95.66  164.88
   0  -6   6  5853.9   199.2   1 0.45872-0.45872-0.50621-0.09358-0.73029 0.88364  0 150.11 172.19  118.45 150.06 172.29  118.38
   0  -6  -7  2655.9   124.3   1 0.26098-0.26098-0.03877-0.56090-0.96456 0.78567  0 189.38  88.86  168.92 189.52  89.17  168.79
   0  -6   7  3307.8   158.7   1 0.46326-0.46326-0.53689-0.06290-0.70508 0.88399  0 144.61 178.83  114.67 144.83 178.81  114.83
   0  -6  -8 15417.1   287.2   1 0.23679-0.23679-0.00345-0.59622-0.97155 0.76710  0 189.73  82.51  172.72 189.74  82.60  172.65
   0  -6   8 18434.2   352.9   1 0.46645-0.46645-0.56636-0.03343-0.67945 0.88392  0 139.46 185.32  111.39 139.36 185.40  111.36
   0  -6  -9  8356.3   224.0   1 0.21200-0.21200 0.03071-0.63038-0.97679 0.74678  0 189.56  75.98  176.47 189.46  75.98  176.43
   0  -6 -10 12359.5   255.5   1 0.18697-0.18697 0.06349-0.66316-0.98031 0.72475  0 188.69  69.25  180.13 188.68  69.29  180.10
   0  -6  10 15993.3   344.5   1 0.46880-0.46880-0.62171 0.02192-0.62745 0.88303  0 127.80 198.83  104.63 127.69 198.84  104.61
   0  -6 -11  2126.0   116.6   1 0.16179-0.16179 0.09475-0.69442-0.98227 0.70114  0 187.23  62.62  183.64 187.38  62.50  183.67
   0  -6  11  2955.7   161.0   1 0.46821-0.46821-0.64757 0.04778-0.60119 0.88232  0 122.06 205.46  101.57 121.51 205.71  101.34
   0  -6 -12  6120.6   182.4   1 0.13681-0.13681 0.12434-0.72401-0.98276 0.67609  0 185.55  55.50  187.13 185.55  55.65  187.11
   0  -6  12  8443.8   263.4   1 0.46691-0.46691-0.67214 0.07240-0.57465 0.88134  0 115.24 212.72   98.19 115.12 212.80   98.11
   0  -6 -13  2643.3   131.3   1 0.11224-0.11224 0.15216-0.75184-0.98196 0.64973  0 183.24  48.53  190.38 183.19  48.69  190.40
   0  -6  13  3762.6   190.2   1 0.46419-0.46419-0.69564 0.09590-0.54829 0.88053  0 108.02 219.97   94.71 108.49 219.93   94.97
   0  -6 -14 10430.3   249.6   1 0.08829-0.08829 0.17816-0.77783-0.98003 0.62224  0 180.35  41.50  193.55 180.29  41.60  193.54
   0  -6  14 13606.9   344.7   1 0.46049-0.46049-0.71799 0.11825-0.52195 0.87975  0 101.65 227.03   91.87 101.65 227.21   91.89
   0  -6 -15  7449.8   214.5   1 0.06502-0.06502 0.20230-0.80197-0.97716 0.59382  0 176.80  34.27  196.56 176.84  34.39  196.53
   0  -6  15 10348.4   302.9   1 0.45597-0.45597-0.73921 0.13947-0.49564 0.87900  0  94.26 234.69   88.73  94.55 234.67   88.86
   0  -6 -16 15709.5   319.1   1 0.04279-0.04279 0.22457-0.82425-0.97352 0.56461  0 172.93  26.97  199.36 172.84  27.05  199.34
   0  -6  16 20633.2   435.9   1 0.45058-0.45058-0.75935 0.15961-0.46944 0.87835  0  87.30 242.17   85.91  87.24 242.32   85.89
   0  -6 -17  1157.3    95.7   1 0.02178-0.02178 0.24530-0.84484-0.96920 0.53458  0 168.16  19.82  201.94 168.29  19.52  202.00
   0  -6  17  1739.1   150.0   1 0.44441-0.44441-0.77842 0.17868-0.44335 0.87782  0  79.78 250.15   82.95  79.69 250.18   82.97
   0  -6 -18  18.879  37.248   1 0.00160-0.00160 0.26396-0.86350-0.96453 0.50434  2 163.47  12.26  204.55 163.17  11.85  204.47
   0  -6  18  69.305  65.631   1 0.43736-0.43736-0.79652 0.19678-0.41747 0.87749  0  72.23 258.64   80.42  71.93 258.27   80.10
   0  -6  19  3449.1   203.8   1 0.42968-0.42968-0.81360 0.21386-0.39171 0.87729  0  63.88 266.42   77.33  63.88 266.62   77.28
   0  -6  20 907.780 131.210   1 0.42135-0.42135-0.82971 0.22998-0.36611 0.87725  0  56.03 275.30   74.53  55.56 275.26   74.49
   0  -6  21  1265.3   147.7   1 0.41235-0.41235-0.84491 0.24517-0.34071 0.87741  0  47.06 284.38   71.62  46.96 284.24   71.74
   0  -6  22 121.121  87.997   1 0.40276-0.40276-0.85921 0.25947-0.31550 0.87776  0  38.52 293.81   69.16  38.07 293.57   69.03
   0  -6  23  1564.0   169.6   1 0.39259-0.39259-0.87264 0.27290-0.29048 0.87829  0  28.98 302.97   66.52  28.82 303.29   66.36
   0  -7   0  41.175  43.633   1 0.41821-0.41821-0.34988-0.34988-0.83826 0.83826  0 133.80 113.65  135.57 132.99 113.14  135.66
   0  -7  -1  1746.8   124.9   1 0.40702-0.40702-0.31909-0.38067-0.85587 0.83032  0 136.30 106.27  139.04 136.06 106.45  138.96
   0  -7   1  1821.6   126.8   1 0.42827-0.42827-0.38029-0.31947-0.81974 0.84530  0 129.60 120.12  132.35 129.58 119.82  132.37
   0  -7  -2  5613.9   206.6   1 0.39481-0.39481-0.28802-0.41174-0.87245 0.82133  0 138.76  99.66  142.32 138.79  99.74  142.27
   0  -7   2  5552.3   220.4   1 0.43718-0.43718-0.41021-0.28955-0.80038 0.85149  0 125.82 126.36  129.15 125.85 126.49  129.11
   0  -7  -3  3809.9   165.3   1 0.38147-0.38147-0.25678-0.44298-0.88800 0.81133  0 141.14  92.81  145.58 141.16  92.99  145.59
   0  -7   3  4247.2   193.9   1 0.44496-0.44496-0.43957-0.26019-0.78025 0.85692  0 121.72 133.25  125.86 121.82 133.17  125.88
   0  -7  -4  5075.5   196.1   1 0.36708-0.36708-0.22550-0.47425-0.90244 0.80021  0 143.08  86.29  148.89 143.14  86.17  148.91
   0  -7   4  5431.9   210.3   1 0.45159-0.45159-0.46830-0.23146-0.75945 0.86168  0 117.54 139.93  122.70 117.48 139.86  122.68
   0  -7  -5  1120.5   103.0   1 0.35182-0.35182-0.19423-0.50539-0.91569 0.78791  0 144.80  79.36  152.12 144.77  79.40  152.20
   0  -7   5  1278.6   118.8   1 0.45714-0.45714-0.49632-0.20343-0.73803 0.86582  0 113.22 146.32  119.74 112.86 146.59  119.50
   0  -7  -6 658.950  95.332   1 0.33568-0.33568-0.16328-0.53634-0.92772 0.77438  0 145.85  72.21  155.26 145.96  72.48  155.48
   0  -7   6 780.475 111.133   1 0.46145-0.46145-0.52362-0.17614-0.71616 0.86950  0 107.96 153.68  116.32 107.96 153.36  116.38
   0  -7  -7 535.500  89.222   1 0.31880-0.31880-0.13271-0.56691-0.93849 0.75959  0 146.53  65.54  158.85 146.73  65.50  158.72
   0  -7   7 721.015 108.284   1 0.46486-0.46486-0.55011-0.14964-0.69374 0.87264  0 102.80 160.12  113.36 102.78 160.16  113.28
   0  -7  -8  1121.4   100.7   1 0.30134-0.30134-0.10265-0.59697-0.94798 0.74352  0 147.18  58.55  162.03 147.07  58.46  161.92
   0  -7   8  1332.1   126.6   1 0.46720-0.46720-0.57580-0.12396-0.67096 0.87542  0  97.56 167.16  110.31  97.32 167.02  110.23
   0  -7  -9 175.298  56.729   1 0.28328-0.28328-0.07324-0.62637-0.95624 0.72623  0 146.84  50.70  165.12 146.95  51.29  165.07
   0  -7   9 258.267  75.693   1 0.46842-0.46842-0.60066-0.09910-0.64791 0.87793  0  92.06 174.25  107.31  91.60 173.97  107.22
   0  -7 -10  2786.5   147.4   1 0.26480-0.26480-0.04461-0.65501-0.96327 0.70771  0 146.35  44.07  168.23 146.36  44.01  168.16
   0  -7  10  3503.9   190.2   1 0.46880-0.46880-0.62465-0.07510-0.62453 0.88011  0  85.69 180.98  104.27  85.62 181.01  104.24
   0  -7 -11  1524.6   111.2   1 0.24619-0.24619-0.01689-0.68272-0.96907 0.68795  0 145.35  36.84  171.19 145.28  36.61  171.18
   0  -7  11  1982.6   152.0   1 0.46820-0.46820-0.64780-0.05196-0.60096 0.88209  0  79.48 188.04  101.42  79.37 188.16  101.31
   0  -7 -12  1318.6   107.7   1 0.22732-0.22732 0.00983-0.70945-0.97377 0.66709  0 143.79  28.83  174.04 143.73  29.08  174.11
   0  -7  12  1721.9   148.9   1 0.46710-0.46710-0.66997-0.02972-0.57702 0.88370  0  72.88 195.76   98.47  72.89 195.54   98.40
   0  -7 -13 400.788  73.754   1 0.20845-0.20845 0.03545-0.73507-0.97739 0.64516  0 142.08  21.36  176.99 141.65  21.40  176.96
   0  -7  13 604.919 109.384   1 0.46476-0.46476-0.69139-0.00831-0.55315 0.88540  0  66.33 202.45   95.56  66.12 202.93   95.55
   0  -7 -14 329.589  70.348   1 0.18980-0.18980 0.05988-0.75950-0.98000 0.62221  0 139.62  13.41  179.70 139.05  13.54  179.70
   0  -7  14 517.329 108.999   1 0.46159-0.46159-0.71195 0.01225-0.52921 0.88701  0  59.10 210.42   92.62  59.08 210.49   92.73
   0  -7  15  79.660  63.512   1 0.45770-0.45770-0.73165 0.03195-0.50517 0.88853  0  51.44 218.14   89.92  51.72 218.23   89.95
   0  -7  16  1207.0   141.1   1 0.45309-0.45309-0.75050 0.05080-0.48110 0.89001  0  44.24 225.96   87.34  44.10 226.17   87.21
   0  -7  17  74.218  63.707   1 0.44774-0.44774-0.76853 0.06884-0.45704 0.89151  0  35.61 234.08   84.47  36.19 234.32   84.50
   0  -7  18  1121.5   162.4   1 0.44172-0.44172-0.78575 0.08606-0.43299 0.89302  0  28.25 242.54   81.68  27.97 242.72   81.82
   0  -7  19  18.725  65.938   1 0.43492-0.43492-0.80221 0.10251-0.40903 0.89461  0  20.22 251.48   79.52  19.48 251.38   79.17
   0  -8   0  9174.8   309.0   1 0.43420-0.43420-0.39986-0.39986-0.80721 0.80721  0  84.56  90.21  130.25  84.54  90.24  130.24
   0  -8  -1 669.444 108.299   1 0.42630-0.42630-0.37395-0.42578-0.82367 0.79811  0  87.48  83.69  132.93  87.54  83.05  133.06
   0  -8   1 792.966 129.005   1 0.44136-0.44136-0.42552-0.37421-0.79002 0.81558  0  81.41  96.56  127.58  81.20  97.37  127.43
   0  -8  -2 725.810 115.788   1 0.41750-0.41750-0.34784-0.45188-0.83947 0.78835  0  90.31  75.80  135.88  90.21  75.84  135.88
   0  -8   2 672.500 117.466   1 0.44769-0.44769-0.45085-0.34887-0.77221 0.82332  0  77.49 104.86  124.59  77.52 104.48  124.63
   0  -8  -3 726.914 118.722   1 0.40798-0.40798-0.32162-0.47811-0.85447 0.77780  0  92.78  68.65  138.88  92.50  68.58  138.69
   0  -8   3 807.022 128.976   1 0.45317-0.45317-0.47581-0.32391-0.75382 0.83049  0  73.53 111.40  121.86  73.51 111.59  121.83
   0  -8  -4  1473.2   130.9   1 0.39779-0.39779-0.29536-0.50437-0.86864 0.76640  0  94.47  61.39  141.56  94.42  61.21  141.49
   0  -8   4  1570.3   147.2   1 0.45771-0.45771-0.50035-0.29938-0.73495 0.83718  0  69.19 118.50  119.09  69.19 118.70  119.05
   0  -8  -5 449.088  92.790   1 0.38688-0.38688-0.26914-0.53058-0.88198 0.75419  0  95.28  54.09  144.28  95.96  53.79  144.28
   0  -8   5 401.556  96.719   1 0.46157-0.46157-0.52440-0.27532-0.71551 0.84330  0  64.69 125.59  116.39  64.56 125.84  116.29
   0  -8  -6 925.240 111.085   1 0.37526-0.37526-0.24305-0.55668-0.89449 0.74114  0  97.36  46.76  147.08  97.09  46.25  147.05
   0  -8   6  1039.9   127.1   1 0.46462-0.46462-0.54795-0.25178-0.69561 0.84896  0  60.09 132.95  113.58  59.62 132.99  113.54
   0  -8  -7 -33.832  40.501   1 0.36312-0.36312-0.21706-0.58250-0.90610 0.72721  0  98.21  38.26  149.97  97.86  38.68  149.79
   0  -8   7 115.787  66.897   1 0.46683-0.46683-0.57095-0.22877-0.67534 0.85425  0  53.77 140.35  110.56  54.36 140.18  110.81
   0  -8  -8  1625.8   142.5   1 0.35043-0.35043-0.19149-0.60807-0.91680 0.71235  0  98.02  30.91  152.50  98.16  30.93  152.49
   0  -8   8  1730.0   164.8   1 0.46813-0.46813-0.59340-0.20632-0.65478 0.85924  0  49.06 147.08  108.10  48.80 147.43  108.10
   0  -8  -9  -2.862  40.568   1 0.33731-0.33731-0.16632-0.63325-0.92659 0.69658  0  97.72  22.98  155.02  98.00  23.02  155.16
   0  -8   9 139.669  78.242   1 0.46876-0.46876-0.61524-0.18448-0.63382 0.86384  0  43.11 154.89  105.58  42.95 154.76  105.42
   0  -8 -10 177.949  64.280   1 0.32383-0.32383-0.14162-0.65794-0.93546 0.67989  0  98.00  15.53  158.04  97.39  14.96  157.78
   0  -8  10 424.814 101.419   1 0.46861-0.46861-0.63648-0.16324-0.61261 0.86819  0  35.96 161.95  102.69  36.78 162.18  102.75
   0  -8 -11  54.838  65.221   1 0.31003-0.31003-0.11749-0.68207-0.94344 0.66232  2  97.54  10.78  161.00  96.31   6.72  160.34
   0  -8  11  87.810  71.915   1 0.46771-0.46771-0.65710-0.14263-0.59116 0.87230  0  30.61 169.31  100.33  30.29 169.69  100.11
   1   0   0  25.963  14.850   1 0.09296 0.09296-0.98214 0.98214 0.16360-0.16360  0 432.70 316.27   16.62 432.20 316.67   16.36
   1   0   0  25.443  15.828   1 0.09294 0.09294 0.17321-0.17321-0.98049 0.98049  0 327.41 306.20  193.09 326.68 306.74  192.94
  -1   0  -1 36524.2   206.8   1 0.03908-0.22497 0.22857-0.22857-0.97274 0.94718  0 440.01 204.35  199.89 440.08 204.28  199.83
   1   0  -1 44629.0   317.6   1 0.11404 0.07188-0.98348 0.98348 0.14059-0.16614  0 440.08 311.13   19.01 440.20 311.14   19.13
   1   0   1 43330.2   312.4   1 0.06873 0.11719-0.97956 0.97956 0.18904-0.16349  0 424.64 322.38   13.08 424.77 322.33   13.23
   1   0   1 36226.4   192.8   1 0.22854-0.04267 0.00812-0.00812-0.97350 0.99906  0 332.31 313.27  173.95 332.39 313.18  173.92
  -1   0  -2 228400.   1098.   1 0.17002-0.35589 0.08469-0.08469-0.98180 0.93068  0 436.17 197.99  182.64 436.23 198.01  182.52
   1   0  -2 282516.   1562.   1 0.13280 0.05311-0.98393 0.98393 0.11938-0.17049  0 448.44 305.68   21.73 448.59 305.69   21.64
   1   0   2 283019.   3583.   1 0.04011 0.14581-0.97517 0.97517 0.21778-0.16667  0 417.79 328.18    9.61 417.96 328.17    9.62
   1   0   2 230731.   1046.   1 0.35178-0.16591-0.19415 0.19415-0.91573 0.96684  0 337.65 319.91  152.29 337.69 319.80  152.21
  -1   0  -3  5731.1    79.1   1 0.28533-0.47120-0.07649 0.07649-0.95537 0.87870  0 433.90 191.80  164.85 433.96 191.77  164.72
  -1   0   3  6806.3   112.6   1-0.00239-0.18352-0.96616 0.96616 0.25795-0.18128  0 308.47 225.97    4.27 308.48 226.10    4.37
   1   0  -3  6698.4   106.6   1 0.14981 0.03611-0.98369 0.98369 0.09952-0.17619  0 457.07 300.35   23.89 457.41 300.34   23.96
   1   0   3  6885.3    74.1   1 0.00530 0.18062-0.96800 0.96800 0.25090-0.17423  0 411.88 334.14    5.22 411.93 334.19    5.31
   1   0   3  5739.0    68.4   1 0.43803-0.25213-0.41326 0.41326-0.79834 0.87501  0 342.28 326.67  128.84 342.37 326.58  128.78
  -1   0  -4 12558.5   114.1   1 0.37241-0.55831-0.23686 0.23686-0.89734 0.79510  0 433.54 185.63  147.83 433.61 185.63  147.70
  -1   0   4 14648.2   170.1   1 0.01298-0.19889-0.96975 0.96975 0.24377-0.14154  0 301.61 231.89    6.17 301.65 231.95    6.25
   1   0  -4 14293.0   161.5   1 0.16543 0.02049-0.98292 0.98292 0.08069-0.18291  0 466.38 295.07   26.06 466.62 295.06   26.13
   1   0   4 13365.9    95.6   1 0.46878-0.28288-0.61679 0.61679-0.63231 0.73454  0 346.11 333.60  105.07 346.16 333.50  105.23
  -1   0  -5   6.106  12.595   1 0.42759-0.61349-0.37799 0.37799-0.82115 0.69336  0 435.30 179.69  132.57 435.17 179.49  132.62
  -1   0   5  -5.018  18.865   1 0.02371-0.20963-0.97203 0.97203 0.23364-0.10585  0 293.76 238.02    7.56 294.64 237.85    7.57
   1   0  -5  -1.687  14.703   1 0.17995 0.00596-0.98168 0.98168 0.06268-0.19046  0 476.62 289.91   28.78 476.22 289.82   28.18
   1   0   5   2.492  10.635   1 0.44596-0.26006-0.77391 0.77391-0.44965 0.57744  0 348.60 340.67   83.81 348.73 340.49   83.67
  -1   0  -6 11352.8   113.4   1 0.45613-0.64203-0.49082 0.49082-0.74232 0.58897  0 438.67 173.33  120.11 438.68 173.34  120.13
  -1   0   6 12081.2   167.2   1 0.03086-0.21678-0.97345 0.97345 0.22679-0.07345  0 287.46 243.76    8.47 287.53 243.80    8.46
   1   0  -6 11434.6   158.2   1 0.19359-0.00768-0.98003 0.98003 0.04534-0.19868  0 486.11 284.70   30.12 486.23 284.62   30.15
   1   0   6 12682.0    86.1   1 0.38921-0.20331-0.87676 0.87676-0.28249 0.43583  0 349.59 347.62   65.50 349.77 347.56   65.51
  -1   0  -7  8075.3   100.6   1 0.46716-0.65306-0.57524 0.57524-0.67146 0.49256  0 443.94 167.13  110.25 443.93 167.17  110.30
  -1   0   7  8104.1   143.8   1 0.03517-0.22108-0.97428 0.97428 0.22260-0.04370  0 280.31 249.76    8.98 280.33 249.82    9.00
   1   0  -7  7747.4   136.0   1 0.20646-0.02055-0.97804 0.97804 0.02851-0.20741  0 496.55 279.57   32.05 496.68 279.47   32.03
   1   0   7  8473.9    71.3   1 0.32405-0.13815-0.93396 0.93396-0.15069 0.32959  0 348.80 354.67   51.55 349.00 354.62   51.49
  -1   0  -8 491.550  31.739   1 0.46862-0.65452-0.63628 0.63628-0.61282 0.40836  0 450.74 160.96  102.86 450.58 160.92  102.78
  -1   0   8 451.517  46.932   1 0.03722-0.22314-0.97465 0.97465 0.22060-0.01615  0 272.98 255.61    9.36 273.08 255.93    9.25
   1   0   8 511.787  22.105   1 0.26503-0.07912-0.96271 0.96271-0.05424 0.25870  0 346.44 361.73   41.46 346.69 361.71   41.13
  -1   0  -9  1385.6    49.4   1 0.46622-0.65212-0.67913 0.67913-0.56694 0.33692  0 458.47 154.50   97.10 458.42 154.50   97.19
  -1   0   9  1411.0    71.7   1 0.03743-0.22335-0.97469 0.97469 0.22040 0.00961  0 265.66 261.99    9.31 265.78 262.13    9.28
   1   0   9  1401.1    33.9   1 0.21636-0.03044-0.97620 0.97620 0.01526 0.21475  0 342.99 368.87   33.53 343.12 368.84   33.51
  -1   0 -10  4343.9    87.6   1 0.46191-0.64781-0.71012 0.71012-0.53138 0.27581  0 467.48 147.99   92.94 467.33 147.99   92.99
  -1   0  10  4048.6   115.9   1 0.03612-0.22203-0.97445 0.97445 0.22168 0.03389  0 258.43 268.35    9.15 258.47 268.44    9.12
   1   0  10  4233.8    59.6   1 0.17649 0.00943-0.98202 0.98202 0.06702 0.18855  0 338.70 376.22   27.72 338.78 376.10   27.69
  -1   0 -11 14969.6   168.0   1 0.45760-0.64350-0.73209 0.73209-0.50462 0.22349  0 477.30 141.35   89.84 477.11 141.34   89.89
  -1   0  11 13819.1   213.9   1 0.03352-0.21943-0.97397 0.97397 0.22420 0.05692  0 251.12 274.88    8.78 251.13 274.87    8.79
   1   0  11 14371.3   113.8   1 0.14314 0.04277-0.98386 0.98386 0.10737 0.17375  0 333.92 383.64   23.05 333.98 383.54   23.04
  -1   0 -12  1865.6    65.7   1 0.45383-0.63973-0.74768 0.74768-0.48478 0.17809  0 487.87 134.54   87.59 487.70 134.50   87.62
  -1   0  12  1747.4    86.2   1 0.02983-0.21575-0.97326 0.97326 0.22778 0.07890  0 243.85 281.43    8.36 243.77 281.44    8.33
   1   0  12  1713.1    44.6   1 0.11409 0.07182-0.98348 0.98348 0.14053 0.16615  0 328.88 391.32   19.18 328.94 391.19   19.13
  -1   0 -13  4903.9   107.5   1 0.45078-0.63668-0.75866 0.75866-0.47035 0.13811  0 499.25 127.48   85.93 499.03 127.46   86.00
  -1   0  13  4536.8   133.3   1 0.02519-0.21110-0.97233 0.97233 0.23223 0.10001  0 236.39 288.17    7.75 236.40 288.16    7.76
   1   0  13  4401.2    71.8   1 0.08799 0.09793-0.98170 0.98170 0.16890 0.16334  0 323.78 399.24   15.66 323.77 399.07   15.71
  -1   0  14 11432.5   211.9   1 0.01971-0.20562-0.97120 0.97120 0.23744 0.12036  0 228.97 294.96    7.10 229.01 295.05    7.08
   1   0  14 11627.7   120.6   1 0.06387 0.12204-0.97892 0.97892 0.19401 0.16378  0 318.66 407.48   12.57 318.61 407.28   12.61
  -1   0  15  12.804  26.270   1 0.01348-0.19940-0.96986 0.96986 0.24330 0.14006  0 222.68 301.78    6.19 221.60 302.13    6.31
   1   0  15   5.995  13.812   1 0.04107 0.14484-0.97534 0.97534 0.21684 0.16651  0 313.67 415.24   10.05 313.51 415.82    9.74
  -1   0  16 969.191  75.888   1 0.00658-0.19250-0.96830 0.96830 0.24971 0.15920  0 214.19 309.45    5.50 214.16 309.41    5.46
   1   0  16 851.399  40.160   1 0.01905 0.16686-0.97106 0.97106 0.23806 0.17085  0 308.51 424.88    6.93 308.51 424.74    7.00
  -1   0  17  5358.6   159.9   1-0.00093-0.18499-0.96651 0.96651 0.25661 0.17785  0 206.65 316.91    4.56 206.70 316.93    4.54
  -1   0  18 643.610  71.100   1-0.00900-0.17691-0.96450 0.96450 0.26394 0.19608  0 199.22 324.54    3.47 199.21 324.70    3.56
  -1   0  19 384.756  63.448   1-0.01761-0.16831-0.96224 0.96224 0.27164 0.21394  0 192.11 333.02    2.53 191.68 332.74    2.52
  -1  -1   0 76465.3   386.1   1 0.36525-0.55115-0.90214 0.80218-0.22967 0.22967  0 338.99 186.38   59.97 338.88 186.48   59.89
  -1   1   0 58197.7   326.1   1 0.01532-0.20121 0.25137-0.15145-0.96777 0.96777  0 472.44 237.23  202.77 472.47 237.18  202.80
   1  -1   0 59727.6   443.4   1 0.16720 0.01867 0.08815-0.18809-0.98197 0.98197  0 301.79 283.23  182.89 301.84 283.15  182.91
   1   1   0 66791.0   213.6   1 0.46820-0.28230-0.64785 0.74781-0.60091 0.60091  0 407.67 339.72  101.44 407.78 339.65  101.31
  -1  -1  -1 243314.   1033.   1 0.38881-0.57471-0.87725 0.77730-0.28151 0.25596  0 349.17 180.41   65.59 349.03 180.51   65.40
  -1  -1   1 236054.   1271.   1 0.34601-0.53191-0.91853 0.81857-0.19128 0.21684  0 329.38 192.33   55.92 329.31 192.43   55.81
  -1   1  -1 177161.   1161.   1 0.10150-0.28737 0.16393-0.06399-0.98124 0.95568  0 471.22 230.59  191.81 471.25 230.67  191.82
   1  -1  -1 179944.   1148.   1 0.08470 0.10117 0.18195-0.28190-0.97965 0.95410  0 299.48 277.33  193.98 299.55 277.29  194.01
   1  -1   1 192828.   1285.   1 0.24593-0.06006-0.01652-0.08342-0.96915 0.99470  0 303.34 289.18  171.31 303.42 289.08  171.22
   1   1  -1 220799.    996.   1 0.45466-0.26876-0.74448 0.84443-0.48891 0.46336  0 423.19 335.21   88.31 423.45 335.14   88.09
  -1  -1  -2 20532.7   109.2   1 0.42014-0.60604-0.83189 0.73193-0.36255 0.31144  0 360.47 174.38   74.41 360.27 174.49   74.11
  -1  -1   2 20184.4   177.0   1 0.32940-0.51530-0.93049 0.83053-0.16026 0.21138  0 320.17 198.23   52.53 320.10 198.35   52.51
  -1   1  -2 15815.3   169.5   1 0.18106-0.36693 0.07095 0.02899-0.98091 0.92980  0 471.07 224.24  180.94 471.11 224.25  180.95
   1  -1  -2 15903.3   177.7   1 0.00276 0.18313 0.26290-0.36282-0.96482 0.91369  0 296.53 271.54  204.30 296.60 271.48  204.33
   1  -1   2 16755.2   171.8   1 0.31630-0.13043-0.12833 0.02839-0.93994 0.99105  0 304.20 295.22  159.19 304.26 295.10  159.19
   1   1  -2 19899.3   161.5   1 0.43827-0.25237-0.79431 0.89427-0.42070 0.36959  0 436.52 330.58   80.58 436.82 330.46   80.46
  -1  -1   3 114829.    803.   1 0.31446-0.50036-0.93978 0.83983-0.13387 0.21054  0 311.19 204.21   49.73 311.16 204.27   49.70
  -1   1  -3 88569.6   398.4   1 0.25081-0.43668-0.02371 0.12365-0.96775 0.89108  0 472.10 217.91  170.48 472.10 217.89  170.43
   1  -1   3 96748.9   655.7   1 0.37472-0.18882-0.24188 0.14191-0.89503 0.97170  0 304.28 301.34  147.15 304.34 301.23  147.17
   1   1  -3 111265.    591.   1 0.42427-0.23837-0.82432 0.92428-0.37482 0.29815  0 449.08 325.77   75.52 449.25 325.71   75.44
  -1  -1   4 187855.   1159.   1 0.30059-0.48650-0.94733 0.84738-0.11051 0.21274  0 302.48 210.08   47.32 302.40 210.22   47.19
  -1   1  -4 152283.   1011.   1 0.30906-0.49493-0.11567 0.21561-0.94398 0.84176  0 474.27 211.62  160.60 474.29 211.64  160.53
   1  -1   4 157492.   1093.   1 0.41894-0.23304-0.35200 0.25204-0.83701 0.93924  0 303.61 307.56  135.49 303.68 307.42  135.43
   1   1  -4 168205.    953.   1 0.41310-0.22720-0.84372 0.94368-0.34276 0.24053  0 461.09 321.03   72.03 461.29 320.93   71.96
  -1  -1   5 56308.1   349.9   1 0.28755-0.47347-0.95360 0.85365-0.08927 0.21705  0 293.91 216.03   44.93 293.83 216.18   44.91
  -1   1  -5 48009.6   300.6   1 0.35544-0.54131-0.20143 0.30137-0.91274 0.78495  0 477.63 205.43  151.48 477.61 205.43  151.44
   1  -1   5 49962.6   295.9   1 0.44851-0.26261-0.45435 0.35439-0.76968 0.89747  0 302.27 313.84  124.20 302.32 313.71  124.24
   1   1  -5 52529.2   321.9   1 0.40449-0.21859-0.85675 0.95671-0.31993 0.19215  0 472.95 316.31   69.57 473.20 316.17   69.51
  -1  -1   6 11781.4   169.0   1 0.27505-0.46097-0.95891 0.85896-0.06958 0.22292  0 285.48 222.05   42.78 285.39 222.18   42.79
  -1   1  -6 10916.6   147.6   1 0.39085-0.57675-0.27850 0.37847-0.87731 0.72396  0 482.07 199.28  143.29 482.11 199.27  143.29
   1  -1   6 11693.4   146.4   1 0.46443-0.27852-0.54618 0.44622-0.69713 0.85048  0 300.23 320.23  113.75 300.29 320.12  113.74
   1   1  -6 10976.7   155.3   1 0.39803-0.21213-0.86565 0.96561-0.30367 0.15032  0 484.90 311.56   67.79 485.15 311.42   67.77
  -1  -1   7 10154.4   164.6   1 0.26292-0.44884-0.96346 0.86352-0.05106 0.22996  0 277.10 228.13   40.78 277.07 228.23   40.79
  -1   1  -7  9334.3   139.9   1 0.41687-0.60277-0.34606 0.44603-0.84051 0.66160  0 487.61 193.03  136.05 487.62 193.06  136.07
   1  -1   7  9830.6   136.6   1 0.46879-0.28289-0.62616 0.52619-0.62303 0.80193  0 297.63 326.73  104.03 297.69 326.65  104.06
   1   1  -7  9980.1   155.5   1 0.39334-0.20744-0.87170 0.97166-0.29227 0.11337  0 496.99 306.81   66.57 497.22 306.70   66.55
  -1  -1   8  3322.5   101.6   1 0.25106-0.43698-0.96739 0.86745-0.03343 0.23788  0 268.89 234.15   38.86 268.84 234.34   38.87
  -1   1  -8  3088.7    84.8   1 0.43539-0.62129-0.40394 0.50390-0.80453 0.60007  0 494.08 186.73  129.81 494.11 186.82  129.80
   1  -1   8  3477.8    86.2   1 0.46444-0.27854-0.69386 0.59390-0.55032 0.75478  0 294.49 333.39   95.18 294.58 333.32   95.21
  -1  -1   9  3644.9   109.0   1 0.23931-0.42523-0.97080 0.87085-0.01655 0.24656  0 260.69 240.38   37.15 260.68 240.53   37.02
  -1   1  -9  3672.4    94.3   1 0.44814-0.63405-0.45278 0.55274-0.77082 0.54080  0 501.52 180.55  124.42 501.59 180.53  124.41
   1  -1   9  4206.7    96.0   1 0.45298-0.26708-0.75090 0.65095-0.48057 0.71059  0 290.96 340.16   87.11 291.06 340.13   87.15
  -1  -1 -10  9833.4    89.2   1 0.22686-0.41277-0.97393 0.87398 0.00090-0.25647  0 426.26 123.97   35.15 426.18 124.08   35.10
  -1  -1  10  8857.1   171.0   1 0.22768-0.41359-0.97374 0.87379-0.00023 0.25580  0 252.59 246.75   35.25 252.58 246.80   35.22
   1  -1  10  9861.0   146.3   1 0.43661-0.25071-0.79828 0.69833-0.41486 0.67043  0 287.06 347.10   79.77 287.17 347.12   79.82
  -1  -1 -11 35258.8   193.6   1 0.26303-0.44895-0.96343 0.86348-0.05123-0.22989  0 439.13 116.94   40.86 439.00 117.03   40.80
  -1  -1  11 32128.8   330.5   1 0.21609-0.40200-0.97625 0.87630 0.01563 0.26550  0 244.58 253.12   33.49 244.54 253.17   33.47
   1  -1  11 35624.7   279.6   1 0.41702-0.23112-0.83727 0.73732-0.35365 0.63478  0 282.86 354.28   73.13 282.98 354.27   73.14
  -1  -1 -12  4212.8    77.5   1 0.28785-0.47377-0.95346 0.85351-0.08975-0.21693  0 451.84 109.75   44.98 451.73 109.80   44.96
  -1  -1  12  3739.9   121.8   1 0.20450-0.39042-0.97837 0.87842 0.03110 0.27558  0 236.42 259.53   31.73 236.53 259.66   31.74
   1  -1  12  4055.3   100.9   1 0.39528-0.20938-0.86924 0.76929-0.29693 0.60362  0 278.45 361.68   67.04 278.56 361.65   67.05
  -1  -1 -13 40412.0   255.8   1 0.30675-0.49267-0.94409 0.84414-0.12081-0.21142  0 464.81 102.26   48.33 464.63 102.33   48.30
  -1  -1  13 35453.9   367.8   1 0.19288-0.37880-0.98013 0.88018 0.04625 0.28599  0 228.58 266.23   30.15 228.55 266.29   30.04
   1  -1  13 39523.5   308.0   1 0.37227-0.18637-0.89534 0.79538-0.24450 0.57674  0 273.79 369.26   61.47 273.93 369.25   61.46
  -1  -1 -14  4312.1    91.2   1 0.32212-0.50802-0.93518 0.83522-0.14726-0.21054  0 477.91  94.60   51.13 477.91  94.64   51.13
   1  -1  14  4821.1   114.7   1 0.34842-0.16252-0.91663 0.81667-0.19594 0.55374  0 269.01 377.03   56.37 269.16 377.09   56.31
  -1  -1 -15  8253.5   133.7   1 0.33509-0.52099-0.92660 0.82664-0.17068-0.21268  0 491.69  86.55   53.62 491.57  86.63   53.62
  -1  -1  15  7600.1   184.9   1 0.16943-0.35535-0.98263 0.88268 0.07577 0.30759  0 212.65 280.01   26.69 212.63 280.00   26.69
   1  -1  15  8148.9   149.8   1 0.32421-0.13831-0.93387 0.83391-0.15093 0.53429  0 264.14 385.23   51.53 264.28 385.23   51.52
  -1  -1  16 11048.7   225.5   1 0.15757-0.34349-0.98338 0.88343 0.09021 0.31870  0 204.71 287.06   25.07 204.67 287.13   25.03
   1  -1  16 12750.1   191.0   1 0.29966-0.11375-0.94780 0.84785-0.10898 0.51788  0 259.24 393.74   47.06 259.37 393.73   47.03
  -1  -1  17 344.764  60.820   1 0.14560-0.33151-0.98381 0.88386 0.10449 0.32998  0 197.07 294.07   23.55 196.69 294.46   23.38
   1  -1  17 357.817  49.226   1 0.27522-0.08930-0.95884 0.85889-0.06984 0.50431  0 254.61 402.38   43.17 254.36 402.53   42.82
  -1  -1  18 442.584  69.536   1 0.13347-0.31939-0.98393 0.88398 0.11861 0.34142  0 188.98 302.38   21.61 188.68 302.01   21.73
   1  -1  18 512.493  54.397   1 0.25087-0.06495-0.96745 0.86751-0.03314 0.49317  0 249.36 412.00   38.89 249.34 411.69   38.84
  -1  -1  19  2187.0   119.5   1 0.12119-0.30711-0.98373 0.88379 0.13259 0.35299  0 180.59 309.80   20.16 180.65 309.81   20.08
   1  -1  19  2345.9    94.0   1 0.22643-0.04052-0.97403 0.87408 0.00149 0.48409  0 244.20 421.41   35.07 244.32 421.29   35.03
  -1  -1  20  6510.8   198.1   1 0.10878-0.29469-0.98322 0.88327 0.14646 0.36468  0 172.55 317.98   18.45 172.56 317.89   18.42
   1  -1  20  6433.3   148.6   1 0.20211-0.01619-0.97876 0.87882 0.03425 0.47688  0 239.32 431.56   31.36 239.33 431.34   31.39
  -1  -1  21 18975.7   339.3   1 0.09615-0.28207-0.98239 0.88244 0.16021 0.37648  0 164.45 326.26   16.77 164.41 326.26   16.77
   1  -1  21 20399.9   265.5   1 0.17777 0.00815-0.98190 0.88195 0.06542 0.47128  0 234.28 441.93   27.90 234.39 441.91   27.87
  -1  -1  22  3720.9   164.8   1 0.08330-0.26921-0.98124 0.88129 0.17386 0.38839  0 156.07 334.96   15.15 156.18 334.97   15.10
   1  -1  22  3777.4   121.2   1 0.15347 0.03245-0.98356 0.88361 0.09516 0.46709  0 229.70 453.25   24.44 229.53 453.05   24.46
  -1  -1  23 11559.2   278.4   1 0.07028-0.25620-0.97976 0.87981 0.18744 0.40037  0 147.91 344.06   13.47 147.88 344.05   13.43
   1  -1  23 12015.8   213.1   1 0.12903 0.05689-0.98390 0.88395 0.12370 0.46411  0 224.71 464.87   21.15 224.78 464.83   21.13
  -1  -1  24  1104.2   107.0   1 0.05704-0.24295-0.97794 0.87800 0.20094 0.41243  0 139.75 353.57   11.65 139.49 353.53   11.75
   1  -1  24  1018.5    76.2   1 0.10450 0.08142-0.98297 0.88302 0.15115 0.46221  0 220.36 477.39   17.91 220.16 477.30   17.86
  -1  -1  25 10499.7   281.6   1 0.04359-0.22950-0.97578 0.87583 0.21437 0.42455  0 131.06 363.49   10.07 130.99 363.45   10.05
   1  -1  25 10558.9   205.6   1 0.07962 0.10629-0.98085 0.88091 0.17772 0.46120  0 215.76 490.69   14.61 215.72 490.57   14.63
  -1  -1  26  2399.6   149.1   1 0.02988-0.21580-0.97327 0.87332 0.22773 0.43675  0 122.37 373.85    8.38 122.36 373.87    8.34
  -1  -1  27  9317.1   275.2   1 0.01590-0.20181-0.97039 0.87044 0.24103 0.44900  0 113.66 384.83    6.61 113.61 384.84    6.61
  -1  -1  28  3815.9   186.0   1 0.00163-0.18755-0.96713 0.86718 0.25427 0.46132  0 104.87 396.31    4.88 104.69 396.43    4.86
  -1  -1  29  1437.5   129.3   1-0.01292-0.17299-0.96348 0.86353 0.26746 0.47369  0  95.74 408.37    3.16  95.61 408.68    3.09
  -1  -2   0  63.105  18.280   1 0.46880-0.65470-0.62230 0.42237-0.62687 0.62687  0 327.95 165.27  104.40 327.60 164.72  104.54
   1  -2   0  92.824  29.077   1 0.22073-0.03486 0.01889-0.21878-0.97515 0.97515  0 274.34 261.38  175.50 274.37 261.68  175.12
   1   2   0  51.088  12.206   1 0.28898-0.10310-0.08235 0.28224-0.95379 0.95379  0 403.98 367.54  164.15 404.38 367.60  164.10
  -1  -2  -1  9461.8   103.2   1 0.46182-0.64772-0.52616 0.32622-0.71406 0.68850  0 337.99 158.50  116.14 337.94 158.52  116.08
  -1  -2   1 10791.9   133.0   1 0.46481-0.65071-0.69102 0.49111-0.55357 0.57913  0 317.89 170.79   95.71 317.71 170.89   95.60
   1  -2  -1  9274.0   155.8   1 0.16493 0.02094 0.09093-0.29082-0.98211 0.95655  0 273.83 256.02  183.19 273.87 256.00  183.23
   1  -2   1  9434.0   156.4   1 0.27291-0.08704-0.05701-0.14288-0.96035 0.98591  0 274.21 267.53  166.84 274.29 267.44  166.82
   1   2  -1  9020.2    99.0   1 0.39637-0.21047-0.29180 0.49173-0.87049 0.84493  0 424.85 364.07  141.89 424.84 364.04  141.87
  -1  -2  -2  6350.4    74.4   1 0.42900-0.61490-0.38262 0.18269-0.81827 0.76715  0 349.14 152.21  132.10 349.20 152.24  132.12
  -1  -2   2  7420.5   119.5   1 0.45527-0.64117-0.74207 0.54216-0.49199 0.54310  0 308.50 176.82   88.61 308.29 176.98   88.45
   1  -2  -2  6400.8   130.7   1 0.10716 0.07871 0.15776-0.35765-0.98165 0.93053  0 272.76 250.40  190.83 272.78 250.38  191.07
   1  -2   2  6572.7   131.5   1 0.32011-0.13423-0.13502-0.06487-0.93771 0.98882  0 273.57 273.37  158.48 273.62 273.29  158.48
   1   2  -2  6359.1    95.3   1 0.43960-0.25370-0.41895 0.61888-0.79450 0.74339  0 440.95 359.89  128.15 440.96 359.87  128.15
  -1  -2  -3  9019.3    70.9   1 0.32657-0.51245-0.14660-0.05329-0.93373 0.85706  0 362.34 145.78  157.23 362.38 145.84  157.25
  -1  -2   3 11440.1   156.0   1 0.44326-0.62916-0.78160 0.58169-0.43888 0.51555  0 299.33 182.96   82.52 299.14 183.07   82.47
   1  -2  -3  9965.2   164.1   1 0.04907 0.13681 0.21838-0.41827-0.97463 0.89796  0 271.04 244.82  198.55 271.10 244.83  198.56
   1  -2   3 10332.1   164.5   1 0.36129-0.17542-0.21328 0.01339-0.90773 0.98440  0 272.36 279.30  150.16 272.41 279.20  150.19
   1   2  -3 10588.9   133.7   1 0.45861-0.27271-0.50559 0.70552-0.73079 0.65411  0 455.30 355.62  118.54 455.38 355.57  118.45
  -1  -2   4  6106.8   121.9   1 0.42994-0.61584-0.81306 0.61315-0.39254 0.49477  0 290.41 188.96   77.49 290.23 189.13   77.37
   1  -2  -4  4882.4   118.0   1-0.00782 0.19371 0.27251-0.47236-0.96212 0.85986  0 268.87 239.35  205.63 268.85 239.30  205.62
   1  -2   4  5568.1   123.1   1 0.39569-0.20979-0.29015 0.09022-0.87134 0.97357  0 270.63 285.33  142.04 270.66 285.23  142.05
   1   2  -4  5540.2   105.0   1 0.46659-0.28069-0.56800 0.76793-0.67800 0.57576  0 468.97 351.20  111.19 469.03 351.20  111.16
  -1  -2   5  6269.2   130.4   1 0.41616-0.60205-0.83872 0.63881-0.35123 0.47901  0 281.68 195.03   72.97 281.47 195.20   72.88
   1  -2   5  5953.9   128.6   1 0.42309-0.23719-0.36414 0.16421-0.82969 0.95748  0 268.36 291.46  134.11 268.43 291.34  134.12
   1   2  -5  5866.5   115.2   1 0.46875-0.28285-0.61432 0.81425-0.63473 0.50694  0 482.24 346.82  105.56 482.29 346.82  105.53
  -1  -2   6 348.058  48.635   1 0.40217-0.58807-0.86004 0.66012-0.31400 0.46735  0 272.76 201.23   68.72 272.84 201.30   68.87
   1  -2   6 340.326  44.724   1 0.44359-0.25769-0.43412 0.23419-0.78407 0.93742  0 265.79 297.75  126.56 265.75 297.56  126.48
   1   2  -6 274.972  38.202   1 0.46812-0.28222-0.64957 0.84951-0.59910 0.44575  0 495.62 342.59  100.99 495.38 342.44  101.08
  -1  -2   7  7762.2   157.6   1 0.38818-0.57408-0.87801 0.67809-0.28004 0.45894  0 264.48 207.26   65.31 264.35 207.42   65.25
   1  -2   7  7541.6   147.4   1 0.45754-0.27163-0.49936 0.29943-0.73573 0.91463  0 262.59 303.99  119.15 262.65 303.92  119.17
  -1  -2   8 505.823  55.911   1 0.37424-0.56014-0.89335 0.69343-0.24874 0.45320  0 256.19 213.25   61.85 255.93 213.59   61.92
   1  -2   8 482.874  48.068   1 0.46580-0.27990-0.55919 0.35926-0.68581 0.89028  0 259.20 310.53  112.29 259.19 310.40  112.21
  -1  -2   9  5547.5   144.2   1 0.36038-0.54628-0.90657 0.70666-0.21966 0.44968  0 247.64 219.68   58.83 247.58 219.83   58.83
   1  -2   9  5692.4   132.9   1 0.46873-0.28283-0.61376 0.41383-0.63528 0.86530  0 255.34 317.11  105.62 255.42 317.03  105.60
  -1  -2  10 14461.3   233.9   1 0.34660-0.53250-0.91806 0.71815-0.19243 0.44800  0 239.38 226.00   55.83 239.30 226.13   55.93
   1  -2  10 14192.6   209.5   1 0.46767-0.28177-0.66266 0.46275-0.58494 0.84051  0 251.29 323.93   99.34 251.34 323.84   99.36
  -1  -2  11  1044.2    77.4   1 0.33294-0.51884-0.92810 0.72818-0.16671 0.44784  0 231.10 232.26   53.33 231.05 232.53   53.20
   1  -2  11  1017.7    68.5   1 0.46247-0.27657-0.70680 0.50689-0.53531 0.81644  0 246.88 330.81   93.42 247.03 330.81   93.45
  -1  -2  12 11733.0   226.1   1 0.31932-0.50522-0.93690 0.73699-0.14232 0.44901  0 222.88 238.98   50.60 222.82 239.03   50.60
   1  -2  12 12811.6   207.5   1 0.45425-0.26835-0.74609 0.54617-0.48684 0.79353  0 242.44 337.96   87.86 242.50 337.99   87.86
  -1  -2  13  5319.5   159.3   1 0.30570-0.49161-0.94466 0.74477-0.11903 0.45127  0 214.72 245.48   48.19 214.62 245.68   48.10
   1  -2  13  5694.8   143.5   1 0.44350-0.25760-0.78096 0.58105-0.43978 0.77203  0 237.73 345.33   82.56 237.77 345.37   82.57
  -1  -2  14  4864.4   156.8   1 0.29217-0.47809-0.95146 0.75157-0.09671 0.45451  0 206.49 252.32   45.73 206.42 252.42   45.71
   1  -2  14  5608.7   145.8   1 0.43048-0.24458-0.81194 0.61202-0.39427 0.75207  0 232.84 353.08   77.55 232.89 352.98   77.56
  -1  -2 -15 585.998  35.372   1 0.06949-0.25541-0.97966 0.77976 0.18825-0.57161  0 472.91  60.17   13.35 472.70  60.06   13.33
  -1  -2  15 526.649  71.223   1 0.27867-0.46459-0.95744 0.75754-0.07522 0.45857  0 197.98 259.11   43.34 198.21 259.32   43.40
   1  -2  15 641.450  65.716   1 0.41587-0.22997-0.83921 0.63929-0.35041 0.73377  0 227.88 360.99   72.79 227.85 360.86   72.79
  -1  -2 -16  3696.2    86.5   1 0.12464-0.31055-0.98382 0.78393 0.12869-0.53760  0 487.28  50.82   20.54 487.26  50.99   20.54
  -1  -2  16  3840.7   148.3   1 0.26517-0.45109-0.96266 0.76277-0.05445 0.46336  0 190.08 266.30   41.19 189.99 266.37   41.15
   1  -2  16  4295.3   135.0   1 0.39987-0.21397-0.86320 0.66329-0.30821 0.71713  0 222.61 368.96   68.23 222.70 369.03   68.25
  -1  -2 -17  5328.5   123.7   1 0.16835-0.35426-0.98271 0.78281 0.07710-0.51157  2 501.83  41.37   26.50 502.14  41.58   26.54
  -1  -2  17  5548.5   177.9   1 0.25167-0.43758-0.96720 0.76731-0.03431 0.46878  0 181.82 273.46   38.93 181.72 273.62   38.97
   1  -2  17  6044.3   160.1   1 0.38277-0.19687-0.88423 0.68431-0.26764 0.70211  0 217.31 377.40   63.97 217.42 377.49   63.93
  -1  -2  18  5038.6   174.7   1 0.23806-0.42397-0.97114 0.77124-0.01477 0.47479  0 173.51 281.05   36.82 173.42 281.07   36.83
   1  -2  18  5574.3   159.4   1 0.36475-0.17885-0.90260 0.70269-0.22862 0.68865  0 211.90 386.33   59.82 212.06 386.32   59.78
  -1  -2  19  3631.3   158.2   1 0.22440-0.41032-0.97449 0.77459 0.00429 0.48129  0 165.18 288.79   34.73 165.06 288.75   34.72
   1  -2  19  3893.8   138.6   1 0.34590-0.16000-0.91861 0.71869-0.19108 0.67667  0 206.54 395.55   55.82 206.62 395.51   55.79
  -1  -2  20 497.696  81.347   1 0.21068-0.39659-0.97729 0.77739 0.02290 0.48824  0 156.67 296.78   32.71 156.63 296.68   32.66
   1  -2  20 628.990  78.676   1 0.32645-0.14055-0.93243 0.73252-0.15494 0.66608  0 201.07 404.78   52.08 201.12 405.12   51.95
  -1  -2  21  3847.7   170.0   1 0.19685-0.38277-0.97957 0.77968 0.04112 0.49558  0 148.23 304.87   30.63 148.12 304.88   30.62
   1  -2  21  4283.7   150.1   1 0.30630-0.12039-0.94433 0.74444-0.12005 0.65675  0 195.51 415.24   48.21 195.62 415.26   48.21
  -1  -2  22  3488.2   164.7   1 0.18289-0.36881-0.98136 0.78147 0.05897 0.50328  0 139.60 313.42   28.64 139.50 313.40   28.60
   1  -2  22  3882.5   148.6   1 0.28576-0.09985-0.95440 0.75450-0.08641 0.64866  0 189.93 425.82   44.62 190.03 425.83   44.60
  -1  -2  23  9463.7   266.1   1 0.16882-0.35474-0.98267 0.78278 0.07652 0.51129  0 130.90 322.26   26.65 130.79 322.25   26.61
   1  -2  23 11049.7   235.9   1 0.26479-0.07887-0.96280 0.76291-0.05387 0.64168  0 184.29 436.94   41.11 184.41 436.97   41.09
  -1  -2  24 760.268 102.814   1 0.15461-0.34052-0.98352 0.78362 0.09377 0.51960  0 122.39 331.28   24.71 121.95 331.48   24.62
   1  -2  24 701.473  87.215   1 0.24342-0.05751-0.96966 0.76977-0.02236 0.63573  0 179.28 448.87   37.61 178.78 448.71   37.66
  -1  -2  25 210.163  72.639   1 0.14024-0.32616-0.98390 0.78401 0.11076 0.52816  0 112.95 341.19   22.59 112.96 341.12   22.65
   1  -2  25 194.225  57.655   1 0.22152-0.03560-0.97512 0.77523 0.00824 0.63068  0 172.99 461.71   34.34 173.17 461.17   34.29
  -1  -2  26 209.438  76.562   1 0.12568-0.31159-0.98384 0.78395 0.12751 0.53697  0 103.76 351.97   20.56 103.83 351.22   20.68
   1  -2  26 223.055  60.230   1 0.19925-0.01334-0.97921 0.77932 0.03799 0.62649  0 167.18 474.16   31.20 167.57 474.37   30.97
  -1  -2  27 242.567  79.425   1 0.11092-0.29684-0.98334 0.78344 0.14404 0.54599  0  94.01 361.49   18.65  94.50 361.83   18.71
   1  -2  27 271.328  64.005   1 0.17652 0.00940-0.98202 0.78212 0.06698 0.62306  0 162.14 488.25   27.67 162.02 488.44   27.69
  -1  -2  28  1161.2   125.5   1 0.09599-0.28190-0.98238 0.78248 0.16039 0.55520  0  84.87 373.20   16.72  84.97 373.02   16.75
   1  -2  28  1284.2   152.8   1 0.15338 0.03254-0.98356 0.78367 0.09527 0.62032  2 155.67 501.48   24.72 156.53 503.49   24.45
  -1  -2  29 685.502 117.333   1 0.08076-0.26668-0.98098 0.78108 0.17653 0.56462  0  75.66 385.47   14.81  75.21 384.82   14.78
  -1  -2  30 360.249  95.171   1 0.06533-0.25125-0.97912 0.77922 0.19252 0.57419  0  65.04 397.35   12.88  65.22 397.34   12.80
  -1  -2  31  1491.6   151.9   1 0.04966-0.23557-0.97679 0.77690 0.20836 0.58390  0  54.85 410.08   10.89  54.94 410.64   10.81
  -1  -3   0  50.847  22.062   1 0.45602-0.64192-0.49025 0.19035-0.74276 0.74276  0 302.28 144.00  120.85 301.57 143.66  120.20
   1  -3   0  50.496  28.868   1 0.26422-0.07835-0.04374-0.25610-0.96347 0.96347  0 244.94 241.78  168.49 244.91 241.87  168.26
   1   3   0  43.815  14.969   1 0.13980 0.04607 0.12087 0.17897-0.98278 0.98278  0 420.10 402.93  186.70 419.85 402.54  186.70
  -1  -3  -1 33688.1   248.1   1 0.43763-0.62353-0.41181 0.11192-0.79931 0.77375  0 309.84 137.28  128.99 309.83 137.33  128.94
  -1  -3   1 35176.5   282.4   1 0.46547-0.65137-0.55589 0.25599-0.68871 0.71427  0 293.42 149.88  112.69 293.30 149.95  112.60
   1  -3  -1 32011.9   327.6   1 0.22456-0.03869 0.01364-0.31347-0.97437 0.94881  0 245.28 236.26  174.53 245.32 236.21  174.54
   1  -3   1 33846.8   338.8   1 0.30132-0.11545-0.10263-0.19721-0.94798 0.97354  0 243.96 247.68  162.35 244.02 247.60  161.92
   1   3  -1 29886.0   204.0   1 0.25722-0.07135-0.03315 0.33299-0.96578 0.94023  0 439.54 399.12  169.45 439.51 399.06  169.40
  -1  -3  -2  8582.8   119.8   1 0.40660-0.59250-0.31799 0.01809-0.85648 0.80537  0 318.11 130.85  139.27 318.02 130.94  139.08
  -1  -3   2  9138.6   152.2   1 0.46869-0.65459-0.61117 0.31127-0.63781 0.68892  0 285.17 156.20  105.96 285.05 156.20  105.92
   1  -3  -2  8557.6   171.7   1 0.18287 0.00300 0.06866-0.36850-0.98074 0.92962  0 245.22 230.67  180.74 245.25 230.61  180.69
   1  -3   2  9356.7   180.2   1 0.33517-0.14929-0.16232-0.13751-0.92807 0.97918  0 242.62 253.51  155.63 242.65 253.40  155.58
   1   3  -2  8370.7   121.1   1 0.32898-0.14311-0.15097 0.45080-0.93219 0.88108  0 456.17 395.23  156.85 456.15 395.20  156.79
  -1  -3  -3 11046.6   126.7   1 0.35786-0.54374-0.20631-0.09353-0.91070 0.83403  0 326.02 124.48  150.93 326.06 124.52  150.92
  -1  -3   3 12920.4   187.9   1 0.46764-0.65354-0.65812 0.35822-0.59008 0.66675  0 276.93 162.31  100.06 276.80 162.42   99.98
   1  -3  -3 11537.3   199.0   1 0.13993 0.04594 0.12071-0.42055-0.98278 0.90611  0 244.61 225.09  186.71 244.66 225.07  186.68
   1  -3   3 11910.2   203.9   1 0.36540-0.17950-0.22198-0.07791-0.90399 0.98067  0 240.80 259.37  149.21 240.85 259.29  149.28
   1   3  -3 11679.7   153.6   1 0.37575-0.18985-0.24411 0.54401-0.89399 0.81732  0 471.40 391.20  146.98 471.39 391.24  146.94
  -1  -3  -4  2471.0    58.2   1 0.28486-0.47074-0.07576-0.22408-0.95557 0.85334  0 333.74 118.01  164.71 333.87 118.01  164.80
  -1  -3   4  3127.2   101.0   1 0.46380-0.64970-0.69836 0.39849-0.54515 0.64737  0 268.73 168.58   94.65 268.51 168.68   94.60
   1  -3  -4  2575.8    98.5   1 0.09654 0.08933 0.16929-0.46913-0.98083 0.87860  0 243.64 219.52  192.44 243.58 219.57  192.47
   1  -3   4  2639.4   100.0   1 0.39181-0.20591-0.28079-0.01911-0.87615 0.97838  0 238.64 265.30  142.64 238.63 265.26  143.04
   1   3  -4  2636.5    80.1   1 0.40701-0.22111-0.31907 0.61897-0.85588 0.75365  0 486.05 387.16  138.98 485.92 387.15  138.96
  -1  -3  -5  1255.9    39.9   1 0.18091-0.36679 0.07113-0.37097-0.98092 0.85314  0 341.31 111.25  181.16 341.24 111.42  180.97
  -1  -3   5  1712.2    82.2   1 0.45741-0.64331-0.73294 0.43307-0.50356 0.63135  0 260.52 174.49   89.92 260.32 174.89   89.77
   1  -3  -5  1323.4    72.6   1 0.05339 0.13248 0.21402-0.51385-0.97537 0.84759  0 242.04 214.08  197.55 241.98 214.12  198.01
   1  -3   5  1569.2    81.0   1 0.41409-0.22819-0.33820 0.03830-0.84507 0.97286  0 235.97 271.46  136.90 236.01 271.33  136.91
   1   3  -5  1580.7    68.4   1 0.42818-0.24228-0.38000 0.67990-0.81992 0.69213  2 500.11 383.04  132.42 500.07 383.04  132.40
  -1  -3  -6 11667.2   104.9   1 0.04273-0.22860 0.22463-0.52447-0.97351 0.82017  0 347.88 104.64  199.36 347.87 104.75  199.35
  -1  -3   6 15063.0   226.4   1 0.44950-0.63540-0.76298 0.46311-0.46455 0.61790  0 252.38 180.91   85.45 252.15 181.11   85.34
   1  -3  -6 12860.0   214.1   1 0.01138 0.17451 0.25504-0.55482-0.96686 0.81347  0 239.85 208.69  203.22 239.88 208.70  203.28
   1  -3   6 14557.5   231.0   1 0.43236-0.24646-0.39359 0.09369-0.81127 0.96461  0 233.00 277.60  130.93 233.05 277.50  130.93
  -1  -3   7  2260.4    98.1   1 0.44037-0.62627-0.78925 0.48938-0.42797 0.60687  0 244.27 187.01   81.40 244.00 187.35   81.26
   1  -3   7  2126.5    94.8   1 0.44667-0.26077-0.44655 0.14665-0.77529 0.95420  0 229.86 283.82  125.08 229.74 283.78  125.10
  -1  -3   8  2811.2   113.8   1 0.43027-0.61617-0.81237 0.51250-0.39361 0.59806  0 235.91 193.56   77.48 235.88 193.62   77.48
   1  -3   8  2684.2   106.5   1 0.45709-0.27119-0.49687 0.19697-0.73769 0.94216  0 226.10 290.27  119.44 226.11 290.21  119.45
  -1  -3   9 26197.1   331.7   1 0.41961-0.60551-0.83282 0.53295-0.36102 0.59103  0 227.89 199.79   73.98 227.75 199.94   73.94
   1  -3   9 25035.8   312.7   1 0.46418-0.27828-0.54411 0.24421-0.69891 0.92893  0 222.18 296.86  113.97 222.20 296.77  113.99
  -1  -3  10 685.548  69.952   1 0.40841-0.59431-0.85101 0.55114-0.33012 0.58570  0 220.65 205.96   70.83 219.61 206.33   70.61
   1  -3  10 631.481  62.189   1 0.46799-0.28209-0.58835 0.28845-0.65942 0.91500  0 218.18 303.61  108.70 218.04 303.49  108.71
  -1  -3  11  2762.1   121.9   1 0.39682-0.58272-0.86724 0.56738-0.30070 0.58182  0 211.47 212.65   67.44 211.48 212.78   67.45
   1  -3  11  2630.2   110.3   1 0.46875-0.28285-0.62959 0.32970-0.61958 0.90072  0 213.61 310.55  103.63 213.63 310.38  103.62
  -1  -3  12 15891.1   279.9   1 0.38494-0.57084-0.88178 0.58191-0.27256 0.57925  0 203.43 219.34   64.48 203.33 219.32   64.45
   1  -3  12 16385.2   264.7   1 0.46729-0.28139-0.66754 0.36768-0.57967 0.88636  0 208.96 317.49   98.76 209.00 317.49   98.72
  -1  -3  13  9622.0   230.9   1 0.37278-0.55868-0.89483 0.59496-0.24560 0.57784  0 195.30 225.83   61.60 195.14 225.98   61.58
   1  -3  13 11063.8   223.1   1 0.46314-0.27724-0.70279 0.40292-0.53999 0.87224  0 204.16 324.79   93.98 204.18 324.77   94.00
  -1  -3  14  8112.9   218.5   1 0.36039-0.54629-0.90656 0.60669-0.21968 0.57748  0 187.01 232.65   58.82 186.92 232.75   58.83
   1  -3  14  8898.6   203.7   1 0.45692-0.27102-0.73520 0.43533-0.50071 0.85851  0 199.14 332.18   89.44 199.18 332.29   89.44
  -1  -3  15  9729.4   239.3   1 0.34779-0.53369-0.91713 0.61726-0.19471 0.57807  0 178.78 239.57   56.24 178.66 239.65   56.18
   1  -3  15 10380.1   223.9   1 0.44890-0.26300-0.76490 0.46503-0.46197 0.84533  0 193.95 339.95   85.03 194.00 340.04   85.05
  -1  -3  16  96.014  49.856   1 0.33503-0.52093-0.92664 0.62677-0.17056 0.57948  0 169.98 246.22   53.39 170.33 246.72   53.61
   1  -3  16 115.906  46.134   1 0.43925-0.25335-0.79208 0.49221-0.42388 0.83279  0 188.68 347.80   81.09 188.66 348.05   80.81
  -1  -3  17  7545.7   223.4   1 0.32207-0.50797-0.93521 0.63534-0.14718 0.58165  0 162.05 253.90   51.19 161.93 253.96   51.12
   1  -3  17  8274.5   207.0   1 0.42804-0.24214-0.81694 0.51707-0.38651 0.82098  0 183.15 356.28   76.75 183.19 356.36   76.71
  -1  -3  18  1394.4   116.9   1 0.30890-0.49481-0.94292 0.64308-0.12445 0.58448  0 153.52 261.41   48.65 153.47 261.44   48.68
   1  -3  18  1450.1   104.2   1 0.41568-0.22978-0.83951 0.53964-0.34990 0.80993  0 177.31 364.85   72.85 177.57 364.99   72.74
  -1  -3  19  1208.1   114.5   1 0.29563-0.48155-0.94980 0.64996-0.10235 0.58793  0 145.12 269.10   46.34 144.90 269.08   46.32
   1  -3  19  1413.3   105.6   1 0.40220-0.21630-0.85999 0.56012-0.31409 0.79967  0 171.64 373.84   68.92 171.82 373.98   68.88
  -1  -3  20  2189.6   139.2   1 0.28222-0.46814-0.95594 0.65610-0.08079 0.59193  0 136.15 276.85   44.07 136.24 276.97   44.00
   1  -3  20  2336.2   129.9   1 0.38776-0.20186-0.87850 0.57863-0.27907 0.79022  0 165.91 383.46   65.12 165.93 383.36   65.14
  -1  -3  21  7383.1   244.6   1 0.26865-0.45457-0.96138 0.66154-0.05974 0.59643  0 127.52 284.89   41.76 127.45 285.11   41.73
   1  -3  21  8256.3   223.0   1 0.37243-0.18653-0.89518 0.59531-0.24484 0.78154  0 159.84 393.18   61.53 159.93 393.17   61.50
  -1  -3  22  1081.1   117.3   1 0.25495-0.44086-0.96616 0.66632-0.03913 0.60138  0 118.41 293.74   39.40 118.53 293.54   39.49
   1  -3  22 941.894 102.397   1 0.35628-0.17038-0.91015 0.61028-0.21139 0.77364  0 153.76 403.72   57.91 153.82 403.45   57.95
  -1  -3  23  7444.4   255.3   1 0.24101-0.42692-0.97034 0.67050-0.01896 0.60677  0 109.58 302.30   37.33 109.46 302.30   37.29
   1  -3  23  8245.8   241.5   1 0.33938-0.15348-0.92352 0.62365-0.17867 0.76648  0 147.52 414.24   54.53 147.59 414.26   54.47
  -1  -3  24 827.078 116.549   1 0.22691-0.41282-0.97392 0.67407 0.00083 0.61254  0 100.34 311.28   35.26 100.22 311.42   35.11
   1  -3  24 795.100 106.208   1 0.32178-0.13588-0.93539 0.63552-0.14666 0.76004  0 141.62 426.27   50.96 141.27 425.64   51.06
  -1  -3  25  2868.0   177.5   1 0.21264-0.39855-0.97692 0.67708 0.02028 0.61864  0  90.92 320.87   33.00  90.80 320.93   32.95
   1  -3  25  3013.9   159.0   1 0.30348-0.11757-0.94583 0.64599-0.11531 0.75424  0 134.66 437.61   47.77 134.91 437.75   47.71
  -1  -3  26 234.192  78.563   1 0.19817-0.38408-0.97938 0.67953 0.03941 0.62507  0  80.53 331.28   30.62  81.18 330.88   30.81
   1  -3  26 238.161  72.883   1 0.28465-0.09873-0.95489 0.65505-0.08463 0.74911  0 128.14 450.69   44.32 128.38 450.49   44.41
  -1  -3  27  2882.5   183.8   1 0.18348-0.36939-0.98130 0.68146 0.05824 0.63180  0  71.42 341.50   28.70  71.31 341.31   28.69
   1  -3  27  2990.7   160.1   1 0.26523-0.07932-0.96264 0.66280-0.05455 0.74459  0 121.70 463.71   41.19 121.77 464.02   41.16
  -1  -3  28 274.089  90.508   1 0.16859-0.35450-0.98269 0.68285 0.07681 0.63879  0  61.73 352.38   26.64  61.19 352.28   26.57
   1  -3  28 285.259  75.502   1 0.24528-0.05937-0.96913 0.66929-0.02504 0.74063  0 114.56 478.33   37.97 115.08 478.43   37.95
  -1  -3  29  2003.5   168.6   1 0.15349-0.33940-0.98356 0.68372 0.09513 0.64601  0  51.07 363.97   24.49  50.79 363.86   24.46
   1  -3  29  2165.4   148.3   1 0.22463-0.03871-0.97444 0.67459 0.00398 0.73717  2 108.19 493.59   34.80 108.30 493.89   34.76
  -1  -3  30 160.040  87.927   1 0.13812-0.32404-0.98392 0.68408 0.11323 0.65348  0  40.40 376.28   22.48  40.07 376.12   22.36
  -1  -4   0  30.805  24.646   1 0.44781-0.63371-0.45134 0.05147-0.77186 0.77186  0 269.35 122.96  124.35 269.68 122.90  124.57
   1  -4   0  50.597  33.516   1 0.30150-0.11563-0.10292-0.29686-0.94789 0.94789  0 213.65 222.98  161.73 213.33 223.22  161.89
   1   4   0  19.793  15.337   1 0.04543 0.14045 0.22198 0.17780-0.97399 0.97399  0 439.65 444.43  198.74 439.23 444.61  199.01
  -1  -4  -1  2094.8    81.2   1 0.43219-0.61809-0.39301-0.00685-0.81164 0.78608  0 276.78 116.27  131.15 276.52 116.42  130.99
  -1  -4   1  2114.4    88.9   1 0.45831-0.64421-0.50384 0.10397-0.73219 0.75775  0 262.54 129.41  118.62 262.65 129.35  118.65
   1  -4  -1  1931.7    96.2   1 0.27222-0.08635-0.05594-0.34384-0.96061 0.93505  0 214.14 217.56  166.88 214.25 217.49  166.94
   1  -4   1  2075.5   100.1   1 0.32881-0.14293-0.15064-0.24914-0.93231 0.95786  0 212.01 229.09  156.85 211.99 229.01  156.82
   1   4  -1  1799.3    60.3   1 0.14656 0.03931 0.11295 0.28683-0.98273 0.95718  0 458.73 441.39  185.84 458.71 441.34  185.78
  -1  -4  -2  5691.5   123.8   1 0.41057-0.59647-0.32856-0.07130-0.85058 0.79946  0 283.13 109.86  137.98 283.11 109.89  137.95
  -1  -4   2  5981.4   144.1   1 0.46498-0.65088-0.55115 0.15129-0.69284 0.74396  0 255.56 135.74  113.17 255.45 135.76  113.16
   1  -4  -2  5918.7   161.1   1 0.24143-0.05556-0.01005-0.38973-0.97037 0.91925  0 214.73 211.92  171.93 214.75 211.82  171.93
   1  -4   2  5871.0   162.3   1 0.35403-0.16816-0.19861-0.20117-0.91390 0.96501  0 210.14 234.97  151.79 210.26 234.86  151.74
   1   4  -2  5146.3   106.3   1 0.22054-0.03466 0.01915 0.38063-0.97519 0.92408  0 475.99 437.80  175.30 476.05 437.76  175.15
  -1  -4  -3  5519.4   118.2   1 0.38197-0.56787-0.25791-0.14195-0.88746 0.81078  0 289.36 103.29  145.51 289.38 103.31  145.47
  -1  -4   3  5110.3   138.6   1 0.46814-0.65404-0.59365 0.19379-0.65455 0.73122  0 248.47 141.89  108.18 248.15 142.13  108.07
   1  -4  -3  5458.1   154.8   1 0.20932-0.02345 0.03428-0.43407-0.97725 0.90058  0 214.81 206.29  176.85 214.81 206.19  176.83
   1  -4   3  5639.8   159.9   1 0.37684-0.19094-0.24651-0.15335-0.89288 0.96955  0 208.10 240.84  146.73 208.14 240.79  146.68
   1   4  -3  4919.4   111.0   1 0.27602-0.09014-0.06182 0.46161-0.95916 0.88249  0 492.42 433.91  166.23 492.23 434.05  166.30
  -1  -4  -4  1731.9    67.2   1 0.34510-0.53098-0.18114-0.21864-0.92092 0.81869  0 295.17  96.77  153.51 295.24  96.69  153.59
  -1  -4   4  1998.5    93.4   1 0.46871-0.65461-0.63193 0.23207-0.61724 0.71947  0 240.72 148.37  103.24 240.72 148.49  103.33
   1  -4  -4  1699.1    91.1   1 0.17641 0.00946 0.07678-0.47656-0.98132 0.87909  0 214.43 200.71  181.68 214.43 200.61  181.61
   1  -4   4  1785.8    95.2   1 0.39719-0.21129-0.29384-0.10603-0.86942 0.97166  0 205.78 246.87  141.68 205.67 246.80  141.65
  -1  -4  -5  2028.1    69.8   1 0.29939-0.48526-0.09941-0.30037-0.94894 0.82116  0 300.68  89.85  162.36 300.58  90.01  162.27
  -1  -4   5  2447.6   106.2   1 0.46738-0.65328-0.66649 0.26666-0.58082 0.70860  0 233.29 154.93   98.94 233.14 154.93   98.86
   1  -4  -5  2130.0   100.6   1 0.14303 0.04284 0.11710-0.51688-0.98277 0.85498  0 213.49 195.11  186.25 213.59 195.06  186.26
   1  -4   5  2342.1   108.1   1 0.41487-0.22897-0.34036-0.05950-0.84383 0.97161  0 202.86 252.98  136.72 202.86 252.91  136.68
  -1  -4  -6  2976.7    79.7   1 0.24433-0.43021-0.01421-0.38557-0.96959 0.81625  0 305.34  83.16  171.57 305.28  83.25  171.47
  -1  -4   6  3655.3   130.4   1 0.46391-0.64981-0.69763 0.29780-0.54599 0.69933  0 225.67 161.12   94.72 225.57 161.28   94.70
   1  -4  -6  3178.0   121.6   1 0.10963 0.07624 0.15504-0.55482-0.98181 0.82847  0 212.18 189.59  190.77 212.29 189.54  190.75
   1  -4   6  3655.9   134.0   1 0.42996-0.24406-0.38571-0.01415-0.81631 0.96966  0 199.69 259.23  131.79 199.74 259.11  131.78
  -1  -4  -7  4782.2    96.9   1 0.18015-0.36602 0.07209-0.47187-0.98099 0.80210  0 309.20  76.31  181.05 309.22  76.43  181.08
  -1  -4   7  6417.3   174.4   1 0.45896-0.64485-0.72582 0.32599-0.51240 0.69130  0 218.12 167.50   90.85 217.91 167.66   90.78
   1  -4  -7  5419.5   158.3   1 0.07659 0.10928 0.19044-0.59022-0.97871 0.79981  0 210.59 184.00  195.07 210.54 184.05  195.05
   1  -4   7  6158.2   172.9   1 0.44245-0.25655-0.42966 0.02980-0.78717 0.96607  0 196.28 265.53  127.29 196.30 265.43  126.97
  -1  -4  -8 917.365  45.479   1 0.10857-0.29444 0.15621-0.55600-0.98174 0.77729  0 312.35  69.47  190.80 312.21  69.57  190.89
  -1  -4   8  1122.0    88.6   1 0.45285-0.63875-0.75139 0.35156-0.47994 0.68440  0 209.55 174.13   86.76 210.20 174.07   87.08
   1  -4  -8 801.245  68.842   1 0.04421 0.14166 0.22317-0.62296-0.97378 0.76932  0 208.25 178.53  199.29 208.32 178.57  199.17
   1  -4   8  1081.7    82.2   1 0.45238-0.26648-0.47201 0.07215-0.75667 0.96114  0 192.59 271.96  122.25 192.59 271.87  122.26
  -1  -4  -9  7573.4   117.5   1 0.03269-0.21859 0.23476-0.63446-0.97150 0.74141  0 314.14  62.53  200.61 314.12  62.67  200.63
  -1  -4   9  9487.3   225.5   1 0.44571-0.63161-0.77463 0.37480-0.44865 0.67867  0 202.59 180.39   83.59 202.42 180.51   83.56
   1  -4  -9  7899.1   192.7   1 0.01299 0.17291 0.25355-0.65325-0.96724 0.73714  0 205.68 173.09  203.07 205.64 173.09  203.08
   1  -4   9  9280.9   215.5   1 0.45977-0.27387-0.51267 0.11281-0.72511 0.95513  0 188.61 278.51  117.70 188.59 278.46  117.64
  -1  -4  10  2560.7   125.2   1 0.43765-0.62355-0.79581 0.39598-0.41851 0.67408  0 194.83 186.71   80.38 194.58 187.01   80.22
   1  -4  10  2560.3   119.6   1 0.46500-0.27910-0.55136 0.15150-0.69266 0.94824  0 184.30 285.27  113.14 184.35 285.19  113.13
  -1  -4  11  2291.5   124.0   1 0.42893-0.61483-0.81514 0.41531-0.38932 0.67045  0 186.81 193.25   77.15 186.66 193.58   77.02
   1  -4  11  2692.0   125.1   1 0.46798-0.28208-0.58816 0.18830-0.65960 0.94073  0 179.78 292.27  108.73 179.87 292.08  108.74
  -1  -4  12  6247.3   198.1   1 0.41962-0.60552-0.83280 0.43297-0.36106 0.66774  0 178.82 200.04   73.99 178.67 200.22   73.94
   1  -4  12  5974.0   181.3   1 0.46880-0.28290-0.62305 0.22319-0.62613 0.93282  0 175.18 299.30  104.44 175.16 299.16  104.45
  -1  -4  13 480.469  81.419   1 0.40975-0.59565-0.84897 0.44915-0.33369 0.66593  0 170.58 206.61   70.88 170.59 206.97   70.99
   1  -4  13 451.677  71.031   1 0.46778-0.28188-0.65594 0.25607-0.59240 0.92465  0 171.08 306.31  100.30 170.23 306.44  100.26
  -1  -4  14  4906.4   187.4   1 0.39943-0.58533-0.86379 0.46396-0.30713 0.66493  0 162.59 213.75   68.22 162.44 213.82   68.14
   1  -4  14  5073.5   174.2   1 0.46536-0.27946-0.68666 0.28684-0.55851 0.91631  0 165.13 313.96   96.17 165.11 313.98   96.19
  -1  -4  15 856.144 102.581   1 0.38872-0.57462-0.87736 0.47754-0.28130 0.66466  0 154.16 220.75   65.44 154.19 220.79   65.38
   1  -4  15  1072.9    96.9   1 0.46092-0.27502-0.71571 0.31588-0.52471 0.90807  0 159.75 321.74   92.26 159.78 321.70   92.21
  -1  -4  16  4880.1   196.5   1 0.37764-0.56354-0.88981 0.48998-0.25617 0.66508  0 145.76 227.82   62.65 145.83 227.92   62.70
   1  -4  16  5657.0   188.9   1 0.45508-0.26918-0.74283 0.34300-0.49102 0.89994  0 154.23 329.64   88.33 154.27 329.71   88.33
  -1  -4  17  7150.8   238.5   1 0.36622-0.55212-0.90122 0.50140-0.23169 0.66616  0 137.51 235.21   60.16 137.36 235.22   60.10
   1  -4  17  7426.7   217.5   1 0.44787-0.26197-0.76815 0.36833-0.45755 0.89202  0 148.48 337.94   84.59 148.57 337.99   84.56
  -1  -4  18 620.007 103.032   1 0.35448-0.54038-0.91168 0.51186-0.20780 0.66783  0 129.81 242.69   57.64 128.77 242.69   57.57
   1  -4  18 775.335 102.035   1 0.43938-0.25348-0.79175 0.39192-0.42436 0.88439  0 142.81 346.09   81.04 142.69 346.58   80.87
  -1  -4  19  4052.4   196.8   1 0.34244-0.52834-0.92125 0.52143-0.18447 0.67005  0 120.07 250.49   55.12 120.05 250.36   55.09
   1  -4  19  3998.8   170.4   1 0.42962-0.24372-0.81373 0.41390-0.39150 0.87709  0 136.66 355.47   77.27 136.66 355.50   77.25
  -1  -4  20 302.849  91.563   1 0.33015-0.51605-0.92999 0.53016-0.16163 0.67277  0 110.73 258.68   52.49 111.16 258.28   52.66
   1  -4  20 394.637  80.732   1 0.41891-0.23301-0.83404 0.43422-0.35901 0.87015  0 130.93 364.52   73.70 130.43 364.80   73.72
  -1  -4  21  2140.3   163.4   1 0.31757-0.50347-0.93795 0.53812-0.13927 0.67597  0 102.27 266.24   50.36 102.11 266.45   50.27
   1  -4  21  2547.5   150.8   1 0.40718-0.22128-0.85284 0.45302-0.32690 0.86360  0 123.94 374.38   70.22 124.03 374.54   70.26
  -1  -4  22 715.338 123.996   1 0.30469-0.49060-0.94520 0.54541-0.11734 0.67959  0  92.94 274.95   47.84  92.90 274.98   47.92
   1  -4  22 980.064 120.182   1 0.39457-0.20867-0.87016 0.47033-0.29521 0.85747  0 117.65 384.60   66.86 117.45 384.73   66.86
  -1  -4  23 145.722  80.542   1 0.29162-0.47753-0.95173 0.55194-0.09581 0.68362  0  81.63 283.50   45.34  83.48 283.74   45.62
   1  -4  23  52.712  67.041   1 0.38112-0.19522-0.88605 0.48622-0.26393 0.85175  0 110.55 396.10   63.32 110.68 395.41   63.53
  -1  -4  24  3596.3   207.3   1 0.27831-0.46422-0.95759 0.55780-0.07465 0.68801  0  73.77 292.90   43.34  73.84 292.86   43.34
   1  -4  24  3872.6   189.7   1 0.36688-0.18098-0.90060 0.50077-0.23308 0.84645  0 103.77 406.43   60.24 103.74 406.67   60.25
  -1  -4  25  1280.3   149.6   1 0.26476-0.45067-0.96281 0.56302-0.05383 0.69275  0  63.72 302.21   41.17  63.95 302.37   41.09
   1  -4  25  1492.8   137.7   1 0.35187-0.16597-0.91385 0.51403-0.20264 0.84156  0  96.65 418.58   56.95  96.61 418.54   57.02
  -1  -4  26  1849.0   170.4   1 0.25099-0.43690-0.96742 0.56763-0.03331 0.69779  0  53.73 312.45   38.80  53.80 312.30   38.86
   1  -4  26  2066.0   157.3   1 0.33613-0.15023-0.92587 0.52604-0.17260 0.83709  0  89.04 431.10   53.88  89.28 431.11   53.82
  -1  -4  27  1850.3   172.6   1 0.23690-0.42281-0.97145 0.57166-0.01313 0.70316  0  43.41 322.63   36.67  43.35 322.71   36.64
   1  -4  27  1968.6   163.7   1 0.31968-0.13378-0.93668 0.53685-0.14296 0.83300  0  81.54 444.36   50.74  81.77 444.44   50.67
  -1  -4  28  1252.2   151.4   1 0.22258-0.40849-0.97489 0.57510 0.00680 0.70880  0  32.72 333.56   34.46  32.57 333.67   34.45
   1  -4  28  1349.3   150.0   1 0.30250-0.11659-0.94635 0.54656-0.11367 0.82927  0  74.47 458.85   47.49  74.12 458.75   47.53
  -1  -5   0  55.410  34.644   1 0.44773-0.63363-0.45101-0.04882-0.77209 0.77209  0 234.28 102.12  124.47 234.29 101.81  124.61
   1  -5   0  49.820  36.978   1 0.33402-0.14814-0.16019-0.33953-0.92885 0.92885  0 179.65 204.82  155.62 179.13 205.24  155.81
  -1  -5  -1  14.093  29.545   1 0.43605-0.62195-0.40626-0.09357-0.80300 0.77744  0 241.43  94.38  130.05 240.24  95.13  129.54
   1  -5  -1  73.524  38.402   1 0.31198-0.12611-0.12085-0.37888-0.94237 0.91681  0 180.31 199.16  159.48 180.36 199.38  159.98
   1  -5   1  19.541  33.063   1 0.35467-0.16879-0.19988-0.29985-0.91338 0.93894  0 177.60 211.46  151.55 177.54 211.17  151.60
   1   5  -1  48.879  21.665   1 0.05124 0.13463 0.21616 0.28357-0.97501 0.94946  0 478.46 492.52  197.90 477.69 492.49  198.28
  -1  -5  -2  6489.8   159.1   1 0.42118-0.60708-0.35855-0.14128-0.83309 0.78198  0 245.96  88.31  134.78 245.92  88.37  134.73
  -1  -5   2  6797.5   180.6   1 0.46258-0.64848-0.53170 0.03187-0.70945 0.76056  0 221.67 115.07  115.40 221.66 115.07  115.44
   1  -5  -2  6780.9   190.6   1 0.28880-0.10293-0.08206-0.41766-0.95387 0.90275  0 181.15 193.57  164.13 181.21 193.55  164.13
   1  -5   2  7083.4   197.5   1 0.37373-0.18783-0.23973-0.26010-0.89602 0.94714  0 175.59 217.18  147.39 175.58 217.14  147.40
   1   5  -2  5871.8   124.7   1 0.12211 0.06376 0.14114 0.35859-0.98243 0.93132  2 496.70 489.45  189.20 496.68 489.44  189.09
  -1  -5  -3 994.245  67.107   1 0.40281-0.58871-0.30796-0.19186-0.86192 0.78525  0 251.36  81.82  140.12 251.27  81.56  140.15
  -1  -5   3  1203.6    86.6   1 0.46658-0.65248-0.56792 0.06809-0.67807 0.75474  0 214.65 121.63  110.86 215.06 121.64  111.17
   1  -5  -3 764.450  74.176   1 0.26448-0.07861-0.04413-0.45559-0.96338 0.88671  0 181.76 187.83  168.29 181.65 187.77  168.21
   1  -5   3 816.878  78.548   1 0.39121-0.20531-0.27937-0.22045-0.87687 0.95354  0 173.09 223.29  143.30 173.29 223.19  143.19
  -1  -5  -4  6183.3   149.1   1 0.38051-0.56641-0.25463-0.24520-0.88903 0.78680  0 256.39  74.44  146.04 256.24  74.69  145.82
  -1  -5   4  5323.3   168.0   1 0.46845-0.65435-0.60152 0.10169-0.64709 0.74933  0 207.83 128.45  106.77 208.29 128.19  107.11
   1  -5  -4  5788.3   176.8   1 0.23945-0.05357-0.00722-0.49251-0.97088 0.86866  0 181.70 182.01  172.22 181.70 182.01  172.24
   1  -5   4  6746.9   194.8   1 0.40688-0.22097-0.31871-0.18112-0.85608 0.95831  0 170.69 229.42  138.67 170.66 229.32  139.00
  -1  -5  -5 12777.8   207.0   1 0.35414-0.54001-0.19882-0.30090-0.91381 0.78603  0 260.79  67.71  151.79 260.77  67.79  151.72
  -1  -5   5 13695.9   275.6   1 0.46869-0.65459-0.63274 0.13291-0.61642 0.74420  0 201.47 134.72  103.25 201.34 134.74  103.23
   1  -5  -5 12237.5   255.5   1 0.21371-0.02783 0.02841-0.52814-0.97648 0.84870  0 181.33 176.29  176.17 181.33 176.28  176.17
   1  -5   5 13600.3   276.5   1 0.42081-0.23491-0.35747-0.14236-0.83375 0.96153  0 167.64 235.64  134.86 167.73 235.54  134.84
  -1  -5  -6  1942.0    83.8   1 0.32361-0.50949-0.14124-0.35848-0.93559 0.78225  0 264.56  61.31  157.59 264.80  60.76  157.82
  -1  -5   6  2267.3   122.8   1 0.46774-0.65364-0.66174 0.16196-0.58593 0.73927  0 194.57 141.01   99.67 194.21 141.39   99.48
   1  -5  -6  1871.7   108.5   1 0.18765-0.00178 0.06262-0.56235-0.98024 0.82690  0 180.51 170.48  180.00 180.55 170.57  180.00
   1  -5   6  2289.0   122.6   1 0.43293-0.24703-0.39550-0.10432-0.81003 0.96337  0 164.47 241.93  130.74 164.49 241.85  130.72
  -1  -5  -7 234.935  42.068   1 0.28911-0.47499-0.08257-0.41716-0.95373 0.77483  0 268.78  52.84  164.48 268.27  53.69  164.07
   1  -5  -7 287.512  59.227   1 0.16140 0.02448 0.09522-0.59495-0.98228 0.80339  0 179.22 164.83  183.73 179.33 164.86  183.73
   1  -5   7 290.577  62.593   1 0.44322-0.25732-0.43266-0.06717-0.78508 0.96399  0 160.83 248.30  126.49 160.96 248.27  126.64
  -1  -5  -8  9654.3   170.9   1 0.25071-0.43658-0.02356-0.47616-0.96778 0.76332  0 271.18  46.22  170.58 271.10  46.51  170.45
  -1  -5   8 12151.7   280.3   1 0.46131-0.64721-0.71357 0.21379-0.52727 0.73172  0 179.58 154.52   92.46 179.68 154.51   92.51
   1  -5  -8  9725.0   230.2   1 0.13526 0.05061 0.12613-0.62585-0.98275 0.77830  0 177.65 159.16  187.33 177.68 159.16  187.32
   1  -5   8 11677.9   263.8   1 0.45170-0.26580-0.46881-0.03102-0.75907 0.96353  0 157.07 254.82  122.67 157.16 254.82  122.62
  -1  -5  -9 18280.6   232.8   1 0.20900-0.39487 0.03472-0.53445-0.97730 0.74729  0 273.20  39.16  176.78 273.24  39.24  176.87
  -1  -5   9 23746.7   390.9   1 0.45656-0.64246-0.73675 0.23697-0.49875 0.72876  0 172.42 160.97   89.31 172.20 161.12   89.22
   1  -5  -9 19862.4   330.3   1 0.10945 0.07642 0.15524-0.65496-0.98179 0.75179  0 175.60 153.44  190.80 175.59 153.46  190.77
   1  -5   9 22863.7   369.1   1 0.45832-0.27242-0.50388 0.00406-0.73215 0.96217  0 153.02 261.55  118.71 153.08 261.50  118.65
  -1  -5 -10 149.264  34.205   1 0.16468-0.35055 0.09123-0.59096-0.98212 0.72655  0 274.25  33.98  182.81 274.61  31.89  183.27
  -1  -5  10 316.892  72.149   1 0.45089-0.63679-0.75829 0.25851-0.47084 0.72641  0 164.72 167.30   86.03 164.62 167.78   86.05
   1  -5 -10 209.581  55.212   1 0.08418 0.10169 0.18250-0.68223-0.97959 0.72403  0 172.95 147.85  194.04 173.07 147.74  194.08
   1  -5  10 233.061  61.175   1 0.46336-0.27746-0.53768 0.03785-0.70441 0.95999  0 149.08 268.29  114.59 148.74 268.33  114.74
  -1  -5 -11  5609.3   129.0   1 0.11875-0.30462 0.14492-0.64464-0.98229 0.70117  0 275.19  24.26  189.61 275.14  24.47  189.54
  -1  -5  11  7962.8   245.3   1 0.44445-0.63035-0.77832 0.27853-0.44350 0.72463  0 156.86 174.44   82.93 156.91 174.50   82.99
   1  -5 -11  6307.7   192.4   1 0.05952 0.12636 0.20788-0.70760-0.97634 0.69522  0 170.19 141.97  197.25 170.10 142.01  197.23
   1  -5  11  7582.9   221.7   1 0.46677-0.28087-0.57019 0.07036-0.67603 0.95716  0 144.20 275.42  110.90 144.17 275.31  110.90
  -1  -5 -12  4076.2   114.9   1 0.07233-0.25820 0.19485-0.69458-0.97816 0.67148  0 274.98  16.50  195.81 274.84  16.97  195.60
  -1  -5  12  5562.3   212.0   1 0.43717-0.62307-0.79695 0.29717-0.41683 0.72351  0 147.93 181.25   79.58 149.09 181.29   80.03
   1  -5 -12  4451.8   165.4   1 0.03586 0.15003 0.23170-0.73132-0.97213 0.66533  0 166.70 136.12  200.25 166.69 136.23  200.24
   1  -5  12  5191.1   188.6   1 0.46844-0.28254-0.60145 0.10162-0.64716 0.95386  0 139.34 282.67  107.04 139.34 282.48  107.12
  -1  -5 -13 24322.4   276.9   1 0.02660-0.21249 0.24061-0.74023-0.97026 0.63790  2 273.72   9.40  201.38 273.65   9.37  201.39
  -1  -5  13 32970.3   508.2   1 0.42935-0.61525-0.81429 0.31450-0.39064 0.72288  0 141.31 188.05   77.22 141.12 188.18   77.16
   1  -5 -13 27464.7   411.0   1 0.01314 0.17275 0.25341-0.75302-0.96727 0.63491  0 162.84 130.43  203.06 162.83 130.43  203.06
   1  -5  13 33666.1   465.1   1 0.46872-0.28282-0.63130 0.13147-0.61787 0.95012  0 134.28 289.86  103.39 134.28 289.84  103.41
  -1  -5  14  1066.9   120.0   1 0.42096-0.60686-0.83041 0.33063-0.36497 0.72277  0 133.51 194.96   74.53 133.01 195.17   74.37
   1  -5 -14 703.857  80.428   1-0.00867 0.19456 0.27327-0.77289-0.96190 0.60397  0 158.36 124.79  205.62 158.52 124.60  205.72
   1  -5  14 804.087  93.830   1 0.46753-0.28163-0.65980 0.15997-0.58828 0.94609  0 129.03 297.18   99.71 129.00 297.41   99.76
  -1  -5  15 12783.3   336.3   1 0.41203-0.59793-0.84542 0.34564-0.33984 0.72319  0 124.94 202.25   71.68 124.76 202.28   71.65
   1  -5  15 13595.8   308.0   1 0.46535-0.27945-0.68674 0.18696-0.55843 0.94178  0 123.55 305.18   96.16 123.50 305.28   96.17
  -1  -5  16  1044.7   137.1   1 0.40263-0.58853-0.85939 0.35961-0.31518 0.72410  0 117.12 209.30   69.12 116.36 209.54   69.00
   1  -5  16 921.733 102.966   1 0.46149-0.27559-0.71252 0.21274-0.52852 0.93744  0 117.57 313.36   92.65 117.77 313.35   92.65
  -1  -5  17  1909.9   155.8   1 0.39280-0.57870-0.87237 0.37259-0.29098 0.72545  0 107.33 217.02   66.37 107.78 216.95   66.41
   1  -5  17  1958.1   135.9   1 0.45652-0.27062-0.73691 0.23712-0.49855 0.93302  0 111.72 321.71   89.24 111.81 321.73   89.19
  -1  -5  18  6592.9   256.7   1 0.38258-0.56848-0.88444 0.38466-0.26721 0.72724  0  99.10 224.64   63.87  99.05 224.53   63.88
   1  -5  18  7051.7   235.6   1 0.45039-0.26449-0.75998 0.26020-0.46860 0.92862  0 105.63 330.28   85.81 105.63 330.40   85.80
  -1  -5  19  2299.6   176.3   1 0.37197-0.55787-0.89564 0.39586-0.24385 0.72944  0  90.62 232.02   61.48  90.11 232.33   61.40
   1  -5  19  2367.6   151.7   1 0.44322-0.25732-0.78173 0.28195-0.43869 0.92428  0  99.36 339.25   82.47  99.23 339.41   82.45
  -1  -5  20 776.518 134.055   1 0.36099-0.54689-0.90603 0.40625-0.22089 0.73204  0  80.76 240.01   58.77  80.97 240.37   58.96
   1  -5  20 928.479 114.728   1 0.43489-0.24899-0.80229 0.30251-0.40891 0.92005  0  92.12 348.63   79.21  92.64 348.78   79.16
  -1  -5  21  2084.1   174.5   1 0.34966-0.53556-0.91565 0.41587-0.19830 0.73501  0  71.58 248.42   56.55  71.62 248.64   56.56
   1  -5  21  2788.5   171.5   1 0.42570-0.23980-0.82155 0.32177-0.37925 0.91595  0  85.77 358.89   75.96  85.79 358.58   75.92
  -1  -5  22 800.420 139.907   1 0.33799-0.52389-0.92453 0.42475-0.17607 0.73833  0  62.19 257.06   54.38  62.01 257.19   54.19
   1  -5  22 854.698 123.257   1 0.41563-0.22973-0.83960 0.33982-0.34974 0.91200  0  79.33 368.95   72.71  78.70 368.84   72.72
  -1  -5  23 243.150 101.651   1 0.32601-0.51191-0.93271 0.43293-0.15415 0.74197  0  52.03 265.94   51.55  52.15 266.07   51.86
   1  -5  23 267.443  87.261   1 0.40468-0.21878-0.85648 0.35670-0.32043 0.90824  0  71.21 379.46   69.53  71.37 379.61   69.56
  -1  -5  24 153.758  96.847   1 0.31370-0.49960-0.94022 0.44044-0.13256 0.74593  0  41.89 275.18   49.38  42.01 275.30   49.56
   1  -5  24 193.003  86.540   1 0.39294-0.20704-0.87221 0.37242-0.29130 0.90467  0  63.95 390.24   66.61  63.76 390.95   66.45
  -1  -5  25  1011.4   160.2   1 0.30103-0.48694-0.94710 0.44737-0.11124 0.75016  0  31.42 285.03   47.25  31.57 285.02   47.27
   1  -5  25 967.116 136.408   1 0.38045-0.19455-0.88680 0.38702-0.26239 0.90132  0  55.42 403.20   63.33  55.88 402.90   63.37
  -1  -5  26 607.693 142.353   1 0.28813-0.47405-0.95333 0.45360-0.09019 0.75467  0  20.41 295.04   44.85  20.79 295.07   45.01
   1  -5  26 547.668 117.145   1 0.36717-0.18127-0.90032 0.40054-0.23368 0.89817  0  48.00 415.36   60.30  47.73 415.56   60.31
  -1  -6   0  5679.4   196.4   1 0.45168-0.63758-0.46870-0.13109-0.75915 0.75915  0 195.46  79.64  122.68 195.46  79.63  122.63
   1  -6   0  5651.4   195.7   1 0.36271-0.17684-0.21622-0.38346-0.90647 0.90647  0 141.45 187.48  149.86 141.55 187.43  149.88
  -1  -6  -1 702.181  81.783   1 0.44337-0.62927-0.43323-0.16656-0.78469 0.75913  0 200.54  72.89  126.30 200.84  72.65  126.58
  -1  -6   1 824.232  85.014   1 0.45808-0.64398-0.50247-0.09732-0.73327 0.75883  0 190.02  86.40  118.86 189.81  86.56  118.81
   1  -6  -1 607.938  87.310   1 0.34594-0.16006-0.18274-0.41693-0.92029 0.89473  0 143.29 181.34  153.45 142.96 181.35  153.42
   1  -6   1 675.237  82.886   1 0.37841-0.19251-0.24994-0.34985-0.89125 0.91681  0 140.33 193.45  146.35 139.77 193.56  146.31
  -1  -6  -2  3300.8   141.4   1 0.43312-0.61902-0.39613-0.20366-0.80962 0.75851  0 206.18  65.53  130.76 205.93  65.59  130.65
  -1  -6   2  3490.7   153.4   1 0.46297-0.64887-0.53463-0.06516-0.70699 0.75810  0 183.94  93.54  115.06 183.93  93.45  115.10
   1  -6  -2  3252.7   152.9   1 0.32823-0.14235-0.14959-0.45008-0.93268 0.88157  0 144.04 175.40  156.96 144.01 175.29  156.93
   1  -6   2  3351.4   154.9   1 0.39299-0.20709-0.28362-0.31617-0.87471 0.92582  0 137.76 199.86  142.75 137.68 199.75  142.74
  -1  -6  -3  2650.9   125.1   1 0.42081-0.60671-0.35745-0.24234-0.83376 0.75708  0 210.59  58.49  134.76 210.71  58.45  134.84
  -1  -6   3  3038.4   148.2   1 0.46634-0.65224-0.56514-0.03465-0.68054 0.75722  0 177.98 100.27  111.55 177.82 100.29  111.50
   1  -6  -3  2717.7   138.1   1 0.30969-0.12381-0.11691-0.48276-0.94362 0.86695  0 144.88 169.30  160.46 144.69 169.26  160.40
   1  -6   3  2902.6   146.5   1 0.40631-0.22041-0.31722-0.28258-0.85691 0.93358  0 135.31 205.96  139.17 135.26 206.00  139.16
  -1  -6  -4 690.859  72.700   1 0.40635-0.59225-0.31732-0.28248-0.85685 0.75462  0 215.07  51.74  139.12 215.14  51.23  139.15
  -1  -6   4 612.718  89.899   1 0.46815-0.65405-0.59402-0.00577-0.65419 0.75643  0 171.64 106.87  108.04 171.50 107.09  108.03
   1  -6  -4 690.738  94.981   1 0.29052-0.10464-0.08483-0.51484-0.95310 0.85088  0 145.03 163.28  163.70 145.00 163.26  163.83
   1  -6   4 707.135  87.609   1 0.41844-0.23254-0.35054-0.24925-0.83787 0.94011  0 132.18 212.39  135.58 132.52 212.32  135.59
  -1  -6  -5 322.644  58.114   1 0.38979-0.57569-0.27594-0.32385-0.87859 0.75080  0 219.12  43.66  143.66 219.19  43.92  143.56
  -1  -6   5 282.017  68.996   1 0.46880-0.65470-0.62137 0.02158-0.62779 0.75558  0 164.16 113.87  104.30 164.98 113.88  104.65
   1  -6  -5 321.233  69.591   1 0.27066-0.08479-0.05355-0.54612-0.96118 0.83340  0 145.00 157.57  167.32 144.91 157.26  167.20
   1  -6   5 362.454  78.706   1 0.42927-0.24337-0.38349-0.21630-0.81772 0.94551  0 130.01 219.19  132.17 129.47 218.73  132.03
  -1  -6  -6  2103.5   112.6   1 0.37080-0.55670-0.23342-0.36638-0.89890 0.74555  0 222.94  36.24  148.15 222.83  36.49  148.07
  -1  -6   6  2532.3   150.2   1 0.46822-0.65413-0.64723 0.04743-0.60155 0.75490  0 157.92 120.95  101.26 158.26 120.66  101.38
   1  -6  -6  2154.1   128.3   1 0.25042-0.06455-0.02314-0.57653-0.96786 0.81452  0 144.61 151.40  170.56 144.43 151.27  170.49
   1  -6   6  2288.3   137.9   1 0.43878-0.25288-0.41596-0.18384-0.79652 0.94987  0 126.07 225.27  128.48 126.13 225.23  128.48
  -1  -6  -7  5628.1   166.9   1 0.34969-0.53556-0.19004-0.40964-0.91739 0.73850  0 225.99  29.04  152.66 226.00  29.04  152.65
  -1  -6   7  6606.4   234.7   1 0.46695-0.65285-0.67167 0.07193-0.57516 0.75406  0 151.55 127.51   98.23 151.34 127.58   98.18
   1  -6  -7  5441.8   194.1   1 0.22989-0.04401 0.00625-0.60593-0.97320 0.79430  0 143.47 145.28  173.72 143.54 145.25  173.72
   1  -6   7  6475.8   217.9   1 0.44698-0.26108-0.44783-0.15196-0.77438 0.95328  0 122.39 231.86  124.92 122.50 231.83  124.96
  -1  -6  -8 806.768  71.746   1 0.32640-0.51227-0.14628-0.45339-0.93385 0.72939  0 228.57  21.48  157.10 228.67  21.40  157.28
  -1  -6   8 929.745 110.514   1 0.46432-0.65022-0.69473 0.09499-0.54933 0.75379  0 143.78 134.24   94.98 144.28 134.38   95.10
   1  -6  -8 659.869  82.089   1 0.20914-0.02327 0.03452-0.63419-0.97728 0.77282  0 142.22 139.22  176.96 142.24 139.23  176.85
   1  -6   8 803.141  94.821   1 0.45384-0.26794-0.47903-0.12077-0.75137 0.95584  0 119.03 238.58  121.57 118.58 238.56  121.47
  -1  -6  -9  3214.7   129.5   1 0.30125-0.48713-0.10251-0.49716-0.94802 0.71801  0 230.80  13.49  161.98 230.80  13.68  161.94
  -1  -6   9  3959.7   198.2   1 0.46077-0.64667-0.71649 0.11675-0.52376 0.75378  0 136.79 141.12   92.00 137.06 141.21   92.10
   1  -6  -9  3218.1   155.1   1 0.18845-0.00258 0.06160-0.66127-0.98015 0.75014  0 140.50 133.13  179.91 140.52 133.19  179.89
   1  -6   9  3736.0   171.2   1 0.45926-0.27336-0.50952-0.09027-0.72765 0.95767  0 114.28 245.42  117.76 114.38 245.43  118.00
  -1  -6  10  3519.2   185.6   1 0.45650-0.64240-0.73702 0.13728-0.49841 0.75398  0 129.72 148.16   89.25 129.62 148.09   89.18
   1  -6 -10  2803.0   146.5   1 0.16782 0.01805 0.08739-0.68707-0.98194 0.72637  0 138.45 127.17  182.90 138.36 127.11  182.83
   1  -6  10  3511.1   170.5   1 0.46354-0.27764-0.53912-0.06067-0.70319 0.95877  0 109.83 252.33  114.58 109.91 252.43  114.57
  -1  -6  11  7631.2   264.6   1 0.45144-0.63734-0.75639 0.15665-0.47336 0.75449  0 122.26 154.93   86.40 122.03 155.02   86.33
   1  -6 -11  5640.6   199.2   1 0.14748 0.03839 0.11187-0.71154-0.98272 0.70160  0 135.70 121.01  185.68 135.76 121.00  185.65
   1  -6  11  7155.5   238.0   1 0.46657-0.28067-0.56784-0.03195-0.67814 0.95927  0 105.18 259.55  111.18 105.19 259.59  111.18
  -1  -6  12  1823.4   146.9   1 0.44570-0.63160-0.77466 0.17492-0.44862 0.75530  0 114.02 161.82   83.46 114.27 162.02   83.56
   1  -6 -12  1329.3   107.0   1 0.12755 0.05833 0.13499-0.73466-0.98260 0.67593  0 132.73 114.71  188.38 132.73 114.84  188.36
   1  -6  12 267.690  65.181   1 0.46823-0.28233-0.59570-0.00409-0.65262 0.95931  0  99.79 266.63  107.59 100.18 266.93  107.82
  -1  -6  13  5648.5   242.7   1 0.43933-0.62523-0.79187 0.19213-0.42418 0.75642  0 106.29 169.31   80.79 106.32 169.12   80.85
   1  -6 -13  4190.1   183.1   1 0.10810 0.07777 0.15672-0.75640-0.98171 0.64947  0 129.29 108.56  190.97 129.25 108.60  190.95
   1  -6  13  5697.0   217.9   1 0.46880-0.28290-0.62254 0.02275-0.62663 0.95888  0  94.81 274.54  104.51  94.93 274.47  104.51
  -1  -6  14  3048.7   189.5   1 0.43227-0.61817-0.80811 0.20837-0.40012 0.75792  0  98.42 176.37   78.27  98.20 176.30   78.20
   1  -6 -14  2422.6   144.5   1 0.08930 0.09658 0.17709-0.77676-0.98014 0.62234  0 125.52 102.38  193.42 125.31 102.30  193.41
   1  -6  14  3224.1   172.7   1 0.46817-0.28227-0.64843 0.04864-0.60029 0.95810  0  89.57 282.13  101.31  89.41 282.23  101.23
  -1  -6  15  3556.7   209.1   1 0.42474-0.61064-0.82340 0.22366-0.37631 0.75967  0  90.11 183.36   75.65  89.86 183.61   75.60
   1  -6 -15  2801.6   153.3   1 0.07114 0.11473 0.19608-0.79575-0.97800 0.59466  0 120.88  95.84  195.76 120.92  95.92  195.75
   1  -6  15  3993.6   196.8   1 0.46682-0.28092-0.67313 0.07339-0.57356 0.95692  0  83.73 290.24   98.01  83.67 290.30   97.98
  -1  -6  16 358.730 101.842   1 0.41671-0.60261-0.83779 0.23805-0.35279 0.76170  0  81.56 191.03   73.13  81.32 191.07   73.05
   1  -6 -16 231.029  64.891   1 0.05370 0.13217 0.21371-0.81338-0.97542 0.56652  0 115.48  89.57  197.98 116.04  89.42  197.97
   1  -6  16 451.186  92.523   1 0.46400-0.27810-0.69701 0.09727-0.54670 0.95561  0  77.26 298.82   94.58  77.63 298.55   94.79
  -1  -6  17  6337.4   275.8   1 0.40820-0.59410-0.85133 0.25159-0.32956 0.76404  0  72.57 198.63   70.55  72.56 198.68   70.55
   1  -6 -17  5050.2   205.0   1 0.03726 0.14863 0.23034-0.82989-0.97240 0.53777  0 110.65  82.74  200.06 110.68  82.79  200.06
   1  -6  17  7169.1   258.3   1 0.46013-0.27423-0.71989 0.12015-0.51966 0.95413  0  71.33 306.97   91.67  71.34 307.11   91.63
  -1  -6  18  2295.9   191.1   1 0.39923-0.58513-0.86406 0.26432-0.30663 0.76665  0  64.42 206.69   68.27  63.55 206.47   68.08
   1  -6 -18  1751.6   128.2   1 0.02165 0.16425 0.24542-0.84496-0.96918 0.50898  0 104.88  76.15  201.95 104.83  76.05  202.02
   1  -6  18  2498.8   167.4   1 0.45536-0.26946-0.74171 0.14197-0.49246 0.95249  0  64.49 315.67   88.53  64.75 316.00   88.50
  -1  -6  19 147.090  89.822   1 0.38984-0.57574-0.87601 0.27627-0.28396 0.76955  0  53.51 214.20   65.41  54.30 214.46   65.66
   1  -6 -19 130.375  54.376   1 0.00676 0.17913 0.25922-0.85877-0.96579 0.48004  0  99.19  69.14  203.98  98.49  69.19  203.84
   1  -6  19 244.879  81.161   1 0.44964-0.26374-0.76252 0.16278-0.46517 0.95076  0  58.08 324.77   85.68  57.90 325.23   85.41
  -1  -6  20  1274.0   170.0   1 0.38007-0.56597-0.88721 0.28747-0.26154 0.77268  0  44.75 222.47   63.33  44.79 222.68   63.28
   1  -6 -20 942.583 103.974   1-0.00711 0.19301 0.27187-0.87141-0.96231 0.45098  0  91.52  62.12  205.47  91.61  62.15  205.53
   1  -6  20  1470.8   140.1   1 0.44299-0.25709-0.78234 0.18260-0.43783 0.94898  0  50.69 334.88   82.30  50.77 334.84   82.36
  -1  -6  21 742.254 143.705   1 0.36988-0.55578-0.89771 0.29797-0.23940 0.77610  0  34.68 231.07   60.62  34.99 231.16   60.92
   1  -6  21 813.641 123.101   1 0.43535-0.24945-0.80123 0.20149-0.41049 0.94719  0  43.43 344.96   79.44  43.40 344.86   79.34
  -1  -6  22  1187.6   176.3   1 0.35932-0.54522-0.90752 0.30778-0.21749 0.77975  0  24.82 239.89   58.59  24.88 239.94   58.60
   1  -6  22  1344.5   144.9   1 0.42696-0.24106-0.81909 0.21935-0.38314 0.94540  0  35.59 354.83   76.42  35.67 355.37   76.34
  -1  -7   0 259.060  71.755   1 0.45708-0.64298-0.49600-0.20375-0.73828 0.73828  0 151.54  55.19  119.21 152.30  55.40  119.54
   1  -7   0  77.177  51.657   1 0.38790-0.20200-0.27152-0.42824-0.88080 0.88080  0  99.43 169.22  143.90  99.36 169.19  144.03
  -1  -7  -1  5526.3   221.2   1 0.45135-0.63725-0.46718-0.23258-0.76028 0.73472  0 157.44  48.06  122.86 157.30  47.99  122.80
  -1  -7   1  5696.9   233.5   1 0.46148-0.64738-0.52379-0.17597-0.71602 0.74158  0 146.95  62.84  116.31 147.04  62.73  116.36
   1  -7  -1  5838.1   230.6   1 0.37510-0.18920-0.24271-0.45705-0.89464 0.86909  0 100.73 162.82  147.06 100.89 162.78  147.08
   1  -7   1  6059.9   234.6   1 0.39984-0.21394-0.30044-0.39931-0.86595 0.89150  0  97.43 175.64  140.93  97.49 175.63  140.95
  -1  -7  -2  2639.2   153.2   1 0.44442-0.63032-0.43740-0.26236-0.78177 0.73066  0 161.72  40.86  126.04 162.01  40.50  126.12
  -1  -7   2  3024.1   171.0   1 0.46492-0.65082-0.55060-0.14916-0.69332 0.74444  0 141.59  69.81  113.27 141.50  69.98  113.22
   1  -7  -2  2803.4   158.0   1 0.36164-0.17576-0.21399-0.48562-0.90743 0.85632  0 102.25 156.56  150.17 102.09 156.42  150.11
   1  -7   2  3081.5   167.7   1 0.41088-0.22498-0.32938-0.37038-0.85011 0.90123  0  94.98 182.18  137.83  95.29 182.13  137.86
  -1  -7  -3 945.558 101.998   1 0.43618-0.62208-0.40670-0.29306-0.80271 0.72604  0 166.35  33.00  129.55 166.39  32.92  129.50
  -1  -7   3  1250.2   124.7   1 0.46724-0.65314-0.57636-0.12339-0.67044 0.74712  0 135.20  77.54  109.81 135.71  77.16  110.16
   1  -7  -3 808.407  96.280   1 0.34745-0.16157-0.18567-0.51395-0.91914 0.84247  0 103.17 150.02  153.11 102.91 150.05  153.11
   1  -7   3  1016.7   108.8   1 0.42107-0.23517-0.35822-0.34154-0.83330 0.90997  0  92.76 188.76  134.64  92.75 188.66  134.76
  -1  -7  -4  4981.1   195.7   1 0.42670-0.61260-0.37518-0.32458-0.82291 0.72067  0 170.55  25.19  133.02 170.45  25.20  132.93
  -1  -7   4  4453.7   215.6   1 0.46843-0.65433-0.60108-0.09867-0.64751 0.74974  0 129.33  84.44  106.93 129.69  84.32  107.17
   1  -7  -4  5181.2   215.7   1 0.33268-0.14681-0.15773-0.54189-0.92975 0.82753  0 103.25 143.70  156.05 103.34 143.69  156.07
   1  -7   4  5662.2   221.4   1 0.43032-0.24442-0.38687-0.31289-0.81557 0.91780  0  89.78 195.21  131.68  89.89 195.27  131.66
  -1  -7  -5  3935.3   174.1   1 0.41574-0.60164-0.34285-0.35691-0.84239 0.71460  0 174.23  17.67  136.38 174.16  17.38  136.42
  -1  -7   5  4444.2   215.0   1 0.46880-0.65470-0.62481-0.07495-0.62438 0.75217  0 123.54  91.43  104.18 123.43  91.45  104.22
   1  -7  -5  4012.9   191.2   1 0.31741-0.13154-0.13028-0.56934-0.93929 0.81151  0 103.25 137.40  158.97 103.40 137.32  158.98
   1  -7   5  4440.8   200.3   1 0.43859-0.25269-0.41527-0.28449-0.79699 0.92478  0  86.69 201.82  128.61  86.72 201.96  128.56
  -1  -7  -6  2157.6   135.5   1 0.40358-0.58948-0.30994-0.38981-0.86085 0.70750  2 177.65  10.23  140.01 177.48   9.40  139.94
  -1  -7   6  2877.7   175.7   1 0.46821-0.65411-0.64752-0.05224-0.60124 0.75459  0 117.10  98.60  101.35 116.93  98.56  101.35
   1  -7  -6  2385.4   150.5   1 0.30179-0.11591-0.10340-0.59622-0.94775 0.79441  0 102.86 131.08  161.87 103.09 130.94  161.84
   1  -7   6  2580.7   159.1   1 0.44589-0.25999-0.44332-0.25644-0.77759 0.93094  0  83.35 208.73  125.49  83.25 208.73  125.46
  -1  -7   7  4616.8   228.8   1 0.46716-0.65306-0.66926-0.03043-0.57779 0.75669  0 110.25 105.93   98.45 110.22 105.83   98.49
   1  -7  -7  3610.8   175.5   1 0.28577-0.09990-0.07720-0.62241-0.95518 0.77629  0 102.09 124.51  164.65 102.36 124.52  164.65
   1  -7   7  4619.2   205.9   1 0.45216-0.26626-0.47097-0.22878-0.75745 0.93636  0  79.29 215.62  122.39  79.47 215.61  122.38
  -1  -7   8  2030.0   158.4   1 0.46494-0.65084-0.69003-0.00966-0.55470 0.75916  0 102.97 112.89   95.54 103.29 112.93   95.73
   1  -7  -8  1752.8   127.2   1 0.26949-0.08362-0.05176-0.64786-0.96161 0.75716  0 101.36 118.29  167.47 101.22 118.06  167.39
   1  -7   8  2108.4   149.4   1 0.45733-0.27143-0.49819-0.20157-0.73665 0.94112  0  75.63 222.57  119.40  75.39 222.62  119.30
  -1  -7   9  4092.8   222.5   1 0.46195-0.64785-0.70987 0.01017-0.53168 0.76170  0  96.17 120.11   93.04  96.16 120.07   93.02
   1  -7  -9  3639.2   185.9   1 0.25314-0.06727-0.02713-0.67249-0.96705 0.73704  0  99.39 111.55  170.04  99.67 111.57  170.06
   1  -7   9  4146.6   198.5   1 0.46163-0.27573-0.52482-0.17493-0.71516 0.94518  0  71.07 229.71  116.24  71.01 229.75  116.24
  -1  -7  10 944.971 132.313   1 0.45832-0.64422-0.72880 0.02911-0.50871 0.76428  0  88.66 127.29   90.37  88.75 127.23   90.36
   1  -7 -10 592.329  96.724   1 0.23674-0.05087-0.00337-0.69624-0.97157 0.71600  0  98.05 105.39  172.60  97.68 105.00  172.66
   1  -7  10  1120.6   119.3   1 0.46495-0.27905-0.55087-0.14889-0.69309 0.94867  0  66.75 236.78  113.36  66.34 237.02  113.19
  -1  -7  11  2198.3   172.9   1 0.45405-0.63995-0.74686 0.04716-0.48584 0.76697  0  81.13 134.48   87.56  81.15 134.45   87.75
   1  -7 -11  1648.4   137.5   1 0.22034-0.03446 0.01943-0.71904-0.97523 0.69411  0  95.14  98.24  175.13  95.25  98.36  175.18
   1  -7  11  1927.8   150.3   1 0.46723-0.28133-0.57630-0.12346-0.67050 0.95164  0  61.55 244.38  110.27  61.37 244.45  110.17
  -1  -7  12  2255.9   177.1   1 0.44916-0.63506-0.76407 0.06437-0.46309 0.76978  0  73.41 141.93   85.27  73.32 141.74   85.18
   1  -7 -12  1785.7   140.4   1 0.20413-0.01825 0.04126-0.74087-0.97808 0.67140  0  92.31  91.56  177.56  92.37  91.64  177.60
   1  -7  12  2115.1   156.3   1 0.46843-0.28253-0.60112-0.09864-0.64748 0.95417  0  56.04 252.31  107.16  56.10 252.09  107.16
  -1  -7  13 448.424 106.235   1 0.44368-0.62958-0.78046 0.08077-0.44049 0.77273  0  65.20 149.13   82.62  65.25 149.12   82.65
   1  -7 -13 309.889  76.175   1 0.18809-0.00222 0.06206-0.76168-0.98019 0.64795  0  88.59  84.75  179.83  89.04  84.83  179.94
   1  -7  13 484.746  98.747   1 0.46879-0.28289-0.62519-0.07457-0.62400 0.95625  0  51.19 260.02  104.34  50.54 259.91  104.18
  -1  -7  14  1208.5   149.5   1 0.43754-0.62344-0.79608 0.09639-0.41811 0.77591  0  56.33 156.49   80.17  56.96 156.58   80.17
   1  -7 -14 623.931 100.829   1 0.17235 0.01352 0.08182-0.78143-0.98163 0.62384  0  85.00  77.84  182.11  85.23  77.91  182.19
   1  -7  14  1004.4   122.1   1 0.46817-0.28226-0.64856-0.05120-0.60016 0.95797  0  45.07 268.19  101.24  44.68 267.97  101.21
  -1  -7  15  3090.7   220.0   1 0.43096-0.61686-0.81093 0.11123-0.39582 0.77918  0  48.17 164.02   77.61  48.40 164.17   77.73
   1  -7 -15  2127.2   147.7   1 0.15701 0.02887 0.10052-0.80014-0.98247 0.59912  0  80.93  70.76  184.27  80.93  70.85  184.34
   1  -7  15  3126.7   188.8   1 0.46701-0.28111-0.67101-0.02869-0.57589 0.95925  0  38.70 276.17   98.29  38.57 276.36   98.26
  -1  -7  16  1475.0   173.1   1 0.42389-0.60979-0.82504 0.12534-0.37367 0.78259  0  39.41 171.86   75.37  39.56 171.91   75.31
   1  -7 -16 936.859 107.869   1 0.14212 0.04375 0.11816-0.81778-0.98277 0.57387  0  76.28  63.37  186.46  76.13  63.66  186.38
   1  -7  16  1547.5   146.9   1 0.46457-0.27867-0.69288-0.00682-0.55145 0.96036  0  32.43 284.58   95.46  32.10 284.94   95.35
  -1  -7  17  1646.4   190.2   1 0.41633-0.60223-0.83844 0.13874-0.35171 0.78618  0  29.81 179.73   72.78  30.43 179.81   72.93
   1  -7 -17  1043.2   114.6   1 0.12776 0.05811 0.13474-0.83436-0.98261 0.54815  0  70.75  56.11  188.19  70.81  56.30  188.33
   1  -7  17  1633.3   158.8   1 0.46123-0.27533-0.71399 0.01429-0.52677 0.96124  0  25.43 293.66   92.47  25.31 293.82   92.45
  -1  -8   0 320.581  86.772   1 0.46220-0.64810-0.52891-0.27081-0.71177 0.71177  0 103.03  27.67  115.68 103.16  27.79  115.76
   1  -8   0 153.441  63.387   1 0.40971-0.22381-0.32623-0.47349-0.85189 0.85189  0  51.12 149.89  138.34  50.84 149.80  138.20
  -1  -8  -1  1564.2   163.6   1 0.45853-0.64443-0.50510-0.29463-0.73119 0.70563  0 108.03  20.06  118.56 107.89  19.79  118.51
  -1  -8   1  1778.3   151.8   1 0.46508-0.65098-0.55210-0.24762-0.69201 0.71757  0  98.01  35.96  113.01  98.13  35.65  113.05
   1  -8  -1  1878.2   157.5   1 0.40014-0.21424-0.30120-0.49852-0.86554 0.83999  0  52.44 142.97  140.93  52.43 142.94  140.87
   1  -8   1  2140.2   169.1   1 0.41870-0.23280-0.35131-0.44841-0.83742 0.86298  0  48.93 156.73  135.52  48.88 156.67  135.51
  -1  -8  -2  1183.8   135.1   1 0.45418-0.64008-0.48074-0.31899-0.75007 0.69896  2 112.15  11.89  121.22 112.31  11.71  121.27
  -1  -8   2  1238.9   148.3   1 0.46711-0.65301-0.57464-0.22509-0.67201 0.72313  0  92.81  42.94  110.24  92.79  43.39  110.37
   1  -8  -2  1060.5   151.9   1 0.38995-0.20404-0.27631-0.52341-0.87840 0.82729  0  53.58 136.12  143.61  53.67 136.11  143.52
   1  -8   2  1106.8   125.6   1 0.42708-0.24118-0.37637-0.42335-0.82216 0.87327  0  46.08 163.33  132.72  46.55 163.57  132.80
  -1  -8   3  1472.1   149.4   1 0.46826-0.65416-0.59649-0.20323-0.65187 0.72854  0  87.50  51.17  107.79  87.19  51.10  107.73
   1  -8  -3  1830.7   154.2   1 0.37917-0.19327-0.25163-0.54809-0.89046 0.81378  0  54.61 129.13  146.16  54.54 129.27  146.14
   1  -8   3  1958.4   165.0   1 0.43465-0.24875-0.40140-0.39832-0.80620 0.88287  0  43.81 170.53  130.10  43.90 170.52  130.07
  -1  -8   4 426.416  99.537   1 0.46879-0.65469-0.61769-0.18203-0.63142 0.73365  0  81.12  58.90  105.06  81.31  58.74  105.11
   1  -8  -4 246.401  75.894   1 0.36789-0.18199-0.22722-0.57250-0.90168 0.79945  0  55.22 122.28  148.65  55.01 122.39  148.73
   1  -8   4 421.314  98.905   1 0.44156-0.25566-0.42628-0.37344-0.78950 0.89173  0  40.75 177.68  127.44  40.91 177.52  127.35
  -1  -8   5  1005.2   161.8   1 0.46857-0.65447-0.63821-0.16152-0.61085 0.73864  0  75.42  66.48  102.49  75.16  66.33  102.54
   1  -8  -5 755.841 118.576   1 0.35623-0.17036-0.20302-0.59654-0.91207 0.78429  0  55.39 115.74  151.39  55.18 115.57  151.27
   1  -8   5  1000.1   122.9   1 0.44772-0.26182-0.45098-0.34874-0.77211 0.89990  0  37.26 184.65  124.52  37.58 184.60  124.61
  -1  -8   6 328.132  95.326   1 0.46765-0.65355-0.65804-0.14168-0.59016 0.74351  0  67.94  73.81   99.97  68.72  73.87   99.99
   1  -8  -6 302.789  84.288   1 0.34417-0.15829-0.17933-0.62023-0.92162 0.76828  0  55.29 109.02  153.94  54.87 108.64  153.78
   1  -8   6 404.991  98.697   1 0.45310-0.26720-0.47544-0.32428-0.75409 0.90744  0  33.72 191.91  121.71  33.91 191.77  121.87
  -1  -8   7 412.235 116.087   1 0.46642-0.65232-0.67720-0.12246-0.56908 0.74798  0  62.12  81.58   97.44  62.07  81.60   97.45
   1  -8  -7 359.261  86.607   1 0.33180-0.14593-0.15611-0.64345-0.93034 0.75145  0  53.12 101.34  156.01  54.14 101.66  156.24
   1  -8   7 398.555  98.215   1 0.45759-0.27169-0.49965-0.30007-0.73550 0.91441  0  30.25 199.09  119.26  29.91 199.04  119.13
  -1  -8   8 193.158  81.648   1 0.46419-0.65009-0.69566-0.10399-0.54825 0.75271  0  55.13  89.57   94.88  55.11  89.12   94.97
   1  -8  -8 113.389  60.711   1 0.31920-0.13332-0.13341-0.66616-0.93825 0.73380  0  52.98  94.77  158.46  53.00  94.62  158.65
   1  -8   8 154.457  74.510   1 0.46143-0.27553-0.52347-0.27625-0.71628 0.92074  0  25.62 206.70  116.47  25.59 206.43  116.39
  -1  -8   9  1050.4   171.6   1 0.46133-0.64723-0.71346-0.08619-0.52740 0.75741  0  47.90  96.71   92.56  47.91  96.67   92.52
   1  -8  -9 905.048 130.914   1 0.30647-0.12060-0.11128-0.68829-0.94535 0.71534  0  51.88  87.40  161.18  51.45  87.51  161.00
   1  -8   9  1132.5   133.2   1 0.46451-0.27861-0.54690-0.25282-0.69651 0.92653  0  20.67 213.80  113.66  20.93 213.95  113.66
   2   0   0 502.250  39.226   1 0.18592 0.18592-0.98102 0.98102 0.05515-0.05515  0 481.92 391.76   29.13 481.75 392.37   29.04
   2   0   0 387.206  39.898   1 0.18587 0.18587 0.06489-0.06489-0.98043 0.98043  0 280.61 363.28  180.47 280.50 363.35  180.26
   2   0  -1 12074.8   170.7   1 0.19021 0.18162-0.98049 0.98049 0.04969-0.07525  0 491.81 386.91   29.67 491.88 386.96   29.66
   2   0  -1 10692.1   162.0   1 0.11922 0.25253 0.14439-0.14439-0.98231 0.95676  0 273.69 356.58  189.52 273.76 356.58  189.47
   2   0   1 12664.0   160.5   1 0.18273 0.18910-0.98138 0.98138 0.05919-0.03363  0 471.65 397.88   28.56 471.69 397.90   28.58
   2   0   1 10361.6   146.9   1 0.25323 0.11851-0.02726 0.02726-0.96702 0.99258  0 287.28 370.50  170.07 287.36 370.39  170.05
   2   0  -2 389.899  39.526   1 0.19535 0.17648-0.97979 0.97979 0.04307-0.09418  2 501.35 381.49   30.50 502.17 381.68   30.40
   2   0  -2 351.936  40.610   1 0.05524 0.31651 0.21218-0.21218-0.97567 0.92456  0 267.03 349.66  198.01 267.07 350.04  197.77
   2   0   2 454.977  34.203   1 0.18099 0.19084-0.98157 0.98157 0.06137-0.01026  0 461.89 402.75   28.24 461.62 403.55   28.33
   2   0   2 363.092  35.029   1 0.31845 0.05329-0.13210 0.13210-0.93869 0.98980  0 294.34 377.68  158.90 294.39 377.74  158.79
   2   0  -3  2654.6    90.3   1-0.00484 0.37663 0.26982-0.26982-0.96290 0.88620  0 260.33 343.68  205.28 260.37 343.67  205.26
   2   0   3  3273.7    75.6   1 0.18123 0.19061-0.98154 0.98154 0.06108 0.01559  0 451.32 409.38   28.34 451.42 409.31   28.36
   2   0   3  2879.2    72.3   1 0.37775-0.00594-0.24846 0.24846-0.89195 0.96862  0 301.61 385.53  146.51 301.69 385.42  146.47
   2   0   4 619.432  34.342   1 0.18421 0.18762-0.98121 0.98121 0.05731 0.04492  0 440.98 415.20   28.78 440.89 415.17   28.79
   2   0   4 606.255  36.856   1 0.42639-0.05459-0.37422 0.37422-0.82350 0.92573  0 309.41 393.46  133.08 309.45 393.45  133.03
   2   0   5  9350.2   109.1   1 0.19126 0.18057-0.98035 0.98035 0.04834 0.07944  0 429.66 421.11   29.72 429.75 421.07   29.81
   2   0   5  9012.0   107.0   1 0.45877-0.08697-0.50654 0.50654-0.73003 0.85782  0 317.99 402.15  118.23 317.95 401.97  118.34
   2   0   6  6724.2    83.5   1 0.20495 0.16688-0.97830 0.97830 0.03051 0.12284  0 417.39 426.90   31.67 417.38 426.92   31.81
   2   0   6  6915.3    84.2   1 0.46850-0.09670-0.64048 0.64048-0.60852 0.76186  0 327.75 411.17  102.12 327.73 411.07  102.25
  -2  -1   0 31170.4   283.8   1 0.06378-0.43561-0.97891 0.87896 0.19410-0.19410  0 284.33 140.93   12.58 284.29 141.03   12.60
   2  -1   0 26623.7   280.6   1 0.20874 0.16301 0.03507-0.13501-0.97734 0.97734  0 254.37 338.45  176.92 254.44 338.37  176.91
   2   1   0 29930.7   213.2   1 0.42206-0.05026-0.82843 0.92839-0.36819 0.36819  0 442.09 414.48   74.87 442.48 414.44   74.72
   2   1   0 25349.1   194.5   1 0.17981 0.19193 0.07252 0.02743-0.98102 0.98102  0 308.09 392.51  181.16 308.15 392.41  181.13
  -2  -1  -1 11970.3   171.4   1 0.04780-0.41963-0.97649 0.87654 0.21020-0.23576  0 291.03 134.74   10.59 291.10 134.74   10.58
  -2  -1   1 12132.4   185.0   1 0.07580-0.44763-0.98043 0.88048 0.18171-0.15616  0 277.32 147.24   14.08 277.28 147.29   14.14
   2  -1  -1 10370.9   180.4   1 0.15902 0.21272 0.09809-0.19804-0.98239 0.95683  0 250.41 332.21  184.03 250.45 332.14  184.06
   2  -1   1 10725.7   176.2   1 0.25754 0.11421-0.03362-0.06632-0.96568 0.99124  0 258.11 344.89  169.35 258.16 344.78  169.35
   2   1  -1 11393.1   144.2   1 0.40708-0.03528-0.85298 0.95294-0.32665 0.30109  0 458.50 410.35   70.27 458.64 410.37   70.23
   2   1  -1  9668.8   133.4   1 0.08362 0.28812 0.18309-0.08315-0.97953 0.95398  0 295.81 384.51  194.22 295.95 384.47  194.15
   2   1   1 11800.0   117.3   1 0.44138-0.06958-0.78665 0.88660-0.43171 0.45727  0 423.62 418.05   81.81 423.80 418.12   81.68
   2   1   1 10087.0   107.1   1 0.28717 0.08458-0.07944 0.17939-0.95458 0.98014  0 323.05 401.21  164.50 323.14 401.14  164.41
  -2  -1  -2 18564.0   207.5   1 0.02689-0.39872-0.97268 0.87273 0.23060-0.28172  0 297.63 128.33    7.94 297.60 128.42    7.97
  -2  -1   2 18215.5   234.0   1 0.08464-0.45647-0.98138 0.88143 0.17245-0.12134  0 270.13 153.48   15.23 270.10 153.53   15.28
   2  -1  -2 15906.2   226.3   1 0.10954 0.26221 0.15514-0.25509-0.98180 0.93069  0 246.15 326.12  190.75 246.19 326.05  190.76
   2  -1   2 16997.3   216.8   1 0.30412 0.06763-0.10731 0.00736-0.94657 0.99768  0 261.51 351.52  161.42 261.59 351.37  161.42
   2   1  -2 17025.0   190.7   1 0.39554-0.02374-0.86891 0.96886-0.29757 0.24646  0 473.32 406.17   67.15 473.52 406.17   67.12
  -2  -1  -3 12400.3   162.5   1-0.00018-0.37165-0.96670 0.86675 0.25593-0.33260  0 303.67 122.04    4.65 303.71 122.05    4.64
  -2  -1   3 11595.0   194.0   1 0.09089-0.46272-0.98196 0.88201 0.16581-0.08914  0 262.83 159.69   16.04 262.78 159.75   16.09
   2  -1  -3 10053.9   184.9   1 0.06122 0.31052 0.20615-0.30610-0.97660 0.89993  0 241.61 320.19  196.99 241.67 320.12  197.02
   2  -1   3 11113.3   173.1   1 0.34710 0.02465-0.18499 0.08505-0.91940 0.99607  0 264.66 358.29  153.20 264.74 358.14  153.18
   2   1  -3 11175.0   163.9   1 0.38671-0.01491-0.87973 0.97969-0.27663 0.19996  0 487.56 401.93   64.90 487.72 401.93   64.88
  -2  -1   4  9263.2   180.0   1 0.09502-0.46685-0.98230 0.88235 0.16143-0.05920  0 255.43 165.94   16.63 255.37 165.96   16.62
   2  -1  -4  7940.7   168.0   1 0.01488 0.35690 0.25178-0.35170-0.96767 0.86541  0 236.86 314.35  202.81 236.88 314.29  202.85
   2  -1   4  8845.6   152.5   1 0.38515-0.01335-0.26516 0.16519-0.88394 0.98617  0 267.56 365.26  144.70 267.58 365.13  144.70
   2   1  -4  8445.9   151.6   1 0.38003-0.00823-0.88725 0.98721-0.26146 0.15923  2 501.20 397.67   63.33 501.58 397.72   63.27
  -2  -1  -5  5114.5    95.1   1 0.05793-0.42968 0.20947-0.30942-0.97610 0.84831  0 474.76  99.19  197.52 474.78  99.23  197.43
  -2  -1   5  5961.0   151.0   1 0.09739-0.46922-0.98248 0.88254 0.15888-0.03110  0 247.93 172.16   16.93 247.87 172.18   16.93
   2  -1   5  5870.7   123.5   1 0.41699-0.04519-0.34639 0.24642-0.84032 0.96811  0 270.12 372.44  136.02 270.15 372.31  136.04
  -2  -1  -6  4059.3    83.6   1 0.14293-0.51467 0.11722-0.21716-0.98277 0.82943  0 470.43  92.48  186.31 470.42  92.53  186.27
  -2  -1   6  4885.8   140.8   1 0.09827-0.47010-0.98255 0.88260 0.15793-0.00459  0 240.41 178.36   16.98 240.30 178.41   17.04
   2  -1   6  4788.7   110.4   1 0.44170-0.06989-0.42678 0.32682-0.78915 0.94250  0 272.38 379.89  127.32 272.42 379.71  127.29
  -2  -1  -7  80.202  20.507   1 0.22225-0.59400 0.01680-0.11675-0.97484 0.79595  0 466.55  86.32  174.62 467.43  85.73  174.89
  -2  -1   7 104.762  38.167   1 0.09789-0.46972-0.98252 0.88257 0.15833 0.02057  0 232.79 184.24   16.83 232.67 184.67   16.99
   2  -1   7 139.552  29.470   1 0.45850-0.08670-0.50496 0.40499-0.73130 0.91020  0 274.58 387.04  118.54 274.41 387.36  118.53
  -2  -1  -8 693.948  39.004   1 0.29168-0.66343-0.08672-0.01323-0.95258 0.74813  0 465.95  78.61  163.60 466.00  78.75  163.63
  -2  -1   8 698.615  67.904   1 0.09644-0.46827-0.98241 0.88246 0.15991 0.04455  0 224.73 190.99   16.82 224.99 190.97   16.80
   2  -1   8 810.608  50.785   1 0.46741-0.09561-0.57880 0.47884-0.66822 0.87268  0 276.04 395.41  109.91 276.11 395.27  109.87
  -2  -1  -9  3304.5    75.4   1 0.34818-0.71992-0.18709 0.08714-0.91857 0.68856  0 466.42  71.41  153.05 466.29  71.54  152.96
  -2  -1   9  3779.6   137.3   1 0.09402-0.46585-0.98223 0.88228 0.16245 0.06756  0 217.25 197.28   16.53 217.25 197.32   16.50
   2  -1   9  3968.1    97.5   1 0.46820-0.09640-0.64769 0.54773-0.60106 0.83108  0 277.49 403.53  101.31 277.58 403.47  101.32
  -2  -1 -10  2550.0    69.0   1 0.39078-0.76258-0.27834 0.17837-0.87739 0.62182  0 468.39  64.14  143.28 468.42  64.07  143.30
  -2  -1  10  2846.4   124.6   1 0.09080-0.46263-0.98195 0.88201 0.16591 0.08966  0 209.45 203.65   16.05 209.46 203.74   16.08
   2  -1  10  3372.2    90.5   1 0.46198-0.09018-0.70970 0.60975-0.53188 0.78745  0 278.72 412.09   92.97 278.82 411.99   93.05
  -2  -1 -11  4869.4    94.3   1 0.42088-0.79268-0.35766 0.25769-0.83363 0.55250  0 472.28  56.19  134.88 472.25  56.29  134.82
  -2  -1  11  5227.8   168.3   1 0.08684-0.45867-0.98159 0.88164 0.17011 0.11101  0 201.57 210.20   15.59 201.63 210.23   15.56
   2  -1  11  5831.8   114.7   1 0.44878-0.07698-0.76530 0.66534-0.46143 0.74256  0 279.74 420.89   84.92 279.87 420.81   84.99
  -2  -1 -12  8011.0   123.1   1 0.44084-0.81264-0.42354 0.32358-0.79137 0.48468  0 477.66  48.15  127.65 477.69  48.19  127.65
  -2  -1  12  8392.3   213.2   1 0.08223-0.45406-0.98113 0.88118 0.17499 0.13170  0 193.83 216.78   14.95 193.73 216.81   14.97
   2  -1  12  9986.3   148.1   1 0.42944-0.05764-0.81409 0.71413-0.39095 0.69763  0 280.61 430.03   77.19 280.76 430.00   77.19
  -2  -1 -13  3360.8    85.5   1 0.45337-0.82517-0.47678 0.37682-0.75308 0.42083  0 484.53  39.97  121.67 484.75  39.67  121.72
  -2  -1  13  3533.6   147.0   1 0.07702-0.44885-0.98057 0.88062 0.18044 0.15180  0 185.92 223.36   14.33 185.77 223.49   14.30
   2  -1  13  3812.3    94.1   1 0.40517-0.03337-0.85578 0.75582-0.32168 0.65393  0 281.30 439.54   69.74 281.55 439.59   69.70
  -2  -1 -14 709.735  45.272   1 0.46079-0.83259-0.51921 0.41925-0.71979 0.36198  0 492.97  31.12  116.76 493.17  30.77  116.88
  -2  -1  14 830.253  86.922   1 0.07127-0.44310-0.97988 0.87994 0.18641 0.17139  0 177.80 230.17   13.54 177.75 230.30   13.56
   2  -1  14 930.167  53.247   1 0.37681-0.00501-0.89068 0.79073-0.25435 0.61215  0 282.17 449.48   62.55 282.28 449.64   62.51
  -2  -1 -15  1076.3    61.7   1 0.46507-0.83687-0.55199 0.45203-0.69211 0.30874  2 502.36  21.43  112.95 502.93  21.39  113.06
  -2  -1  15  1180.9    99.9   1 0.06502-0.43685-0.97907 0.87913 0.19284 0.19051  0 169.65 237.02   12.73 169.65 237.25   12.76
   2  -1  15  1110.8    56.5   1 0.34495 0.02685-0.91934 0.81938-0.18926 0.57261  0 282.98 460.15   55.55 283.03 460.16   55.60
  -2  -1  16 979.701  98.410   1 0.05830-0.43013-0.97813 0.87818 0.19966 0.20925  0 161.20 244.34   11.79 161.46 244.35   11.91
   2  -1  16  1017.9    54.5   1 0.31017 0.06166-0.94221 0.84226-0.12662 0.53553  0 283.88 471.28   49.01 283.97 471.28   48.92
  -2  -1  17  4539.2   179.8   1 0.05116-0.42299-0.97703 0.87708 0.20686 0.22760  0 153.22 251.44   11.04 153.19 251.62   11.00
   2  -1  17  4785.3   102.7   1 0.27323 0.09860-0.95963 0.85968-0.06676 0.50122  0 284.95 483.09   42.51 285.04 483.00   42.48
  -2  -1  18 807.259 105.033   1 0.04359-0.41542-0.97578 0.87583 0.21437 0.24565  0 144.94 258.55   10.24 144.81 259.09   10.05
   2  -1  18 773.775  48.039   1 0.23428 0.13755-0.97212 0.87218-0.00943 0.46945  2 286.11 495.01   36.36 286.43 495.41   36.24
  -2  -1  19  3547.8   171.0   1 0.03562-0.40745-0.97436 0.87441 0.22216 0.26342  0 136.48 266.63    9.11 136.32 266.77    9.05
  -2  -1  20  2626.1   159.9   1 0.02729-0.39912-0.97276 0.87281 0.23022 0.28091  0 127.71 274.63    8.07 127.71 274.70    8.02
  -2  -1  21 604.404 100.382   1 0.01858-0.39041-0.97096 0.87102 0.23851 0.29819  0 118.98 283.07    6.68 118.95 282.89    6.94
  -2  -1  22  86.544  63.460   1 0.00951-0.38134-0.96897 0.86902 0.24700 0.31525  0 109.40 291.54    5.40 110.04 291.38    5.82
  -2  -1  23  5634.2   231.6   1 0.00009-0.37192-0.96676 0.86681 0.25568 0.33213  0 101.04 300.32    4.66 100.96 300.20    4.67
  -2  -1  24  3567.3   194.0   1-0.00966-0.36217-0.96433 0.86438 0.26454 0.34883  0  91.69 309.33    3.50  91.69 309.37    3.48
  -2  -1  25  3025.4   185.2   1-0.01976-0.35207-0.96166 0.86171 0.27354 0.36538  0  82.30 318.71    2.28  82.21 318.95    2.26
  -2  -2   0 559.156  49.468   1 0.27572-0.64755-0.95864 0.75875-0.07061 0.07061  0 287.79 117.82   42.83 287.95 117.87   42.90
   2  -2   0 425.413  52.311   1 0.23734 0.13440-0.00422-0.19567-0.97142 0.97142  0 227.52 316.34  172.57 227.69 316.30  172.57
  -2  -2  -1  4133.1   104.1   1 0.27929-0.65112-0.95718 0.75729-0.07618 0.05062  0 297.11 110.86   43.39 296.65 111.20   43.50
  -2  -2   1  4447.2   115.6   1 0.27137-0.64320-0.96035 0.76046-0.06389 0.08945  0 278.42 124.65   42.12 279.31 124.46   42.17
   2  -2  -1  3454.7   119.0   1 0.19900 0.17275 0.04798-0.24787-0.97882 0.95327  0 225.25 310.32  178.40 225.31 310.33  178.36
   2  -2   1  3615.8   119.1   1 0.27450 0.09725-0.05947-0.14042-0.95975 0.98530  0 229.60 322.63  166.49 229.73 322.42  166.56
   2   2  -1  4218.3    74.0   1 0.45713-0.08533-0.49707 0.69700-0.73753 0.71198  0 427.51 436.52  118.70 425.68 436.59  119.43
   2   2  -1  3340.2    65.4   1 0.06398 0.30776 0.20335-0.00346-0.97701 0.95146  0 318.81 417.16  196.92 319.24 417.18  196.66
  -2  -2  -2 42571.1   302.7   1 0.28186-0.65369-0.95610 0.75620-0.08022 0.02911  0 305.58 104.30   43.94 305.40 104.44   43.94
  -2  -2   2 40304.2   350.6   1 0.26639-0.63822-0.96222 0.76233-0.05630 0.10741  0 270.79 130.89   41.36 270.73 130.98   41.35
   2  -2  -2 34341.2   364.9   1 0.16010 0.21164 0.09679-0.29668-0.98234 0.93123  0 222.55 304.58  183.87 222.59 304.48  183.91
   2  -2   2 37122.0   364.5   1 0.30985 0.06190-0.11719-0.08270-0.94354 0.99465  0 231.37 328.79  160.41 231.43 328.68  160.37
   2   2  -2 37236.9   249.5   1 0.46791-0.09610-0.58687 0.78680-0.66079 0.60968  0 448.91 434.36  108.97 449.00 434.32  108.89
  -2  -2  -3 24897.8   221.1   1 0.28310-0.65493-0.95556 0.75567-0.08218 0.00551  0 314.31  97.51   44.17 314.19  97.58   44.15
  -2  -2   3 24517.0   284.8   1 0.26090-0.63273-0.96417 0.76428-0.04796 0.12463  0 262.17 137.37   40.45 262.20 137.46   40.45
   2  -2  -3 20162.7   283.2   1 0.12130 0.25045 0.14206-0.34195-0.98240 0.90573  0 219.50 298.76  189.21 219.53 298.74  189.20
   2  -2   3 22252.1   281.6   1 0.34279 0.02895-0.17671-0.02318-0.92264 0.99931  0 232.72 335.24  154.06 232.78 335.09  154.06
   2   2  -3 23107.0   218.6   1 0.46842-0.09661-0.64306 0.84299-0.60586 0.52919  0 468.84 431.38  101.87 468.48 431.41  101.92
  -2  -2  -4 47792.4   285.6   1 0.28247-0.65430-0.95583 0.75594-0.08119-0.02104  0 323.20  90.47   44.09 323.01  90.60   44.04
  -2  -2   4 44077.8   401.6   1 0.25495-0.62678-0.96616 0.76627-0.03913 0.14136  0 253.80 143.80   39.50 253.72 143.90   39.49
   2  -2  -4 39179.7   398.8   1 0.08308 0.28866 0.18366-0.38355-0.97947 0.87725  0 216.09 293.17  194.22 216.15 293.12  194.22
   2  -2   4 42354.8   384.3   1 0.37268-0.00088-0.23745 0.03752-0.89706 0.99930  0 233.73 341.84  147.63 233.78 341.68  147.64
   2   2  -4 43793.8   323.1   1 0.46585-0.09405-0.68254 0.88245-0.56314 0.46091  0 486.26 428.23   96.84 486.44 428.21   96.74
  -2  -2  -5 21894.7   180.6   1 0.27909-0.65092-0.95726 0.75737-0.07587-0.05192  0 331.89  83.47   43.56 331.78  83.49   43.47
  -2  -2   5 20172.9   279.7   1 0.24861-0.62044-0.96814 0.76825-0.02985 0.15764  0 245.33 150.21   38.47 245.28 150.31   38.48
   2  -2  -5 18258.3   277.4   1 0.04588 0.32587 0.22154-0.42143-0.97407 0.84629  0 212.37 287.68  198.92 212.43 287.61  198.96
   2  -2   5 20032.7   264.5   1 0.39907-0.02727-0.29852 0.09859-0.86697 0.99475  0 234.42 348.55  141.14 234.46 348.42  141.15
   2   2  -5 18423.5   263.5   1 0.46174-0.08994-0.71112 0.91103-0.53020 0.40241  2 502.43 424.95   93.06 503.24 424.94   92.85
  -2  -2  -6 24556.8   174.0   1 0.27136-0.64319-0.96035 0.76046-0.06388-0.08946  0 340.65  76.14   42.29 340.42  76.25   42.17
  -2  -2   6 23986.9   311.2   1 0.24190-0.61373-0.97009 0.77019-0.02024 0.17358  0 237.01 156.65   37.44 236.87 156.72   37.43
   2  -2  -6 21074.4   301.8   1 0.01015 0.36163 0.25618-0.45603-0.96657 0.81318  0 208.37 282.20  203.41 208.38 282.16  203.43
   2  -2   6 24562.9   291.2   1 0.42145-0.04965-0.35935 0.15942-0.83262 0.98596  0 234.78 355.47  134.68 234.82 355.35  134.64
  -2  -2  -7  4927.0    69.8   1 0.10122-0.47296 0.16424-0.36413-0.98121 0.80232  0 438.35  60.84  192.22 438.15  60.69  191.86
  -2  -2   7  5693.2   160.5   1 0.23489-0.60672-0.97197 0.77207-0.01029 0.18919  0 228.75 163.05   36.33 228.48 163.12   36.33
   2  -2   7  5769.2   144.3   1 0.43963-0.06783-0.41905 0.21912-0.79443 0.97334  0 234.83 362.61  128.09 234.87 362.48  128.14
  -2  -2   8  5904.5   168.2   1 0.22758-0.59941-0.97376 0.77387-0.00010 0.20455  0 220.13 169.44   35.22 220.10 169.54   35.21
   2  -2   8  6378.7   150.9   1 0.45342-0.08162-0.47701 0.27708-0.75291 0.95738  0 234.57 369.95  121.73 234.61 369.83  121.70
  -2  -2   9  5206.9   164.5   1 0.21999-0.59182-0.97545 0.77555 0.01032 0.21969  0 211.87 175.93   34.06 211.73 175.99   34.06
   2  -2   9  5770.0   143.8   1 0.46272-0.09092-0.53273 0.33279-0.70859 0.93861  0 234.04 377.56  115.28 234.07 377.43  115.32
  -2  -2  10  1507.8    98.1   1 0.21215-0.58398-0.97701 0.77712 0.02093 0.23464  0 203.63 182.53   32.78 203.36 182.48   32.88
   2  -2  10  1659.3    82.7   1 0.46782-0.09602-0.58544 0.38551-0.66211 0.91769  0 233.25 385.20  109.06 233.27 385.26  109.07
  -2  -2  11  1905.9   111.3   1 0.20405-0.57588-0.97845 0.77855 0.03169 0.24943  0 195.13 188.93   31.70 194.96 189.03   31.68
   2  -2  11  2071.0    91.1   1 0.46865-0.09684-0.63515 0.43522-0.61396 0.89510  0 232.24 393.50  102.95 232.23 393.39  102.92
  -2  -2  12 301.051  62.064   1 0.19571-0.56754-0.97974 0.77984 0.04260 0.26409  0 186.61 195.34   30.54 186.54 195.66   30.45
   2  -2  12 425.496  56.888   1 0.46603-0.09423-0.68091 0.48099-0.56496 0.87164  0 231.21 402.04   96.75 230.98 401.84   96.95
  -2  -2  13   1.397  37.639   1 0.18713-0.55896-0.98087 0.78098 0.05360 0.27864  0 177.66 202.52   29.45 178.08 202.36   29.21
   2  -2  13  36.463  30.949   1 0.45942-0.08762-0.72355 0.52363-0.51518 0.84743  0 229.12 410.55   91.44 229.55 410.62   91.11
  -2  -2  14 856.795  89.356   1 0.17832-0.55015-0.98184 0.78195 0.06472 0.29307  0 169.32 209.03   27.88 169.57 209.17   27.95
   2  -2  14  1012.8    71.8   1 0.44967-0.07787-0.76241 0.56250-0.46532 0.82312  0 227.89 419.59   85.39 227.96 419.73   85.43
  -2  -2  15 802.399  92.894   1 0.16929-0.54112-0.98264 0.78274 0.07594 0.30741  0 159.97 216.22   26.50 161.00 216.09   26.67
   2  -2  15 865.203  70.282   1 0.43682-0.06502-0.79779 0.59788-0.41559 0.79894  0 225.99 429.30   79.80 226.23 429.23   79.90
  -2  -2  16  7246.3   228.8   1 0.16004-0.53187-0.98325 0.78335 0.08724 0.32167  0 152.22 223.12   25.37 152.36 223.16   25.38
   2  -2  16  8576.2   180.1   1 0.42145-0.04965-0.82954 0.62963-0.36640 0.77531  0 224.28 439.24   74.52 224.40 439.16   74.52
  -2  -2  17 14647.7   330.9   1 0.15057-0.52240-0.98367 0.78377 0.09861 0.33585  0 143.85 230.42   24.10 143.63 230.38   24.06
   2  -2  17 16594.0   250.9   1 0.40370-0.03190-0.85789 0.65798-0.31789 0.75236  0 222.34 449.58   69.28 222.51 449.60   69.29
  -2  -2  18  1025.4   111.7   1 0.14086-0.51269-0.98389 0.78400 0.11004 0.34998  0 135.59 237.58   22.71 134.80 237.78   22.73
   2  -2  18  1057.7    79.7   1 0.38394-0.01214-0.88291 0.68300-0.27029 0.73032  0 220.68 460.46   64.24 220.58 460.57   64.21
  -2  -2  19  1478.7   131.3   1 0.13093-0.50276-0.98392 0.78402 0.12152 0.36406  0 125.81 245.12   21.41 125.87 245.37   21.38
   2  -2  19  1450.3    90.6   1 0.36234 0.00946-0.90481 0.70490-0.22366 0.70924  0 218.64 472.18   59.21 218.67 472.13   59.25
  -2  -2  20  2110.1   148.2   1 0.12078-0.49261-0.98372 0.78383 0.13305 0.37809  0 116.57 253.27   20.05 116.79 253.18   20.02
   2  -2  20  2315.3   107.2   1 0.33904 0.03276-0.92378 0.72386-0.17802 0.68916  0 216.75 484.51   54.41 216.82 484.34   54.40
  -2  -2  21  7993.8   268.9   1 0.11040-0.48223-0.98331 0.78341 0.14462 0.39207  0 107.39 261.31   18.63 107.57 261.24   18.64
   2  -2  21  8623.6   196.1   1 0.31420 0.05760-0.93994 0.74002-0.13341 0.67011  2 214.98 497.21   49.67 215.09 497.28   49.65
  -2  -2  22 11604.3   339.4   1 0.09981-0.47164-0.98266 0.78277 0.15626 0.40599  0  98.35 269.50   17.31  98.18 269.57   17.25
  -2  -2  23  1037.9   126.2   1 0.08894-0.46077-0.98179 0.78189 0.16789 0.41992  0  88.82 278.27   15.72  88.60 278.19   15.83
  -2  -2  24  4865.8   227.5   1 0.07786-0.44969-0.98066 0.78077 0.17956 0.43380  0  78.96 287.15   14.46  78.82 287.16   14.40
  -2  -2  25 218.365  84.385   1 0.06655-0.43838-0.97928 0.77938 0.19128 0.44764  0  69.40 296.14   13.22  68.82 296.50   12.96
  -2  -2  26 892.634 130.932   1 0.05500-0.42683-0.97763 0.77773 0.20302 0.46146  0  58.53 306.26   11.51  58.56 306.25   11.49
  -2  -2  27 732.228 127.067   1 0.04318-0.41501-0.97571 0.77582 0.21477 0.47526  0  47.42 316.80    9.92  48.02 316.47   10.00
  -2  -2  28  6256.8   280.0   1 0.03111-0.40294-0.97350 0.77361 0.22655 0.48905  0  37.29 327.16    8.54  37.17 327.20    8.49
  -2  -2  29  1321.3   161.1   1 0.01876-0.39059-0.97100 0.77111 0.23833 0.50282  0  26.07 338.54    6.92  25.97 338.51    6.96
  -2  -3   0 741.803  58.169   1 0.39477-0.76657-0.86989 0.57002-0.29571 0.29571  0 278.18  94.88   66.68 278.70  94.65   66.92
   2  -3   0 498.095  68.304   1 0.26750 0.10425-0.04871-0.25112-0.96233 0.96233  0 199.12 297.08  167.54 199.31 296.45  167.72
  -2  -3  -1  4453.7   114.4   1 0.40490-0.77669-0.85618 0.55631-0.32097 0.29541  0 288.22  87.59   69.68 288.03  87.63   69.62
  -2  -3   1  4482.4   124.2   1 0.38484-0.75664-0.88188 0.58201-0.27235 0.29791  0 269.66 101.48   64.47 269.52 101.57   64.43
   2  -3  -1  3853.2   137.1   1 0.23741 0.13434-0.00432-0.29552-0.97140 0.94584  0 197.90 290.67  172.58 197.94 290.56  172.56
   2  -3   1  4263.9   142.2   1 0.29659 0.07516-0.09474-0.20510-0.95029 0.97585  0 200.27 302.65  162.73 200.34 302.45  162.77
  -2  -3  -2 277.243  38.677   1 0.41526-0.78706-0.84021 0.54034-0.34872 0.29761  0 297.01  80.73   72.22 297.56  80.48   72.61
   2  -3  -2 210.041  49.490   1 0.20653 0.16522 0.03800-0.33784-0.97770 0.92659  0 196.28 284.83  177.50 196.23 284.79  177.24
   2  -3   2 186.981  44.354   1 0.32417 0.04757-0.14224-0.15760-0.93524 0.98636  0 201.56 309.08  157.48 201.02 308.58  157.71
   2   3  -2 269.470  25.516   1 0.36573 0.00607-0.22267 0.52256-0.90369 0.85258  0 429.46 467.26  148.08 426.42 466.98  149.21
  -2  -3  -3  9002.7   145.6   1 0.42590-0.79770-0.82117 0.52130-0.37986 0.30318  0 307.51  73.05   76.08 307.33  73.18   75.98
  -2  -3   3  9321.3   192.7   1 0.36537-0.73717-0.90202 0.60215-0.22992 0.30659  0 251.67 115.08   59.94 251.50 115.13   59.91
   2  -3  -3  8508.6   202.9   1 0.17532 0.19643 0.07814-0.37798-0.98141 0.90474  0 194.11 279.22  181.75 194.16 279.13  181.77
   2  -3   3  8942.9   201.6   1 0.35003 0.02172-0.19071-0.10913-0.91712 0.99379  0 201.34 315.01  152.58 201.36 314.83  152.58
   2   3  -3  8432.8   124.1   1 0.41461-0.04281-0.33964 0.63953-0.84424 0.76757  0 454.28 466.09  136.67 453.94 466.18  136.76
  -2  -3   4 250.051  50.579   1 0.35574-0.72754-0.91062 0.61075-0.21030 0.31253  0 243.31 121.69   57.81 242.64 121.81   57.83
   2  -3  -4 239.459  51.313   1 0.14407 0.22768 0.11588-0.41572-0.98276 0.88053  0 192.06 273.47  186.24 191.75 273.56  186.12
   2  -3   4 228.425  48.652   1 0.37379-0.00199-0.23986-0.06004-0.89596 0.99819  0 201.52 320.78  147.53 201.37 321.25  147.39
   2   3  -4 209.934  32.295   1 0.43931-0.06751-0.41788 0.71777-0.79523 0.69300  0 476.22 464.71  128.28 476.49 464.37  128.27
  -2  -3  -5  2864.2    71.3   1 0.44794-0.81974-0.76793 0.46806-0.45786 0.33007  0 328.01  57.76   84.74 327.73  58.05   84.59
  -2  -3   5  2923.9   121.3   1 0.34613-0.71793-0.91843 0.61856-0.19152 0.31931  0 233.67 128.52   55.80 233.87 128.45   55.84
   2  -3  -5  2576.7   117.8   1 0.11313 0.25861 0.15117-0.45101-0.98201 0.85423  0 188.89 268.11  190.27 188.99 268.08  190.28
   2  -3   5  2927.1   119.0   1 0.39527-0.02347-0.28912-0.01077-0.87188 0.99967  0 201.02 327.89  142.19 201.08 327.81  142.16
   2   3  -5  2776.1    88.7   1 0.45309-0.08129-0.47542 0.77531-0.75411 0.62633  0 497.29 462.27  121.87 496.77 462.21  121.88
  -2  -3  -6  5858.8    94.7   1 0.45868-0.83047-0.72715 0.42728-0.51076 0.35742  0 338.93  50.00   90.88 338.69  50.11   90.59
  -2  -3   6  5971.4   172.9   1 0.33655-0.70835-0.92557 0.62570-0.17338 0.32672  0 225.22 134.99   53.94 225.12 135.05   53.91
   2  -3  -6  5198.0   164.5   1 0.08279 0.28895 0.18396-0.48380-0.97944 0.82610  0 185.92 262.66  194.28 185.88 262.68  194.26
   2  -3   6  5889.7   165.4   1 0.41413-0.04232-0.33829 0.03840-0.84502 0.99837  0 200.42 334.65  136.90 200.47 334.55  136.90
  -2  -3   7  2107.2   115.7   1 0.32694-0.69874-0.93211 0.63224-0.15582 0.33472  0 216.69 141.53   52.00 216.42 141.63   52.04
   2  -3  -7  1909.9   104.7   1 0.05323 0.31852 0.21419-0.51402-0.97534 0.79645  0 182.50 257.45  197.93 182.43 257.35  198.03
   2  -3   7  2164.1   104.5   1 0.43031-0.05851-0.38684 0.08695-0.81559 0.99449  0 199.52 341.69  131.67 199.57 341.47  131.66
  -2  -3   8 625.405  77.404   1 0.31728-0.68908-0.93812 0.63826-0.13876 0.34322  0 207.22 148.24   50.01 207.74 148.21   50.22
   2  -3  -8 458.833  67.605   1 0.02487 0.34692 0.24236-0.54213-0.96987 0.76534  0 178.56 252.13  201.50 178.61 252.06  201.62
   2  -3   8 607.116  65.948   1 0.44368-0.07188-0.43446 0.13457-0.78383 0.98829  0 197.92 348.66  126.46 198.38 348.58  126.44
  -2  -3   9  2320.9   126.7   1 0.30751-0.67934-0.94368 0.64384-0.12209 0.35210  0 198.65 154.81   48.37 199.05 154.85   48.43
   2  -3  -9  2002.5   110.5   1-0.00250 0.37429 0.26770-0.56748-0.96350 0.73340  0 174.44 246.93  205.09 174.47 246.86  204.97
   2  -3   9  2458.9   112.8   1 0.45420-0.08239-0.48080 0.18091-0.75002 0.98004  0 196.96 356.04  121.17 196.92 355.93  121.26
  -2  -3  10  6019.5   198.0   1 0.29773-0.66956-0.94877 0.64893-0.10579 0.36136  0 190.50 161.46   46.69 190.39 161.47   46.69
   2  -3  10  6190.2   172.5   1 0.46175-0.08995-0.52571 0.22581-0.71443 0.97001  0 195.11 363.74  116.09 195.20 363.51  116.13
  -2  -3  11  1876.2   124.3   1 0.28788-0.65971-0.95345 0.65361-0.08979 0.37092  0 182.05 167.89   44.94 181.71 168.13   44.97
   2  -3  11  1980.8   105.2   1 0.46664-0.09484-0.56868 0.26878-0.67738 0.95852  0 193.32 371.36  111.10 193.24 371.33  111.08
  -2  -3  12 405.772  75.795   1 0.27794-0.64977-0.95774 0.65790-0.07407 0.38075  0 172.39 175.05   43.18 172.99 174.86   43.28
   2  -3  12 421.595  67.193   1 0.46867-0.09687-0.60981 0.30992-0.63912 0.94582  0 190.88 379.65  106.04 191.06 379.45  106.09
  -2  -3  13  2347.0   143.9   1 0.26789-0.63972-0.96167 0.66182-0.05858 0.39082  0 164.12 181.65   41.61 164.24 181.65   41.60
   2  -3  13  2481.4   116.9   1 0.46816-0.09636-0.64875 0.34886-0.59996 0.93221  0 188.58 387.97  101.11 188.67 387.85  101.19
  -2  -3  14  3061.8   161.5   1 0.25776-0.62959-0.96524 0.66540-0.04328 0.40108  0 155.26 188.43   39.86 155.43 188.53   39.94
   2  -3  14  3218.8   131.4   1 0.46554-0.09374-0.68514 0.38527-0.56023 0.91803  0 186.02 396.80   96.34 186.10 396.62   96.39
  -2  -3  15  3302.0   169.5   1 0.24747-0.61930-0.96848 0.66864-0.02821 0.41156  0 146.57 195.33   38.37 146.55 195.51   38.30
   2  -3  15  3566.4   138.7   1 0.46018-0.08838-0.71964 0.41977-0.51996 0.90332  0 183.18 405.67   91.68 183.34 405.74   91.66
  -2  -3  16  3070.5   164.1   1 0.23704-0.60887-0.97141 0.67157-0.01332 0.42223  0 137.07 202.64   36.58 137.59 202.61   36.67
   2  -3  16  3599.9   141.2   1 0.45276-0.08096-0.75173 0.45186-0.47949 0.88841  0 180.26 415.24   86.98 180.45 415.25   87.03
  -2  -3  17  7442.7   257.6   1 0.22647-0.59830-0.97402 0.67417 0.00143 0.43304  0 128.59 209.80   35.07 128.51 209.86   35.04
   2  -3  17  8474.0   212.5   1 0.44328-0.07148-0.78155 0.48168-0.43896 0.87343  0 177.27 425.25   82.50 177.40 425.19   82.48
  -2  -3  18  3222.7   182.7   1 0.21577-0.58760-0.97631 0.67647 0.01605 0.44397  0 119.61 217.14   33.50 119.33 217.26   33.42
   2  -3  18  3353.0   139.6   1 0.43176-0.05996-0.80921 0.50934-0.39844 0.85847  0 174.14 435.63   78.00 174.26 435.58   78.01
  -2  -3  19  1540.7   142.0   1 0.20492-0.57675-0.97830 0.67846 0.03055 0.45503  0 109.69 224.57   31.75 110.02 224.84   31.80
   2  -3  19  1608.6   107.4   1 0.41862-0.04682-0.83455 0.53468-0.35817 0.84376  0 170.97 446.27   73.67 171.01 446.50   73.63
  -2  -3  20  2858.0   179.0   1 0.19390-0.56573-0.97999 0.68015 0.04494 0.46620  0 100.73 232.88   30.22 100.55 232.63   30.19
   2  -3  20  3546.0   149.9   1 0.40381-0.03201-0.85773 0.55786-0.31817 0.82931  0 167.49 457.81   69.40 167.69 458.03   69.32
  -2  -3  21 433.171  97.063   1 0.18271-0.55454-0.98138 0.68154 0.05921 0.47748  0  90.76 239.92   28.56  90.91 240.64   28.58
   2  -3  21 585.236  85.332   1 0.38754-0.01574-0.87876 0.57889-0.27855 0.81525  0 164.04 469.58   65.27 164.30 470.22   65.09
  -2  -3  22  1230.9   137.7   1 0.17135-0.54318-0.98247 0.68263 0.07340 0.48885  0  80.34 248.83   26.80  81.09 248.90   26.96
   2  -3  22  1121.0   103.7   1 0.36985 0.00195-0.89773 0.59786-0.23934 0.80159  0 160.90 483.07   60.88 160.90 483.11   60.92
  -2  -3  23  3321.3   207.9   1 0.15981-0.53164-0.98326 0.68342 0.08751 0.50030  0  71.08 257.43   25.42  71.06 257.46   25.34
   2  -3  23  4214.9   176.1   1 0.35081 0.02099-0.91472 0.61485-0.20055 0.78836  2 157.34 496.50   56.83 157.52 496.82   56.80
  -2  -3  24 949.226 142.660   1 0.14809-0.51992-0.98375 0.68390 0.10155 0.51182  0  60.61 266.06   23.63  60.79 266.33   23.72
  -2  -3  25  4159.3   231.9   1 0.13616-0.50799-0.98393 0.68409 0.11550 0.52342  0  50.43 275.52   22.14  50.25 275.56   22.09
  -2  -3  26 174.956  92.994   1 0.12402-0.49585-0.98381 0.68397 0.12939 0.53509  0  40.26 284.77   20.66  39.45 285.19   20.46
  -2  -3  27 500.084 119.741   1 0.11167-0.48350-0.98337 0.68353 0.14321 0.54682  0  28.03 295.35   18.63  28.31 295.26   18.81
  -2  -4   0  29.710  30.441   1 0.44234-0.81414-0.78411 0.38428-0.43533 0.43533  0 257.95  71.34   81.91 258.10  71.27   82.08
   2  -4   0  -2.673  28.507   1 0.29744 0.07430-0.09614-0.30364-0.94989 0.94989  0 168.67 278.14  162.63 168.61 278.26  162.62
  -2  -4  -1 269.122  45.987   1 0.44978-0.82158-0.76207 0.36225-0.46578 0.44022  0 267.09  63.60   85.50 267.05  63.93   85.48
  -2  -4   1 321.659  55.520   1 0.43435-0.80615-0.80352 0.40369-0.40706 0.43262  0 248.27  78.81   78.58 249.27  78.44   78.96
   2  -4  -1 287.284  61.082   1 0.27347 0.09828-0.05788-0.34191-0.96014 0.93458  0 168.02 272.66  166.61 167.91 272.36  166.73
   2  -4   1 267.365  58.180   1 0.32041 0.05134-0.13554-0.26424-0.93753 0.96309  0 168.53 284.26  158.57 168.97 284.26  158.42
  -2  -4  -2  2587.6    98.0   1 0.45654-0.82834-0.73684 0.33701-0.49864 0.44752  0 276.29  56.39   89.38 276.08  56.44   89.20
  -2  -4   2  2672.0   118.2   1 0.42606-0.79786-0.82086 0.42104-0.38034 0.43145  0 240.50  85.51   76.10 240.46  85.55   76.04
   2  -4  -2  2280.8   119.1   1 0.24887 0.12288-0.02078-0.37900-0.96831 0.91720  0 166.73 266.70  170.71 166.86 266.57  170.75
   2  -4   2  2362.1   119.7   1 0.34228 0.02947-0.17573-0.22405-0.92302 0.97413  0 169.03 290.38  154.19 169.01 290.37  154.16
  -2  -4  -3 244.863  41.999   1 0.46234-0.83414-0.70759 0.30776-0.53438 0.45771  0 284.30  49.74   93.29 285.21  48.81   93.34
  -2  -4   3 218.069  51.989   1 0.41750-0.78930-0.83645 0.43662-0.35503 0.43170  0 231.97  92.40   73.50 231.69  92.55   73.29
   2  -4  -3 168.261  48.837   1 0.22370 0.14805 0.01482-0.41461-0.97455 0.89788  0 166.05 260.36  174.59 165.48 260.86  174.67
   2  -4   3 177.526  50.055   1 0.36285 0.00890-0.21650-0.18329-0.90635 0.98302  0 168.48 296.96  149.68 168.73 296.61  149.85
  -2  -4  -4 471.264  45.608   1 0.46680-0.83860-0.67333 0.27351-0.57334 0.47111  0 294.27  40.71   97.96 294.43  40.97   97.96
  -2  -4   4 508.613  70.953   1 0.40872-0.78052-0.85054 0.45071-0.33095 0.43318  0 223.19 100.03   70.83 222.97  99.49   70.69
   2  -4  -4 492.608  73.476   1 0.19829 0.17345 0.04890-0.44868-0.97892 0.87670  0 163.51 255.14  178.38 163.75 255.24  178.46
   2  -4   4 488.487  71.630   1 0.38188-0.01008-0.25770-0.14217-0.88756 0.98979  0 167.59 303.08  145.43 168.11 303.00  145.49
  -2  -4  -5 843.449  53.680   1 0.46871-0.84051-0.63169 0.23183-0.61748 0.48969  0 304.15  32.57  103.44 303.93  32.83  103.36
  -2  -4   5 841.766  88.908   1 0.39975-0.77155-0.86335 0.46352-0.30793 0.43572  0 213.84 106.55   68.15 214.28 106.34   68.22
   2  -4  -5 738.212  79.143   1 0.17279 0.19895 0.08127-0.48105-0.98160 0.85382  0 161.80 249.33  182.25 161.66 249.70  182.12
   2  -4   5 831.706  79.327   1 0.39925-0.02744-0.29897-0.10089-0.86673 0.99452  0 167.45 309.71  141.15 167.21 309.53  141.11
  -2  -4  -6  2538.3    83.3   1 0.46760-0.83940-0.58175 0.18189-0.66552 0.51217  0 313.44  24.41  109.48 313.39  24.54  109.51
  -2  -4   6  2720.8   135.2   1 0.39063-0.76243-0.87505 0.47523-0.28582 0.43916  0 205.27 113.31   65.78 205.60 113.17   65.86
   2  -4  -6  2125.8   118.9   1 0.14745 0.22430 0.11190-0.51168-0.98272 0.82938  0 159.38 244.29  185.67 159.22 244.23  185.65
   2  -4   6  2537.0   125.2   1 0.41479-0.04299-0.34016-0.05970-0.84394 0.99729  0 165.90 316.46  136.68 166.01 316.22  136.70
  -2  -4  -7  4720.8    99.1   1 0.46079-0.83259-0.51922 0.11936-0.71978 0.54088  0 323.25  15.53  116.94 322.92  16.06  116.88
  -2  -4   7  5679.6   198.2   1 0.38137-0.75317-0.88578 0.48595-0.26448 0.44338  0 195.95 120.01   63.34 196.94 119.97   63.59
   2  -4  -7  4483.6   170.1   1 0.12246 0.24928 0.14074-0.54053-0.98244 0.80355  0 156.38 238.74  189.13 156.42 238.81  189.04
   2  -4   7  5054.0   171.9   1 0.42848-0.05668-0.38097-0.01889-0.81931 0.99821  0 164.48 323.19  132.28 164.53 323.09  132.30
  -2  -4  -8 19755.7   208.8   1 0.44512-0.81692-0.44021 0.04035-0.77979 0.57533  2 332.39   7.58  125.77 332.54   7.29  125.81
  -2  -4   8 21678.4   372.9   1 0.37197-0.74377-0.89564 0.49582-0.24385 0.44830  0 188.38 126.81   61.41 188.25 126.74   61.39
   2  -4  -8 18639.0   337.4   1 0.09797 0.27378 0.16776-0.56754-0.98095 0.77650  0 153.25 233.50  192.26 153.27 233.45  192.28
   2  -4   8 21992.8   349.8   1 0.44021-0.06841-0.42121 0.02135-0.79297 0.99743  0 162.69 330.27  127.86 162.76 330.14  127.90
  -2  -4   9  1369.8   124.0   1 0.36243-0.73422-0.90473 0.50491-0.22384 0.45385  0 179.43 133.14   59.15 179.54 133.52   59.27
   2  -4  -9 945.272  90.139   1 0.07415 0.29759 0.19297-0.59275-0.97840 0.74839  0 149.94 227.96  195.41 149.76 228.14  195.37
   2  -4   9  1121.1    93.7   1 0.44995-0.07815-0.46068 0.06081-0.76507 0.99509  0 160.57 337.53  123.58 160.73 337.40  123.53
  -2  -4  10  7878.4   247.4   1 0.35275-0.72455-0.91313 0.51330-0.20437 0.45994  0 170.78 140.32   57.22 170.81 140.31   57.20
   2  -4 -10  6820.5   212.0   1 0.05107 0.32068 0.21634-0.61612-0.97498 0.71942  0 145.90 222.94  198.29 145.88 222.86  198.30
   2  -4  10  8532.1   223.6   1 0.45753-0.08573-0.49932 0.09946-0.73576 0.99134  0 158.38 345.03  119.14 158.45 344.89  119.17
  -2  -4  11  4499.7   196.8   1 0.34294-0.71474-0.92088 0.52105-0.18541 0.46654  0 160.81 147.14   54.96 162.04 147.13   55.19
   2  -4 -11  3590.9   160.7   1 0.02900 0.34278 0.23831-0.63801-0.97076 0.68953  0 141.62 217.53  201.13 141.63 217.59  201.09
   2  -4  11  4397.1   166.0   1 0.46324-0.09144-0.53672 0.13686-0.70523 0.98636  0 155.83 352.74  114.81 155.91 352.63  114.85
  -2  -4  12 28665.4   467.9   1 0.33301-0.70481-0.92805 0.52822-0.16684 0.47353  0 153.36 154.02   53.26 153.20 153.98   53.21
   2  -4 -12 23662.6   397.9   1 0.00780 0.36398 0.25826-0.65796-0.96604 0.65925  0 137.02 212.34  203.69 137.03 212.37  203.71
   2  -4  12 29859.6   413.9   1 0.46698-0.09518-0.57286 0.17300-0.67362 0.98031  0 153.06 360.72  110.57 153.14 360.62  110.58
  -2  -4  13  2340.2   158.8   1 0.32293-0.69472-0.93467 0.53484-0.14869 0.48094  0 144.01 160.69   51.13 144.28 160.90   51.28
   2  -4  13  2184.2   125.2   1 0.46862-0.09682-0.60778 0.20792-0.64109 0.97334  0 150.34 368.71  106.46 150.14 368.92  106.34
  -2  -4  14 16141.4   374.0   1 0.31265-0.68448-0.94081 0.54102-0.13086 0.48866  0 135.45 167.99   49.41 135.27 167.96   49.37
   2  -4  14 17986.4   328.1   1 0.46848-0.09668-0.64116 0.24130-0.60781 0.96562  0 146.82 377.64  102.14 146.94 377.51  102.16
  -2  -4  15 878.989 125.490   1 0.30230-0.67413-0.94645 0.54666-0.11335 0.49670  0 127.30 174.58   47.62 126.17 175.05   47.50
   2  -4  15 787.932  89.589   1 0.46685-0.09505-0.67276 0.27294-0.57397 0.95732  0 143.57 386.77   98.14 143.53 386.51   98.03
  -2  -4  16  1710.1   154.1   1 0.29181-0.66364-0.95164 0.55185-0.09612 0.50503  0 117.07 182.30   45.64 116.97 182.24   45.65
   2  -4  16  2116.7   128.0   1 0.46309-0.09129-0.70312 0.30330-0.53960 0.94851  0 139.87 395.74   93.96 139.93 395.83   93.95
  -2  -4  17  39.150  66.127   1 0.28117-0.65300-0.95639 0.55660-0.07913 0.51360  0 104.91 189.03   43.27 107.64 189.58   43.82
   2  -4  17  96.349  50.894   1 0.45764-0.08585-0.73189 0.33207-0.50487 0.93934  0 135.80 405.48   89.84 136.14 405.61   89.92
  -2  -4  18  5468.4   253.3   1 0.27038-0.64221-0.96073 0.56094-0.06238 0.52241  0  97.89 196.99   41.94  98.16 197.05   42.01
   2  -4  18  6138.4   203.1   1 0.45068-0.07888-0.75900 0.35917-0.46990 0.92993  0 132.08 415.82   85.94 132.18 415.81   85.94
  -2  -4  19  6063.3   263.0   1 0.25946-0.63129-0.96467 0.56488-0.04582 0.53140  0  88.85 204.77   40.27  88.50 204.70   40.22
   2  -4  19  6697.8   214.1   1 0.44219-0.07039-0.78449 0.38467-0.43478 0.92037  0 127.94 426.47   81.98 128.05 426.52   82.02
  -2  -4  20 472.019 109.839   1 0.24835-0.62018-0.96822 0.56843-0.02947 0.54061  0  79.45 212.11   38.54  78.67 212.53   38.44
   2  -4  20 626.961  94.082   1 0.43210-0.06030-0.80849 0.40866-0.39955 0.91069  0 124.01 437.29   78.29 123.81 437.74   78.13
  -2  -4  21  1591.2   158.8   1 0.23704-0.60887-0.97141 0.57162-0.01333 0.55002  0  68.56 220.40   36.60  68.64 220.59   36.67
   2  -4  21  1887.6   129.8   1 0.42075-0.04895-0.83080 0.43098-0.36433 0.90103  0 119.27 449.59   74.25 119.40 449.59   74.30
  -2  -4  22  1370.9   155.5   1 0.22558-0.59741-0.97422 0.57443 0.00267 0.55958  0  58.69 229.21   34.81  58.36 228.90   34.90
   2  -4  22  1494.5   125.1   1 0.40804-0.03624-0.85156 0.45173-0.32916 0.89142  0 114.64 461.87   70.66 114.85 462.13   70.50
  -2  -4  23 549.737 117.987   1 0.21394-0.58577-0.97667 0.57688 0.01853 0.56928  0  48.14 237.50   33.42  47.84 237.48   33.15
   2  -4  23 702.905 111.162   1 0.39410-0.02230-0.87075 0.47093-0.29408 0.88189  0 109.73 475.15   66.83 110.19 475.46   66.74
  -2  -4  24 158.674  84.944   1 0.20211-0.57394-0.97876 0.57897 0.03425 0.57912  0  36.89 246.72   31.59  37.04 246.38   31.39
   2  -4  24 158.061  76.220   1 0.37899-0.00719-0.88838 0.48855-0.25913 0.87250  0 105.97 489.42   62.95 105.40 489.61   63.02
  -2  -4  25 893.251 148.882   1 0.19009-0.56192-0.98050 0.58071 0.04984 0.58908  0  25.90 255.22   29.64  25.92 255.61   29.64
  -2  -5   0  6164.0   185.8   1 0.45826-0.83006-0.72910 0.22931-0.50835 0.50835  0 229.39  46.77   90.35 229.27  46.86   90.32
   2  -5   0  5617.8   194.7   1 0.32602 0.04572-0.14561-0.35412-0.93408 0.93408  0 134.76 261.39  157.32 134.84 261.27  157.35
  -2  -5  -1  1920.8   107.1   1 0.46270-0.83449-0.70560 0.20582-0.53669 0.51113  0 236.93  39.68   93.55 237.51  39.19   93.61
  -2  -5   1  1705.0   106.9   1 0.45309-0.82489-0.75050 0.25072-0.48109 0.50665  0 221.05  54.41   87.28 220.99  54.39   87.21
   2  -5  -1  1562.3   110.2   1 0.30696 0.06479-0.11211-0.38762-0.94510 0.91954  0 134.26 255.32  160.84 134.60 255.27  160.91
   2  -5   1  1751.4   115.8   1 0.34437 0.02737-0.17973-0.31999-0.92147 0.94702  0 134.75 267.44  153.70 134.76 267.37  153.74
  -2  -5  -2  2214.1   111.2   1 0.46617-0.83797-0.67967 0.17989-0.56634 0.51522  0 245.64  31.49   97.04 245.70  31.38   97.12
  -2  -5   2  2295.3   126.3   1 0.44725-0.81905-0.77005 0.27027-0.45496 0.50608  0 212.71  61.81   84.27 212.69  61.81   84.27
   2  -5  -2  2045.8   123.9   1 0.28719 0.08456-0.07947-0.42025-0.95457 0.90346  0 134.02 249.41  164.38 134.02 249.36  164.40
   2  -5   2  2219.0   128.9   1 0.36183 0.00992-0.21438-0.28534-0.90726 0.95837  0 134.41 273.58  150.08 134.36 273.57  150.07
  -2  -5  -3 990.525  77.701   1 0.46807-0.83987-0.65051 0.15068-0.59812 0.52145  0 253.87  23.62  100.82 253.99  23.23  100.96
  -2  -5   3 739.552  89.368   1 0.44087-0.81267-0.78797 0.28819-0.42981 0.50648  0 204.38  68.73   81.39 204.36  69.11   81.47
   2  -5  -3 727.834  82.813   1 0.26690 0.10485-0.04780-0.45193-0.96254 0.88587  0 133.35 243.75  167.79 133.10 243.53  167.82
   2  -5   3 702.984  83.657   1 0.37821-0.00641-0.24949-0.25033-0.89147 0.96814  0 133.45 280.23  146.40 133.63 279.90  146.36
  -2  -5  -4  1290.1    84.6   1 0.46879-0.84059-0.61835 0.11853-0.63077 0.52854  0 262.16  14.93  104.97 262.09  15.06  105.03
  -2  -5   4  1403.9   112.3   1 0.43394-0.80574-0.80444 0.30465-0.40568 0.50791  0 195.45  76.53   78.71 196.02  76.30   78.81
   2  -5  -4  1096.5    97.7   1 0.24634 0.12541-0.01711-0.48262-0.96903 0.86681  0 132.22 237.48  171.33 131.82 237.77  171.15
   2  -5   4  1281.0   102.9   1 0.39347-0.02166-0.28476-0.21507-0.87413 0.97636  0 132.47 286.37  142.57 132.60 286.36  142.62
  -2  -5  -5  2748.6   129.8   1 0.46764-0.83944-0.58239 0.08257-0.66493 0.53714  2 270.14   7.42  109.32 270.11   6.66  109.43
  -2  -5   5  3236.0   161.3   1 0.42667-0.79847-0.81966 0.31988-0.38223 0.51002  0 187.09  83.58   76.06 187.62  83.44   76.24
   2  -5  -5  2707.5   142.7   1 0.22548 0.14626 0.01236-0.51209-0.97417 0.84639  0 130.10 232.14  174.38 130.21 232.08  174.39
   2  -5   5  2975.1   147.3   1 0.40742-0.03562-0.32014-0.17969-0.85529 0.98308  0 131.17 293.28  138.78 131.28 292.97  138.85
  -2  -5   6  6627.6   223.5   1 0.41907-0.79087-0.83376 0.33398-0.35947 0.51282  0 179.33  90.64   73.82 179.18  90.53   73.77
   2  -5  -6  5466.3   199.1   1 0.20460 0.16715 0.04063-0.54036-0.97800 0.82466  0 128.22 226.39  177.51 128.23 226.44  177.53
   2  -5   6  6235.8   207.1   1 0.42011-0.04831-0.35539-0.14443-0.83499 0.98833  0 129.59 299.82  135.08 129.66 299.72  135.07
  -2  -5   7  1033.6   114.1   1 0.41113-0.78293-0.84683 0.34705-0.33740 0.51631  0 170.18  97.59   71.07 170.67  97.57   71.39
   2  -5  -7 627.542  89.502   1 0.18373 0.18802 0.06758-0.56731-0.98065 0.80176  0 126.26 220.78  180.59 125.90 220.85  180.57
   2  -5   7 730.158  87.279   1 0.43140-0.05960-0.39042-0.10941-0.81330 0.99221  0 128.17 306.36  131.36 127.75 306.66  131.27
  -2  -5   8  4741.4   209.4   1 0.40292-0.77472-0.85898 0.35920-0.31591 0.52037  0 162.20 104.70   69.07 162.11 104.59   69.08
   2  -5  -8  3877.7   171.4   1 0.16307 0.20868 0.09319-0.59292-0.98220 0.77775  0 123.26 215.37  183.50 123.19 215.30  183.49
   2  -5   8  4847.8   187.1   1 0.44125-0.06945-0.42508-0.07474-0.79032 0.99478  0 125.47 313.87  127.50 125.57 313.76  127.48
  -2  -5   9  1015.6   120.2   1 0.39445-0.76625-0.87030 0.37051-0.29494 0.52495  0 153.26 111.67   66.77 153.49 111.57   66.84
   2  -5  -9 978.740  98.015   1 0.14273 0.22901 0.11745-0.61717-0.98277 0.75276  0 120.30 210.14  186.34 120.12 209.79  186.30
   2  -5   9 967.545  98.215   1 0.44962-0.07782-0.45924-0.04059-0.76612 0.99614  0 123.12 321.21  123.75 123.12 321.08  123.69
  -2  -5  10  3650.8   196.9   1 0.38576-0.75755-0.88084 0.38106-0.27444 0.53001  0 144.49 118.61   64.58 144.81 118.57   64.65
   2  -5 -10  3249.2   166.1   1 0.12283 0.24891 0.14033-0.64006-0.98246 0.72689  0 116.76 204.21  189.02 116.67 204.30  188.99
   2  -5  10  3657.1   165.9   1 0.45649-0.08469-0.49277-0.00706-0.74080 0.99638  0 120.32 328.62  119.92 120.40 328.62  119.91
  -2  -5  11  3632.0   198.5   1 0.37683-0.74863-0.89067 0.39089-0.25438 0.53550  0 136.28 125.74   62.52 136.00 125.58   62.51
   2  -5 -11  3080.8   160.3   1 0.10344 0.26830 0.16182-0.66155-0.98138 0.70026  0 112.82 198.87  191.51 112.85 198.82  191.56
   2  -5  11  3660.8   166.6   1 0.46175-0.08995-0.52566 0.02583-0.71448 0.99561  0 117.42 336.31  116.14 117.42 336.41  116.14
  -2  -5  12 224.760  88.766   1 0.36767-0.73947-0.89984 0.40006-0.23473 0.54142  0 128.38 133.30   60.43 127.10 132.65   60.43
   2  -5 -12 206.531  67.444   1 0.08469 0.28706 0.18197-0.68169-0.97965 0.67297  0 108.79 193.39  194.04 108.63 193.35  194.01
   2  -5  12 243.701  67.244   1 0.46564-0.09384-0.55760 0.05777-0.68722 0.99391  0 115.02 344.38  112.43 114.19 344.43  112.40
  -2  -5  13  1015.8   141.1   1 0.35831-0.73011-0.90840 0.40862-0.21546 0.54770  0 118.05 139.86   58.31 118.10 139.75   58.38
   2  -5 -13 783.093  96.057   1 0.06658 0.30516 0.20075-0.70048-0.97738 0.64514  0 104.57 187.92  196.40 104.04 187.89  196.33
   2  -5  13  1167.9   109.7   1 0.46800-0.09620-0.58865 0.08882-0.65914 0.99139  0 110.46 353.13  108.54 110.71 352.75  108.68
  -2  -5  14  1497.6   160.2   1 0.34873-0.72052-0.91639 0.41660-0.19653 0.55433  0 108.66 146.83   56.36 108.98 146.90   56.37
   2  -5 -14  1187.3   111.6   1 0.04923 0.32252 0.21823-0.71795-0.97466 0.61686  0  99.01 182.67  198.52  99.03 182.40  198.54
   2  -5  14  1734.0   127.0   1 0.46879-0.09699-0.61879 0.11896-0.63034 0.98815  0 106.87 361.68  104.94 106.99 361.40  104.98
  -2  -5  15  2319.3   180.2   1 0.33897-0.71077-0.92383 0.42404-0.17789 0.56125  0  99.94 154.45   54.46  99.69 154.15   54.39
   2  -5 -15  1902.8   140.1   1 0.03272 0.33906 0.23473-0.73435-0.97151 0.58802  0  93.72 176.72  200.61  93.59 176.87  200.63
   2  -5  15  2663.7   149.8   1 0.46820-0.09640-0.64784 0.14801-0.60091 0.98428  0 103.10 370.39  101.36 103.03 370.39  101.31
  -2  -5  16  49.536  79.424   1 0.32900-0.70080-0.93075 0.43097-0.15954 0.56845  0  91.29 161.15   52.35  90.25 161.50   52.44
   2  -5 -16  57.095  46.920   1 0.01704 0.35474 0.24976-0.74938-0.96816 0.55910  0  87.50 171.08  202.38  87.76 171.33  202.58
   2  -5  16 136.396  54.956   1 0.46659-0.09479-0.67551 0.17572-0.57095 0.97987  0  99.05 379.68   97.46  98.86 379.79   97.67
  -2  -5  17 380.369 109.853   1 0.31883-0.69063-0.93720 0.43741-0.14147 0.57594  0  79.93 169.18   50.26  80.63 168.97   50.51
   2  -5 -17 206.752  64.620   1 0.00208 0.36971 0.26353-0.76315-0.96465 0.53002  0  81.69 165.54  204.38  81.51 165.77  204.41
   2  -5  17 454.193  89.347   1 0.46321-0.09141-0.70233 0.20255-0.54052 0.97500  0  94.73 389.50   94.10  94.45 389.55   94.06
  -2  -5  18  1211.7   157.5   1 0.30840-0.68023-0.94319 0.44345-0.12361 0.58363  0  70.84 176.64   48.61  70.82 176.67   48.59
   2  -5  18  1409.0   122.9   1 0.45850-0.08670-0.72799 0.22821-0.50972 0.96974  0  89.57 399.73   90.45  89.80 399.81   90.47
  -2  -5  19 323.506 109.757   1 0.29785-0.66968-0.94871 0.44898-0.10599 0.59157  0  60.77 183.94   46.73  60.81 184.45   46.71
   2  -5  19 574.206  99.478   1 0.45257-0.08077-0.75241 0.25263-0.47860 0.96419  0  85.41 410.92   86.87  84.95 410.53   86.93
  -2  -5  20 162.735  93.348   1 0.28711-0.65894-0.95380 0.45406-0.08856 0.59969  0  50.04 192.31   44.53  50.56 192.41   44.84
   2  -5  20 175.562  67.347   1 0.44539-0.07359-0.77564 0.27585-0.44724 0.95838  0  80.19 422.06   83.17  79.86 421.79   83.40
  -2  -5  21 626.943 138.972   1 0.27617-0.64800-0.95846 0.45872-0.07131 0.60801  0  40.16 200.57   43.00  40.07 200.61   42.98
   2  -5  21 862.864 120.064   1 0.43684-0.06504-0.79774 0.29796-0.41566 0.95236  0  74.50 433.59   79.90  74.61 433.62   79.90
  -2  -5  22 251.558 107.140   1 0.26503-0.63686-0.96271 0.46298-0.05424 0.61649  0  29.29 209.12   41.21  29.28 209.03   41.13
   2  -5  22 381.754  91.430   1 0.42722-0.05542-0.81858 0.31879-0.38394 0.94620  0  69.45 446.71   76.22  69.10 446.15   76.43
  -2  -6   0 994.775 100.541   1 0.46322-0.83502-0.70228 0.10254-0.54058 0.54058  0 193.88  20.46   94.06 193.85  20.48   94.07
   2  -6   0 860.281  97.486   1 0.35287 0.01887-0.19631-0.40336-0.91485 0.91485  0  96.60 245.14  151.84  97.06 245.06  151.98
  -2  -6  -1 430.178  77.337   1 0.46608-0.83788-0.68050 0.08076-0.56541 0.53985  2 202.83  12.49   97.12 201.43  12.42   97.01
  -2  -6   1 808.463  96.030   1 0.45961-0.83141-0.72259 0.12285-0.51635 0.54190  0 185.14  29.42   90.98 186.14  28.42   91.24
   2  -6  -1 383.537  83.029   1 0.33759 0.03415-0.16685-0.43282-0.92639 0.90083  0  97.79 238.77  155.56  97.12 238.86  155.10
   2  -6   1 386.482  83.340   1 0.36747 0.00433-0.22633-0.37347-0.90208 0.92763  0  97.10 251.58  148.83  96.62 251.34  148.82
  -2  -6   2  5951.7   224.2   1 0.45539-0.82719-0.74159 0.14185-0.49261 0.54372  0 178.22  36.37   88.44 178.34  36.21   88.52
   2  -6  -2  6022.8   221.0   1 0.32176 0.04999-0.13794-0.46174-0.93672 0.88561  0  96.81 232.88  158.13  96.85 232.74  158.17
   2  -6   2  5939.3   218.5   1 0.38138-0.00958-0.25658-0.34321-0.88809 0.93921  0  95.88 257.85  145.63  95.91 257.74  145.61
  -2  -6   3  2196.3   140.9   1 0.45057-0.82237-0.75935 0.15962-0.46943 0.54610  0 170.59  43.78   85.93 170.45  43.88   85.89
   2  -6  -3  1855.9   131.1   1 0.30551 0.06624-0.10965-0.49003-0.94586 0.86919  0  96.30 226.75  161.22  96.25 226.69  161.18
   2  -6   3  1819.3   130.9   1 0.39444-0.02264-0.28711-0.31268-0.87292 0.94959  0  94.64 264.15  142.36  94.87 264.25  142.37
  -2  -6   4  1552.5   136.9   1 0.44526-0.81706-0.77601 0.17627-0.44672 0.54895  0 162.74  51.30   83.49 162.44  51.45   83.35
   2  -6  -4  1520.2   121.3   1 0.28884 0.08291-0.08212-0.51755-0.95385 0.85162  0  95.36 220.89  164.16  95.29 220.71  164.12
   2  -6   4  1641.6   125.5   1 0.40654-0.03474-0.31783-0.28196-0.85657 0.95880  0  93.64 270.76  139.14  93.52 270.89  139.09
  -2  -6   5 315.399  72.639   1 0.43944-0.81124-0.79161 0.19187-0.42456 0.55234  0 153.25  59.42   80.56 154.35  58.93   80.89
   2  -6  -5 193.687  67.283   1 0.27188 0.09987-0.05542-0.54426-0.96074 0.83295  0  93.31 214.95  167.14  93.97 214.78  166.99
   2  -6   5  66.592  50.416   1 0.41775-0.04595-0.34856-0.25124-0.83905 0.96683  0  90.85 277.97  135.41  91.87 277.67  135.80
  -2  -6   6  4310.3   211.6   1 0.43312-0.80492-0.80625 0.20651-0.40294 0.55629  0 145.77  66.42   78.42 146.17  66.30   78.51
   2  -6  -6  3766.0   181.0   1 0.25480 0.11695-0.02957-0.57011-0.96654 0.81320  0  92.01 208.96  169.78  92.30 208.89  169.79
   2  -6   6  4122.2   187.5   1 0.42793-0.05613-0.37922-0.22057-0.82041 0.97375  0  89.82 284.76  132.48  89.90 284.60  132.49
  -2  -6   7  3315.1   195.5   1 0.42648-0.79828-0.82003 0.22030-0.38165 0.56055  0 137.97  73.65   76.16 137.86  73.66   76.18
   2  -6  -7  2679.3   160.4   1 0.23765 0.13410-0.00465-0.59502-0.97134 0.79245  0  90.17 203.03  172.53  90.25 203.03  172.52
   2  -6   7  3055.0   164.4   1 0.43704-0.06524-0.40973-0.19006-0.80070 0.97960  0  87.67 291.72  129.18  87.65 291.71  129.16
  -2  -6   8  1480.0   149.2   1 0.41950-0.79130-0.83300 0.23327-0.36072 0.56518  0 128.64  80.88   73.70 129.43  80.97   73.91
   2  -6  -8 971.272 106.127   1 0.22047 0.15128 0.01924-0.61892-0.97520 0.77075  0  88.48 197.22  175.27  87.83 197.20  175.16
   2  -6   8  1118.7   111.0   1 0.44506-0.07326-0.43997-0.15982-0.77996 0.98442  0  84.76 299.11  125.66  85.12 298.98  125.83
  -2  -6   9  5009.2   245.6   1 0.41217-0.78396-0.84521 0.24547-0.34020 0.57021  0 120.96  88.34   71.76 120.88  88.26   71.69
   2  -6  -9  4105.0   191.3   1 0.20346 0.16829 0.04214-0.64181-0.97818 0.74817  0  84.98 191.44  177.72  85.03 191.38  177.70
   2  -6   9  5401.2   215.0   1 0.45193-0.08013-0.46989-0.12991-0.75826 0.98828  0  82.05 306.45  122.48  82.30 306.47  122.50
  -2  -6  10 700.093 128.061   1 0.40452-0.77632-0.85671 0.25697-0.32001 0.57558  0 113.06  94.74   69.61 112.20  95.54   69.52
   2  -6 -10 494.242  92.120   1 0.18660 0.18514 0.06396-0.66363-0.98035 0.72479  0  81.97 186.00  180.33  81.84 185.58  180.16
   2  -6  10 741.202 111.056   1 0.45755-0.08575-0.49944-0.10036-0.73567 0.99125  0  79.20 313.49  119.42  79.18 314.19  119.16
  -2  -6  11 182.850  81.591   1 0.39659-0.76839-0.86755 0.26781-0.30012 0.58125  0 103.77 103.10   67.43 103.37 102.79   67.39
   2  -6 -11 148.561  62.090   1 0.17001 0.20173 0.08470-0.68437-0.98180 0.70067  0  78.39 179.86  182.40  78.24 179.76  182.52
   2  -6  11 308.100  82.241   1 0.46213-0.09033-0.52838-0.07141-0.71221 0.99335  0  75.54 322.80  115.56  75.78 322.15  115.82
  -2  -6  12  76.613  84.661   1 0.38839-0.76019-0.87776 0.27802-0.28053 0.58721  0  94.28 110.30   65.35  94.42 110.10   65.30
   2  -6 -12  90.683  52.583   1 0.15380 0.21794 0.10436-0.70403-0.98257 0.67590  0  73.64 173.96  184.57  74.23 173.95  184.78
   2  -6  12 121.005  58.754   1 0.46556-0.09375-0.55674-0.04306-0.68797 0.99466  0  71.92 330.28  112.40  72.12 330.35  112.50
  -2  -6  13  1364.9   172.8   1 0.37992-0.75172-0.88737 0.28763-0.26121 0.59345  0  85.53 117.77   63.32  85.26 117.44   63.24
   2  -6 -13  1004.7   112.8   1 0.13801 0.23373 0.12294-0.72261-0.98277 0.65054  0  70.15 168.24  187.08  69.82 168.10  186.94
   2  -6  13  1248.5   121.0   1 0.46777-0.09597-0.58447-0.01532-0.66302 0.99527  0  68.09 338.72  109.28  68.17 338.85  109.18
  -2  -6  14 495.625 137.156   1 0.37118-0.74298-0.89643 0.29669-0.24216 0.59996  0  75.35 125.12   61.16  75.94 124.84   61.22
   2  -6 -14 322.900  81.588   1 0.12272 0.24902 0.14045-0.74012-0.98245 0.62466  0  64.86 161.96  189.07  64.98 162.22  189.01
   2  -6  14 641.356 108.778   1 0.46870-0.09690-0.61157 0.01178-0.63742 0.99522  0  63.78 347.60  105.86  63.94 347.70  105.87
  -2  -6  15  1639.3   184.2   1 0.36219-0.73399-0.90495 0.30521-0.22336 0.60672  0  66.37 132.83   59.26  66.43 132.33   59.22
   2  -6 -15  1550.5   137.9   1 0.10795 0.26380 0.15689-0.75656-0.98170 0.59835  0  59.61 155.94  190.92  59.69 156.29  190.97
   2  -6  15  2140.7   150.4   1 0.46858-0.09678-0.63785 0.03806-0.61121 0.99458  0  59.57 356.78  102.61  59.45 356.87  102.58
  -2  -6  16  1000.3   169.0   1 0.35296-0.72476-0.91295 0.31321-0.20478 0.61370  0  55.87 139.84   57.13  56.71 139.90   57.25
   2  -6 -16 824.798 119.769   1 0.09379 0.27796 0.17230-0.77197-0.98057 0.57167  0  53.95 150.18  192.78  53.95 150.30  192.83
   2  -6  16  1228.8   124.2   1 0.46764-0.09584-0.66311 0.06337-0.58446 0.99338  0  54.60 366.24   99.36  54.71 366.49   99.30
  -2  -6  17  3060.8   234.5   1 0.34347-0.71527-0.92047 0.32073-0.18643 0.62090  0  46.92 147.78   55.33  46.76 147.57   55.30
   2  -6 -17  2707.1   173.2   1 0.08021 0.29153 0.18667-0.78634-0.97914 0.54468  0  47.53 144.03  194.57  47.75 144.25  194.59
   2  -6  17  4177.6   206.9   1 0.46522-0.09342-0.68778 0.08804-0.55725 0.99173  0  49.53 376.49   96.02  49.66 376.46   96.04
  -2  -6  18  1524.7   192.5   1 0.33377-0.70557-0.92752 0.32778-0.16825 0.62828  0  37.17 155.37   53.41  36.52 155.39   53.36
   2  -6 -18  1234.3   132.2   1 0.06728 0.30447 0.20004-0.79971-0.97748 0.51746  0  41.37 137.97  196.32  41.06 138.11  196.25
   2  -6  18  1790.4   153.8   1 0.46166-0.08986-0.71160 0.11186-0.52962 0.98965  0  43.93 386.50   92.92  44.32 386.91   92.78
   2  -7   0  22.552  43.569   1 0.37754-0.00574-0.24806-0.45170-0.89215 0.89215  0  54.19 229.64  146.65  53.82 229.15  146.52
   2  -7  -1 469.060  91.787   1 0.36539 0.00641-0.22196-0.47780-0.90400 0.87845  0  54.72 222.54  149.29  54.09 222.64  149.28
   2  -7   1 490.050  95.314   1 0.38916-0.01736-0.27446-0.42529-0.87933 0.90489  0  52.91 236.02  143.54  53.18 235.74  143.71
  -2  -7   2  1682.2   163.2   1 0.45789-0.82969-0.73079 0.03109-0.50625 0.55736  2 137.82   8.50   90.14 137.32   7.53   90.08
   2  -7  -2  1841.6   147.0   1 0.35279 0.01896-0.19614-0.50348-0.91491 0.86380  0  54.11 216.15  152.04  54.10 216.22  152.00
   2  -7   2  1812.9   143.2   1 0.40012-0.02832-0.30115-0.39860-0.86557 0.91669  0  52.18 242.31  140.90  52.22 242.43  140.87
  -2  -7   3 316.364  94.004   1 0.45395-0.82575-0.74723 0.04754-0.48536 0.56203  0 130.48  15.38   87.73 129.75  15.68   87.69
   2  -7  -3 201.588  67.470   1 0.33975 0.03200-0.17090-0.52872-0.92486 0.84819  0  53.21 210.39  154.51  53.67 209.85  154.67
   2  -7   3 333.214  89.412   1 0.41038-0.03858-0.32804-0.37172-0.85087 0.92754  0  51.23 249.20  138.15  50.92 249.24  138.00
  -2  -7   4 395.433  97.494   1 0.44953-0.82133-0.76286 0.06317-0.46471 0.56694  0 122.02  24.29   85.55 122.02  23.71   85.36
   2  -7  -4 289.999  75.200   1 0.32634 0.04540-0.14618-0.55344-0.93388 0.83165  0  53.40 203.19  157.36  52.90 203.54  157.29
   2  -7   4 299.197  81.724   1 0.41997-0.04817-0.35500-0.34476-0.83522 0.93745  0  49.44 256.25  135.20  49.29 256.16  135.11
  -2  -7   5 477.157  99.896   1 0.44466-0.81646-0.77772 0.07803-0.44433 0.57211  0 113.27  31.74   82.76 114.14  31.62   83.08
   2  -7  -5 296.036  79.622   1 0.31268 0.05907-0.12205-0.57757-0.94199 0.81420  0  51.43 197.03  159.74  51.76 197.26  159.86
   2  -7   5 350.219  87.888   1 0.42880-0.05700-0.38199-0.31777-0.81866 0.94645  0  47.57 262.91  132.30  47.33 263.23  132.19
  -2  -7   6  3382.6   206.2   1 0.43934-0.81114-0.79185 0.09216-0.42421 0.57755  0 106.16  39.61   80.90 106.10  39.45   80.85
   2  -7  -6  2930.7   179.9   1 0.29886 0.07288-0.09854-0.60108-0.94920 0.79586  0  50.36 190.89  162.36  50.25 191.01  162.36
   2  -7   6  3719.4   197.5   1 0.43682-0.06502-0.40894-0.29081-0.80122 0.95457  0  44.89 270.51  129.19  45.06 270.46  129.25
  -2  -7   7  1295.7   154.8   1 0.43356-0.80536-0.80528 0.10559-0.40441 0.58331  0  98.59  47.41   78.91  97.91  47.17   78.67
   2  -7  -7  1249.1   128.0   1 0.28485 0.08689-0.07574-0.62388-0.95557 0.77668  0  47.95 184.69  164.71  48.34 184.78  164.81
   2  -7   7  1185.3   127.0   1 0.44401-0.07221-0.43577-0.26399-0.78292 0.96182  0  42.33 277.70  126.39  42.48 277.83  126.30
  -2  -7   8 363.395 105.213   1 0.42748-0.79927-0.81807 0.11838-0.38473 0.58919  0  89.04  54.81   76.46  89.53  54.86   76.52
   2  -7  -8 252.561  75.327   1 0.27076 0.10099-0.05370-0.64592-0.96115 0.75670  0  46.62 178.71  167.43  46.03 178.55  167.18
   2  -7   8 317.977  85.996   1 0.45031-0.07851-0.46243-0.23733-0.76379 0.96825  0  40.29 285.06  123.49  39.59 285.42  123.33
  -2  -7   9  1827.2   182.5   1 0.42106-0.79286-0.83024 0.13055-0.36525 0.59526  0  80.71  62.64   74.36  80.98  62.52   74.40
   2  -7  -9  1173.4   125.5   1 0.25672 0.11503-0.03241-0.66721-0.96594 0.73593  0  43.59 172.34  169.49  43.33 172.33  169.49
   2  -7   9  1342.3   132.2   1 0.45575-0.08395-0.48882-0.21093-0.74387 0.97389  0  36.38 293.33  120.34  36.36 293.21  120.36
  -2  -7  10  2097.7   196.8   1 0.41428-0.78608-0.84182 0.14212-0.34600 0.60157  0  72.39  70.04   72.31  72.23  70.16   72.31
   2  -7 -10  1939.3   155.5   1 0.24274 0.12900-0.01193-0.68769-0.97002 0.71445  0  39.72 166.27  171.72  40.20 166.08  171.72
   2  -7  10  2402.5   166.8   1 0.46014-0.08834-0.51499-0.18477-0.72323 0.97880  0  32.78 301.18  117.38  32.84 301.23  117.37
  -2  -7  11 321.253 106.822   1 0.40719-0.77899-0.85283 0.15313-0.32693 0.60806  0  63.20  77.52   70.20  63.27  77.79   70.26
   2  -7 -11 188.232  74.660   1 0.22885 0.14289 0.00769-0.70731-0.97343 0.69231  0  36.72 159.44  173.78  36.66 159.81  173.88
   2  -7  11 269.143  82.863   1 0.46377-0.09197-0.54068-0.15908-0.70184 0.98297  0  29.63 308.74  114.47  29.01 309.48  114.39
  -2  -7  12  1229.8   172.7   1 0.39979-0.77159-0.86330 0.16360-0.30803 0.61472  0  54.20  85.44   68.24  54.10  85.40   68.23
   2  -7 -12  1165.0   132.0   1 0.21515 0.15659 0.02646-0.72608-0.97622 0.66954  0  32.99 153.45  176.00  32.68 153.49  175.96
   2  -7  12  1666.2   148.4   1 0.46642-0.09461-0.56599-0.13377-0.67979 0.98649  0  25.18 318.02  111.42  24.84 318.02  111.40
   3   0   0   6.830  25.618   1 0.27881 0.27881-0.06619 0.06619-0.95806 0.95806  0 241.79 435.77  166.33 242.07 436.85  165.83
   3   0  -1 369.398  52.222   1 0.23485 0.32277-0.00070 0.00070-0.97203 0.94648  0 233.35 428.50  173.12 233.54 428.88  172.95
   3   0   1 453.976  48.251   1 0.32231 0.23531-0.13892 0.13892-0.93638 0.96194  0 250.70 445.04  158.18 251.09 445.27  158.06
   3   0  -2 113.619  37.353   1 0.19134 0.36628 0.05790-0.05790-0.97981 0.92870  0 225.63 421.50  179.38 225.38 421.32  179.47
   3   0   2 162.550  34.126   1 0.36413 0.19349-0.21914 0.21914-0.90520 0.95631  0 261.05 454.09  149.52 260.78 454.18  149.57
   3   0  -3 296.001  49.149   1 0.14897 0.40865 0.11011-0.11011-0.98269 0.90602  0 216.78 414.20  185.74 217.47 414.14  185.45
   3   0   3 339.669  39.371   1 0.40265 0.15505-0.30756 0.30756-0.86214 0.93881  0 271.56 464.30  140.17 271.47 463.77  140.19
   3   0  -4  1473.7    87.2   1 0.10821 0.44941 0.15661-0.15661-0.98172 0.87949  0 209.57 407.28  190.95 209.73 407.27  190.94
   3   0   4  1714.9    63.9   1 0.43561 0.12210-0.40470 0.40470-0.80403 0.90626  0 283.45 474.11  129.85 283.75 474.15  129.71
   3   0  -5 730.852  69.369   1 0.06939 0.48823 0.19788-0.19788-0.97777 0.84999  0 201.76 400.63  196.03 202.09 400.68  195.98
   3   0   5 793.951  43.248   1 0.45971 0.09799-0.51228 0.51228-0.72542 0.85321  0 298.63 485.35  117.57 298.62 485.65  117.68
   3   0  -6 622.983  72.233   1 0.03271 0.52497 0.23475-0.23475-0.97151 0.81811  0 194.10 393.83  200.97 194.47 394.34  200.63
   3   0  -7 179.364  46.030   1-0.00171 0.55938 0.26698-0.26698-0.96370 0.78474  0 186.25 388.22  205.28 186.88 388.24  204.87
   3  -1   0  2570.4   108.8   1 0.27654 0.28108-0.06264-0.03731-0.95896 0.95896  0 210.38 407.92  166.49 210.66 408.16  166.22
   3   1   0  2388.8    73.8   1 0.30825 0.24937-0.11430 0.21425-0.94441 0.94441  0 281.55 472.52  160.91 281.84 472.77  160.68
   3  -1  -1  3064.5   118.9   1 0.24195 0.31567-0.01079-0.08915-0.97023 0.94467  0 205.06 401.04  171.88 205.08 401.03  171.84
   3  -1   1  3092.3   115.2   1 0.31041 0.24721-0.11814 0.01820-0.94323 0.96879  0 216.03 415.64  160.39 216.21 415.58  160.27
   3   1  -1  2897.7    87.8   1 0.24726 0.31036-0.01844 0.11839-0.96877 0.94322  0 266.42 462.83  171.05 266.57 462.82  171.01
   3   1   1  2996.1    70.6   1 0.37175 0.18595-0.23545 0.33542-0.89798 0.92354  0 301.06 484.07  147.95 301.09 484.11  147.85
   3  -1  -2  1953.4   101.9   1 0.20716 0.35046 0.03716-0.13711-0.97760 0.92649  0 199.36 394.26  177.16 199.46 394.17  177.15
   3  -1   2  2274.7    98.8   1 0.34295 0.21467-0.17700 0.07706-0.92253 0.97364  0 221.68 423.30  154.12 221.75 423.30  154.03
   3   1  -2  1937.5    80.2   1 0.18947 0.36815 0.06030 0.03965-0.98003 0.92892  0 253.45 454.18  179.60 253.46 453.80  179.74
   3  -1  -3  1815.7   102.1   1 0.17267 0.38495 0.08143-0.18137-0.98161 0.90494  0 193.75 387.69  182.16 193.76 387.57  182.14
   3  -1   3  2237.0    95.3   1 0.37345 0.18426-0.23911 0.13914-0.89631 0.97298  0 227.23 431.53  147.52 227.33 431.38  147.47
   3   1  -3  2072.4    87.8   1 0.13532 0.42230 0.12606-0.02611-0.98275 0.90608  0 241.77 445.83  187.19 241.71 445.49  187.31
   3  -1  -4 324.380  61.033   1 0.13883 0.41879 0.12199-0.22194-0.98277 0.88055  0 187.33 380.38  187.10 187.97 381.20  186.83
   3  -1   4 436.978  52.282   1 0.40115 0.15655-0.30374 0.20378-0.86419 0.96642  0 232.89 439.92  140.68 233.00 439.80  140.60
   3   1  -4 380.057  54.001   1 0.08497 0.47264 0.18167-0.08172-0.97968 0.87746  0 230.78 437.95  194.06 230.86 437.70  193.97
   3  -1  -5  1450.2    97.5   1 0.10598 0.45164 0.15905-0.25899-0.98157 0.85378  0 181.65 375.22  191.35 182.07 375.05  191.23
   3  -1   5  1511.5    78.3   1 0.42522 0.13248-0.37062 0.27065-0.82573 0.95352  0 239.02 449.16  133.17 238.84 448.65  133.42
   3   1  -5  1330.6    82.7   1 0.03843 0.51925 0.22920-0.12928-0.97262 0.84479  0 219.65 429.98  200.41 220.59 430.34  199.91
   3  -1  -6  8119.0   208.9   1 0.07435 0.48327 0.19277-0.29271-0.97842 0.82508  0 175.93 369.02  195.40 176.04 369.09  195.34
   3  -1   6  9634.7   174.3   1 0.44483 0.11287-0.43905 0.33908-0.78061 0.93396  0 244.95 458.22  125.85 244.90 457.94  125.94
   3  -1  -7  1980.0   113.6   1 0.04409 0.51353 0.22330-0.32324-0.97375 0.79486  0 169.88 363.39  198.98 169.87 363.32  199.18
   3  -1   7  2283.1    88.8   1 0.45908 0.09862-0.50841 0.40844-0.72854 0.90744  0 250.85 466.98  118.56 251.30 467.79  118.13
   3  -1  -8  1923.5   118.3   1 0.01539 0.54229 0.25131-0.35123-0.96779 0.76326  0 163.54 357.67  202.88 163.48 357.69  202.79
   3  -1   8  2476.7    89.1   1 0.46730 0.09040-0.57728 0.47732-0.66961 0.87407  0 258.13 478.31  109.99 258.13 478.17  110.05
   3  -1   9  3469.2   100.6   1 0.46832 0.08938-0.64560 0.54564-0.60322 0.83324  0 265.66 489.21  101.63 265.68 489.31  101.59
   3  -1  10  2624.3   104.5   1 0.46169 0.09600-0.71138 0.61142-0.52989 0.78546  2 273.45 500.11   93.23 274.14 501.28   92.81
  -3  -2   0  2842.5   122.4   1 0.03444-0.59218-0.97414 0.77424 0.22331-0.22331  0 227.68  69.03    8.91 227.75  69.02    8.91
   3  -2   0  2717.4   121.8   1 0.28653 0.27109-0.07841-0.12148-0.95486 0.95486  0 180.94 384.06  164.51 181.04 384.03  164.52
  -3  -2  -1  2165.9   105.2   1 0.02221-0.57996-0.97173 0.77183 0.23506-0.26062  0 234.93  61.81    7.42 234.86  61.80    7.39
  -3  -2   1  2175.2   111.4   1 0.04427-0.60202-0.97590 0.77600 0.21370-0.18814  0 220.23  76.07   10.16 220.49  76.15   10.14
   3  -2  -1  2149.5   113.5   1 0.25844 0.29918-0.03497-0.16492-0.96539 0.93984  0 177.14 377.40  169.18 177.18 377.32  169.21
   3  -2   1  2307.0   112.9   1 0.31387 0.24375-0.12412-0.07578-0.94132 0.96687  0 184.52 390.95  159.75 184.74 390.96  159.64
  -3  -2  -2  3615.7   127.8   1 0.00722-0.56497-0.96844 0.76855 0.24912-0.30024  0 241.96  54.29    5.42 241.80  54.46    5.54
  -3  -2   2  4090.9   155.4   1 0.05206-0.60980-0.97717 0.77728 0.20597-0.15486  0 212.66  83.28   11.14 213.11  83.20   11.12
   3  -2  -2  3639.7   145.5   1 0.22997 0.32764 0.00613-0.20602-0.97318 0.92206  0 172.77 370.59  173.98 173.11 370.83  173.71
   3  -2   2  3876.4   140.6   1 0.34017 0.21744-0.17171-0.02818-0.92455 0.97567  0 188.15 398.31  154.54 188.25 398.13  154.59
   3   2  -2  3533.8    84.9   1 0.22092 0.33670 0.01863 0.18126-0.97511 0.92400  2 291.04 494.93  175.42 291.50 495.04  175.09
  -3  -2   3 10219.1   237.4   1 0.05806-0.61581-0.97809 0.77820 0.19990-0.12323  0 205.46  90.18   11.91 205.61  90.18   11.88
   3  -2  -3 10145.8   237.4   1 0.20143 0.35619 0.04480-0.24469-0.97848 0.90181  0 168.73 364.53  178.06 168.85 364.54  178.00
   3  -2   3 10484.4   221.2   1 0.36501 0.19270-0.22116 0.02123-0.90436 0.98103  0 191.55 405.67  149.39 191.60 405.57  149.37
   3   2  -3  9142.1   150.4   1 0.14264 0.41497 0.11755 0.08234-0.98277 0.90610  0 270.21 483.84  186.55 270.63 483.95  186.31
  -3  -2   4 12968.7   274.6   1 0.06252-0.62027-0.97873 0.77884 0.19538-0.09316  0 198.22  97.12   12.47 198.01  97.11   12.44
   3  -2  -4 12240.4   263.8   1 0.17307 0.38455 0.08093-0.28082-0.98158 0.87935  0 164.37 358.54  182.06 164.39 358.44  182.08
   3  -2   4 12822.9   240.2   1 0.38804 0.16967-0.27183 0.07190-0.88064 0.98288  0 194.71 413.39  144.02 194.81 413.27  143.99
   3   2  -4 11216.9   186.3   1 0.07617 0.48145 0.19088 0.00902-0.97865 0.87643  0 254.01 474.40  195.04 253.87 474.31  195.11
  -3  -2   5  1387.4   105.4   1 0.06563-0.62338-0.97916 0.77926 0.19221-0.06443  0 191.21 104.13   12.68 190.31 103.99   12.84
   3  -2  -5  1073.4    94.1   1 0.14516 0.41246 0.11460-0.31449-0.98275 0.85497  0 159.74 352.52  185.91 159.71 352.52  185.97
   3  -2   5  1476.5    91.5   1 0.40878 0.14892-0.32375 0.12382-0.85328 0.98107  0 197.57 420.39  138.87 197.90 421.30  138.46
   3   2  -5  1158.1    74.3   1 0.01821 0.53947 0.24866-0.04881-0.96842 0.84059  0 239.79 465.90  202.01 239.28 465.54  202.44
  -3  -2   6  1582.0   115.2   1 0.06755-0.62530-0.97941 0.77951 0.19025-0.03691  0 182.00 110.79   13.08 182.51 110.83   13.08
   3  -2  -6  1438.7   104.3   1 0.11790 0.43972 0.14587-0.34576-0.98225 0.82891  0 154.54 347.10  189.65 154.82 346.76  189.65
   3  -2   6  1599.6    92.6   1 0.42701 0.13069-0.37617 0.17624-0.82229 0.97563  0 200.90 430.01  132.60 200.88 429.64  132.82
  -3  -2   7  5322.6   195.4   1 0.06841-0.62616-0.97952 0.77963 0.18937-0.01047  0 174.65 117.68   13.15 174.62 117.66   13.19
   3  -2  -7  4977.4   186.1   1 0.09147 0.46615 0.17478-0.37467-0.98035 0.80145  0 149.68 341.17  193.13 149.69 341.15  193.13
   3  -2   7  5561.4   159.4   1 0.44227 0.11543-0.42897 0.22904-0.78764 0.96655  0 203.68 438.45  127.03 203.78 438.34  127.05
  -3  -2   8  2046.6   133.4   1 0.06833-0.62608-0.97951 0.77962 0.18945 0.01501  0 167.10 124.56   13.13 166.63 124.48   13.18
   3  -2  -8  1636.8   113.6   1 0.06598 0.49164 0.20137-0.40126-0.97729 0.77284  0 144.28 335.67  196.40 144.34 335.69  196.41
   3  -2   8  2260.4   104.4   1 0.45433 0.10337-0.48149 0.28156-0.74950 0.95396  0 206.60 447.21  121.24 206.62 447.42  121.19
  -3  -2   9 848.777 108.907   1 0.06741-0.62515-0.97939 0.77950 0.19040 0.03962  0 158.32 131.28   13.00 158.54 131.31   13.07
   3  -2  -9 707.546  85.575   1 0.04155 0.51607 0.22579-0.42568-0.97329 0.74328  0 138.89 330.26  199.55 138.75 330.35  199.50
   3  -2   9 802.679  73.276   1 0.46283 0.09488-0.53354 0.33360-0.70791 0.93793  0 209.71 456.71  115.23 209.43 456.96  115.23
  -3  -2  10  1978.0   139.5   1 0.06572-0.62346-0.97917 0.77927 0.19213 0.06344  0 150.18 138.10   12.87 150.35 138.17   12.85
   3  -2 -10  1748.6   119.8   1 0.01834 0.53934 0.24854-0.44839-0.96845 0.71279  0 132.93 325.09  202.44 132.85 325.11  202.42
   3  -2  10  2232.1   104.7   1 0.46775 0.08995-0.58423 0.38430-0.66324 0.91882  0 212.16 466.95  109.24 212.24 466.91  109.21
  -3  -2  11  2456.9   153.8   1 0.06334-0.62108-0.97884 0.77895 0.19456 0.08657  0 142.12 145.20   12.56 142.04 145.05   12.55
   3  -2 -11  2101.1   134.3   1-0.00380 0.56148 0.26888-0.46873-0.96317 0.68194  0 126.87 319.78  205.17 126.75 320.03  205.13
   3  -2  11  2655.2   111.7   1 0.46868 0.08902-0.63363 0.43370-0.61551 0.89665  0 215.09 477.38  103.12 215.15 477.45  103.12
  -3  -2  12 506.229  91.628   1 0.06032-0.61806-0.97842 0.77853 0.19762 0.10906  0 133.57 151.89   12.21 133.62 151.99   12.16
   3  -2  12 495.533  59.712   1 0.46609 0.09161-0.68041 0.48050-0.56551 0.87220  0 218.10 488.18   97.13 218.13 488.55   97.02
  -3  -2  13  2747.7   167.8   1 0.05671-0.61446-0.97789 0.77800 0.20126 0.13098  0 125.10 158.84   11.73 125.07 159.00   11.71
   3  -2  13  2967.0   121.6   1 0.45901 0.09869-0.72555 0.52564-0.51272 0.84496  2 221.21 499.98   90.84 221.37 500.32   90.82
  -3  -2  14 733.789 118.507   1 0.05258-0.61033-0.97726 0.77736 0.20544 0.15235  0 116.65 166.03   11.36 116.40 166.09   11.18
  -3  -2  15 502.972 103.057   1 0.04793-0.60568-0.97651 0.77662 0.21008 0.17328  0 107.93 173.19   10.70 107.56 173.27   10.60
  -3  -2  16  72.897  68.701   1 0.04281-0.60055-0.97565 0.77575 0.21514 0.19377  0  98.33 180.70   10.05  98.57 180.58    9.95
  -3  -2  17 271.536  92.206   1 0.03724-0.59498-0.97466 0.77476 0.22059 0.21388  0  88.97 188.22    9.36  89.40 188.03    9.26
  -3  -2  18  1441.8   147.9   1 0.03124-0.58899-0.97353 0.77364 0.22640 0.23362  0  79.15 195.30    8.46  80.04 195.63    8.51
  -3  -2  19  2276.5   180.3   1 0.02485-0.58260-0.97227 0.77237 0.23255 0.25303  0  70.50 203.54    7.72  70.47 203.42    7.71
  -3  -2  20 910.786 143.372   1 0.01806-0.57581-0.97085 0.77096 0.23899 0.27215  0  59.27 211.56    6.60  60.68 211.40    6.88
  -3  -2  21  5322.6   268.3   1 0.01091-0.56865-0.96928 0.76939 0.24570 0.29099  0  50.74 219.47    6.02  50.64 219.62    5.99
  -3  -2  22 811.076 138.110   1 0.00338-0.56113-0.96755 0.76765 0.25266 0.30959  0  41.81 228.06    5.24  40.32 228.10    5.07
  -3  -2  23 657.403 131.034   1-0.00449-0.55325-0.96564 0.76574 0.25986 0.32795  0  29.43 236.94    4.35  29.72 236.87    4.11
  -3  -2  24  1014.9   151.8   1-0.01271-0.54504-0.96354 0.76364 0.26727 0.34610  0  18.96 245.53    3.35  18.78 245.97    3.11
  -3  -3   0  4787.3   155.5   1 0.16881-0.72656-0.98267 0.68283 0.07653-0.07653  0 226.34  42.43   26.63 226.33  42.37   26.61
   3  -3   0  4981.2   175.1   1 0.30286 0.25476-0.10519-0.19464-0.94721 0.94721  0 150.62 363.30  161.68 150.78 363.21  161.65
  -3  -3  -1  1502.4    90.1   1 0.16464-0.72239-0.98297 0.68313 0.08164-0.10720  0 234.18  34.95   26.14 234.60  34.60   26.02
  -3  -3   1  1401.1    93.9   1 0.17147-0.72921-0.98246 0.68262 0.07325-0.04770  0 218.44  49.88   26.82 218.03  49.98   26.98
   3  -3  -1  1188.9    96.4   1 0.27974 0.27788-0.06765-0.23219-0.95769 0.93213  0 148.04 356.98  165.64 148.01 356.71  165.68
   3  -3   1  1360.0    99.4   1 0.32527 0.23235-0.14426-0.15558-0.93455 0.96011  0 153.25 369.95  157.61 153.31 369.92  157.50
  -3  -3  -2 503.753  62.065   1 0.15867-0.71642-0.98332 0.68348 0.08889-0.14000  0 243.12  26.16   24.72 242.84  26.68   25.19
  -3  -3   2 736.496  78.484   1 0.17285-0.73060-0.98235 0.68250 0.07154-0.02043  0 209.13  57.68   27.41 209.69  57.47   27.17
   3  -3  -2 601.185  84.803   1 0.25620 0.30142-0.03164-0.26820-0.96611 0.91499  0 144.95 350.54  169.65 145.00 350.39  169.57
   3  -3   2 520.206  77.573   1 0.34685 0.21077-0.18451-0.11533-0.91960 0.97071  0 155.51 376.81  153.13 155.60 376.82  153.23
  -3  -3  -3  4854.0   142.8   1 0.15051-0.70826-0.98367 0.68383 0.09868-0.17535  0 250.94  18.48   23.97 251.05  18.59   24.05
  -3  -3   3  5210.4   182.1   1 0.17314-0.73088-0.98232 0.68248 0.07119 0.00548  0 201.03  64.95   27.25 201.33  64.84   27.22
   3  -3  -3  5267.9   186.1   1 0.23242 0.32520 0.00271-0.30255-0.97261 0.89594  0 141.52 344.25  173.40 141.72 344.24  173.33
   3  -3   3  5319.2   177.7   1 0.36729 0.19041-0.22595-0.07394-0.90224 0.97892  0 157.44 384.11  148.84 157.65 383.97  148.86
  -3  -3  -4  4582.8   136.8   1 0.13969-0.69743-0.98391 0.68407 0.11141-0.21364  2 259.24  10.60   22.65 259.20  10.31   22.57
  -3  -3   4  4913.1   179.0   1 0.17248-0.73023-0.98238 0.68254 0.07200 0.03023  0 192.91  71.96   27.05 192.94  72.12   27.12
   3  -3  -4  4441.1   180.1   1 0.20858 0.34904 0.03527-0.33511-0.97737 0.87514  0 138.06 338.36  176.93 138.19 338.25  176.94
   3  -3   4  4581.5   165.6   1 0.38644 0.17126-0.26812-0.03177-0.88248 0.98471  0 159.37 391.57  144.29 159.50 391.34  144.39
  -3  -3   5  4112.7   168.2   1 0.17100-0.72874-0.98250 0.68266 0.07384 0.05395  0 184.74  79.32   26.90 184.50  79.32   26.91
   3  -3  -5  3753.0   163.9   1 0.18491 0.37271 0.06611-0.36594-0.98053 0.85275  0 134.39 332.42  180.41 134.40 332.42  180.40
   3  -3   5  4036.4   155.5   1 0.40400 0.15370-0.31101 0.01112-0.86027 0.98805  0 161.11 398.99  139.89 161.15 398.98  139.82
   3  -3  -6  1438.8   112.7   1 0.16151 0.39610 0.09508-0.39492-0.98228 0.82894  0 129.74 326.94  183.87 130.33 326.73  183.71
   3  -3   6  1588.8   105.1   1 0.41976 0.13794-0.35438 0.05448-0.83559 0.98894  0 162.61 407.07  135.00 162.60 406.91  135.18
  -3  -3   7 17798.5   354.6   1 0.16592-0.72367-0.98288 0.68304 0.08008 0.09881  0 167.25  93.65   26.20 167.48  93.54   26.20
   3  -3  -7 16460.5   345.9   1 0.13858 0.41904 0.12229-0.42212-0.98277 0.80388  0 125.83 321.26  186.84 126.00 321.17  186.87
   3  -3   7 18568.1   315.9   1 0.43361 0.12410-0.39785 0.09795-0.80852 0.98742  0 163.78 415.36  130.41 163.87 415.15  130.46
  -3  -3   8 18760.5   385.5   1 0.16247-0.72021-0.98311 0.68327 0.08429 0.12016  0 159.17 100.67   25.75 158.89 100.61   25.71
   3  -3  -8 17162.9   353.7   1 0.11623 0.44139 0.14773-0.44757-0.98217 0.77772  0 121.30 315.81  189.83 121.38 315.73  189.87
   3  -3   8 20554.8   328.7   1 0.44536 0.11234-0.44118 0.14128-0.77911 0.98357  0 164.85 423.63  125.76 164.97 423.68  125.70
  -3  -3   9  4659.5   209.3   1 0.15849-0.71623-0.98333 0.68349 0.08911 0.14090  0 151.08 107.67   25.11 150.22 107.65   25.16
   3  -3  -9  4427.8   187.0   1 0.09456 0.46306 0.17147-0.47131-0.98064 0.75063  0 116.46 310.41  192.66 116.47 310.40  192.73
   3  -3   9  5262.5   171.2   1 0.45486 0.10285-0.48415 0.18426-0.74746 0.97748  0 165.89 432.26  121.02 165.92 432.61  120.89
   3  -3 -10 341.132  74.096   1 0.07364 0.48397 0.19349-0.49333-0.97833 0.72277  0 111.11 305.31  195.64 111.28 305.18  195.43
   3  -3  10 377.880  66.268   1 0.46189 0.09581-0.52665 0.22676-0.71365 0.96923  0 167.24 442.01  115.98 166.73 441.94  116.02
  -3  -3  11  8491.1   284.0   1 0.14910-0.70685-0.98372 0.68387 0.10035 0.18077  0 132.75 121.92   23.93 132.64 121.74   23.86
   3  -3 -11  7465.3   253.1   1 0.05354 0.50408 0.21387-0.51371-0.97539 0.69427  0 105.74 300.06  197.98 105.79 300.05  197.99
   3  -3  11  8643.3   223.6   1 0.46659 0.09111-0.56809 0.26819-0.67791 0.95905  0 167.30 451.60  111.15 167.42 451.65  111.15
   3  -3 -12  1074.9   114.1   1 0.03444 0.52324 0.23307-0.53285-0.97185 0.66505  0  99.40 294.71  200.51  99.93 295.00  200.41
   3  -3  12  1360.4    99.9   1 0.46864 0.08906-0.60862 0.30872-0.64028 0.94697  0 167.63 460.89  106.60 168.03 461.91  106.24
  -3  -3  13 10452.7   322.7   1 0.13804-0.69578-0.98392 0.68408 0.11333 0.21891  0 114.77 135.91   22.37 114.64 135.96   22.35
   3  -3 -13  8591.6   271.6   1 0.01623 0.54145 0.25052-0.55029-0.96797 0.63561  0  93.84 289.93  202.66  93.80 290.02  202.68
   3  -3  13 10939.6   245.9   1 0.46820 0.08950-0.64773 0.34784-0.60102 0.93327  0 168.38 472.58  101.36 168.59 472.62  101.32
  -3  -3  14 294.963  86.253   1 0.13194-0.68968-0.98392 0.68408 0.12037 0.23742  0 106.48 143.38   21.28 105.45 143.15   21.52
   3  -3 -14  81.420  53.180   1-0.00112 0.55880 0.26645-0.56622-0.96385 0.60592  0  87.11 285.27  204.48  87.36 285.15  204.80
   3  -3  14 163.548  50.059   1 0.46556 0.09213-0.68491 0.38504-0.56049 0.91829  0 168.67 481.10   97.03 169.10 483.95   96.42
  -3  -3  15  3246.6   215.9   1 0.12549-0.68323-0.98384 0.68400 0.12773 0.25562  0  95.58 150.46   20.63  96.14 150.43   20.65
   3  -3  15  3392.8   143.8   1 0.45995 0.09775-0.72091 0.42104-0.51840 0.90176  2 169.51 495.83   91.42 169.65 495.93   91.48
  -3  -3  16  4551.9   243.1   1 0.11870-0.67645-0.98366 0.68382 0.13538 0.27353  0  85.86 157.54   19.66  86.64 157.80   19.74
  -3  -3  17  9623.8   337.5   1 0.11159-0.66934-0.98337 0.68353 0.14330 0.29117  0  76.81 165.38   18.77  76.97 165.29   18.80
  -3  -3  18  8674.3   332.3   1 0.10419-0.66194-0.98295 0.68311 0.15149 0.30854  0  67.38 173.07   17.80  67.08 172.92   17.82
  -3  -3  19  1576.5   166.2   1 0.09648-0.65422-0.98241 0.68257 0.15986 0.32572  0  58.07 180.74   16.71  56.98 180.71   16.81
  -3  -3  20 873.965 152.873   1 0.08844-0.64619-0.98174 0.68190 0.16842 0.34272  0  46.35 188.32   15.62  46.64 188.69   15.77
  -3  -3  21  1591.2   172.0   1 0.08014-0.63788-0.98091 0.68107 0.17718 0.35951  0  35.92 196.70   14.61  36.04 196.88   14.70
  -3  -3  22  1741.9   177.8   1 0.07155-0.62930-0.97992 0.68008 0.18611 0.37614  0  25.78 205.93   13.57  25.15 205.31   13.59
  -3  -4   0 728.791  83.841   1 0.26731-0.82506-0.96188 0.56209-0.05770 0.05770  0 215.38  14.90   41.56 215.26  14.37   41.51
   3  -4   0 728.244 100.219   1 0.32240 0.23522-0.13909-0.26070-0.93633 0.93633  0 118.23 345.25  158.00 118.41 344.99  158.05
  -3  -4   1 238.421  58.645   1 0.26489-0.82263-0.96276 0.56298-0.05403 0.07958  0 205.78  22.69   41.05 206.34  22.50   41.11
   3  -4  -1 142.431  52.419   1 0.30333 0.25429-0.10598-0.29381-0.94698 0.92142  0 116.36 338.37  161.58 116.39 338.52  161.57
   3  -4   1 166.650  54.718   1 0.34092 0.21670-0.17314-0.22664-0.92401 0.94957  0 120.64 351.66  154.58 120.15 351.61  154.43
  -3  -4   2  1307.7   106.6   1 0.26185-0.81959-0.96384 0.56405-0.04945 0.10056  0 197.48  30.53   40.66 197.45  30.47   40.61
   3  -4  -2  1311.4   113.5   1 0.28377 0.27385-0.07401-0.32577-0.95603 0.90492  0 113.82 332.25  165.02 114.10 332.23  164.99
   3  -4   2  1405.6   109.5   1 0.35872 0.19890-0.20804-0.19174-0.90997 0.96108  0 121.47 358.60  150.62 121.63 358.44  150.74
  -3  -4   3 342.963  68.709   1 0.25827-0.81602-0.96507 0.56528-0.04405 0.12072  0 187.72  38.83   39.95 188.57  38.28   40.03
   3  -4  -3 252.549  64.077   1 0.26390 0.29372-0.04325-0.35653-0.96358 0.88691  0 111.53 325.89  168.52 111.53 326.10  168.31
   3  -4   3 244.765  63.634   1 0.37560 0.18210-0.24379-0.15607-0.89414 0.97081  0 122.81 365.47  146.91 122.83 365.48  146.97
  -3  -4   4  3212.8   158.1   1 0.25421-0.81196-0.96640 0.56661-0.03804 0.14027  0 179.72  46.14   39.39 179.69  45.97   39.37
   3  -4  -4  3306.5   163.5   1 0.24394 0.31368-0.01365-0.38614-0.96970 0.86747  0 108.51 320.05  171.55 108.66 320.11  171.53
   3  -4   4  3747.1   164.6   1 0.39148 0.16622-0.28001-0.11985-0.87655 0.97878  0 123.68 372.94  143.09 123.81 372.74  143.12
  -3  -4   5 840.927 103.271   1 0.24972-0.80746-0.96781 0.56802-0.03146 0.15925  0 170.75  53.60   38.52 170.80  53.54   38.66
   3  -4  -5 770.477  94.467   1 0.22389 0.33373 0.01456-0.41434-0.97451 0.84672  0 105.04 314.20  174.63 105.50 314.25  174.64
   3  -4   5  1056.7    98.3   1 0.40613 0.15157-0.31676-0.08310-0.85716 0.98495  0 124.14 380.28  139.29 124.54 380.24  139.21
  -3  -4   6  1778.3   140.1   1 0.24482-0.80257-0.96926 0.56947-0.02438 0.17772  0 161.89  60.97   37.90 161.88  61.03   37.88
   3  -4  -6  1715.4   127.3   1 0.20397 0.35365 0.04147-0.44125-0.97810 0.82476  0 101.54 309.00  177.52 102.04 308.51  177.63
   3  -4   6  1981.2   124.5   1 0.41953 0.13817-0.35372-0.04614-0.83599 0.98933  0 124.76 388.21  135.20 125.03 388.01  135.25
  -3  -4   7  1033.4   115.0   1 0.23955-0.79730-0.97074 0.57095-0.01689 0.19579  0 152.95  68.81   37.00 152.93  68.46   37.06
   3  -4  -7 880.477 101.545   1 0.18423 0.37339 0.06697-0.46675-0.98060 0.80170  0  98.15 303.23  180.50  98.29 302.90  180.50
   3  -4   7 976.363  95.815   1 0.43152 0.12618-0.39080-0.00906-0.81306 0.99197  0 125.17 396.59  131.14 125.30 396.07  131.23
  -3  -4   8  1004.8   124.4   1 0.23395-0.79170-0.97221 0.57242-0.00897 0.21343  0 143.87  76.04   36.05 143.92  75.80   36.19
   3  -4  -8 914.339 104.522   1 0.16481 0.39281 0.09108-0.49086-0.98211 0.77766  0  94.27 297.16  183.36  94.20 297.39  183.25
   3  -4   8  1112.8   102.1   1 0.44197 0.11573-0.42784 0.02798-0.78842 0.99289  0 125.31 404.85  127.03 125.35 404.41  127.17
  -3  -4   9  1257.9   132.1   1 0.22803-0.78577-0.97365 0.57387-0.00072 0.23073  0 133.29  82.82   35.04 134.83  83.11   35.28
   3  -4  -9 930.570 103.822   1 0.14581 0.41181 0.11384-0.51362-0.98274 0.75273  0  89.40 292.01  185.91  89.80 291.98  185.88
   3  -4   9 826.327  92.196   1 0.45081 0.10689-0.46467 0.06481-0.76214 0.99216  0 125.23 413.13  123.06 125.22 413.07  123.08
  -3  -4  10  7296.4   283.8   1 0.22181-0.77955-0.97506 0.57527 0.00785 0.24772  0 125.76  90.47   34.33 125.68  90.39   34.33
   3  -4 -10  5709.6   231.6   1 0.12731 0.43031 0.13525-0.53503-0.98260 0.72703  0  85.09 286.66  188.39  85.08 286.66  188.39
   3  -4  10  7748.8   227.2   1 0.45786 0.09984-0.50124 0.10138-0.73425 0.98983  0 124.81 422.17  118.95 124.87 422.14  118.95
  -3  -4  11 460.240  97.534   1 0.21529-0.77304-0.97641 0.57662 0.01670 0.26443  0 116.76  97.27   33.28 116.43  97.67   33.35
   3  -4 -11 337.809  82.650   1 0.10938 0.44824 0.15532-0.55511-0.98179 0.70067  0  79.84 281.78  190.55  80.02 281.41  190.78
   3  -4  11 555.889  86.216   1 0.46329 0.09441-0.53711 0.13725-0.70489 0.98603  0 124.17 429.87  115.22 124.33 431.59  114.81
  -3  -4  12  3510.4   209.1   1 0.20851-0.76625-0.97768 0.57789 0.02579 0.28089  0 107.24 105.00   32.40 107.06 104.96   32.34
   3  -4 -12  2945.8   171.3   1 0.09209 0.46553 0.17412-0.57390-0.98041 0.67373  0  74.81 276.26  193.11  74.62 276.24  193.05
   3  -4  12  3840.5   168.0   1 0.46693 0.09077-0.57229 0.17243-0.67414 0.98083  0 123.39 441.50  110.63 123.64 441.43  110.65
  -3  -4  13 507.994 113.546   1 0.20145-0.75920-0.97887 0.57908 0.03511 0.29713  0  98.08 112.42   31.36  97.58 112.27   31.29
   3  -4 -13 390.805  83.456   1 0.07544 0.48217 0.19163-0.59141-0.97856 0.64633  0  69.22 271.35  195.38  68.87 271.13  195.20
   3  -4  13 602.285  92.385   1 0.46860 0.08910-0.60680 0.20694-0.64204 0.97429  0 122.87 450.62  106.74 122.78 451.82  106.46
  -3  -4  14  2476.0   197.8   1 0.19414-0.75189-0.97996 0.58017 0.04463 0.31317  0  87.82 119.42   30.25  87.95 119.62   30.23
   3  -4 -14  2165.9   154.5   1 0.05950 0.49812 0.20790-0.60768-0.97634 0.61855  0  62.90 265.99  197.31  62.76 266.07  197.23
   3  -4  14  2588.1   147.7   1 0.46851 0.08919-0.64024 0.24038-0.60876 0.96657  0 121.54 462.77  102.33 121.80 462.66  102.28
  -3  -4  15  2058.7   187.7   1 0.18657-0.74431-0.98094 0.58115 0.05432 0.32903  0  78.57 127.44   29.17  78.14 127.02   29.13
   3  -4 -15  1856.0   149.6   1 0.04434 0.51328 0.22305-0.62283-0.97380 0.59045  0  56.58 260.91  199.20  56.27 261.06  199.15
   3  -4  15  2343.5   133.7   1 0.46690 0.09080-0.67225 0.27243-0.57452 0.95788  0 120.56 474.34   98.06 120.71 474.14   98.10
  -3  -4  16 401.382 110.002   1 0.17875-0.73650-0.98180 0.58201 0.06419 0.34472  0  68.78 134.96   27.86  68.17 134.52   28.01
   3  -4 -16 223.837  75.793   1 0.03000 0.52767 0.23735-0.63704-0.97096 0.56190  0  48.92 256.71  200.97  49.30 256.08  200.96
   3  -4  16 370.343  75.013   1 0.46303 0.09467-0.70351 0.30369-0.53914 0.94806  0 119.94 486.84   93.69 119.52 486.20   93.90
  -3  -4  17  1678.5   179.1   1 0.17070-0.72844-0.98253 0.58274 0.07421 0.36026  0  58.10 142.14   26.93  58.02 142.12   26.87
   3  -4 -17  1395.4   135.9   1 0.01643 0.54125 0.25033-0.65003-0.96802 0.53339  0  42.06 251.06  202.62  42.01 251.11  202.66
   3  -4  17  2095.6   149.2   1 0.45728 0.10042-0.73351 0.33368-0.50285 0.93732  2 118.27 498.43   89.77 118.26 499.03   89.69
  -3  -4  18 199.919  92.118   1 0.16241-0.72015-0.98311 0.58332 0.08437 0.37566  0  45.77 149.07   25.52  47.62 149.85   25.71
   3  -4 -18 100.587  58.637   1 0.00354 0.55414 0.26219-0.66188-0.96501 0.50482  0  34.69 246.01  204.42  34.29 246.21  204.23
  -3  -4  19  2781.3   218.5   1 0.15387-0.71162-0.98355 0.58376 0.09465 0.39093  0  37.05 157.80   24.58  36.98 157.73   24.52
   3  -4 -19  2261.0   167.5   1-0.00851 0.56618 0.27312-0.67282-0.96194 0.47618  0  26.02 241.18  205.69  26.13 241.31  205.70
  -3  -4  20 116.219  93.982   1 0.14511-0.70286-0.98382 0.58403 0.10506 0.40607  0  26.07 165.50   23.44  26.08 165.77   23.31
   3  -5   0  44.226  45.442   1 0.34337 0.21424-0.17782-0.32191-0.92221 0.92221  0  83.36 328.36  154.11  82.69 328.80  153.94
   3  -5  -1 487.587  89.140   1 0.32757 0.23005-0.14839-0.35133-0.93310 0.90755  0  81.36 322.48  157.12  81.21 322.27  157.06
   3  -5   1 450.502  86.461   1 0.35867 0.19895-0.20794-0.29178-0.91001 0.93556  0  83.50 335.88  150.51  83.88 335.50  150.75
   3  -5  -2  1271.0   116.1   1 0.31134 0.24628-0.11975-0.37998-0.94272 0.89161  0  79.70 315.33  160.47  79.43 315.90  160.10
   3  -5   2 975.574 102.359   1 0.37331 0.18439-0.23881-0.26102-0.89644 0.94756  0  85.04 342.49  147.54  84.75 342.39  147.50
  -3  -5   3  4860.6   214.5   1 0.31518-0.87288-0.93937 0.43958-0.13511 0.21178  2 167.63  10.00   49.88 167.32   9.58   49.83
   3  -5  -3  4928.0   214.0   1 0.29486 0.26275-0.09191-0.40782-0.95111 0.87444  0  77.27 309.49  163.11  77.34 309.66  163.07
   3  -5   3  5118.7   203.8   1 0.38727 0.17043-0.27005-0.22978-0.88153 0.95820  0  85.41 349.47  144.23  85.37 349.47  144.18
  -3  -5   4 643.458 105.050   1 0.30946-0.86721-0.94261 0.44287-0.12541 0.22764  0 158.95  17.17   48.57 158.15  17.80   48.79
   3  -5  -4 529.167  95.547   1 0.27810 0.27952-0.06507-0.43466-0.95835 0.85612  0  74.61 303.60  165.85  74.95 303.56  165.95
   3  -5   4 659.771 103.053   1 0.40036 0.15734-0.30176-0.19807-0.86525 0.96748  0  86.11 356.07  141.15  85.72 356.77  140.81
  -3  -5   5 639.969 106.867   1 0.30357-0.86132-0.94579 0.44605-0.11547 0.24325  0 148.62  25.79   47.40 149.02  25.81   47.72
   3  -5  -5 451.020  84.199   1 0.26125 0.29637-0.03917-0.46056-0.96448 0.83669  0  71.55 297.59  168.58  72.24 297.58  168.75
   3  -5   5 642.197  97.317   1 0.41250 0.14520-0.33382-0.16601-0.84759 0.97538  0  86.15 364.30  137.49  85.79 364.31  137.38
  -3  -5   6  1553.9   146.0   1 0.29744-0.85518-0.94892 0.44918-0.10531 0.25865  0 139.39  33.81   46.51 139.85  33.70   46.63
   3  -5  -6  1301.2   125.0   1 0.24439 0.31323-0.01429-0.48544-0.96957 0.81623  0  69.10 291.37  171.55  69.19 291.71  171.46
   3  -5   6  1629.4   125.7   1 0.42371 0.13399-0.36600-0.13382-0.82856 0.98191  0  85.64 371.90  133.91  85.60 372.10  133.92
  -3  -5   7  2793.9   187.3   1 0.29107-0.84882-0.95198 0.45224-0.09493 0.27383  0 130.91  41.48   45.52 130.64  41.48   45.52
   3  -5  -7  2853.7   170.5   1 0.22755 0.33007 0.00950-0.50923-0.97372 0.79482  0  65.78 285.91  174.11  65.83 285.94  174.08
   3  -5   7  3257.0   165.3   1 0.43376 0.12394-0.39836-0.10146-0.80818 0.98709  0  85.17 380.14  130.42  85.16 380.16  130.41
  -3  -5   8 269.006  89.010   1 0.28448-0.84223-0.95496 0.45523-0.08437 0.28883  0 122.27  48.85   43.99 121.35  49.22   44.39
   3  -5  -8 187.822  64.736   1 0.21087 0.34675 0.03222-0.53194-0.97698 0.77253  0  62.08 281.13  176.55  62.12 280.27  176.60
   3  -5   8 213.420  67.867   1 0.44270 0.11500-0.43064-0.06919-0.78649 0.99095  0  84.78 387.44  127.16  84.47 388.50  126.87
  -3  -5   9 392.690 101.295   1 0.27767-0.83542-0.95785 0.45811-0.07365 0.30366  0 110.79  56.77   42.97 111.98  56.85   43.23
   3  -5  -9 205.714  75.897   1 0.19446 0.36316 0.05388-0.55361-0.97943 0.74942  0  58.38 274.83  179.05  58.05 274.67  179.02
   3  -5   9 276.624  74.032   1 0.45040 0.10731-0.46280-0.03702-0.76352 0.99354  0  82.57 397.90  123.26  83.55 397.16  123.29
  -3  -5  10  1464.8   158.4   1 0.27064-0.82839-0.96063 0.46089-0.06278 0.31835  0 102.22  64.38   42.06 102.51  64.44   42.06
   3  -5 -10  1263.8   128.4   1 0.17830 0.37932 0.07441-0.57414-0.98116 0.72559  0  54.04 268.89  181.42  53.64 269.16  181.34
   3  -5  10  1551.4   128.7   1 0.45684 0.10086-0.49469-0.00514-0.73931 0.99489  0  82.56 405.90  119.70  82.37 406.20  119.69
  -3  -5  11 992.236 155.941   1 0.26340-0.82115-0.96330 0.46356-0.05179 0.33291  0  93.41  72.32   40.93  92.92  72.00   40.86
   3  -5 -11 646.076 107.404   1 0.16252 0.39510 0.09386-0.59359-0.98223 0.70111  0  48.94 263.90  183.57  48.85 263.71  183.57
   3  -5  11 919.409 105.226   1 0.46184 0.09586-0.52634 0.02652-0.71391 0.99504  0  81.06 415.80  115.99  80.98 415.63  116.06
  -3  -5  12 231.696  94.507   1 0.25597-0.81371-0.96583 0.46610-0.04063 0.34731  0  82.75  79.10   39.68  83.19  79.54   39.65
   3  -5 -12 214.985  72.765   1 0.14717 0.41045 0.11223-0.61196-0.98272 0.67605  0  42.97 258.20  185.60  43.68 258.31  185.69
   3  -5  12 377.753  80.894   1 0.46562 0.09208-0.55739 0.05757-0.68739 0.99409  0  79.58 425.69  112.35  79.36 425.42  112.42
  -3  -5  13 777.938 138.715   1 0.24831-0.80605-0.96824 0.46850-0.02941 0.36165  0  73.41  87.36   38.56  73.31  87.10   38.43
   3  -5 -13 635.083 105.442   1 0.13230 0.42532 0.12955-0.62928-0.98271 0.65047  0  37.76 252.99  187.60  38.13 252.96  187.72
   3  -5  13  1003.8   113.8   1 0.46796 0.08974-0.58793 0.08810-0.65981 0.99206  0  77.74 435.28  108.77  77.53 435.71  108.76
  -3  -5  14 374.608 113.149   1 0.24042-0.79816-0.97050 0.47076-0.01812 0.37592  0  63.43  94.47   37.15  63.28  94.71   37.19
   3  -5 -14 269.046  79.545   1 0.11794 0.43968 0.14582-0.64554-0.98226 0.62446  0  31.88 247.81  189.56  32.18 247.64  189.64
   3  -5  14 626.949 101.577   1 0.46879 0.08891-0.61791 0.11809-0.63121 0.98901  0  75.30 446.80  105.07  75.49 446.53  105.09
  -3  -5  15  53.107  75.866   1 0.23234-0.79009-0.97261 0.47288-0.00671 0.39007  0  52.81 101.94   35.90  53.04 102.34   35.94
   3  -5 -15 -17.916  46.620   1 0.10414 0.45348 0.16106-0.66079-0.98143 0.59809  0  25.45 242.62  191.51  25.80 242.35  191.47
   3  -5  15  68.764  52.565   1 0.46823 0.08947-0.64711 0.14728-0.60167 0.98504  0  74.26 458.44  101.23  73.27 457.88  101.40
  -3  -5  16 541.400 135.753   1 0.22405-0.78180-0.97457 0.47483 0.00477 0.40414  0  42.16 109.99   34.71  42.56 110.03   34.67
   3  -5 -16 329.100  86.423   1 0.09094 0.46668 0.17534-0.67507-0.98030 0.57139  0  19.93 237.11  193.45  18.99 237.08  193.20
   3  -5  16 511.747  95.657   1 0.46663 0.09107-0.67512 0.17534-0.57137 0.98029  0  70.52 469.60   97.81  70.86 469.87   97.72
   3  -6   0   9.039  44.199   1 0.36455 0.19315-0.22021-0.37958-0.90477 0.90477  0  42.36 313.75  149.48  42.16 314.30  149.47
   3  -6  -1 147.559  63.039   1 0.35156 0.20606-0.19370-0.40597-0.91591 0.89035  0  41.12 307.26  152.35  41.12 307.57  152.26
   3  -6   1 163.613  66.377   1 0.37711 0.18059-0.24711-0.35268-0.89259 0.91815  0  43.27 321.21  146.61  42.95 321.19  146.62
   3  -6  -2  61.822  53.859   1 0.33816 0.21946-0.16790-0.43177-0.92599 0.87488  0  40.21 300.58  155.11  39.70 301.00  154.99
   3  -6   2  38.957  49.117   1 0.38915 0.16855-0.27445-0.32534-0.87934 0.93045  0  42.59 327.73  143.57  43.41 328.26  143.72
   3  -6  -3  95.401  56.074   1 0.32445 0.23317-0.14274-0.45693-0.93507 0.85840  0  36.75 294.83  157.51  37.95 294.56  157.66
   3  -6   3  98.028  57.187   1 0.40054 0.15716-0.30222-0.29757-0.86500 0.94168  0  43.75 335.48  140.49  43.58 335.53  140.76
   3  -6  -4  3259.5   187.3   1 0.31050 0.24712-0.11830-0.48137-0.94318 0.84096  0  35.88 288.02  160.28  35.87 288.24  160.26
   3  -6   4  3448.0   187.2   1 0.41123 0.14648-0.33033-0.26946-0.84957 0.95181  0  43.17 343.09  137.73  43.44 343.01  137.76
   3  -6  -5 956.716 112.531   1 0.29646 0.26116-0.09453-0.50514-0.95036 0.82257  0  33.08 282.16  162.63  33.44 282.02  162.79
   3  -6   5 993.762 116.100   1 0.42121 0.13649-0.35863-0.24116-0.83305 0.96084  0  42.39 350.75  134.66  43.00 350.72  134.72
   3  -6  -6 163.176  66.283   1 0.28225 0.27536-0.07161-0.52806-0.95666 0.80332  0  31.38 276.06  165.44  30.67 275.92  165.25
   3  -6   6 240.815  76.736   1 0.43038 0.12732-0.38708-0.21271-0.81544 0.96878  0  41.94 358.88  131.64  42.25 358.70  131.63
  -3  -6   7 480.409 121.535   1 0.32493-0.88263-0.93341 0.33367-0.15221 0.33111  2  99.92  12.43   51.39 100.25  11.58   51.66
   3  -6  -7 517.290 101.038   1 0.26803 0.28959-0.04952-0.55015-0.96214 0.78324  0  26.99 269.86  167.51  27.52 269.90  167.63
   3  -6   7 759.868 115.654   1 0.43868 0.11902-0.41562-0.18418-0.79676 0.97566  0  40.84 367.50  128.44  41.23 366.93  128.52
  -3  -6   8  91.645  90.148   1 0.31811-0.87581-0.93763 0.33789-0.14021 0.34466  0  88.99  19.45   49.80  90.73  19.71   50.37
   3  -6  -8  30.451  51.061   1 0.25389 0.30373-0.02823-0.57144-0.96682 0.76237  0  23.98 264.12  170.00  24.02 263.97  169.94
   3  -6   8  75.282  55.603   1 0.44608 0.11162-0.44413-0.15567-0.77702 0.98148  0  40.76 374.79  125.49  39.94 375.44  125.37
  -3  -6   9  1624.3   184.8   1 0.31103-0.86878-0.94173 0.34205-0.12809 0.35810  0  81.09  28.09   49.04  81.04  27.84   49.07
   3  -6  -9  1593.5   145.9   1 0.23986 0.31775-0.00781-0.59186-0.97077 0.74077  0  20.51 258.10  172.25  20.11 258.09  172.17
   3  -6   9  1982.0   155.5   1 0.45250 0.10520-0.47257-0.12723-0.75626 0.98628  0  38.19 384.31  122.20  38.37 384.29  122.20
   4   0  -5  1353.2   128.3   1 0.21494 0.52855 0.02675-0.02675-0.97626 0.84848  2 161.19 498.21  176.36 161.91 499.35  175.99
   4   0  -6  2496.7   142.8   1 0.18534 0.55815 0.06556-0.06556-0.98048 0.82715  0 152.01 491.61  180.37 152.16 491.60  180.34
   4   0  -7  1850.6   133.8   1 0.15687 0.58662 0.10068-0.10068-0.98247 0.80358  0 142.89 484.12  184.35 142.65 484.32  184.35
   4   0  -8 123.232  51.751   1 0.12964 0.61385 0.13260-0.13260-0.98265 0.77820  0 133.32 477.01  187.93 133.28 477.43  188.08
   4   0  -9   0.610  50.280   1 0.10371 0.63978 0.16152-0.16152-0.98140 0.75140  0 124.47 470.74  191.54 124.00 470.92  191.53
   4   0 -10 211.758  67.203   1 0.07915 0.66435 0.18778-0.18778-0.97902 0.72345  0 113.90 465.49  194.42 114.73 464.74  194.73
   4   0 -11  77.776  58.108   1 0.05594 0.68755 0.21147-0.21147-0.97578 0.69466  0 105.16 459.00  197.59 105.46 458.88  197.68
   4   0 -12 227.838  76.344   1 0.03412 0.70945 0.23338-0.23338-0.97179 0.66499  0  96.28 452.99  200.48  95.99 453.33  200.45
   4   0 -13 -19.009  45.924   1 0.01366 0.72991 0.25292-0.25292-0.96739 0.63503  0  85.92 447.76  203.04  86.51 448.01  203.00
   4   0 -14  1231.8   134.8   1-0.00549 0.74906 0.27041-0.27041-0.96273 0.60480  0  76.70 442.88  205.33  76.92 443.03  205.33
   4  -1  -1 122.624  53.772   1 0.32700 0.41649-0.14738 0.04743-0.93346 0.90790  2 165.15 498.61  156.86 165.00 499.63  157.17
   4  -1  -2 340.642  75.566   1 0.30126 0.44223-0.10253 0.00258-0.94801 0.89690  0 157.37 490.82  161.99 156.93 490.98  161.94
   4  -1  -3 150.001  53.470   1 0.27531 0.46818-0.06073-0.03921-0.95943 0.88276  0 149.13 482.15  166.81 149.07 482.78  166.42
   4  -1  -4 732.434  98.799   1 0.24947 0.49403-0.02165-0.07829-0.96814 0.86592  0 141.21 475.03  170.75 141.30 474.99  170.66
   4  -1  -5 623.001  90.269   1 0.22391 0.51958 0.01453-0.11447-0.97450 0.84672  0 133.11 467.38  174.77 133.61 467.60  174.63
   4  -1  -6  2019.1   148.6   1 0.19887 0.54462 0.04815-0.14809-0.97884 0.82550  0 125.96 460.71  178.36 125.94 460.57  178.38
   4  -1  -7 141.711  60.356   1 0.17447 0.56902 0.07919-0.17913-0.98147 0.80258  0 118.45 453.63  182.00 118.25 453.89  181.89
   4  -1  -8  1098.9   116.5   1 0.15086 0.59264 0.10787-0.20782-0.98265 0.77820  0 109.96 447.05  185.26 110.49 447.52  185.19
   4  -1  -9  1745.2   143.1   1 0.12812 0.61538 0.13434-0.23429-0.98262 0.75261  0 102.52 441.40  188.23 102.64 441.43  188.28
   4  -1 -10 521.032  96.475   1 0.10631 0.63718 0.15869-0.25863-0.98159 0.72602  0  94.85 436.04  190.90  94.66 435.62  191.19
   4   1 -10 500.133  95.172   1 0.05878 0.68471 0.20862-0.10867-0.97623 0.72066  2 133.48 497.78  197.58 133.48 499.60  197.33
   4  -1 -11 427.655  89.034   1 0.08551 0.65798 0.18110-0.28105-0.97974 0.69862  0  86.81 429.62  194.02  86.53 430.05  193.90
   4   1 -11 448.038  89.770   1 0.03270 0.71087 0.23476-0.13483-0.97150 0.69028  2 122.29 493.37  200.53 122.44 493.22  200.63
   4  -1 -12 151.630  75.009   1 0.06572 0.67777 0.20163-0.30158-0.97725 0.67058  0  76.75 425.73  196.21  78.23 424.72  196.44
   4   1 -12 197.115  67.886   1 0.00852 0.73505 0.25760-0.15768-0.96621 0.65942  0 111.49 486.89  203.70 111.63 487.22  203.62
   4  -1 -13  1393.8   135.2   1 0.04697 0.69652 0.22046-0.32040-0.97427 0.64203  0  69.69 419.79  198.86  69.72 419.61  198.82
   4  -1 -14 473.302 101.845   1 0.02931 0.71426 0.23801-0.33793-0.97082 0.61289  0  60.69 414.72  201.02  60.85 414.76  201.05
   4  -1 -15 776.700 123.275   1 0.01269 0.73088 0.25383-0.35375-0.96717 0.58367  0  51.87 410.26  203.06  51.83 410.04  203.12
   4  -1 -16 396.778  95.917   1-0.00294 0.74651 0.26810-0.36802-0.96339 0.55433  0  42.03 405.74  204.98  42.54 405.59  205.02
   4  -2   0 794.681  88.266   1 0.34827 0.39522-0.18727-0.01262-0.91850 0.91850  0 134.99 479.97  152.80 135.47 479.37  152.94
   4  -2  -1  50.670  42.410   1 0.32724 0.41625-0.14780-0.05209-0.93331 0.90776  0 129.21 471.75  156.83 129.56 471.07  157.12
   4  -2   1  89.521  48.715   1 0.36860 0.37501-0.22870 0.02877-0.90102 0.92658  0 140.89 488.08  148.72 141.38 488.11  148.57
   4  -2  -2 326.038  73.224   1 0.30576 0.43773-0.11008-0.08981-0.94572 0.89461  0 123.30 462.66  161.17 123.60 463.15  161.13
   4  -2   2 320.789  75.440   1 0.38795 0.35566-0.27163 0.07169-0.88075 0.93186  2 147.53 495.92  144.30 147.36 497.27  144.02
   4  -2  -3 161.241  56.370   1 0.28400 0.45950-0.07438-0.12551-0.95594 0.87927  0 117.22 455.28  165.18 117.61 455.59  164.95
   4  -2  -4  1574.1   138.9   1 0.26217 0.48132-0.04055-0.15934-0.96417 0.86194  0 110.86 447.57  169.02 111.54 448.35  168.60
   4  -2  -5  7389.9   248.2   1 0.24045 0.50304-0.00865-0.19124-0.97062 0.84284  0 105.16 441.41  172.09 105.34 441.42  172.08
   4  -2  -6  1402.9   134.2   1 0.21897 0.52453 0.02129-0.22119-0.97550 0.82216  0  99.10 435.60  174.94  99.02 434.78  175.38
   4  -2  -7 874.783 122.620   1 0.19788 0.54562 0.04945-0.24934-0.97898 0.80008  0  92.35 428.23  178.73  92.54 428.41  178.52
   4  -2  -8  2677.8   176.5   1 0.17725 0.56624 0.07572-0.27561-0.98125 0.77680  0  85.80 422.45  181.55  85.89 422.31  181.49
   4  -2  -9  2247.6   165.0   1 0.15722 0.58628 0.10027-0.30016-0.98246 0.75245  0  78.84 416.52  184.30  79.04 416.45  184.31
   4  -2 -10  1659.0   145.1   1 0.13784 0.60566 0.12315-0.32304-0.98277 0.72720  0  71.92 411.00  186.91  71.98 410.81  186.97
   4  -2 -11 529.121 107.275   1 0.11918 0.62432 0.14444-0.34433-0.98231 0.70119  0  64.29 405.15  189.48  64.69 405.39  189.48
   4  -2 -12  1887.7   156.4   1 0.10127 0.64222 0.16418-0.36407-0.98122 0.67454  0  57.04 400.05  191.92  57.13 400.16  191.85
   4  -2 -13  1880.8   155.7   1 0.08418 0.65932 0.18251-0.38240-0.97959 0.64736  0  49.29 395.10  194.10  49.29 395.13  194.08
   4  -2 -14  1983.9   169.5   1 0.06789 0.67560 0.19941-0.39931-0.97756 0.61977  0  41.11 390.24  196.18  41.18 390.27  196.17
   4  -3   0 662.168 100.010   1 0.35296 0.39053-0.19649-0.10335-0.91477 0.91477  0  99.30 455.64  152.05  99.20 455.82  151.96
   4  -3  -1  46.342  52.692   1 0.33523 0.40826-0.16245-0.13739-0.92802 0.90247  0  94.99 447.68  155.61  94.72 447.95  155.57
   4  -3   1  85.954  48.814   1 0.37010 0.37350-0.23192-0.06798-0.89958 0.92514  0 103.72 465.41  147.94 103.52 464.07  148.23
   4  -3  -2 276.294  74.118   1 0.31707 0.42642-0.12969-0.17015-0.93949 0.88838  0  89.96 440.06  159.23  90.09 440.40  159.04
   4  -3   2 310.252  74.904   1 0.38650 0.35710-0.26826-0.03163-0.88241 0.93353  0 107.50 473.77  144.02 107.75 472.67  144.37
   4  -3  -3  2121.8   158.1   1 0.29866 0.44483-0.09821-0.20163-0.94929 0.87262  0  85.13 433.22  162.43  85.29 433.14  162.40
   4  -3   3  2068.5   143.3   1 0.40193 0.34167-0.30572 0.00583-0.86313 0.93980  0 111.84 481.80  140.36 111.90 481.68  140.39
  -4  -3   4  1714.1   139.3   1-0.01405-0.72961-0.96319 0.66335 0.26847-0.16624  2 122.13  13.56    2.98 122.07  13.19    2.95
   4  -3  -4  1336.7   137.8   1 0.28008 0.46341-0.06818-0.23165-0.95755 0.85533  0  80.31 426.16  165.68  80.31 426.17  165.62
   4  -3   4  1717.5   129.7   1 0.41621 0.32740-0.34417 0.04427-0.84162 0.94385  0 115.90 490.78  136.40 116.00 491.17  136.27
  -4  -3   5  2555.1   171.6   1-0.00902-0.73464-0.96449 0.66465 0.26396-0.13617  0 113.25  21.17    3.63 113.86  21.28    3.56
   4  -3  -5  2211.2   165.4   1 0.26149 0.48200-0.03953-0.26030-0.96440 0.83661  0  74.67 419.59  168.81  75.14 419.46  168.71
   4  -3   5  1949.0   151.5   1 0.42921 0.31439-0.38331 0.08341-0.81783 0.94562  2 119.90 500.16  132.11 120.06 501.17  132.04
  -4  -3   6  8017.3   280.0   1-0.00511-0.73855-0.96548 0.66564 0.26042-0.10708  0 105.59  29.27    4.07 105.51  29.25    4.03
   4  -3  -6  7333.5   283.8   1 0.24301 0.50048-0.01231-0.28752-0.96995 0.81661  0  69.57 412.92  171.72  69.73 413.01  171.68
  -4  -3   7  1972.5   163.7   1-0.00221-0.74145-0.96620 0.66636 0.25779-0.07889  0  97.44  37.17    4.17  97.02  37.14    4.39
   4  -3  -7  1544.1   146.2   1 0.22471 0.51879 0.01344-0.31327-0.97433 0.79544  0  64.22 406.77  174.40  64.10 406.79  174.51
  -4  -3   8  1634.9   161.3   1-0.00024-0.74342-0.96668 0.66684 0.25599-0.05153  0  88.41  44.91    4.83  88.36  44.95    4.63
   4  -3  -8  1344.3   146.8   1 0.20670 0.53679 0.03777-0.33761-0.97767 0.77322  0  58.01 400.83  177.19  58.23 400.78  177.22
  -4  -3   9  3035.4   201.3   1 0.00088-0.74454-0.96695 0.66711 0.25496-0.02495  0  79.56  52.91    4.87  79.53  52.72    4.77
   4  -3  -9  2231.1   165.5   1 0.18909 0.55440 0.06078-0.36061-0.98008 0.75007  0  52.04 394.64  179.89  52.08 394.99  179.80
  -4  -3  10  2684.0   193.5   1 0.00122-0.74488-0.96703 0.66719 0.25464 0.00092  0  70.66  60.27    4.86  70.52  60.44    4.81
   4  -3 -10  1980.8   167.4   1 0.17191 0.57158 0.08236-0.38220-0.98166 0.72610  0  45.35 389.54  182.20  45.67 389.40  182.25
  -4  -3  11  2411.0   187.6   1 0.00085-0.74451-0.96694 0.66710 0.25499 0.02614  0  61.89  68.08    4.83  61.32  68.15    4.76
   4  -3 -11  1754.8   159.9   1 0.15524 0.58825 0.10264-0.40248-0.98253 0.70141  0  38.98 383.82  184.54  38.94 384.00  184.58
   4  -4   0  69.378  55.673   1 0.36283 0.38066-0.21646-0.18332-0.90636 0.90636  0  61.51 437.10  149.89  61.45 436.76  149.85
   4  -4  -1  1013.3   121.5   1 0.34784 0.39565-0.18643-0.21335-0.91883 0.89328  0  57.79 428.56  153.19  57.94 429.04  153.03
   4  -4   1  1191.0   127.7   1 0.37731 0.36630-0.24755-0.15231-0.89239 0.91795  0  64.60 444.59  146.67  64.75 444.80  146.57
   4  -4  -2  1461.6   139.1   1 0.33246 0.41103-0.15733-0.24246-0.92990 0.87879  0  54.03 421.60  156.03  54.21 421.62  156.11
   4  -4   2  1585.9   135.7   1 0.39117 0.35243-0.27927-0.12059-0.87692 0.92804  0  67.64 452.98  143.28  67.86 453.18  143.20
   4  -4  -3  83.300  56.171   1 0.31680 0.42669-0.12922-0.27057-0.93965 0.86298  0  49.87 414.56  159.07  50.22 414.47  159.09
   4  -4   3 229.464  69.243   1 0.40428 0.33932-0.31175-0.08811-0.85986 0.93654  0  71.07 460.89  139.95  70.80 461.92  139.74
   4  -4  -4  1759.8   156.0   1 0.30100 0.44249-0.10209-0.29769-0.94814 0.84592  0  45.79 407.71  161.99  45.99 407.57  161.98
   4  -4   4  1727.6   138.9   1 0.41648 0.32712-0.34496-0.05490-0.84116 0.94339  0  73.52 471.34  136.07  73.57 471.09  136.19
   4  -4  -5  2243.5   176.4   1 0.28508 0.45842-0.07610-0.32369-0.95548 0.82770  0  41.41 400.70  164.79  41.50 400.93  164.77
   4  -4   5  2218.2   161.2   1 0.42778 0.31583-0.37857-0.02129-0.82079 0.94858  0  75.91 480.08  132.70  76.18 480.69  132.56
;
_shelx_hkl_checksum              5167
_olex2_submission_special_instructions 'No special instructions were received'
loop_
_space_group_symop_operation_xyz
'x, y, z'
'x+1/2, -y+1/2, -z'
'-x, y+1/2, -z+1/2'
'-x+1/2, -y, z+1/2'
loop_
_atom_site_label
_atom_site_type_symbol
_atom_site_fract_x
_atom_site_fract_y
_atom_site_fract_z
_atom_site_U_iso_or_equiv
_atom_site_adp_type
_atom_site_occupancy
_atom_site_site_symmetry_order
_atom_site_calc_flag
_atom_site_refinement_flags_posn
O1 O 2.0555(5) 1.5847(2) 1.10268(7) 0.0218(5) Uani 1 1 d .
N1 N 1.7287(7) 1.0416(3) 1.17808(8) 0.0203(6) Uani 1 1 d .
N2 N 1.7767(6) 1.3552(3) 1.05794(8) 0.0202(6) Uani 1 1 d .
N3 N 1.5906(7) 1.0613(3) 1.09361(8) 0.0200(6) Uani 1 1 d .
N4 N 1.8789(6) 1.1527(3) 1.21252(8) 0.0228(6) Uani 1 1 d .
C1 C 1.5919(9) 0.8559(4) 1.18982(10) 0.0247(7) Uani 1 1 d .
H1A H 1.4872 0.7997 1.1610 0.037 Uiso 1 1 calc GR
H1B H 1.4137 0.8675 1.2150 0.037 Uiso 1 1 calc GR
H1C H 1.7828 0.7756 1.2013 0.037 Uiso 1 1 calc GR
C2 C 1.7236(7) 1.1302(3) 1.13537(10) 0.0174(6) Uani 1 1 d .
C3 C 1.8771(8) 1.3067(4) 1.14141(10) 0.0187(6) Uani 1 1 d .
C4 C 1.9007(7) 1.4165(3) 1.09986(10) 0.0181(6) Uani 1 1 d .
C5 C 2.0933(8) 1.6871(4) 1.05802(10) 0.0239(7) Uani 1 1 d .
H5A H 2.2280 1.6113 1.0351 0.036 Uiso 1 1 calc GR
H5B H 2.2160 1.8058 1.0641 0.036 Uiso 1 1 calc GR
H5C H 1.8614 1.7135 1.0446 0.036 Uiso 1 1 calc GR
C6 C 1.6282(7) 1.1826(3) 1.05766(10) 0.0189(6) Uani 1 1 d .
H6 H 1.5382 1.1424 1.0275 0.023 Uiso 1 1 calc R
C7 C 1.9718(8) 1.3110(4) 1.19088(10) 0.0206(7) Uani 1 1 d .
H7 H 2.0860 1.4134 1.2063 0.025 Uiso 1 1 calc R
loop_
_atom_site_aniso_label
_atom_site_aniso_U_11
_atom_site_aniso_U_22
_atom_site_aniso_U_33
_atom_site_aniso_U_23
_atom_site_aniso_U_13
_atom_site_aniso_U_12
O1 0.0281(11) 0.0192(9) 0.0182(11) 0.0012(8) 0.0002(11) -0.0033(8)
N1 0.0259(13) 0.0199(10) 0.0150(12) 0.0006(9) 0.0011(12) 0.0016(10)
N2 0.0249(13) 0.0201(10) 0.0156(12) -0.0032(9) 0.0002(12) 0.0007(10)
N3 0.0249(12) 0.0206(11) 0.0144(12) -0.0020(9) -0.0019(12) 0.0011(10)
N4 0.0266(14) 0.0239(11) 0.0178(13) -0.0026(10) -0.0009(13) 0.0020(10)
C1 0.0286(16) 0.0244(13) 0.0210(16) 0.0070(12) -0.0001(16) -0.0004(12)
C2 0.0161(13) 0.0195(13) 0.0166(15) -0.0014(11) 0.0013(14) 0.0017(12)
C3 0.0224(14) 0.0178(13) 0.0157(14) -0.0015(11) 0.0019(15) 0.0049(12)
C4 0.0170(13) 0.0150(12) 0.0224(16) -0.0040(10) 0.0046(14) 0.0015(11)
C5 0.0304(15) 0.0200(13) 0.0214(16) 0.0057(11) 0.0013(15) -0.0038(13)
C6 0.0219(14) 0.0187(13) 0.0161(15) -0.0006(11) 0.0003(14) 0.0005(11)
C7 0.0256(15) 0.0219(13) 0.0143(14) -0.0023(11) 0.0000(14) -0.0001(12)
loop_
_atom_type_symbol
_atom_type_description
_atom_type_scat_dispersion_real
_atom_type_scat_dispersion_imag
_atom_type_scat_source
C C 0.0033 0.0016 'International Tables Vol C Tables 4.2.6.8 and 6.1.1.4'
H H 0.0000 0.0000 'International Tables Vol C Tables 4.2.6.8 and 6.1.1.4'
N N 0.0061 0.0033 'International Tables Vol C Tables 4.2.6.8 and 6.1.1.4'
O O 0.0106 0.0060 'International Tables Vol C Tables 4.2.6.8 and 6.1.1.4'
loop_
_geom_angle_atom_site_label_1
_geom_angle_atom_site_label_2
_geom_angle_atom_site_label_3
_geom_angle
C4 O1 C5 116.4(2)
N4 N1 C1 121.1(2)
C2 N1 N4 110.7(2)
C2 N1 C1 128.1(2)
C4 N2 C6 116.8(2)
C6 N3 C2 111.6(2)
C7 N4 N1 106.6(2)
N1 C1 H1A 109.5
N1 C1 H1B 109.5
N1 C1 H1C 109.5
H1A C1 H1B 109.5
H1A C1 H1C 109.5
H1B C1 H1C 109.5
N1 C2 N3 126.3(2)
N1 C2 C3 108.0(2)
N3 C2 C3 125.8(2)
C2 C3 C4 115.4(2)
C2 C3 C7 104.1(2)
C4 C3 C7 140.5(3)
O1 C4 C3 118.7(2)
N2 C4 O1 120.1(2)
N2 C4 C3 121.2(2)
O1 C5 H5A 109.5
O1 C5 H5B 109.5
O1 C5 H5C 109.5
H5A C5 H5B 109.5
H5A C5 H5C 109.5
H5B C5 H5C 109.5
N2 C6 H6 115.5
N3 C6 N2 129.1(3)
N3 C6 H6 115.5
N4 C7 C3 110.6(2)
N4 C7 H7 124.7
C3 C7 H7 124.7
loop_
_geom_bond_atom_site_label_1
_geom_bond_atom_site_label_2
_geom_bond_distance
O1 C4 1.336(3)
O1 C5 1.447(3)
N1 N4 1.368(3)
N1 C1 1.457(3)
N1 C2 1.344(3)
N2 C4 1.332(3)
N2 C6 1.352(3)
N3 C2 1.359(3)
N3 C6 1.328(3)
N4 C7 1.324(4)
C1 H1A 0.9800
C1 H1B 0.9800
C1 H1C 0.9800
C2 C3 1.395(4)
C3 C4 1.397(4)
C3 C7 1.423(4)
C5 H5A 0.9800
C5 H5B 0.9800
C5 H5C 0.9800
C6 H6 0.9500
C7 H7 0.9500
loop_
_geom_torsion_atom_site_label_1
_geom_torsion_atom_site_label_2
_geom_torsion_atom_site_label_3
_geom_torsion_atom_site_label_4
_geom_torsion
N1 N4 C7 C3 1.0(3)
N1 C2 C3 C4 178.5(2)
N1 C2 C3 C7 0.3(3)
N3 C2 C3 C4 -1.9(4)
N3 C2 C3 C7 179.9(3)
N4 N1 C2 N3 -179.4(3)
N4 N1 C2 C3 0.2(3)
C1 N1 N4 C7 -179.3(3)
C1 N1 C2 N3 -0.9(5)
C1 N1 C2 C3 178.7(3)
C2 N1 N4 C7 -0.7(3)
C2 N3 C6 N2 0.5(4)
C2 C3 C4 O1 -177.8(2)
C2 C3 C4 N2 1.3(4)
C2 C3 C7 N4 -0.8(3)
C4 N2 C6 N3 -1.0(4)
C4 C3 C7 N4 -178.3(3)
C5 O1 C4 N2 -3.0(4)
C5 O1 C4 C3 176.1(2)
C6 N2 C4 O1 179.0(2)
C6 N2 C4 C3 0.0(4)
C6 N3 C2 N1 -179.5(3)
C6 N3 C2 C3 1.0(4)
C7 C3 C4 O1 -0.5(5)
C7 C3 C4 N2 178.5(3)
