#------------------------------------------------------------------------------
#$Date: 2019-11-11 16:37:53 +0200 (Mon, 11 Nov 2019) $
#$Revision: 226579 $
#$URL: file:///home/coder/svn-repositories/cod/cif/4/03/50/4035092.cif $
#------------------------------------------------------------------------------
#
# This file is available in the Crystallography Open Database (COD),
# http://www.crystallography.net/
#
# All data on this site have been placed in the public domain by the
# contributors.
#
data_4035092
loop_
_publ_author_name
'Liang, Yu-Fu'
'Chung, Chuang-Chung'
'Liao, De-Jhong'
'Lee, Woo-Jer'
'Tu, Yu-Wei'
'Uang, Biing-Jiun'
_publ_section_title
;
 Total Syntheses of (+)-\a-Allokainic Acid and (-)-2- epi-\a-Allokainic
 Acid Employing Ketopinic Amide as a Chiral Auxiliary.
;
_journal_issue                   17
_journal_name_full               'The Journal of organic chemistry'
_journal_page_first              10564
_journal_page_last               10572
_journal_paper_doi               10.1021/acs.joc.8b01383
_journal_volume                  83
_journal_year                    2018
_chemical_absolute_configuration rm
_chemical_formula_sum            'C10 H17 N O5'
_chemical_formula_weight         231.24
_space_group_crystal_system      monoclinic
_space_group_IT_number           4
_space_group_name_Hall           'P 2yb'
_space_group_name_H-M_alt        'P 1 21 1'
_atom_sites_solution_hydrogens   mixed
_audit_creation_method           SHELXL-2014/6
_cell_angle_alpha                90
_cell_angle_beta                 91.597(2)
_cell_angle_gamma                90
_cell_formula_units_Z            2
_cell_length_a                   5.9760(2)
_cell_length_b                   9.0579(4)
_cell_length_c                   10.1215(4)
_cell_measurement_reflns_used    3609
_cell_measurement_temperature    100(2)
_cell_measurement_theta_max      66.5436
_cell_measurement_theta_min      4.3699
_cell_volume                     547.66(4)
_computing_cell_refinement       'SAINT V8.34A (Bruker AXS Inc., 2013)'
_computing_data_collection       'APEX2 (Bruker AXS, 2010)'
_computing_data_reduction        'SAINT V8.34A (Bruker AXS Inc., 2013)'
_computing_molecular_graphics    'SHELXTL (Sheldrick, 2008)'
_computing_publication_material  SHELXTL
_computing_structure_refinement  'SHELXL-2014/6 (Sheldrick, 2014)'
_diffrn_ambient_temperature      100(2)
_diffrn_detector_area_resol_mean 8.3333
_diffrn_measured_fraction_theta_full 0.958
_diffrn_measured_fraction_theta_max 0.978
_diffrn_measurement_device_type  'Bruker APEX-II CCD'
_diffrn_measurement_method       '\f and \w scans'
_diffrn_radiation_type           CuK\a
_diffrn_radiation_wavelength     1.54178
_diffrn_reflns_av_R_equivalents  0.0169
_diffrn_reflns_av_unetI/netI     0.0222
_diffrn_reflns_Laue_measured_fraction_full 0.958
_diffrn_reflns_Laue_measured_fraction_max 0.978
_diffrn_reflns_limit_h_max       7
_diffrn_reflns_limit_h_min       -6
_diffrn_reflns_limit_k_max       10
_diffrn_reflns_limit_k_min       -10
_diffrn_reflns_limit_l_max       12
_diffrn_reflns_limit_l_min       -11
_diffrn_reflns_number            3775
_diffrn_reflns_point_group_measured_fraction_full 0.906
_diffrn_reflns_point_group_measured_fraction_max 0.925
_diffrn_reflns_theta_full        67.679
_diffrn_reflns_theta_max         66.539
_diffrn_reflns_theta_min         4.370
_exptl_absorpt_coefficient_mu    0.951
_exptl_absorpt_correction_T_max  0.9492
_exptl_absorpt_correction_T_min  0.8557
_exptl_absorpt_correction_type   multi-scan
_exptl_absorpt_process_details   'SADABS V2014/4 (Bruker AXS Inc.)'
_exptl_crystal_colour            Colorless
_exptl_crystal_density_diffrn    1.402
_exptl_crystal_density_meas      ?
_exptl_crystal_density_method    'not measured'
_exptl_crystal_description       Lump
_exptl_crystal_F_000             248
_exptl_crystal_size_max          0.25
_exptl_crystal_size_mid          0.20
_exptl_crystal_size_min          0.20
_refine_diff_density_max         0.155
_refine_diff_density_min         -0.184
_refine_diff_density_rms         0.040
_refine_ls_abs_structure_details
;
 Flack x determined using 770 quotients [(I+)-(I-)]/[(I+)+(I-)]
 (Parsons, Flack and Wagner, Acta Cryst. B69 (2013) 249-259).
;
_refine_ls_abs_structure_Flack   0.12(5)
_refine_ls_extinction_method     none
_refine_ls_goodness_of_fit_ref   1.093
_refine_ls_hydrogen_treatment    constr
_refine_ls_matrix_type           full
_refine_ls_number_parameters     146
_refine_ls_number_reflns         1785
_refine_ls_number_restraints     1
_refine_ls_restrained_S_all      1.092
_refine_ls_R_factor_all          0.0238
_refine_ls_R_factor_gt           0.0238
_refine_ls_shift/su_max          0.004
_refine_ls_shift/su_mean         0.000
_refine_ls_structure_factor_coef Fsqd
_refine_ls_weighting_details
'w=1/[\s^2^(Fo^2^)+(0.0347P)^2^+0.1140P] where P=(Fo^2^+2Fc^2^)/3'
_refine_ls_weighting_scheme      calc
_refine_ls_wR_factor_gt          0.0627
_refine_ls_wR_factor_ref         0.0627
_reflns_Friedel_coverage         0.769
_reflns_Friedel_fraction_full    0.846
_reflns_Friedel_fraction_max     0.864
_reflns_number_gt                1780
_reflns_number_total             1785
_reflns_threshold_expression     'I > 2\s(I)'
_cod_data_source_file            jo8b01383_si_001.cif
_cod_data_source_block           cu_150525lt_0m
_cod_depositor_comments
;
The following automatic conversions were performed:

data item '_exptl_crystal_density_meas' value 'not measured' was
changed to '?' -- the value is perceived as not measured.

Automatic conversion script
Id: cif_fix_values 6909 2019-04-08 15:41:33Z antanas 
;
_cod_original_sg_symbol_H-M      'P 21'
_cod_database_code               4035092
_shelx_space_group_comment
;
The symmetry employed for this shelxl refinement is uniquely defined
by the following loop, which should always be used as a source of
symmetry information in preference to the above space-group names.
They are only intended as comments.
;
_shelxl_version_number           2014/6
_shelx_res_file
;
TITL cu_150525lt_0m in P2(1)
CELL 1.54178 5.9760 9.0579 10.1215 90.000 91.597 90.000
ZERR 2.00 0.0002 0.0004 0.0004 0.000 0.002 0.000
LATT -1
SYMM -x, y+1/2, -z
SFAC C  H  N  O
UNIT 20  34  2  10
L.S. 4
ACTA
BOND $H
FMAP 2
PLAN 5
TEMP -173.000
WGHT    0.034700    0.114000
FVAR       2.59060
O1    4    0.037045   -0.185399    0.749431    11.00000    0.01428    0.01736 =
         0.01948    0.00514   -0.00086   -0.00532
O2    4    0.334475   -0.160650    0.888273    11.00000    0.01834    0.01832 =
         0.01361    0.00350   -0.00194   -0.00231
O3    4    0.312708    0.398989    0.853459    11.00000    0.01388    0.01344 =
         0.02002    0.00230    0.00311    0.00229
O4    4    0.131579    0.190844    0.903322    11.00000    0.00941    0.01836 =
         0.01432    0.00149    0.00240   -0.00087
O5    4    1.065816    0.064013    0.138156    11.00000    0.01523    0.01287 =
         0.01470    0.00187    0.00232   -0.00123
N1    3    0.706264    0.277858    0.832955    11.00000    0.01040    0.01169 =
         0.01130   -0.00082    0.00104   -0.00256
C1    1    0.228927   -0.123810    0.790449    11.00000    0.01158    0.01173 =
         0.01125   -0.00331    0.00220    0.00096
C2    1    0.295886   -0.004767    0.695748    11.00000    0.01249    0.01166 =
         0.01063   -0.00015    0.00029   -0.00100
AFIX  23
H14   2    0.172469    0.067980    0.688918    11.00000   -1.20000
H15   2    0.310612   -0.050029    0.607385    11.00000   -1.20000
AFIX   0
C3    1    0.510272    0.077867    0.729184    11.00000    0.00886    0.01020 =
         0.01042   -0.00013    0.00139    0.00096
AFIX  13
H13   2    0.637025    0.005802    0.733654    11.00000   -1.20000
AFIX   0
C4    1    0.558506    0.194831    0.622016    11.00000    0.01013    0.01116 =
         0.01262    0.00072    0.00017    0.00076
AFIX  13
H7    2    0.423717    0.259795    0.612526    11.00000   -1.20000
AFIX   0
C5    1    0.607250    0.133459    0.486974    11.00000    0.01209    0.01090 =
         0.01287    0.00181    0.00186   -0.00357
C6    1    0.464729    0.155766    0.385529    11.00000    0.01546    0.01590 =
         0.01370    0.00077    0.00112   -0.00337
AFIX  93
H6    2    0.495465    0.115836    0.301161    11.00000   -1.20000
H2    2    0.332274    0.211618    0.397495    11.00000   -1.20000
AFIX   0
C7    1    0.818791    0.045251    0.470864    11.00000    0.01477    0.01736 =
         0.01356   -0.00091    0.00239    0.00142
AFIX 137
H3    2    0.815063   -0.002645    0.384011    11.00000   -1.50000
H4    2    0.830185   -0.030114    0.540194    11.00000   -1.50000
H5    2    0.948583    0.111194    0.477919    11.00000   -1.50000
AFIX   0
C8    1    0.746962    0.286081    0.686900    11.00000    0.01239    0.01388 =
         0.01033   -0.00065    0.00270   -0.00153
AFIX  23
H12   2    0.895017    0.244071    0.666574    11.00000   -1.20000
H11   2    0.740855    0.389618    0.655675    11.00000   -1.20000
AFIX   0
C9    1    0.516924    0.172449    0.856143    11.00000    0.00863    0.01106 =
         0.01046    0.00003    0.00065   -0.00288
AFIX  13
H10   2    0.549624    0.109777    0.935696    11.00000   -1.20000
AFIX   0
C10   1    0.302345    0.263915    0.874027    11.00000    0.01091    0.01602 =
         0.00713   -0.00097    0.00049    0.00096
AFIX   1
H1    2    0.002800   -0.266800    0.802600    11.00000    0.05000
H8    2    0.669200    0.367600    0.866500    11.00000    0.05000
H9    2    0.833100    0.251300    0.880500    11.00000    0.05000
H16   2    1.096100    0.090200    0.056600    11.00000    0.05000
H17   2    0.950400    0.015400    0.133400    11.00000    0.05000
AFIX   0
HKLF 4 1 1 0 0 0 1 0 0 0 1

REM  cu_150525lt_0m in P2(1)
REM R1 =  0.0238 for    1780 Fo > 4sig(Fo)  and  0.0238 for all    1785 data
REM    146 parameters refined using      1 restraints

END

WGHT      0.0347      0.1140

REM Highest difference peak  0.155,  deepest hole -0.184,  1-sigma level  0.040
Q1    1   0.9262 -0.1480  0.3857  11.00000  0.05    0.16
Q2    1   0.4104  0.2047  0.8635  11.00000  0.05    0.14
Q3    1   1.0080  0.2948  0.4831  11.00000  0.05    0.12
Q4    1   0.9937 -0.0486  0.3202  11.00000  0.05    0.12
Q5    1   0.8670  0.0479  0.2478  11.00000  0.05    0.11
;
_shelx_res_checksum              8977
_shelx_hkl_file
;
  -1   0   0 3938.83 88.9458   4
   2   0   0 292.619 7.74074   4
   2   0   0 288.066 8.13679   4
   3   0   0 866.441 27.3645   6
   3   0   0 890.320 21.4236   4
   4   0   0 1040.22 34.5897   6
   5   0   0 2603.84 74.4992   6
   5   0   0 2590.93 60.8728  11
   6   0   0 297.962 9.04333  11
   6   0   0 298.715 17.2751   6
   7   0   0 40.9492 1.91404  11
   7   0   0 34.6067 3.59587  13
  -1   1   0 4353.61 98.8006   4
   2  -1   0 3436.88 77.8004   4
   2   1   0 3370.10 76.6462   4
   2   1   0 3362.78 76.6894   4
   3  -1   0 147.104 5.32212   4
   3   1   0 134.523 8.26231   6
   4  -1   0 1680.98 49.7310   6
   4   1   0 1633.08 49.0820   6
   5  -1   0 1241.91 31.3980  11
   5  -1   0 1310.23 43.7597   6
   5   1   0 1227.84 30.7885  11
   5   1   0 1320.28 43.9250   6
   6  -1   0 389.661 10.9790  11
   6  -1   0 348.619 18.9645   6
   6   1   0 341.079 18.9059   6
   6   1   0 370.141 10.3312  11
   6   1   0 358.087 9.13334   8
   7  -1   0 31.1237 1.67052  11
   7   1   0 29.2553 2.01069  13
   7   1   0 26.9105 1.36894  11
   1  -2   0 2255.98 52.0863   4
  -1   2   0 2220.95 52.2615   4
   1   2   0 2330.10 51.2161   4
   1   2   0 2140.81 51.1349   4
   3  -2   0 9999.99 225.250   4
   3   2   0 9802.76 231.433   6
   4  -2   0 301.783 15.8232   6
   4   2   0 287.979 15.5464   6
   5  -2   0 123.286 10.8574   6
   5  -2   0 122.976 5.24561  11
   5   2   0 122.936 3.72893   8
   5   2   0 115.895 5.95166  13
   5   2   0 123.650 4.54370  11
   5   2   0 135.632 11.3976   6
   6  -2   0 27.7817 2.21394  11
   6   2   0 27.5071 1.90495  11
   6   2   0 28.1892 1.20857   8
   6   2   0 27.0696 2.40907  13
   0  -3   0 -0.3585 0.47766   4
   0   3   0 -0.1111 0.55360   4
   1  -3   0 3241.76 76.6206   4
   1   3   0 3401.30 75.5920   4
  -1   3   0 3244.93 76.8588   4
   2  -3   0 1989.55 48.0437   4
   2   3   0 1980.98 45.4506   4
   3  -3   0 185.315 7.55951   4
   3   3   0 195.922 11.0756   6
   4   3   0 1542.00 47.4556   6
   4   3   0 1476.73 34.6871   8
   5  -3   0 560.192 15.5539  11
   5  -3   0 548.064 24.4753   6
   5   3   0 530.746 14.1800  11
  -5   3   0 533.227 15.2229  12
   5   3   0 541.829 15.7089  13
   5   3   0 544.093 13.0864   8
   6  -3   0 104.485 4.39284  11
   6   3   0 99.7561 4.51655  13
   6   3   0 91.4794 3.48718  11
  -6   3   0 94.9030 4.18094  12
   0   4   0 2360.48 56.1348   4
   1  -4   0 5087.61 116.809   4
  -1   4   0 4716.27 112.508   4
   1   4   0 4717.19 110.886   4
   2  -4   0 1289.40 33.6496   4
  -2  -4   0 1299.79 38.2325   2
   2   4   0 1337.08 30.8791   4
   2   4   0 1323.35 32.5083   3
   4   4   0 448.194 11.0599   8
   5  -4   0 101.881 3.80428  10
   5  -4   0 90.7329 9.21548   6
   5  -4   0 109.470 5.08217  11
  -5   4   0 103.234 4.90076  12
   5   4   0 110.889 4.06768  11
   5   4   0 102.137 4.98948  13
   5   4   0 108.311 3.17797   8
   6  -4   0 32.3085 2.29655  11
  -6   4   0 30.3136 2.23078  12
   6   4   0 36.9575 2.30050  13
   0   5   0 2.71624 1.35487   4
   1   5   0 3048.93 72.2348   3
   1   5   0 3094.83 71.8824   4
  -1   5   0 3031.33 73.6176   4
  -2  -5   0 562.502 21.9590   2
   2   5   0 520.858 13.8068   4
   2   5   0 536.659 15.6366   3
   4  -5   0 2068.08 46.9463  10
  -4   5   0 2051.55 48.2377  12
   4   5   0 1930.62 48.6984  13
   4   5   0 1943.42 46.8990  11
   5  -5   0 162.362 5.13801  10
   5  -5   0 138.441 11.0756   6
   5  -5   0 152.447 6.29600  11
   5   5   0 159.777 4.14739   8
   5   5   0 153.979 5.13984  11
  -5   5   0 161.778 6.27515  12
   5   5   0 155.857 6.32987  13
   6  -5   0 489.007 13.8095  11
   6   5   0 541.771 13.2208  13
   6   5   0 522.116 13.2201  13
  -6   5   0 522.953 13.7859  12
   0   6   0 636.110 18.7290   3
  -1  -6   0 362.520 18.0278   2
   1   6   0 347.559 11.9989   3
  -2  -6   0 420.178 19.9949   2
  -2   6   0 411.522 14.1571   9
   3  -6   0 875.990 21.5927  10
  -3   6   0 853.961 22.3177  12
   3   6   0 849.668 22.8671  14
  -3   6   0 834.016 22.7857   9
   3   6   0 873.528 21.7625  11
   4  -6   0 209.775 6.74982  10
  -4   6   0 220.231 7.69753  12
   4   6   0 205.653 6.78344  11
   5  -6   0 105.456 3.71696  10
   5   6   0 101.317 3.66608  11
   5   6   0 97.7779 4.62473  13
  -5   6   0 103.543 4.55380  12
   0  -7   0 -0.2603 1.63716   2
   0   7   0 -0.2558 1.09552   3
   0   7   0 1.76386 1.05367   9
   1  -7   0 229.582 14.5687   2
  -1  -7   0 254.811 16.0279   2
  -1   7   0 278.245 9.09459   9
   1   7   0 255.101 10.2376   3
   2  -7   0 1206.59 30.8606  12
  -2  -7   0 1281.41 43.1645   2
   2  -7   0 1190.37 30.0294  10
  -2   7   0 1269.61 31.7818   9
   2   7   0 1254.28 30.9002  11
   2   7   0 1230.37 31.6617  14
   3  -7   0 207.796 6.84875  10
   3   7   0 210.512 7.19185  11
  -3   7   0 201.765 7.28746  12
   3   7   0 208.788 7.99934  14
  -3   7   0 212.968 8.00102   9
   4  -7   0 439.140 11.8200  10
   4   7   0 426.497 11.9363  11
  -4   7   0 438.948 12.6723  12
   5  -7   0 38.0316 1.88667  10
   5   7   0 41.6827 2.49258  13
  -5   7   0 43.4807 2.47374  12
   0  -8   0 1162.24 29.7331  12
   0  -8   0 1237.59 42.0468   2
   0   8   0 1208.07 32.7588   3
   0   8   0 1164.84 30.1274   9
   0   8   0 1144.69 30.1136  11
   0   8   0 1150.10 30.0220  14
  -1  -8   0 530.026 15.1017  12
  -1  -8   0 565.802 25.8090   2
   1  -8   0 539.451 15.2419  12
   1  -8   0 440.113 22.4142   2
  -1   8   0 564.461 15.9304   9
   1   8   0 537.360 15.6717  14
   1   8   0 546.226 17.4527   3
   1   8   0 541.187 15.3893  11
  -1   8   0 546.061 18.0081   3
   2  -8   0 2329.03 55.3745  10
  -2  -8   0 2286.79 69.5010   2
   2  -8   0 2384.94 56.1554  12
  -2   8   0 2418.46 57.2126   9
   2   8   0 2336.76 56.2355  11
  -2   8   0 2319.10 59.5611   3
   2   8   0 2439.33 57.0697  14
   3  -8   0 572.292 15.2380  10
   3   8   0 588.641 15.7562  11
   3   8   0 591.127 16.5259  14
  -3   8   0 572.464 16.5448   9
   4  -8   0 193.029 5.92701  10
   4   8   0 188.432 5.00756   8
  -4   8   0 193.129 6.29907  12
   4   8   0 187.848 6.56816  14
   4   8   0 199.272 6.06362  11
   4   8   0 192.568 4.99778   8
   0  -9   0 0.65066 0.79797  12
   0   9   0 2.28814 1.03073   9
   0   9   0 1.52348 1.40089   3
   1  -9   0 285.345 9.36091  12
  -1  -9   0 276.027 9.14042  12
  -1   9   0 283.339 11.4564   3
   1   9   0 287.891 9.61477  14
  -1   9   0 285.560 9.72277   9
   1   9   0 294.413 9.52058  11
   2  -9   0 97.4599 4.33273  12
  -2  -9   0 108.039 4.51489  12
   2   9   0 106.177 4.96071  14
  -2   9   0 101.773 4.95104   9
   2   9   0 109.309 4.66440  11
   3  -9   0 761.979 19.0183  10
  -3   9   0 770.776 20.1410   9
   3   9   0 763.622 20.0178  14
   3   9   0 779.913 19.4816  11
   0 -10   0 1310.83 32.0812  12
  -1 -10   0 113.387 4.45879  12
   1 -10   0 111.132 4.42584  12
   1  10   0 112.163 4.57169  11
  -1  10   0 105.967 4.62433   9
  -2 -10   0 81.7861 3.41526  12
  -2  10   0 89.5098 3.91664   9
   2  10   0 89.5750 3.70219  11
   7   0  -1 59.3838 2.77689  13
   7   0  -1 57.4591 2.16339  11
   6   0  -1 2.04959 2.19349   6
   6   0  -1 4.43843 1.02014  11
   6   0  -1 5.91107 0.75382   8
   5   0  -1 168.204 5.73737  11
   5   0  -1 150.771 12.1329   6
   4   0  -1 2135.56 60.1908   6
   3   0  -1 4363.51 106.266   6
   2   0  -1 897.515 21.3843   4
   2   0  -1 933.927 21.3508   4
   1   0  -1 191.351 4.58758   4
   1   0  -1 172.133 4.58879   4
   0   0   1 1357.22 30.9461   4
   0   0  -1 1351.29 30.9633   4
   2   0   1 536.243 14.0071   4
   3   0   1 315.562 9.13458   1
   3   0   1 314.667 9.81559   3
   3   0   1 340.568 14.1180   6
   3   0   1 335.761 9.66896   4
   4   0   1 739.471 27.3421   6
   5   0   1 5696.15 144.299   6
   5   0   1 5643.48 129.850  11
   6   0   1 691.395 28.8128   6
   6   0   1 743.512 18.9520  11
   7   0   1 16.9729 1.32116  11
   7  -1  -1 108.497 3.65084  11
   7   1  -1 117.823 3.89195  13
   7   1  -1 113.563 3.91029  13
   6  -1  -1 646.609 16.4733  11
   6  -1  -1 604.142 26.2951   6
   6   1  -1 578.315 15.7193  11
   6   1  -1 630.126 14.6410   8
   6   1  -1 645.362 17.5678  13
   6   1  -1 624.972 26.8938   6
   5  -1  -1 1441.31 46.7674   6
   5  -1  -1 1412.55 34.3045  11
   5   1  -1 1383.10 33.5204  11
   5   1  -1 1453.26 47.2439   6
   5   1  -1 1362.59 35.2540  13
   5   1  -1 1394.95 32.4981   8
   4  -1  -1 38.8733 5.50649   6
   4   1  -1 42.0227 3.74178   7
   4   1  -1 42.3889 5.64186   6
   3  -1  -1 145.895 8.73702   6
   3  -1  -1 153.341 5.22292   4
   3   1  -1 166.336 9.20304   6
   2  -1  -1 2032.13 47.2722   4
   2   1  -1 2043.27 48.0003   5
   1  -1  -1 1036.96 25.7821   4
   1  -1  -1 1140.64 25.7243   4
  -1   1   1 1093.47 25.9137   4
   0   1   1 4544.91 102.986   4
   2  -1   1 6614.51 150.468   4
   3  -1   1 3622.03 82.6294   4
   3  -1   1 3525.80 82.4441   3
   3  -1   1 3503.19 81.5166   1
   3   1   1 3393.99 82.1683   3
   3   1   1 3688.03 81.4729   4
   3   1   1 3400.63 81.3440   1
   3   1   1 3687.21 88.4543   6
   4  -1   1 600.330 23.9867   6
   4   1   1 569.754 23.1536   6
   5  -1   1 963.510 24.9475  11
   5  -1   1 1004.55 36.4681   6
   5   1   1 958.176 24.5081  11
   5   1   1 991.990 36.1282   6
   6  -1   1 72.9165 3.66657  11
   6  -1   1 63.8827 7.72064   6
   6   1   1 60.4920 7.81929   6
   6   1   1 70.6436 3.31391  11
   7  -1   1 829.927 20.1967  11
   7   1   1 858.136 19.8797  11
   7   1   1 803.268 22.1393  13
   6  -2  -1 35.4290 2.61968  11
   6   2  -1 53.7908 2.93375  13
   5  -2  -1 298.802 17.3375   6
   5  -2  -1 308.227 9.71214  11
   5   2  -1 316.770 18.2575   6
   5   2  -1 298.893 9.68920  13
   5   2  -1 307.172 7.61474   8
   4  -2  -1 890.836 31.3255   6
   4   2  -1 851.051 31.1725   6
   4   2  -1 862.547 24.9377   7
   3  -2  -1 2805.16 66.4001   4
   3   2  -1 2853.20 73.0826   6
   2  -2  -1 7277.41 167.062   4
   2   2  -1 7429.62 167.191   5
   0  -2   1 6507.59 151.832   4
   0  -2  -1 6925.58 152.202   4
  -1  -2  -1 1146.32 27.5209   4
   1  -2   1 1135.22 27.7649   4
   1   2   1 1096.57 27.3095   4
  -1   2  -1 1144.96 27.8795   4
   1   2   1 1175.89 27.2946   4
   2  -2   1 3135.28 73.5919   4
   2   2   1 3170.03 72.3975   4
   3  -2   1 3841.00 90.3461   3
   3  -2   1 3879.57 89.3544   1
   3  -2   1 3906.96 90.8246   4
   3   2   1 3781.06 89.0388   1
   3   2   1 3754.04 89.9569   3
   3   2   1 4014.15 88.6299   4
   3   2   1 4002.01 96.5764   6
   4   2   1 246.623 14.0441   6
   5  -2   1 1437.74 46.7220   6
   5  -2   1 1426.86 34.9022  11
   5   2   1 1397.76 33.9688  11
   5   2   1 1394.32 46.5585   6
  -5   2  -1 1357.44 34.5019  12
   6  -2   1 1866.74 43.4260  11
   6   2   1 1744.93 41.2295   8
  -6   2  -1 1703.92 42.9411  12
   6   2   1 1867.24 42.6367  11
   6  -3  -1 1007.12 25.8398  11
   6   3  -1 1042.81 25.3199  13
   5  -3  -1 -0.8529 1.63724   6
   5  -3  -1 2.16045 0.98481  11
   5   3  -1 2.01986 0.38813   8
   5   3  -1 5.69153 1.22364  13
   4  -3  -1 133.613 10.2952   6
   4   3  -1 136.428 3.78207   8
   4   3  -1 144.724 11.0456   6
   4   3  -1 139.010 7.22260   7
   4   3  -1 146.248 3.77559   8
   3  -3  -1 30.9947 2.73951   4
   3   3  -1 33.6711 3.03014   7
   3   3  -1 30.8398 4.51581   6
   2  -3  -1 1764.78 42.6377   4
   2   3  -1 1743.81 41.9362   5
   1  -3  -1 5176.67 121.141   4
  -1   3   1 5260.06 121.548   4
   1   3  -1 5421.00 119.760   4
   0  -3  -1 4503.06 106.832   4
   0   3  -1 4754.43 106.626   4
   0   3   1 4712.89 106.837   4
   1  -3   1 2069.06 50.8248   4
   1   3   1 2187.24 50.3305   4
  -1   3  -1 2179.34 51.2214   4
  -2  -3  -1 5856.01 145.438   2
   2  -3   1 6352.66 142.153   4
   2   3   1 6326.37 140.381   4
   3  -3   1 941.889 25.8805   4
   3   3   1 950.659 30.4613   6
   3   3   1 986.479 26.8922   3
   3   3   1 922.020 25.0254   1
   4   3   1 540.003 23.0294   6
   5  -3   1 988.239 25.2223  11
   5  -3   1 1011.59 36.7078   6
   5  -3   1 960.826 23.2907  10
   5   3   1 942.936 35.3325   6
  -5   3  -1 939.536 24.7812  12
   5   3   1 952.135 24.0680  11
   6  -3   1 147.636 5.73725  11
   6   3   1 141.786 4.97674  11
  -6   3  -1 159.175 5.72929  12
   6  -4  -1 486.157 13.4665  11
   6   4  -1 492.687 12.2224  13
  -6   4   1 453.320 13.0904  12
   6   4  -1 493.148 12.1729  13
   5  -4  -1 70.0185 3.94420  11
   5   4  -1 68.9301 3.52265  13
  -5   4   1 65.5355 3.70560  12
   4   4  -1 361.058 8.83808   8
   2  -4  -1 1228.16 31.9463   4
   1  -4  -1 673.472 18.7745   4
   1  -4  -1 654.231 21.4539   2
   1   4  -1 680.591 17.1212   4
  -1   4   1 666.605 18.7886   4
   0   4  -1 258.497 8.59520   4
   0   4   1 264.589 8.79950   4
  -1  -4  -1 3179.73 80.8531   2
   1   4   1 3182.75 75.2629   3
  -1   4  -1 3242.40 76.4227   4
   1   4   1 3289.47 75.3530   4
  -2  -4  -1 613.474 22.1434   2
   2  -4   1 639.605 18.8288   4
   2   4   1 639.694 17.6492   3
   2   4   1 669.655 16.8674   4
  -4   4  -1 304.893 12.6188  12
   5  -4   1 44.0494 2.33413  10
   5  -4   1 47.1145 6.89195   6
   5  -4   1 35.8323 2.93392  11
   5   4   1 42.1588 2.55079  11
  -5   4  -1 46.7272 3.12617  12
   6  -4   1 315.372 9.70872  11
  -6   4  -1 329.389 9.67573  12
   6   4   1 329.043 10.1668  13
   6   4   1 327.113 8.80737  11
   6  -5  -1 29.1181 1.97691  11
  -6   5   1 30.9258 2.06086  12
   5  -5  -1 390.312 10.4675  10
   5  -5  -1 391.656 12.0895  11
   5   5  -1 400.443 11.4867  13
  -5   5   1 407.699 11.9752  12
   4  -5  -1 1028.83 28.7242  11
   4  -5  -1 1020.50 25.1286  10
   4   5  -1 1039.72 23.8431   8
  -4   5   1 1040.09 26.5715  12
   4   5  -1 1013.21 26.2726  13
   2  -5  -1 991.082 29.5083   4
   1  -5  -1 1059.03 32.2735   2
   1   5  -1 1002.10 26.6187   3
  -1   5   1 1000.55 28.0966   4
   1   5  -1 1065.95 26.0876   4
   0  -5  -1 3241.28 82.8054   2
   0   5  -1 3204.67 76.2267   4
   0   5   1 3221.37 76.0318   3
   0   5   1 3207.11 76.6442   4
  -1  -5  -1 2304.70 61.8545   2
  -1   5  -1 2262.17 55.8720   4
   1   5   1 2248.11 54.3972   4
   1   5   1 2205.63 54.4038   3
  -2  -5  -1 1074.75 34.9083   2
   2   5   1 1068.17 28.2130   3
   4  -5   1 251.423 7.69722  10
   4   5   1 253.665 7.99531  11
  -4   5  -1 253.250 8.63929  12
   5  -5   1 102.875 9.67447   6
   5  -5   1 115.642 4.15278  10
   5   5   1 113.081 4.43207  11
  -5   5  -1 119.875 5.17921  12
  -6   5  -1 515.607 13.8440  12
   6   5   1 541.120 13.4284  11
   6   5   1 519.482 14.0630  13
   5  -6  -1 2.18521 0.69867  10
   5   6  -1 1.54344 0.74158  13
  -5   6   1 1.31888 0.98558  12
   4  -6  -1 847.973 20.7775  10
   4   6  -1 811.792 20.5236  11
   4   6  -1 828.172 19.3712   8
   4   6  -1 805.323 22.1295  13
  -4   6   1 848.339 21.9633  12
   3  -6  -1 1863.88 43.4047  10
   3   6  -1 1786.33 43.3616  11
  -3   6   1 1886.27 44.4981  12
  -3   6   1 1847.55 44.9072   9
   3   6  -1 1787.70 44.7440  14
  -2   6   1 370.579 11.5138   9
   1  -6  -1 806.733 28.5001   2
   1   6  -1 809.980 22.4387   3
   0  -6  -1 814.001 29.7551   2
   0   6   1 844.302 23.4423   3
  -1  -6  -1 1629.36 49.1712   2
   1   6   1 1600.38 41.1136   3
  -2  -6  -1 375.869 18.8424   2
   2   6   1 373.751 12.8864   3
   3  -6   1 704.952 17.7293  10
   3   6   1 689.115 18.0996  11
  -3   6  -1 674.021 18.2628  12
   3   6   1 664.281 18.9319  14
  -3   6  -1 688.218 18.8874   9
   4  -6   1 427.451 11.6513  10
   4   6   1 423.551 11.9816  11
  -4   6  -1 415.424 12.5556  12
   4   6   1 416.919 12.8786  14
   5  -6   1 120.530 4.12774  10
  -5   6  -1 117.701 4.85343  12
   5   6   1 115.137 3.35940   8
   5   6   1 120.367 4.32876  11
   5  -7  -1 606.856 15.2044  10
  -5   7   1 642.412 16.3317  12
   5   7  -1 618.372 15.6241  13
   5   7  -1 639.767 15.6445  13
   4  -7  -1 536.005 13.9437  10
   4   7  -1 514.513 13.7818  11
   4   7  -1 538.108 12.6506   8
  -4   7   1 547.976 14.9214  12
   4   7  -1 528.398 12.6319   8
   4   7  -1 528.258 15.4850  13
   3  -7  -1 1380.62 33.0942  10
  -3   7   1 1390.38 34.6331   9
  -3   7   1 1364.61 33.8307  12
   3   7  -1 1349.26 34.3256  14
   3   7  -1 1340.40 33.1576  11
   2  -7  -1 4718.51 112.769  12
  -2  -7   1 4886.57 127.790   2
  -2   7   1 4728.35 112.689  12
  -2   7   1 5006.65 114.008   9
   2   7  -1 5097.05 113.835  14
  -2   7   1 4892.09 116.300   3
   2   7  -1 4970.64 112.721  11
   1  -7  -1 171.794 12.0816   2
   1   7  -1 164.168 7.75167   3
  -1   7   1 166.177 8.08349   3
  -1   7   1 175.028 6.87767   9
   0  -7  -1 1661.39 51.0835   2
   0   7  -1 1585.01 39.7575   9
   0   7   1 1666.74 42.2639   3
   0   7   1 1539.23 39.6151   9
   0   7  -1 1647.53 42.0660   3
  -1  -7  -1 75.2141 8.47678   2
  -1   7  -1 72.6610 4.14140   9
   1   7   1 74.2588 5.00922   3
   2  -7   1 991.058 25.7947  12
  -2  -7  -1 1048.78 37.4587   2
   2   7   1 1005.34 26.6030  14
   2   7   1 1028.65 28.2937   3
   2   7   1 1001.95 25.9825  11
  -2   7  -1 1005.66 26.6253   9
   3  -7   1 3329.61 77.2404  10
  -3   7  -1 3232.76 77.7394  12
  -3   7  -1 3358.86 78.8320   9
   3   7   1 3451.16 78.0979  11
   3   7   1 3313.83 78.9296  14
   4  -7   1 198.784 6.33238  10
   4   7   1 201.667 6.71574  11
   4   7   1 186.325 7.20373  14
  -4   7  -1 195.529 6.91355  12
   5  -7   1 93.6162 3.22308  10
   5   7   1 90.5345 4.24494  13
  -5   7  -1 94.6317 3.78532  12
   5   7   1 92.7853 3.32932  11
   4  -8  -1 221.022 6.44876  10
   4   8  -1 213.954 6.31261  11
   4   8  -1 213.192 7.52862  13
  -4   8   1 217.486 6.89914  12
   3  -8  -1 86.4184 3.67653  10
   3   8  -1 84.2338 3.77972  11
  -3   8   1 80.9897 4.43110   9
   3   8  -1 83.6157 4.36987  14
  -3   8   1 78.6586 3.81809  12
   2  -8  -1 41.3659 2.94766  12
  -2  -8   1 43.4444 7.49136   2
   2  -8  -1 43.5710 2.61732  10
   2   8  -1 43.9140 3.32568  14
  -2   8   1 40.9902 3.24419   9
   2   8  -1 40.6472 2.82469  11
  -2   8   1 38.4853 4.40610   3
  -1  -8   1 639.664 17.9379  12
   1  -8  -1 663.206 18.2402  12
  -1  -8   1 679.227 29.6072   2
   1   8  -1 667.628 18.7879  14
   1   8  -1 668.363 18.3247  11
  -1   8   1 689.227 21.0817   3
  -1   8   1 672.392 18.8201   9
   0  -8   1 134.152 5.66029  12
   0  -8  -1 134.084 5.79577  12
   0  -8  -1 145.393 12.0979   2
   0  -8   1 136.173 11.9764   2
   0   8   1 138.495 6.00172   9
   0   8  -1 133.613 5.96575   9
   0   8   1 151.645 7.71758   3
   0   8  -1 141.583 6.00961  11
   0   8   1 132.283 5.90280  14
   0   8  -1 133.087 7.24898   3
   0   8  -1 132.644 5.95869  14
   1  -8   1 250.134 15.9411   2
  -1  -8  -1 252.975 8.71776  12
   1  -8   1 266.088 8.94539  12
  -1  -8  -1 249.281 16.2943   2
  -1   8  -1 261.955 11.0156   3
   1   8   1 254.235 9.17622  14
  -1   8  -1 270.025 9.38216   9
   1   8   1 265.876 10.7130   3
   1   8   1 257.595 8.98483  11
  -2  -8  -1 695.052 29.6291   2
   2  -8   1 686.195 18.7613  12
  -2  -8  -1 682.975 18.8474  12
   2   8   1 712.496 19.1083  11
   2   8   1 708.393 19.7253  14
  -2   8  -1 729.209 19.8329   9
   2   8   1 706.291 21.1214   3
   3  -8   1 312.489 9.16194  10
   3   8   1 327.615 9.82897  11
  -3   8  -1 296.505 10.2230   9
   3   8   1 318.735 10.4275  14
   4  -8   1 213.345 6.34339  10
   4   8   1 200.487 5.57075   8
   4   8   1 211.362 6.59007  11
   4   8   1 215.777 7.09953  14
   3  -9  -1 189.327 5.86969  10
   3   9  -1 200.294 6.16343  11
   3   9  -1 179.418 5.12248   8
  -3   9   1 195.149 6.81770   9
   2  -9  -1 19.9158 1.86174  10
   2   9  -1 16.3948 2.25114  14
   2   9  -1 17.5831 1.84810  11
  -2   9   1 17.1280 2.26572   9
  -1  -9   1 354.459 10.8440  12
   1  -9  -1 371.809 11.0422  12
  -1   9   1 355.079 14.0709   3
  -1   9   1 357.128 11.4471   9
   1   9  -1 360.700 11.1218  11
   0  -9   1 837.963 21.8630  12
   0  -9  -1 844.153 21.9028  12
   0   9  -1 807.096 24.0988   3
   0   9   1 798.134 24.1334   3
   0   9  -1 862.107 22.2676   9
   0   9   1 838.373 22.1408   9
   0   9   1 845.572 22.3919  14
   0   9  -1 819.036 22.0823  11
  -1  -9  -1 1729.96 41.6386  12
   1  -9   1 1754.62 41.6425  12
  -1   9  -1 1707.60 42.1518   9
   1   9   1 1677.15 41.7649  11
   1   9   1 1682.52 41.9715  14
   2  -9   1 209.333 7.03683  12
  -2  -9  -1 207.965 7.16426  12
   2   9   1 208.645 7.30598  11
  -2   9  -1 211.773 7.73699   9
   2   9   1 210.236 7.66336  14
   3  -9   1 778.908 19.7500  10
   3   9   1 822.985 20.4329  11
   3   9   1 823.462 20.9771  14
  -3   9  -1 797.125 20.9057   9
   2  10  -1 113.023 4.25100  11
  -2  10   1 119.412 4.69988   9
   1 -10  -1 66.6923 3.19439  12
  -1 -10   1 63.9609 3.19250  12
   1  10  -1 64.8674 3.23842  11
  -1  10   1 65.1358 3.40802   9
   0 -10   1 287.016 8.78700  12
   0 -10  -1 289.898 8.81104  12
   1 -10   1 62.7245 3.08920  12
  -1 -10  -1 57.1813 3.03220  12
   1  10   1 56.1087 3.11146  11
  -1  10  -1 59.5960 3.25622   9
   2 -10   1 52.2309 2.57088  12
  -2 -10  -1 52.9551 2.62127  12
   2 -10   1 50.8941 2.46624  12
  -2  10  -1 55.7774 2.96720   9
   2  10   1 57.1480 2.92872  14
   2  10   1 54.6660 2.75753  11
   7   0  -2 2.14654 0.66314  13
   7   0  -2 2.81200 0.63533  13
   6   0  -2 584.856 13.6284   8
   6   0  -2 601.511 14.8416  11
   6   0  -2 514.071 26.3445   6
   6   0  -2 574.741 16.4708  13
   5   0  -2 1667.32 42.3051  13
   5   0  -2 1714.27 40.5389  11
   5   0  -2 1769.97 54.3723   6
   5   0  -2 1692.70 39.3404   8
   4   0  -2 3319.36 79.7351   7
   4   0  -2 3260.83 86.4498   6
   3   0  -2 515.115 18.5634   6
   2   0  -2 2253.09 53.1394   5
  -1   0  -2 4964.63 113.678   4
   1   0   2 5008.17 113.468   4
   2   0   2 2665.58 62.3728   4
   3   0   2 1302.42 31.8851   4
   3   0   2 1249.39 30.7776   1
   3   0   2 1264.15 36.8737   6
   3   0   2 1257.94 31.7724   3
   4   0   2 4001.04 99.7892   6
   4   0   2 3798.16 90.8696   3
   4   0   2 3783.50 89.5013   1
   5   0   2 128.162 11.0278   6
   5   0   2 127.775 5.29619  11
   6   0   2 515.220 14.3395  11
   7  -1  -2 367.961 10.2868  13
   7  -1  -2 366.134 9.25807  11
   6  -1  -2 376.067 9.74491   8
   6  -1  -2 392.675 10.9546  11
   6   1  -2 390.110 11.4907  13
   5  -1  -2 187.831 13.2851   6
   5  -1  -2 190.651 6.51152  11
   5   1  -2 198.788 13.9428   6
   5   1  -2 190.177 6.98618  13
   5   1  -2 192.069 5.03146   8
   4  -1  -2 193.676 12.0070   6
   4   1  -2 199.563 12.4497   6
   4   1  -2 197.636 8.74448   7
   3  -1  -2 1758.50 39.8845   4
   3  -1  -2 1643.15 46.1475   6
   3   1  -2 1718.45 47.0460   6
   2  -1  -2 529.129 13.6068   4
   2   1  -2 544.986 14.7813   5
   1  -1  -2 6307.13 143.907   4
  -1   1   2 6385.28 143.935   4
   0  -1   2 3382.61 78.8091   4
   0  -1  -2 3541.83 79.0736   4
   0   1  -2 3544.78 78.8223   4
   0   1   2 3343.42 78.9867   4
   1  -1   2 3820.11 88.5604   4
  -1  -1  -2 3820.55 88.6201   4
   1   1   2 3896.58 88.4130   4
  -1   1  -2 3899.26 88.7280   4
   2  -1   2 2043.96 49.1390   4
   2   1   2 2075.92 48.7068   4
   3  -1   2 2350.55 56.0947   3
   3  -1   2 2378.41 56.5133   4
   3  -1   2 2360.32 55.0174   1
   3   1   2 2417.10 55.7340   4
   3   1   2 2347.00 61.3395   6
   3   1   2 2275.47 55.9102   3
   3   1   2 2303.36 54.9456   1
   4  -1   2 177.736 11.7211   6
   4  -1   2 156.235 6.16757   1
   4  -1   2 161.749 7.07764   3
   4   1   2 162.085 7.13209   3
   4   1   2 170.506 11.2070   6
   4   1   2 162.107 6.28731   1
   5  -1   2 3437.12 93.2979   6
   5  -1   2 3414.97 80.1503  11
   5   1   2 3473.93 93.0278   6
   5   1   2 3506.89 79.6983  11
  -5   1  -2 3294.89 79.7789  12
   6  -1   2 1015.55 25.8067  11
  -6   1  -2 1000.99 26.3929  12
   6   1   2 1041.33 25.5767  11
   6  -2  -2 140.086 5.35662  11
   6   2  -2 140.889 5.43582  13
   6   2  -2 143.608 4.89065  13
   5  -2  -2 683.202 18.1572  11
   5  -2  -2 663.151 27.6327   6
   5   2  -2 718.166 29.4258   6
   5   2  -2 667.883 17.7382  13
   4  -2  -2 1862.79 53.3885   6
   4   2  -2 1836.87 54.5423   6
   4   2  -2 1828.55 46.8794   7
   4   2  -2 1790.85 41.3464   8
   3  -2  -2 623.938 16.6689   4
   3  -2  -2 630.147 21.6357   6
   3   2  -2 621.183 22.4228   6
   3   2  -2 598.988 17.8240   7
   2  -2  -2 2310.78 53.7410   4
   2   2  -2 2255.15 54.0991   5
   0  -2  -2 6309.70 144.916   4
   0  -2   2 6082.20 144.426   4
   0   2  -2 6793.34 146.742   4
   0   2   2 6346.03 144.903   4
   0   2  -2 6325.39 144.457   4
   1  -2   2 1117.64 28.1110   4
  -1  -2  -2 1126.99 28.0912   4
   1   2   2 1177.93 27.9279   4
  -1   2  -2 1150.78 28.3651   4
   2  -2   2 429.321 12.9695   4
   2   2   2 448.285 12.2665   4
   3  -2   2 1671.87 40.1188   1
   3  -2   2 1689.68 41.9088   4
   3  -2   2 1696.76 41.2908   3
   3   2   2 1639.66 40.9546   3
   3   2   2 1636.66 39.8858   1
   3   2   2 1698.12 40.3475   4
   3   2   2 1660.09 46.1898   6
   4  -2   2 1600.55 40.8696   3
   4  -2   2 1607.45 39.4603   1
   4   2   2 1597.35 48.2271   6
   5  -2   2 556.708 14.1521  10
   5  -2   2 556.014 15.7955  11
   5  -2   2 582.284 25.4764   6
   5   2   2 539.260 24.4504   6
  -5   2  -2 558.488 15.5575  12
   5   2   2 559.409 15.1972  11
   6  -2   2 758.654 19.7228  11
   6   2   2 764.174 19.1891  11
  -6   2  -2 712.983 19.2679  12
   6  -3  -2 134.298 5.24202  11
   5  -3  -2 1883.05 44.9661  11
   5   3  -2 1842.76 43.8855  13
   5   3  -2 1843.72 43.6875  13
   4   3  -2 142.010 7.35074   7
   3  -3  -2 617.987 17.8670   4
   3   3  -2 647.652 18.5556   7
   3   3  -2 628.588 18.1000   5
   2  -3  -2 449.711 13.4036   4
   2   3  -2 453.850 13.1321   5
   1  -3  -2 6506.79 147.241   4
  -1   3   2 6252.21 147.502   4
   1   3  -2 6534.60 145.272   4
   0  -3  -2 8401.55 193.812   4
   0   3  -2 8691.68 193.257   4
   0   3   2 8465.52 193.695   4
   1  -3   2 52.1020 3.94658   4
  -1  -3  -2 57.4271 5.22679   2
   1   3   2 47.5358 2.90659   4
  -1   3  -2 51.3849 3.26238   4
   2  -3   2 3.59168 1.15513   4
  -2  -3  -2 1.26170 1.34445   2
   2   3   2 -0.0491 0.52521   4
   2   3   2 3.24412 1.00574   3
   3  -3   2 30.2518 3.05685   4
   3   3   2 31.3805 2.34505   4
   3   3   2 51.8908 9.53509   6
   3   3   2 31.1898 2.77447   3
   3   3   2 30.4723 2.32493   1
   4   3   2 180.551 11.9667   6
   5  -3   2 137.773 5.88660  11
   5  -3   2 144.486 12.0256   6
   5  -3   2 149.009 4.90678  10
  -5   3  -2 148.639 5.88652  12
   5   3   2 147.113 5.57182  11
   5   3   2 140.949 11.2230   6
   6  -3   2 787.886 20.8771  11
  -6   3  -2 809.770 20.7152  12
   6   3   2 807.443 19.1081   8
   6   3   2 823.616 20.3502  11
   6  -4  -2 41.6531 2.57081  11
  -6   4   2 40.0844 2.42749  12
   5  -4  -2 245.169 8.38407  11
   5   4  -2 234.284 7.01514  13
  -5   4   2 230.907 8.01157  12
   5   4  -2 238.379 6.94855  13
   4  -4  -2 801.711 20.7321  11
  -4   4   2 722.284 20.2681  12
   4   4  -2 777.913 22.9526   7
   4   4  -2 769.443 19.1193  13
   3   4  -2 2391.10 58.5535   7
   2  -4  -2 329.480 11.3772   4
   2   4  -2 333.798 10.7135   5
   1  -4  -2 2877.60 68.6772   4
   1  -4  -2 2814.75 72.1430   2
   1   4  -2 2943.46 66.4314   4
   0  -4  -2 2357.86 61.0115   2
   0   4  -2 2410.45 56.1458   4
   0   4   2 2349.89 56.5788   4
   0   4   2 2305.10 55.9186   3
  -1  -4  -2 2385.46 61.5274   2
   1   4   2 2261.51 55.5153   3
  -1   4  -2 2334.41 56.6542   4
   1   4   2 2361.41 55.9447   4
  -1   4  -2 2341.63 56.7563   4
  -2  -4  -2 4107.96 101.208   2
   2   4   2 4001.95 94.2081   3
   2   4   2 3996.37 93.7718   4
   3   4   2 1732.45 43.5084   3
   3   4   2 1756.55 42.2331   1
   4  -4   2 137.902 4.99822  10
  -4   4  -2 144.522 5.80795  12
   4   4   2 139.783 5.39813  11
   5  -4   2 69.6809 3.03250  10
   5  -4   2 66.2936 8.04635   6
  -5   4  -2 66.6682 3.69893  12
   5   4   2 67.3222 3.47217  11
   6  -4   2 404.403 11.7627  11
   6   4   2 423.876 11.1715  11
  -6   4  -2 431.260 11.7561  12
   6   4   2 419.756 10.0918   8
   6  -5  -2 312.304 9.04416  11
  -6   5   2 304.656 8.81675  12
   5  -5  -2 621.640 17.6109  11
   5   5  -2 641.491 15.9195  13
   5   5  -2 653.467 15.8909  13
  -5   5   2 632.944 17.3278  12
   4  -5  -2 1064.96 25.6028  10
   4  -5  -2 1013.09 27.1610  11
   4   5  -2 1065.90 26.2603  13
  -4   5   2 1065.60 27.0837  12
  -3   5   2 1376.18 36.2223   9
   3   5  -2 1337.29 31.1336   8
   1  -5  -2 97.7669 7.46696   2
  -1   5   2 108.997 5.27538   3
   1   5  -2 96.7001 4.14576   4
   0  -5  -2 948.643 30.4003   2
   0   5  -2 923.745 24.6618   4
   0   5   2 898.002 25.1716   4
   0   5   2 906.664 24.4578   3
  -1  -5  -2 756.202 26.7912   2
   1   5   2 781.778 20.8649   3
  -1   5  -2 722.594 21.6250   4
   1   5   2 740.491 20.9045   4
  -2  -5  -2 671.497 25.9085   2
   2   5   2 689.463 19.6223   3
   3   5   2 1076.20 29.4178   3
   3   5   2 1118.70 28.1096   1
   4  -5   2 282.573 8.45097  10
   4   5   2 272.909 9.48653  14
  -4   5  -2 288.991 9.35439  12
   4   5   2 285.361 9.00328  11
   5  -5   2 24.3363 1.76044  10
   5   5   2 25.4875 2.04939  11
  -5   5  -2 26.6498 2.35887  12
   6   5   2 264.793 8.52502  13
   6   5   2 272.054 7.35907  11
  -6   5  -2 282.201 7.99653  12
   5  -6  -2 57.0634 2.35530  10
  -5   6   2 58.2105 3.24686  12
   4  -6  -2 52.3285 2.75453  10
  -4   6   2 55.4694 3.56497  12
   4   6  -2 55.8562 3.28546  13
   3  -6  -2 1746.94 41.5977  10
   3   6  -2 1806.97 40.3826   8
  -3   6   2 1731.18 43.1416   9
   3   6  -2 1718.48 41.3703  11
   3   6  -2 1737.60 43.1719  13
  -3   6   2 1787.60 42.8348  12
  -2   6   2 302.851 11.2916   3
   1  -6  -2 622.386 24.1317   2
  -1   6   2 632.878 18.8864   3
   0  -6  -2 147.089 10.6562   2
   0   6   2 134.443 6.70928   3
  -1  -6  -2 1908.91 56.9724   2
   1   6   2 1956.20 48.4915   3
  -2  -6  -2 556.103 24.2555   2
   2   6   2 550.234 17.2564   3
  -2   6  -2 545.354 15.7044   9
   3  -6   2 184.860 6.28631  10
   3   6   2 183.393 6.77800  11
  -3   6  -2 194.396 7.35565   9
   3   6   2 191.994 8.41403   3
  -3   6  -2 180.931 6.71803  12
   3   6   2 186.725 7.34275  14
   3   6   2 187.602 7.33346   1
   4  -6   2 118.605 4.54085  10
  -4   6  -2 121.053 5.21039  12
   4   6   2 106.833 5.27231  14
   4   6   2 117.305 4.94291  11
   5  -6   2 260.235 7.46618  10
   5   6   2 268.356 7.96812  11
  -5   6  -2 265.752 8.32354  12
   5  -7  -2 155.466 4.51885  10
  -5   7   2 165.331 5.59434  12
   4  -7  -2 514.177 13.4208  10
   4   7  -2 509.599 14.4944  13
  -4   7   2 512.690 14.3989  12
   3  -7  -2 588.641 15.4706  10
  -3   7   2 583.196 16.9149   9
  -3   7   2 592.536 16.3485  12
   3   7  -2 583.687 15.4414  11
   3   7  -2 586.271 16.6410  14
   3   7  -2 581.417 14.2657   8
   2  -7  -2 724.885 18.3979  10
  -2   7   2 683.786 18.8827  12
  -2   7   2 730.533 19.9392   9
   2   7  -2 714.273 18.6330  11
   2   7  -2 691.358 19.5691  14
  -2   7   2 722.407 21.7631   3
   1  -7  -2 305.944 17.5297   2
   1   7  -2 369.774 11.4205  11
   1   7  -2 395.410 12.2108  14
  -1   7   2 393.929 13.7093   3
  -1   7   2 397.850 11.9992   9
   0  -7  -2 1947.03 57.6768   2
   0   7   2 1826.76 45.7128   9
   0   7  -2 1837.79 47.8010   3
   0   7   2 1938.55 48.3862   3
   0   7  -2 1874.63 45.8884   9
   1  -7   2 408.154 12.4302  12
  -1  -7  -2 422.219 21.3241   2
   1   7   2 412.268 12.1264  10
   1   7   2 387.912 13.7618  14
   1   7   2 435.563 14.5357   3
   2  -7   2 407.771 12.2864  12
  -2  -7  -2 419.633 21.3659   2
  -2  -7  -2 393.634 12.2454  12
   2   7   2 428.546 14.6184   3
   2   7   2 423.218 11.3023  10
  -2   7  -2 421.786 13.0458   9
   2   7   2 430.694 13.1102  14
   2   7   2 418.160 12.6453  11
   3  -7   2 3107.33 73.0646  10
   3   7   2 3188.32 74.0370  11
  -3   7  -2 3145.01 74.6149   9
   3   7   2 3168.42 74.8655  14
   4  -7   2 103.785 3.99163  10
  -4   7  -2 95.7916 4.20664  12
   4   7   2 94.6257 4.27176  11
   4   7   2 99.2072 4.76088  14
   5  -7   2 301.167 7.93871  10
   5   7   2 306.554 8.29768  11
  -5   7  -2 291.059 8.39186  12
   4  -8  -2 171.290 5.32223  10
   4   8  -2 174.047 6.13773  13
  -4   8   2 174.239 5.89788  12
   3  -8  -2 188.540 6.10514  10
   3   8  -2 177.433 5.03477   8
  -3   8   2 180.486 7.08421   9
   3   8  -2 179.525 6.06739  11
   3   8  -2 182.877 6.85982  14
  -3   8   2 174.190 6.28764  12
   2  -8  -2 810.315 20.6348  10
  -2  -8   2 787.441 32.4181   2
   2   8  -2 823.780 21.1999  11
   2   8  -2 828.797 21.9769  14
  -2   8   2 798.783 23.9693   3
  -2   8   2 824.146 22.2510   9
  -1  -8   2 16.5541 2.33531  12
   1  -8  -2 17.5190 2.20050  12
  -1  -8   2 13.0293 4.86456   2
   1   8  -2 13.6698 1.97341  11
  -1   8   2 13.8841 2.15000   9
  -1   8   2 16.6236 3.01802   3
   1   8  -2 12.6433 2.12644  14
   0  -8  -2 19.7768 5.52341   2
   0  -8   2 16.7175 2.26970  12
   0  -8  -2 12.0924 1.95834  12
   0   8  -2 15.0331 2.31384   9
   0   8  -2 14.4823 2.76814   3
   0   8   2 16.9392 2.87838   3
   0   8  -2 15.1341 2.23437  11
   0   8   2 14.1917 2.16716   9
   1  -8   2 9.34238 1.72793  12
  -1  -8  -2 17.4034 2.34017  12
  -1  -8  -2 21.8585 5.62242   2
  -1   8  -2 9.79100 1.94293   9
  -1   8  -2 11.7324 2.67628   3
   1   8   2 15.0739 3.01724   3
   1   8   2 9.09758 1.85384  14
   1   8   2 8.64004 1.76507  11
  -2  -8  -2 1623.81 39.2314  12
   2  -8   2 1603.21 38.9915  12
  -2  -8  -2 1573.94 51.8783   2
   2   8   2 1629.78 39.9320  14
   2   8   2 1541.26 41.4408   3
   2   8   2 1561.99 39.3050  11
  -2   8  -2 1635.93 39.9500   9
   3  -8   2 329.382 9.39506  10
  -3   8  -2 317.421 10.4644   9
   3   8   2 331.065 10.6808  14
   3   8   2 327.018 10.1676  11
   4  -8   2 220.829 6.53663  10
   4   8   2 218.423 7.27966  14
   4   8   2 228.664 7.00925  11
   3  -9  -2 186.033 5.74890  10
  -3   9   2 182.035 6.55402   9
   3   9  -2 193.053 5.86053  11
   3   9  -2 186.348 4.84959   8
   3   9  -2 187.195 4.90409   8
   2  -9  -2 523.765 13.9312  10
   2   9  -2 532.907 14.5161  11
  -2   9   2 539.088 15.2548   9
  -1  -9   2 468.336 13.3063  12
   1  -9  -2 470.114 13.3604  12
   1   9  -2 478.909 13.5580  11
  -1   9   2 462.411 13.9666   9
   0  -9   2 891.118 22.7245  12
   0   9   2 839.458 22.7974   9
   0   9  -2 871.957 22.9416  11
   0   9  -2 880.906 23.0106   9
  -1  -9  -2 1618.17 39.3990  12
   1  -9   2 1653.29 39.2989  12
   1   9   2 1666.24 40.9923  11
  -1   9  -2 1576.71 39.8025   9
   1   9   2 1542.90 39.4545  14
   2  -9   2 109.788 4.70326  12
   2  -9   2 110.129 4.61474  12
  -2  -9  -2 103.284 4.61455  12
   2   9   2 117.873 5.11191  14
   2   9   2 114.099 4.86791  11
  -2   9  -2 120.031 5.24375   9
   3  -9   2 595.501 15.1205  10
  -3  -9  -2 587.312 15.5505  12
  -3   9  -2 598.977 16.0794   9
   3   9   2 607.651 15.8440  11
   3   9   2 622.679 16.2251  14
   2 -10  -2 60.4649 2.50539  10
   2  10  -2 65.9931 2.82141  11
  -2  10   2 60.6027 3.08095   9
  -1 -10   2 239.337 7.34864  12
   1 -10  -2 240.958 7.29647  12
  -1  10   2 239.886 7.75991   9
   1  10  -2 243.386 7.51465  11
   0 -10  -2 994.741 23.9970  12
   0 -10   2 984.860 23.9347  12
   0  10  -2 903.245 23.9434  11
  -1 -10  -2 449.131 12.1201  12
   1 -10   2 454.764 12.0734  12
  -1  10  -2 431.968 12.2846   9
   1  10   2 422.130 12.0469  14
   2 -10   2 460.493 12.0336  12
  -2 -10  -2 465.144 12.1776  12
  -2  10  -2 448.464 12.5998   9
   2  10   2 459.291 12.3944  14
   2  10   2 465.215 12.3226  11
   6   0  -3 0.23822 0.47289  11
   6   0  -3 0.77647 0.67783  13
   5   0  -3 3667.73 86.2158  11
   5   0  -3 3793.15 85.1132   8
   5   0  -3 3731.17 87.9949  13
   5   0  -3 3862.58 100.888   6
   4   0  -3 81.3162 7.71750   6
   4   0  -3 85.6947 5.47498   7
   3   0  -3 282.760 9.87246   7
   3   0  -3 268.905 12.3379   6
   2   0  -3 2135.74 51.1408   5
   1   0  -3 3906.18 89.1427   4
  -1   0  -3 520.580 14.1276   4
   1   0   3 504.341 13.9000   4
   2   0   3 195.112 7.16136   4
   3   0   3 3542.96 84.5881   4
   3   0   3 3622.65 83.0355   1
   3   0   3 3552.62 89.6586   6
   3   0   3 3602.37 84.2248   3
   4   0   3 532.373 21.9043   6
   4   0   3 539.985 16.5077   3
   4   0   3 523.695 15.2089   1
   5   0   3 1367.25 45.1216   6
   5   0   3 1430.79 34.2586  11
  -5   0  -3 1336.61 33.9434  12
   6   0   3 845.196 21.3338  11
  -6   0  -3 804.438 21.0410  12
   6  -1  -3 186.707 6.05015  11
   6  -1  -3 186.728 4.97899   8
   6  -1  -3 182.754 5.00605   8
   6   1  -3 183.636 6.13238  13
   5  -1  -3 93.3716 3.50845   8
   5  -1  -3 100.256 4.14188  11
   5   1  -3 98.8920 4.37213  13
   5   1  -3 99.3209 2.64824   8
   5   1  -3 83.5468 9.10526   6
   4  -1  -3 954.595 26.8776   7
   4  -1  -3 939.240 32.6482   6
   4   1  -3 938.109 27.0166   7
   4   1  -3 945.823 21.7591   8
   4   1  -3 960.140 33.0139   6
   3   1  -3 392.774 16.0766   6
   3   1  -3 400.025 12.9129   7
   2  -1  -3 1774.29 42.0645   4
   2   1  -3 1816.73 43.7505   5
   1  -1  -3 3014.66 68.5365   4
   1   1  -3 2885.84 67.5570   4
   1   1  -3 3009.16 67.5485   4
   0  -1  -3 6921.17 151.405   4
   0  -1   3 6259.67 150.892   4
   0   1   3 6586.70 151.282   4
   0   1  -3 6861.05 151.062   4
  -1  -1  -3 3967.69 92.3828   4
   1  -1   3 4010.08 92.2851   4
   1   1   3 4044.05 92.1236   4
  -1   1  -3 3962.56 92.3715   4
   2  -1   3 1330.69 31.7093   1
   2  -1   3 1318.24 32.5448   3
   2  -1   3 1326.64 33.2122   4
   2   1   3 1319.11 32.4960   3
   2   1   3 1347.18 32.8359   4
   2   1   3 1293.47 31.6010   1
   3  -1   3 396.576 11.1213   1
   3  -1   3 396.930 12.0962   3
   3  -1   3 365.466 12.3956   4
   3   1   3 361.063 15.1761   6
   3   1   3 379.101 11.9809   3
   3   1   3 363.673 11.8891   4
   3   1   3 379.102 11.0370   1
   4  -1   3 457.830 20.3434   6
   4  -1   3 439.152 14.3979   3
   4  -1   3 424.871 13.0664   1
   4   1   3 444.758 19.4894   6
   4   1   3 435.437 13.2026   1
   4   1   3 437.867 14.4170   3
   5  -1   3 229.341 6.68942  10
   5  -1   3 225.888 14.6186   6
   5  -1   3 234.951 8.20725  11
   5   1   3 236.862 7.85385  11
   5   1   3 232.980 14.5137   6
  -5   1  -3 228.317 7.89060  12
   6  -1   3 149.391 5.63459  11
   6   1   3 151.849 5.64885  11
  -6   1  -3 141.566 5.50308  12
   6  -2  -3 14.7180 1.06934   8
   6  -2  -3 13.2961 1.64245  11
   5  -2  -3 1811.25 43.8512  11
   5   2  -3 1864.04 42.8907  13
   5   2  -3 1805.65 42.9028  13
   4   2  -3 1187.56 32.8186   7
   3  -2  -3 590.118 16.0515   4
   3   2  -3 600.809 17.9815   7
   3   2  -3 602.027 17.8575   5
   2  -2  -3 7636.32 173.648   4
   2   2  -3 7616.02 174.435   5
   1  -2  -3 1107.15 26.9907   4
   1   2  -3 1060.06 25.2194   4
   0  -2  -3 379.785 11.1387   4
   0   2  -3 398.251 10.8552   4
   0   2   3 375.734 11.0903   4
  -1  -2  -3 5726.46 133.019   4
   1  -2   3 5649.71 131.763   4
  -1   2  -3 5759.49 131.896   4
   1   2   3 5826.87 131.695   4
  -2  -2  -3 1126.50 33.2638   2
   2  -2   3 1173.90 28.3162   1
   2  -2   3 1161.51 29.2310   3
   2  -2   3 1201.08 30.2157   4
   2   2   3 1156.47 29.1100   3
   2   2   3 1173.62 29.3180   4
   2   2   3 1143.03 28.1764   1
   3  -2   3 1394.01 35.4919   3
   3  -2   3 1340.62 36.2543   4
   3  -2   3 1416.94 34.2719   1
   3   2   3 1388.68 35.2000   4
   3   2   3 1417.66 35.3850   3
   3   2   3 1408.17 34.1267   1
   4  -2   3 271.076 10.0441   3
   4  -2   3 230.874 8.51558   1
   4   2   3 230.585 8.40706   1
   4   2   3 226.709 9.36250   3
   5  -2   3 310.377 17.6429   6
   5  -2   3 314.312 10.2124  11
   5  -2   3 314.491 8.75132  10
  -5   2  -3 322.067 10.0377  12
   5   2   3 305.391 9.86590  11
   6  -2   3 1293.12 32.4166  11
   6   2   3 1343.12 32.1560  11
  -6   2  -3 1315.91 32.2209  12
   6  -3  -3 133.908 5.03003  11
   5  -3  -3 140.202 5.68545  11
   4   3  -3 1924.78 49.7981   7
   3   3  -3 85.2833 5.27923   7
   3   3  -3 86.6237 5.19651   5
   2  -3  -3 1691.27 41.9794   4
   2   3  -3 1710.62 42.1861   5
   1  -3  -3 1729.11 43.0707   4
   1   3  -3 1799.83 40.9118   4
   0  -3  -3 4697.09 117.405   2
   0  -3  -3 4955.78 113.631   4
   0   3   3 4869.48 113.531   4
   0   3  -3 5109.57 112.905   4
  -1  -3  -3 103.148 6.98980   2
  -1   3  -3 108.302 5.11067   4
   1   3   3 102.490 4.59210   3
   1   3   3 104.378 4.85636   4
  -2  -3  -3 2062.76 57.0034   2
   2  -3   3 2217.07 50.7618   1
   2  -3   3 2183.41 51.9001   3
   2   3   3 2108.57 51.5463   4
   2   3   3 2123.33 51.5210   3
   3  -3   3 1159.81 30.5710   3
   3  -3   3 1158.34 29.1829   1
   3   3   3 1126.84 28.7390   1
   3   3   3 1138.07 30.0220   3
   4   3   3 1651.14 44.0822   3
   4   3   3 1666.43 42.5914   1
  -4   3  -3 1891.82 46.5222  12
   5  -3   3 887.481 25.1623  11
   5  -3   3 893.712 21.8808  10
   5  -3   3 872.732 33.9557   6
  -5   3  -3 907.294 23.3068  12
   5   3   3 888.709 23.0296  11
   6  -3   3 278.575 8.85627  11
   6   3   3 298.421 8.65106  11
  -6   3  -3 291.989 8.85625  12
   6  -4  -3 315.502 9.27538  11
   5  -4  -3 122.822 5.20911  11
  -5   4   3 102.531 4.82518  12
   4  -4  -3 1116.32 28.4008  11
   4  -4  -3 1095.45 26.6242  10
  -4   4   3 1090.22 28.0660  12
   4   4  -3 1154.31 31.5154   7
   3   4  -3 545.085 17.1461   7
   3   4  -3 530.232 12.3939   8
   3   4  -3 534.322 16.9422   5
   2  -4  -3 3312.53 80.7128   4
   2   4  -3 3327.36 80.3335   7
   2   4  -3 3498.52 80.5451   5
   1  -4  -3 749.672 24.6248   2
   1  -4  -3 743.077 20.9908   4
   1   4  -3 747.746 18.3913   4
  -1   4   3 722.474 19.8400   3
   0  -4  -3 1800.18 49.8930   2
   0   4   3 1824.29 45.3976   4
   0   4   3 1801.22 44.2950   3
   0   4  -3 1857.19 44.4887   4
   0   4  -3 1843.79 44.5295   4
  -1  -4  -3 295.897 13.9313   2
  -1   4  -3 296.538 10.6348   4
   1   4   3 297.003 10.2384   4
   1   4   3 302.099 9.95667   3
  -2  -4  -3 2332.89 62.6032   2
   2   4   3 2327.37 55.4298   3
   2   4   3 2192.81 55.3037   4
   3   4   3 1319.03 34.6668   3
   3   4   3 1336.53 33.2812   1
   4  -4   3 498.242 13.3411  10
   4   4   3 499.706 14.7420   1
   4   4   3 498.624 14.6513  14
   4   4   3 493.918 16.0404   3
   4   4   3 503.251 14.2008  11
  -4   4  -3 491.379 14.1223  12
   5  -4   3 280.684 7.99123  10
   5  -4   3 255.688 15.8369   6
  -5   4  -3 276.118 9.00906  12
   5   4   3 272.070 8.80858  11
  -6   4  -3 116.085 4.42603  12
   6   4   3 112.859 4.14652  11
   6  -5  -3 41.0393 2.26129  11
  -6   5   3 38.0172 2.11686  12
   5  -5  -3 435.069 12.9081  11
  -5   5   3 445.496 12.7679  12
   4  -5  -3 559.545 14.4514  10
   4  -5  -3 530.096 15.9775  11
   4   5  -3 571.689 14.4970  13
  -4   5   3 575.240 15.8970  12
   3   5  -3 1370.09 31.4131   8
   3   5  -3 1391.95 31.4431   8
  -3   5   3 1361.42 34.3375   9
   1  -5  -3 2942.22 76.4500   2
   1   5  -3 2871.95 67.4774   4
  -1   5   3 2927.55 69.6759   3
   0  -5  -3 1341.95 40.6477   2
   0   5  -3 1318.73 33.9892   4
   0   5   3 1273.83 34.8799   4
   0   5   3 1358.01 34.0215   3
  -1  -5  -3 185.079 11.6107   2
  -1   5  -3 172.663 9.89533   4
  -1   5  -3 169.645 9.88503   4
   1   5   3 175.486 7.43478   3
  -2  -5  -3 1471.12 45.9981   2
   2   5   3 1479.68 38.0385   3
   3   5   3 1609.19 39.6334   1
   3   5   3 1577.78 41.1656   3
   4  -5   3 4.75769 1.11051  10
   4   5   3 7.63734 1.48700  11
   4   5   3 4.55552 1.42102  14
   4   5   3 5.25686 1.66720   3
   4   5   3 4.71617 1.47160   1
  -4   5  -3 5.75522 1.37208  12
   5  -5   3 713.045 17.9739  10
  -5   5  -3 739.797 19.1068  12
   5   5   3 712.711 18.8527  11
   5  -6  -3 337.134 10.1991  11
  -5   6   3 335.604 10.0226  12
   4  -6  -3 268.858 7.88882  10
   4   6  -3 269.847 8.31446  13
  -4   6   3 270.428 9.10830  12
   3  -6  -3 469.018 12.4103  10
   3   6  -3 443.676 13.4799  13
  -3   6   3 463.400 13.4305  12
  -3   6   3 458.336 13.8027   9
   3   6  -3 461.634 11.0527   8
   3   6  -3 433.600 12.3341  11
   3   6  -3 455.151 11.0310   8
  -2   6   3 994.255 25.9360   9
  -2   6   3 984.353 27.4623   3
   1  -6  -3 532.051 22.3586   2
  -1   6   3 525.299 16.6173   3
   0  -6  -3 892.991 32.2529   2
   0   6   3 900.038 25.1254   3
  -1  -6  -3 443.885 20.8748   2
  -1   6  -3 406.921 12.7811   9
   1   6   3 445.907 14.6085   3
  -2  -6  -3 686.712 28.4179   2
  -2   6  -3 686.549 19.1907   9
   2   6   3 722.465 21.1445   3
   3  -6   3 943.318 25.0998  12
  -3  -6  -3 959.021 25.1870  12
   3  -6   3 992.320 24.4785  10
  -3   6  -3 938.397 24.7034  12
   3   6   3 1021.44 26.1524  14
   3   6   3 998.451 26.1159   1
   3   6   3 1008.16 25.5007  11
  -3   6  -3 981.456 25.7474   9
   3   6   3 1016.38 27.8224   3
   4  -6   3 104.556 4.13356  10
   4   6   3 97.3148 4.53883  11
  -4   6  -3 96.4180 4.44715  12
   4   6   3 96.6276 4.85176  14
   5  -6   3 1218.33 29.1191  10
   5   6   3 1258.57 29.8679  11
  -5   6  -3 1211.68 29.8071  12
  -5   7   3 59.6762 2.89740  12
   4  -7  -3 59.0786 2.72835  10
  -4   7   3 56.2318 3.33540  12
   4   7  -3 58.0550 3.05819  13
   3  -7  -3 1495.88 35.4226  10
   3   7  -3 1448.89 37.2000  13
  -3   7   3 1512.35 36.5442  12
  -3   7   3 1483.53 37.0955   9
   3   7  -3 1434.46 34.1833   8
   3   7  -3 1504.66 33.9999   8
   3   7  -3 1443.91 35.1525  11
   2  -7  -3 358.364 10.2942  10
   2   7  -3 344.123 10.3831  11
   2   7  -3 357.238 11.3299  14
  -2   7   3 374.878 11.7806   9
  -2   7   3 336.638 10.7069  12
  -2   7   3 356.375 12.9769   3
   1  -7  -3 568.361 15.2847  10
   1  -7  -3 578.562 16.1097  12
   1   7  -3 565.935 15.8420  11
  -1   7   3 585.483 16.7000   9
  -1   7   3 600.351 18.6107   3
  -1   7   3 572.441 15.3180  10
   0  -7  -3 0.75775 2.14954   2
   0  -7  -3 11.0845 1.97700  12
   0  -7   3 5.79817 1.40803  12
   0   7   3 3.69390 0.98052  10
   0   7  -3 14.4932 2.20205   9
   0   7   3 3.24511 1.14395   9
   0   7  -3 4.19562 1.21160  11
   0   7   3 7.35846 2.03418   3
  -1  -7  -3 20.8131 2.43900  12
  -1  -7  -3 39.7869 7.76427   2
   1  -7   3 27.1287 2.89418  12
  -1   7  -3 25.7302 2.55913   9
   1   7   3 24.1309 2.80692  14
   1   7   3 24.8105 3.59597   3
   1   7   3 30.2699 2.05652  10
  -2  -7  -3 1614.02 39.7723  12
  -2  -7  -3 1633.73 52.6261   2
   2  -7   3 1626.10 39.6490  12
   2   7   3 1603.50 38.1624  10
   2   7   3 1598.19 40.2942  14
   2   7   3 1638.49 42.4293   3
  -2   7  -3 1645.78 40.5245   9
  -3  -7  -3 184.275 6.94845  12
   3  -7   3 192.192 6.37914  10
   3  -7   3 188.427 7.06409  12
  -3   7  -3 192.315 7.39716   9
   3   7   3 194.521 7.57079  14
   3   7   3 195.420 7.15058  11
   3   7   3 183.006 8.47638   3
   3   7   3 180.964 7.46883   1
   4  -7   3 48.2655 2.59029  10
   4   7   3 57.5238 3.12785  11
   4   7   3 51.9909 3.31318  14
   5  -7   3 380.667 9.66402  10
   5   7   3 377.981 10.0785  11
   4  -8  -3 157.718 4.80978  10
  -4   8   3 156.961 5.37384  12
   4   8  -3 153.699 4.98572  13
   4   8  -3 165.035 5.09278  13
   3  -8  -3 493.357 12.8598  10
   3   8  -3 468.966 12.7013  11
  -3   8   3 478.133 13.3680  12
   3   8  -3 481.786 18.3433  13
   3   8  -3 481.795 11.5591   8
  -3   8   3 476.284 14.0648   9
   3   8  -3 489.225 11.5871   8
   2  -8  -3 309.391 9.03969  10
   2   8  -3 301.777 9.38404  11
  -2   8   3 282.364 11.3577   3
  -2   8   3 318.439 10.5092   9
   1  -8  -3 614.642 16.8321  12
   1  -8  -3 596.936 16.6587  10
  -1   8   3 592.044 19.0371   3
   1   8  -3 614.288 16.8191  11
  -1   8   3 625.210 17.5907   9
   0  -8  -3 484.674 23.2473   2
   0  -8  -3 479.327 13.8275  12
   0  -8   3 467.119 13.5540  12
   0   8  -3 449.937 13.7502  11
   0   8   3 472.746 12.6848  10
   0   8   3 455.238 15.7988   3
   0   8   3 457.901 13.9107   9
   0   8  -3 466.810 14.1062   9
   1  -8   3 305.344 9.77012  12
  -1  -8  -3 313.306 10.0326  12
  -1  -8  -3 304.071 18.1142   2
   1   8   3 283.275 8.59104  10
   1   8   3 303.494 10.1305  14
   1   8   3 301.203 11.8239   3
  -1   8  -3 297.570 10.2948   9
  -2  -8  -3 99.1005 4.69897  12
   2  -8   3 97.6034 4.58836  12
   2  -8   3 104.221 4.79940  12
   2   8   3 92.8745 3.51674  10
   2   8   3 100.798 5.06746  14
   2   8   3 101.215 4.87298  11
  -2   8  -3 100.613 5.05554   9
   2   8   3 103.858 6.13992   3
   3  -8   3 267.886 8.01663  10
  -3  -8  -3 274.642 8.64375  12
   3   8   3 278.385 8.88393  11
  -3   8  -3 265.040 8.93326   9
   4  -8   3 70.9250 2.85587  10
   4   8   3 76.1150 3.54819  14
   4   8   3 77.2980 3.35768  11
   3  -9  -3 175.616 5.32220  10
   3   9  -3 167.454 6.35801  13
  -3   9   3 172.401 6.10060   9
   3   9  -3 174.966 5.18903  11
   2  -9  -3 311.521 8.89281  10
   2   9  -3 313.274 9.29010  11
  -2   9   3 320.928 10.0789   9
   1  -9  -3 609.128 16.5284  12
  -1  -9   3 606.781 16.4897  12
  -1   9   3 629.061 17.3097   9
   1   9  -3 644.222 16.8609  11
   0  -9   3 224.396 7.58144  12
   0  -9  -3 237.410 7.82150  12
   0   9  -3 220.438 7.71710  11
   0   9  -3 226.769 7.93281   9
   0   9   3 210.686 7.68204   9
   1  -9   3 585.828 15.7035  12
  -1  -9  -3 581.450 15.8355  12
   1   9   3 557.507 15.7769  14
  -1   9  -3 564.425 16.0876   9
   2  -9   3 694.805 18.0687  12
  -2  -9  -3 693.300 18.1404  12
  -2   9  -3 698.782 18.5798   9
   2   9   3 703.885 18.5522  14
   2   9   3 657.631 18.1891  11
  -3  -9  -3 196.829 6.34104  12
  -3   9  -3 198.152 6.65207   9
   3   9   3 213.734 6.83525  14
   3   9   3 203.863 6.54133  11
   2 -10  -3 148.928 4.59207  10
   2  10  -3 157.885 4.88194  11
  -1 -10   3 31.8183 1.96194  12
   1  10  -3 32.1956 2.04365  11
  -1  10   3 31.6131 2.21188   9
   0 -10  -3 390.715 10.5720  12
   0 -10   3 381.584 10.5458  12
   0  10  -3 365.772 10.7093  11
  -1 -10  -3 140.576 4.93983  12
   1 -10   3 138.772 4.83795  12
   1 -10   3 138.181 4.94639  12
  -1  10  -3 136.521 5.08309   9
   6   0  -4 228.891 7.49819  13
   5   0  -4 3929.78 88.9810   8
   5   0  -4 4004.77 89.0081   8
   5   0  -4 3890.55 91.7950  13
   4   0  -4 92.3209 2.84113   8
   4   0  -4 93.8607 5.93220   7
   3   0  -4 1397.85 36.1132   7
   2   0  -4 390.792 12.3046   5
   1   0  -4 2162.26 49.6720   4
   1   0  -4 2064.28 50.2604   5
  -1   0  -4 2003.16 46.7961   4
   1   0   4 1942.06 46.5741   4
  -1   0  -4 1833.85 50.2722   2
   2   0   4 301.420 8.90551   1
   2   0   4 310.298 10.4829   4
   2   0   4 302.597 9.69581   3
  -2   0  -4 291.746 12.8472   2
   3   0   4 2.79611 1.36249   4
   3   0   4 3.06295 1.03741   1
   3   0   4 3.64770 1.43838   3
   4   0   4 1236.57 31.7398   1
   4   0   4 1247.66 33.3129   3
   5   0   4 1557.70 36.9749  10
   5   0   4 1624.54 39.6087   1
   5   0   4 1574.65 41.2135   3
  -5   0  -4 1608.11 38.6794  12
   5   0   4 1537.47 38.6599  11
  -6   0  -4 910.387 22.9986  12
   6   0   4 918.969 23.2449  11
   6  -1  -4 388.387 10.4548  11
   6  -1  -4 395.045 9.23219   8
   6  -1  -4 395.353 9.22816   8
   6  -1  -4 386.327 11.8949  13
   5  -1  -4 144.823 5.37439  11
   5  -1  -4 152.609 4.51583   8
   5   1  -4 153.073 8.41997   7
   5   1  -4 155.142 5.53103  13
   4  -1  -4 242.888 10.1177   7
   4   1  -4 236.911 10.3275   7
   4   1  -4 229.164 5.71209   8
   4   1  -4 230.746 5.70594   8
   3  -1  -4 2556.27 63.2047   7
   3   1  -4 2625.44 63.9476   7
   3   1  -4 2665.19 64.0761   5
   2  -1  -4 1414.85 34.0562   4
   2   1  -4 1426.21 35.8812   5
   1  -1  -4 813.180 20.5388   4
   1  -1  -4 801.801 20.4714   5
   1   1  -4 795.936 20.9965   5
   1   1  -4 781.672 19.5297   4
   0  -1  -4 4214.53 97.5445   4
   0   1  -4 4215.26 97.1100   4
  -1  -1  -4 3781.61 86.9430   4
  -1  -1  -4 3659.81 90.7917   2
   1   1   4 3638.37 86.2978   4
  -1   1  -4 3833.24 86.7486   4
  -1   1  -4 3605.89 90.8267   2
  -2  -1  -4 895.077 28.3615   2
   2  -1   4 935.091 24.7741   4
   2  -1   4 907.938 22.8311   1
   2   1   4 923.783 24.3422   4
   2   1   4 916.422 23.7454   3
   2   1   4 891.913 22.7071   1
   3  -1   4 1521.07 46.7820   4
   3  -1   4 1557.69 37.8407   1
   3  -1   4 1553.79 39.1651   3
   3   1   4 1543.22 37.8547   1
   3   1   4 1550.89 39.2102   3
   4  -1   4 315.101 11.8369   3
   4  -1   4 310.356 16.4454   6
   4  -1   4 308.127 10.5308   1
   4   1   4 333.176 10.8143   1
   4   1   4 316.152 11.8944   3
  -5  -1  -4 815.576 21.0258  12
   5  -1   4 805.226 19.6890  10
   5  -1   4 799.148 23.5857   3
   5  -1   4 731.532 29.7539   6
   5  -1   4 797.943 21.4439  11
   5  -1   4 814.942 22.1133   1
   5   1   4 815.570 21.9816   1
  -5   1  -4 817.790 21.2066  12
   5   1   4 794.129 21.2853  11
   5   1   4 807.939 23.4833   3
   6  -1   4 340.064 10.1541  11
  -6  -1  -4 336.213 9.82514  12
   6   1   4 338.353 10.0350  11
  -6   1  -4 340.968 9.98570  12
   6  -2  -4 486.018 11.7452   8
   6  -2  -4 489.643 12.9522  11
   5  -2  -4 1220.39 30.4950  11
   5   2  -4 1249.24 35.0884   7
   4   2  -4 458.710 16.2256   7
   3   2  -4 2557.21 63.2011   7
   3   2  -4 2587.90 63.4482   5
   2  -2  -4 5679.82 133.054   4
   2   2  -4 5926.17 134.539   5
   1  -2  -4 7957.48 175.187   4
   1  -2  -4 7447.41 179.498   2
   1   2  -4 7613.81 173.216   4
   0  -2  -4 3703.92 93.9312   2
   0  -2  -4 3868.06 89.7627   4
   0   2  -4 3962.60 89.1225   4
  -1  -2  -4 5423.27 129.039   2
  -1   2  -4 5423.79 124.019   4
   1   2   4 5220.78 122.818   3
   1   2   4 5362.42 123.830   4
  -2  -2  -4 2319.68 62.7605   2
   2  -2   4 2437.82 57.1433   3
   2  -2   4 2436.85 55.9496   1
   2   2   4 2363.29 56.9294   3
   2   2   4 2336.59 55.7507   1
   2   2   4 2357.03 57.5326   4
   3  -2   4 2001.28 47.7177   1
   3  -2   4 1995.60 49.1936   3
   3   2   4 1961.81 47.5531   1
   3   2   4 1943.86 48.8620   3
   4  -2   4 417.472 11.7639  10
   4  -2   4 445.537 14.9949   3
   4  -2   4 436.327 13.5759   1
   4   2   4 450.511 13.5854   1
   4   2   4 442.319 14.8237   3
   4   2   4 429.444 12.9301  11
   5  -2   4 66.1458 7.53371   6
   5  -2   4 69.2822 3.00923  10
  -5  -2  -4 64.8832 3.61335  12
  -5   2  -4 66.4139 3.75177  12
   5   2   4 72.1185 3.82869  11
   5   2   4 65.7640 4.82140   3
   5   2   4 64.5090 4.12000   1
  -6  -2  -4 537.101 15.1641  12
   6  -2   4 525.570 14.7376  11
   6   2   4 570.118 14.7967  11
  -6   2  -4 570.816 14.7921  12
   6  -3  -4 241.392 7.39677  11
   5  -3  -4 672.416 18.1152  11
   5   3  -4 665.481 21.6414   7
   4  -3  -4 765.422 20.6969  11
   4   3  -4 812.176 24.4023   7
   3   3  -4 470.769 15.8101   7
   3   3  -4 482.381 16.0858   5
   2  -3  -4 1090.96 29.1809   4
   2   3  -4 1130.68 29.8647   7
   2   3  -4 1140.85 29.9734   5
   1  -3  -4 1211.21 30.6882   4
   1  -3  -4 1141.89 34.6220   2
   1   3  -4 1204.76 28.1859   4
   0  -3  -4 418.412 16.5921   2
   0  -3  -4 406.374 12.9719   4
   0   3   4 401.342 11.9823   3
   0   3  -4 431.381 12.3138   4
  -1  -3  -4 736.628 25.1074   2
  -1   3  -4 739.519 20.7639   4
   1   3   4 724.172 19.6395   3
   1   3   4 717.649 20.4933   4
  -2  -3  -4 95.0917 7.85349   2
   2  -3   4 94.1905 4.46144   1
   2  -3   4 95.8353 5.14114   3
   2   3   4 99.1730 4.39322   1
   2   3   4 103.148 5.25779   4
   2   3   4 104.260 5.12746   3
   3  -3   4 32.0310 3.06737   1
   3  -3   4 29.0770 3.52895   3
   3   3   4 37.2410 3.37163   1
   3   3   4 33.8674 3.85008   3
  -4  -3  -4 504.353 14.2620  12
   4  -3   4 516.793 13.4841  10
   4   3   4 502.149 16.5646   3
  -4   3  -4 509.218 14.4621  12
   4   3   4 519.576 15.2730   1
   4   3   4 489.201 14.4538  11
   5  -3   4 1076.51 39.0595   6
  -5  -3  -4 1095.97 28.4152  12
   5  -3   4 1171.36 27.5517  10
   5   3   4 1190.98 28.8729  11
  -5   3  -4 1157.08 28.7245  12
   6   3   4 33.8636 2.19328  11
  -6   3  -4 37.0210 2.28752  12
   6  -4  -4 517.777 13.5966  11
   5  -4  -4 164.968 6.19168  11
   5   4  -4 158.954 8.18134   7
  -5   4   4 142.316 6.39543  12
   4  -4  -4 206.132 7.49704  11
   4   4  -4 213.294 9.90882   7
  -4   4   4 196.549 7.36890  12
   3   4  -4 1626.13 42.4763   7
   3   4  -4 1597.16 42.4341   5
   2   4  -4 3081.31 74.7788   7
   2   4  -4 3104.46 74.9554   5
   1  -4  -4 1217.09 32.7227   4
   1  -4  -4 1210.56 37.2889   2
   1   4  -4 1271.49 29.3230   4
   0  -4  -4 2443.42 65.1624   2
   0   4   4 2380.10 57.8185   3
   0   4  -4 2430.38 58.1041   4
  -1  -4  -4 1076.46 34.0673   2
   1   4   4 981.900 27.7820   4
  -1   4  -4 1008.00 28.0555   4
   1   4   4 1028.98 27.0065   3
  -2  -4  -4 441.815 19.6394   2
   2   4   4 426.584 13.9213   3
   3   4   4 1803.95 44.5468   1
   3   4   4 1829.83 46.2385   3
  -4  -4  -4 1533.05 38.4331  12
   4  -4   4 1599.63 37.6740  10
   4   4   4 1554.72 41.1421   3
   4   4   4 1581.33 39.5051   1
   4   4   4 1561.66 39.1654  14
   4   4   4 1611.27 38.9313  11
  -4   4  -4 1592.37 38.6605  12
   5  -4   4 48.5577 2.51356  10
   5   4   4 48.0323 3.01914  11
  -5   4  -4 55.5184 3.19641  12
  -6   4  -4 409.555 11.1458  12
   6   4   4 425.967 11.1624  11
   5  -5  -4 537.663 15.0826  11
  -5   5   4 549.791 15.0113  12
   4  -5  -4 388.234 10.5384  10
   4  -5  -4 397.485 12.2531  11
   4   5  -4 387.345 14.3338   7
  -4   5   4 405.673 12.0700  12
   3  -5  -4 803.578 19.9482  10
  -3   5   4 773.854 21.0922  12
   3   5  -4 814.595 18.4372   8
  -3   5   4 774.969 21.4658   9
   3   5  -4 803.867 18.4328   8
   3   5  -4 807.452 23.9807   7
   3   5  -4 802.418 20.5582  13
   2   5  -4 349.664 8.84036   8
   2   5  -4 352.332 12.8031   7
   2   5  -4 352.108 12.8470   5
   1  -5  -4 177.008 11.3755   2
  -1   5   4 169.615 7.27389   3
   1   5  -4 169.585 7.69840   7
   0  -5  -4 181.491 11.7902   2
   0   5   4 189.398 7.68887   3
  -1  -5  -4 1079.36 36.8637   2
   1   5   4 1096.59 29.2529   3
  -2  -5  -4 322.286 17.3815   2
  -2   5  -4 293.426 9.89403   9
   2   5   4 314.724 11.4623   3
   3  -5   4 511.327 14.7816  12
   3  -5   4 529.238 14.2733  10
  -3  -5  -4 528.773 15.0139  12
   3   5   4 524.899 13.6203  10
   3   5   4 543.003 17.3285   3
  -3   5  -4 521.821 14.6633  12
   3   5   4 557.947 15.9276   1
   3   5   4 534.583 15.7265  14
   3   5   4 551.555 15.3675  11
  -4  -5  -4 308.139 9.85361  12
   4  -5   4 318.753 9.18657  10
   4   5   4 316.327 10.4933  14
   4   5   4 321.477 10.1274  11
   4   5   4 299.357 10.3865   1
  -4   5  -4 310.165 9.75190  12
   4   5   4 298.959 11.5978   3
   5  -5   4 953.435 22.7739  10
  -5   5  -4 931.681 23.5099  12
   5   5   4 929.696 23.7321  11
   5  -6  -4 62.1210 3.23376  11
  -5   6   4 61.0509 3.08301  12
   4  -6  -4 307.054 8.80299  10
   4   6  -4 320.027 8.74888  13
  -4   6   4 327.224 10.2965  12
   3  -6  -4 2611.17 60.3163  10
   3   6  -4 2577.33 61.5615  13
  -3   6   4 2534.87 61.9969   9
  -3   6   4 2602.71 61.7125  12
   3   6  -4 2628.34 58.6647   8
   3   6  -4 2573.50 58.6325   8
   2  -6  -4 916.939 22.7374  10
  -2   6   4 897.231 23.5421  12
   2   6  -4 884.327 22.6418  11
  -2   6   4 937.659 24.3893   9
  -1   6   4 260.371 9.89762   3
   1   6  -4 239.346 10.1164   5
   0  -6  -4 1045.08 36.7690   2
   0   6  -4 1024.57 26.7668   9
   0   6   4 1045.24 28.5510   3
  -1  -6  -4 3230.72 89.5563   2
  -1   6  -4 3249.29 76.9429   9
   1   6   4 3310.56 79.1246   3
   2  -6   4 997.438 25.6979  12
  -2  -6  -4 992.493 25.7088  12
   2  -6   4 983.258 25.4314  12
  -2  -6  -4 1013.93 37.2988   2
   2   6   4 1035.78 28.3188   3
  -2   6  -4 1015.17 26.2911   9
   2   6   4 996.579 24.3371  10
   2   6   4 983.598 25.9195  11
   2   6   4 970.140 26.2066  14
   3  -6   4 1333.49 33.4591  12
   3  -6   4 1363.56 32.8915  10
  -3  -6  -4 1358.52 33.8371  12
  -3   6  -4 1340.91 34.0910   9
   3   6   4 1338.25 33.9451  11
   3   6   4 1328.64 32.0066  10
   3   6   4 1371.81 34.5828  14
   3   6   4 1370.35 34.6318   1
   3   6   4 1402.86 36.5187   3
  -4  -6  -4 153.593 5.99523  12
   4  -6   4 157.904 5.42005  10
  -4   6  -4 155.116 5.66380  12
   4   6   4 161.746 6.15414  11
   4   6   4 160.068 6.42602  14
   5  -6   4 12.7688 1.30141  10
  -5   6  -4 12.5817 1.46022  12
   5   6   4 13.8425 1.42209  11
   4  -7  -4 56.1905 2.49432  10
  -4   7   4 54.5546 3.22087  12
   3  -7  -4 124.115 4.58341  10
   3   7  -4 119.399 3.32570   8
   3   7  -4 120.630 5.54587  13
   3   7  -4 114.327 4.27140  11
  -3   7   4 116.506 5.53676   9
  -3   7   4 117.613 5.18517  12
   3   7  -4 122.000 3.36158   8
   2  -7  -4 2612.39 60.8571  10
  -2   7   4 2550.79 61.5889  12
  -2   7   4 2633.36 62.6305   9
   2   7  -4 2614.02 60.9622  11
   1  -7  -4 594.998 16.5951  12
   1  -7  -4 579.312 15.8691  10
  -1   7   4 617.090 17.4588   9
  -1   7   4 597.668 18.8089   3
   1   7  -4 628.805 16.5565  11
  -1   7   4 602.319 15.9595  10
   0  -7  -4 94.2024 9.65086   2
   0  -7   4 88.2326 4.31246  12
   0  -7  -4 83.3648 4.43327  12
   0   7  -4 86.0103 4.36576  11
   0   7  -4 93.6179 4.78394   9
   0   7   4 85.9150 5.66167   3
   0   7   4 92.9055 4.71230   9
  -1  -7  -4 39.4895 7.44192   2
   1  -7   4 40.6070 2.92713  12
  -1  -7  -4 39.5085 2.98636  12
   1   7   4 42.8526 4.84204   3
   1   7   4 41.4363 2.45877  10
   1   7   4 50.3701 3.33152  14
  -1   7  -4 41.0015 3.27562   9
  -2  -7  -4 2286.18 55.7955  12
   2  -7   4 2347.30 55.8477  12
   2  -7   4 2348.05 55.5987  12
  -2  -7  -4 2281.12 69.2535   2
   2   7   4 2328.47 54.2126  10
  -2   7  -4 2396.17 56.5059   9
   2   7   4 2367.37 56.4175  14
   2   7   4 2345.82 58.6310   3
   2   7   4 2302.18 56.1673  11
  -3  -7  -4 383.787 11.5384  12
   3  -7   4 389.829 10.6979  10
   3  -7   4 373.446 11.1331  12
  -3   7  -4 373.689 11.6774   9
   3   7   4 364.782 15.0029   3
   3   7   4 387.904 12.0070  14
   3   7   4 366.168 14.2716   1
   3   7   4 372.906 11.5698  11
   4  -7   4 164.773 5.35671  10
  -4  -7  -4 170.736 5.92959  12
   4   7   4 169.813 6.33968  14
   4   7   4 167.382 6.05508  11
   4  -8  -4 695.865 16.7609  10
  -4   8   4 702.945 17.5504  12
   3  -8  -4 18.0408 1.70249  10
  -3   8   4 16.5518 2.13017   9
   3   8  -4 16.0338 1.37653  11
  -3   8   4 17.0874 1.99331  12
   3   8  -4 15.6527 1.89891  13
   2  -8  -4 285.922 8.41029  10
  -2   8   4 274.193 8.72138  12
  -2   8   4 278.570 9.59186   9
   2   8  -4 272.082 8.47931  11
   1  -8  -4 584.424 16.3402  12
   1  -8  -4 595.638 15.8774  10
  -1   8   4 591.477 18.7653   3
  -1   8   4 639.689 17.4971   9
   1   8  -4 602.523 16.4570  11
   0  -8   4 370.085 11.2096  12
   0  -8  -4 379.694 11.4532  12
   0  -8  -4 334.055 19.1869   2
   0   8   4 368.546 11.6550   9
   0   8   4 375.817 10.5403  10
   0   8   4 358.211 13.4329   3
   0   8  -4 391.101 11.8811   9
   0   8  -4 375.741 11.4904  11
   1  -8   4 129.981 5.55735  12
  -1  -8  -4 161.770 17.9431   2
  -1  -8  -4 141.363 5.90972  12
   1   8   4 135.175 4.83498  10
   1   8   4 130.141 7.06390   3
  -1   8  -4 142.769 6.13253   9
   1   8   4 132.812 5.84657  14
   2  -8   4 69.0345 3.71527  12
  -2  -8  -4 63.8839 3.64758  12
   2   8   4 69.1113 3.88325  11
   2   8   4 72.1494 4.06792  14
   2   8   4 64.3850 2.76691  10
  -2   8  -4 62.3681 3.82802   9
  -3  -8  -4 469.153 12.8573  12
   3   8   4 438.685 12.9345  11
   3   8   4 466.675 13.3544  14
   4  -8   4 466.874 11.6990  10
  -4  -8  -4 441.053 12.0704  12
   4   8   4 473.803 12.3205  11
   4   8   4 479.141 12.5789  14
   3  -9  -4 204.225 5.72725  10
   3   9  -4 198.717 6.54895  13
   3   9  -4 195.980 5.40149  11
   2  -9  -4 238.617 6.98506  10
  -2   9   4 230.769 7.89270   9
   2   9  -4 237.848 6.34322   8
   2   9  -4 242.397 7.22308  11
   1  -9  -4 158.815 5.34360  10
  -1   9   4 163.443 6.28252   9
   1   9  -4 163.168 5.85989  11
   0  -9   4 3.58088 1.04843  12
   0  -9  -4 3.20425 1.08056  12
   0   9  -4 1.93331 0.92033  11
   1  -9   4 938.508 23.1627  12
  -1  -9  -4 936.547 23.1443  12
   1  -9   4 937.159 22.9579  12
   1   9   4 808.927 23.0567  14
  -1   9  -4 895.229 23.3965   9
  -2  -9  -4 401.459 11.2140  12
   2  -9   4 388.368 11.0075  12
   2   9   4 388.229 11.3754  14
  -3  -9  -4 197.935 6.08013  12
   3   9   4 197.255 6.30804  14
   3   9   4 195.943 6.16300  11
  -1 -10   4 28.2275 2.07551  12
  -1 -10   4 28.3572 2.19645  12
   1  10  -4 30.8269 1.88384  11
   0 -10   4 522.745 13.3237  12
   0 -10   4 523.431 13.4636  12
   0 -10  -4 504.014 13.1884  12
   0  10  -4 510.660 13.4839  11
   1 -10   4 51.2821 2.53288  12
  -1 -10  -4 50.2234 2.46813  12
   6   0  -5 758.611 18.7162  13
   6   0  -5 745.494 18.7668  13
   5   0  -5 205.952 5.16351   8
   5   0  -5 206.400 5.14762   8
   5   0  -5 201.580 7.39013  13
   4   0  -5 1195.20 28.2688   8
   4   0  -5 1255.29 34.0635   7
   3   0  -5 2075.10 52.1012   7
   2   0  -5 205.310 8.18056   5
   2   0  -5 187.047 8.35842   7
   1   0  -5 1028.98 25.5013   4
   1   0  -5 975.730 30.5086   2
   1   0  -5 1032.20 26.1968   5
   0   0  -5 7034.11 167.034   2
   0   0  -5 7055.61 161.433   4
  -1   0  -5 58.1501 4.06850   4
   1   0   5 55.1154 2.86732   1
   1   0   5 55.8106 3.32290   3
  -1   0  -5 59.0093 5.76864   2
   2   0   5 3566.61 82.4038   1
  -2   0  -5 3496.19 90.0171   2
   2   0   5 3514.91 85.0793   4
   2   0   5 3631.91 83.6645   3
   3   0   5 179.226 7.08406   1
   3   0   5 194.171 8.25424   3
   4   0   5 141.992 7.32463   3
   4   0   5 128.637 4.63608  10
   4   0   5 135.269 6.21108   1
  -4   0  -5 131.149 5.46304  12
   5   0   5 2776.27 64.4413  10
   5   0   5 2807.42 66.4084  11
   5   0   5 2775.18 68.7756   3
   5   0   5 2808.88 67.0228   1
  -5   0  -5 2840.57 66.0332  12
  -6   0  -5 2.44839 0.84087  12
   6   0   5 4.45849 1.02968  11
   6  -1  -5 187.704 5.55350  11
   6  -1  -5 202.810 6.75870  13
   5  -1  -5 276.073 8.34071  11
   5  -1  -5 270.205 10.4029  13
   5  -1  -5 281.793 7.27870   8
   5   1  -5 287.796 8.38347  13
   5   1  -5 277.322 8.63839  13
   5   1  -5 273.519 11.9329   7
   4  -1  -5 660.804 20.3348   7
   4  -1  -5 617.682 16.8105  11
   4   1  -5 663.770 15.1305   8
   4   1  -5 666.855 21.1301   7
   4   1  -5 653.278 15.1195   8
   3   1  -5 841.543 24.2802   5
   3   1  -5 805.543 23.8386   7
   2  -1  -5 357.002 10.5863   4
   2  -1  -5 359.003 11.8291   5
   2   1  -5 354.614 12.1394   7
   2   1  -5 384.677 12.5427   5
   1  -1  -5 47.1561 4.85681   2
   1  -1  -5 54.9305 3.24001   4
   1  -1  -5 44.7614 3.28502   5
   1   1  -5 46.2822 3.33149   5
   1   1  -5 48.5986 2.65420   4
   0  -1  -5 8107.78 183.633   4
   0  -1  -5 8149.43 189.229   2
   0   1  -5 7793.82 182.951   4
   1  -1   5 571.817 15.3209   1
  -1  -1  -5 590.969 21.4432   2
  -1  -1  -5 596.027 17.7629   4
   1  -1   5 570.361 16.1249   3
   1   1   5 622.633 16.3175   3
  -1   1  -5 580.541 17.3818   4
   1   1   5 609.779 15.3922   1
   2  -1   5 2157.14 50.3869   1
  -2  -1  -5 2054.56 58.0425   2
   2  -1   5 2150.85 51.6073   3
   2   1   5 2129.52 51.4976   3
   2   1   5 2148.93 50.2949   1
   2   1   5 2059.99 52.5930   4
   3  -1   5 930.875 24.2704   1
   3  -1   5 902.045 25.6287   3
   3   1   5 941.677 24.4202   1
   3   1   5 916.242 25.6612   3
  -4  -1  -5 1441.25 36.1496  12
   4  -1   5 1433.50 35.0172  10
   4  -1   5 1492.72 39.0969   3
   4  -1   5 1524.25 37.4037   1
  -4   1  -5 1481.05 36.2426  12
   4   1   5 1437.57 34.8755  10
   4   1   5 1528.96 39.2911   3
   4   1   5 1493.12 37.3735   1
   4   1   5 1434.52 36.5040  11
   5  -1   5 498.651 12.7779  10
   5  -1   5 501.326 15.0366   1
   5  -1   5 510.534 16.5396   3
  -5  -1  -5 502.181 14.0148  12
   5   1   5 463.396 14.6735   1
  -5   1  -5 500.399 14.0402  12
   5   1   5 487.506 12.5017  10
   5   1   5 460.780 15.9886   3
   5   1   5 485.450 14.1376  11
  -6  -1  -5 391.750 10.7291  12
   6  -1   5 372.145 10.8124  11
   6   1   5 384.735 10.8524  11
  -6   1  -5 394.801 10.8146  12
   6  -2  -5 419.793 10.9751  11
   6  -2  -5 416.438 9.77696   8
   6  -2  -5 414.703 9.78221   8
   5  -2  -5 191.869 6.55988  11
   5   2  -5 179.121 9.33369   7
   4  -2  -5 154.878 5.85457  11
   4   2  -5 150.638 4.91631  13
   4   2  -5 162.107 8.59191   7
   3   2  -5 78.1650 5.41526   7
   3   2  -5 91.5417 2.43989   8
   3   2  -5 82.7779 5.71512   5
   2  -2  -5 1229.64 31.9899   4
   2   2  -5 1276.25 33.5174   7
   2   2  -5 1293.05 33.5744   5
   1  -2  -5 3410.50 90.3653   2
   1  -2  -5 3602.09 85.1567   4
   1   2  -5 3734.86 85.5501   5
   1   2  -5 3711.92 83.1365   4
   0  -2  -5 495.722 14.9916   4
   0  -2  -5 476.805 18.9299   2
   0   2  -5 483.719 14.1736   4
   1  -2   5 9.10990 1.72310   3
   1  -2   5 8.51525 1.38500   1
  -1   2  -5 7.69908 1.85107   4
   1   2   5 10.1591 1.49034   1
   1   2   5 11.3340 1.81572   3
   2  -2   5 377.570 11.2341   1
   2  -2   5 392.924 12.3866   3
  -2  -2  -5 373.634 17.1254   2
   2   2   5 356.309 12.9334   4
   2   2   5 380.295 12.3386   3
   2   2   5 387.160 11.3268   1
   3  -2   5 1297.82 33.1407   1
   3  -2   5 1312.32 34.7467   3
   3   2   5 1302.56 33.1310   1
   3   2   5 1330.45 34.7846   3
  -4  -2  -5 218.800 7.74436  12
   4  -2   5 241.178 8.85219   1
   4  -2   5 228.904 9.81417   3
   4  -2   5 215.700 6.92804  10
  -4   2  -5 229.899 7.92957  12
   4   2   5 228.364 9.87697   3
   4   2   5 217.651 8.56871   1
   4   2   5 222.853 7.99384  11
   4   2   5 213.312 6.67282  10
  -5  -2  -5 376.871 11.3426  12
   5  -2   5 369.827 10.2818  10
   5   2   5 379.589 11.5876  11
  -5   2  -5 401.801 11.6074  12
  -6  -2  -5 94.2755 3.75903  12
   6   2   5 95.8121 3.91301  11
  -6   2  -5 99.0092 3.88438  12
   6  -3  -5 536.922 13.4280   8
   6  -3  -5 520.143 13.5555  11
   5  -3  -5 1326.25 32.2535  11
   5   3  -5 1275.32 36.0681   7
   4  -3  -5 361.821 11.0096  11
   4   3  -5 347.705 13.9917   7
   3   3  -5 286.945 11.8476   5
   3   3  -5 277.910 6.72515   8
   3   3  -5 290.841 11.6746   7
   3   3  -5 279.236 6.74405   8
   2   3  -5 1579.55 40.9833   7
   2   3  -5 1567.07 41.0049   5
   1  -3  -5 553.389 21.0831   2
   1  -3  -5 519.937 16.3202   4
   1   3  -5 527.641 13.7177   4
   1   3  -5 536.348 16.3814   5
   1   3  -5 529.696 13.6919   4
   0  -3  -5 1162.87 31.5772   4
   0  -3  -5 1245.58 37.2298   2
   0   3   5 1166.24 29.8687   3
   0   3  -5 1176.53 30.4063   4
  -1  -3  -5 1174.05 37.1944   2
   1   3   5 1201.05 30.3260   3
  -1   3  -5 1156.30 31.5696   4
   2  -3   5 1757.11 44.2910   3
   2  -3   5 1745.03 42.8304   1
  -2  -3  -5 1745.69 52.2302   2
   2   3   5 1751.49 42.6292   1
   2   3   5 1773.62 44.1325   3
   3  -3   5 680.545 20.6523   3
   3  -3   5 683.103 19.1604   1
   3   3   5 673.028 20.3376   3
   3   3   5 659.805 18.8146   1
   4  -3   5 411.567 11.0400  10
  -4  -3  -5 406.674 11.9366  12
   4   3   5 386.874 12.7022   1
   4   3   5 375.793 12.0050  11
   4   3   5 384.190 13.9781   3
  -4   3  -5 398.990 11.7933  12
   4   3   5 375.076 10.4156  10
   5  -3   5 248.515 7.11249  10
  -5  -3  -5 231.507 7.80064  12
   5   3   5 228.904 7.98021  11
  -5   3  -5 241.621 7.97019  12
  -6  -3  -5 72.6378 3.04600  12
  -6   3  -5 77.2654 3.18982  12
   6   3   5 76.7445 3.17466  11
   5  -4  -5 173.087 6.36658  11
   5   4  -5 166.859 8.37010   7
   4  -4  -5 3237.31 76.3101  11
  -4   4   5 3231.62 76.1580  12
   4   4  -5 3261.58 80.3178   7
   3  -4  -5 391.044 11.1765  10
   3  -4  -5 382.446 12.1769  11
  -3   4   5 407.685 12.1194  12
   3   4  -5 423.868 9.53057   8
   3   4  -5 409.398 11.3112  13
   3   4  -5 414.067 9.52181   8
   3   4  -5 404.491 15.0853   5
   3   4  -5 405.358 14.8941   7
   2   4  -5 1510.90 40.0591   5
   2   4  -5 1516.54 39.9435   7
   2   4  -5 1494.72 34.8232   8
   1  -4  -5 703.906 25.9736   2
   0  -4  -5 1207.84 38.4849   2
   0   4   5 1149.97 30.3569   3
  -1  -4  -5 2047.97 59.4552   2
   1   4   5 2054.20 50.6099   3
  -2  -4  -5 613.589 25.3422   2
  -2   4  -5 601.393 18.5842   9
   2   4   5 606.414 18.5037   3
   2   4   5 611.429 17.1794   1
   3  -4   5 36.3518 2.77043  12
  -3  -4  -5 41.2139 2.89726  12
   3   4   5 40.6365 3.04285  11
  -3   4  -5 36.5266 2.64921  12
   3   4   5 36.1174 2.21684  10
   3   4   5 44.9576 3.39170   1
   3   4   5 51.4878 4.22897   3
  -4  -4  -5 272.025 9.12578  12
   4  -4   5 283.013 8.49430  10
   4   4   5 269.270 7.78809  10
  -4   4  -5 288.268 9.11193  12
   4   4   5 295.474 9.56168  11
   4   4   5 280.135 9.96282   1
   4   4   5 285.650 11.2849   3
  -5  -4  -5 14.5340 1.87684  12
   5  -4   5 12.0497 1.37758  10
   5   4   5 12.0422 1.69079  11
  -5   4  -5 13.8287 1.80077  12
   5  -5  -5 52.3773 2.99363  11
  -5   5   5 56.2512 3.00746  12
   4  -5  -5 109.757 5.15516  11
   4   5  -5 113.387 6.86361   7
  -4   5   5 117.336 5.19828  12
   3  -5  -5 471.022 14.3171  11
   3  -5  -5 480.703 12.8496  10
  -3   5   5 479.839 14.1377  12
   3   5  -5 441.769 16.6402   5
   3   5  -5 491.044 13.6125  13
   3   5  -5 493.471 11.3272   8
   3   5  -5 499.214 11.3376   8
   3   5  -5 499.994 17.1370   7
   2   5  -5 4317.23 98.2674   8
   2   5  -5 4496.19 104.371   7
   2   5  -5 4212.53 104.081   5
   1  -5  -5 26.6643 5.46273   2
   1   5  -5 31.7920 4.05390   7
   1   5  -5 36.2661 4.29295   5
   0  -5  -5 178.780 12.3068   2
   0   5   5 170.445 7.58743   3
  -1  -5  -5 4193.45 109.302   2
   1   5   5 4113.88 98.3759   3
  -2  -5  -5 128.795 10.9617   2
   2  -5   5 89.2429 4.62757  12
  -2  -5  -5 93.4304 4.59180  12
   2   5   5 99.0629 3.93022  10
   2   5   5 100.073 5.89306   3
  -2   5  -5 95.3647 4.80730   9
   2   5   5 105.922 5.18105   1
  -3  -5  -5 307.487 9.99108  12
   3  -5   5 312.570 9.21691  10
   3  -5   5 295.866 9.75176  12
   3   5   5 310.508 11.9859   3
   3   5   5 323.436 10.6924  14
   3   5   5 311.988 8.78508  10
   3   5   5 314.803 10.7723   1
   3   5   5 310.415 10.3441  11
  -4  -5  -5 627.039 17.5143  12
   4  -5   5 626.729 16.6727  10
   4   5   5 714.019 21.7401   1
  -4   5  -5 624.053 17.1246  12
   4   5   5 636.444 18.1223  14
   4   5   5 714.596 23.1992   3
   4   5   5 641.808 17.8441  11
  -5  -5  -5 191.580 6.42529  12
   5  -5   5 212.326 5.92596  10
  -5   5  -5 188.831 6.23558  12
   5   5   5 213.379 6.70974  11
   5   5   5 192.130 7.01901  14
   5  -6  -5 231.425 7.33384  11
  -5   6   5 244.673 7.23274  12
   4  -6  -5 1206.62 32.5238  11
   4  -6  -5 1184.89 28.4714  10
  -4   6   5 1223.51 30.1608  12
   3  -6  -5 455.126 12.4615  10
  -3   6   5 457.252 14.0259   9
   3   6  -5 452.823 13.4548  13
  -3   6   5 473.663 13.8059  12
   3   6  -5 455.411 10.8125   8
   3   6  -5 474.530 10.8516   8
   2  -6  -5 1471.15 34.8212  10
   2   6  -5 1432.66 33.5703   8
   2   6  -5 1396.12 34.6329  11
  -2   6   5 1478.34 35.8972  12
   1  -6  -5 187.089 6.38550  10
   1   6  -5 185.065 9.22720   5
   1   6  -5 201.934 6.75365  11
  -1   6   5 190.138 6.42238  10
  -1   6   5 185.292 6.89171  12
   0  -6  -5 46.9198 2.74668  10
   0  -6   5 41.9537 2.86076  12
   0  -6  -5 43.8148 7.66000   2
   0  -6  -5 39.3659 2.97668  12
   0   6   5 42.4386 2.55856  10
   0   6  -5 41.8081 2.91909  11
   0   6  -5 47.6587 3.37024   9
   0   6   5 50.2031 4.09320   3
  -1  -6  -5 361.024 11.2361  12
   1  -6   5 359.942 11.0123  12
  -1  -6  -5 377.400 20.0658   2
   1  -6   5 353.678 11.1498  12
   1   6   5 346.246 11.3266  14
   1   6   5 351.100 10.1937  10
  -1   6  -5 360.571 11.5846   9
   1   6   5 387.132 13.2882   3
  -1   6  -5 359.883 11.3837  11
   2  -6   5 99.4443 4.86911  12
  -2  -6  -5 103.307 10.2619   2
  -2  -6  -5 95.8232 4.79386  12
   2   6   5 103.826 4.04817  10
   2   6   5 101.264 5.27340   1
   2   6   5 104.487 5.23531  14
  -2   6  -5 101.955 5.11458   9
   2   6   5 101.178 6.15206   3
   3  -6   5 379.795 11.3175  12
  -3  -6  -5 381.544 11.6534  12
   3  -6   5 378.076 10.6682  10
   3   6   5 357.389 11.6210  11
   3   6   5 378.125 10.1325  10
   3   6   5 369.845 12.1759   1
   3   6   5 382.851 12.1827  14
   3   6   5 384.904 13.6040   3
   4  -6   5 107.886 4.06956  10
  -4  -6  -5 104.557 4.60462  12
   4   6   5 110.934 4.74696  11
   4   6   5 105.741 4.87822  14
  -5  -6  -5 217.485 6.52271  12
   5  -6   5 224.799 6.06921  10
   5   6   5 220.477 8.47666  14
   5   6   5 222.032 6.65233  11
   4  -7  -5 819.794 20.2867  10
  -4   7   5 886.613 21.6777  12
   3  -7  -5 12.8651 1.54901  10
  -3   7   5 14.8020 2.03511  12
  -3   7   5 13.6517 2.09172   9
   3   7  -5 14.8787 1.86032  13
   3   7  -5 17.4731 1.43907  11
   2  -7  -5 1666.71 40.1324  10
   2   7  -5 1690.36 40.2360  11
  -2   7   5 1677.04 41.0408  12
  -2   7   5 1691.62 41.8913   9
   1  -7  -5 41.1462 2.57239  10
  -1   7   5 40.8257 3.28099   9
  -1   7   5 40.3269 2.60440  10
   1   7  -5 44.5904 2.89733  11
  -1   7   5 38.9975 2.86052  12
   0  -7   5 951.039 24.7829  12
   0  -7  -5 973.120 25.1771  12
   0  -7  -5 985.872 36.6850   2
   0   7  -5 978.123 25.1973  11
   0   7   5 970.529 25.5772   9
   0   7   5 977.830 24.2147  10
   0   7   5 960.328 27.4649   3
  -1  -7  -5 271.643 17.1625   2
  -1  -7  -5 272.595 9.09764  12
   1  -7   5 257.766 8.95496  12
   1   7   5 274.179 10.8990   3
  -1   7  -5 262.151 9.15000  11
  -1   7  -5 276.482 9.54802   9
   1   7   5 265.278 8.01403  10
   1   7   5 255.880 9.02719  14
  -2  -7  -5 407.241 12.3172  12
  -2  -7  -5 373.625 20.9237   2
   2  -7   5 420.739 12.3285  12
   2   7   5 411.561 12.6215  14
  -2   7  -5 410.371 12.7559   9
   2   7   5 415.009 11.0116  10
   2   7   5 398.678 12.8296   1
   2   7   5 400.835 14.1592   3
  -3  -7  -5 2572.10 60.1954  12
   3  -7   5 2521.97 59.6916  12
   3   7   5 2531.49 60.3388  11
   3   7   5 2564.48 60.6695  14
   3   7   5 2529.11 58.7443  10
  -4  -7  -5 515.781 13.9509  12
   4  -7   5 527.472 13.3381  10
   4   7   5 524.783 14.1205  11
   4   7   5 536.987 14.3794  14
   3  -8  -5 70.0631 2.82296  10
  -3   8   5 64.8355 3.49969   9
  -3   8   5 70.2741 3.24705  12
   3   8  -5 65.1366 2.61718  11
   3   8  -5 67.7776 3.42337  13
   2  -8  -5 75.5196 3.38155  10
   2   8  -5 79.9521 2.74626   8
   2   8  -5 77.7720 3.52373  11
  -2   8   5 76.5313 3.66278  12
  -2   8   5 80.3343 4.27941   9
   1  -8  -5 1165.27 28.5751  10
  -1   8   5 1167.86 28.5196  10
   1   8  -5 1170.83 29.1551  11
  -1   8   5 1177.53 29.9633   9
   0  -8  -5 72.4919 3.83568  12
   0  -8   5 74.5970 3.77025  12
   0  -8   5 73.7320 3.86989  12
   0   8   5 77.6980 3.41952  10
   0   8  -5 75.4234 3.97654  11
   0   8   5 67.2739 3.89498   9
   1  -8   5 44.4079 3.00512  12
  -1  -8  -5 40.0174 2.95091  12
   1   8   5 43.5146 2.41632  10
   2  -8   5 143.574 5.41381  12
  -2  -8  -5 137.000 5.45897  12
   2   8   5 127.486 5.54033  14
   2   8   5 128.732 4.35650  10
  -3  -8  -5 901.455 22.6759  12
   3   8   5 868.447 22.6848  11
   3   8   5 946.651 23.1487  14
   2  -9  -5 679.727 16.8213  10
   2   9  -5 685.288 15.9975   8
   2   9  -5 708.112 17.0257  11
  -2   9   5 660.315 17.7625   9
   1  -9  -5 169.438 5.40540  10
   1   9  -5 172.812 5.88799  11
  -1   9   5 169.714 6.22395   9
   0  -9  -5 270.666 8.09687  12
   0  -9   5 267.556 8.23562  12
   0   9  -5 261.605 8.27495  11
  -1  -9  -5 507.253 13.6153  12
   1  -9   5 497.107 13.6240  12
   2  -9   5 439.349 11.8089  12
  -2  -9  -5 459.136 12.0449  12
   2   9   5 432.862 12.0303  14
   5   0  -6 1067.63 27.0555  13
   4   0  -6 240.498 6.40860   8
   4   0  -6 249.598 10.8428   7
   4   0  -6 241.799 7.41085  11
   4   0  -6 248.840 7.40198  11
   3   0  -6 750.681 22.5926   7
   2   0  -6 7628.15 170.724   5
   2   0  -6 7090.81 169.965   7
   1   0  -6 415.490 13.2971   7
   1   0  -6 424.645 12.8394   4
   1   0  -6 435.356 13.3758   5
   0   0  -6 293.589 10.5838   4
   0   0  -6 312.478 15.0289   2
  -1   0  -6 4028.83 101.244   2
  -1   0  -6 3890.40 94.4461   4
   2   0   6 2.08629 1.26028   3
   2   0   6 2.65990 1.04556   1
  -2   0  -6 2.70507 2.18388   2
   3   0   6 159.885 6.80503   1
   3   0   6 163.141 7.85627   3
   4   0   6 2.49042 1.27868   3
   4   0   6 1.09722 0.71803  10
   4   0   6 0.52002 1.04027   1
  -4   0  -6 0.75743 0.85106  12
  -5   0  -6 282.600 8.89742  12
   5   0   6 271.326 7.74205  10
  -6   0  -6 228.220 6.81864  12
   6  -1  -6 418.919 11.2087  13
   5  -1  -6 1360.86 31.1355   8
   5  -1  -6 1351.71 31.1261   8
   5  -1  -6 1348.10 32.3735  11
   5  -1  -6 1323.19 34.1627  13
   5   1  -6 1410.69 32.4149  13
   5   1  -6 1307.70 32.2045  13
   5   1  -6 1356.77 37.1063   7
   4  -1  -6 68.4402 3.38546  11
   4   1  -6 73.7258 2.15610   8
   4   1  -6 62.9642 5.36505   7
   4   1  -6 70.8075 2.17228   8
   3   1  -6 408.522 10.0787   8
   3   1  -6 407.213 14.9030   5
   3   1  -6 418.430 14.7821   7
   2   1  -6 315.530 11.7213   5
   2   1  -6 291.508 11.2204   7
   1  -1  -6 580.863 17.2235   4
   1  -1  -6 590.296 22.4207   2
   1   1  -6 585.911 16.2090   4
   1   1  -6 633.136 18.0360   5
   0  -1  -6 926.591 25.8216   4
   0  -1  -6 968.455 31.8676   2
   0   1  -6 928.771 25.2573   4
  -1  -1  -6 2420.06 64.7427   2
  -1  -1  -6 2210.15 57.4104   4
  -1   1  -6 2301.48 57.2525   4
   1   1   6 2327.99 55.4538   3
   1   1   6 2293.32 54.2931   1
   2  -1   6 480.349 13.5225   1
   2  -1   6 473.337 14.6516   3
  -2  -1  -6 441.448 20.2825   2
   2   1   6 463.142 13.5005   1
   2   1   6 463.473 14.6587   3
   3  -1   6 202.197 8.84139   3
   3  -1   6 201.746 7.78263   1
   3   1   6 192.979 8.76268   3
   3   1   6 194.018 7.73894   1
   4  -1   6 1500.11 39.6665   3
   4  -1   6 1477.67 37.7539   1
  -4  -1  -6 1494.77 36.7288  12
   4  -1   6 1485.13 35.5355  10
   4   1   6 1493.56 39.6840   3
   4   1   6 1488.18 35.4397  10
   4   1   6 1487.84 37.8778   1
  -4   1  -6 1480.74 36.6592  12
  -5  -1  -6 282.191 8.99436  12
   5  -1   6 288.410 8.01356  10
  -5   1  -6 294.437 9.10332  12
   5   1   6 271.693 7.73174  10
  -6  -1  -6 591.325 15.0304  12
   6   1   6 581.169 15.6343  11
  -6   1  -6 608.017 15.0864  12
   6  -2  -6 91.9760 3.91213  13
   6  -2  -6 93.7992 3.07879  11
   5  -2  -6 996.901 23.8255   8
   5  -2  -6 1027.39 25.1585  11
   5   2  -6 1008.10 29.2385   7
   4  -2  -6 2318.56 54.8602  11
   4   2  -6 2350.89 59.6665   7
   4   2  -6 2278.11 54.2576  13
   3   2  -6 728.541 22.3891   7
   3   2  -6 702.659 16.6151   8
   3   2  -6 721.845 22.6268   5
   3   2  -6 696.029 16.6368   8
   2   2  -6 1571.13 41.2776   5
   2   2  -6 1563.32 41.1730   7
   1  -2  -6 1123.35 36.4424   2
   1   2  -6 1207.09 31.1597   5
   1   2  -6 1092.54 28.0009   4
   0  -2  -6 235.785 13.0956   2
   0  -2  -6 218.940 9.15086   4
   0   2  -6 212.774 8.40403   4
  -1  -2  -6 1316.68 40.8635   2
   1   2   6 1242.04 31.1945   1
   1   2   6 1251.27 32.3517   3
  -2  -2  -6 113.389 9.70027   2
   2  -2   6 112.839 5.18244   1
   2   2   6 124.824 5.36764   1
   2   2   6 126.273 6.16361   3
   3  -2   6 986.748 25.7499   1
   3  -2   6 993.194 27.4006   3
  -3  -2  -6 939.801 24.6829  12
   3  -2   6 937.157 23.9712  10
  -3   2  -6 961.797 26.1454  12
   3   2   6 978.758 25.7520   1
   3   2   6 934.485 23.6233  10
   3   2   6 976.872 27.3788   3
  -4  -2  -6 1132.07 28.9354  12
   4  -2   6 1132.77 27.8570  10
   4  -2   6 1139.50 30.1660   1
   4  -2   6 1142.09 31.9079   3
   4   2   6 1144.21 31.8744   3
   4   2   6 1145.34 30.0951   1
  -4   2  -6 1144.60 28.7869  12
   4   2   6 1163.20 27.6442  10
   5  -2   6 148.935 4.84102  10
  -5  -2  -6 149.426 5.61518  12
  -5   2  -6 148.871 5.63302  12
   5   2   6 143.393 5.65816  10
   5   2   6 143.495 5.69804  11
   5  -3  -6 98.8975 4.21172  11
   5   3  -6 87.0084 5.96403   7
   4  -3  -6 73.3291 3.95802  11
   4   3  -6 80.4414 5.94512   7
   3  -3  -6 249.494 8.59120  11
   3  -3  -6 248.162 8.57033  11
   3   3  -6 258.863 6.33021   8
   3   3  -6 259.947 6.31765   8
   3   3  -6 251.782 8.18685  13
   3   3  -6 264.173 11.6168   5
   2   3  -6 672.390 20.6856   7
   2   3  -6 639.333 15.5096   8
   2   3  -6 630.384 20.3525   5
   1  -3  -6 3647.99 97.1786   2
   1   3  -6 3857.85 90.5617   5
   0  -3  -6 284.847 15.4719   2
  -1  -3  -6 254.992 14.8169   2
   1   3   6 249.309 8.32312   1
   1   3   6 241.289 9.17451   3
   2  -3   6 436.347 13.4105   1
   2  -3   6 428.985 14.5784   3
  -2  -3  -6 458.734 21.3844   2
   2   3   6 435.795 14.6184   3
   2   3   6 452.132 13.4405   1
  -3  -3  -6 1838.07 44.4108  12
   3  -3   6 1918.47 47.5591   3
   3  -3   6 1772.69 44.0219  12
   3  -3   6 1782.72 43.3885  10
  -3   3  -6 1764.20 43.9038  12
   3   3   6 1892.05 45.5341   1
   3   3   6 1843.55 43.1838  10
   3   3   6 1873.27 47.3391   3
  -4  -3  -6 963.418 24.5719  12
   4  -3   6 937.869 23.4700  10
   4   3   6 932.772 23.0643  10
   4   3   6 945.575 25.5627   1
   4   3   6 969.910 27.2855   3
   4   3   6 923.606 25.0016  11
  -4   3  -6 968.163 24.3390  12
  -5  -3  -6 52.9948 2.96554  12
   5  -3   6 54.5194 2.47117  10
  -5   3  -6 54.2513 2.95806  12
   5   3   6 51.4856 3.03278  11
   5  -4  -6 562.392 15.1812  11
   4  -4  -6 389.760 11.9518  11
   4   4  -6 378.477 14.6581   7
  -4   4   6 396.634 11.8024  12
   3  -4  -6 1283.70 30.4988  10
   3  -4  -6 1285.07 32.3136  11
   3   4  -6 1306.67 35.9604   7
   3   4  -6 1271.94 31.5399  13
  -3   4   6 1226.77 31.9281  12
   3   4  -6 1331.88 29.1692   8
   3   4  -6 1239.46 36.0171   5
   3   4  -6 1283.40 29.1475   8
   2   4  -6 890.024 26.7624   5
   2   4  -6 927.444 26.9472   7
   2   4  -6 879.000 21.1647   8
   1  -4  -6 150.181 11.3072   2
   1   4  -6 164.734 8.38312   5
   1   4  -6 189.411 8.72472   7
   0  -4  -6 83.9851 8.57898   2
  -1  -4  -6 442.960 21.5285   2
   1   4   6 431.014 13.0971   1
   1   4   6 448.814 14.4067   3
   2  -4   6 741.320 20.3344  12
  -2  -4  -6 790.311 31.2360   2
   2   4   6 777.092 22.6357   3
   2   4   6 746.079 19.3494  10
   2   4   6 798.805 21.2196   1
   3  -4   6 248.655 7.79688  10
   3  -4   6 235.575 8.17896  12
  -3  -4  -6 244.205 8.48137  12
   3   4   6 252.426 9.19019   1
   3   4   6 245.051 7.48752  10
   3   4   6 273.385 10.6239   3
  -4  -4  -6 338.390 10.3014  12
   4  -4   6 326.692 9.38795  10
   4   4   6 327.935 8.89184  10
   4   4   6 319.947 10.3352  11
   4   4   6 310.539 12.1741   3
   4   4   6 333.921 11.8806   1
  -4   4  -6 319.054 9.73861  12
  -5  -4  -6 612.934 15.6833  12
   5  -4   6 612.206 14.8473  10
   5   4   6 586.582 15.6967  14
   5   4   6 587.398 15.7930  11
  -5   4  -6 581.837 15.3036  12
   5  -5  -6 128.912 4.75390  11
  -5   5   6 125.784 4.56612  12
   4  -5  -6 234.947 8.24314  11
  -4   5   6 252.890 8.32425  12
   4   5  -6 240.086 10.3508   7
   3  -5  -6 1469.69 36.9078  11
   3  -5  -6 1510.09 35.1658  10
   3   5  -6 1451.80 36.1801  13
   3   5  -6 1452.04 40.1818   7
  -3   5   6 1509.95 36.7479  12
   2  -5  -6 538.594 14.2838  10
   2   5  -6 520.552 14.3024  11
   2   5  -6 533.179 18.4860   5
  -2   5   6 545.745 15.3490  12
   2   5  -6 559.305 18.6627   7
   2   5  -6 547.766 13.2852   8
   1  -5  -6 133.962 4.94396  10
   1   5  -6 142.362 7.73408   7
  -1   5   6 131.269 5.56256  12
   1   5  -6 132.082 7.79177   5
   1   5  -6 125.816 5.17313  11
   0  -5  -6 784.546 31.0758   2
   0   5  -6 794.973 24.4754  11
  -1  -5  -6 1038.50 26.9805  12
  -1  -5  -6 1110.11 39.1291   2
   1  -5   6 1047.50 27.0252  12
   1   5   6 1046.77 26.0344  10
  -1   5  -6 1024.81 27.1904  11
   1   5   6 1104.65 29.3635   3
  -2  -5  -6 1726.65 56.4320   2
   2  -5   6 1763.93 43.3638  12
  -2  -5  -6 1777.45 43.4849  12
   2   5   6 1802.95 42.2578  10
   2   5   6 1824.86 44.3119   1
   2   5   6 1803.98 46.1129   3
  -3  -5  -6 2060.61 48.5055  12
   3  -5   6 1973.00 47.9854  12
   3  -5   6 2001.71 47.3211  10
   3   5   6 1993.81 46.9081  10
   3   5   6 1953.54 50.8958   3
   3   5   6 2032.45 49.2596   1
   3   5   6 2011.76 49.0480  14
   4  -5   6 361.565 9.96471  10
  -4  -5  -6 368.820 10.7992  12
   4   5   6 364.193 11.2312  14
   4   5   6 337.305 10.7174  11
   5  -5   6 78.2796 2.78441  10
  -5  -5  -6 80.1640 3.31615  12
   5   5   6 77.7436 3.26760  14
   5   5   6 77.2981 3.29845  11
   4  -6  -6 60.9510 3.36069  11
  -4   6   6 63.5943 3.32176  12
   3  -6  -6 16.5366 1.76305  10
  -3   6   6 21.6206 2.66231   9
  -3   6   6 21.7895 2.54978  12
   3   6  -6 25.0744 2.12926  13
   2  -6  -6 252.424 7.74631  10
   2   6  -6 239.263 7.73428  11
   2   6  -6 249.764 6.70402   8
   2   6  -6 235.373 10.7576   7
  -2   6   6 256.143 8.59861  12
   1  -6  -6 386.216 10.7164  10
   1   6  -6 358.238 14.4941   5
  -1   6   6 369.560 11.3185  12
   1   6  -6 369.307 11.1367  11
   1   6  -6 367.362 14.0029   7
   0  -6  -6 636.677 17.0139  10
   0  -6  -6 672.384 28.3515   2
   0  -6  -6 645.675 17.6735  12
   0  -6   6 633.218 17.6817  12
   0   6  -6 683.690 18.0467  11
   0   6   6 641.318 19.6260   3
   0   6   6 654.176 17.0611  10
   1  -6   6 986.479 25.2543  12
  -1  -6  -6 960.751 36.6894   2
  -1  -6  -6 1004.21 25.1998  12
   1   6   6 947.781 24.0380  10
   1   6   6 962.604 27.3117   3
  -1   6  -6 941.978 25.2554  11
  -2  -6  -6 298.645 9.71672  12
   2  -6   6 308.669 9.76140  12
   2   6   6 294.562 10.2276   1
   2   6   6 280.028 11.3027   3
   2   6   6 289.658 8.62449  10
   2   6   6 288.504 10.0066  14
   3  -6   6 1001.02 25.7546  12
  -3  -6  -6 1050.04 26.3604  12
   3   6   6 1038.33 26.8290  14
   3   6   6 1021.44 24.7448  10
   4  -6   6 282.925 7.88819  10
  -4  -6  -6 294.351 8.66950  12
   4   6   6 257.904 8.48086  11
   4   6   6 288.346 8.88757  14
  -4   7   6 135.383 4.77571  12
   3  -7  -6 506.603 13.1496  10
  -3   7   6 513.102 14.5987   9
  -3   7   6 517.134 14.1613  12
   3   7  -6 519.239 14.1633  13
   2  -7  -6 1053.59 25.7614  10
  -2   7   6 1060.03 26.6350  12
  -2   7   6 1044.86 27.3405   9
   2   7  -6 1058.43 25.8525  11
   2   7  -6 1023.43 24.5893   8
   1  -7  -6 58.2624 3.06586  10
  -1   7   6 57.3518 3.10896  10
   1   7  -6 61.5672 3.43377  11
  -1   7   6 60.6958 3.43223  12
  -1   7   6 61.9189 3.90461   9
   0  -7  -6 1399.51 33.4781  10
   0  -7  -6 1377.92 34.0367  12
   0  -7  -6 1372.93 46.6945   2
   0  -7   6 1382.20 34.1790  12
   0   7  -6 1417.57 34.3859  11
   0   7   6 1393.45 33.3970  10
   0   7   6 1408.61 34.7852   9
   0   7   6 1285.49 36.0917   3
  -1  -7  -6 281.744 9.01912  12
   1  -7   6 283.580 9.12193  12
   1   7   6 275.723 8.13123  10
  -1   7  -6 262.947 9.10567  11
   1   7   6 249.966 10.4029   3
   1   7   6 262.374 9.40510   1
   2  -7   6 388.738 11.5132  12
  -2  -7  -6 396.022 11.6698  12
   2   7   6 381.712 11.7802  14
   2   7   6 376.765 10.4144  10
  -3  -7  -6 281.872 8.45113  12
   3  -7   6 250.425 7.81609  12
   3   7   6 258.749 8.51968  14
   3   7   6 250.593 6.97155  10
   3  -8  -6 140.935 4.23068  10
   3   8  -6 140.289 4.61066  13
  -3   8   6 134.507 4.66076  12
   2  -8  -6 132.238 4.53546  10
  -2   8   6 125.150 4.73016  12
   2   8  -6 126.229 3.65765   8
   2   8  -6 142.360 4.74391  11
  -2   8   6 130.345 5.40222   9
   1  -8  -6 68.2913 3.12402  10
   1   8  -6 63.2230 3.31512  11
  -1   8   6 67.2027 3.76262   9
  -1   8   6 72.1250 3.15298  10
   0  -8   6 1420.34 34.4402  12
   0  -8  -6 1384.92 33.6709  10
   0   8   6 1373.87 34.6177   9
   0   8   6 1455.23 33.7099  10
   0   8  -6 1416.09 34.6427  11
   1  -8   6 127.958 5.12200  12
  -1  -8  -6 128.846 5.11103  12
   1   8   6 128.247 4.50715  10
   2  -8   6 291.025 8.83406  12
  -2  -8  -6 300.187 8.97497  12
   2   8   6 292.679 9.01372  14
   2   8   6 283.557 7.83529  10
  -3  -8  -6 74.7799 3.21160  12
   3   8   6 69.9693 3.22751  14
   1  -9  -6 87.4432 3.19761  10
  -1   9   6 84.1670 4.02695   9
   1   9  -6 92.3640 3.54291  11
   0  -9   6 309.089 8.76546  12
   0   9  -6 302.593 8.86403  11
   1  -9   6 1098.88 26.4650  12
  -1  -9  -6 1088.10 26.2810  12
   5   0  -7 2994.82 69.8768  13
   4   0  -7 3304.90 82.8111   7
   4   0  -7 3458.16 77.0387   8
   4   0  -7 3399.22 78.3927  11
   4   0  -7 3419.93 78.3248  11
   3   0  -7 277.620 8.53110  11
   3   0  -7 270.829 11.2925   7
   2   0  -7 48.0906 4.14158   7
   2   0  -7 47.1832 4.17643   5
  -1   0  -7 1461.19 46.7741   2
   2   0   7 100.142 4.90051   1
   2   0   7 95.2442 5.59920   3
   3   0   7 1316.43 35.3190   3
   3   0   7 1301.74 31.6680  10
   3   0   7 1320.62 33.6185   1
  -3   0  -7 1313.37 32.5701  12
   4   0   7 335.214 9.48973  10
   4   0   7 340.841 11.2866   1
   4   0   7 316.249 12.3616   3
  -4   0  -7 337.677 10.4054  12
   5   0   7 1177.01 27.6536  10
  -5   0  -7 1160.62 28.6937  12
   5  -1  -7 22.3809 0.99350   8
   5  -1  -7 22.5294 1.02004   8
   5  -1  -7 26.7548 2.34918  13
   5  -1  -7 24.2618 1.66612  11
   5   1  -7 20.2996 1.45004  13
   5   1  -7 25.3071 1.57442  13
   4  -1  -7 909.679 23.0602  11
   4   1  -7 888.433 27.0297   7
   4   1  -7 924.258 21.0346   8
   4   1  -7 922.191 21.0288   8
   3  -1  -7 1218.72 30.4018  11
   3   1  -7 1204.45 29.7682  11
   3   1  -7 1219.26 28.5709   8
   3   1  -7 1272.98 34.5267   7
   2   1  -7 328.624 12.9668   5
   2   1  -7 345.530 12.9596   7
   1  -1  -7 211.889 13.2266   2
   1   1  -7 206.825 9.00250   7
   1   1  -7 207.529 8.95134   5
   0  -1  -7 1214.25 40.0016   2
  -1  -1  -7 137.970 10.7847   2
   2  -1   7 43.6937 3.22597   1
   2  -1   7 46.1612 3.79044   3
   2   1   7 43.3294 4.49693   3
   2   1   7 43.3383 3.15011   1
   3  -1   7 1012.82 28.4739   3
   3  -1   7 990.433 24.9752  10
   3  -1   7 1012.56 26.8309   1
  -3  -1  -7 1027.83 25.9745  12
   3   1   7 1014.68 25.0146  10
   3   1   7 1034.13 27.0438   1
  -3   1  -7 986.883 25.6520  12
   3   1   7 1042.27 28.7864   3
  -4  -1  -7 219.458 7.57853  12
   4  -1   7 211.175 6.68105  10
   4  -1   7 206.589 9.31753   3
   4  -1   7 212.312 8.22865   1
   4   1   7 201.961 8.10758   1
   4   1   7 216.272 6.66178  10
   4   1   7 201.117 9.26355   3
  -4   1  -7 215.969 7.43083  12
  -5  -1  -7 123.457 4.73629  12
   5  -1   7 120.709 4.04030  10
  -5   1  -7 123.741 4.73490  12
   5   1   7 118.462 3.86076  10
   5  -2  -7 230.916 6.07635   8
   5  -2  -7 234.528 7.13850  11
   4  -2  -7 1544.55 36.8961  11
   4   2  -7 1471.32 41.0006   7
   3  -2  -7 1184.07 29.7508  11
   3   2  -7 1210.26 33.6523   7
   3   2  -7 1198.99 27.2958   8
   3   2  -7 1131.75 28.3657  11
   3   2  -7 1156.63 33.6412   5
   3   2  -7 1186.68 27.5384   8
   2   2  -7 1933.87 49.6257   7
   2   2  -7 1867.16 49.4935   5
   1  -2  -7 1928.51 55.9950   2
   1   2  -7 1845.31 48.1896   7
   1   2  -7 1842.77 48.1675   5
   0  -2  -7 192.086 13.1127   2
  -1  -2  -7 4518.09 117.722   2
   2  -2   7 475.308 15.8461   3
  -2  -2  -7 499.764 23.4523   2
   2  -2   7 501.092 14.7162   1
   2   2   7 515.741 16.2690   3
   2   2   7 514.169 14.9066   1
   3  -2   7 359.647 13.2615   3
  -3  -2  -7 373.564 11.3074  12
   3  -2   7 374.765 12.1534   1
   3  -2   7 380.250 10.5759  10
   3   2   7 369.161 10.4489  10
   3   2   7 366.190 13.4881   3
  -3   2  -7 356.315 10.9309  12
   3   2   7 384.491 12.3419   1
   4  -2   7 998.862 23.8511  10
  -4  -2  -7 991.405 24.8047  12
   4  -2   7 975.481 25.9187   1
   4  -2   7 928.205 27.2860   3
  -4   2  -7 965.994 24.5135  12
   4   2   7 949.602 25.7639   1
   4   2   7 943.429 27.3232   3
   4   2   7 958.607 23.5228  10
  -5  -2  -7 109.174 4.30755  12
   5  -2   7 107.558 3.67357  10
   5   2   7 100.090 3.30924  10
  -5   2  -7 112.276 4.25176  12
   5  -3  -7 27.5466 1.97881  11
   4  -3  -7 3.61046 1.15458  11
   4   3  -7 6.52473 1.03510  13
   4   3  -7 6.09239 2.11944   7
   3  -3  -7 374.972 11.4577  11
   3  -3  -7 377.728 11.4851  11
   3   3  -7 360.388 14.4746   5
   3   3  -7 371.636 8.89904   8
  -3   3   7 329.574 10.9501  12
   3   3  -7 354.180 14.1728   7
   3   3  -7 368.601 8.85130   8
   2  -3  -7 208.731 7.74955  11
   2  -3  -7 217.020 6.52352  10
  -2   3   7 208.313 7.47924  12
   2   3  -7 202.156 6.79486  11
   2   3  -7 239.852 10.5984   7
   2   3  -7 218.522 10.2585   5
   1  -3  -7 1388.38 46.0386   2
   1   3  -7 1463.66 39.0562   7
   1   3  -7 1453.51 39.1789   5
   0  -3  -7 2553.27 72.8579   2
  -1  -3  -7 881.196 33.5135   2
  -2  -3  -7 432.307 12.9605  12
   2  -3   7 451.874 13.1147  12
  -2  -3  -7 458.780 22.5802   2
   2   3   7 444.328 12.1793  10
   2   3   7 440.671 14.9249   3
   2   3   7 449.626 13.6541   1
  -3  -3  -7 1108.52 28.0980  12
   3  -3   7 1057.69 27.7110  12
   3  -3   7 1080.79 27.1200  10
   3   3   7 1155.57 27.1153  10
   3   3   7 1127.32 30.9605   3
   3   3   7 1116.47 29.2015   1
  -4  -3  -7 643.499 17.2897  12
   4  -3   7 649.727 16.4427  10
  -4   3  -7 625.134 16.8464  12
   4   3   7 646.664 16.1447  10
   5  -3   7 198.571 5.61881  10
  -5  -3  -7 200.991 6.33966  12
  -5   3  -7 186.453 5.93475  12
   5   3   7 190.656 6.31755  14
   5  -4  -7 562.025 14.6613  11
   4  -4  -7 225.039 7.74881  11
  -4   4   7 214.863 7.46000  12
   4   4  -7 222.680 10.0205   7
   3  -4  -7 33.6627 2.77020  11
  -3   4   7 39.9208 2.89137  12
   3   4  -7 34.9770 2.59421  13
   3   4  -7 36.0692 1.27744   8
   3   4  -7 37.2920 4.93675   7
   3   4  -7 36.9817 1.27547   8
   2  -4  -7 953.931 23.1161  10
   2  -4  -7 880.108 24.5117  11
   2  -4  -7 936.762 24.7242  11
   2   4  -7 918.654 22.2784   8
   2   4  -7 911.764 28.1320   5
   2   4  -7 957.887 28.3765   7
  -2   4   7 951.075 24.4509  12
   2   4  -7 993.447 23.5262  11
   1  -4  -7 495.160 13.5375  10
   1   4  -7 506.458 14.1531  11
   1   4  -7 503.606 18.0074   5
   1   4  -7 532.929 18.1220   7
   0  -4  -7 943.851 23.8010  10
   0  -4   7 974.955 26.2599  12
   0  -4  -7 976.771 36.2636   2
   0   4   7 958.464 24.6537  12
   0   4  -7 949.002 24.7264  11
   1  -4   7 116.598 5.19495  12
  -1  -4  -7 110.677 10.7606   2
  -1  -4  -7 107.246 4.93819  12
   1   4   7 117.771 5.38877   1
   1   4   7 112.252 4.83676  12
   1   4   7 118.198 6.18017   3
  -1   4  -7 112.492 5.14234  11
   2  -4   7 1755.91 43.4631  12
  -2  -4  -7 1797.61 43.5103  12
  -2  -4  -7 1790.89 56.5442   2
   2   4   7 1784.73 42.3855  10
   2   4   7 1819.00 44.3010   1
   2   4   7 1781.35 45.9800   3
   3  -4   7 79.3699 4.00312  12
   3  -4   7 80.7261 3.65528  10
  -3  -4  -7 85.1096 4.32040  12
   3   4   7 89.6990 3.57240  10
   3   4   7 86.4963 4.79932   1
   3   4   7 88.7670 5.70456   3
  -4  -4  -7 353.413 10.3899  12
   4  -4   7 334.387 9.48917  10
   4   4   7 344.499 10.6782  14
   4   4   7 338.123 9.11344  10
   5  -4   7 547.376 13.2194  10
  -5  -4  -7 553.708 13.9270  12
   5   4   7 516.896 13.8675  14
   4  -5  -7 59.0988 3.26246  11
  -4   5   7 58.9095 3.23303  12
   3  -5  -7 550.484 15.5261  11
   3  -5  -7 531.230 13.7561  10
   3   5  -7 549.203 15.2060  13
   3   5  -7 513.930 18.1005   7
  -3   5   7 547.623 15.3121  12
   2  -5  -7 238.811 7.32387  10
   2   5  -7 229.687 10.8283   7
   2   5  -7 238.409 7.58013  11
  -2   5   7 239.891 8.31326  12
   2   5  -7 236.909 6.52470   8
   1  -5  -7 102.807 4.27536  10
   1   5  -7 100.044 6.80027   7
  -1   5   7 110.271 5.05115  12
   1   5  -7 104.344 4.62518  11
   1   5  -7 101.520 7.08680   5
   0  -5   7 968.919 25.1785  12
   0  -5  -7 987.806 24.5002  10
   0  -5  -7 1016.83 37.1875   2
   0   5   7 973.766 25.1227  12
   0   5  -7 978.653 25.3895  11
   0   5   7 969.106 24.4616  10
  -1  -5  -7 1334.11 45.3328   2
  -1  -5  -7 1266.29 31.3875  10
  -1  -5  -7 1287.65 32.1912  12
   1  -5   7 1325.56 32.4347  12
   1   5   7 1299.82 32.8271   1
   1   5   7 1276.62 34.3863   3
   1   5   7 1312.51 31.4311  10
  -1   5  -7 1231.54 32.4945  11
   2  -5   7 413.578 12.4087  12
  -2  -5  -7 403.674 21.4294   2
  -2  -5  -7 426.733 12.5380  12
   2   5   7 414.166 11.4740  10
   2   5   7 405.663 14.3317   3
   2   5   7 412.293 13.0291   1
   3  -5   7 419.103 12.4304  12
  -3  -5  -7 450.513 12.9729  12
   3   5   7 446.592 11.7606  10
   3   5   7 446.891 13.3929  14
   4  -5   7 219.879 6.59387  10
  -4  -5  -7 231.709 7.37451  12
   4   5   7 234.754 7.69580  14
   4   5   7 220.305 6.10331  10
   4  -6  -7 212.695 6.92970  11
  -4   6   7 221.118 6.85679  12
   3  -6  -7 474.171 12.4618  10
  -3   6   7 484.910 14.1053   9
   3   6  -7 488.396 13.6467  13
  -3   6   7 509.937 14.0140  12
   2  -6  -7 581.319 14.8711  10
  -2   6   7 567.606 15.8071  12
   2   6  -7 571.442 15.0709  11
   2   6  -7 542.417 18.6365   7
   2   6  -7 564.067 13.8442   8
   1  -6  -7 547.310 14.4690  10
   1   6  -7 550.216 15.0174  11
  -1   6   7 535.217 15.1234  12
   1   6  -7 516.383 18.0139   7
   0  -6  -7 434.692 12.2594  10
   0  -6   7 448.498 12.9917  12
   0  -6  -7 425.057 21.7376   2
   0   6  -7 448.285 13.1341  11
   0   6   7 454.968 12.3171  10
   0   6  -7 437.445 15.8499   7
  -1  -6  -7 204.745 14.5166   2
  -1  -6  -7 193.939 6.96938  12
  -1  -6  -7 197.535 7.13494  10
   1  -6   7 195.200 7.08630  12
  -1   6  -7 181.207 7.12481  11
   1   6   7 189.694 6.35254  10
   1   6   7 179.393 7.27520   1
   1   6   7 175.056 8.21191   3
   2  -6   7 566.194 15.6279  12
  -2  -6  -7 559.374 15.6224  12
   2   6   7 547.326 15.9163  14
   2   6   7 567.321 14.6496  10
   3  -6   7 225.927 7.25773  12
  -3  -6  -7 231.194 7.61257  12
   3   6   7 239.157 8.01682  14
   3   6   7 224.119 6.56005  10
   4  -6   7 32.0121 1.65762  10
  -4  -6  -7 32.7482 2.06887  12
   4   6   7 35.6946 2.20864  14
   3  -7  -7 800.837 19.2954  10
   3   7  -7 827.855 20.0007  13
  -3   7   7 772.078 20.6141   9
  -3   7   7 827.076 20.3677  12
   2  -7  -7 692.556 17.1791  10
   2   7  -7 669.615 16.1139   8
  -2   7   7 669.233 18.5343   9
   2   7  -7 696.480 17.3875  11
  -2   7   7 677.479 17.9230  12
   1  -7  -7 471.838 12.5733  10
  -1   7   7 482.560 13.5417  10
  -1   7   7 455.137 12.9958  12
   1   7  -7 456.978 13.0431  11
  -1   7   7 471.968 13.9061   9
   0  -7   7 765.227 20.2945  12
   0  -7  -7 776.903 19.7552  10
   0   7  -7 788.193 20.6076  11
   0   7   7 794.423 19.7635  10
   0   7   7 780.230 20.8315   9
   1  -7   7 227.650 7.59834  12
  -1  -7  -7 213.757 7.34675  12
  -1   7  -7 210.293 7.52526  11
   1   7   7 226.973 6.80737  10
  -2  -7  -7 117.636 4.80579  12
   2  -7   7 127.334 4.91904  12
   2   7   7 120.961 4.14048  10
   2   7   7 120.627 4.97100  14
   3  -7   7 249.662 7.80279  12
  -3  -7  -7 263.111 7.76183  12
   3   7   7 266.811 7.98556  14
   3   7   7 253.927 6.71000  10
   2  -8  -7 462.127 11.7675  10
  -2   8   7 446.059 12.7569   9
   2   8  -7 485.224 11.8677  11
   1  -8  -7 47.1377 2.29458  10
  -1   8   7 43.1012 2.73731   9
   1   8  -7 42.9295 2.46244  11
   0  -8  -7 234.354 7.02205  10
   0  -8   7 234.582 7.44001  12
   0   8  -7 247.224 7.69805  11
   0   8   7 237.877 9.29774   9
   0   8   7 250.060 7.07475  10
   1  -8   7 77.2208 3.50067  12
  -1  -8  -7 73.4703 3.25451  12
   1   8   7 77.6646 2.99613  10
   2  -8   7 171.656 5.43485  12
  -2  -8  -7 169.587 5.40361  12
   2   8   7 161.850 5.39783  14
   2   8   7 163.341 4.70352  10
   5   0  -8 4.17979 0.88777  13
   4   0  -8 476.393 12.8806  11
   4   0  -8 488.202 12.8963  11
   4   0  -8 476.836 11.6256   8
   4   0  -8 480.304 11.6720   8
   3   0  -8 606.622 16.3836  11
   2   0  -8 3317.75 77.5204  11
   1   0   8 2247.58 54.5861  12
   2   0   8 928.220 23.2183  10
   2   0   8 935.193 23.9948  12
   3   0   8 65.1836 3.18554  10
  -3   0  -8 63.0934 3.47942  12
   3   0   8 65.0214 4.83036   3
   3   0   8 61.3764 4.01302   1
   4   0   8 43.6790 2.39031  10
  -4   0  -8 48.9219 2.86466  12
   5   0   8 75.4704 2.62816  10
  -5   0  -8 75.3839 3.13164  12
   5  -1  -8 74.3302 2.77684  11
   5  -1  -8 77.0839 3.65023  13
   4  -1  -8 882.725 21.4900  11
   4  -1  -8 839.047 20.0641   8
   4   1  -8 850.622 20.6719  11
   4   1  -8 796.291 24.6617   7
   3  -1  -8 189.101 6.84085  11
   3   1  -8 182.860 9.23713   7
   3   1  -8 181.090 6.34729  11
   3   1  -8 181.745 5.23409   8
   2  -1  -8 697.432 19.1736  11
   2   1  -8 732.178 18.9473  11
   2   1  -8 730.318 22.5724   7
   2   1  -8 693.236 22.3726   5
   1   1  -8 886.094 26.2306   7
   1   1  -8 887.747 24.1743  11
   0  -1  -8 767.988 31.1952   2
  -1  -1  -8 1789.75 55.5060   2
   1  -1   8 1684.42 42.0224  12
   1   1   8 1720.59 41.9406  12
   2  -1   8 288.661 9.35189  12
   2   1   8 292.241 9.21625  12
   2   1   8 288.035 8.69191  10
   3  -1   8 2538.58 58.7360  10
  -3  -1  -8 2599.84 59.5917  12
   3  -1   8 2440.11 60.4390   1
   3  -1   8 2453.96 62.1716   3
   3   1   8 2604.07 58.7952  10
   3   1   8 2486.71 60.5770   1
   3   1   8 2481.32 62.2682   3
  -4  -1  -8 28.9806 2.31216  12
   4  -1   8 32.4336 2.00234  10
  -4   1  -8 27.2733 2.21803  12
   4   1   8 33.2597 2.00182  10
   5  -1   8 76.9229 2.69475  10
  -5  -1  -8 80.2411 3.18182  12
   5   1   8 74.8956 2.55343  10
  -5   1  -8 73.3904 3.03625  12
   5  -2  -8 69.5804 2.81484  11
   5  -2  -8 69.9715 1.95593   8
   4  -2  -8 101.499 4.38138  11
   4   2  -8 95.7872 6.18848   7
   3  -2  -8 45.3276 3.05574  11
   3   2  -8 41.8661 1.74554   8
   3   2  -8 42.4494 2.49662  11
   3   2  -8 40.6526 5.10104   7
   2  -2  -8 389.740 11.5602  11
  -2   2   8 345.146 10.9989  12
   2   2  -8 358.362 14.2371   7
   2   2  -8 367.897 10.7125  11
   2   2  -8 357.719 14.3483   5
   1  -2  -8 25.0489 5.90647   2
   1  -2  -8 27.2154 2.24661  10
   1  -2  -8 19.4824 2.45478  11
   1   2  -8 30.1518 4.13222   5
  -1   2   8 22.6780 2.54450  12
   1   2  -8 23.8558 2.19023  11
   1   2  -8 20.5585 3.64112   7
   0  -2  -8 658.027 16.6575  10
   0  -2  -8 688.858 28.3586   2
   0  -2   8 665.189 18.0595  12
   0   2  -8 598.157 20.0719   5
   0   2   8 648.208 17.6110  12
   0   2  -8 619.677 17.6276  11
  -1  -2  -8 1635.83 53.0458   2
   1  -2   8 1647.96 40.3234  12
  -1  -2  -8 1678.79 39.3900  10
   1   2   8 1645.76 40.2082  12
  -2  -2  -8 423.970 21.6998   2
  -2  -2  -8 412.560 12.2815  12
   2  -2   8 439.413 12.6270  12
  -2  -2  -8 424.951 11.7581  10
   2   2   8 428.023 14.4061   3
   2   2   8 413.735 13.0323   1
   2   2   8 408.283 11.6378  10
   3  -2   8 2069.71 53.0288   3
   3  -2   8 2133.60 49.5782  10
   3  -2   8 2030.59 51.2732   1
  -3  -2  -8 2126.44 50.3422  12
   3   2   8 2092.70 53.1679   3
   3   2   8 2140.00 51.5013   1
   3   2   8 2158.90 49.5183  10
  -4  -2  -8 276.119 8.61798  12
   4  -2   8 275.998 8.01555  10
   4   2   8 284.202 7.91455  10
   5  -2   8 1.99775 0.52075  10
  -5  -2  -8 0.71488 0.60502  12
   5   2   8 1.15999 0.83721  14
   5  -3  -8 111.230 3.88740  11
   4  -3  -8 353.466 10.5340  11
   4   3  -8 364.928 14.6595   7
   4   3  -8 347.382 9.41957  13
   3  -3  -8 21.5006 2.18720  11
  -3   3   8 23.1445 2.52917  12
   3   3  -8 22.4318 1.10628   8
   3   3  -8 19.8272 1.65943  11
   3   3  -8 21.5901 3.66979   7
   3   3  -8 23.0389 1.07452   8
   2  -3  -8 769.935 21.3350  11
   2  -3  -8 777.055 19.5293  10
   2   3  -8 755.145 24.7139   5
  -2   3   8 818.746 21.1474  12
   2   3  -8 794.659 24.9655   7
   2   3  -8 821.239 20.4275  11
   1  -3  -8 351.831 9.90606  10
   1   3  -8 334.431 13.7621   5
  -1   3   8 348.906 10.8934  12
   1   3  -8 358.107 14.2324   7
   1   3  -8 351.749 10.7405  11
   0  -3  -8 1305.99 31.6144  10
   0  -3  -8 1376.62 45.9387   2
   0  -3   8 1294.67 32.5627  12
   0   3  -8 1298.76 32.8016  11
   0   3   8 1343.81 32.7326  12
   0   3  -8 1235.43 36.0254   5
  -1  -3  -8 41.4977 7.78238   2
  -1  -3  -8 38.8500 2.52419  10
   1  -3   8 40.5310 3.01444  12
   1   3   8 38.7207 2.87146  12
   1   3   8 43.8119 2.60849  10
  -2  -3  -8 799.071 21.0384  12
  -2  -3  -8 799.131 20.3847  10
   2  -3   8 824.460 21.2714  12
   2   3   8 799.692 21.8420   1
   2   3   8 804.667 20.3138  10
   2   3   8 772.247 23.1797   3
   3  -3   8 812.136 21.2438  12
  -3  -3  -8 846.480 21.6156  12
   3  -3   8 818.234 20.6949  10
   3   3   8 833.768 22.7425   1
   3   3   8 848.467 20.6894  10
   3   3   8 794.971 23.9078   3
  -4  -3  -8 94.6210 4.11334  12
   4  -3   8 94.2294 3.61461  10
   4   3   8 99.6949 3.42279  10
   4  -4  -8 147.669 5.42120  11
  -4   4   8 134.468 5.12613  12
   3  -4  -8 307.652 9.93353  11
  -3   4   8 319.517 9.75506  12
   3   4  -8 303.421 12.5108   7
   3   4  -8 293.448 8.56870  11
   2  -4  -8 37.2320 2.90873  11
   2  -4  -8 29.2912 2.01723  10
   2   4  -8 38.7103 4.90739   7
   2   4  -8 30.6189 2.27361  11
  -2   4   8 29.4522 2.65805  12
   1  -4  -8 1795.02 43.2348  10
  -1   4   8 1802.65 44.4342  12
   1   4  -8 1846.87 49.1962   7
   1   4  -8 1743.38 50.5583   5
   1   4  -8 1948.26 44.3879  11
   0  -4   8 488.826 14.1891  12
   0  -4  -8 506.864 24.4788   2
   0  -4  -8 494.961 13.4432  10
   0   4  -8 477.425 17.5405   5
   0   4   8 514.928 14.3222  12
   0   4  -8 490.209 14.3585  11
  -1  -4  -8 462.563 12.6954  10
  -1  -4  -8 462.784 23.4476   2
   1  -4   8 486.902 13.7316  12
   1   4   8 446.139 12.6475  10
   1   4   8 447.423 13.0652  12
  -2  -4  -8 218.850 15.2950   2
   2  -4   8 247.068 8.36491  12
  -2  -4  -8 243.284 8.17605  12
   2   4   8 244.297 7.46241  10
   2   4   8 241.823 9.89723   3
   2   4   8 233.118 8.68526   1
  -3  -4  -8 850.060 21.8756  12
   3  -4   8 830.091 21.5452  12
   3   4   8 857.359 20.9390  10
   4  -4   8 458.152 11.8043  10
  -4  -4  -8 464.813 12.5100  12
   4   4   8 451.315 11.4653  10
   4   4   8 464.959 12.8676  14
   4  -5  -8 691.397 17.8135  11
  -4   5   8 700.802 17.6309  12
   3  -5  -8 446.519 12.9053  11
  -3   5   8 440.440 12.7016  12
   2  -5  -8 206.062 6.37717  10
   2   5  -8 207.249 6.76788  11
   2   5  -8 202.796 5.64880   8
  -2   5   8 203.691 7.32650  12
   2   5  -8 194.493 9.80398   7
   1  -5  -8 575.307 14.9868  10
   1   5  -8 554.544 19.3147   7
   1   5  -8 558.720 15.5022  11
  -1   5   8 572.498 15.9216  12
   0  -5  -8 5.50691 3.33303   2
   0  -5  -8 5.84155 1.20860  10
   0  -5   8 10.1531 1.76023  12
   0   5   8 9.00670 1.66580  12
   0   5  -8 15.0046 2.07700  11
   0   5  -8 9.73614 2.84384   7
  -1  -5  -8 532.574 28.8447   2
   1  -5   8 520.682 14.7458  12
  -1  -5  -8 501.204 13.8077  10
  -1   5  -8 495.457 14.8204  11
   1   5   8 521.896 13.8454  10
   2  -5   8 242.661 8.05663  12
  -2  -5  -8 235.015 7.82425  12
   2   5   8 222.633 8.10437  14
   2   5   8 235.923 7.23005  10
   3  -5   8 301.628 8.94912  12
  -3  -5  -8 308.629 9.28495  12
   3   5   8 307.565 9.69385  14
   3   5   8 310.312 8.47671  10
  -4  -5  -8 423.203 11.1149  12
   4  -5   8 406.752 10.5425  10
   4   5   8 425.607 11.4297  14
  -3   6   8 9.26081 1.49286  12
  -3   6   8 10.7366 1.57204   9
   2  -6  -8 412.892 10.7913  10
  -2   6   8 387.874 11.6357  12
   2   6  -8 408.339 11.0996  11
   2   6  -8 401.929 9.90034   8
   1  -6  -8 25.3199 1.94846  10
   1   6  -8 33.0813 4.35882   7
  -1   6   8 29.4716 2.40098  12
   1   6  -8 27.7213 2.20152  11
   0  -6  -8 167.475 5.67864  10
   0  -6   8 164.257 6.07631  12
   0   6   8 161.852 5.58235  10
   0   6  -8 163.818 6.18342  11
   0   6  -8 155.324 8.31454   7
  -1  -6  -8 308.302 9.16503  10
   1  -6   8 333.930 10.0484  12
  -1   6  -8 313.250 10.0706  11
   1   6   8 326.453 9.23213  10
  -2  -6  -8 1196.19 29.7176  12
   2  -6   8 1243.72 30.0077  12
   2   6   8 1233.32 29.0981  10
   2   6   8 1194.04 30.1115  14
   3  -6   8 183.911 5.93267  12
  -3  -6  -8 191.695 6.06639  12
   3   6   8 185.918 6.25523  14
   3   6   8 187.984 5.30474  10
   2  -7  -8 528.979 12.9647  10
   2   7  -8 517.850 11.8976   8
   2   7  -8 523.140 13.1570  11
  -2   7   8 520.690 14.1736   9
  -2   7   8 508.958 13.5740  12
   2   7  -8 498.587 11.8782   8
   1  -7  -8 535.878 13.5999  10
  -1   7   8 522.484 15.1458  12
  -1   7   8 528.840 14.7198   9
   1   7  -8 525.155 14.0401  11
   0  -7  -8 148.637 4.97624  10
   0  -7   8 150.399 5.38672  12
   0   7   8 155.993 5.08184  10
   0   7  -8 146.255 5.48395  11
   0   7   8 149.935 5.66867   9
   1  -7   8 109.404 4.40571  12
  -1  -7  -8 105.413 3.90694  10
   1   7   8 108.744 3.88257  10
  -2  -7  -8 34.6653 2.10707  12
   2  -7   8 38.1222 2.21643  12
   2   7   8 35.2486 2.86804  14
   2   7   8 34.5126 1.75915  10
   0  -8  -8 474.781 11.9552  10
   0  -8   8 464.137 12.2348  12
   0   8  -8 475.073 12.4664  11
   0   8   8 486.280 11.9522  10
   4   0  -9 414.666 9.84386   8
   4   0  -9 417.507 9.85901   8
   4   0  -9 411.572 11.0089  11
   3   0  -9 579.263 15.6884  11
   2   0  -9 298.592 9.73260  11
   1   0  -9 627.808 17.4176  11
  -1   0   9 619.191 17.0884  12
   0   0   9 114.055 5.04426  12
   0   0  -9 99.2457 3.97287  10
   0   0  -9 101.899 5.03192  11
   1   0   9 1555.81 38.2611  12
   2   0   9 1525.69 37.2708  12
   3   0   9 22.6892 2.06186  10
   4   0   9 19.8605 1.41898  10
   4  -1  -9 183.329 5.81306  11
   4  -1  -9 172.491 4.76293   8
   4   1  -9 172.096 5.18253  11
   3  -1  -9 107.794 4.77206  11
   3   1  -9 110.361 4.44127  11
   3   1  -9 105.088 3.44049   8
   2  -1  -9 224.866 8.16307  11
   2   1  -9 237.194 7.97913  11
   2   1  -9 242.437 10.7624   7
   1  -1  -9 777.101 21.1933  11
  -1  -1   9 751.539 20.5735  12
   1  -1  -9 780.775 19.3440  10
   1   1  -9 790.082 24.0753   7
  -1   1   9 803.782 20.9063  12
   1   1  -9 800.829 21.0723  11
   0  -1   9 1026.41 26.3276  12
   0  -1  -9 1046.48 25.2029  10
   0   1   9 1042.25 26.4219  12
   0   1  -9 994.638 26.6407  11
  -1  -1  -9 1841.67 43.4424  10
   1  -1   9 1821.76 44.4928  12
   1   1   9 1838.81 44.4279  12
  -2  -1  -9 698.980 18.0568  10
   2  -1   9 707.398 18.9066  12
   2   1   9 695.337 18.5752  12
   2   1   9 712.918 18.1079  10
  -3  -1  -9 217.425 6.95333  10
   3  -1   9 230.212 7.06425  10
   3   1   9 236.361 7.05548  10
  -4  -1  -9 129.256 4.62031  12
   4  -1   9 135.324 4.36439  10
   4   1   9 132.522 4.27615  10
   4  -2  -9 1152.41 28.0749  11
   3  -2  -9 419.181 12.2136  11
   3  -2  -9 411.354 12.0888  11
   3   2  -9 404.931 14.8170   7
   3   2  -9 411.741 11.3737  11
   3   2  -9 413.205 10.1229   8
   2  -2  -9 60.2958 3.69650  11
   2   2  -9 62.9116 5.38289   7
  -2   2   9 60.7673 3.53297  12
   2   2  -9 59.1928 3.34027  11
   1  -2  -9 1427.12 33.2674  10
   1  -2  -9 1359.88 34.9973  11
   1   2  -9 1418.25 34.6450  11
   1   2  -9 1395.05 38.6511   7
  -1   2   9 1374.31 34.6534  12
   0  -2   9 1020.00 26.0628  12
   0  -2  -9 1030.46 38.6804   2
   0  -2  -9 1020.98 24.9110  10
   0   2   9 1035.18 26.1174  12
   0   2  -9 953.279 25.9672  11
   1  -2   9 623.522 17.2786  12
  -1  -2  -9 635.160 16.3263  10
  -1  -2  -9 618.882 28.0298   2
   1   2   9 608.771 16.9779  12
   2  -2   9 363.321 10.9845  12
  -2  -2  -9 365.440 10.2724  10
   2   2   9 352.115 10.2342  10
  -3  -2  -9 83.0549 3.85374  12
  -3  -2  -9 80.0161 3.46501  10
   3  -2   9 87.1662 3.52729  10
   3   2   9 85.5764 3.49258  10
   4  -2   9 1102.22 25.5218  10
  -4  -2  -9 1033.77 25.8268  12
   4   2   9 1077.73 25.3475  10
   4  -3  -9 318.384 9.22121  11
   3  -3  -9 169.604 6.26584  11
   3   3  -9 165.685 4.17413   8
  -3   3   9 155.778 5.87152  12
   3   3  -9 162.574 4.18503   8
   3   3  -9 158.690 8.18789   7
   3   3  -9 163.797 5.32296  11
   2  -3  -9 84.8522 4.29731  10
   2  -3  -9 91.1347 4.63282  11
   2   3  -9 103.329 4.30811  11
   2   3  -9 101.717 6.84456   7
  -2   3   9 99.8337 4.58700  12
   1  -3  -9 975.918 23.7698  10
  -1   3   9 976.829 25.1118  12
   1   3  -9 935.021 24.8254  11
   1   3  -9 983.344 29.1733   7
   0  -3  -9 406.040 21.4462   2
   0  -3   9 418.634 12.3760  12
   0  -3  -9 404.947 11.4223  10
   0   3  -9 415.343 12.5448  11
   0   3   9 418.167 12.3879  12
  -1  -3  -9 433.950 22.4322   2
   1  -3   9 460.133 13.4775  12
  -1  -3  -9 461.288 12.5632  10
   1   3   9 471.741 13.2373  12
  -2  -3  -9 418.846 11.7246  10
   2  -3   9 433.285 12.5271  12
   2   3   9 425.770 11.6900  10
  -3  -3  -9 56.3897 3.05182  12
   3  -3   9 60.3478 3.01124  10
   3   3   9 61.2654 2.68677  10
   4  -3   9 654.305 16.0696  10
  -4  -3  -9 650.790 16.4428  12
   4   3   9 669.681 16.9275  14
   4   3   9 663.706 15.8829  10
   4  -4  -9 249.944 7.28942  11
  -4   4   9 242.324 7.06122  12
   3  -4  -9 103.191 4.47076  11
  -3   4   9 99.0600 4.27559  12
   3   4  -9 99.4701 3.47605  11
   2  -4  -9 34.9658 2.73884  11
   2  -4  -9 36.2135 1.99497  10
   2   4  -9 44.7367 2.55104  11
   2   4  -9 36.3110 4.80173   7
  -2   4   9 38.6631 2.81109  12
   2   4  -9 36.9125 1.74725   8
   1  -4  -9 879.672 21.5218  10
   1   4  -9 865.221 26.5936   7
   1   4  -9 869.467 22.4471  11
  -1   4   9 852.191 22.5674  12
   0  -4  -9 92.7430 3.89562  10
   0  -4   9 89.6198 4.30796  12
   0   4  -9 95.1425 4.58571  11
   0   4  -9 87.0091 6.41687   7
   0   4   9 96.9671 4.47965  12
  -1  -4  -9 64.3814 3.15716  10
   1  -4   9 68.0710 3.66910  12
   1   4   9 60.1599 3.29215  12
   1   4   9 61.3941 3.07890  10
   2  -4   9 633.146 16.6405  12
  -2  -4  -9 612.039 15.8285  10
   2   4   9 594.008 15.7205  10
  -3  -4  -9 226.078 7.15394  12
   3   4   9 239.276 7.69737  14
   3   4   9 243.811 6.80154  10
   3  -5  -9 345.765 10.2101  11
  -3   5   9 382.368 10.2448  12
  -3   5   9 348.629 10.2901   9
   2  -5  -9 345.601 9.28665  10
  -2   5   9 356.794 10.4781  12
   2   5  -9 351.478 9.84902  11
   2   5  -9 352.893 8.73819   8
   1  -5  -9 124.722 4.47175  10
   1   5  -9 125.790 5.03433  11
  -1   5   9 128.247 5.17495  12
   1   5  -9 121.329 7.27126   7
   0  -5   9 514.549 14.4080  12
   0  -5  -9 544.477 13.8476  10
   0   5  -9 514.385 14.6894  11
   0   5  -9 515.470 17.9037   7
   0   5   9 525.845 14.3417  12
   1  -5   9 559.694 15.2969  12
  -1  -5  -9 550.315 14.5559  10
   1   5   9 563.636 14.5615  10
   2  -5   9 150.552 5.48378  12
  -2  -5  -9 141.061 4.90627  10
   2   5   9 152.267 5.63343  14
   2   5   9 154.529 4.97708  10
  -3  -5  -9 433.682 11.8031  12
   3   5   9 463.161 12.4199  14
   3   5   9 477.333 11.5039  10
   2  -6  -9 389.702 10.0382  10
   2   6  -9 389.554 9.23157   8
  -2   6   9 389.865 11.3514   9
   2   6  -9 410.022 10.4332  11
  -2   6   9 404.378 10.9800  12
   1  -6  -9 669.275 16.5366  10
   1   6  -9 687.358 17.2211  11
  -1   6   9 635.493 17.0105  12
   0  -6  -9 193.925 5.93503  10
   0  -6   9 196.888 6.38120  12
   0   6  -9 184.616 6.49741  11
   0   6   9 187.037 5.86794  10
   1  -6   9 287.813 8.46962  12
  -1  -6  -9 270.285 7.84343  10
   1   6   9 274.689 7.80620  10
   2  -6   9 113.986 4.21435  12
   2   6   9 116.495 3.77940  10
   1  -7  -9 990.459 23.2392  10
   1   7  -9 973.627 23.6210  11
   0  -7  -9 502.356 12.2645  10
   0  -7   9 481.444 12.5263  12
   0   7  -9 482.308 12.7500  11
   0   7   9 479.769 12.2255  10
   4   0 -10 408.713 10.2949  11
   3   0 -10 2.24072 0.79473  11
   2   0 -10 25.1575 2.21623  11
  -1   0  10 452.006 12.8930  12
   1   0 -10 433.835 13.2047  11
   0   0 -10 31.9587 2.02078  10
   0   0  10 32.9241 2.64321  12
  -1   0 -10 4.51392 1.05631  10
   1   0  10 3.15840 1.08678  12
  -2   0 -10 2513.12 57.1961  10
   2   0  10 2408.38 57.6945  12
   3   0  10 159.575 5.03225  10
  -3   0 -10 157.161 5.05155  10
   4  -1 -10 23.2003 1.45899  11
   4   1 -10 23.7279 1.59304  13
   3  -1 -10 495.097 13.3399  11
   3  -1 -10 495.895 13.4097  11
   3   1 -10 486.922 13.0470  11
   3   1 -10 479.761 11.8351   8
   2  -1 -10 762.718 20.3571  11
  -2   1  10 711.250 19.7860  12
   2   1 -10 830.912 20.3412  11
  -1  -1  10 377.356 11.5893  12
   1  -1 -10 403.800 12.2131  11
   1  -1 -10 397.907 11.0294  10
  -1   1  10 407.062 11.9089  12
   1   1 -10 405.200 12.0728  11
   0  -1  10 23.5765 2.28182  12
   0  -1 -10 20.5422 1.88090  10
   0   1 -10 21.3061 1.59862  10
   0   1 -10 25.1560 2.44406  11
   0   1  10 25.8900 2.34724  12
  -1  -1 -10 516.759 13.8166  10
   1  -1  10 532.383 14.8185  12
   1   1  10 516.982 14.6596  12
  -1   1 -10 533.257 13.6669  10
  -2  -1 -10 418.652 11.0813  10
   2  -1  10 412.893 11.6704  12
   2   1  10 400.175 11.0821  10
   2   1  10 394.959 11.3434  12
   3  -1  10 391.916 10.5512  10
  -3  -1 -10 401.788 10.6228  10
   3   1  10 410.628 10.6094  10
   3  -2 -10 191.739 6.33279  11
   3   2 -10 183.493 4.64964   8
   3   2 -10 182.966 4.65934   8
   3   2 -10 179.225 5.71036  11
   2  -2 -10 59.2286 3.47373  11
   2   2 -10 64.1618 3.33053  11
   2   2 -10 60.4489 4.79814   7
  -2   2  10 57.9901 3.27888  12
   1  -2 -10 494.405 14.3828  11
  -1  -2  10 479.123 13.6731  12
   1  -2 -10 499.732 12.6945  10
   1   2 -10 509.065 14.1555  11
   1   2 -10 469.873 16.6902   7
  -1   2  10 505.020 14.0985  12
   0  -2  10 55.3422 3.27563  12
   0  -2 -10 54.2645 2.72358  10
   0   2 -10 55.3559 3.45886  11
   0   2  10 56.6883 3.37298  12
   0   2 -10 51.9450 4.77881   7
   1  -2  10 562.454 15.4667  12
  -1  -2 -10 560.259 14.5680  10
   1   2  10 548.049 15.2127  12
   2  -2  10 66.8223 3.43677  12
  -2  -2 -10 71.5955 3.12165  10
   2   2  10 71.4040 3.12846  10
  -3  -2 -10 142.913 4.63828  10
   3  -2  10 143.882 4.61454  10
   3   2  10 149.243 4.62970  10
   3  -3 -10 89.3962 3.82466  11
  -3   3  10 86.1059 3.55449  12
   3   3 -10 89.3676 3.14736  11
   2  -3 -10 159.335 6.06157  11
   2  -3 -10 159.545 6.05322  11
  -2   3  10 162.986 5.91360  12
   2   3 -10 161.071 5.63846  11
   1  -3 -10 409.385 10.7634  10
   1   3 -10 376.516 14.5629   7
   1   3 -10 420.160 12.0485  11
  -1   3  10 419.666 12.0590  12
   0  -3  10 116.275 4.86496  12
   0  -3 -10 114.130 4.26300  10
   0   3 -10 113.210 4.99155  11
   0   3 -10 112.038 7.00603   7
   0   3  10 118.572 4.95967  12
  -1  -3 -10 527.191 13.4936  10
   1  -3  10 512.305 14.2381  12
   1   3  10 493.814 13.8072  12
  -2  -3 -10 22.8032 1.68745  10
   2  -3  10 20.5027 1.86654  12
   2   3  10 21.3043 1.64483  10
  -3  -3 -10 50.2822 2.24586  10
   3   3  10 54.5628 2.25121  10
   3  -4 -10 109.134 4.08547  11
  -3   4  10 104.973 3.90159  12
  -2   4  10 119.914 4.67424  12
   2   4 -10 120.011 3.46307   8
   2   4 -10 126.055 4.44638  11
   1  -4 -10 335.518 9.19656  10
   1   4 -10 347.000 10.0891  11
  -1   4  10 346.744 10.2718  12
   0  -4  10 206.900 7.07728  12
   0  -4 -10 221.227 6.52763  10
   0   4  10 213.770 7.05124  12
   0   4 -10 213.931 7.24222  11
   1  -4  10 619.810 16.2578  12
  -1  -4 -10 618.314 15.4883  10
   1   4  10 584.972 15.3980  10
   2  -4  10 654.674 16.1849  12
  -2  -4 -10 620.756 15.6342  10
   2   4  10 627.418 15.6052  10
   2   4  10 603.754 16.1948  14
   2   5 -10 1229.38 29.4012  11
  -2   5  10 1266.42 29.9671  12
   1  -5 -10 240.213 6.63116  10
  -1   5  10 238.153 7.31957  12
   1   5 -10 239.177 7.28346  11
   0  -5  10 1.67228 0.72199  12
   0  -5 -10 2.13413 0.72807  10
   0   5 -10 1.63212 0.77059  11
   0   5  10 1.91175 0.76831  12
   1  -5  10 67.7996 3.13788  12
  -1  -5 -10 66.3648 2.72213  10
   1   5  10 59.3763 2.62619  10
   2  -5  10 132.475 4.45270  12
  -2  -5 -10 131.552 4.14901  10
   2   5  10 142.389 4.20050  10
   0  -6  10 417.117 11.0235  12
   0  -6 -10 438.382 10.6991  10
   0   6 -10 409.856 11.1575  11
   3   0 -11 41.0299 2.07304  11
   3   0 -11 40.5754 2.08268  11
   2   0 -11 288.465 8.72092  11
  -1   0  11 862.751 21.6914  12
   1   0 -11 846.910 21.9969  11
   0   0  11 282.369 8.67596  12
   0   0 -11 268.129 7.39367  10
  -1   0 -11 887.562 21.4775  10
   1   0  11 891.602 22.4124  12
  -2   0 -11 19.8805 1.41404  10
   2   0  11 21.4829 1.58590  12
   3  -1 -11 180.180 5.50581  11
   3   1 -11 179.105 5.29135  11
   3   1 -11 174.799 5.22387  11
   2  -1 -11 1085.18 26.3334  11
   2   1 -11 1085.48 26.1128  11
  -2   1  11 1013.43 25.7694  12
   1  -1 -11 356.656 10.8720  11
  -1  -1  11 365.930 10.4954  12
  -1   1  11 388.240 10.7360  12
   1   1 -11 362.283 10.8144  11
   0  -1  11 206.486 6.75202  12
   0  -1 -11 199.826 5.74116  10
   0   1  11 201.012 6.75102  12
   0   1 -11 179.050 6.76230  11
   1  -1  11 365.714 10.3868  12
  -1  -1 -11 365.666 9.58973  10
  -1   1 -11 353.172 9.40312  10
   1   1  11 353.073 10.2329  12
   2  -1  11 61.1325 2.80245  12
  -2  -1 -11 65.6489 2.63342  10
  -2   1 -11 66.5134 2.55227  10
   2  -2 -11 472.245 12.7619  11
   2  -2 -11 468.838 12.7849  11
   2   2 -11 477.639 12.4898  11
  -2   2  11 458.540 12.4388  12
  -1  -2  11 115.093 4.43645  12
   1   2 -11 123.543 4.84680  11
  -1   2  11 126.668 4.77663  12
   0  -2  11 81.7814 3.68888  12
   0  -2 -11 82.1570 3.00631  10
   0   2 -11 73.0948 3.66910  11
   0   2  11 76.7150 3.62343  12
  -1  -2 -11 186.930 5.60513  10
   1  -2  11 189.890 6.27002  12
  -1   2 -11 178.925 5.22465  10
   1   2  11 184.483 6.00916  12
   2  -2  11 23.7814 1.67130  12
  -2  -2 -11 26.2482 1.54412  10
   2   2  11 26.8661 1.55953  10
  -2   2 -11 24.3096 1.40350  10
   2  -3 -11 309.179 9.12612  11
   2   3 -11 333.149 8.87295  11
  -2   3  11 327.680 9.03376  12
  -1  -3  11 184.977 6.05761  12
   1   3 -11 194.193 6.33258  11
  -1   3  11 199.642 6.34035  12
   0  -3  11 561.382 14.7294  12
   0  -3 -11 557.803 13.9066  10
   0   3 -11 547.015 14.9073  11
   0   3  11 582.181 14.7497  12
  -1  -3 -11 185.210 5.48494  10
   1  -3  11 185.727 6.03789  12
   1  -4 -11 982.138 23.6147  10
   1   4 -11 1040.09 24.6979  11
  -1   4  11 1037.24 24.6737  12
   0  -4  11 14.1201 1.50745  12
   0  -4 -11 13.8229 1.22401  10
   0   4  11 12.4576 1.36803  12
   0   4 -11 12.6965 1.34495  11
  -1  -4 -11 59.0560 2.31277  10
   1  -4  11 60.1352 2.69924  12
   0   0  12 300.395 8.41755  12
   0   0   0    0.00    0.00   0

 _exptl_absorpt_process_details 'SADABS 2014/4'
 _exptl_absorpt_correction_type   multiscan
 _exptl_absorpt_correction_T_max  0.9492
 _exptl_absorpt_correction_T_min  0.8557
 _exptl_special_details
)
 The following wavelength and cell were deduced by SADABS from the
 direction cosines etc. They are given here for emergency use only:
 CELL 1.54181    5.975    9.057   10.120   89.992   91.570   89.996
)

;
_shelx_hkl_checksum              41424
loop_
_space_group_symop_operation_xyz
'x, y, z'
'-x, y+1/2, -z'
loop_
_atom_site_label
_atom_site_type_symbol
_atom_site_fract_x
_atom_site_fract_y
_atom_site_fract_z
_atom_site_U_iso_or_equiv
_atom_site_adp_type
_atom_site_occupancy
_atom_site_site_symmetry_order
_atom_site_calc_flag
_atom_site_refinement_flags_posn
_atom_site_refinement_flags_adp
O1 O 0.0370(2) -0.18540(16) 0.74943(13) 0.0171(3) Uani 1 1 d . .
O2 O 0.3345(2) -0.16065(15) 0.88827(12) 0.0168(3) Uani 1 1 d . .
O3 O 0.3127(2) 0.39899(14) 0.85346(13) 0.0157(3) Uani 1 1 d . .
O4 O 0.1316(2) 0.19084(15) 0.90332(12) 0.0140(3) Uani 1 1 d . .
O5 O 1.0658(2) 0.06401(14) 0.13816(13) 0.0142(3) Uani 1 1 d . .
N1 N 0.7063(2) 0.27786(17) 0.83296(15) 0.0111(3) Uani 1 1 d . .
C1 C 0.2289(3) -0.1238(2) 0.79045(17) 0.0115(4) Uani 1 1 d . .
C2 C 0.2959(3) -0.0048(2) 0.69575(18) 0.0116(4) Uani 1 1 d . .
H14 H 0.1725 0.0680 0.6889 0.014 Uiso 1 1 calc R U
H15 H 0.3106 -0.0500 0.6074 0.014 Uiso 1 1 calc R U
C3 C 0.5103(3) 0.0779(2) 0.72918(17) 0.0098(4) Uani 1 1 d . .
H13 H 0.6370 0.0058 0.7337 0.012 Uiso 1 1 calc R U
C4 C 0.5585(3) 0.1948(2) 0.62202(17) 0.0113(4) Uani 1 1 d . .
H7 H 0.4237 0.2598 0.6125 0.014 Uiso 1 1 calc R U
C5 C 0.6072(3) 0.1335(2) 0.48697(18) 0.0119(4) Uani 1 1 d . .
C6 C 0.4647(3) 0.1558(2) 0.38553(19) 0.0150(4) Uani 1 1 d . .
H6 H 0.4955 0.1158 0.3012 0.018 Uiso 1 1 calc R U
H2 H 0.3323 0.2116 0.3975 0.018 Uiso 1 1 calc R U
C7 C 0.8188(3) 0.0453(2) 0.47086(18) 0.0152(4) Uani 1 1 d . .
H3 H 0.8151 -0.0026 0.3840 0.023 Uiso 1 1 calc R U
H4 H 0.8302 -0.0301 0.5402 0.023 Uiso 1 1 calc R U
H5 H 0.9486 0.1112 0.4779 0.023 Uiso 1 1 calc R U
C8 C 0.7470(3) 0.2861(2) 0.68690(16) 0.0122(4) Uani 1 1 d . .
H12 H 0.8950 0.2441 0.6666 0.015 Uiso 1 1 calc R U
H11 H 0.7409 0.3896 0.6557 0.015 Uiso 1 1 calc R U
C9 C 0.5169(3) 0.1724(2) 0.85614(17) 0.0100(4) Uani 1 1 d . .
H10 H 0.5496 0.1098 0.9357 0.012 Uiso 1 1 calc R U
C10 C 0.3023(3) 0.2639(2) 0.87403(16) 0.0113(4) Uani 1 1 d . .
H1 H 0.0028 -0.2668 0.8026 0.050 Uiso 1 1 d . .
H8 H 0.6692 0.3676 0.8665 0.050 Uiso 1 1 d . .
H9 H 0.8331 0.2513 0.8805 0.050 Uiso 1 1 d . .
H16 H 1.0961 0.0902 0.0566 0.050 Uiso 1 1 d . .
H17 H 0.9504 0.0154 0.1334 0.050 Uiso 1 1 d . .
loop_
_atom_site_aniso_label
_atom_site_aniso_U_11
_atom_site_aniso_U_22
_atom_site_aniso_U_33
_atom_site_aniso_U_23
_atom_site_aniso_U_13
_atom_site_aniso_U_12
O1 0.0143(7) 0.0174(7) 0.0195(7) 0.0051(5) -0.0009(5) -0.0053(6)
O2 0.0183(7) 0.0183(7) 0.0136(7) 0.0035(5) -0.0019(5) -0.0023(6)
O3 0.0139(6) 0.0134(7) 0.0200(7) 0.0023(5) 0.0031(5) 0.0023(5)
O4 0.0094(6) 0.0184(7) 0.0143(6) 0.0015(5) 0.0024(5) -0.0009(5)
O5 0.0152(7) 0.0129(6) 0.0147(6) 0.0019(5) 0.0023(5) -0.0012(5)
N1 0.0104(7) 0.0117(8) 0.0113(7) -0.0008(6) 0.0010(5) -0.0026(6)
C1 0.0116(8) 0.0117(8) 0.0112(8) -0.0033(7) 0.0022(7) 0.0010(7)
C2 0.0125(9) 0.0117(9) 0.0106(8) -0.0001(7) 0.0003(6) -0.0010(7)
C3 0.0089(8) 0.0102(8) 0.0104(8) -0.0001(7) 0.0014(6) 0.0010(7)
C4 0.0101(8) 0.0112(9) 0.0126(9) 0.0007(7) 0.0002(6) 0.0008(7)
C5 0.0121(9) 0.0109(8) 0.0129(9) 0.0018(7) 0.0019(7) -0.0036(7)
C6 0.0155(9) 0.0159(10) 0.0137(9) 0.0008(7) 0.0011(7) -0.0034(7)
C7 0.0148(9) 0.0174(9) 0.0136(8) -0.0009(7) 0.0024(7) 0.0014(7)
C8 0.0124(9) 0.0139(9) 0.0103(9) -0.0007(7) 0.0027(7) -0.0015(7)
C9 0.0086(8) 0.0111(9) 0.0105(8) 0.0000(7) 0.0007(6) -0.0029(7)
C10 0.0109(9) 0.0160(9) 0.0071(8) -0.0010(7) 0.0005(6) 0.0010(8)
loop_
_atom_type_symbol
_atom_type_description
_atom_type_scat_dispersion_real
_atom_type_scat_dispersion_imag
_atom_type_scat_source
C C 0.0181 0.0091 'International Tables Vol C Tables 4.2.6.8 and 6.1.1.4'
H H 0.0000 0.0000 'International Tables Vol C Tables 4.2.6.8 and 6.1.1.4'
N N 0.0311 0.0180 'International Tables Vol C Tables 4.2.6.8 and 6.1.1.4'
O O 0.0492 0.0322 'International Tables Vol C Tables 4.2.6.8 and 6.1.1.4'
loop_
_geom_angle_atom_site_label_1
_geom_angle_atom_site_label_2
_geom_angle_atom_site_label_3
_geom_angle
C1 O1 H1 110.5
H16 O5 H17 106.5
C9 N1 C8 109.10(13)
C9 N1 H8 108.5
C8 N1 H8 111.7
C9 N1 H9 111.4
C8 N1 H9 111.9
H8 N1 H9 104.1
O2 C1 O1 124.49(17)
O2 C1 C2 125.39(16)
O1 C1 C2 110.11(14)
C1 C2 C3 116.77(14)
C1 C2 H14 108.1
C3 C2 H14 108.1
C1 C2 H15 108.1
C3 C2 H15 108.1
H14 C2 H15 107.3
C2 C3 C9 117.54(15)
C2 C3 C4 110.76(14)
C9 C3 C4 101.67(14)
C2 C3 H13 108.8
C9 C3 H13 108.8
C4 C3 H13 108.8
C5 C4 C8 115.39(14)
C5 C4 C3 115.22(15)
C8 C4 C3 102.59(13)
C5 C4 H7 107.7
C8 C4 H7 107.7
C3 C4 H7 107.7
C6 C5 C7 121.15(18)
C6 C5 C4 120.43(17)
C7 C5 C4 118.42(16)
C5 C6 H6 120.0
C5 C6 H2 120.0
H6 C6 H2 120.0
C5 C7 H3 109.5
C5 C7 H4 109.5
H3 C7 H4 109.5
C5 C7 H5 109.5
H3 C7 H5 109.5
H4 C7 H5 109.5
N1 C8 C4 104.92(13)
N1 C8 H12 110.8
C4 C8 H12 110.8
N1 C8 H11 110.8
C4 C8 H11 110.8
H12 C8 H11 108.8
N1 C9 C10 108.00(14)
N1 C9 C3 102.97(13)
C10 C9 C3 113.19(14)
N1 C9 H10 110.8
C10 C9 H10 110.8
C3 C9 H10 110.8
O3 C10 O4 126.98(18)
O3 C10 C9 117.64(16)
O4 C10 C9 115.32(16)
loop_
_geom_bond_atom_site_label_1
_geom_bond_atom_site_label_2
_geom_bond_distance
O1 C1 1.331(2)
O1 H1 0.9388
O2 C1 1.206(2)
O3 C10 1.243(2)
O4 C10 1.259(2)
O5 H16 0.8825
O5 H17 0.8186
N1 C9 1.504(2)
N1 C8 1.507(2)
N1 H8 0.9107
N1 H9 0.9185
C1 C2 1.504(2)
C2 C3 1.514(2)
C2 H14 0.9900
C2 H15 0.9900
C3 C9 1.544(2)
C3 C4 1.549(2)
C3 H13 1.0000
C4 C5 1.511(2)
C4 C8 1.530(2)
C4 H7 1.0000
C5 C6 1.331(3)
C5 C7 1.508(3)
C6 H6 0.9500
C6 H2 0.9500
C7 H3 0.9800
C7 H4 0.9800
C7 H5 0.9800
C8 H12 0.9900
C8 H11 0.9900
C9 C10 1.542(2)
C9 H10 1.0000
