#------------------------------------------------------------------------------
#$Date: 2019-11-11 16:21:25 +0200 (Mon, 11 Nov 2019) $
#$Revision: 226529 $
#$URL: file:///home/coder/svn-repositories/cod/cif/4/03/50/4035031.cif $
#------------------------------------------------------------------------------
#
# This file is available in the Crystallography Open Database (COD),
# http://www.crystallography.net/
#
# All data on this site have been placed in the public domain by the
# contributors.
#
data_4035031
loop_
_publ_author_name
'Przeslak, Adam D.'
'Inman, Martyn'
'Lewis, William'
'Moody, Christopher J.'
_publ_section_title
;
 Origin of the Thiopyrone CTP-431 &quot;Unexpectedly&quot; Isolated from
 the Marine Sponge Cacospongia mycofijiensis.
;
_journal_issue                   17
_journal_name_full               'The Journal of organic chemistry'
_journal_page_first              10595
_journal_page_last               10601
_journal_paper_doi               10.1021/acs.joc.8b01258
_journal_volume                  83
_journal_year                    2018
_chemical_absolute_configuration ad
_chemical_formula_moiety         'C11 H17 N O3 S'
_chemical_formula_sum            'C11 H17 N O3 S'
_chemical_formula_weight         243.31
_space_group_crystal_system      monoclinic
_space_group_IT_number           4
_space_group_name_Hall           'P 2yb'
_space_group_name_H-M_alt        'P 1 21 1'
_atom_sites_solution_hydrogens   mixed
_atom_sites_solution_primary     iterative
_atom_sites_solution_secondary   difmap
_audit_creation_date             2014-10-03
_audit_creation_method
;
Olex2 1.2
(compiled 2014.09.19 svn.r3010 for OlexSys, GUI svn.r4874)
;
_cell_angle_alpha                90
_cell_angle_beta                 99.342(9)
_cell_angle_gamma                90
_cell_formula_units_Z            2
_cell_length_a                   8.7848(8)
_cell_length_b                   5.5237(6)
_cell_length_c                   12.4287(12)
_cell_measurement_reflns_used    1881
_cell_measurement_temperature    120(2)
_cell_measurement_theta_max      74.1160
_cell_measurement_theta_min      5.1480
_cell_volume                     595.10(10)
_computing_cell_refinement
;
CrysAlisPro, Agilent Technologies,
Version 1.171.37.31 (release 14-01-2014 CrysAlis171 .NET)
(compiled Jan 14 2014,18:38:05)
;
_computing_data_collection
;
CrysAlisPro, Agilent Technologies,
Version 1.171.37.31 (release 14-01-2014 CrysAlis171 .NET)
(compiled Jan 14 2014,18:38:05)
;
_computing_data_reduction
;
CrysAlisPro, Agilent Technologies,
Version 1.171.37.31 (release 14-01-2014 CrysAlis171 .NET)
(compiled Jan 14 2014,18:38:05)
;
_computing_molecular_graphics    'Olex2 (Dolomanov et al., 2009)'
_computing_publication_material  'Olex2 (Dolomanov et al., 2009)'
_computing_structure_refinement  'ShelXL (Sheldrick, 2008)'
_computing_structure_solution    'olex2.solve (Bourhis et al., 2013)'
_diffrn_ambient_environment      N~2~
_diffrn_ambient_temperature      120(2)
_diffrn_crystal_treatment        'flash frozen in gaseous N2'
_diffrn_detector                 'CCD area detector'
_diffrn_detector_area_resol_mean 10.3613
_diffrn_detector_type            'Agilent Diffraction Atlas detector'
_diffrn_measured_fraction_theta_full 1.000
_diffrn_measured_fraction_theta_max 0.989
_diffrn_measurement_details
;
#__ type_ start__ end____ width___ exp.time_
  1 omega  -48.00    6.00   1.0000   20.0000
omega____ theta____ kappa____ phi______ frames
    -      -38.5000   29.0000   49.0000 54

#__ type_ start__ end____ width___ exp.time_
  2 omega  -41.00   32.00   1.0000   20.0000
omega____ theta____ kappa____ phi______ frames
    -      -38.5000   38.0000  150.0000 73

#__ type_ start__ end____ width___ exp.time_
  3 omega  -48.00   23.00   1.0000   20.0000
omega____ theta____ kappa____ phi______ frames
    -      -38.5000   38.0000   90.0000 71

#__ type_ start__ end____ width___ exp.time_
  4 omega   19.00  108.00   1.0000   20.0000
omega____ theta____ kappa____ phi______ frames
    -       43.1277   57.0000  120.0000 89

#__ type_ start__ end____ width___ exp.time_
  5 omega   55.00   82.00   1.0000   20.0000
omega____ theta____ kappa____ phi______ frames
    -       43.1277   38.0000 -150.0000 27

#__ type_ start__ end____ width___ exp.time_
  6 omega   15.00   78.00   1.0000   20.0000
omega____ theta____ kappa____ phi______ frames
    -       43.1277   77.0000 -180.0000 63

#__ type_ start__ end____ width___ exp.time_
  7 omega   85.00  168.00   1.0000   80.0000
omega____ theta____ kappa____ phi______ frames
    -      107.3822   45.0000 -150.0000 83

#__ type_ start__ end____ width___ exp.time_
  8 omega  100.00  177.00   1.0000   80.0000
omega____ theta____ kappa____ phi______ frames
    -      107.3822  125.0000 -150.0000 77

#__ type_ start__ end____ width___ exp.time_
  9 omega  100.00  127.00   1.0000   80.0000
omega____ theta____ kappa____ phi______ frames
    -      107.3822  125.0000  -90.0000 27

#__ type_ start__ end____ width___ exp.time_
 10 omega  126.00  177.00   1.0000   80.0000
omega____ theta____ kappa____ phi______ frames
    -      107.3822   77.0000  150.0000 51

#__ type_ start__ end____ width___ exp.time_
 11 omega   84.00  111.00   1.0000   80.0000
omega____ theta____ kappa____ phi______ frames
    -      107.3822   45.0000   90.0000 27

#__ type_ start__ end____ width___ exp.time_
 12 omega   76.00  102.00   1.0000   80.0000
omega____ theta____ kappa____ phi______ frames
    -      107.3822   77.0000   60.0000 26

#__ type_ start__ end____ width___ exp.time_
 13 omega  113.00  172.00   1.0000   80.0000
omega____ theta____ kappa____ phi______ frames
    -      107.3822   77.0000   60.0000 59

#__ type_ start__ end____ width___ exp.time_
 14 omega   76.00  103.00   1.0000   80.0000
omega____ theta____ kappa____ phi______ frames
    -      107.3822   77.0000  120.0000 27

#__ type_ start__ end____ width___ exp.time_
 15 omega   83.00  111.00   1.0000   80.0000
omega____ theta____ kappa____ phi______ frames
    -      107.3822   61.0000 -180.0000 28

#__ type_ start__ end____ width___ exp.time_
 16 omega   79.00  106.00   1.0000   80.0000
omega____ theta____ kappa____ phi______ frames
    -      107.3822   77.0000  150.0000 27

#__ type_ start__ end____ width___ exp.time_
 17 omega   82.00  111.00   1.0000   80.0000
omega____ theta____ kappa____ phi______ frames
    -      107.3822   61.0000   90.0000 29

#__ type_ start__ end____ width___ exp.time_
 18 omega   33.00   91.00   1.0000   80.0000
omega____ theta____ kappa____ phi______ frames
    -      107.3822  -30.0000  120.0000 58

#__ type_ start__ end____ width___ exp.time_
 19 omega  121.00  177.00   1.0000   80.0000
omega____ theta____ kappa____ phi______ frames
    -      107.3822   77.0000   90.0000 56

#__ type_ start__ end____ width___ exp.time_
 20 omega   86.00  115.00   1.0000   80.0000
omega____ theta____ kappa____ phi______ frames
    -      107.3822   61.0000  120.0000 29

#__ type_ start__ end____ width___ exp.time_
 21 omega   80.00  110.00   1.0000   80.0000
omega____ theta____ kappa____ phi______ frames
    -      107.3822   61.0000  150.0000 30

#__ type_ start__ end____ width___ exp.time_
 22 omega  123.00  175.00   1.0000   80.0000
omega____ theta____ kappa____ phi______ frames
    -      107.3822   77.0000  120.0000 52

#__ type_ start__ end____ width___ exp.time_
 23 omega   82.00  109.00   1.0000   80.0000
omega____ theta____ kappa____ phi______ frames
    -      107.3822   77.0000   90.0000 27

#__ type_ start__ end____ width___ exp.time_
 24 omega   77.00  104.00   1.0000   80.0000
omega____ theta____ kappa____ phi______ frames
    -      107.3822   77.0000 -180.0000 27

#__ type_ start__ end____ width___ exp.time_
 25 omega   36.00   84.00   1.0000   80.0000
omega____ theta____ kappa____ phi______ frames
    -      107.3822  -30.0000   60.0000 48

#__ type_ start__ end____ width___ exp.time_
 26 omega   84.00  126.00   1.0000   80.0000
omega____ theta____ kappa____ phi______ frames
    -      107.3822   45.0000 -180.0000 42

#__ type_ start__ end____ width___ exp.time_
 27 omega   83.00  110.00   1.0000   80.0000
omega____ theta____ kappa____ phi______ frames
    -      107.3822   45.0000  120.0000 27

#__ type_ start__ end____ width___ exp.time_
 28 omega   85.00  112.00   1.0000   80.0000
omega____ theta____ kappa____ phi______ frames
    -      107.3822   45.0000  150.0000 27

#__ type_ start__ end____ width___ exp.time_
 29 omega  148.00  175.00   1.0000   80.0000
omega____ theta____ kappa____ phi______ frames
    -      107.3822  125.0000  -90.0000 27
;
_diffrn_measurement_device       '\k-geometry diffractometer'
_diffrn_measurement_device_type  'SuperNova, Dual, Cu at zero, Atlas'
_diffrn_measurement_method       '\w scans'
_diffrn_measurement_specimen_support 'MiTeGen micromount'
_diffrn_orient_matrix_UB_11      0.1661680000
_diffrn_orient_matrix_UB_12      0.0883434000
_diffrn_orient_matrix_UB_13      0.0391396000
_diffrn_orient_matrix_UB_21      -0.0187875000
_diffrn_orient_matrix_UB_22      -0.0528507000
_diffrn_orient_matrix_UB_23      0.1188740000
_diffrn_orient_matrix_UB_31      0.0603316000
_diffrn_orient_matrix_UB_32      -0.2591200000
_diffrn_orient_matrix_UB_33      -0.0107589000
_diffrn_radiation_collimation    'focusing mirrors'
_diffrn_radiation_monochromator  mirror
_diffrn_radiation_probe          x-ray
_diffrn_radiation_type           CuK\a
_diffrn_radiation_wavelength     1.54184
_diffrn_reflns_av_R_equivalents  0.0624
_diffrn_reflns_av_unetI/netI     0.0710
_diffrn_reflns_Laue_measured_fraction_full 1.000
_diffrn_reflns_Laue_measured_fraction_max 0.989
_diffrn_reflns_limit_h_max       11
_diffrn_reflns_limit_h_min       -10
_diffrn_reflns_limit_k_max       6
_diffrn_reflns_limit_k_min       -6
_diffrn_reflns_limit_l_max       15
_diffrn_reflns_limit_l_min       -15
_diffrn_reflns_number            4795
_diffrn_reflns_point_group_measured_fraction_full 0.967
_diffrn_reflns_point_group_measured_fraction_max 0.942
_diffrn_reflns_theta_full        67.684
_diffrn_reflns_theta_max         74.991
_diffrn_reflns_theta_min         3.604
_diffrn_source                   'microfocus sealed tube'
_diffrn_source_target            Cu
_diffrn_source_type              'Agilent Diffraction microfocus tube'
_exptl_absorpt_coefficient_mu    2.371
_exptl_absorpt_correction_T_max  0.960
_exptl_absorpt_correction_T_min  0.679
_exptl_absorpt_correction_type   gaussian
_exptl_absorpt_process_details
;
CrysAlisPro, Agilent Technologies,
Version 1.171.37.31 (release 14-01-2014 CrysAlis171 .NET)
(compiled Jan 14 2014,18:38:05)
Numerical absorption correction based on gaussian integration over
			a multifaceted crystal model
Empirical absorption correction using spherical harmonics,
 implemented in SCALE3 ABSPACK scaling algorithm.
;
_exptl_crystal_colour            'clear colourless'
_exptl_crystal_colour_lustre     clear
_exptl_crystal_colour_primary    colourless
_exptl_crystal_density_diffrn    1.358
_exptl_crystal_description       needle
_exptl_crystal_F_000             260
_exptl_crystal_size_max          0.4098
_exptl_crystal_size_mid          0.0529
_exptl_crystal_size_min          0.0167
_refine_diff_density_max         0.533
_refine_diff_density_min         -0.463
_refine_diff_density_rms         0.109
_refine_ls_abs_structure_details
;
 Flack x determined using 730 quotients [(I+)-(I-)]/[(I+)+(I-)]
 (Parsons, Flack and Wagner, Acta Cryst. B69 (2013) 249-259).
;
_refine_ls_abs_structure_Flack   0.02(3)
_refine_ls_extinction_method     none
_refine_ls_goodness_of_fit_ref   1.052
_refine_ls_hydrogen_treatment    mixed
_refine_ls_matrix_type           full
_refine_ls_number_parameters     149
_refine_ls_number_reflns         2293
_refine_ls_number_restraints     1
_refine_ls_restrained_S_all      1.052
_refine_ls_R_factor_all          0.0761
_refine_ls_R_factor_gt           0.0678
_refine_ls_shift/su_max          0.000
_refine_ls_shift/su_mean         0.000
_refine_ls_structure_factor_coef Fsqd
_refine_ls_weighting_details
'w=1/[\s^2^(Fo^2^)+(0.1079P)^2^+0.2451P] where P=(Fo^2^+2Fc^2^)/3'
_refine_ls_weighting_scheme      calc
_refine_ls_wR_factor_gt          0.1678
_refine_ls_wR_factor_ref         0.1790
_reflns_Friedel_coverage         0.718
_reflns_Friedel_fraction_full    0.926
_reflns_Friedel_fraction_max     0.883
_reflns_number_gt                2045
_reflns_number_total             2293
_reflns_threshold_expression     'I > 2\s(I)'
_cod_data_source_file            jo8b01258_si_004.cif
_cod_data_source_block           adpcmg
_cod_database_code               4035031
_nottingham_internal_coll_name   ADPCMG
_nottingham_internal_coll_number 13939
_nottingham_internal_coll_client ADP/CJM
_nottingham_internal_coll_type   custom
_nottingham_internal_coll_frame_method 'omega scans'
_nottingham_internal_coll_frame_time '20.0000, 80.0000'
_nottingham_internal_coll_frame_width 1.0000
_nottingham_internal_coll_user   pczwl
_nottingham_internal_coll_date   28/08/2014
_nottingham_internal_coll_location NOTTS
_nottingham_internal_process_date 02/10/2014
_nottingham_internal_process_user pczwl
_nottingham_internal_solution_date 28/8/2014
_nottingham_internal_solution_user pczwl
_nottingham_internal_refinement_date 2/10/2014
_nottingham_internal_refinement_user pczwl
_nottingham_internal_validation_date 3/10/2014
_nottingham_internal_validation_user pczwl
_nottingham_internal_archive_date 3/10/2014
_chemical_oxdiff_formula         'C11 H19 N O4 S'
_chemical_oxdiff_usercomment
'ADPCMG #13939 SN-275 IN FOMBLIN FILM ON A MICROMOUNT FOR ADP/CJM'
_shelx_space_group_comment
;
The symmetry employed for this shelxl refinement is uniquely defined
by the following loop, which should always be used as a source of
symmetry information in preference to the above space-group names.
They are only intended as comments.
;
_reflns_odcompleteness_completeness 100.00
_reflns_odcompleteness_iscentric 1
_reflns_odcompleteness_theta     66.97
_olex2_refinement_description
;
1. Fixed Uiso
 At 1.2 times of:
  All C(H) groups, All C(H,H) groups, All N(H) groups
 At 1.5 times of:
  All C(H,H,H) groups
2.a Ternary CH refined with riding coordinates:
 C3(H3), C5(H5), C10(H10)
2.b Secondary CH2 refined with riding coordinates:
 C2(H2A,H2B), C9(H9A,H9B), C6(H6A,H6B), C7(H7A,H7B), C8(H8A,H8B)
2.c Idealised Me refined as rotating group:
 C16(H16A,H16B,H16C)
;
_shelx_res_file
;
    adpcmg.res created by SHELXL-2014/7

TITL
CELL 1.54184 8.784805 5.523666 12.428719 90 99.3423 90
ZERR 2 0.00082 0.000575 0.001189 0 0.0092 0
LATT -1
SYMM -X,0.5+Y,-Z

SFAC C H N O S
UNIT 22 34 2 6 2
EQIV $1 -X,0.5+Y,1-Z

L.S. 12
PLAN  20
TEMP -153(2)
HTAB N11 O14_$1
fmap 2 53
MORE -1
BOND $H
CONF
acta
REM <HKL>C:/Users/pczwl/Dropbox/Organic/ADPCMG/ADPCMG.hkl</HKL>

WGHT    0.107900    0.245100
FVAR      10.98176
S1    5    0.507488    0.561311    0.372809    11.00000    0.03683    0.03861 =
         0.03146   -0.00741    0.00551   -0.00724
O13   4    0.196703    0.031925    0.309116    11.00000    0.03230    0.02314 =
         0.02366   -0.00026    0.00973   -0.00082
O15   4    0.114388    0.262769    0.154105    11.00000    0.03344    0.03178 =
         0.01847    0.00022    0.00076    0.00103
O14   4    0.035127   -0.060895    0.425735    11.00000    0.04659    0.03256 =
         0.02803    0.00422    0.01491   -0.00079
N11   3    0.072358    0.334445    0.372352    11.00000    0.03671    0.02680 =
         0.02247   -0.00231    0.01189    0.00160
H11   2    0.035824    0.405339    0.420172    11.00000   -1.20000
C12   1    0.093106    0.093879    0.376230    11.00000    0.03146    0.02853 =
         0.01860    0.00230    0.00951    0.00215
C4    1    0.228858    0.243447    0.248152    11.00000    0.03362    0.02250 =
         0.01399    0.00083    0.00365   -0.00425
C3    1    0.193597    0.451007    0.323569    11.00000    0.03198    0.02285 =
         0.01962    0.00221    0.00370    0.00107
AFIX  13
H3    2    0.152734    0.596025    0.280052    11.00000   -1.20000
AFIX   0
C5    1    0.391261    0.214902    0.220601    11.00000    0.02976    0.03165 =
         0.02272   -0.00013    0.00482    0.00192
AFIX  13
H5    2    0.400363    0.043197    0.196947    11.00000   -1.20000
AFIX   0
C10   1    0.518021    0.253618    0.319762    11.00000    0.03395    0.03665 =
         0.02443    0.00622    0.00587   -0.00058
AFIX  13
H10   2    0.500583    0.136882    0.378045    11.00000   -1.20000
AFIX   0
C16   1    0.087963    0.051111    0.089207    11.00000    0.04321    0.03873 =
         0.02637   -0.00977    0.00291   -0.00406
AFIX 137
H16A  2    0.003465    0.080446    0.028775    11.00000   -1.50000
H16B  2    0.060357   -0.083004    0.133934    11.00000   -1.50000
H16C  2    0.181806    0.009603    0.060058    11.00000   -1.50000
AFIX   0
C2    1    0.323138    0.521848    0.414722    11.00000    0.03494    0.02947 =
         0.02210   -0.00336    0.00266    0.00140
AFIX  23
H2A   2    0.332672    0.395440    0.471891    11.00000   -1.20000
H2B   2    0.294508    0.674870    0.447784    11.00000   -1.20000
AFIX   0
C9    1    0.677293    0.209103    0.292204    11.00000    0.03474    0.04369 =
         0.03429    0.00177    0.00498    0.00418
AFIX  23
H9A   2    0.686989    0.036382    0.273150    11.00000   -1.20000
H9B   2    0.755556    0.244087    0.357073    11.00000   -1.20000
AFIX   0
C6    1    0.420608    0.373987    0.125353    11.00000    0.03906    0.04249 =
         0.02455    0.00498    0.00909   -0.00175
AFIX  23
H6A   2    0.409981    0.546556    0.144328    11.00000   -1.20000
H6B   2    0.342902    0.337610    0.060345    11.00000   -1.20000
AFIX   0
C7    1    0.582860    0.328729    0.099056    11.00000    0.04337    0.06272 =
         0.02643    0.00171    0.01271   -0.00570
AFIX  23
H7A   2    0.588818    0.160680    0.072361    11.00000   -1.20000
H7B   2    0.601035    0.439353    0.039766    11.00000   -1.20000
AFIX   0
C8    1    0.709023    0.366634    0.196956    11.00000    0.03150    0.05475 =
         0.03963    0.00082    0.01076   -0.00292
AFIX  23
H8A   2    0.712426    0.539193    0.218743    11.00000   -1.20000
H8B   2    0.810361    0.323245    0.177317    11.00000   -1.20000
AFIX   0
HKLF 4

REM
REM R1 =  0.0678 for    2045 Fo > 4sig(Fo)  and  0.0761 for all    2293 data
REM    149 parameters refined using      1 restraints

END

WGHT      0.1079      0.2452

REM Highest difference peak  0.533,  deepest hole -0.463,  1-sigma level  0.109
Q1    1   0.5203  0.7029  0.3212  11.00000  0.05    0.53
Q2    1   0.4058  0.5615  0.3837  11.00000  0.05    0.52
Q3    1   0.3901  0.2997  0.1833  11.00000  0.05    0.41
Q4    1   0.3236  0.2003  0.2171  11.00000  0.05    0.40
Q5    1   0.5574  0.4431  0.3348  11.00000  0.05    0.40
Q6    1   0.6232  0.5648  0.3728  11.00000  0.05    0.36
Q7    1   0.7887  0.4553  0.1781  11.00000  0.05    0.34
Q8    1   0.2111  0.3529  0.2822  11.00000  0.05    0.34
Q9    1   0.6244  0.5388  0.4577  11.00000  0.05    0.33
Q10   1   0.5069  0.3547  0.1141  11.00000  0.05    0.33
Q11   1   0.1265  0.4203  0.3344  11.00000  0.05    0.32
Q12   1   0.3403  0.0299  0.1889  11.00000  0.05    0.32
Q13   1   0.5973  0.2420  0.3136  11.00000  0.05    0.30
Q14   1   0.3000  0.0630  0.2632  11.00000  0.05    0.30
Q15   1   0.6611  0.4336  0.2513  11.00000  0.05    0.29
Q16   1   0.4280  0.6945  0.3981  11.00000  0.05    0.28
Q17   1   0.3542  0.5145  0.1339  11.00000  0.05    0.28
Q18   1   0.6649  0.0465  0.2343  11.00000  0.05    0.28
Q19   1   0.1401  0.0790  0.0241  11.00000  0.05    0.25
Q20   1   0.7150  0.1325  0.0697  11.00000  0.05    0.25
;
_shelx_res_checksum              73115
_shelx_hkl_file
;
   0  -6   0 24050.2 1485.12  29
   0  -6  -1 903.156 358.528  29
   0  -6   1 1015.13 399.497  29
   0  -6   2 3130.80 494.579  29
   0  -6   2 2950.38 662.745   8
   0  -6  -2 4067.18 675.457  29
   0  -6   3 1295.15 376.029  29
   0  -6   3 742.552 351.407   8
   0  -6   4 1284.74 469.712   8
   0  -6   4 1039.39 234.758  29
   0  -6   5 538.532 287.607   8
   0  -6   6 1083.84 372.086   8
   0  -6   7 1277.31 303.149   8
   0  -5   0-62.3108 374.196  29
   0  -5   0 952.473 528.775   8
   0  -5  -1 2658.22 619.911  29
   0  -5  -1 1661.97 571.866   8
   0  -5   1 1878.29 527.290  29
   0  -5   1 2398.35 458.979   8
   0  -5   2 11167.1 1369.50   8
   0  -5  -2 9843.81 1091.77  29
   0  -5  -3 42930.0 2215.68  29
   0  -5   3 46968.0 2834.51   8
   0  -5   4 12979.9 1019.54  29
   0  -5   4 15202.2 1659.66   8
   0  -5  -4 15195.2 1293.14  29
   0  -5  -5 844.577 359.309  29
   0  -5   5 1043.27 310.287  29
   0  -5   5 1454.51 648.059   8
   0  -5   6 19509.1 1821.76   8
   0  -5   7 19224.0 1830.60   8
   0  -5   8 2018.81 599.747   8
   0  -5   9 3127.47 591.098   8
   0  -5  10 5372.83 575.636   8
   0  -4   0 53710.3 2710.10   8
   0  -4   1 1897.82 509.636   8
   0  -4  -1 1950.16 536.967   8
   0  -4  -2 11618.6 1223.62   8
   0  -4   2 13969.8 1376.14   8
   0  -4   3 13714.7 1449.78   8
   0  -4  -3 12830.1 1141.49  29
   0  -4  -4 51055.7 2235.33  29
   0  -4   4 48501.2 4752.97   2
   0  -4   4 52490.5 2975.02   8
   0  -4   5 3554.63 842.900   8
   0  -4  -5 3350.38 558.934  29
   0  -4   5 3478.71 1498.25   2
   0  -4   6 346.406 453.765   8
   0  -4   7 25745.3 2079.62   8
   0  -4   8 29925.8 2204.02   8
   0  -4   9 11617.2 1312.08   8
   0  -4  10 930.227 454.585   8
   0  -4  11 24047.6 1531.30   8
   0  -4  12 12996.9 909.217   8
   0  -3   0-283.625 360.486   2
   0  -3   1 46993.7 3446.07   2
   0  -3   2 40542.6 3420.06   2
   0  -3   3 5166.67 1348.82   2
   0  -3   3 4713.72 1171.98   3
   0  -3   4 26989.1 3055.19   3
   0  -3   4 22802.2 3034.30   2
   0  -3   5 1495.43 803.479   3
   0  -3   5 1436.18 902.743   2
   0  -3   6 15611.6 2798.02   3
   0  -3   6 13714.5 2581.20   2
   0  -3   6 17617.9 1531.48   8
   0  -3  -6 11875.4 1197.68  18
   0  -3   7 7971.53 2018.72   2
   0  -3   7 7559.28 2098.42   3
   0  -3  -7 5614.76 914.277  18
   0  -3   7 7638.22 1076.19   8
   0  -3   8 7178.84 1111.99   8
   0  -3   8 8390.17 2233.66   3
   0  -3  -8 5264.06 915.204  18
   0  -3  -9 8583.02 1156.25  18
   0  -3   9 10523.3 1278.14   8
   0  -3  10 500.653 428.082   8
   0  -3  11 3644.83 767.354   8
   0  -3  12 1733.72 529.822   8
   0  -3  13 1521.96 340.762   8
   0  -2   0 22116.1 1081.97   3
   0  -2   0 20252.2 1671.15   2
   0  -2   1 107771. 3736.97   3
   0  -2   1 115195. 4652.25   2
   0  -2   2 64020.3 3293.07   3
   0  -2   2 76522.0 3979.75   2
   0  -2   3 151210. 6216.23   2
   0  -2   4 55671.6 3944.75   2
   0  -2   5 6842.75 1554.99   2
   0  -2   6 7339.73 1696.95   3
   0  -2   6 5277.72 1349.10   2
   0  -2   7 14981.0 2744.82   3
   0  -2   7 13225.2 2277.03   2
   0  -2   8 7775.06 953.833   7
   0  -2   8 9209.25 2307.47   3
   0  -2   8 10036.8 2089.46   2
   0  -2  -8 7189.92 1150.27  18
   0  -2   9 11244.7 2523.10   3
   0  -2   9 11879.9 1277.33   7
   0  -2  -9 10614.7 1340.80  18
   0  -2  10 8016.76 1084.95   7
   0  -2  11 5450.10 973.739   8
   0  -2  11 5532.79 934.415   7
   0  -2  12 4468.10 829.332   7
   0  -2  12 4091.60 816.071   8
   0  -2  13 8597.05 995.804   8
   0  -2  14 302.517 195.308   8
   0  -1   0 394.024 185.816   3
   0  -1   0 153.887 213.207   2
   0  -1   1 905821. 13661.1   2
   0  -1   2 85736.3 3612.01   2
   0  -1   3 43920.6 2790.32   2
   0  -1   4 31874.6 2562.45   2
   0  -1   5 102228. 5102.25   2
   0  -1   6 50769.9 3803.71   2
   0  -1   7 10149.7 1866.35   2
   0  -1   8 1053.91 893.653   3
   0  -1   9 30833.4 2011.97   7
   0  -1  -9 28044.9 2083.18  18
   0  -1   9 27853.1 3875.40   3
   0  -1  10 7036.45 1033.18   7
   0  -1  10 6835.82 2109.20   3
   0  -1 -11 2749.67 642.514  13
   0  -1  11 3506.46 806.516   7
   0  -1 -12 3894.89 685.740  13
   0  -1  12 4714.36 843.617   7
   0  -1  13 1734.60 565.723   7
   0  -1 -13 1905.24 385.955  13
   0  -1  14 3773.80 687.540   8
   0  -1  15 1552.75 282.823   8
   0   0   1 79789.6 1727.83   2
   0   0   2 269224. 5184.95   2
   0   0  -2 251890. 4865.57   4
   0   0  -3 113616. 3543.09   4
   0   0   3 118065. 3795.74   2
   0   0   4 451711. 9385.96   2
   0   0  -4 416843. 8780.15   4
   0   0   5 5328.68 1094.46   2
   0   0  -5 5923.84 1017.36   4
   0   0  -6 2630.77 831.311   4
   0   0  -7 2401.66 910.710   4
   0   0   8 2677.95 1259.14   3
   0   0   9 562.784 514.865   3
   0   0   9 366.315 310.128   7
   0   0  -9 909.895 417.832  12
   0   0  -9 546.929 333.749  11
   0   0 -10 4500.23 723.393  12
   0   0  10 4230.36 819.342   7
   0   0 -10 4225.99 809.856  11
   0   0  10 4477.41 1695.23   3
   0   0  11-270.623 384.227   7
   0   0 -11 230.137 241.857  11
   0   0 -12 5023.62 776.349  11
   0   0  12 5192.94 827.720   7
   0   0 -13 12949.6 1229.00  13
   0   0  13 10923.1 1028.41   7
   0   0 -14-71.5581 198.604  13
   0   0  14 112.068 186.592   7
   0   0  15 8832.19 697.307   8
   0   1   0 282.119 275.637   4
   0   1   1 725299. 9988.50   6
   0   1  -1 749365. 10888.9   4
   0   1   2 85914.0 3210.89   5
   0   1   2 94972.4 3261.58   6
   0   1   3 51340.5 2820.73   6
   0   1  -4 31780.5 2582.84   4
   0   1   4 33079.3 2696.24   6
   0   1  -5 103028. 5186.76   4
   0   1  -6 56200.6 4141.96   4
   0   1   7 7395.08 1616.73   3
   0   1  -7 10177.9 1888.47   4
   0   1  -8 1731.97 1182.86   4
   0   1   8 1211.05 742.321   3
   0   1   9 21164.1 1763.16   7
   0   1  -9 27860.7 3613.25   4
   0   1  -9 26391.4 1762.01  12
   0   1   9 19621.4 3249.34   3
   0   1  10 4933.59 858.213   7
   0   1 -10 4283.38 865.391  11
   0   1 -10 5571.32 888.427  12
   0   1  11 1623.77 408.639   7
   0   1 -11 2398.39 626.151  17
   0   1 -11 2425.01 706.762  12
   0   1 -11 2930.52 804.678  11
   0   1 -12 5180.14 939.439  11
   0   1  12 3941.84 692.774   7
   0   1 -12 5019.65 775.144  17
   0   1 -13 2030.35 447.454  17
   0   1 -13 1997.42 590.523  11
   0   1 -14 2678.48 517.702  13
   0   1 -15 1269.56 261.322  13
   0   2   0 14747.3 1498.84   4
   0   2   1 84856.6 3036.89   4
   0   2  -1 112942. 4592.21   4
   0   2  -2 74933.6 4158.78   4
   0   2   2 66752.8 3679.49   6
   0   2   3 165748. 6144.31   6
   0   2  -3 159846. 6757.33   4
   0   2   4 50557.5 3611.21   6
   0   2  -4 50704.0 3962.00   4
   0   2  -5 7543.11 1613.06   4
   0   2   5 5685.70 1477.70   6
   0   2  -6 7894.84 1826.55   4
   0   2  -7 16758.4 2862.33   4
   0   2  -8 12484.7 2461.07   4
   0   2  -8 10668.7 1111.36  12
   0   2  -9 11810.3 1257.25  12
   0   2  -9 13123.8 2669.07   4
   0   2 -10 7927.51 1101.04  11
   0   2 -10 8478.56 1132.04  12
   0   2 -10 5284.16 1684.35   4
   0   2 -11 4984.10 955.777  11
   0   2 -11 4806.10 776.720  17
   0   2 -11 4898.76 898.922  12
   0   2 -12 4576.01 835.409  11
   0   2 -12 4524.14 790.089  12
   0   2 -12 4698.27 641.995  23
   0   2 -12 4989.35 764.788  17
   0   2 -13 9924.58 937.197  17
   0   2 -13 10598.3 1118.89  11
   0   2 -14 582.928 269.476  13
   0   3   0-536.058 313.106   4
   0   3  -1 58049.1 4114.66   4
   0   3   1 65409.0 4585.47   6
   0   3   2 42710.4 3721.09   6
   0   3  -2 39295.2 3716.66   4
   0   3   3 4941.61 1276.64   5
   0   3   3 6659.08 1488.19   6
   0   3  -3 7661.29 1917.03   4
   0   3   4 26601.2 3203.34   6
   0   3  -4 27947.5 3550.25   4
   0   3   5 1912.55 1092.58   6
   0   3  -5 3634.56 1428.53   4
   0   3  -6 16428.9 3086.93   4
   0   3  -7 9300.14 2442.02   4
   0   3  -8 6189.43 976.926  11
   0   3  -8 8392.92 2293.12   4
   0   3  -8 7223.25 1058.82  12
   0   3  -9 10433.1 1270.87  11
   0   3  -9 10273.4 1222.38  12
   0   3 -10 621.875 341.257  11
   0   3 -10 953.887 470.342  12
   0   3 -11 3540.21 736.334  17
   0   3 -11 3068.10 682.194  11
   0   3 -11 2995.20 638.826  12
   0   3 -12 2197.10 554.734  11
   0   3 -12 2312.69 485.769  23
   0   3 -12 2145.58 518.371  17
   0   3 -13 1287.18 337.208  17
   0   3 -13 865.824 273.941  27
   0   4   0 47826.1 4876.53   6
   0   4   1-111.593 886.551   6
   0   4  -2 12608.7 2527.73   4
   0   4   2 14290.8 2664.60   6
   0   4   3 11460.1 2342.01   6
   0   4  -3 12866.5 2724.96   4
   0   4   4 46630.4 5109.51   6
   0   4  -4 57615.2 5875.74   4
   0   4  -5 4850.67 1790.59   4
   0   4  -6 659.555 991.697   4
   0   4  -7 22227.5 1630.01  12
   0   4  -8 27556.7 1788.71  12
   0   4  -8 28104.1 1831.17  11
   0   4  -9 12983.5 1248.47  17
   0   4  -9 12825.9 1198.50  12
   0   4  -9 11515.4 1140.69  11
   0   4 -10 586.969 334.824  17
   0   4 -10 410.499 245.402  11
   0   4 -10 513.326 226.644  12
   0   4 -11 22827.1 1255.67  23
   0   4 -11 25323.6 1410.51  17
   0   4 -12 13372.8 892.405  27
   0   4 -12 14696.2 892.928  17
   0   4 -12 14017.6 789.784  23
   0   5  -7 14565.1 1183.33  27
   0   5  -8 1535.09 334.053  17
   0   5  -8 2626.81 452.343  27
   0   5  -9 2212.83 419.181  27
   0   5  -9 1754.29 382.749  17
   0   5 -10 5659.91 533.803  23
   0   5 -10 4536.72 501.275  27
  -1  -6   6 719.096 231.075   8
  -1  -6   5 1676.38 332.611  29
  -1  -6   5 1558.57 370.471   8
  -1  -6   4 3887.30 496.569  29
  -1  -6   4 3498.50 563.045   8
  -1  -6   3 8844.21 836.882  29
  -1  -6   3 6955.27 827.385   8
  -1  -6   2 4890.76 681.756  29
   1  -6  -1 11078.2 973.313  29
  -1  -6   1 10133.0 964.382  29
   1  -6   0 12987.4 1065.29  29
  -1  -6   0 12694.3 1065.35  29
  -1  -6  -1 2343.03 517.201  29
   1  -6   1 2844.53 544.130  29
   1  -6   1 2524.40 592.094   8
   1  -6   2-44.7585 279.250  29
  -1  -6  -2-222.722 330.085  29
   1  -6   3 3073.78 613.936   8
  -1  -6  -3 3235.72 508.715  29
   1  -6   3 3161.69 446.652  29
   1  -6   4 3569.92 658.349   8
   1  -6   5 9522.18 954.822   8
   1  -6   6 1366.10 362.513   8
   1  -6   7 4007.09 470.340   8
  -1  -5  10 4694.26 544.852   8
  -1  -5   9 9726.32 942.349   8
  -1  -5   8 856.036 370.285   8
  -1  -5   7 3383.86 687.392   8
  -1  -5   6 3208.91 687.259   8
  -1  -5   5 9162.09 1179.36   8
  -1  -5   4 341.638 427.118   8
   1  -5  -4 347.097 435.192  29
  -1  -5   3 3968.88 761.873   8
   1  -5  -3 4812.26 763.101  29
  -1  -5   2 11754.2 1358.68   8
   1  -5  -2 13552.1 1299.47  29
   1  -5  -1 11269.2 1154.75  29
   1  -5  -1 11510.0 1309.33   8
  -1  -5   1 10386.0 1238.89   8
  -1  -5   0 8698.86 1146.79   8
   1  -5   0 10394.4 1089.87  29
   1  -5   0 11448.9 1276.38   8
   1  -5   1 14049.5 1522.06   8
   1  -5   1 10282.9 1030.22  29
   1  -5   2 6088.36 1045.46   8
  -1  -5  -2 4743.64 867.920  29
   1  -5   2 4998.44 788.120  29
   1  -5   3 6119.67 752.116  29
  -1  -5  -3 5782.16 862.081  29
   1  -5   3 6813.73 1013.47   8
  -1  -5  -4 5168.50 759.625  29
   1  -5   4 4879.01 631.261  29
   1  -5   4 4806.53 872.521   8
   1  -5   5 16638.3 1638.13   8
  -1  -5  -5 13971.7 1164.48  29
   1  -5   6 8702.00 1189.62   8
   1  -5   7 6932.46 1004.10   8
   1  -5   8 1070.70 471.014   8
   1  -5   9 5461.10 650.661   8
   1  -5  10 5003.63 523.233   8
  -1  -4  12 359.212 222.463   8
  -1  -4  12-0.11638 144.098  25
  -1  -4  11 3299.91 680.894   8
  -1  -4  10 1394.78 526.694   8
  -1  -4   9 2012.87 932.425   8
  -1  -4   8-390.806 647.472   8
  -1  -4   7 7037.33 1192.46   8
  -1  -4   6 225.421 435.532   8
   1  -4  -5 10847.4 1053.00  29
  -1  -4   5 8553.17 2202.46   2
  -1  -4   5 10714.4 1354.51   8
  -1  -4   4 20266.2 3162.48   2
  -1  -4   4 18674.2 1473.16  25
   1  -4  -4 23382.4 1528.68  29
  -1  -4   4 24246.9 2001.16   8
  -1  -4   3 24846.6 1915.06   8
   1  -4  -3 23666.4 1544.17  29
   1  -4  -2 8489.27 887.990  29
   1  -4  -2 9010.42 1107.59   8
  -1  -4   2 7219.01 992.575   8
   1  -4  -1 64986.4 2973.60   8
  -1  -4   1 59993.2 2769.75   8
   1  -4  -1 62838.0 2451.60  29
  -1  -4   0 5704.81 842.683   8
   1  -4   0 6493.19 927.466   8
  -1  -4  -1 5064.25 760.815   8
   1  -4   1 6344.25 898.225   8
  -1  -4  -2 917.756 392.614   8
   1  -4   2 923.201 450.131   8
   1  -4   3 7224.06 1054.89   8
  -1  -4  -4 3058.29 553.245  29
   1  -4   4 4161.14 847.507   8
   1  -4   5 10346.0 1317.30   8
   1  -4   6 2740.49 710.998   8
  -1  -4  -6 1678.70 519.461  18
  -1  -4  -7 1808.09 572.868  18
   1  -4   7 1366.78 699.389   8
  -1  -4  -8 6969.71 963.106  18
   1  -4   8 9324.84 1186.60   8
   1  -4   9 4404.32 807.700   8
  -1  -4  -9 2664.01 648.382  18
   1  -4  10 8488.06 977.107   8
   1  -4  11 4749.85 624.621   8
   1  -4  12 1924.09 312.336   8
  -1  -3  13 10780.5 961.242   8
  -1  -3  12 1802.68 526.601   8
  -1  -3  11 7973.54 1125.95   8
  -1  -3  10 34775.4 2443.20   8
  -1  -3   9 4578.44 988.759   8
  -1  -3   8 5444.93 1802.07   2
  -1  -3   8 5565.93 1136.69   8
   1  -3  -8 4034.04 882.938  18
  -1  -3   8 2557.92 1237.82   3
  -1  -3   7 10083.0 1410.40   8
  -1  -3   7 9732.08 2230.68   2
  -1  -3   7 9112.29 2190.50   3
  -1  -3   6 17640.3 2870.87   2
  -1  -3   6 17149.1 1620.78   8
  -1  -3   6 14659.8 2611.31   3
  -1  -3   5 7711.61 1840.67   3
  -1  -3   5 7464.88 1904.86   2
  -1  -3   4 63751.9 5203.13   2
  -1  -3   4 56273.2 4455.84   3
  -1  -3   3 23314.8 2989.01   2
  -1  -3   2 102549. 5914.71   2
  -1  -3   1 60931.9 4339.38   2
  -1  -3   0 2487.62 868.897   2
  -1  -3  -1 17739.5 1978.05   2
   1  -3   1 19373.1 2131.34   2
   1  -3   2 86374.0 5118.83   2
   1  -3   3 73588.5 5096.00   2
   1  -3   3 87678.0 5337.91   3
   1  -3   4 18117.7 2631.48   3
   1  -3   4 15559.1 2457.46   2
   1  -3   5 75810.5 5754.31   2
   1  -3   5 84717.5 6358.13   3
   1  -3   5 70159.0 3085.45   8
   1  -3   6 76108.2 3074.49   7
   1  -3   6 76715.4 3299.21   8
  -1  -3  -6 69899.8 3233.90  18
   1  -3   7 6107.47 1847.70   3
  -1  -3  -7 3565.56 820.935  18
   1  -3   7 4092.49 677.337   7
   1  -3   7 4998.47 783.406   8
   1  -3   8 23573.1 1733.09   7
  -1  -3  -8 20764.6 1829.83  18
   1  -3   8 22786.8 1883.71   8
   1  -3   9 2718.31 673.896   7
  -1  -3  -9 1972.16 675.206  18
   1  -3   9 2806.12 792.261   8
  -1  -3 -10 4274.44 867.244  18
   1  -3  10 4444.73 792.216   8
   1  -3  11 12734.3 1249.35   8
   1  -3  12 7616.34 829.188   8
   1  -3  13 621.170 248.023   8
  -1  -2  14 2949.93 517.148   8
  -1  -2  13-103.870 347.855   8
  -1  -2  12 8196.21 1135.70   8
  -1  -2  11 296.298 365.530   7
  -1  -2  10 23312.4 1835.32   7
  -1  -2   9 58.8569 344.552   7
  -1  -2   9-572.255 822.113   2
  -1  -2   9 267.181 670.764   3
  -1  -2   8 44977.3 2344.43   7
  -1  -2   8 46542.6 4714.59   2
   1  -2  -8 43201.9 2403.00  18
  -1  -2   7 23506.0 3158.29   2
  -1  -2   6 55978.0 4558.24   2
  -1  -2   5 113341. 6223.51   2
  -1  -2   4 188353. 7799.80   2
  -1  -2   3 68443.1 4394.63   2
  -1  -2   2 78777.4 4424.86   2
  -1  -2   1 180431. 6245.58   2
   1  -2   0 31633.7 2101.01   2
  -1  -2   0 30228.3 2367.00   2
   1  -2   1 68922.2 2233.10   1
   1  -2   1 72563.7 3630.31   2
   1  -2   2 41782.6 2997.11   2
   1  -2   2 50797.9 3491.19   3
   1  -2   3 16201.7 2108.78   3
   1  -2   3 13811.5 1955.46   2
   1  -2   4 26338.7 2778.11   2
   1  -2   4 25497.3 2842.66   3
   1  -2   5 101724. 5897.44   2
   1  -2   5 100038. 6063.39   3
   1  -2   6 8102.48 1900.99   3
   1  -2   6 6494.91 1626.66   2
   1  -2   7 3756.02 699.462   7
   1  -2   7 3078.42 1343.91   3
  -1  -2  -7 3343.12 728.077  18
   1  -2   8 44306.3 2350.40   7
   1  -2   8 48966.3 5351.10   3
  -1  -2  -8 38887.5 2513.49  18
   1  -2   9 148963. 10159.5   3
   1  -2   9 136840. 4546.77   7
   1  -2   9 132884. 4545.26   8
  -1  -2  -9 137632. 4959.77  18
  -1  -2 -10 5984.01 1175.10  18
   1  -2  10 6233.02 989.912   8
   1  -2  10 6304.93 1029.85   7
   1  -2  11 20021.9 1618.02   8
   1  -2  11 19842.6 1677.08   7
   1  -2  12 5376.84 824.581   7
   1  -2  12 5332.33 782.765   8
   1  -2  13 3374.88 558.038   8
   1  -2  14 2718.56 399.765   8
  -1  -1  15-259.915 217.863   8
  -1  -1  14 11284.7 1037.99   8
   1  -1 -13 16369.5 1378.86  13
   1  -1 -12 6368.20 969.313  13
  -1  -1  12 6866.58 947.173   7
  -1  -1  11 1003.72 538.455   7
   1  -1 -11 458.019 412.179  13
  -1  -1  10 16159.2 3108.76   3
  -1  -1  10 14885.0 1417.20   7
   1  -1 -10 12818.2 1303.26  13
  -1  -1   9 20801.5 3239.66   2
  -1  -1   9 21518.9 1625.19   7
  -1  -1   8 4105.35 1307.43   2
  -1  -1   7 10038.8 1931.38   2
  -1  -1   6 33994.8 3167.06   2
   1  -1  -5 69532.9 2666.49   4
  -1  -1   5 84944.9 4729.87   2
  -1  -1   4 8272.70 1453.81   2
  -1  -1   3 347876. 8869.06   2
  -1  -1   2 20450.2 1796.50   2
   1  -1  -1 59045.8 1969.60   1
   1  -1   0 43334.2 1731.32   1
   1  -1   0 52392.5 2192.89   3
   1  -1   1 280601. 6566.88   2
   1  -1   1 338239. 7313.68   3
   1  -1   2 186579. 5818.25   3
   1  -1   2 177260. 5442.88   2
   1  -1   3 281170. 8002.25   3
   1  -1   3 278753. 7695.90   2
   1  -1   4 16092.3 2031.38   3
   1  -1   4 15128.2 1894.39   2
   1  -1   5 31188.7 3071.98   3
   1  -1   5 31364.2 2919.12   2
   1  -1   6 40717.8 3771.82   3
   1  -1   7 63372.4 5238.92   3
  -1  -1  -8 38564.3 2321.56  18
   1  -1   8 41076.4 4503.03   3
   1  -1   8 40298.0 2298.27   7
   1  -1   9 20329.1 1771.63   7
  -1  -1  -9 19632.7 1786.19  18
   1  -1   9 23048.6 3766.20   3
   1  -1  10 64864.5 3141.69   7
   1  -1  11 15405.2 1526.56   7
   1  -1  12 507.889 412.919   7
   1  -1  13 131.541 268.082   8
   1  -1  13 722.864 355.971   7
   1  -1  14 3992.05 534.943   8
   1  -1  14 3886.29 543.389   7
   1   0 -15 621.339 247.661  13
  -1   0  15 455.569 183.524   8
   1   0 -14 3754.06 677.287  13
  -1   0  13 1864.45 464.841   7
   1   0 -13 2030.22 539.646  13
  -1   0  12 229.105 305.167   7
   1   0 -12 650.352 480.554  13
   1   0 -12 956.536 469.369  11
  -1   0  11 6339.10 889.219   7
   1   0 -11 6940.82 855.900  17
   1   0 -11 6620.30 969.926  11
  -1   0  10 1277.99 483.100   7
   1   0 -10 605.033 271.186  17
   1   0 -10 1008.98 498.568  11
  -1   0  10-135.370 1265.42   3
   1   0  -9 99.8056 289.303  11
   1   0  -9 367.825 314.561  17
  -1   0   9 252.473 246.697   7
   1   0  -9 489.562 336.919  12
   1   0  -8 7754.14 1433.55   4
  -1   0   7 21737.8 2539.52   2
   1   0  -7 22855.9 2305.72   4
  -1   0   6 9414.06 1485.35   2
   1   0  -6 8682.61 1345.30   4
  -1   0   5 405.088 454.288   2
   1   0  -5 345.194 458.340   4
   1   0  -4 1717.63 528.307   4
  -1   0   4 2502.95 671.372   2
  -1   0   3 5016.54 842.999   2
   1   0  -3 4706.01 706.693   4
  -1   0   2 1261.15 370.286   2
   1   0  -1 169777. 3458.40   1
   1   0  -1 157170. 2460.50   6
   1   0   0 52768.1 1851.66   3
   1   0   1 322762. 6452.03   3
   1   0   2 187960. 5257.32   3
   1   0   3 80625.6 3823.31   3
   1   0   4 831.414 742.651   3
   1   0   5 5125.57 1321.85   3
  -1   0  -6 2375.84 855.466   4
   1   0   6 5203.84 1522.05   3
   1   0   7 41360.5 4227.92   3
  -1   0  -7 39874.1 3582.15   4
   1   0   8 22940.4 3350.54   3
  -1   0  -9 3630.35 630.637  12
   1   0   9 3493.41 749.291   7
   1   0   9 3539.38 1333.13   3
   1   0  10 19083.0 3486.03   3
  -1   0 -10 17659.6 1593.05  11
  -1   0 -10 17281.8 1464.84  12
   1   0  10 22285.7 2236.79   7
   1   0  11 2472.37 671.966   7
  -1   0 -11 2600.98 651.719  11
   1   0  12 41572.1 2395.87   7
  -1   0 -12 42598.9 2268.01  11
  -1   0 -13 1536.31 400.466  11
   1   0  13 1132.29 388.559   7
  -1   0 -13 1522.18 449.925  13
   1   0  14 485.504 280.681   7
   1   0  14 123.113 183.755   8
   1   1 -15 386.067 202.195  13
   1   1 -14 12988.6 1161.11  13
   1   1 -13 17846.3 1301.46  17
   1   1 -12 7475.65 919.227  17
   1   1 -12 7497.48 1078.27  11
   1   1 -11 795.584 426.869  17
   1   1 -11 1098.46 444.353  23
   1   1 -11-179.238 401.265  11
   1   1 -10 15829.7 1507.37  12
   1   1 -10 14827.1 1497.94  11
   1   1 -10 15937.4 1189.27  23
   1   1 -10 14159.4 1326.78  17
   1   1  -9 27091.8 3486.01   4
   1   1  -9 24931.5 1802.04  11
   1   1  -9 24070.9 1604.34  17
   1   1  -9 25672.8 1720.12  12
   1   1  -8 4422.46 1201.56   4
   1   1  -7 9133.89 1877.07   4
   1   1  -6 39049.7 3331.66   4
   1   1  -5 86277.1 4650.35   4
  -1   1   4 9337.56 1071.25   6
   1   1  -4 8859.31 1421.95   4
  -1   1   3 354347. 6891.16   6
  -1   1   2 22059.2 1262.48   6
   1   1  -1 61497.8 1952.17   1
   1   1  -1 64678.2 2734.87   4
   1   1   0 46639.3 1742.46   1
   1   1   0 37401.6 1818.12   4
   1   1   1 271126. 5366.80   4
   1   1   1 263279. 4717.83   3
   1   1   2 188811. 5803.82   5
   1   1   2 197038. 5877.74   6
   1   1   3 281895. 8080.86   5
   1   1   3 317013. 8347.09   6
   1   1   4 13288.1 1614.57   3
   1   1   4 19185.4 2297.57   6
   1   1   5 26884.7 2672.23   3
  -1   1  -5 36988.2 3328.63   4
  -1   1  -6 48470.0 4102.71   4
   1   1   6 39658.4 3589.88   3
  -1   1  -7 63367.7 5041.74   4
   1   1   7 55057.2 4698.73   3
   1   1   8 35382.8 4286.77   3
  -1   1  -8 35380.9 4084.79   4
   1   1   8 38890.4 2404.88   7
  -1   1  -9 21138.0 3245.36   4
   1   1   9 20988.1 1805.33   7
  -1   1  -9 22120.9 1671.94  12
  -1   1 -10 68284.8 3147.57  12
   1   1  10 66725.3 3366.60   7
   1   1  11 11642.8 1352.77   7
  -1   1 -11 10986.9 1159.09  17
  -1   1 -11 11802.3 1353.73  11
  -1   1 -11 12274.8 1315.93  12
  -1   1 -12 440.380 340.010  11
  -1   1 -12 826.083 352.860  17
  -1   1 -12 417.701 402.616  12
   1   1  12 468.651 388.838   7
  -1   1 -13 81.7307 304.796  11
   1   1  13 292.956 225.417   7
  -1   1 -14 5120.58 631.329  13
   1   2 -14 1906.70 432.078  13
   1   2 -13 406.718 285.149  27
   1   2 -13 403.051 263.031  23
   1   2 -13 725.821 304.015  17
   1   2 -12 6840.79 1066.14  11
   1   2 -12 6509.25 893.759  17
   1   2 -12 6187.92 769.388  23
   1   2 -11-43.7589 410.353  11
   1   2 -11 552.522 358.209  17
   1   2 -11-549.991 430.698  23
   1   2 -11 1020.54 591.103  12
   1   2 -10 23312.8 1886.46  11
   1   2 -10 20433.5 3514.16   4
   1   2 -10 22324.4 1725.81  17
   1   2 -10 22414.5 1798.08  12
   1   2  -9 292.682 448.443  12
   1   2  -9-507.363 802.019   4
   1   2  -9-16.2068 287.697  11
   1   2  -8 48922.8 5070.05   4
   1   2  -8 46668.3 2304.17  12
   1   2  -8 43179.2 2349.96  11
   1   2  -7 22898.1 3192.95   4
   1   2  -6 56930.6 4778.65   4
   1   2  -5 116183. 6375.92   4
  -1   2   5 108011. 5251.13   6
   1   2  -4 176348. 7439.51   4
  -1   2   4 175539. 6269.08   6
   1   2  -3 70430.5 4260.07   4
  -1   2   3 73075.9 3643.26   6
   1   2  -2 77373.1 4162.79   4
  -1   2   2 70262.5 2879.81   5
   1   2  -1 173040. 5629.07   4
   1   2   0 36586.8 2294.09   4
   1   2   1 70061.7 2229.83   1
   1   2   1 66785.2 2887.94   4
   1   2   2 45832.9 3329.81   6
   1   2   3 13707.2 2056.33   6
   1   2   3 13859.9 2051.68   5
   1   2   4 31677.7 3261.65   6
  -1   2  -4 35568.5 3492.75   4
   1   2   4 30023.5 3143.05   5
  -1   2  -5 107589. 6532.72   4
   1   2   5 104248. 6386.85   6
  -1   2  -6 6472.04 1694.19   4
  -1   2  -7 5937.61 1739.91   4
   1   2   8 31842.6 2246.93   7
  -1   2  -8 41449.0 4869.18   4
   1   2   9 121448. 4628.56   7
  -1   2  -9 133018. 9306.19   4
  -1   2  -9 135628. 4555.17  12
   1   2  10 4537.32 862.850   7
  -1   2 -10 6439.26 990.876  12
   1   2  11 13918.8 1351.62   7
  -1   2 -11 18659.9 1614.68  12
  -1   2 -11 18913.9 1678.17  11
  -1   2 -12 4368.23 818.897  11
  -1   2 -12 3415.32 645.550  17
  -1   2 -12 4228.66 783.075  12
  -1   2 -13 3782.31 655.277  11
  -1   2 -13 3045.25 500.889  17
  -1   2 -14 1901.97 338.860  13
   1   3 -13 10180.5 835.434  17
   1   3 -13 7870.99 659.381  23
   1   3 -13 7715.92 831.946  13
   1   3 -13 8478.39 789.098  27
   1   3 -12 1688.37 473.667  27
   1   3 -12 1653.77 395.978  23
   1   3 -12 1549.91 424.224  17
   1   3 -11 7390.71 1064.53  11
   1   3 -11 8461.78 991.441  17
   1   3 -11 7060.14 890.868  23
   1   3 -10 32814.8 2239.36  11
   1   3 -10 33514.8 2035.17  17
   1   3 -10 32738.3 2081.39  12
   1   3  -9 1785.54 555.228  12
   1   3  -9 2134.72 573.052  17
   1   3  -9 2709.24 782.687  11
   1   3  -8 4481.07 811.059  11
   1   3  -8 5532.62 868.485  12
   1   3  -8 5141.83 1868.70   4
   1   3  -7 9143.56 986.656  12
   1   3  -7 8605.39 1091.62  11
   1   3  -7 12290.8 2946.48   4
   1   3  -6 12053.4 1153.16  11
   1   3  -6 17918.5 3071.74   4
   1   3  -5 12907.0 2523.63   4
  -1   3   4 68247.3 4825.44   6
   1   3  -4 74791.7 5622.99   4
  -1   3   3 25758.0 2786.49   6
   1   3  -3 26346.8 3125.18   4
   1   3  -2 112163. 6067.35   4
  -1   3   2 130896. 6363.69   6
   1   3  -1 67006.2 4206.19   4
  -1   3   1 55594.5 3471.56   4
  -1   3   0 1296.46 592.105   4
   1   3   0 2111.98 739.258   4
   1   3   0 2088.49 1027.72   6
   1   3   1 19968.5 2674.77   6
  -1   3  -1 22506.0 2717.27   4
  -1   3  -2 94817.8 6166.05   4
   1   3   2 89367.2 5711.95   6
  -1   3  -3 80106.7 6057.95   4
   1   3   3 81878.3 5758.49   6
   1   3   3 66618.5 5072.53   5
   1   3   4 14957.7 2527.64   6
   1   3   4 12605.7 2268.45   5
  -1   3  -4 17353.1 2924.33   4
   1   3   5 63800.2 5679.80   6
  -1   3  -5 87956.2 6940.23   4
  -1   3  -6 89378.8 7228.59   4
   1   3   6 68328.5 6189.66   6
  -1   3  -7 7729.03 2188.78   4
  -1   3  -8 26577.1 4258.33   4
  -1   3  -9 3780.75 875.233  12
  -1   3 -10 3053.87 750.731  12
  -1   3 -10 3428.81 714.950  11
  -1   3 -11 12492.2 1176.94  12
  -1   3 -11 12797.7 1263.58  11
  -1   3 -11 11547.9 1150.10  17
  -1   3 -12 7079.70 761.966  17
  -1   3 -12 6424.42 620.363  23
  -1   3 -12 6759.69 819.433  11
  -1   3 -12 7119.82 817.653  12
  -1   3 -13-67.5055 156.443  17
  -1   3 -13 312.203 223.375  11
  -1   3 -13-117.265 210.834  27
   1   4 -12-56.2538 239.918  17
   1   4 -12 695.754 286.487  23
   1   4 -12 636.541 257.083  27
   1   4 -11 1045.64 369.835  17
   1   4 -11 877.788 353.447  23
   1   4 -11 718.123 273.860  27
   1   4 -10 2941.36 560.440  17
   1   4 -10 1386.05 452.171  27
   1   4  -9 237.686 207.521  12
   1   4  -9 261.573 254.282  11
   1   4  -8 764.484 390.541  11
   1   4  -8 833.623 473.996  17
   1   4  -7 4065.90 732.360  17
   1   4  -6-105.143 581.202   4
   1   4  -5 11398.1 2515.78   4
   1   4  -4 25241.2 3674.04   4
   1   4  -3 19861.8 3081.64   4
  -1   4   3 19336.7 3047.44   6
   1   4  -2 10638.2 2122.91   4
   1   4  -2 8248.67 2112.06   6
  -1   4   2 7059.69 1816.77   6
  -1   4   1 58550.7 5328.75   6
   1   4  -1 70122.6 5982.82   6
   1   4   0 6860.71 1934.47   6
   1   4   1 6798.93 1892.52   6
   1   4   2 606.014 662.183   6
  -1   4  -2 2672.99 1166.10   4
   1   4   3 4580.44 1597.01   6
  -1   4  -3 6037.96 1868.40   4
  -1   4  -4 6010.97 1883.72   4
   1   4   4 2609.74 1398.41   6
   1   4   5 3254.67 1312.56   6
  -1   4  -5 9532.61 2589.91   4
  -1   4  -7 756.810 294.635  11
  -1   4  -8 8627.81 1044.92  11
  -1   4  -8 8108.11 1063.61  12
  -1   4  -9 2289.33 548.744  12
  -1   4  -9 2120.40 497.530  11
  -1   4 -10 7670.01 874.576  12
  -1   4 -10 8634.04 919.136  17
  -1   4 -10 6985.68 840.276  11
  -1   4 -11 5392.46 619.089  12
  -1   4 -11 5004.66 623.428  17
  -1   4 -11 4511.96 566.115  11
  -1   4 -12 1373.02 240.041  23
  -1   4 -12 1192.32 271.994  27
  -1   4 -12 1254.57 266.258  17
   1   5 -10 5522.13 554.275  23
   1   5 -10 4605.94 504.868  27
   1   5  -9 10915.5 857.095  23
   1   5  -9 9814.45 869.881  27
   1   5  -8 470.426 302.178  27
   1   5  -7 4130.56 650.008  27
  -1   5  -7 4963.42 670.329  17
  -1   5  -8 93.0590 214.919  17
  -1   5  -9 4233.84 499.077  17
  -1   5  -9 3887.19 513.618  27
  -1   5 -10 5703.70 494.172  23
  -2  -6   5 839.695 251.856  29
  -2  -6   4 7029.78 660.039  29
  -2  -6   3 3931.30 583.125  29
  -2  -6   2-159.494 278.521  29
  -2  -6   1 160.646 323.878  29
  -2  -6   0 4251.46 656.181  29
  -2  -6  -1 5918.96 706.481  29
   2  -6   2 332.757 307.816   8
  -2  -6  -2 1086.15 406.849  29
  -2  -6  -3 1950.60 373.788  29
   2  -6   3 2328.49 523.811   8
   2  -6   4 11986.8 1035.54   8
   2  -6   5 1222.48 370.075   8
   2  -6   6 1154.78 285.776   8
  -2  -5   9 5284.87 634.452   8
  -2  -5   8 2844.97 560.683   8
  -2  -5   8 1870.39 407.037  25
  -2  -5   7 3435.35 624.470  25
  -2  -5   7 3479.33 645.723   8
  -2  -5   6 5400.76 768.440  25
  -2  -5   6 6872.51 920.675   8
  -2  -5   5 11305.4 1195.22   8
  -2  -5   5 11007.9 1091.59  25
  -2  -5   4 3429.19 652.927   8
  -2  -5   3 3655.88 756.518   8
   2  -5  -3 4490.97 784.956  29
   2  -5  -2 28282.3 1833.80  29
   2  -5  -1 23616.2 2051.85   8
   2  -5  -1 22657.5 1568.33  29
   2  -5   0 6550.39 952.590  29
   2  -5   0 5011.56 970.561   8
   2  -5   1 9058.24 977.088  29
   2  -5   1 7639.32 1222.67   8
   2  -5   2 12405.5 1440.80   8
   2  -5   2 11407.5 1035.72  29
   2  -5   3 6131.36 1015.21   8
   2  -5   3 4979.26 670.733  29
  -2  -5  -3 4814.79 741.687  29
   2  -5   4 1452.37 538.124   8
  -2  -5  -4 2166.38 511.492  29
   2  -5   4 1874.75 414.350  29
   2  -5   5 3433.55 769.215   8
   2  -5   6 395.412 329.377   8
   2  -5   7 13631.7 1221.45   8
   2  -5   8 4725.82 656.721   8
   2  -5   9 4216.48 507.391   8
  -2  -4  12 7647.13 667.239  25
  -2  -4  12 7354.80 655.122   8
  -2  -4  11 19764.7 1332.14   8
  -2  -4  11 17508.9 1239.81  25
  -2  -4  10 7355.23 936.950   8
  -2  -4   9 225.137 332.876   8
  -2  -4   8 7507.26 1143.48   8
  -2  -4   7 36231.0 2455.14   8
  -2  -4   6 15936.6 1576.62   8
  -2  -4   5 1085.42 407.753   9
  -2  -4   5 1548.51 1493.68   2
  -2  -4   5 739.251 548.626  25
  -2  -4   5 163.492 274.084   8
   2  -4  -4 16090.2 1331.59  29
  -2  -4   4 16307.8 1367.38   9
  -2  -4   4 14323.4 1329.33  25
  -2  -4   4 12277.9 2568.30   2
  -2  -4   4 14854.4 1437.88   8
  -2  -4   3 22345.4 1582.11  25
  -2  -4   3 20969.6 1645.21   8
  -2  -4   3 23490.4 1616.23   9
   2  -4  -3 23159.7 1868.44   8
  -2  -4   3 20227.9 3142.07   2
   2  -4  -3 24621.3 1603.93  29
   2  -4  -2 9765.46 1035.91  29
  -2  -4   2 6789.68 886.986  25
   2  -4  -2 8740.51 1196.85   8
  -2  -4   2 7709.79 954.558   9
   2  -4  -1 3869.30 752.296   8
   2  -4  -1 4816.10 690.377  29
  -2  -4   1 3069.42 626.015  25
   2  -4   0 17396.2 1590.35   8
   2  -4   0 18285.2 1272.80  29
   2  -4   1 12131.2 1300.85   8
   2  -4   1 11601.8 1019.39  29
   2  -4   2 4635.15 856.495   8
   2  -4   2 3170.84 540.497  29
   2  -4   3 7727.87 1070.15   8
  -2  -4  -3 5752.63 901.010  18
   2  -4   3 7025.11 707.407  29
   2  -4   4 23658.4 1932.34   8
  -2  -4  -4 22473.8 1899.11  18
   2  -4   5 9130.45 1225.47   8
  -2  -4  -5 7065.90 1082.61  18
   2  -4   6 22809.9 1932.81   8
  -2  -4  -6 20882.0 1792.45  18
   2  -4   7 12114.1 1305.38   8
  -2  -4  -7 9473.21 1233.36  18
   2  -4   8 41038.7 2370.01   8
  -2  -4  -8 33385.2 2212.50  18
  -2  -4  -9 6336.35 876.091  18
   2  -4   9 7381.72 895.226   8
   2  -4  10 1001.81 336.221   8
   2  -4  11 3620.83 472.081   8
  -2  -3  14 2117.02 315.109  25
  -2  -3  13 679.813 313.184   8
  -2  -3  12 968.202 418.423   8
  -2  -3  11 4194.01 866.374   8
  -2  -3  10 4101.88 833.918   8
  -2  -3   9 1429.92 580.758   8
  -2  -3   8 1367.13 938.545   2
  -2  -3   8 1237.50 830.027   3
  -2  -3   8 1561.22 537.772   8
  -2  -3   7 4420.63 1359.79   2
  -2  -3   7 4187.30 891.450   8
  -2  -3   6 1242.70 530.798   8
  -2  -3   6 1169.33 975.911   2
  -2  -3   6 820.328 279.029   9
  -2  -3   5 10865.8 2332.89   2
  -2  -3   4 2717.30 1124.93   2
  -2  -3   3 46771.0 4706.08   2
  -2  -3   2 47460.6 4420.85   2
  -2  -3   1 10931.4 1997.87   2
  -2  -3   0 17709.8 2298.08   2
  -2  -3  -1 25948.9 2743.31   2
   2  -3   2 51027.0 4162.43   3
   2  -3   3 3410.92 1139.45   3
   2  -3   4 3205.33 574.672  10
   2  -3   4 2567.91 592.855   8
   2  -3   4 3625.51 1516.63   3
   2  -3   5 28712.2 1833.81   7
   2  -3   5 32428.5 2064.12   8
  -2  -3  -5 29958.1 2126.56  18
   2  -3   5 35668.9 4347.63   3
   2  -3   6 23361.3 1723.30   7
   2  -3   6 28016.4 4115.55   3
  -2  -3  -6 21993.4 1884.75  18
   2  -3   6 25413.4 1907.64   8
  -2  -3  -7 30822.7 2429.22  18
   2  -3   7 33763.8 2159.11   7
   2  -3   7 35814.5 2318.44   8
   2  -3   7 34035.3 4672.67   3
   2  -3   8 440.615 399.962   8
  -2  -3  -8 743.392 598.189  18
   2  -3   8 701.648 594.629   7
  -2  -3  -9 3377.74 870.930  18
   2  -3   9 3098.91 666.487   7
   2  -3   9 3246.95 693.353   8
  -2  -3 -10 12844.2 1395.65  18
   2  -3  10 12086.7 1240.07   8
   2  -3  11 2150.46 535.097   8
   2  -3  12 1352.70 324.912   8
  -2  -2  14 2470.91 487.195   8
  -2  -2  13 291.046 337.621   8
   2  -2 -12 6498.87 925.167  13
  -2  -2  12 9787.95 1245.28   8
   2  -2 -11 32637.3 2148.83  13
   2  -2 -10 2613.75 608.411  13
   2  -2  -9 18207.3 1605.22  13
  -2  -2   9 21460.3 3496.30   2
  -2  -2   8 10384.8 2359.54   2
   2  -2  -8 6934.68 916.958  13
  -2  -2   7 41886.0 4400.87   2
  -2  -2   6 13065.3 2433.23   2
  -2  -2   5 103748. 6483.89   2
  -2  -2   4 8885.36 1816.46   2
  -2  -2   3 13967.6 2226.05   2
  -2  -2   2 2901.69 1149.34   2
  -2  -2   1 4607.74 1220.39   2
   2  -2  -1 3809.44 634.985   1
   2  -2   0 7738.36 1274.35   3
   2  -2   0 7482.09 911.519   1
   2  -2   1 5788.14 1344.22   3
   2  -2   1 4870.65 884.613   1
   2  -2   2 39151.9 3415.53   3
   2  -2   3 6192.35 1488.61   3
   2  -2   4 56445.9 4663.34   3
   2  -2   5 23307.3 3218.69   3
   2  -2   6 63914.0 5701.71   3
   2  -2   7 23156.1 1552.59  10
  -2  -2  -7 25540.5 1920.20  18
   2  -2   7 27862.4 1861.66   7
   2  -2   7 25064.2 1854.23   8
   2  -2   8 87361.8 3518.07   7
  -2  -2  -8 84453.5 3785.29  18
   2  -2   8 79507.4 3299.04   8
   2  -2   8 89763.9 7668.04   3
  -2  -2  -9 6620.11 1146.53  18
   2  -2   9 7884.17 1047.93   7
   2  -2   9 7080.75 1058.16   8
   2  -2  10 9493.30 1103.56   8
   2  -2  10 10866.9 1238.99   7
  -2  -2 -10 8599.16 1260.86  18
   2  -2  11 7599.53 1008.55   7
   2  -2  11 6502.72 885.966   8
   2  -2  12 3502.57 596.410   8
   2  -2  12 4588.95 741.849   7
   2  -2  13 2015.95 358.179   8
  -2  -1  15 7723.73 728.293   8
  -2  -1  14 14005.2 1236.85   8
   2  -1 -14 13157.3 1129.60  13
   2  -1 -13 9068.72 1094.20  13
   2  -1 -12 2192.76 606.807  13
  -2  -1  11 9745.08 1139.13   7
   2  -1 -11 9617.32 1220.65  13
  -2  -1  10 9117.38 1056.85   7
  -2  -1  10 7476.67 2019.85   2
   2  -1 -10 9154.03 1173.11  13
  -2  -1   9 28524.2 3743.76   2
  -2  -1   9 23064.1 1774.58   7
   2  -1  -9 24660.7 1767.99  13
  -2  -1   8 4616.39 1493.08   2
  -2  -1   7 2507.85 955.464   2
  -2  -1   6 17164.0 2355.83   2
  -2  -1   5 116243. 6013.16   2
  -2  -1   4 101879. 5158.64   2
  -2  -1   3 4214.93 1023.01   2
   2  -1  -2 16662.0 1584.57   1
   2  -1  -1 9400.18 1064.25   1
   2  -1   0 212030. 6154.87   3
   2  -1   0 193596. 5703.43   1
   2  -1   1 39356.6 2877.00   3
   2  -1   2 86118.5 4541.54   3
   2  -1   3 70688.0 4465.64   3
   2  -1   4 132202. 6641.32   3
   2  -1   5 54511.0 4640.82   3
   2  -1   6 44739.2 4537.67   3
   2  -1   7 38403.4 4480.24   3
   2  -1   8 689.198 297.334   7
   2  -1   8 829.543 870.783   3
  -2  -1  -8 446.408 360.756  18
  -2  -1  -9 36595.9 2450.65  18
   2  -1   9 34652.4 5070.13   3
   2  -1   9 36860.1 2402.54   7
   2  -1  10 28517.0 2139.54   7
  -2  -1 -10 31017.9 2270.67  18
   2  -1  11 15164.7 1344.87   8
   2  -1  11 18769.6 1635.08   7
   2  -1  12 2010.64 538.898   8
   2  -1  12 734.789 484.794   7
   2  -1  13 6654.07 729.761   8
   2  -1  13 7435.13 889.251   7
   2  -1  14 3537.36 465.400   7
   2   0 -15 10375.3 872.346  13
   2   0 -14 34923.0 1966.73  13
   2   0 -13 3976.08 759.319  13
   2   0 -12 11755.5 1333.43  13
   2   0 -11 13295.9 1276.12  17
   2   0 -11 14135.8 1442.33  13
   2   0 -10 23166.3 1603.25  17
   2   0 -10 22731.6 1809.15  11
   2   0  -9 5735.45 737.939  17
   2   0  -9 6338.18 859.189  11
   2   0  -8 77224.7 4936.79   4
  -2   0   8 72534.8 4884.50   2
  -2   0   7 9462.22 1586.39   2
   2   0  -7 9963.80 1689.66   4
   2   0  -6 16592.4 1893.49   4
  -2   0   6 17985.3 2201.93   2
  -2   0   5 2.41976 551.625   2
   2   0  -5 110.056 416.347   4
  -2   0   4 84154.9 4077.62   2
   2   0  -4 88050.3 3863.80   4
  -2   0   3 92633.6 3895.55   2
   2   0  -3 89322.3 3744.17   4
   2   0  -2 34015.0 2099.13   1
   2   0  -2 25675.0 1076.23   6
   2   0  -1 117651. 3929.26   1
   2   0  -1 97591.3 3148.47   6
   2   0   0 100765. 3935.17   1
   2   0   0 112384. 3964.25   3
   2   0   1 616583. 11222.7   5
   2   0   1 584862. 11553.6   3
   2   0   2 303634. 8352.54   3
   2   0   3 1759.58 827.538   3
   2   0   4 759940. 16806.0   3
   2   0   5 147114. 7231.04   3
   2   0   6 244.405 809.905   3
   2   0   7 29124.0 3721.98   3
  -2   0  -7 27204.6 3162.51   4
   2   0   8 33126.5 2224.17   7
  -2   0  -8 29984.0 2010.99  18
   2   0   8 30712.6 4102.77   3
  -2   0  -8 22624.1 1553.30  12
   2   0   9 1348.15 597.948   7
   2   0   9 1348.86 928.570   3
  -2   0  -9 806.966 560.783  18
  -2   0  -9 237.232 266.474  12
   2   0  10 6424.24 1153.29   7
  -2   0 -10 6601.32 974.196  12
  -2   0 -11 9886.73 1113.70  11
  -2   0 -11 10326.2 1124.52  12
   2   0  11 10922.8 1335.58   7
   2   0  12 8377.81 1037.11   7
  -2   0 -12 7901.25 926.699  11
   2   0  13-218.438 179.014   8
   2   0  13 421.647 395.638   7
   2   0  14 2670.12 402.769   7
   2   1 -15 8071.89 749.313  13
   2   1 -14 15408.4 1266.41  13
   2   1 -13 8541.08 1061.24  13
   2   1 -12 2901.10 633.820  17
   2   1 -12 1511.82 495.510  27
   2   1 -12 1768.95 459.637  23
   2   1 -11 8784.52 1030.97  27
   2   1 -11 9171.84 980.289  23
   2   1 -11 9372.85 1122.06  17
   2   1 -11 9012.95 1231.61  11
   2   1 -10 8781.20 1014.23  17
   2   1 -10 9354.12 919.757  23
   2   1 -10 9357.89 1185.06  11
   2   1  -9 25115.0 3540.87   4
   2   1  -9 24102.1 1706.94  12
   2   1  -9 24678.0 1527.05  23
   2   1  -9 23729.3 1610.16  17
   2   1  -9 24915.4 1831.90  11
   2   1  -8 4679.48 1541.67   4
   2   1  -8 3552.22 676.028  11
   2   1  -7 2342.03 1016.62   4
   2   1  -6 20083.8 2453.73   4
   2   1  -5 97513.8 4982.01   4
  -2   1   5 67086.0 2656.15   2
   2   1  -4 93029.0 4474.02   4
  -2   1   4 66404.4 2484.33   2
  -2   1   3 1274.35 203.468   6
   2   1  -3 3571.43 931.472   4
  -2   1   3 2489.70 447.111   2
   2   1  -2 26559.0 2155.38   4
   2   1  -2 26243.3 1815.39   1
   2   1  -2 28209.3 1917.68   6
   2   1  -1 13558.7 1477.65   4
   2   1  -1 12667.0 1236.22   1
   2   1  -1 14129.1 1354.77   6
   2   1   0 185179. 5590.05   4
   2   1   0 179594. 5487.00   6
   2   1   0 180404. 5373.49   1
   2   1   1 30843.4 2038.78   3
   2   1   2 69069.3 4010.65   5
   2   1   2 62515.4 4197.44   6
   2   1   2 67017.6 3323.74   3
   2   1   3 60132.4 4147.83   6
   2   1   3 50519.6 3299.70   3
   2   1   3 52139.0 3894.91   5
   2   1   4 103284. 5272.20   3
   2   1   4 140061. 6877.35   6
   2   1   5 39712.6 3506.52   3
   2   1   6 33795.4 3538.77   3
  -2   1  -7 37943.9 4259.19   4
   2   1   7 34756.0 4008.95   3
  -2   1  -8 807.826 905.127   4
   2   1   8 1016.97 501.806   7
   2   1   8 1748.26 1116.87   3
  -2   1  -9 34938.8 2249.11  12
   2   1   9 37012.5 2514.08   7
  -2   1 -10 27627.8 1972.61  12
   2   1  10 26309.2 2142.92   7
  -2   1 -11 16144.0 1478.50  12
   2   1  11 14850.5 1472.40   7
  -2   1 -11 15286.0 1532.22  11
   2   1  12 187.527 348.184   7
  -2   1 -12 1281.26 549.487  12
  -2   1 -12 630.616 353.560  11
  -2   1 -13 9375.59 919.690  11
   2   1  13 6059.74 749.523   7
   2   1  14 2301.23 347.619   7
   2   2 -14 2129.91 439.592  13
   2   2 -13 1231.22 375.686  27
   2   2 -13 737.551 427.857  13
   2   2 -13 1021.35 447.554  17
   2   2 -13 692.870 323.527  23
   2   2 -12 8313.86 937.663  23
   2   2 -12 7991.58 974.549  17
   2   2 -12 7637.69 985.107  27
   2   2 -11 38890.6 2567.17  11
   2   2 -11 40413.4 2320.53  17
   2   2 -11 37194.4 2039.18  23
   2   2 -10 1848.65 1188.12   4
   2   2 -10 2544.12 593.982  23
   2   2 -10 2444.07 701.222  17
   2   2 -10 2858.55 703.338  11
   2   2  -9 20446.9 1791.20  11
   2   2  -9 19821.3 1597.74  17
   2   2  -9 18695.9 1581.08  12
   2   2  -9 19126.4 3336.88   4
   2   2  -8 10630.7 1100.83  17
   2   2  -8 9885.03 1071.48  12
   2   2  -8 10494.4 2460.00   4
   2   2  -8 8890.78 1040.90  11
   2   2  -7 46860.5 4698.90   4
   2   2  -7 40648.8 1986.74  17
   2   2  -6 14127.0 2436.17   4
   2   2  -5 91629.7 5659.91   4
   2   2  -4 6554.86 1472.37   4
  -2   2   3 17428.4 1645.32   6
   2   2  -3 18687.3 2263.99   4
   2   2  -2 1892.21 942.402   4
   2   2  -1 3645.24 1028.30   6
   2   2  -1 2878.25 539.437   1
   2   2  -1 4043.17 947.488   4
   2   2   0 5831.88 1058.82   4
   2   2   0 4483.04 690.720   1
   2   2   0 6346.44 1330.50   6
   2   2   1 5061.93 1306.34   6
   2   2   1 3509.04 786.101   1
   2   2   1 2827.77 850.455   4
   2   2   2 32712.8 3047.30   6
   2   2   3 6367.14 1511.35   5
   2   2   3 7605.23 1858.66   6
   2   2   4 47641.3 4333.57   5
   2   2   4 46334.5 4348.91   6
   2   2   5 21705.8 3198.57   6
  -2   2  -6 61367.7 5648.75   4
   2   2   7 26866.8 2076.92   7
   2   2   7 24911.7 1693.03  24
   2   2   8 74378.7 3693.73   7
   2   2   8 74803.5 3141.65  24
  -2   2  -8 81210.8 7113.64   4
   2   2   9 7152.23 1090.24   7
  -2   2  -9 9080.74 2438.27   4
  -2   2 -10 8386.98 1134.79  12
   2   2  10 8785.00 1255.38   7
  -2   2 -11 7020.43 1042.29  12
   2   2  11 4384.42 839.606   7
  -2   2 -11 6851.44 1031.53  11
  -2   2 -12 3626.94 698.600  11
  -2   2 -12 3382.33 643.994  12
  -2   2 -12 3349.85 598.858  17
   2   2  12 2843.97 555.560   7
  -2   2 -13 2314.16 387.521  17
  -2   2 -13 3113.90 532.802  11
   2   3 -13 737.407 262.588  13
   2   3 -13 691.183 277.894  23
   2   3 -13 777.276 314.847  27
   2   3 -12 587.332 384.914  23
   2   3 -12 610.853 379.894  17
   2   3 -12 519.693 442.835  27
   2   3 -11 4401.76 707.006  23
   2   3 -11 4947.71 943.394  27
   2   3 -11 4283.00 781.728  17
   2   3 -10 3756.69 718.198  23
   2   3 -10 3004.88 762.665  11
   2   3 -10 3605.75 819.755  17
   2   3  -9 1048.12 567.270  17
   2   3  -9 285.277 376.803  12
   2   3  -9 705.956 415.729  11
   2   3  -8 1388.50 451.767  11
   2   3  -8 2167.83 650.591  17
   2   3  -8 1849.19 510.528  12
   2   3  -7 3939.07 744.822  11
   2   3  -7 4157.39 763.726  17
   2   3  -7 4624.13 1718.38   4
   2   3  -6 1085.30 434.527  17
   2   3  -6 1280.38 429.476  11
   2   3  -6 10.2943 843.406   4
   2   3  -5 16068.3 2743.43   4
   2   3  -4 3573.52 1318.95   4
  -2   3   3 61139.8 4183.77   6
   2   3  -3 59233.1 4825.96   4
   2   3  -2 55605.6 4365.06   4
   2   3  -2 66279.4 4991.22   6
   2   3  -1 13919.7 2024.51   4
   2   3  -1 16122.3 2468.84   6
  -2   3   1 11449.9 1849.35   4
   2   3   0 26146.1 3105.82   6
   2   3   0 22696.0 2401.18   4
   2   3   1 34894.9 3766.53   6
   2   3   2 48942.8 4610.63   5
  -2   3  -2 53707.6 5008.91   4
   2   3   2 50169.7 4558.72   6
   2   3   3 3571.83 1389.34   6
  -2   3  -3 4377.52 1321.41   4
   2   3   3 3243.85 1387.70   5
   2   3   4 2204.94 1183.19   6
  -2   3  -4 2780.30 1405.79   4
   2   3   4 2904.00 1301.17   5
  -2   3  -5 37053.3 4734.22   4
   2   3   5 25567.5 3798.76   6
   2   3   6 14987.0 2942.09   6
  -2   3  -6 25966.0 3996.33   4
   2   3   7 30461.6 2311.15   7
   2   3   7 27729.1 1940.68  24
   2   3   8 1394.12 734.014  24
   2   3   8 581.911 507.712   7
   2   3   9 1958.47 653.232   7
   2   3  10 8374.69 1025.50   7
  -2   3 -10 12531.4 1312.78  11
  -2   3 -10 12160.0 1255.32  12
  -2   3 -11 2259.92 560.151  12
  -2   3 -11 2303.89 569.051  11
  -2   3 -12 2327.48 560.115  17
  -2   3 -12 1774.53 436.406  11
  -2   3 -12 2141.07 424.735  12
  -2   3 -13 3234.40 392.126  11
   2   4 -12 7589.64 635.623  23
   2   4 -12 6617.12 603.128  20
   2   4 -12 6825.33 698.915  27
   2   4 -11 18647.1 1229.04  23
   2   4 -11 17832.0 1248.12  17
   2   4 -11 18360.0 975.684  14
   2   4 -11 18395.4 1355.92  27
   2   4 -10 7195.75 859.253  23
   2   4 -10 7171.66 934.145  27
   2   4 -10 7386.68 884.572  17
   2   4  -9 1477.61 601.585  27
   2   4  -9 936.621 396.509  17
   2   4  -9 1682.27 519.345  23
   2   4  -8 6687.32 974.783  27
   2   4  -8 8148.42 960.082  17
   2   4  -7 38406.9 2302.77  27
   2   4  -7 37052.4 2064.51  17
   2   4  -6 13026.2 1198.48  17
   2   4  -6 10943.0 2459.73   6
   2   4  -6 13323.8 2960.57   4
   2   4  -6 14848.3 1383.87  27
   2   4  -5 1236.85 863.048   4
   2   4  -5 978.809 382.913  27
   2   4  -5 1923.57 1721.69   6
   2   4  -4 16593.2 3115.21   6
   2   4  -4 15730.1 3027.83   4
   2   4  -3 25199.3 3585.68   4
   2   4  -3 24686.6 3628.90   6
  -2   4   2 9569.02 2095.48   6
   2   4  -2 8503.74 2092.97   6
   2   4  -1 5636.69 1679.73   6
  -2   4   1 5593.31 1838.45   6
   2   4   0 21234.2 3353.46   6
   2   4   1 10856.1 2385.58   6
   2   4   2 1934.69 1146.96   5
  -2   4  -2 2866.24 1019.82   4
   2   4   2 3079.94 1416.03   6
   2   4   3 5430.90 1918.18   5
  -2   4  -3 8708.80 2457.90   4
   2   4   3 10316.6 2529.08   6
  -2   4  -4 22706.3 3979.81   4
   2   4   4 17070.6 3315.46   6
  -2   4  -5 3631.93 1662.39   4
   2   4   5 4689.32 2142.56   6
   2   4   6 19522.2 1870.24   7
   2   4   7 8245.98 1167.07   7
   2   4   7 6806.83 1013.13  24
  -2   4  -8 37030.3 2156.89  11
  -2   4  -9 6872.76 886.714  12
  -2   4  -9 6391.54 843.563  11
  -2   4 -10 1286.16 353.188  12
  -2   4 -10 1106.40 352.384  11
  -2   4 -11 3623.21 510.711  17
  -2   4 -11 2776.82 453.438  11
  -2   4 -11 3313.27 451.527  12
   2   5 -10 1286.94 265.358  23
   2   5 -10 1165.99 290.953  27
   2   5 -10 1164.89 250.598  14
   2   5 -10 1276.98 328.897  20
   2   5  -9 4679.18 636.423  27
   2   5  -9 5682.04 626.079  23
   2   5  -8 2559.87 451.952  23
   2   5  -8 2189.20 454.450  27
   2   5  -7 5704.31 707.451  23
   2   5  -7 5177.83 727.192  27
   2   5  -6 7090.09 782.403  23
   2   5   6 149.581 323.976  24
  -2   5  -7 9526.10 847.639  12
  -2   5  -8 2828.18 426.622  17
  -2   5  -8 3234.95 458.814  12
  -2   5  -9 2832.16 394.704  27
  -2   5  -9 3303.89 412.505  17
   2   6  -7 1562.93 294.726  14
   2   6  -6 1535.05 359.367  14
   2   6  -5 768.858 251.917  14
   2   6  -4 7454.88 736.647  14
   2   6  -3 3579.62 505.303  14
  -3  -6   6 1348.00 239.660  29
  -3  -6   5 1249.61 307.101  29
  -3  -6   4 4567.82 570.670  29
  -3  -6   3 2224.61 453.168  29
  -3  -6   2 3192.03 547.074  29
  -3  -6   1 3807.70 574.915  29
  -3  -6   0 6526.92 739.798  29
  -3  -6  -1 1477.63 405.095  29
  -3  -6  -2 4811.48 557.037  29
   3  -6   3 5924.27 704.418   8
   3  -6   4 3832.42 521.506   8
   3  -6   5 681.133 227.235   8
  -3  -5   9 13946.1 953.723  25
  -3  -5   8 271.364 269.802  25
  -3  -5   7 4228.75 659.013  25
  -3  -5   6 10432.9 1025.53  25
  -3  -5   5 1774.12 479.507  25
  -3  -5   4 692.791 308.950  25
  -3  -5   3 5661.00 829.007  25
  -3  -5   2 4965.90 800.916  25
   3  -5  -1 12985.5 1440.05   8
  -3  -5   1 10036.4 1098.95  25
   3  -5   0 1277.23 677.143   8
   3  -5   1 1639.18 886.552   8
   3  -5   2 2710.59 700.769   8
   3  -5   3 7098.37 1036.36   8
  -3  -5  -3 6995.95 855.695  29
   3  -5   4 1712.43 597.827   8
  -3  -5  -4 482.660 315.618  18
  -3  -5  -5 550.496 323.393  18
   3  -5   5 850.265 357.126   8
   3  -5   6 7474.99 868.319   8
  -3  -5  -6 6864.32 815.471  18
   3  -5   7 8843.75 850.742   8
   3  -5   8 418.202 204.916   8
  -3  -4  12 4771.69 521.708  25
  -3  -4  11 2653.88 454.337   8
  -3  -4  11 2750.59 522.316  25
  -3  -4  10 3918.81 642.441   8
  -3  -4  10 5264.82 760.337  25
  -3  -4   9 10055.1 1048.60   8
  -3  -4   9 9321.60 1086.19  25
  -3  -4   8 4437.90 801.971  25
  -3  -4   8 4349.13 725.374   8
  -3  -4   7 1215.49 355.347   9
  -3  -4   7 1713.19 601.683  25
  -3  -4   6 11974.5 1124.32   9
  -3  -4   6 12804.0 1320.82  25
  -3  -4   5 11870.1 1203.88   9
  -3  -4   5 12696.6 1330.40  25
  -3  -4   4 13107.5 1254.30   9
  -3  -4   4 8721.02 2252.62   2
  -3  -4   4 10950.6 1210.32  25
  -3  -4   3 2504.60 854.903  25
  -3  -4   3 1701.23 802.493   2
  -3  -4   3 2661.30 623.712   9
  -3  -4   2 17262.8 3111.66   2
   3  -4  -2 22180.8 1853.40   8
   3  -4  -2 24646.1 1562.42  29
  -3  -4   2 22575.8 1686.52   9
  -3  -4   2 19483.8 1573.60  25
  -3  -4   1 16738.1 1433.52   9
   3  -4  -1 15256.5 1536.16   8
   3  -4  -1 16994.2 1319.64  29
  -3  -4   1 16206.5 1427.02  25
   3  -4   0 31491.2 1733.08  29
  -3  -4   0 31076.8 1953.37   9
   3  -4   0 31986.4 2220.53   8
  -3  -4   0 28784.8 1930.52  25
   3  -4   1 7942.40 1123.06   8
  -3  -4  -1 9665.85 1202.46  25
   3  -4   1 8139.53 845.944  29
   3  -4   2 1254.81 341.709  29
   3  -4   2 652.655 440.931   8
  -3  -4  -2 1252.93 549.890  18
   3  -4   3 7523.94 1054.14   8
  -3  -4  -3 8025.65 1095.01  18
   3  -4   4 4709.97 884.363   8
  -3  -4  -4 4848.58 961.130  18
   3  -4   5 274.239 428.761   8
  -3  -4  -5 589.412 503.849  18
  -3  -4  -6 2670.42 736.203  18
   3  -4   6 2694.07 776.686   8
   3  -4   7 2109.10 591.584   8
  -3  -4  -7 2720.07 754.596  18
   3  -4   8 3000.16 605.918   8
  -3  -4  -8 2768.55 628.861  18
  -3  -4  -9 489.532 364.458  18
   3  -4   9 1182.36 362.222   8
   3  -4  10 3312.69 471.850   8
  -3  -3  13 616.630 371.496   8
  -3  -3  12 3429.09 675.329   8
  -3  -3  11 2613.12 635.564   8
  -3  -3  10 19473.4 1621.17   8
   3  -3 -10 14779.6 1385.43  13
  -3  -3   9 33259.9 2163.29   8
   3  -3  -9 29718.7 2048.45  13
  -3  -3   8 21313.4 1697.43   8
   3  -3  -8 19178.7 1677.38  13
  -3  -3   7 2316.29 477.616   9
  -3  -3   7 1693.63 520.781   2
  -3  -3   7 2154.14 500.818   8
   3  -3  -7 1897.39 553.576  13
  -3  -3   6 43391.4 2015.13   9
   3  -3  -6 42280.5 2456.97  13
  -3  -3   5 21210.4 1397.36   9
   3  -3  -5 18645.3 1562.91  13
  -3  -3   5 21809.1 3579.44   2
  -3  -3   4 2672.57 1480.06   2
  -3  -3   4 2040.90 524.962   9
  -3  -3   3 5028.44 1666.01   2
  -3  -3   2 5114.17 1657.95   2
  -3  -3   1 1558.35 790.276   2
  -3  -3   0 8677.63 1925.08   2
  -3  -3  -1 4289.69 1280.02   2
   3  -3   1 5443.68 1422.15   3
   3  -3   2-84.6526 421.752   3
   3  -3   3 10927.2 1097.33  10
   3  -3   3 9980.95 1099.60   8
   3  -3   3 9898.78 2211.72   3
  -3  -3  -3 9846.49 1226.78  18
   3  -3   4 16446.0 1455.90   8
  -3  -3  -4 15765.9 1564.57  18
   3  -3   4 16966.3 2989.36   3
   3  -3   4 17356.1 1435.97  10
   3  -3   5 15679.7 1518.53   8
   3  -3   5 14131.7 3117.53   3
  -3  -3  -5 13831.9 1506.41  18
   3  -3   5 15926.8 1392.21  10
   3  -3   6 10761.7 1262.57   8
  -3  -3  -6 11754.7 1487.83  18
   3  -3   6 15136.0 1507.66   7
   3  -3   6 13816.3 1321.84  10
   3  -3   6 12531.7 2873.29   3
   3  -3   7 15297.2 1521.33   8
  -3  -3  -7 16748.1 1768.78  18
   3  -3   7 18171.0 1632.04   7
   3  -3   8 3780.88 734.067   7
  -3  -3  -8 4203.62 964.896  18
   3  -3   8 4347.55 814.864   8
   3  -3   9 14744.5 1318.09   8
  -3  -3  -9 14171.1 1511.90  18
   3  -3   9 14640.3 1332.20   7
   3  -3  10 14421.2 1201.89   8
  -3  -3 -10 13740.1 1396.42  18
   3  -3  11 3978.93 524.794   8
  -3  -2  14 732.725 258.474   8
  -3  -2  13 1947.79 502.442   8
   3  -2 -13 1203.20 383.264  13
   3  -2 -12 44604.2 2486.76  13
  -3  -2  12 51440.6 2617.21   8
  -3  -2  11 15493.7 1574.91   8
   3  -2 -11 14613.7 1478.20  13
   3  -2 -10 3694.27 772.301  13
   3  -2  -9 887.356 430.580  13
  -3  -2   9 1219.89 1086.40   2
  -3  -2   8 25682.8 3825.89   2
   3  -2  -8 24284.1 1830.74  13
  -3  -2   7 4265.52 1589.76   2
   3  -2  -7 3582.35 675.064  13
  -3  -2   6 15800.1 2777.06   2
  -3  -2   5 58032.4 5091.86   2
  -3  -2   4 66312.2 5286.72   2
  -3  -2   3 44283.4 4055.52   2
   3  -2  -2 21857.5 2036.90   1
  -3  -2   2 26463.6 3166.54   2
   3  -2  -1 4332.68 898.365   1
   3  -2   0 35612.0 2606.41   1
   3  -2   0 43880.4 3411.33   3
   3  -2   1 64943.6 4412.22   3
   3  -2   1 53200.8 3665.64   1
   3  -2   2 7737.53 1482.71   1
   3  -2   2 9159.22 1890.31   3
   3  -2   3 91032.3 6167.44   3
   3  -2   4 1380.16 1047.57   3
   3  -2   5 33903.8 4347.09   3
  -3  -2  -5 28126.0 1952.93  18
  -3  -2  -6 1154.80 505.854  18
   3  -2   6 984.758 468.693   7
   3  -2   6 342.763 307.592  10
   3  -2   6 837.024 686.704   3
   3  -2   6 1145.65 410.976   8
  -3  -2  -7 55818.7 3070.59  18
   3  -2   7 58292.6 6301.10   3
   3  -2   7 56919.4 2859.01   7
   3  -2   7 51970.7 2556.12  10
   3  -2   7 50444.7 2561.60   8
  -3  -2  -8 332.707 453.763  18
   3  -2   8 795.015 421.654   8
   3  -2   8-91.8175 335.908   7
   3  -2   8 191.543 262.433  10
   3  -2   9 7904.93 1032.16   8
  -3  -2  -9 8052.94 1250.83  18
   3  -2   9 8168.91 1131.61   7
  -3  -2 -10 3120.29 838.248  18
   3  -2  10 2226.04 551.119   8
   3  -2  10 2999.90 688.419   7
   3  -2  11 4801.36 668.643   8
   3  -2  11 4622.98 746.921   7
   3  -2  12 6624.50 776.026   7
  -3  -1  15 570.907 212.428   8
  -3  -1  14 5797.16 782.329   8
   3  -1 -14 5456.59 753.656  13
   3  -1 -13 21937.0 1721.32  13
   3  -1 -12 21870.5 1799.17  13
   3  -1 -11 6449.00 1054.38  13
   3  -1 -10 11634.1 1356.80  13
   3  -1  -9 15535.5 1427.96  13
  -3  -1   9 17581.8 3020.64   2
   3  -1  -8 10461.5 1130.71  13
  -3  -1   8 9762.74 2265.44   2
  -3  -1   7 1706.31 926.907   2
  -3  -1   6 64787.1 5156.87   2
  -3  -1   5 41068.1 3836.48   2
  -3  -1   4 45117.5 3844.71   2
   3  -1  -3 5553.94 1203.23   1
   3  -1  -2 92323.3 4327.38   1
   3  -1  -1 23970.2 2169.52   1
   3  -1   0 70898.7 4227.90   3
   3  -1   0 69494.6 3947.56   1
   3  -1   1 3023.69 1129.15   3
   3  -1   2 12132.9 2101.89   3
   3  -1   3 53529.8 4408.91   3
   3  -1   4 30858.3 3614.47   3
   3  -1   5 43020.3 4565.30   3
   3  -1   6 45191.9 4919.90   3
   3  -1   7 26118.8 3962.36   3
  -3  -1  -7 22974.5 1821.43  18
   3  -1   7 22383.0 1854.76   7
   3  -1   8 111.460 905.057   3
  -3  -1  -8 665.552 427.928  18
   3  -1   8 671.976 249.629   8
   3  -1   8 431.428 368.768   7
   3  -1   9 12512.9 1219.14   8
  -3  -1  -9 15097.1 1579.07  18
   3  -1   9 15784.0 1660.34   7
   3  -1  10 7890.42 982.640   8
   3  -1  10 10325.8 1253.08   7
  -3  -1 -10 10100.1 1311.57  18
   3  -1  11 8738.55 922.821   8
   3  -1  11 10364.0 1230.29   7
   3  -1  12 5023.18 771.249   7
   3  -1  13 2071.16 398.058   7
   3   0 -15 8582.86 805.440  13
   3   0 -14 12740.4 1194.99  13
   3   0 -13 80366.5 3434.35  13
   3   0 -12 4154.32 839.485  13
   3   0 -11-780.916 528.550  13
   3   0 -10-23.7426 338.373  13
   3   0  -9 10043.5 1018.64  17
   3   0  -9 12047.5 1232.56  13
   3   0  -9 11748.7 1036.48  23
   3   0  -8 8436.78 994.714  13
   3   0  -8 6572.54 1530.08   4
   3   0  -7 4955.73 1303.63   4
  -3   0   7 4203.57 1262.77   2
   3   0  -6 19960.8 2463.19   4
  -3   0   6 22072.2 2658.76   2
  -3   0   5 804.625 589.677   2
   3   0  -5 513.503 731.861   4
   3   0  -4 2102.05 847.123   4
  -3   0   4 2830.88 1071.84   2
   3   0  -3 21912.3 2095.05   1
   3   0  -3 26207.4 2446.10   4
   3   0  -2 143457. 5624.88   4
   3   0  -2 117721. 4730.97   1
   3   0  -1 107794. 4713.00   1
   3   0   0 45165.1 3121.21   3
   3   0   0 45103.0 2726.98   5
   3   0   0 40620.1 3125.20   1
   3   0   1 42322.0 2966.43   5
   3   0   1 41019.3 3151.11   3
   3   0   2 5584.84 1450.27   3
   3   0   3 322840. 10507.9   3
   3   0   4 338277. 11569.5   3
   3   0   5 78061.3 5843.75   3
   3   0   6 128773. 7946.40   3
   3   0   7 31761.1 4253.02   3
  -3   0  -7 25097.7 1805.65  18
   3   0   7 36888.7 2340.35   7
   3   0   8 20435.9 3585.36   3
  -3   0  -8 18175.5 1435.39  12
  -3   0  -8 21640.2 1725.71  18
   3   0   8 23494.3 2038.91   7
  -3   0  -9 184.782 269.037  12
   3   0   9-594.923 885.799   3
  -3   0  -9 300.181 289.760  18
   3   0   9 304.015 461.978   7
  -3   0 -10 6454.20 922.818  12
   3   0  10 8050.49 1213.90   7
   3   0  11 4357.86 903.835   7
  -3   0 -11 3491.11 678.720  11
   3   0  12 414.050 372.035   7
   3   0  13 173.529 202.848   7
   3   0  14 998.263 228.484   7
   3   1 -15 538.046 232.082  13
   3   1 -14 5787.06 790.761  13
   3   1 -13 27784.9 1911.97  13
   3   1 -12 22069.9 1533.83  23
   3   1 -12 25274.9 1951.50  13
   3   1 -12 20657.8 1553.16  27
   3   1 -11 8973.15 1150.91  17
   3   1 -11 9102.95 1015.85  23
   3   1 -11 9703.86 1247.70  13
   3   1 -11 8350.12 1041.20  27
   3   1 -10 12152.8 1182.98  23
   3   1 -10 13465.7 1344.70  17
   3   1 -10 11481.5 1172.58  27
   3   1  -9 15909.3 3141.94   4
   3   1  -9 16673.6 1546.59  11
   3   1  -9 17269.6 1437.59  17
   3   1  -9 16006.4 1392.99  27
   3   1  -9 17505.3 1339.21  23
   3   1  -8 9543.82 939.031  23
   3   1  -8 9295.24 966.157  17
   3   1  -8 9081.75 2063.18   4
   3   1  -8 9794.31 1051.56  27
   3   1  -8 10041.4 1084.10  11
   3   1  -7 1992.42 898.726   4
   3   1  -6 61392.1 4687.20   4
   3   1  -5 41483.5 3628.10   4
   3   1  -4 43579.8 3511.34   4
  -3   1   4 33549.8 2308.44   2
   3   1  -4 39592.5 2307.23   6
   3   1  -3 8195.56 1312.91   1
   3   1  -3 8263.24 1450.43   4
   3   1  -3 7654.12 1089.20   6
   3   1  -2 92164.5 4145.60   1
   3   1  -2 94941.7 4008.60   6
   3   1  -1 23960.9 2151.06   1
   3   1  -1 29538.2 2621.51   4
   3   1  -1 22878.7 2100.60   6
   3   1   0 67860.2 3851.80   1
   3   1   0 65602.7 3743.01   6
   3   1   1 1948.78 984.498   6
   3   1   1 1122.11 753.313   5
   3   1   2 14479.6 2143.74   5
   3   1   2 11081.4 2218.25   6
   3   1   2 12054.6 1680.16   3
   3   1   3 36977.4 3277.11   3
   3   1   3 39554.6 3828.53   5
   3   1   3 41258.5 4057.75   6
   3   1   4 25676.6 2950.33   3
   3   1   5 32764.9 3587.15   3
   3   1   6 47488.5 4607.19   3
   3   1   7 21243.8 3290.55   3
  -3   1  -7 21389.7 3447.06   4
   3   1   7 23623.3 1962.57   7
   3   1   7 24794.3 1728.02  24
   3   1   8 439.286 523.879   7
  -3   1  -8 1122.21 708.513   4
   3   1   9 12906.6 1617.55   7
   3   1  10 12047.9 1470.03   7
  -3   1 -10 11581.6 1302.78  12
   3   1  11 10579.5 1269.89   7
  -3   1 -11 12272.4 1209.19  12
   3   1  12 3738.61 705.741   7
  -3   1 -12 5632.59 835.869  11
   3   1  13 1873.35 366.294   7
  -3   1 -13 2314.20 438.536  11
   3   2 -14 1124.86 331.659  13
   3   2 -13 1182.11 464.737  13
   3   2 -13 1862.63 478.210  27
   3   2 -12 46720.9 2237.05  23
   3   2 -12 46279.7 2433.29  27
   3   2 -12 46215.8 2043.52  20
   3   2 -12 46338.8 2471.73  17
   3   2 -11 14794.7 1324.99  23
   3   2 -11 15980.3 1496.69  17
   3   2 -11 14271.4 1436.37  27
   3   2 -10 3833.56 717.459  23
   3   2 -10 3303.83 714.193  17
   3   2 -10 4522.02 817.803  27
   3   2  -9 1629.23 547.392  23
   3   2  -9 1560.95 550.580  17
   3   2  -9 2211.94 1360.26   4
   3   2  -9 879.560 465.610  27
   3   2  -8 24560.2 3755.57   4
   3   2  -8 24513.8 1717.17  17
   3   2  -8 23767.3 1829.55  11
   3   2  -8 26418.8 1593.17  23
   3   2  -7 4295.87 786.949  11
   3   2  -7 4704.15 713.981  17
   3   2  -7 5300.77 1745.10   4
   3   2  -6 15599.2 2660.27   4
   3   2  -5 56005.5 4038.23   6
   3   2  -5 58759.9 4796.30   4
   3   2  -4 63288.6 4172.51   6
   3   2  -4 68856.0 4914.80   4
   3   2  -3 38372.6 3100.86   6
   3   2  -3 44215.0 3792.72   4
   3   2  -2 26228.8 2782.92   4
   3   2  -2 24494.0 2574.95   6
   3   2  -1 6340.06 1426.96   6
   3   2  -1 5922.17 1487.27   4
   3   2  -1 5171.42 932.814   1
   3   2   0 39105.4 3384.34   4
   3   2   0 37697.1 2655.09   1
   3   2   0 37908.7 3535.99   6
   3   2   1 65011.9 4530.96   6
   3   2   1 51119.3 3463.35   1
   3   2   2 8597.38 1899.18   6
   3   2   2 6991.10 1722.97   5
   3   2   2 7688.56 1400.25   1
   3   2   3 75504.5 5609.91   6
   3   2   3 71509.5 5559.25   5
   3   2   4 2277.65 1167.62   5
   3   2   4 1458.41 994.753   6
   3   2   5 32697.7 4167.19   6
   3   2   6 197.286 329.149  24
   3   2   6 2848.08 735.369   7
   3   2   6 1137.16 401.576  26
  -3   2  -6 2046.25 1101.80   4
   3   2   6 812.675 417.018  15
   3   2   7 54533.0 2704.40  24
   3   2   7 49412.0 2715.85  15
  -3   2  -7 52520.6 5858.89   4
   3   2   7 53730.9 3174.66   7
   3   2   8 248.647 575.427   7
   3   2   8 31.3313 353.104  24
  -3   2  -8-270.818 948.901   4
   3   2   9 9261.56 1292.25   7
   3   2  10 1927.24 708.248   7
  -3   2 -10 2970.43 650.562  12
   3   2  11 4063.18 726.230   7
  -3   2 -11 6083.95 902.817  12
  -3   2 -12 7440.41 858.410  11
  -3   2 -12 6540.33 688.113  17
   3   2  12 4764.78 640.349   7
  -3   2 -12 7594.31 802.007  12
  -3   2 -13 11607.4 803.136  11
   3   3 -13 275.003 179.889  13
   3   3 -13 2459.74 525.032  27
   3   3 -12 3470.97 632.679  23
   3   3 -12 2536.37 540.303  13
   3   3 -12 2192.60 526.824  27
   3   3 -12 3865.34 701.572  20
   3   3 -11 2543.81 573.951  23
   3   3 -11 1955.37 494.871  13
   3   3 -11 2722.78 668.716  17
   3   3 -11 3138.15 734.104  27
   3   3 -10 19625.0 1624.60  17
   3   3 -10 19192.3 1540.43  23
   3   3 -10 18338.1 1620.56  27
   3   3  -9 31267.7 1946.41  23
   3   3  -9 30771.2 2175.69  27
   3   3  -9 33088.8 2165.95  17
   3   3  -8 22261.7 3869.94   4
   3   3  -8 19807.0 1528.39  23
   3   3  -8 19826.8 1584.53  17
   3   3  -8 20059.6 1685.75  27
   3   3  -7 1535.08 414.344  17
   3   3  -7 526.774 748.028   4
   3   3  -7 2180.77 633.229  27
   3   3  -6 43368.0 4448.87   6
   3   3  -6 51713.0 5456.00   4
   3   3  -6 42969.6 2176.67  17
   3   3  -6 45331.0 2424.94  27
   3   3  -5 21716.8 3367.26   4
   3   3  -5 19696.2 1483.14  27
   3   3  -5 20365.7 2991.47   6
   3   3  -4 1636.04 999.919   4
   3   3  -4 2199.09 1152.05   6
   3   3  -3 3626.83 1260.70   6
   3   3  -3 5203.99 1658.97   4
   3   3  -2 2123.48 1087.27   6
   3   3  -2 3551.33 1245.02   4
   3   3  -1 2145.11 973.941   6
   3   3  -1 3177.93 1181.23   4
   3   3   0 8358.48 1978.28   6
   3   3   0 6239.55 1481.11   4
   3   3   1 7367.04 1899.90   6
   3   3   2-390.580 913.900   6
   3   3   2 599.363 911.504   5
   3   3   3 7433.10 2014.35   6
   3   3   3 9734.16 2309.66   5
   3   3   3 7622.66 934.939  26
   3   3   4 11795.5 2461.81   5
   3   3   4 16898.1 3418.34   6
  -3   3  -4 16759.6 3450.87   4
   3   3   4 11557.9 1219.05  26
   3   3   5 12176.5 2959.28   6
  -3   3  -5 17182.6 3330.65   4
   3   3   5 15249.3 1477.00  15
   3   3   6 9285.03 1170.27  24
  -3   3  -6 10021.2 2521.14   4
   3   3   6 9617.53 1218.26  15
   3   3   7 13780.3 1416.18  15
   3   3   7 16653.6 1788.50   7
   3   3   7 16645.3 1568.58  24
   3   3   8 2535.69 641.524  24
   3   3   8 3434.86 848.577   7
   3   3   9 11274.8 1350.34   7
   3   3  10 10089.1 1114.28   7
  -3   3 -10 14778.3 1314.86  12
   3   3  11 3642.29 571.770   7
  -3   3 -11 5747.92 722.931  12
  -3   3 -11 5825.97 781.220  11
  -3   3 -12 57.7955 129.517  17
  -3   3 -12-62.1150 176.929  11
  -3   3 -12 207.283 187.780  12
   3   4 -12 5590.05 637.047  27
   3   4 -12 5603.89 540.052  20
   3   4 -12 5216.57 520.275  23
   3   4 -11 2595.98 442.423  14
   3   4 -11 2811.87 523.760  20
   3   4 -11 2024.06 476.175  27
   3   4 -11 2239.47 492.413  23
   3   4 -10 4515.88 612.884  14
   3   4 -10 5393.18 855.548  27
   3   4 -10 5552.64 761.766  23
   3   4  -9 10072.2 1013.54  23
   3   4  -9 8898.77 984.542  17
   3   4  -9 9700.78 1152.83  27
   3   4  -8 5209.71 812.271  23
   3   4  -8 5231.28 811.807  17
   3   4  -8 5186.44 964.051  27
   3   4  -7 889.173 395.788  23
   3   4  -7 1107.75 430.382  17
   3   4  -7 802.498 512.122  27
   3   4  -6 9889.83 1012.13  23
   3   4  -6 10488.3 1177.85  27
   3   4  -5 12560.3 1097.31  23
   3   4  -5 11784.2 2775.54   4
   3   4  -5 12018.1 1229.09  27
   3   4  -5 6586.63 1939.29   6
   3   4  -4 8836.16 1898.33   6
   3   4  -4 11259.1 2596.29   4
   3   4  -3 1307.55 908.461   6
   3   4  -3 1201.79 895.151   4
   3   4  -2 19132.2 3344.22   6
   3   4  -1 15514.1 3113.52   6
   3   4   0 30256.6 4238.79   6
   3   4   1 5887.35 1706.67   6
   3   4   1 6292.82 1893.45   5
   3   4   2 1043.57 975.972   6
  -3   4  -2 898.230 779.859   4
   3   4   2-416.572 697.161   5
   3   4   3 4687.22 2177.07   6
  -3   4  -3 5895.97 2172.48   4
   3   4   3 5387.97 2045.77   5
   3   4   4 2978.29 1046.53   6
  -3   4  -4 286.998 730.194   4
   3   4   4 1284.72 909.253   5
   3   4   5 164.633 370.113  15
   3   4   6 1222.58 511.242  24
   3   4   6 1388.95 531.013  15
   3   4   6 2059.84 821.470   7
   3   4   7 1804.02 603.783  24
   3   4   7 1954.70 635.046   7
   3   4   8 2894.63 771.922   7
   3   4   8 2171.53 538.113  24
  -3   4  -9 582.459 362.942  12
  -3   4  -9-86.8927 213.246  11
   3   4   9 609.647 359.189   7
  -3   4 -10 2026.33 390.069  11
  -3   4 -10 2120.33 418.595  12
  -3   4 -11 3141.82 379.610  17
  -3   4 -11 3162.59 386.035  12
   3   5 -10 11088.5 856.978  28
   3   5 -10 11218.2 690.641  14
   3   5 -10 12310.5 789.487  20
   3   5  -9 21015.7 1225.70  20
   3   5  -9 17556.9 1011.05  23
   3   5  -9 18646.1 1045.82  14
   3   5  -8 377.109 194.563  23
   3   5  -8 540.745 259.937  20
   3   5  -8 693.335 292.000  14
   3   5  -7 5682.55 677.104  23
   3   5  -7 6471.50 825.726  20
   3   5  -6 10484.8 1041.25  20
   3   5  -5 2106.34 518.896  20
   3   5  -4 886.068 317.931  20
   3   5  -3 5517.61 848.816  28
   3   5   0 1422.18 477.982  21
   3   5   4 1264.20 446.517  15
   3   5   5 826.804 317.986   7
   3   5   6 5675.15 812.395  24
   3   5   6 5346.80 861.140   7
   3   5   7 5171.75 733.152  24
  -3   5  -7 7031.40 718.706  12
  -3   5  -8-7.95886 118.900  12
   3   6  -7 1368.67 340.722  21
   3   6  -6 1226.67 367.736  21
   3   6  -6 1704.65 331.231  14
   3   6  -5 1163.53 293.702  14
   3   6  -5 1511.72 436.890  21
   3   6  -4 3351.80 480.745  14
   3   6  -4 3213.00 576.616  21
   3   6  -3 1095.32 406.006  21
   3   6  -2 1134.38 386.689  21
   3   6   1 1240.82 427.492  16
   3   6   2 2364.93 531.128  15
   3   6   4 1810.48 440.122  24
  -4  -6   5 311.132 217.239  29
  -4  -6   4 1984.03 415.939  29
  -4  -6   2 540.280 327.324  29
  -4  -6   1 6356.78 689.341  29
  -4  -6   0 2419.59 435.907  29
  -4  -6  -1 1404.44 326.625  29
  -4  -5   9 736.101 263.601  25
  -4  -5   8 69.6780 185.344  25
  -4  -5   7 1306.31 424.574  25
  -4  -5   6 7351.30 863.048  25
  -4  -5   5 5935.89 838.756  25
  -4  -5   4 1751.91 460.388  25
  -4  -5   3 3409.29 649.345  25
  -4  -5   2 3066.98 662.074  25
  -4  -5   1 16891.7 1489.96  18
  -4  -5   1 17802.5 1434.82  25
  -4  -5   0 21155.5 1703.20  18
   4  -5   0 23959.1 1837.44   8
   4  -5   1 3310.30 720.244   8
  -4  -5  -1 3396.70 706.043  18
   4  -5   2 3356.19 669.597   8
  -4  -5  -2 2260.56 574.671  18
   4  -5   3 23917.2 1679.52   8
  -4  -5  -3 21916.4 1690.41  18
   4  -5   4 5706.48 777.134   8
  -4  -5  -4 6134.93 933.772  18
  -4  -5  -5 3305.32 607.577  18
   4  -5   5 3386.10 566.985   8
  -4  -5  -6 4306.48 593.650  18
   4  -5   6 4377.63 574.160   8
   4  -5   7 949.795 248.225   8
  -4  -4  12 6349.08 560.369  25
  -4  -4  11 3142.41 537.860  25
  -4  -4  10 4172.18 676.023  25
  -4  -4   9-495.681 399.457  25
  -4  -4   8 3235.63 562.046   9
  -4  -4   8 4053.29 759.067  25
  -4  -4   7 19580.4 1438.57   9
  -4  -4   7 23109.3 1787.72  25
  -4  -4   6 9343.80 1058.18   9
  -4  -4   6 10875.7 1234.14  25
  -4  -4   5 2465.47 663.249   9
  -4  -4   5 1528.20 463.687  25
  -4  -4   4 4549.61 813.947  25
  -4  -4   4 5607.30 912.858   9
  -4  -4   3 31325.3 2081.20   9
  -4  -4   3 29545.9 2015.16  25
  -4  -4   2 6361.70 1025.20   9
   4  -4  -2 6512.08 1070.75   8
  -4  -4   2 6198.27 932.376  25
  -4  -4   1 6055.40 913.036   9
  -4  -4   1 5817.35 936.722  25
   4  -4  -1 5141.96 919.640   8
  -4  -4   0 1730.77 600.240   9
  -4  -4   0 1054.71 480.299  25
   4  -4   0 1422.99 500.482   8
   4  -4   1 11900.0 1349.73   8
  -4  -4  -1 12923.1 1361.46  25
   4  -4   2 3669.26 787.986   8
  -4  -4  -2 4979.15 952.794  18
   4  -4   3 2783.91 848.503   8
  -4  -4  -3 1244.79 578.979  18
  -4  -4  -4 10492.1 1298.63  18
   4  -4   4 9270.82 1108.36   8
   4  -4   5 7846.04 1014.95   8
  -4  -4  -5 7928.78 1176.44  18
  -4  -4  -6 459.819 547.024  18
   4  -4   6 243.874 267.634   8
   4  -4   7 1305.09 431.480   8
  -4  -4  -7 854.026 485.352  18
   4  -4   8 7450.05 794.419   8
  -4  -4  -8 7488.91 937.879  18
  -4  -4  -9 665.161 333.223  18
  -4  -3  13 29.8420 196.021  25
  -4  -3  12 1116.13 381.247  25
   4  -3 -11 10915.4 1131.92  13
   4  -3 -10 11744.8 1244.90  13
   4  -3  -9 5130.20 918.089  13
  -4  -3   8 1379.12 438.765   9
   4  -3  -8 749.425 437.315  13
  -4  -3   7 36786.1 2059.39   9
   4  -3  -7 35614.8 2447.44  13
  -4  -3   6 801.979 799.204   2
   4  -3  -6 527.713 295.313  13
  -4  -3   6 1066.77 459.980   9
  -4  -3   5 9578.24 2455.28   2
   4  -3  -5 9183.57 1165.68  13
  -4  -3   5 8142.54 992.865  25
   4  -3  -4 13615.1 1349.94  19
   4  -3  -4 17087.9 1525.00  13
  -4  -3   4 14193.7 2864.68   2
  -4  -3   4 15639.5 1368.32  25
   4  -3  -3 15317.3 1462.58  19
  -4  -3   3 18140.3 3356.51   2
  -4  -3   3 18633.0 1437.47  25
   4  -3  -2 37892.7 2234.73  19
  -4  -3   2 36059.8 1961.21   9
  -4  -3   2 37346.5 2059.68  25
  -4  -3   2 36223.2 4588.77   2
   4  -3  -2 35098.3 2091.35   8
   4  -3  -1 18070.8 1428.73   8
  -4  -3   1 18658.6 3001.03   2
  -4  -3   1 20036.5 1486.12  25
  -4  -3   1 19647.5 1410.89   9
   4  -3  -1 18251.0 1424.40  22
   4  -3   0 8157.23 988.539  22
  -4  -3   0 7029.21 1916.72   2
  -4  -3   0 6073.09 828.285   9
   4  -3   0 5605.04 796.143   8
  -4  -3   0 6524.30 867.997  25
   4  -3   1 970.987 324.753  10
  -4  -3  -1 985.274 399.382   9
   4  -3   1 1428.88 452.121   8
  -4  -3  -1 939.266 366.994  25
   4  -3   2 36041.9 4221.09   3
   4  -3   2 36885.9 2134.55   8
   4  -3   2 41134.7 2326.02  10
  -4  -3  -2 36554.3 2149.95  25
   4  -3   3 17064.9 1492.48  10
   4  -3   3 15524.3 1398.62   8
  -4  -3  -3 17995.3 1681.07  18
   4  -3   3 16526.9 3010.14   3
   4  -3   4 1719.01 554.274  10
   4  -3   4 717.871 535.116   3
   4  -3   4 1841.45 574.384   8
  -4  -3  -4 1242.25 485.306  18
   4  -3   5 2446.84 690.751  10
   4  -3   5 1057.88 706.129   3
   4  -3   5 2149.84 514.828   8
  -4  -3  -5 1956.67 741.351  18
   4  -3   6 22970.5 1748.19   8
  -4  -3  -6 25191.3 2151.88  18
   4  -3   6 24764.0 1864.73  10
   4  -3   7 1905.74 488.266   8
  -4  -3  -7 2038.84 745.396  18
   4  -3   8 9640.66 1029.44   8
  -4  -3  -8 10124.3 1272.95  18
   4  -3   8 10024.3 1004.80   7
   4  -3   9 9163.89 877.595   8
  -4  -3  -9 10000.5 1167.95  18
  -4  -3 -10 4010.76 692.993  18
  -4  -2  14 3523.08 439.469  25
  -4  -2  13 536.387 261.702   8
   4  -2 -13 604.534 226.296  13
  -4  -2  12 3425.27 609.195   8
   4  -2 -12 3365.17 648.689  13
  -4  -2  11 3538.53 747.995   8
   4  -2 -11 2884.43 667.796  13
  -4  -2  10 2475.37 666.931   8
   4  -2 -10 1971.85 677.302  13
   4  -2  -9 2964.42 724.166  13
  -4  -2   8 12007.2 2745.54   2
   4  -2  -8 13894.4 1451.80  13
   4  -2  -7 21122.4 1725.44  13
  -4  -2   7 22678.7 3780.94   2
  -4  -2   6 15114.8 3098.11   2
   4  -2  -6 14061.8 1337.89  13
  -4  -2   5 74599.6 6287.56   2
  -4  -2   4 114023. 7538.54   2
  -4  -2   3 7656.30 1843.49   2
   4  -2  -2 7815.51 1423.64   1
   4  -2  -1 5327.28 1164.22   1
   4  -2   0 25270.7 2580.41   1
   4  -2   1 572.483 718.353   3
   4  -2   1 1248.63 722.513   1
   4  -2   2 2128.13 934.197   1
   4  -2   2 3476.13 1164.63   3
   4  -2   3 11639.4 2400.06   3
   4  -2   3 8760.20 1907.57   1
   4  -2   4 7053.18 893.090  22
   4  -2   4 8121.21 2112.42   3
  -4  -2  -4 7211.32 1013.14  18
   4  -2   4 7417.50 983.187  10
   4  -2   5 1785.88 551.792  10
   4  -2   5 1291.99 901.489   3
  -4  -2  -5 1394.25 548.126  18
   4  -2   6 620.421 389.471  10
   4  -2   6-1087.13 1372.64   3
  -4  -2  -6-109.484 434.056  18
   4  -2   6 100.340 340.055   7
  -4  -2  -7 9640.09 1220.56  18
   4  -2   7 10067.2 1228.13   7
   4  -2   7 10136.3 1156.11  10
  -4  -2  -8 13743.3 1498.77  18
   4  -2   8 12436.6 1249.35   7
   4  -2   8 11956.7 1236.78  10
  -4  -2  -9 6882.68 1113.25  18
   4  -2   9 5411.62 820.636   7
  -4  -2 -10 995.729 540.400  18
   4  -2  10 1446.51 499.668   7
   4  -2  11 1402.41 378.385   7
  -4  -1  14 7275.36 781.117   8
   4  -1 -14 6818.22 802.424  13
   4  -1 -13 11417.2 1264.25  13
   4  -1 -12 738.595 394.507  13
   4  -1 -11 16163.8 1589.36  13
   4  -1 -10 35607.1 2414.81  13
   4  -1  -9 19603.4 1600.23  19
   4  -1  -9 22383.4 1787.90  13
   4  -1  -8 10633.1 1211.78  19
  -4  -1   8 10536.0 2447.61   2
   4  -1  -8 11260.1 1243.61  13
  -4  -1   7 30116.7 4034.28   2
   4  -1  -7 25684.3 1770.48  13
  -4  -1   6 47072.2 4748.15   2
  -4  -1   5 23743.5 3203.11   2
  -4  -1   4 66013.0 5293.91   2
   4  -1  -3 51132.1 3814.10   1
   4  -1  -2 47313.0 3676.14   1
   4  -1  -1 59337.3 4077.14   1
   4  -1   0 1539.25 958.799   3
   4  -1   0 1565.23 926.183   1
   4  -1   1 8072.62 1711.88   1
   4  -1   1 10776.1 2061.28   3
   4  -1   2 27933.0 3357.83   3
   4  -1   3 37175.4 4058.75   3
   4  -1   4 5857.91 1841.81   3
   4  -1   5 26289.9 3857.18   3
  -4  -1  -6 35982.7 2265.00  18
   4  -1   6 36236.0 2424.88   7
   4  -1   6 33807.9 2068.34  10
   4  -1   6 38821.4 4839.64   3
   4  -1   7 4512.27 793.325  10
   4  -1   7 3698.05 1422.34   3
  -4  -1  -7 4548.73 868.597  18
   4  -1   7 4302.65 883.440   7
   4  -1   8 2114.03 569.383  10
  -4  -1  -8 3857.66 813.795  18
   4  -1   8 3668.21 859.075   7
  -4  -1  -9 6630.51 1079.76  18
   4  -1   9 5080.15 932.184   7
  -4  -1 -10 10263.9 1220.37  18
   4  -1  10 10864.6 1271.10   7
   4  -1  11 3737.04 705.486   7
   4  -1  12 118.281 198.872   7
   4  -1  13 4640.56 472.967   7
   4   0 -15 1095.86 292.953  13
   4   0 -14 1286.61 488.433  13
   4   0 -13 119.828 373.111  13
   4   0 -12 3681.36 903.851  13
   4   0 -12 1970.96 592.471  19
   4   0 -11 469.346 528.874  13
   4   0 -10 13043.5 1429.34  13
   4   0  -9 516.678 323.763  13
   4   0  -8 821.908 369.059  27
   4   0  -8 469.894 282.861  13
   4   0  -8 354.313 765.923   4
   4   0  -7 64539.8 5376.02   4
  -4   0   7 63037.3 5268.52   2
   4   0  -6 27592.3 3299.60   4
  -4   0   6 25745.0 3149.95   2
  -4   0   5 9458.15 1829.55   2
   4   0  -5 8343.55 1796.87   4
   4   0  -4 36314.8 3565.63   4
   4   0  -3 688659. 15247.0   1
   4   0  -2 27497.5 2855.29   1
   4   0  -1 171528. 6914.12   1
   4   0  -1 160962. 5773.19   5
   4   0   0 6758.07 1302.38   5
   4   0   0 6755.34 1400.95   1
   4   0   1 55057.4 3928.36   5
   4   0   1 52920.3 4440.75   1
   4   0   1 53801.4 4386.71   3
   4   0   2 6175.49 1692.86   3
   4   0   3 25614.3 3374.75   3
   4   0   4 12735.7 2393.86   3
   4   0   5 8568.51 2156.33   3
   4   0   6 12456.4 1176.72  10
   4   0   6 13493.9 2823.47   3
   4   0   6 17397.5 1648.55   7
   4   0   7 4407.03 943.202   7
   4   0   7 3413.97 608.092  10
   4   0   7 4101.12 1243.69   3
  -4   0  -7 3994.97 772.881  18
   4   0   8 1130.75 1367.38   3
  -4   0  -8 1108.70 420.940  18
   4   0   8 767.533 523.237   7
   4   0   9 1940.86 754.830   7
   4   0  10 4725.09 900.580   7
   4   0  11 4925.27 873.947   7
   4   0  12 5180.93 672.687   7
   4   0  13 504.830 200.062   7
   4   1 -15 366.833 187.666  13
   4   1 -14 9791.89 990.605  13
   4   1 -13 10829.8 1170.90  13
   4   1 -12 986.247 457.034  13
   4   1 -12 920.105 427.792  27
   4   1 -11 16404.5 1457.58  27
   4   1 -11 16794.9 1646.34  13
   4   1 -10 36419.7 2102.77  23
   4   1 -10 33108.6 1843.30  20
   4   1 -10 37946.7 2360.19  13
   4   1 -10 33731.3 2169.24  27
   4   1  -9 20731.1 1535.07  23
   4   1  -9 19086.8 1413.73  20
   4   1  -9 15117.3 3032.67   4
   4   1  -9 21215.4 1691.61  13
   4   1  -9 18833.8 1602.17  27
   4   1  -8 11371.2 1036.52  23
   4   1  -8 10624.6 1013.29  20
   4   1  -8 11079.0 1096.74  17
   4   1  -8 11119.3 2522.03   4
   4   1  -8 11401.3 1155.32  13
   4   1  -8 10896.5 1172.82  27
   4   1  -7 29283.9 1623.20  23
   4   1  -7 31464.4 3966.67   4
   4   1  -7 27368.2 1711.17  17
   4   1  -7 29249.6 1766.33  27
   4   1  -6 49779.0 4570.08   4
   4   1  -5 26229.9 3242.73   4
   4   1  -4 65067.1 4941.96   4
   4   1  -3 52681.0 3805.05   1
   4   1  -3 48485.8 3011.69   6
   4   1  -2 45368.1 3929.47   4
   4   1  -2 38387.6 3200.40   1
   4   1  -2 35447.4 2835.44   6
   4   1  -1 58668.4 3934.14   1
   4   1  -1 53380.9 3779.63   6
   4   1   0 2025.29 1203.91   6
   4   1   0 2782.17 895.499   1
   4   1   1 9377.01 2020.68   6
   4   1   1 8928.89 1818.27   5
   4   1   1 11094.7 2001.60   1
   4   1   2 23007.6 2957.65   5
   4   1   2 18213.2 3277.75   6
   4   1   3 39385.2 3979.86   5
   4   1   3 33085.6 3500.47   3
   4   1   4 3722.15 1208.42   3
   4   1   5 27469.2 1858.00  26
   4   1   5 21878.4 3152.96   3
   4   1   5 28907.7 1913.20  15
   4   1   5 26186.6 1966.67   7
   4   1   5 29471.0 1794.88  24
   4   1   6 36952.0 2240.83  15
   4   1   6 34560.2 2131.80  24
   4   1   6 34168.2 2375.21   7
   4   1   6 33597.3 2191.21  26
   4   1   6 27437.3 3635.14   3
   4   1   7 3592.17 881.136   7
   4   1   8 3490.79 892.869   7
   4   1   9 6696.67 1082.19   7
  -4   1  -9 6817.85 997.554  12
   4   1  10 11807.8 1399.19   7
  -4   1 -10 10039.3 1102.44  12
  -4   1 -11 3372.35 585.446  12
   4   1  11 3248.94 661.019   7
   4   1  12-151.799 308.888   7
  -4   1 -12 63.6784 201.093  11
   4   1  13 5072.91 484.238   7
   4   2 -14 2311.17 424.072  19
   4   2 -14 4942.12 610.739  13
   4   2 -13 1327.94 407.306  13
   4   2 -12 4863.37 803.065  13
   4   2 -12 5220.49 730.219  20
   4   2 -12 3831.03 734.336  27
   4   2 -11 4327.55 802.259  23
   4   2 -11 4105.91 626.809  20
   4   2 -11 4268.42 789.839  13
   4   2 -11 3538.29 753.162  27
   4   2 -10 2136.32 621.372  23
   4   2 -10 1755.29 536.026  20
   4   2 -10 2299.41 633.347  13
   4   2 -10 2083.09 632.562  17
   4   2 -10 1515.63 636.185  27
   4   2  -9 2078.26 574.961  23
   4   2  -9 2155.32 567.956  13
   4   2  -9 2892.95 629.450  17
   4   2  -9 2909.24 600.505  20
   4   2  -9 1940.95 1181.16   4
   4   2  -9 4463.09 696.301  14
   4   2  -9 3543.95 787.441  27
   4   2  -8 13860.3 1289.84  23
   4   2  -8 13323.4 1311.51  17
   4   2  -8 13011.2 2947.81   4
   4   2  -8 15893.1 1216.08  14
   4   2  -8 13462.7 1316.06  13
   4   2  -8 14034.2 1368.84  27
   4   2  -7 20161.2 1374.16  23
   4   2  -7 20065.7 3359.33   4
   4   2  -7 20314.0 1525.58  17
   4   2  -7 20188.4 1583.58  27
   4   2  -6 14979.1 1127.23  23
   4   2  -6 16527.1 2899.38   4
   4   2  -6 14392.9 1193.43  17
   4   2  -6 13215.2 1208.25  27
   4   2  -5 70733.6 5698.48   4
   4   2  -4 113058. 6977.64   4
   4   2  -4 87504.0 5105.45   6
   4   2  -3 8262.50 1558.47   6
   4   2  -3 9654.68 2002.25   4
   4   2  -2 6672.95 1301.49   1
   4   2  -2 6845.75 1531.53   6
   4   2  -2 8660.89 1911.50   4
   4   2  -1 4218.22 1405.50   6
   4   2  -1 3712.29 1007.26   1
   4   2  -1 4254.23 1347.68   4
   4   2   0 22998.5 2468.27   1
   4   2   0 23629.5 3133.93   6
   4   2   1 1215.73 943.136   5
   4   2   1 819.315 496.360   1
   4   2   1 850.536 1174.35   6
   4   2   2 2565.14 1326.76   6
   4   2   2 2531.19 878.280   1
   4   2   2 2354.68 1175.68   5
   4   2   3 14195.3 2677.95   6
   4   2   3 11824.3 2437.72   5
   4   2   3 11349.8 2311.93   1
   4   2   4 8783.51 2073.63   5
   4   2   4 8328.51 999.992  26
   4   2   4 8542.42 1022.18  15
   4   2   4 9914.36 2613.90   6
   4   2   5 1155.60 426.342  16
   4   2   5 1553.99 526.111  15
   4   2   5 1703.19 573.805  24
   4   2   5 1595.12 563.894  26
   4   2   6 351.847 394.504  15
   4   2   6 6.15215 429.988   7
   4   2   6 91.0297 314.948  26
   4   2   6-404.234 376.018  24
   4   2   7 12784.3 1372.45  15
   4   2   7 12087.0 1313.54  24
   4   2   7 11434.2 1511.71   7
  -4   2  -7 10068.4 2806.21   4
   4   2   8 15606.4 1545.83  24
   4   2   8 15334.0 1662.70   7
   4   2   9 5792.86 1027.78   7
   4   2  10 707.067 475.421   7
  -4   2 -10 1599.98 467.223  12
   4   2  11 1474.95 405.519   7
  -4   2 -11 1778.29 472.870  12
   4   2  12 6822.85 664.782   7
  -4   2 -12 10802.0 859.529  11
   4   3 -12 973.312 362.812  20
   4   3 -12 726.214 443.539  27
   4   3 -11 13675.5 1198.91  20
   4   3 -11 14205.9 1245.68  23
   4   3 -11 11644.4 940.501  14
   4   3 -11 13030.3 1337.94  27
   4   3 -10 12473.5 1245.18  23
   4   3 -10 12378.3 1282.78  20
   4   3 -10 12196.9 1065.61  14
   4   3 -10 11193.1 1355.17  27
   4   3  -9 4922.16 867.301  23
   4   3  -9 5924.65 949.731  20
   4   3  -9 4660.63 873.755  17
   4   3  -9 5795.79 818.943  14
   4   3  -9 5580.16 996.640  27
   4   3  -8 1204.41 475.090  23
   4   3  -8 626.585 312.550  17
   4   3  -8 1732.36 557.368  27
   4   3  -7 44464.6 2182.94  23
   4   3  -7 39915.8 5234.09   4
   4   3  -7 39416.9 2188.29  17
   4   3  -7 42598.7 2517.69  27
   4   3  -6 1714.55 545.529  23
   4   3  -6 1345.15 464.138  17
   4   3  -6 1381.48 953.996   4
   4   3  -6 1483.67 554.108  27
   4   3  -5 6204.15 773.516  23
   4   3  -5 7102.30 2068.41   4
   4   3  -5 7218.72 1018.87  27
   4   3  -4 16057.4 2872.50   4
   4   3  -4 12169.2 2300.50   6
   4   3  -4 14642.6 1327.65  27
   4   3  -3 15271.4 1178.05  20
   4   3  -3 15591.6 2911.11   4
   4   3  -3 12720.5 1189.62  27
   4   3  -3 14021.5 2499.57   6
   4   3  -2 32363.9 1700.35  20
   4   3  -2 39666.4 4327.03   6
   4   3  -2 41734.6 4443.47   4
   4   3  -1 20152.4 1525.25  28
   4   3  -1 18713.6 2955.70   4
   4   3  -1 16109.5 1147.30  14
   4   3  -1 21817.2 3163.65   6
   4   3   0 5745.04 1753.87   6
   4   3   0 5193.27 803.343  28
   4   3   1 1240.41 509.460  28
   4   3   1 2153.23 1353.40   6
   4   3   1 911.699 400.719  21
   4   3   1 2226.79 1272.80   5
   4   3   2 33812.3 2030.66  21
   4   3   2 40534.6 4732.44   5
   4   3   2 34622.3 4557.30   6
   4   3   3 13622.6 3107.62   6
   4   3   3 14689.8 1294.35  16
   4   3   3 13432.2 2806.61   5
   4   3   3 15744.7 1481.09  26
   4   3   4 1179.90 1140.86   6
   4   3   4 1375.12 1203.96   5
   4   3   4 1434.88 508.773  16
   4   3   4 1523.77 620.896  15
   4   3   4 2245.66 625.689  26
   4   3   5 1846.30 671.159  24
  -4   3  -5 534.443 660.892   4
   4   3   5 2018.66 718.855  15
   4   3   5 2103.51 658.866  26
   4   3   6 24156.7 1932.60  24
   4   3   6 24334.9 1934.33  15
   4   3   6 27176.8 2323.19   7
   4   3   6 22768.1 1807.43  26
   4   3   7 999.639 370.752  15
   4   3   7 1991.91 707.305   7
   4   3   7 1800.03 657.255  24
   4   3   8 9090.12 1237.52   7
   4   3   8 9675.65 1159.75  24
   4   3   9 9153.57 1205.75   7
   4   3  10 2834.21 607.981   7
  -4   3 -10 4248.24 669.728  12
  -4   3 -11 2290.07 425.596  11
   4   3  11 1103.69 294.707   7
  -4   3 -11 2162.91 405.814  12
   4   4 -12 5951.73 512.530  20
   4   4 -11 3253.42 513.769  20
   4   4 -11 2791.23 411.227  14
   4   4 -10 3793.49 605.810  23
   4   4 -10 3955.44 628.170  20
   4   4 -10 4158.50 566.455  14
   4   4 -10 3467.09 703.353  27
   4   4  -9 284.567 394.169  23
   4   4  -9 738.143 502.463  20
   4   4  -9-565.673 397.499  14
   4   4  -9-788.059 484.254  27
   4   4  -8 2753.78 563.583  23
   4   4  -8 2230.59 633.490  20
   4   4  -8 2885.54 625.448  14
   4   4  -8 2184.14 633.474  27
   4   4  -7 19703.4 1476.11  23
   4   4  -7 19990.1 1631.90  20
   4   4  -7 18949.8 1663.56  27
   4   4  -6 10704.2 1055.73  23
   4   4  -6 10527.4 1240.38  27
   4   4  -6 11245.1 1237.64  20
   4   4  -5 3336.33 691.173  20
   4   4  -5 2870.20 662.621  27
   4   4  -4 5672.60 2085.19   6
   4   4  -4 4143.21 740.258  20
   4   4  -3 26786.6 1712.46  20
   4   4  -3 18080.8 3356.78   6
   4   4  -2 4774.57 1803.27   6
   4   4  -2 6399.75 798.106  14
   4   4  -2 7162.82 986.654  28
   4   4  -1 2728.18 1408.65   6
   4   4  -1 3912.28 763.076  28
   4   4  -1 4953.82 675.764  14
   4   4   0 516.755 1056.48   6
   4   4   0 1263.10 462.559  21
   4   4   0 2672.72 1515.89   5
   4   4   1 7045.48 2440.04   6
   4   4   1 12098.2 1304.46  21
   4   4   1 9183.47 2711.56   5
   4   4   2 3013.49 1499.98   5
   4   4   2 3739.44 739.459  26
   4   4   3 1582.41 499.999  16
   4   4   3 1003.69 564.949  26
   4   4   4 7499.34 1022.79  26
   4   4   4 9705.13 1014.80  16
   4   4   4 7748.71 1032.91  15
   4   4   5 8677.47 1217.01  24
   4   4   5 9070.19 1154.87  15
   4   4   6 843.827 480.960  24
   4   4   6 594.749 400.008  15
   4   4   6 335.123 397.898   7
   4   4   7 827.073 500.614  24
   4   4   7 774.683 546.833   7
   4   4   8 6781.02 918.926   7
   4   4   8 6631.53 844.803  24
  -4   4  -9 2169.89 439.768  11
   4   4   9 1698.59 394.311   7
  -4   4  -9 2101.96 487.576  12
  -4   4 -10 1372.73 281.107  12
   4   5  -9 957.431 286.301  28
   4   5  -9 1153.22 373.700  21
   4   5  -9 1529.07 353.996  14
   4   5  -8 1109.12 401.722  28
   4   5  -8 747.357 360.640  20
   4   5  -8 824.658 394.730  14
   4   5  -7 1956.26 496.032  20
   4   5  -7 1798.99 487.120  14
   4   5  -7 1733.67 664.858  28
   4   5  -6 6757.09 904.910  28
   4   5  -6 8768.91 934.454  20
   4   5  -6 8742.23 901.047  14
   4   5  -5 6565.36 780.612  20
   4   5  -5 7061.09 821.484  14
   4   5  -5 5038.90 857.268  28
   4   5  -4 1413.45 417.648  28
   4   5  -4 3242.42 614.899  14
   4   5  -3 4684.52 684.962  14
   4   5  -3 3799.58 737.259  28
   4   5  -2 4787.44 625.819  14
   4   5  -2 4951.31 878.748  21
   4   5  -1 17365.3 1518.00  21
   4   5   0 20031.6 1564.87  21
   4   5   1 4781.29 776.480  26
   4   5   2 1365.20 378.365  16
   4   5   2 2246.74 585.732  26
   4   5   3 21518.6 1404.06  16
   4   5   3 22815.9 1659.96  15
   4   5   4 4318.62 676.816  15
   4   5   5 2601.72 549.388  24
   4   5   5 3471.29 702.075   7
   4   5   5 3175.74 605.771  15
   4   5   6 4577.42 696.955   7
   4   5   6 4604.49 675.599  24
  -4   5  -7 388.005 214.321  12
   4   5   7 407.267 239.765  24
   4   6  -5 0.13455 153.084  21
   4   6  -4 262.140 189.369  21
   4   6  -3 3543.47 553.775  26
   4   6  -3 3668.34 557.140  21
   4   6  -2 0.13631 135.511  21
   4   6  -2 252.318 205.072  26
   4   6  -1 3706.19 555.750  16
   4   6   0 2277.22 460.391  16
   4   6   1 697.054 262.556  16
   4   6   1 887.620 336.117  15
   4   6   2 252.673 195.461  15
   4   6   2 385.147 236.349   7
   4   6   3 1275.85 336.843  24
  -5  -6   4 4288.01 428.145  29
  -5  -6   3 3671.12 442.621  29
  -5  -6   2 49.4553 157.332  29
  -5  -6   1 998.138 278.800  29
  -5  -5   8 1718.53 339.201  25
  -5  -5   7 1182.15 404.525  25
  -5  -5   6 16939.4 1252.87  25
  -5  -5   5 1198.36 374.429  25
  -5  -5   4-401.661 427.919  25
  -5  -5   3 354.004 365.093  25
  -5  -5   2 15140.1 1281.58  25
  -5  -5   1 3858.03 807.579  18
  -5  -5   0 252.426 331.259  18
  -5  -5  -1 7750.31 984.171  18
   5  -5   2 15130.7 1199.86   8
  -5  -5  -2 17038.1 1432.06  18
   5  -5   3-151.388 217.720   8
  -5  -5  -3-262.445 369.328  18
   5  -5   4 1197.20 321.398   8
  -5  -5  -4 1198.38 343.862  18
  -5  -5  -5 906.257 314.478  18
  -5  -5  -6 2057.06 386.628  18
  -5  -4  11 211.954 164.425  25
  -5  -4  10 323.856 266.611  25
  -5  -4   9 4067.93 688.032  25
  -5  -4   8 16373.7 1202.08   9
  -5  -4   8 18634.4 1497.27  25
  -5  -4   7 19117.0 1460.24   9
  -5  -4   7 21319.3 1660.18  25
  -5  -4   6 2108.84 621.462   9
  -5  -4   6 1461.25 535.703  25
  -5  -4   5 36595.8 2363.59   9
  -5  -4   5 38433.2 2333.82  25
  -5  -4   4 31267.6 2411.85   9
  -5  -4   4 33515.4 2192.65  25
  -5  -4   3 8411.23 1309.30   9
  -5  -4   3 8571.28 1135.33  25
  -5  -4   2 736.961 499.657   9
  -5  -4   2 899.527 416.070  25
  -5  -4   1 8603.19 1132.38   9
  -5  -4   1 7408.70 1048.35  25
  -5  -4   0 29220.4 1969.44   9
   5  -4   0 25051.2 1832.33   8
  -5  -4   0 31227.1 2121.97  25
   5  -4   1 12288.6 1276.65   8
  -5  -4  -2 6736.77 1166.68  18
   5  -4   2 6513.85 924.616   8
   5  -4   3 8359.24 974.888   8
  -5  -4  -3 12268.0 1449.33  18
   5  -4   4 10132.5 1031.30   8
  -5  -4  -4 14071.9 1517.74  18
   5  -4   5 7988.29 872.596   8
  -5  -4  -5 9618.32 1204.36  18
  -5  -4  -6 399.229 599.500  18
  -5  -4  -7 10490.9 1053.30  18
  -5  -4  -8 1590.06 349.717  18
  -5  -4  -9 309.082 192.063  18
  -5  -3  12 694.603 310.368  25
   5  -3 -11 2148.09 491.291  13
  -5  -3  11 2757.56 555.490  25
   5  -3 -10-203.986 323.581  13
  -5  -3  10 55.0703 319.107  25
  -5  -3   9 2785.29 564.314   9
   5  -3  -9 2360.36 635.745  13
  -5  -3   8 593.430 372.636   9
   5  -3  -8 750.933 425.310  13
  -5  -3   8 1681.26 645.877  25
  -5  -3   7 10725.7 1195.40   9
   5  -3  -7 10337.6 1288.10  13
  -5  -3   7 10863.9 1240.74  25
   5  -3  -6 7561.99 1056.60  19
   5  -3  -6 7634.79 1115.20  13
  -5  -3   6 8019.76 1071.61  25
   5  -3  -5 32885.9 2267.86  19
  -5  -3   5 35431.6 2165.83  25
   5  -3  -4 35192.0 2412.18  19
  -5  -3   4 33159.7 4929.56   2
  -5  -3   4 36778.3 2195.06  25
  -5  -3   3 2947.25 1331.78   2
   5  -3  -3 2898.54 638.483  19
  -5  -3   3 3201.26 640.794  25
   5  -3  -2 20433.6 1679.51  22
   5  -3  -2 22501.9 1865.31  19
  -5  -3   2 17734.5 3508.97   2
  -5  -3   2 23426.2 1700.76  25
   5  -3  -1 12888.6 1360.54  22
  -5  -3   1 15320.9 1414.42   9
  -5  -3   1 11046.0 2733.35   2
  -5  -3   1 14706.6 1344.05  25
   5  -3   0 3718.54 725.470  10
   5  -3   0 3611.17 774.141  22
  -5  -3   0 3474.96 1842.93   2
  -5  -3   0 4697.24 799.806   9
  -5  -3   0 2934.86 678.333  25
   5  -3   1 18169.3 1660.11  22
  -5  -3  -1 16933.1 1369.97   9
  -5  -3  -1 17824.6 1495.73  25
   5  -3   1 16823.8 1669.28  10
   5  -3   2 11830.1 1404.62  10
  -5  -3  -3 8340.09 1203.40  18
   5  -3   3 5353.05 1797.01   3
   5  -3   3 9695.54 1274.95  10
   5  -3   4 1361.06 577.870  10
  -5  -3  -4 1903.55 803.351  18
  -5  -3  -5 28421.2 2246.91  18
   5  -3   5 27491.9 2038.75  10
   5  -3   6 3340.79 757.090  10
  -5  -3  -6 3180.13 740.488  18
  -5  -3  -7 4385.77 971.043  18
  -5  -3  -8 10404.8 1193.58  18
  -5  -3  -9-271.926 320.714  18
  -5  -3 -10 105.715 231.974  18
   5  -2 -13 837.241 330.053  13
  -5  -2  13 795.842 270.366  25
   5  -2 -12 2248.69 540.199  13
  -5  -2  12 2134.74 457.241  25
   5  -2 -11 20770.2 1726.70  13
   5  -2 -10 2252.22 699.789  13
   5  -2  -9 115.223 407.078  13
   5  -2  -8 57882.3 3069.78  13
   5  -2  -8 49632.9 2652.71  19
   5  -2  -7 46515.1 2572.93  19
  -5  -2   7 50098.2 6183.16   2
   5  -2  -7 52160.1 2836.92  13
   5  -2  -6 19675.4 1630.33  19
  -5  -2   6 18007.2 3497.21   2
   5  -2  -6 20423.5 1774.70  13
  -5  -2   6 18182.8 1533.92  25
   5  -2  -5 26196.6 1883.81  19
  -5  -2   5 25530.4 4046.27   2
   5  -2  -5 26713.0 1962.32  13
  -5  -2   5 27438.8 1745.15  25
   5  -2  -4 49322.1 2579.75  19
  -5  -2   4 50652.3 5592.44   2
   5  -2  -4 46293.9 2509.92  13
  -5  -2   4 47668.9 2254.43  25
   5  -2  -3 27670.7 1852.56  19
  -5  -2   3 29486.4 4021.34   2
   5  -2  -3 28397.0 1910.23  13
  -5  -2   3 25704.2 1611.16  25
   5  -2  -2 550.414 570.938   1
   5  -2  -1 136.248 455.796   1
   5  -2   0 21520.5 1634.69  19
   5  -2   0 18813.8 2600.78   1
  -5  -2   0 17265.4 1424.92  25
   5  -2   1 9199.60 1092.94  22
   5  -2   1 9312.01 1093.23  19
   5  -2   1 9065.63 1839.80   1
  -5  -2  -1 8264.04 951.754  25
   5  -2   1 10125.8 1283.20  10
   5  -2   2 35080.6 2145.68  22
   5  -2   2 35566.7 4454.20   3
   5  -2   2 33622.1 3871.29   1
   5  -2   2 39624.3 2441.60  10
   5  -2   3 1680.07 595.697  10
   5  -2   3 1201.65 490.255  22
   5  -2   3 1198.57 432.771   1
   5  -2   3 1209.92 1049.45   3
  -5  -2  -3 1469.64 558.751  18
   5  -2   4 15980.3 1464.27  22
   5  -2   4 15788.5 3133.83   3
  -5  -2  -4 16252.6 1617.00  18
   5  -2   4 13712.5 2873.63   1
   5  -2   4 18714.9 1634.60  10
   5  -2   5 9962.85 2338.98   1
  -5  -2  -5 14926.5 1515.09  18
   5  -2   5 11927.6 2867.80   3
   5  -2   5 15762.0 1495.02  10
  -5  -2  -6 43488.6 2683.90  18
   5  -2   6 41524.5 2432.07  10
  -5  -2  -7 9629.76 1249.71  18
   5  -2   7 9068.75 1001.51   7
   5  -2   7 9308.23 1138.33  10
   5  -2   8 17839.8 1386.08   7
   5  -2   8 18321.9 1488.30  10
  -5  -2  -9 3358.14 694.791  18
   5  -2   9 3478.11 611.535   7
  -5  -2 -10 977.264 425.211  18
   5  -2  10 1450.47 382.727   7
   5  -1 -14 420.746 257.901  13
   5  -1 -13 2679.63 611.725  13
   5  -1 -12 5664.19 986.565  13
   5  -1 -11 1442.87 433.457  19
   5  -1 -11 1535.07 611.048  13
   5  -1 -10 8055.27 1052.82  19
   5  -1 -10 10573.0 1332.15  13
   5  -1  -9 3996.33 802.613  19
   5  -1  -9 4269.93 822.312  13
   5  -1  -8 40859.3 2417.14  19
   5  -1  -8 41216.9 2513.45  13
   5  -1  -7 5956.11 897.730  19
  -5  -1   7 6206.10 1925.55   2
   5  -1  -7 8195.50 1094.75  13
   5  -1  -6 45052.5 2430.22  19
  -5  -1   6 46634.9 5139.57   2
   5  -1  -6 46976.4 2513.27  13
  -5  -1   5 12364.0 2587.65   2
  -5  -1   4 1858.25 1030.80   2
   5  -1  -3 5761.87 1415.39   1
   5  -1  -2 72250.4 5095.57   1
   5  -1  -1 46035.3 4096.21   1
   5  -1   0 18456.1 2773.04   1
   5  -1   1 4405.85 1462.57   1
   5  -1   1 4481.09 1392.32   3
   5  -1   2 31423.1 3896.96   3
   5  -1   2 33700.9 3975.64   1
   5  -1   3 4714.59 816.982  10
   5  -1   3 4335.91 1518.39   3
   5  -1   3 3237.95 1382.27   1
   5  -1   4 13429.5 1332.00  10
   5  -1   4 10603.1 1089.76  22
  -5  -1  -4 12574.3 1246.45  18
   5  -1   4 11191.1 2548.57   3
   5  -1   5 5342.56 876.299  10
   5  -1   5 3775.95 689.161  22
   5  -1   5 5801.16 1935.74   3
  -5  -1  -5 4117.17 787.458  18
   5  -1   5 3818.07 695.680   7
   5  -1   6 3504.97 744.476  10
   5  -1   6 5016.54 1825.12   3
  -5  -1  -6 3442.30 831.319  18
   5  -1   6 3267.33 685.141   7
   5  -1   7 6634.74 1007.10  10
  -5  -1  -7 5771.26 915.763  18
   5  -1   7 5946.51 962.842   7
   5  -1   8-76.1483 291.094  10
  -5  -1  -8 248.889 348.868  18
   5  -1   8 373.615 391.336   7
   5  -1   9-114.557 275.029  10
   5  -1   9 392.121 347.272   7
   5  -1  10 770.202 374.143   7
   5  -1  11 2083.89 420.982   7
   5  -1  12 44.6823 113.692   7
   5   0 -14 2667.91 504.093  13
   5   0 -13 8189.77 999.561  13
   5   0 -12 16884.2 1463.06  19
   5   0 -12 18071.4 1686.65  13
   5   0 -11 33669.9 2245.34  19
   5   0 -11 34753.5 2362.93  13
   5   0 -10 496.731 381.554  13
   5   0  -9 64178.6 3151.99  13
   5   0  -8 13256.5 1343.69  13
   5   0  -7 2244.05 575.852  20
   5   0  -7 881.258 350.300  13
  -5   0   6 6975.30 1727.42   2
  -5   0   5 18059.2 2841.25   2
   5   0  -4 51633.2 4320.64   1
   5   0  -3 2728.47 1224.00   1
   5   0  -2 3721.51 1310.30   1
   5   0  -2 3805.87 870.771   5
   5   0  -1 28962.1 3326.31   1
   5   0  -1 29401.8 2638.05   5
   5   0   0 30245.0 2840.89   5
   5   0   0 36127.5 3872.54   1
   5   0   1 20630.3 3015.56   1
   5   0   2-153.014 749.946   3
   5   0   2-31.7320 600.734   1
   5   0   3 6845.26 1947.13   3
   5   0   3 8334.91 2256.60   1
   5   0   4 73363.4 3069.69  26
   5   0   4 59396.3 5774.16   3
   5   0   5 51587.8 2621.61  10
   5   0   5 53668.6 5703.97   3
   5   0   5 61311.8 3072.78   7
   5   0   6-167.454 362.117  10
   5   0   6 226.372 386.810   7
   5   0   6-273.928 642.016   3
   5   0   7 23142.5 1976.12   7
   5   0   7 18379.7 1529.70  10
   5   0   8 16249.2 1590.82   7
   5   0   8 12590.3 1207.50  10
   5   0   9 17516.9 1628.66   7
   5   0  10 496.263 370.022   7
   5   0  11 11344.9 1004.72   7
   5   0  12 696.047 235.846   7
   5   1 -14 425.557 223.650  13
   5   1 -13 1650.75 462.496  19
   5   1 -13 2419.67 605.216  13
   5   1 -12 6018.24 911.077  13
   5   1 -11 974.015 423.142  13
   5   1 -10 5574.52 764.493  20
   5   1 -10 6829.78 994.844  27
   5   1 -10 6896.58 1040.51  13
   5   1  -9 6170.68 822.027  20
   5   1  -9 4014.93 1814.77   4
   5   1  -9 6119.32 964.881  13
   5   1  -9 6135.71 988.461  27
   5   1  -8 41328.6 2168.26  20
   5   1  -8 34670.5 4876.73   4
   5   1  -8 38021.3 1904.45  14
   5   1  -8 38764.7 2349.56  13
   5   1  -8 40886.4 2399.41  27
   5   1  -7 7429.56 899.057  23
   5   1  -7 7385.60 866.265  20
   5   1  -7 7265.04 2131.13   4
   5   1  -7 6746.37 784.574  14
   5   1  -7 6703.70 897.726  13
   5   1  -7 6057.14 885.056  27
   5   1  -6 47112.9 2162.42  20
   5   1  -6 50173.9 5313.97   4
   5   1  -6 43534.2 1956.33  14
   5   1  -6 47050.7 2340.92  27
   5   1  -5 13251.2 2658.63   4
   5   1  -4 1255.62 836.164   4
   5   1  -3 4120.67 1251.39   1
   5   1  -2 64494.3 4773.42   1
   5   1  -2 56494.1 4106.50   6
   5   1  -1 42970.9 3852.45   1
   5   1  -1 40635.0 3742.64   6
   5   1   0 17739.8 2482.84   5
   5   1   0 17479.1 2551.78   1
   5   1   1 2393.38 1000.07   5
   5   1   1 4728.90 1455.97   1
   5   1   2 28313.2 3519.44   5
   5   1   2 28437.4 3823.31   1
   5   1   3 4522.29 733.291  26
   5   1   3 3960.23 655.021  16
   5   1   3 4494.37 703.957  15
   5   1   3 3347.39 1290.37   1
   5   1   4 15359.5 1326.16  24
   5   1   4 12150.6 1296.84  15
   5   1   4 12585.8 1404.42   7
   5   1   4 14234.3 1391.32  26
   5   1   5 3903.64 770.859   7
   5   1   5 4150.74 847.960  24
   5   1   5 2011.79 845.676   3
   5   1   5 3509.74 763.298  15
   5   1   5 3588.73 768.932  26
   5   1   6 3149.26 816.047   7
   5   1   6 3080.46 754.004  26
   5   1   6 2241.78 580.356  24
   5   1   7 7058.20 917.850  10
   5   1   7 7591.08 1199.69   7
   5   1   8 965.840 643.284   7
   5   1   9-203.720 468.521   7
  -5   1  -9-330.474 276.525  12
   5   1  10 204.903 359.381   7
  -5   1 -10 529.970 260.714  12
   5   1  11 2267.33 455.589   7
  -5   1 -11 2240.72 436.628  11
   5   1  12 397.793 236.546   7
   5   2 -13 904.868 302.773  13
   5   2 -12 2158.52 524.711  13
   5   2 -12 2612.59 477.158  20
   5   2 -11 17570.7 1346.34  20
   5   2 -11 17447.8 1434.20  13
   5   2 -11 16542.3 1348.38  28
   5   2 -10 2169.04 607.729  20
   5   2 -10 1183.49 438.584  13
   5   2 -10 1178.76 320.129  14
   5   2  -9 777.097 449.474  23
   5   2  -9 657.342 392.918  13
   5   2  -9 763.090 449.786  20
   5   2  -9 467.561 308.334  14
   5   2  -9 1116.90 617.322  27
   5   2  -8 55942.3 2709.29  20
   5   2  -8 56636.8 2698.44  23
   5   2  -8 53087.1 2444.46  14
   5   2  -8 56289.0 2912.37  27
   5   2  -7 51570.9 2535.97  20
   5   2  -7 52529.7 2433.30  23
   5   2  -7 50702.6 5883.11   4
   5   2  -7 51668.1 2348.42  14
   5   2  -7 51783.6 2709.86  27
   5   2  -6 21909.2 1467.88  23
   5   2  -6 20421.4 1497.56  20
   5   2  -6 18693.0 3364.41   4
   5   2  -6 19037.8 1332.49  14
   5   2  -6 21916.0 1670.37  27
   5   2  -5 25512.2 1530.33  23
   5   2  -5 25186.4 1618.98  20
   5   2  -5 25096.3 3927.52   4
   5   2  -5 24442.5 1505.08  14
   5   2  -5 26859.0 1799.18  27
   5   2  -4 49728.7 2251.21  20
   5   2  -4 54724.4 5541.34   4
   5   2  -4 48269.1 2083.11  14
   5   2  -3 28922.3 1675.42  20
   5   2  -3 31416.6 1609.73  14
   5   2  -3 29442.4 1831.94  28
   5   2  -3 26564.0 3112.49   6
   5   2  -2-673.394 797.651   6
   5   2  -2 131.575 378.746   1
   5   2  -1 1093.57 639.301   6
   5   2  -1 693.885 598.778   1
   5   2   0 22846.2 3252.03   5
   5   2   0 19745.7 2644.58   1
   5   2   0 22298.7 1502.13  16
   5   2   0 18860.2 3202.07   6
   5   2   1 9914.03 2335.04   6
   5   2   1 9169.98 1919.25   1
   5   2   1 8840.05 1027.95  21
   5   2   1 9937.34 2106.84   5
   5   2   1 10448.4 1024.41  16
   5   2   1 9169.21 1047.80  26
   5   2   2 34844.4 2029.17  21
   5   2   2 31539.3 3963.29   5
   5   2   2 34727.2 1876.05  16
   5   2   2 34564.3 2081.17  26
   5   2   2 27823.1 4049.74   6
   5   2   2 28382.4 3605.78   1
   5   2   3 2473.01 635.437  24
   5   2   3 1852.30 1012.16   1
   5   2   3 1830.67 538.845  16
   5   2   3 1303.11 437.168  15
   5   2   3 754.071 273.349  26
   5   2   4 13467.7 2686.92   1
   5   2   4 15130.0 1324.93  16
   5   2   4 16858.5 1557.81  15
   5   2   4 18337.5 1651.81  26
   5   2   4 21422.5 1651.85  24
   5   2   5 14245.3 1450.37  26
   5   2   5 14973.5 1517.45  15
   5   2   5 13867.4 1638.84   7
   5   2   5 14352.0 1427.98  24
   5   2   6 43677.8 2620.57  15
   5   2   6 36939.4 2711.39   7
   5   2   6 38334.5 2460.71  26
   5   2   6 45941.2 2493.19  24
   5   2   7 6957.89 1090.77   7
   5   2   7 11769.3 1414.54  24
   5   2   8 21068.4 1863.19   7
   5   2   9 3128.96 714.426   7
   5   2  10 605.690 342.257   7
  -5   2 -10 1000.64 288.156  12
   5   2  11 2741.87 441.637   7
  -5   2 -11 3833.74 475.784  12
  -5   2 -11 3832.23 547.230  11
   5   3 -13 2097.56 380.240  19
   5   3 -12 72.9702 191.624  20
   5   3 -11 2040.38 518.982  20
   5   3 -11 2320.67 555.050  28
   5   3 -10 871.837 378.902  20
   5   3 -10 672.706 381.926  14
   5   3 -10 658.280 542.346  27
   5   3  -9 4732.32 790.221  23
   5   3  -9 3638.95 781.870  20
   5   3  -9 3813.44 737.475  14
   5   3  -8 703.085 567.120  23
   5   3  -8 1619.90 594.940  20
   5   3  -8 508.042 394.872  14
   5   3  -8 992.925 589.679  27
   5   3  -7 9030.22 1094.31  23
   5   3  -7 11504.7 1226.49  20
   5   3  -7 9966.12 1141.02  14
   5   3  -7 10452.3 1296.76  27
   5   3  -6 7292.02 939.616  23
   5   3  -6 8504.00 1029.79  20
   5   3  -6 4792.83 1798.75   4
   5   3  -6 6765.28 919.628  14
   5   3  -6 8165.85 1136.23  27
   5   3  -5 31817.7 1771.45  23
   5   3  -5 35347.6 2066.62  20
   5   3  -5 33790.9 1835.57  14
   5   3  -4 36169.0 2050.23  20
   5   3  -4 34046.1 4633.79   4
   5   3  -4 36454.6 1957.12  14
   5   3  -3 4452.12 1645.79   6
   5   3  -3 3440.07 659.827  20
   5   3  -3 2275.50 1251.47   4
   5   3  -3 3446.58 703.330  14
   5   3  -3 2511.58 634.475  28
   5   3  -2 17571.7 1365.89  20
   5   3  -2 21435.5 1407.81  14
   5   3  -2 20187.8 1694.52  28
   5   3  -2 15179.9 2820.14   6
   5   3  -1 9568.63 2233.91   6
   5   3  -1 12497.4 1273.92  21
   5   3  -1 10054.3 996.562  20
   5   3  -1 13198.2 1055.92  14
   5   3  -1 12960.6 1338.53  28
   5   3   0 2024.30 965.288   6
   5   3   0 2718.82 682.931  21
   5   3   0 2921.10 669.474  28
   5   3   0 2618.19 1632.31   5
   5   3   0 2186.38 449.073  14
   5   3   1 12930.3 2862.98   6
   5   3   1 16533.9 1518.43  21
   5   3   1 15169.0 3003.69   5
   5   3   1 16611.7 1445.48  16
   5   3   2 8977.73 2731.49   6
   5   3   2 13199.2 1382.29  26
   5   3   2 9934.26 1136.82  21
   5   3   2 8716.30 2281.31   5
   5   3   2 11685.1 1253.81  16
   5   3   3 3203.32 1627.53   6
   5   3   3 6783.75 2126.29   5
   5   3   3 6436.00 921.719  16
   5   3   3 7242.79 1079.42  15
   5   3   3 8378.44 1182.90  26
   5   3   4 864.185 552.408  24
   5   3   4 623.197 418.644  16
   5   3   4 1327.53 621.900  15
   5   3   4 928.959 555.700  26
   5   3   5 27314.8 2088.08  15
   5   3   5 25469.2 1973.31  26
   5   3   5 27349.5 2006.82  24
   5   3   6 3489.06 760.484  26
   5   3   6 4989.71 996.629   7
   5   3   6 3359.67 751.741  15
   5   3   6 3784.78 856.138  24
   5   3   7 2649.75 791.190   7
   5   3   7 2067.49 580.409  24
   5   3   8 9134.36 1213.65   7
   5   3   9 577.613 350.953   7
  -5   3  -9 669.744 264.581  12
   5   3  10-130.622 235.514   7
  -5   3 -10 467.425 206.942  12
   5   4 -11 613.061 287.408  20
   5   4 -11 19.7819 169.198  28
   5   4 -10 806.852 411.883  21
   5   4 -10 452.172 294.584  20
   5   4 -10 95.5920 221.795  14
   5   4 -10 158.315 263.999  28
   5   4  -9 2626.39 565.122  21
   5   4  -9 3113.00 595.828  20
   5   4  -9 5030.86 697.341  14
   5   4  -9 3429.32 705.306  28
   5   4  -8 19051.7 1503.06  20
   5   4  -8 19515.6 1395.85  14
   5   4  -8 17613.7 1606.14  28
   5   4  -7 24091.0 1940.18  28
   5   4  -7 21336.9 1618.90  20
   5   4  -7 21948.0 1596.01  14
   5   4  -6 2280.98 572.588  20
   5   4  -6 1805.56 706.607  14
   5   4  -6 2160.18 696.581  28
   5   4  -5 37031.1 2117.41  20
   5   4  -5 38906.3 2078.11  14
   5   4  -5 40532.6 2517.13  28
   5   4  -4 28564.4 2122.59  28
   5   4  -4 27924.4 1830.47  20
   5   4  -4 29737.1 1813.63  14
   5   4  -3 7282.35 912.183  20
   5   4  -3 7668.37 1010.20  14
   5   4  -3 5562.03 921.096  28
   5   4  -2 690.157 369.182  28
   5   4  -2 749.283 491.889  21
   5   4  -2 1049.14 393.525  14
   5   4  -1 7791.22 1041.47  28
   5   4  -1 6912.62 1099.39  21
   5   4  -1 8019.16 905.054  14
   5   4   0 22817.0 1771.89  28
   5   4   0 25863.6 1962.04  21
   5   4   1 11599.2 1243.80  21
   5   4   1 13630.1 1438.47  16
   5   4   1 12975.0 1435.62  26
   5   4   2 5049.42 807.118  21
   5   4   2 4761.92 859.660  16
   5   4   2 4981.15 894.178  26
   5   4   3 9299.28 1008.71  16
   5   4   3 10036.2 1238.98  15
   5   4   3 9780.93 1143.72  26
   5   4   4 10728.5 1354.56  24
   5   4   4 9210.93 972.340  16
   5   4   4 11524.3 1313.33  15
   5   4   4 10188.7 1180.79  26
   5   4   5 7213.58 1101.15  24
   5   4   5 7635.21 1003.27  15
   5   4   5 9568.54 1058.17  26
   5   4   5 8130.08 1240.56   7
   5   4   6 263.614 353.505  15
   5   4   6-28.2685 406.284   7
   5   4   6 502.299 474.539  24
   5   4   7 8672.70 1061.97   7
   5   4   7 10567.7 991.756  24
   5   4   8 1441.34 345.412   7
  -5   4  -9 338.515 183.672  12
   5   5  -9 1015.68 254.068  28
   5   5  -8 1605.74 404.599  21
   5   5  -8 2166.98 387.045  20
   5   5  -8 2318.47 377.164  14
   5   5  -8 2225.15 443.975  28
   5   5  -7 1457.28 417.779  21
   5   5  -7 1163.74 310.441  20
   5   5  -7 1859.52 469.705  14
   5   5  -7 1158.63 389.225  28
   5   5  -6 18112.0 1381.51  28
   5   5  -6 15616.1 1111.39  20
   5   5  -6 18770.6 1235.85  14
   5   5  -5 1313.92 530.662  21
   5   5  -5 1881.11 413.655  20
   5   5  -5 1793.54 434.023  14
   5   5  -5 799.184 395.376  28
   5   5  -4 894.650 453.498  21
   5   5  -4 9.58523 297.172  14
   5   5  -4-248.701 356.022  28
   5   5  -3 534.930 344.784  21
   5   5  -3 649.443 315.934  14
   5   5  -3-61.6085 366.897  28
   5   5  -2 12033.1 1292.06  21
   5   5  -2 12596.1 988.821  14
   5   5  -2 9753.81 1054.50  28
   5   5  -1 1993.14 548.828  21
   5   5  -1 3665.67 774.125  26
   5   5   0 329.876 321.695  21
   5   5   0-300.880 576.814  16
   5   5   0-137.121 350.815  26
   5   5   1 8714.57 1001.97  16
   5   5   1 5248.07 828.370  26
   5   5   2 15060.7 1148.21  16
   5   5   2 15750.0 1400.17  15
   5   5   2 13478.5 1196.22  26
   5   5   3-256.179 464.332  24
   5   5   3 56.5761 224.902  16
   5   5   3-60.5419 314.155  15
   5   5   3-391.602 287.862  26
   5   5   4 1162.33 397.938  24
   5   5   4 1086.83 487.140   7
   5   5   4 795.456 382.579  15
   5   5   5 36.1065 209.434  15
   5   5   5 355.576 339.316   7
   5   5   6 1773.07 390.665   7
   5   5   6 1627.01 364.809  24
   5   6  -4 2454.98 372.586  16
   5   6  -3 1939.61 351.777  16
   5   6  -2-307.785 211.303  16
   5   6  -1 1059.64 282.276  16
   5   6  -1 611.314 254.178  15
   5   6   0 2360.85 406.697  15
   5   6   1 81.8037 200.419  24
   5   6   2 884.169 259.944  24
  -6  -5   7 2355.65 373.510  25
  -6  -5   6 4939.99 565.614  25
  -6  -5   5 3370.73 510.609  25
  -6  -5   4 228.433 294.232  25
  -6  -5   3 6743.92 777.845  25
  -6  -5   2 4454.21 704.968  18
  -6  -5   1 1182.06 419.423  18
  -6  -5   0 1374.38 448.714  18
  -6  -5  -1 2272.98 538.595  18
  -6  -5  -2 5114.97 669.993  18
  -6  -5  -3 515.849 296.709  18
  -6  -5  -4 8771.98 762.930  18
  -6  -4  10 10960.1 822.672  25
  -6  -4   9-453.967 355.601  25
  -6  -4   8 3786.04 646.008   9
  -6  -4   8 3933.44 652.040  25
  -6  -4   7 1851.99 493.557   9
  -6  -4   7 1901.28 530.795  25
  -6  -4   6 1425.42 460.563   9
  -6  -4   6 2479.97 674.045  25
  -6  -4   5 1566.21 591.534   9
  -6  -4   5 836.167 456.943  25
  -6  -4   4 187.332 405.711   9
  -6  -4   4-252.486 476.477  25
  -6  -4   3 653.248 496.687   9
  -6  -4   3-30.2360 415.064  25
  -6  -4   2 3892.34 760.738   9
  -6  -4   2 4116.62 842.975  25
  -6  -4   1 5445.53 843.459   9
  -6  -4   1 5252.88 882.963  25
  -6  -4   0 5073.68 741.890   9
  -6  -4  -1 8446.65 1271.19  18
  -6  -4  -2 6438.64 1061.83  18
  -6  -4  -3 8895.35 1161.53  18
  -6  -4  -4 20061.0 1648.52  18
  -6  -4  -5 11519.6 1161.58  18
  -6  -4  -6 152.981 258.750  18
  -6  -4  -7 271.100 188.575  18
  -6  -3  12 1148.39 232.157  25
  -6  -3  11 5743.74 683.448  25
  -6  -3  10 3432.87 483.389   9
  -6  -3  10 4019.59 648.461  25
  -6  -3   9 435.925 336.538   9
  -6  -3   9 101.812 398.010  25
  -6  -3   8 4264.27 689.203   9
  -6  -3   8 4885.64 857.632  25
  -6  -3   7 4117.00 804.582   9
   6  -3  -7 3858.50 709.257  19
  -6  -3   7 4810.99 887.986  25
   6  -3  -6 22949.8 1821.31  19
  -6  -3   6 26396.3 1927.38  25
   6  -3  -5 18216.5 1717.27  19
  -6  -3   5 21122.4 1710.37  25
   6  -3  -4 744.355 419.386  19
  -6  -3   4 566.502 450.257  25
   6  -3  -3 21614.4 1760.48  22
   6  -3  -3 23352.8 1876.23  19
  -6  -3   3 23578.8 1814.82  25
   6  -3  -2 18859.8 1668.01  22
   6  -3  -2 19646.4 1786.76  19
  -6  -3   2 20034.3 1676.55  25
   6  -3  -1 19875.3 1732.03  22
  -6  -3   1 16439.2 1558.62   9
  -6  -3   1 21272.6 1718.59  25
   6  -3   0 1299.89 531.075  10
   6  -3   0 553.752 347.440  22
  -6  -3   0 1239.67 457.749   9
  -6  -3   0 589.343 403.051  25
   6  -3   1 10142.5 1269.78  22
   6  -3   1 10530.6 1227.43  10
  -6  -3  -2 10777.0 1360.55  18
   6  -3   2 13966.0 1427.67  10
  -6  -3  -3 37930.6 2526.22  18
   6  -3   3 35088.9 2307.62  10
   6  -3   4 2438.93 695.403  10
  -6  -3  -4 2171.76 732.784  18
   6  -3   5 4599.62 863.905  10
  -6  -3  -5 5513.00 969.038  18
   6  -3   6 23.5950 330.150  10
  -6  -3  -6 939.299 578.564  18
  -6  -3  -7 14710.7 1328.31  18
  -6  -3  -8 2152.06 464.121  18
  -6  -3  -9 810.559 260.070  18
   6  -2 -13 74.3916 164.598  13
   6  -2 -12 11366.4 1054.59  13
  -6  -2  12 9252.63 792.803  25
   6  -2 -11 2610.93 707.325  13
  -6  -2  11 1550.93 376.597  25
   6  -2 -10-355.368 270.106  19
   6  -2 -10 250.587 452.417  13
  -6  -2  10 98.1577 298.135  25
   6  -2  -9 2146.50 596.931  19
   6  -2  -9 1612.22 546.902  13
  -6  -2   9 1720.38 480.630  25
   6  -2  -8 24896.3 1895.82  19
   6  -2  -8 27992.4 2198.37  13
  -6  -2   8 26700.4 1853.17  25
   6  -2  -7 139.130 394.087  19
   6  -2  -7 962.048 513.376  13
  -6  -2   7 153.061 373.948  25
   6  -2  -6 6854.91 1008.78  19
   6  -2  -6 7266.20 1109.33  13
  -6  -2   6 6448.18 929.206  25
  -6  -2   5 499.522 1021.97   2
   6  -2  -5 608.422 340.645  19
  -6  -2   5 119.314 305.777  25
   6  -2  -4 8901.44 1050.29  22
  -6  -2   4 9347.63 2298.94   2
   6  -2  -4 10297.4 1199.65  19
   6  -2  -4 10348.8 1206.83  13
  -6  -2   4 9269.04 1041.39  25
   6  -2  -3 9465.19 1166.61  22
  -6  -2   3 9104.41 2365.44   2
   6  -2  -3 9902.08 1163.06  19
  -6  -2   3 10172.6 1094.34  25
   6  -2  -2 3030.77 672.112  22
   6  -2  -2 3153.11 659.694  19
  -6  -2   2 2977.18 631.786  25
   6  -2  -2 2781.23 1117.03   1
   6  -2  -1 7362.56 1091.90  22
   6  -2  -1 4813.65 860.044  19
   6  -2  -1 3732.12 1265.22   1
  -6  -2   1 4611.78 737.263  25
   6  -2  -1 4863.02 770.544  10
   6  -2   0 41483.2 2337.69  22
   6  -2   0 40500.9 2399.07  19
  -6  -2   0 38136.3 2136.91  25
   6  -2   0 38432.1 2258.59  10
   6  -2   1 15817.9 1491.10  22
   6  -2   1 11772.9 2408.92   1
   6  -2   1 14755.4 1404.66  10
   6  -2   2 1954.91 688.361  10
   6  -2   2 1445.78 526.618  22
   6  -2   2 664.911 452.157   1
   6  -2   3 7625.70 1059.90  22
  -6  -2  -3 8020.75 1132.35  18
   6  -2   3 8441.59 1111.07  10
   6  -2   4 22636.8 1799.77  22
  -6  -2  -4 23752.4 1928.68  18
   6  -2   4 25021.9 1907.64  10
  -6  -2  -5 37257.6 2396.50  18
   6  -2   5 34777.5 2217.00  10
   6  -2   6 477.115 389.398  10
  -6  -2  -6 833.889 495.834  18
  -6  -2  -7 5736.08 912.426  18
   6  -2   7 6403.97 924.117  10
   6  -2   8 3174.80 568.212  10
  -6  -2  -8 3841.76 655.223  18
  -6  -2  -9 2509.53 507.880  18
   6  -1 -14 4324.76 488.841  13
   6  -1 -13 1250.23 417.393  13
   6  -1 -12 675.220 369.918  13
   6  -1 -11 1922.78 558.429  19
   6  -1 -11 1866.21 626.687  13
   6  -1 -10 5288.56 906.318  19
   6  -1 -10 6700.16 1021.49  13
   6  -1  -9 24302.4 1926.71  19
   6  -1  -9 25966.1 2059.54  13
   6  -1  -8 14396.3 1479.45  19
   6  -1  -8 15493.0 1558.85  13
   6  -1  -7 50040.2 2718.76  19
   6  -1  -7 50749.4 2814.52  13
  -6  -1   6 13482.4 3015.40   2
   6  -1  -6 14743.6 1416.19  19
   6  -1  -6 15570.8 1516.82  13
   6  -1  -5 10246.4 1118.66  22
  -6  -1   5 10912.7 2720.61   2
   6  -1  -5 11342.0 1227.24  19
   6  -1  -5 11784.5 1257.53  13
   6  -1  -4 2256.44 496.438  22
   6  -1  -4 2186.20 627.446  19
  -6  -1   4 2006.60 1476.67   2
   6  -1  -4 2888.33 717.802  13
   6  -1  -3 38213.9 2093.71  22
   6  -1  -3 37472.7 2178.13  19
   6  -1  -3 36263.1 2196.64  13
   6  -1  -3 34338.0 4014.23   1
   6  -1  -2 23247.6 1609.60  22
   6  -1  -2 21467.3 1600.27  19
   6  -1  -2 18360.4 2916.93   1
   6  -1  -1 8940.71 1011.72  22
   6  -1  -1 9123.01 2075.95   1
   6  -1  -1 9518.39 1133.97  19
   6  -1   0 4273.76 734.185  10
   6  -1   0 3994.04 620.455  22
   6  -1   0 4185.46 768.545  19
   6  -1   0 4081.33 1372.17   1
  -6  -1   0 2826.90 551.193  25
   6  -1   1 27146.4 1834.15  10
   6  -1   1 24417.6 3532.67   1
   6  -1   1 28811.1 1861.06  22
   6  -1   1 24789.8 1766.86  19
   6  -1   2 36467.1 2258.54  10
   6  -1   2 35992.2 2137.45  22
   6  -1   2 34486.3 4322.41   1
   6  -1   3 16570.9 1489.36  10
   6  -1   3 14531.5 1327.80  22
  -6  -1  -3 13875.7 1394.95  18
   6  -1   3 13181.3 2881.70   3
   6  -1   3 14646.0 2984.12   1
   6  -1   4 20602.0 1654.44  10
   6  -1   4 18248.4 1505.36  22
   6  -1   4 16637.0 3426.20   3
  -6  -1  -4 19519.6 1617.29  18
   6  -1   4 18372.5 3327.26   1
   6  -1   5 1826.06 565.439  10
   6  -1   5 1029.18 408.614  22
  -6  -1  -5 1339.93 395.575  18
  -6  -1  -6 34098.9 2109.91  18
   6  -1   6 30266.2 1902.77   7
   6  -1   6 37282.4 2253.86  10
  -6  -1  -7 21951.1 1629.34  18
   6  -1   7 21049.3 1566.85   7
   6  -1   7 25753.1 1787.41  10
   6  -1   8 277.978 278.279  10
  -6  -1  -8 249.544 280.676  18
   6  -1   8 746.563 338.290   7
   6  -1   9 416.312 213.183  10
   6  -1   9-98.5327 256.311   7
   6  -1  10 6165.88 617.810   7
   6   0 -14 1150.32 299.358  13
   6   0 -13 274.347 270.609  13
   6   0 -12 544.454 285.985  19
   6   0 -12 1725.95 538.899  13
   6   0 -11 676.769 453.595  19
   6   0 -11 366.841 380.452  13
   6   0 -10 10014.7 1249.72  19
   6   0 -10 9760.29 1256.90  13
   6   0  -9 22924.7 1934.02  19
   6   0  -9 23327.3 1926.12  13
   6   0  -8 25986.0 2018.19  19
   6   0  -8 22261.8 1844.41  13
   6   0  -7 6465.38 1004.08  19
   6   0  -7 5405.64 953.181  13
   6   0  -6 11643.2 1266.13  19
   6   0  -6 10116.4 1119.58  13
  -6   0   5 4587.54 1519.31   2
   6   0  -5 4636.16 768.260  19
   6   0  -5 4377.10 739.411  13
   6   0  -4 2861.79 1253.90   1
   6   0  -4 3402.38 654.430  19
   6   0  -3 14992.4 1307.01  19
   6   0  -3 14367.8 2528.39   1
   6   0  -2 41056.9 4264.25   1
   6   0  -1-113.699 595.370   1
   6   0   0 2415.74 548.544  22
   6   0   0 1365.64 595.757   1
   6   0   1 160609. 4459.70  22
   6   0   1 152013. 4463.10  26
   6   0   1 163940. 9295.91   1
   6   0   2 17377.1 1382.98  22
   6   0   2 16714.5 1508.06  26
   6   0   2 17659.3 3116.35   1
   6   0   3 63432.0 6220.35   1
   6   0   3 69977.6 3087.24  26
   6   0   4 3602.67 1333.37   1
   6   0   4 2872.99 580.217  22
   6   0   4 3558.81 722.415   7
   6   0   5-143.521 315.737  10
   6   0   5-871.267 1253.78   3
   6   0   5 451.825 405.319   7
   6   0   6-0.27902 344.098  10
   6   0   6 617.079 319.046   7
   6   0   7-296.830 318.427  10
   6   0   7-294.018 403.221   7
   6   0   8 305.074 302.640  10
   6   0   8 182.683 362.835   7
   6   0   9-140.853 311.504   7
   6   0  10 267.931 243.526   7
   6   0  11 1835.16 312.804   7
   6   1 -13 1100.15 374.271  19
   6   1 -13 464.216 277.111  13
   6   1 -12 1595.85 593.631  19
   6   1 -12 1102.89 429.808  13
   6   1 -11 2970.20 783.688  19
   6   1 -11 2147.85 607.104  13
   6   1 -10 5847.89 927.170  13
   6   1  -9 25989.6 1752.32  20
   6   1  -9 25624.3 1942.78  13
   6   1  -8 14488.2 1330.04  20
   6   1  -8 14896.8 1449.95  13
   6   1  -7 49192.1 2452.28  20
   6   1  -7 41998.3 2353.12  13
   6   1  -7 44401.9 2391.42  28
   6   1  -6 15275.3 1328.24  20
   6   1  -6 15213.3 1387.39  28
   6   1  -5 8665.67 1027.44  21
   6   1  -5 12061.8 1106.06  20
   6   1  -5 11115.3 1212.88  28
   6   1  -4 1265.81 335.897  21
   6   1  -4 2813.98 518.421  20
   6   1  -4 1837.04 472.020  19
   6   1  -4 2061.71 505.454  28
   6   1  -3 34237.8 2033.78  21
   6   1  -3 35708.4 2010.40  19
   6   1  -3 33401.4 1831.30  16
   6   1  -3 36382.3 4146.78   1
   6   1  -3 37511.2 2127.78  28
   6   1  -2 22487.1 1612.81  21
   6   1  -2 17378.7 2568.87   5
   6   1  -2 20313.9 1389.62  16
   6   1  -2 18604.9 2915.15   1
   6   1  -2 20525.5 1529.24  28
   6   1  -1 6906.73 1856.01   1
   6   1  -1 8636.46 1045.23  21
   6   1  -1 7631.32 1783.18   5
   6   1  -1 9788.84 1008.80  16
   6   1  -1 8606.95 973.208  26
   6   1   0 3478.50 677.276  21
   6   1   0 2956.88 960.657   5
   6   1   0 3928.75 654.412  16
   6   1   0 3006.25 562.003  15
   6   1   0 2482.28 1162.13   1
   6   1   0 2586.81 610.860  26
   6   1   1 24415.5 3241.71   5
   6   1   1 28770.5 1821.07  16
   6   1   1 28616.7 1865.54  15
   6   1   1 29147.5 1915.75  26
   6   1   1 26350.2 1697.78  24
   6   1   1 25927.9 3710.09   1
   6   1   2 25163.0 1646.83  22
   6   1   2 35974.2 2149.11  15
   6   1   2 33915.5 2107.96  26
   6   1   2 32087.4 4215.99   1
   6   1   2 30143.9 1959.92  24
   6   1   3 15069.8 3083.82   1
   6   1   3 15211.9 1491.06  15
   6   1   3 14408.3 1475.84   7
   6   1   3 15109.6 1444.64  26
   6   1   3 17715.5 1513.59  24
   6   1   4 15289.4 3155.63   1
   6   1   4 20182.6 1835.39  15
   6   1   4 20014.3 1862.64   7
   6   1   4 22974.5 1854.38  26
   6   1   4 25814.0 1860.64  24
   6   1   5 1527.21 573.123   7
   6   1   5 2177.06 792.048  26
   6   1   6 33696.7 2071.95  10
   6   1   6 39135.1 2513.79   7
   6   1   7 19576.0 1466.09  10
   6   1   7 26982.9 2009.05   7
   6   1   8 636.570 474.794   7
   6   1   9 1179.60 427.786   7
   6   1  10 7967.94 785.228   7
   6   1  11 1904.56 329.660   7
   6   2 -13-44.4592 202.565  19
   6   2 -12 11923.9 1198.25  19
   6   2 -11 3288.77 595.707  20
   6   2 -10 360.508 364.219  20
   6   2 -10 417.684 303.880  28
   6   2  -9 1689.55 570.498  20
   6   2  -9 1055.17 449.093  28
   6   2  -8 28867.8 1985.09  20
   6   2  -8 27064.7 1807.23  14
   6   2  -8 24207.6 1963.39  28
   6   2  -7 1513.00 501.190  21
   6   2  -7 1481.80 535.455  20
   6   2  -7 1658.80 538.773  14
   6   2  -7 942.148 330.108  28
   6   2  -6 6045.09 944.409  21
   6   2  -6 8133.33 1050.26  20
   6   2  -6 6950.83 898.253  14
   6   2  -6 6081.94 986.390  28
   6   2  -5 169.276 353.530  21
   6   2  -5 726.426 450.291  20
   6   2  -5 230.662 353.577  16
   6   2  -5 252.219 344.945  14
   6   2  -5 273.230 364.088  28
   6   2  -4 7880.12 1039.58  21
   6   2  -4 9409.74 1069.41  20
   6   2  -4 8378.41 950.083  16
   6   2  -4 7520.90 871.002  14
   6   2  -4 9940.39 1194.74  28
   6   2  -3 8467.07 1068.57  21
   6   2  -3 8555.67 981.490  20
   6   2  -3 8620.36 1085.76  28
   6   2  -3 8875.91 1068.18  16
   6   2  -3 8750.02 932.794  14
   6   2  -2 3107.62 732.824  28
   6   2  -2 855.206 655.693   1
   6   2  -2 2604.17 630.503  21
   6   2  -2 2888.35 653.094  16
   6   2  -2 1622.97 474.707  14
   6   2  -1 3671.55 1486.35   6
   6   2  -1 4327.99 899.763  21
   6   2  -1 3151.62 1424.11   5
   6   2  -1 4237.81 726.288  16
   6   2  -1 3697.55 1317.28   1
   6   2  -1 6679.17 1004.63  28
   6   2   0 39134.6 2271.46  21
   6   2   0 31378.9 4111.53   5
   6   2   0 36340.1 2073.61  16
   6   2   0 38913.3 2310.23  26
   6   2   0 32857.6 4118.89   6
   6   2   1 8247.98 2085.32   1
   6   2   1 15177.0 1453.45  21
   6   2   1 9111.51 2264.90   5
   6   2   1 14799.7 1356.32  16
   6   2   1 12167.6 1378.01  15
   6   2   1 12405.6 1329.84  26
   6   2   1 12229.8 1288.58  24
   6   2   2 2100.10 648.901  24
   6   2   2 2024.26 1205.80   5
   6   2   2 1033.09 454.457  16
   6   2   2 1798.72 638.385  15
   6   2   2 1132.77 759.708   1
   6   2   2 1932.33 635.531  26
   6   2   3 8004.58 1015.50  16
   6   2   3 10341.3 1244.56  15
   6   2   3 5303.01 1840.66   1
   6   2   3 8347.03 1096.92  26
   6   2   3 8597.71 1149.28  24
   6   2   4 24296.2 1954.18  15
   6   2   4 26581.1 2147.58   7
   6   2   4 25012.4 1989.43  26
   6   2   4 28031.1 1951.76  24
   6   2   5 33310.6 2327.24  15
   6   2   5 32424.1 2394.45   7
   6   2   5 32983.5 2276.22  26
   6   2   5 30954.2 2223.53  24
   6   2   6 402.237 452.568   7
   6   2   6 254.762 485.097  26
   6   2   6 894.490 656.299  24
   6   2   7 5932.63 1029.86   7
   6   2   8 5435.49 801.892   7
   6   2   9 2242.73 457.688   7
  -6   2  -9 2285.24 427.389  12
   6   2  10 330.543 189.328   7
   6   3 -12 1188.33 317.907  19
   6   3 -11 4794.03 661.720  20
   6   3 -11 3420.35 530.033  28
   6   3 -10 4917.49 728.561  20
   6   3 -10 3899.74 683.198  28
   6   3  -9 409.731 349.920  21
   6   3  -9-144.799 418.253  20
   6   3  -9 453.230 380.582  14
   6   3  -9-125.513 371.750  28
   6   3  -8 3153.29 645.662  21
   6   3  -8 4042.58 861.953  20
   6   3  -8 5008.96 814.712  14
   6   3  -8 5358.62 940.133  28
   6   3  -7 4563.15 884.190  21
   6   3  -7 5341.51 924.094  20
   6   3  -7 5206.99 882.097  14
   6   3  -7 4717.98 930.006  28
   6   3  -6 29088.8 2118.09  21
   6   3  -6 27661.1 1949.81  20
   6   3  -6 26525.4 1815.84  14
   6   3  -6 27930.2 2129.00  28
   6   3  -5 16904.1 1739.07  21
   6   3  -5 18568.2 1610.23  20
   6   3  -5 20000.1 1568.14  14
   6   3  -5 19280.8 1759.35  28
   6   3  -4 312.713 433.670  21
   6   3  -4 255.984 455.696  20
   6   3  -4 487.117 417.909  14
   6   3  -4 336.284 364.796  28
   6   3  -3 20507.1 1839.00  21
   6   3  -3 19538.0 1497.96  20
   6   3  -3 21597.2 1508.28  14
   6   3  -3 21478.8 1823.89  28
   6   3  -2 17288.7 1729.27  21
   6   3  -2 17506.4 1651.39  16
   6   3  -2 19636.9 1460.15  14
   6   3  -2 19483.3 1727.70  28
   6   3  -1 20510.1 1829.05  21
   6   3  -1 14623.7 3062.96   5
   6   3  -1 18012.5 1661.49  16
   6   3  -1 19027.0 1676.17  28
   6   3   0 8.47566 1111.33   6
   6   3   0 1253.08 540.264  21
   6   3   0-1127.00 985.798   5
   6   3   0 1802.61 675.765  16
   6   3   0 1274.66 605.784  26
   6   3   1 8112.08 1149.67  21
   6   3   1 7678.98 1062.85  16
   6   3   1 7561.95 1087.01  26
   6   3   2 12593.9 1264.79  16
   6   3   2 11754.6 1376.82  15
   6   3   2 13049.2 1411.10  26
   6   3   2 13539.4 1398.06  24
   6   3   3 28839.7 1935.15  16
   6   3   3 35280.7 2389.70  15
   6   3   3 35624.9 2361.01  26
   6   3   3 33825.3 2230.81  24
   6   3   4 1894.32 690.690  15
   6   3   4 1450.67 529.370  26
   6   3   4 1892.75 597.913  24
   6   3   5 3282.13 756.025  15
   6   3   5 4266.97 959.258   7
   6   3   5 3376.06 749.546  26
   6   3   5 5855.70 1007.14  24
   6   3   6 11.7241 496.910   7
   6   3   6 339.950 358.466  26
   6   3   6 521.442 589.792  24
   6   3   7 13719.9 1302.11   7
   6   3   8 2604.53 558.661   7
   6   3   9 437.562 203.186   7
  -6   3  -9 927.740 248.579  12
   6   4 -10 8797.83 766.917  19
   6   4 -10 11305.8 877.324  28
   6   4  -9-727.393 293.780  21
   6   4  -9-281.877 301.258  28
   6   4  -8 1670.12 432.485  21
   6   4  -8 2551.11 545.762  20
   6   4  -8 2722.81 482.161  14
   6   4  -8 3471.49 699.548  28
   6   4  -7 990.176 398.058  21
   6   4  -7 2184.20 581.584  20
   6   4  -7 669.770 356.422  16
   6   4  -7 1842.64 624.816  14
   6   4  -7 1316.37 547.709  28
   6   4  -6 1651.48 671.724  21
   6   4  -6 1757.37 512.000  20
   6   4  -6 832.299 425.166  16
   6   4  -6 1843.84 720.133  14
   6   4  -6 1089.93 540.398  28
   6   4  -5 1531.91 744.832  21
   6   4  -5 696.791 327.501  20
   6   4  -5 1119.59 420.441  14
   6   4  -5 1820.99 724.742  28
   6   4  -4 811.003 627.760  21
   6   4  -4-181.823 348.061  20
   6   4  -4 1113.66 460.267  14
   6   4  -4 511.270 496.397  28
   6   4  -3 373.697 506.575  21
   6   4  -3 664.989 420.688  14
   6   4  -2 3779.98 810.500  21
   6   4  -2 1386.08 445.384  28
   6   4  -2 3017.21 737.503  16
   6   4  -1 3545.12 815.851  21
   6   4  -1 4595.22 919.376  16
   6   4  -1 5584.06 984.474  26
   6   4   0 2620.63 621.737  21
   6   4   0 1552.86 499.133  16
   6   4   0 3197.69 779.487  26
   6   4   1 6003.69 931.619  21
   6   4   1 8144.14 1101.69  16
   6   4   1 7108.89 1083.40  26
   6   4   2 5185.79 820.906  24
   6   4   2 4376.49 769.255  16
   6   4   2 5732.53 982.795  15
   6   4   2 4656.21 820.758  26
   6   4   3 5976.32 924.693  24
   6   4   3 5643.11 798.088  16
   6   4   3 7280.27 1071.82  15
   6   4   3 7076.01 982.727  26
   6   4   4 13594.1 1337.83  15
   6   4   4 16101.5 1535.26   7
   6   4   4 11631.3 1197.21  26
   6   4   4 14677.7 1341.23  24
   6   4   5 10211.0 1044.86  15
   6   4   5 11020.6 1183.46   7
   6   4   5 8180.28 920.604  26
   6   4   5 10722.7 1050.89  24
   6   4   6 473.663 342.623   7
   6   4   6 75.7726 296.103  24
   6   4   7 1428.03 413.435   7
   6   5  -7 1785.54 390.434  21
   6   5  -7 2416.88 432.880  28
   6   5  -6 4565.54 564.458  21
   6   5  -6 4604.81 585.303  16
   6   5  -6 5112.93 673.447  28
   6   5  -5 3236.20 509.365  21
   6   5  -5 3740.46 563.051  16
   6   5  -5 3540.23 604.886  28
   6   5  -4 703.996 385.339  21
   6   5  -4 578.743 385.494  16
   6   5  -4 172.206 230.234  28
   6   5  -3 7966.80 911.528  21
   6   5  -3 9308.04 951.512  16
   6   5  -3 7631.73 933.314  26
   6   5  -2 4534.76 762.620  21
   6   5  -2 4708.40 677.063  16
   6   5  -2 4619.48 770.188  26
   6   5  -1 730.019 339.764  21
   6   5  -1 1291.06 414.961  16
   6   5  -1 254.088 351.869  26
   6   5   0 918.181 400.988  16
   6   5   0 1963.80 580.063  15
   6   5   0 1492.59 474.099  26
   6   5   1 2029.98 535.662  24
   6   5   1 1800.02 458.257  16
   6   5   1 1950.17 519.878  15
   6   5   1 1508.84 478.641  26
   6   5   2 5322.77 718.874  24
   6   5   2 5004.53 612.885  16
   6   5   2 5227.99 644.234  15
   6   5   2 4520.62 645.646  26
   6   5   3-17.9685 225.154  15
   6   5   3 300.775 253.490   7
   6   5   3 619.984 236.135  26
   6   5   3-204.606 296.986  24
   6   5   4 6532.54 676.574  15
   6   5   4 7114.56 749.640   7
   6   5   4 7414.60 663.770  24
   6   5   5 2604.64 383.281  24
  -7  -5   4 221.537 212.527  18
  -7  -5   3-77.9828 192.037  18
  -7  -5   2 2681.33 415.418  18
  -7  -5   1 536.003 285.427  18
  -7  -5   0 1374.48 326.971  18
  -7  -5  -1-131.123 202.226  18
  -7  -5  -2 2965.18 420.033  18
  -7  -4   9 4606.31 486.162  25
  -7  -4   8 6605.18 616.942   9
  -7  -4   8 3480.64 498.310  25
  -7  -4   7 4549.36 594.716   9
  -7  -4   7 3290.28 524.264  25
  -7  -4   6 710.153 322.904   9
  -7  -4   6 958.012 354.025  25
  -7  -4   5 2482.80 608.273   9
  -7  -4   5 924.562 317.112  25
  -7  -4   4 11792.0 1089.62   9
  -7  -4   4 10756.7 1140.48  25
  -7  -4   3 25485.1 1602.23   9
  -7  -4   3 22418.4 1659.04  25
  -7  -4   2 1902.72 566.575   9
  -7  -4   1 6570.16 809.702   9
  -7  -4   0 11900.3 1265.33  18
  -7  -4  -1 7380.04 1039.76  18
  -7  -4  -2 6943.43 917.759  18
  -7  -4  -3 1058.13 417.898  18
  -7  -4  -4 5925.27 746.232  18
  -7  -4  -5 6330.71 660.991  18
  -7  -4  -6 390.912 188.233  18
  -7  -3  10-94.1072 184.685  25
  -7  -3   9 4638.20 616.238   9
  -7  -3   9 3201.51 557.101  25
  -7  -3   8 657.891 399.786   9
   7  -3  -8 632.538 333.762  19
  -7  -3   8 702.085 367.884  25
  -7  -3   7 2487.61 612.106   9
   7  -3  -7 1884.83 583.188  19
  -7  -3   7 2437.40 615.339  25
  -7  -3   6 226.700 382.249   9
   7  -3  -6 320.068 276.335  19
  -7  -3   6 599.032 432.599  25
   7  -3  -5 83.6308 458.623  19
  -7  -3   5 518.198 544.392  25
   7  -3  -4 3244.45 575.631  22
   7  -3  -4 4452.54 860.232  19
  -7  -3   4 4010.61 840.589  25
   7  -3  -3 356.147 413.643  22
  -7  -3   3-117.752 325.434   9
  -7  -3   3 189.020 367.845  25
   7  -3  -2 4795.32 849.697  22
  -7  -3   2 4461.99 745.563   9
  -7  -3   2 4162.32 788.383  25
   7  -3  -1 5050.15 856.753  22
  -7  -3   1 4105.90 658.026   9
  -7  -3   1 4662.02 851.412  25
   7  -3   0 5114.90 743.873  10
   7  -3   0 5153.53 897.438  22
  -7  -3   0 5877.21 771.032   9
   7  -3   1 4466.79 753.289  10
  -7  -3  -2 25372.6 1944.98  18
   7  -3   2 20672.1 1604.11  10
   7  -3   3 3914.08 744.695  10
  -7  -3  -3 4711.91 865.437  18
   7  -3   4 392.588 388.546  10
  -7  -3  -4 300.835 373.916  18
   7  -3   5 3564.94 682.473  10
  -7  -3  -5 4877.80 781.114  18
  -7  -3  -6 14093.1 1144.42  18
  -7  -3  -7 2177.87 409.233  18
   7  -2 -11 8338.12 904.047  13
   7  -2 -10 3860.60 657.114  19
   7  -2 -10 5318.01 832.693  13
  -7  -2  10 4470.35 600.428  25
   7  -2  -9 1604.75 440.861  19
   7  -2  -9 1999.52 632.468  13
  -7  -2   9 1759.00 467.795  25
   7  -2  -8 2854.83 671.104  19
   7  -2  -8 2518.45 687.375  13
  -7  -2   8 1914.00 462.904  25
   7  -2  -7 16435.9 1541.10  19
   7  -2  -7 15634.9 1577.43  13
  -7  -2   7 14482.6 1264.32  25
   7  -2  -6 9675.57 1272.70  19
  -7  -2   6 9248.24 1034.21  25
   7  -2  -5 1362.86 429.560  22
   7  -2  -5 1423.63 493.289  19
  -7  -2   5 581.383 307.707  25
   7  -2  -4 11138.1 1196.77  22
   7  -2  -4 12793.1 1412.25  19
  -7  -2   4 10396.9 1108.07  25
   7  -2  -3 10932.0 1228.31  22
   7  -2  -3 11377.4 1301.56  19
  -7  -2   3 10738.2 1161.14  25
   7  -2  -2 7064.09 1015.01  22
   7  -2  -2 6558.50 959.305  19
  -7  -2   2 5385.19 815.621  25
   7  -2  -1 25539.8 1943.87  22
   7  -2  -1 28849.6 2111.14  19
  -7  -2   1 23580.7 1755.86  25
   7  -2  -1 23864.7 1699.86  10
   7  -2   0 24020.4 1848.87  22
   7  -2   0 21139.6 1693.20  10
   7  -2   1 9063.97 1175.17  22
   7  -2   1 9687.64 1131.83  10
   7  -2   2 589.328 348.474  10
   7  -2   2 639.410 406.549  22
  -7  -2  -2 962.875 483.016  18
   7  -2   3 471.357 365.393  10
   7  -2   3 900.819 460.038  22
  -7  -2  -3 1257.94 533.426  18
  -7  -2  -4 20636.9 1654.09  18
   7  -2   4 19357.5 1602.87  10
   7  -2   5 523.900 451.706  10
  -7  -2  -5 583.001 414.289  18
   7  -2   6 2605.92 596.413  10
  -7  -2  -6 2902.89 559.478  18
   7  -2   7 684.887 271.282  10
  -7  -2  -7 57.5447 302.643  18
  -7  -2  -8 3335.37 475.194  18
   7  -1 -13 658.765 255.309  13
   7  -1 -12 1348.24 414.927  13
   7  -1 -11 679.380 341.993  19
   7  -1 -11 246.846 337.831  13
   7  -1 -10 33122.5 2140.88  19
   7  -1 -10 2491.61 676.001  13
   7  -1  -9 9678.22 1228.94  19
   7  -1  -9 10112.9 1235.27  13
   7  -1  -8-408.128 448.567  19
   7  -1  -8 616.608 475.478  13
   7  -1  -7 5120.29 906.253  19
   7  -1  -7 5986.32 1005.80  13
   7  -1  -6 8108.93 1026.02  22
   7  -1  -6 10141.0 1281.03  19
   7  -1  -6 9198.93 1189.32  13
   7  -1  -5 5644.87 896.515  22
  -7  -1   5 4606.46 1733.06   2
   7  -1  -5 6685.31 1033.26  19
   7  -1  -5 6007.55 987.911  13
  -7  -1   4 1939.26 1702.57   2
   7  -1  -4 1715.76 600.443  22
   7  -1  -4 1368.09 520.304  19
   7  -1  -3 2007.46 525.851  22
   7  -1  -3 3031.97 653.003  19
   7  -1  -3 2642.47 1381.95   1
   7  -1  -2 19847.6 1531.08  10
   7  -1  -2 23158.9 1775.78  22
   7  -1  -2 22746.4 1785.17  19
   7  -1  -2 15574.2 2906.03   1
  -7  -1   2 15268.3 1304.68  25
   7  -1  -1 2017.76 598.116  10
   7  -1  -1 1350.73 439.396  22
   7  -1  -1 915.839 364.998  19
   7  -1   0 17441.5 1548.08  10
   7  -1   0 20241.0 1613.55  22
   7  -1   0 17702.0 1551.50  19
   7  -1   0 16369.6 3091.34   1
   7  -1   1 82.6340 406.120  10
   7  -1   1 125.007 364.184  22
   7  -1   1 262.121 278.653  19
   7  -1   1 280.782 672.670   1
   7  -1   2 44296.1 2534.85  10
   7  -1   2 42998.4 2416.88  22
  -7  -1  -2 40973.2 2357.41  18
   7  -1   3 8269.63 1108.68  10
   7  -1   3 6305.95 922.731  22
  -7  -1  -3 7587.66 1005.49  18
   7  -1   4 2215.68 601.808  10
   7  -1   4 2074.01 597.037  22
  -7  -1  -4 1981.46 539.855  18
   7  -1   5 3708.32 723.913  10
  -7  -1  -5 2641.07 576.706  18
   7  -1   6 13605.9 1285.62  10
   7  -1   7 1561.87 457.244  10
   7  -1   8 348.829 214.654  10
   7   0 -13 4483.39 518.060  13
   7   0 -12 4648.85 677.246  19
   7   0 -12 3757.65 616.887  13
   7   0 -11 6908.86 937.661  19
   7   0 -11 6293.05 857.093  13
   7   0 -10 15346.6 1531.89  19
   7   0 -10 15234.1 1438.65  13
   7   0  -9 2299.50 649.756  19
   7   0  -9 2695.97 676.417  13
   7   0  -8 3416.22 656.158  22
   7   0  -8 4431.37 821.932  19
   7   0  -8 3943.42 784.029  13
   7   0  -7 26041.6 2016.74  19
   7   0  -7 20988.5 1799.90  13
   7   0  -6 9813.90 1253.49  19
   7   0  -6 8236.95 1141.11  13
   7   0  -5 1639.56 540.112  19
   7   0  -5 2282.17 613.096  13
   7   0  -4 11907.3 1335.27  19
   7   0  -3 29416.6 2020.45  19
   7   0  -3 27181.3 3804.31   1
   7   0  -2 751.499 896.369   1
   7   0  -2 198.108 343.669  22
   7   0  -2 828.843 723.255  19
   7   0  -1 5972.29 895.930  22
   7   0  -1 5075.28 856.781  19
   7   0  -1 5065.84 1563.95   1
   7   0   0 34868.6 2097.20  22
   7   0   0 27899.5 1860.38  19
   7   0   0 27876.3 4002.53   1
   7   0   0 28103.8 1826.04  26
   7   0   1 74357.0 3106.56  22
   7   0   1 65435.4 6324.05   1
   7   0   1 71894.0 3172.43  26
   7   0   2 10205.1 1154.68  22
   7   0   2 9470.06 2381.54   1
   7   0   2 9402.73 1136.57  26
   7   0   3 62436.7 2789.74  22
   7   0   4 6352.68 837.790  22
   7   0   4 6415.55 986.338  10
   7   0   5 7572.79 1124.72  10
   7   0   5 7304.30 888.758   7
   7   0   6 1649.42 509.257  10
   7   0   6 1270.75 379.852   7
   7   0   7 2124.41 544.993  10
   7   0   7 1601.81 423.066   7
   7   0   8 3729.53 544.925  10
   7   0   8 3720.22 528.776   7
   7   0   9 9138.00 731.736   7
   7   1 -13 397.967 169.115  19
   7   1 -12 2356.33 518.364  19
   7   1 -12 1743.48 387.947  13
   7   1 -11-279.814 310.829  19
   7   1 -11-341.237 197.958  13
   7   1 -10 4205.11 870.864  19
   7   1 -10 2341.19 510.434  13
   7   1  -9 10764.0 1320.28  19
   7   1  -9 7480.29 958.023  13
   7   1  -8 1350.54 586.286  19
   7   1  -7 4468.98 870.732  19
   7   1  -7 4277.10 786.441  28
   7   1  -6 7446.88 1054.21  19
   7   1  -6 7829.56 1052.31  28
   7   1  -5 5530.28 821.652  21
   7   1  -5 6119.31 978.714  19
   7   1  -5 5532.26 891.420  28
   7   1  -4 1406.35 451.577  21
   7   1  -4 768.680 364.789  19
   7   1  -4 736.982 317.237  28
   7   1  -3 1727.03 815.983   1
   7   1  -3 1877.08 591.742  21
   7   1  -3 1625.96 479.082  19
   7   1  -3 1852.40 503.083  16
   7   1  -2 21616.6 1729.17  21
   7   1  -2 15257.6 1367.52  19
   7   1  -2 21410.3 1574.90  16
   7   1  -2 15707.4 2900.35   1
   7   1  -2 16357.9 1430.86  26
   7   1  -1 1426.91 896.689   1
   7   1  -1 389.042 279.370  26
   7   1   0 17455.2 1494.31  22
   7   1   0 13707.6 2809.71   1
   7   1   0 16934.1 1474.74  15
   7   1   0 16935.5 1506.01  26
   7   1   1 131.168 303.469  22
   7   1   1-255.958 374.156  15
   7   1   1 147.414 397.240  26
   7   1   1 60.7553 645.787   1
   7   1   2 34896.8 2050.52  22
   7   1   2 38778.4 2375.89  15
   7   1   2 36366.0 2249.64   7
   7   1   2 41314.0 2480.92  26
   7   1   2 42437.6 2312.94  24
   7   1   3 9322.49 1184.46  15
   7   1   3 8240.55 1096.56   7
   7   1   3 8627.04 1158.92  26
   7   1   4 2194.19 585.269   7
   7   1   4 2899.35 800.229  26
   7   1   5 3967.49 738.087  10
   7   1   5 3345.11 713.061   7
   7   1   6 11177.8 1125.25  10
   7   1   6 12071.5 1218.59   7
   7   1   7 1210.68 365.441  10
   7   1   7 1944.26 510.422   7
   7   1   8 636.196 289.193   7
   7   1   9 2113.41 388.838   7
   7   2 -12 2046.36 404.926  19
   7   2 -11 9672.59 984.898  19
   7   2 -10 4783.49 816.232  19
   7   2  -9 1813.06 635.582  19
   7   2  -9 1691.90 464.852  28
   7   2  -8 4118.92 871.500  19
   7   2  -8 5335.18 887.072  28
   7   2  -7 11853.1 1202.44  21
   7   2  -7 14410.1 1574.49  19
   7   2  -7 13945.8 1432.51  28
   7   2  -6 7879.71 1049.95  21
   7   2  -6 9636.98 1190.18  19
   7   2  -6 10128.9 1255.24  28
   7   2  -5 1765.92 539.232  21
   7   2  -5 1524.55 407.373  19
   7   2  -5 1406.93 361.271  16
   7   2  -5 1634.31 537.474  28
   7   2  -4 11574.7 1353.65  21
   7   2  -4 10216.5 1128.50  19
   7   2  -4 12563.6 1185.84  16
   7   2  -4 12747.3 1433.12  28
   7   2  -3 11456.2 1304.70  21
   7   2  -3 9627.89 1067.44  16
   7   2  -3 10570.7 1277.77  28
   7   2  -3 7672.82 1022.85  26
   7   2  -2 6178.58 1037.17  21
   7   2  -2 4640.96 1713.59   5
   7   2  -2 6972.16 989.919  16
   7   2  -2 5731.22 847.384  15
   7   2  -2 5592.70 927.126  26
   7   2  -1 24966.5 2022.45  21
   7   2  -1 26421.7 1847.76  16
   7   2  -1 19917.5 1690.19  15
   7   2  -1 20782.2 1793.03  26
   7   2   0 24366.1 1850.77  16
   7   2   0 21224.0 1757.38  15
   7   2   0 23888.1 1955.09  26
   7   2   0 21983.5 1570.78  24
   7   2   1 9685.77 1065.31  22
   7   2   1 13029.2 1281.86  16
   7   2   1 11359.6 1327.15  15
   7   2   1 11615.0 1345.36  26
   7   2   1 11752.0 1204.92  24
   7   2   2 1458.71 545.890  15
   7   2   2 1800.25 613.185  26
   7   2   2 955.966 478.936  24
   7   2   3 1111.73 535.522  15
   7   2   3 974.655 706.929   7
   7   2   3 471.382 469.856  26
   7   2   3 1484.84 720.774  24
   7   2   4 22134.4 1888.70  15
   7   2   4 19161.8 1662.01   7
   7   2   4 21600.8 1789.73  26
   7   2   4 19713.2 1625.91  24
   7   2   5 443.593 438.733   7
   7   2   5 717.232 552.429  26
   7   2   6 2067.16 462.029  10
   7   2   6 2766.04 584.758   7
   7   2   7 1241.82 500.571   7
   7   2   8 5038.25 638.374   7
   7   2   9 2364.83 356.784   7
   7   3 -11 2016.80 374.579  19
   7   3 -10 58.0771 226.033  19
   7   3 -10-22.7637 195.174  28
   7   3  -9 3389.70 710.591  19
   7   3  -9 3281.45 587.225  28
   7   3  -8 671.149 389.879  21
   7   3  -8 384.293 284.267  19
   7   3  -8 387.401 374.465  28
   7   3  -7 2360.37 552.711  21
   7   3  -7 1757.96 537.805  19
   7   3  -7 1715.57 616.587  28
   7   3  -6 605.874 444.362  21
   7   3  -6-423.176 406.307  19
   7   3  -6 709.273 557.710  28
   7   3  -5 284.960 403.164  21
   7   3  -5 123.511 355.416  16
   7   3  -5-69.2055 407.290  28
   7   3  -4 5365.32 993.184  21
   7   3  -4 3599.23 633.719  16
   7   3  -4 5320.78 1016.23  28
   7   3  -3 871.307 495.479  21
   7   3  -3 114.433 429.371  16
   7   3  -3 581.413 550.487  28
   7   3  -2 6129.77 1056.10  21
   7   3  -2 4992.87 912.472  16
   7   3  -2 6094.73 1054.72  26
   7   3  -1 3511.26 780.849  24
   7   3  -1 4117.06 952.714  21
   7   3  -1 4257.05 862.084  16
   7   3  -1 4714.93 942.382  26
   7   3   0 3923.47 794.184  24
   7   3   0 5527.13 902.010  21
   7   3   0 5286.39 888.294  16
   7   3   0 5527.08 953.419  15
   7   3   0 5150.34 884.842  26
   7   3   1 4164.77 734.831  24
   7   3   1 5508.22 872.213  16
   7   3   1 4203.00 833.865  15
   7   3   1 3729.53 761.969  26
   7   3   2 23592.7 1686.02  16
   7   3   2 20604.4 1834.76  15
   7   3   2 25446.4 1957.96  26
   7   3   2 19799.3 1673.06  24
   7   3   3 3360.14 758.331  15
   7   3   3 3387.13 694.577   7
   7   3   3 4079.88 822.853  26
   7   3   3 3025.36 579.520  24
   7   3   4 867.013 666.655  15
   7   3   4 323.927 393.673   7
   7   3   4-46.7694 405.109  26
   7   3   4 361.630 429.778  24
   7   3   5 3418.56 630.991   7
   7   3   5 3244.03 652.202  26
   7   3   5 3884.25 679.565  24
   7   3   6 16583.2 1307.59   7
   7   3   7 2710.58 495.478   7
   7   3   8 196.960 143.137   7
   7   4  -9 4380.20 524.185  28
   7   4  -8 3717.85 588.562  21
   7   4  -8 5421.60 664.023  28
   7   4  -7 3116.16 580.014  21
   7   4  -7 3909.82 656.496  28
   7   4  -6 637.963 370.894  21
   7   4  -6 674.262 350.670  16
   7   4  -6 531.479 379.740  28
   7   4  -5 2247.54 630.019  21
   7   4  -5 2088.65 541.618  16
   7   4  -5 1126.33 342.468  28
   7   4  -4 11802.6 1281.23  21
   7   4  -4 10860.8 1126.53  16
   7   4  -4 11796.0 1240.56  28
   7   4  -3 28965.2 2010.34  21
   7   4  -3 27256.6 1704.09  16
   7   4  -3 27017.3 1909.67  26
   7   4  -2 1076.94 397.708  21
   7   4  -2 752.238 455.732  16
   7   4  -2 471.499 409.025  26
   7   4  -1 4010.10 693.541  24
   7   4  -1 5620.81 855.071  21
   7   4  -1 5876.89 890.015  16
   7   4  -1 4990.75 801.248  15
   7   4  -1 6514.06 937.895  26
   7   4   0 11051.2 1142.66  16
   7   4   0 10288.0 1164.46  15
   7   4   0 11967.3 1287.82  26
   7   4   0 7199.81 862.150  24
   7   4   1 3972.04 699.409  24
   7   4   1 6754.13 842.212  16
   7   4   1 5960.08 867.193  15
   7   4   1 5697.44 879.683  26
   7   4   2 5910.74 839.475  15
   7   4   2 6150.87 864.978  26
   7   4   2 5856.11 742.695  24
   7   4   3 50.8875 337.477  15
   7   4   3 856.650 461.136   7
   7   4   3 447.752 370.978  26
   7   4   3-47.9296 342.114  24
   7   4   4 4144.67 620.168  15
   7   4   4 4202.46 623.442  26
   7   4   4 4562.62 587.528  24
   7   4   5 6955.75 754.395   7
   7   4   6 1688.52 340.462   7
   7   5  -5 205.251 177.327  21
   7   5  -5-301.750 205.447  26
   7   5  -4 578.029 302.449  21
   7   5  -4-343.628 213.943  16
   7   5  -4 610.446 264.817  15
   7   5  -4 628.265 292.189  26
   7   5  -3-55.9916 179.949  21
   7   5  -3 400.543 310.823  16
   7   5  -3 664.487 345.768  15
   7   5  -3 280.627 237.833  26
   7   5  -2 1998.97 360.136  16
   7   5  -2 1223.55 338.527  15
   7   5  -2 1992.56 421.446  26
   7   5  -1 151.237 218.717  16
   7   5  -1 270.356 248.224  15
   7   5  -1 109.797 256.257  26
   7   5   0 640.631 276.432  15
   7   5   0 827.128 282.013  26
   7   5   0 802.518 249.107  24
   7   5   1 725.367 268.727  15
   7   5   1 724.606 234.341   7
   7   5   1 418.626 225.137  26
   7   5   1 1360.78 370.474  24
   7   5   2 1713.11 331.746  15
   7   5   2 2476.53 412.512   7
   7   5   2 1522.29 295.007  24
  -8  -4   6 6258.89 581.209   9
  -8  -4   5 472.524 216.590   9
  -8  -4   4 1267.01 342.569   9
  -8  -4   3 1650.67 369.321   9
  -8  -4   2 3172.33 608.356  18
  -8  -4   1 6807.28 829.942  18
  -8  -4   0 2761.22 549.848  18
  -8  -4  -1-411.353 337.660  18
  -8  -4  -2 181.187 216.715  18
  -8  -4  -3 3854.22 474.604  18
  -8  -3   9 4786.69 525.497   9
  -8  -3   8 2599.30 458.882   9
  -8  -3   8 1049.00 257.674  25
  -8  -3   7 2352.67 499.595   9
  -8  -3   7 835.960 299.891  25
  -8  -3   6 3267.39 628.854   9
  -8  -3   6 2552.69 505.943  25
  -8  -3   5 13279.8 1219.77   9
  -8  -3   5 11549.6 1076.20  25
  -8  -3   4 5337.89 813.358   9
  -8  -3   4 2708.57 562.453  25
  -8  -3   3 1516.92 466.605   9
   8  -3  -2 2580.04 566.715  22
  -8  -3   2 1747.51 493.709   9
  -8  -3   1 30860.3 1612.01   9
  -8  -3   0 9314.88 1163.63  18
   8  -3   0 7655.63 794.174  10
  -8  -3  -1 7985.26 1041.62  18
   8  -3   1 6380.41 762.048  10
   8  -3   2 2898.41 526.609  10
  -8  -3  -2 3612.73 667.926  18
  -8  -3  -3 7274.85 882.402  18
   8  -3   3 5448.45 686.000  10
  -8  -3  -4 188.438 249.875  18
   8  -3   4 454.499 304.236  10
  -8  -3  -5 3425.11 483.677  18
  -8  -2  10 2428.80 381.436   9
   8  -2 -10 1390.98 389.293  19
   8  -2  -9 468.124 352.322  19
   8  -2  -8 15791.3 1381.32  19
   8  -2  -7 16854.8 1509.21  19
  -8  -2   7 13331.1 1063.12  25
   8  -2  -6 1787.11 633.773  19
  -8  -2   6 909.356 306.739  25
   8  -2  -5 3495.72 648.941  22
   8  -2  -5 4571.61 819.792  19
  -8  -2   5 3313.80 619.426  25
   8  -2  -4 15819.9 1394.49  22
   8  -2  -4 19515.7 1681.53  19
  -8  -2   4 15070.0 1245.06  25
   8  -2  -3 4532.75 795.406  22
   8  -2  -3 6591.51 1024.27  19
  -8  -2   3 4456.62 711.756  25
   8  -2  -2 2643.29 686.120  22
   8  -2  -2 2638.80 687.642  19
   8  -2  -1 999.532 405.422  10
   8  -2  -1 901.764 451.404  22
   8  -2   0 10662.3 1211.53  22
   8  -2   0 9878.89 1075.40  10
   8  -2   1 3113.01 625.334  10
   8  -2   1 2917.02 636.838  22
  -8  -2  -1 2880.79 663.331  18
   8  -2   2 966.687 346.869  10
   8  -2   2 1965.72 566.711  22
  -8  -2  -2 1108.35 398.148  18
   8  -2   3 4585.77 751.638  10
  -8  -2  -3 4232.32 686.881  18
   8  -2   4 4292.61 675.226  10
  -8  -2  -4 4089.46 626.303  18
   8  -2   5 3335.45 592.739  10
  -8  -2  -5 2808.39 461.108  18
   8  -2   6 1232.97 363.517  10
  -8  -2  -6 918.824 301.294  18
   8  -1 -11 109.483 195.372  19
   8  -1 -10 5463.97 762.998  19
   8  -1 -10 6341.64 841.390  13
   8  -1  -9 7230.49 1034.39  19
   8  -1  -9 6492.07 926.439  13
   8  -1  -8 9088.55 1112.85  19
   8  -1  -8 5731.85 797.440  13
   8  -1  -7 271.901 292.499  22
   8  -1  -7 1135.73 536.063  19
   8  -1  -6 2283.35 602.768  22
   8  -1  -6 3197.83 739.283  19
   8  -1  -5 3758.86 696.560  22
   8  -1  -5 3273.48 727.346  19
   8  -1  -4 17191.8 1538.88  22
   8  -1  -4 20903.3 1750.62  19
   8  -1  -3 4051.71 818.308  22
   8  -1  -3 3334.13 711.393  19
   8  -1  -2 8315.32 985.615  10
   8  -1  -2 9517.98 1157.26  22
   8  -1  -2 9008.53 1170.83  19
   8  -1  -1 1434.07 456.982  10
   8  -1  -1 2705.26 701.710  22
   8  -1  -1 1927.55 585.702  19
   8  -1   0 4232.14 730.630  10
   8  -1   0 3910.91 798.988  22
   8  -1   0 4010.23 735.202  19
   8  -1   1 2344.11 643.157  10
   8  -1   1 1803.22 557.184  22
   8  -1   2 6946.75 970.672  22
   8  -1   2 7666.64 1025.14  10
   8  -1   3 5900.60 839.769  22
   8  -1   3 5049.32 838.200  10
   8  -1   4 1210.03 493.984  10
   8  -1   4 510.383 324.952  22
   8  -1   5 3425.56 667.136  10
   8  -1   6 1928.43 483.628  10
   8  -1   7 2992.94 447.878  10
   8   0 -12 287.013 156.345  19
   8   0 -11 772.234 302.531  19
   8   0 -11 983.879 321.332  13
   8   0 -10 567.528 313.737  19
   8   0 -10 548.007 282.379  13
   8   0  -9 1553.15 506.536  19
   8   0  -9 1740.30 519.302  13
   8   0  -8 16232.9 1276.37  22
   8   0  -8 14969.9 1370.48  13
   8   0  -7 3577.42 613.563  22
   8   0  -7 4241.86 848.555  19
   8   0  -7 3423.42 679.018  13
   8   0  -6 326.515 411.934  22
   8   0  -6-159.672 371.521  19
   8   0  -5 12433.1 1336.07  22
   8   0  -5 12713.7 1333.75  19
   8   0  -4 4019.78 845.876  22
   8   0  -4 4441.19 835.139  19
   8   0  -3 1267.38 522.175  22
   8   0  -3 201.969 368.137  19
   8   0  -2 3376.29 753.488  22
   8   0  -2 2231.08 492.658  19
   8   0  -1 2202.21 670.504  22
   8   0  -1 2978.56 614.174  19
   8   0   0 178.389 348.876  22
   8   0   1 1157.95 509.461  22
   8   0   1 5.85294 395.091  10
   8   0   2 2287.82 575.971  22
   8   0   2 2228.61 653.121  10
   8   0   3 234.092 365.980  10
   8   0   3-147.316 268.419  22
   8   0   4 454.875 372.236  10
   8   0   4 557.863 333.320  22
   8   0   5 7313.06 883.319  10
   8   0   6 379.227 220.501  10
   8   0   7 4206.35 521.124  10
   8   1 -12 1450.49 316.700  19
   8   1 -11 650.412 291.739  19
   8   1 -10 6551.36 808.817  19
   8   1  -9 5377.86 717.076  22
   8   1  -9 7722.84 1048.01  19
   8   1  -8 6568.02 989.861  19
   8   1  -7 831.776 512.995  19
   8   1  -6 4013.51 779.389  19
   8   1  -5 5646.85 883.688  19
   8   1  -4 17782.8 1533.90  19
   8   1  -3 3856.76 715.278  19
   8   1  -2 9858.72 1219.91  22
   8   1  -2 8860.45 1079.68  26
   8   1  -1 1846.12 606.694  22
   8   1  -1 1902.90 563.378  26
   8   1   0 4072.65 774.844  22
   8   1   0 3528.72 749.814  26
   8   1   1 1696.66 486.481  22
   8   1   1 2014.10 595.240  26
   8   1   2 6383.40 830.197  22
   8   1   2 7615.71 1009.36  26
   8   1   3 4746.78 822.252  26
   8   1   4 53.2259 358.458  10
   8   1   5 2791.64 560.213  10
   8   1   5 2484.54 478.884   7
   8   1   6 1573.16 400.808  10
   8   1   6 1283.34 308.221   7
   8   1   7 2437.28 394.630  10
   8   2 -11 8048.08 732.485  19
   8   2 -10 1865.47 417.141  19
   8   2  -9-698.348 365.282  19
   8   2  -8 16422.8 1404.72  19
   8   2  -7 15116.7 1393.99  19
   8   2  -6 1712.31 483.026  21
   8   2  -6 2229.94 538.193  19
   8   2  -5 4601.99 792.249  21
   8   2  -5 4148.05 671.881  19
   8   2  -5 2885.99 600.554  26
   8   2  -4 19290.0 1615.35  21
   8   2  -4 15686.0 1367.63  26
   8   2  -3 4295.09 778.262  26
   8   2  -2 3941.54 869.294  26
   8   2  -1 1340.38 583.743  22
   8   2  -1 756.154 313.348  15
   8   2  -1 1247.56 392.177  26
   8   2   0 11680.1 1180.58  22
   8   2   0 11467.9 1169.85  15
   8   2   0 15255.2 1470.81  26
   8   2   1 2787.08 536.369  22
   8   2   1 3424.20 683.203  15
   8   2   1 3705.51 737.717   7
   8   2   1 3817.21 781.175  26
   8   2   2 492.177 381.840  15
   8   2   2 1540.48 488.082   7
   8   2   2 1204.05 476.695  26
   8   2   3 5198.15 815.467   7
   8   2   3 5303.60 861.726  26
   8   2   4 5133.45 726.440   7
   8   2   5 2885.19 504.250  10
   8   2   5 2675.85 497.147   7
   8   2   6 850.366 239.416  10
   8   2   6 1417.47 336.083   7
   8   2   7 3753.36 427.191   7
   8   3  -9 1188.57 269.282  19
   8   3  -8 1211.04 338.295  19
   8   3  -7 880.933 416.532  21
   8   3  -6 2715.25 607.377  21
   8   3  -6 2120.04 466.355  26
   8   3  -5 10493.3 915.871  16
   8   3  -5 11844.9 1158.06  26
   8   3  -4 4066.35 766.403  21
   8   3  -4 3770.59 664.496  16
   8   3  -4 3561.21 662.385  26
   8   3  -3 1812.19 609.591  21
   8   3  -3 1188.32 470.647  16
   8   3  -3 1700.43 513.185  15
   8   3  -3 1276.92 466.863  26
   8   3  -2 2746.56 699.064  16
   8   3  -2 2596.33 592.138  15
   8   3  -2 3080.35 755.759  26
   8   3  -1 30112.1 1820.60  22
   8   3  -1 37478.1 2066.82  16
   8   3  -1 31155.9 1894.29  15
   8   3  -1 37619.5 2229.46  26
   8   3   0 6887.55 784.456  22
   8   3   0 8729.64 1026.87  15
   8   3   0 8177.20 985.834  26
   8   3   1 6768.81 888.999  15
   8   3   1 6672.44 897.217   7
   8   3   1 7128.68 949.970  26
   8   3   1 5156.64 689.934  24
   8   3   2 3320.07 635.505  15
   8   3   2 3117.54 635.759   7
   8   3   2 3667.24 700.919  26
   8   3   2 3076.22 558.812  24
   8   3   3 6751.35 843.560   7
   8   3   3 6406.02 818.518  26
   8   3   4 384.434 324.302   7
   8   3   5 1849.58 363.820  10
   8   3   5 3793.28 506.668   7
   8   3   6 2747.98 399.527   7
   8   4  -6 2345.25 461.932  26
   8   4  -5 668.883 286.947  26
   8   4  -4 449.583 276.445  16
   8   4  -4-720.109 332.786  26
   8   4  -3 1739.09 405.734  16
   8   4  -3 814.681 324.759  15
   8   4  -3 1089.23 372.346  26
   8   4  -2 1671.48 387.760  22
   8   4  -2 2091.72 394.212  16
   8   4  -2 2144.74 416.705  15
   8   4  -2 2624.99 524.452  26
   8   4  -1 6731.04 780.796  15
   8   4  -1 6613.58 802.760  26
   8   4   0 2066.50 465.255  15
   8   4   0 1353.16 399.975  26
   8   4   1 353.745 264.134  15
   8   4   1 1058.36 368.019   7
   8   4   2 514.031 298.362  15
   8   4   2 554.409 272.206   7
   8   4   2 810.285 307.954  26
   8   4   3 3874.68 482.658   7
  -9  -3   7 1290.08 333.887   9
  -9  -3   6 2922.74 407.804   9
  -9  -3   5 10642.5 836.142   9
  -9  -3   4 764.156 269.499   9
  -9  -3   3 2768.47 411.682   9
  -9  -3   2 6238.21 573.465   9
  -9  -3   2 7219.14 798.814  18
  -9  -3   1 1149.50 400.128  18
  -9  -3   0 1998.50 393.848  18
  -9  -3  -1 568.147 293.035  18
  -9  -3  -2 3388.83 477.312  18
  -9  -2   9 6509.68 550.007   9
   9  -2  -9 5858.28 586.859  19
  -9  -2   8 4987.00 590.979   9
   9  -2  -8 2971.43 509.560  19
   9  -2  -7 687.831 343.549  19
   9  -2  -6 1107.87 415.339  19
   9  -2  -5 902.407 336.963  22
   9  -2  -5 900.018 380.194  19
   9  -2  -4 2241.66 502.907  22
   9  -2  -4 2536.88 633.429  19
   9  -2  -3 2300.91 540.960  22
   9  -2  -2 1581.68 487.840  22
  -9  -2   2 1245.43 357.452   9
   9  -2  -1 2983.70 641.049  22
  -9  -2   1 2960.28 578.601  18
   9  -2   0 2443.73 449.852  10
   9  -2   0 2048.15 486.989  22
  -9  -2   0 2050.12 488.383  18
   9  -2   1 4254.84 630.701  22
  -9  -2  -1 5201.83 660.039  18
   9  -2   1 4975.15 647.031  10
   9  -2   2 126.686 186.818  10
  -9  -2  -2 0.15606 188.154  18
   9  -2   3 17.9248 210.085  10
   9  -2   4 2518.00 388.143  10
   9  -2   5 110.447 135.625  10
   9  -1 -10 3421.73 439.182  19
   9  -1  -9 4578.52 626.024  19
   9  -1  -8 5518.74 710.320  19
   9  -1  -7 3887.21 711.728  19
   9  -1  -6 5895.51 734.609  22
   9  -1  -6 7853.45 955.483  19
   9  -1  -5 16803.9 1425.09  22
   9  -1  -5 16094.9 1379.34  19
   9  -1  -4 7202.33 937.013  22
   9  -1  -4 5236.99 820.122  19
   9  -1  -3 3167.41 688.427  22
   9  -1  -3 3101.81 679.221  19
   9  -1  -2 8201.80 1056.14  22
   9  -1  -2 7301.43 931.066  19
   9  -1  -1 13737.0 1298.35  22
   9  -1  -1 12622.6 1090.14  10
   9  -1   0 1643.49 432.385  10
   9  -1   0 1695.47 609.496  22
   9  -1   1 3617.42 647.605  10
   9  -1   1 3565.50 624.338  22
   9  -1   2 1514.36 475.716  10
   9  -1   2 1348.55 354.775  22
   9  -1   3 1600.81 381.499  22
   9  -1   3 1698.83 433.073  10
   9  -1   4 1331.81 358.577  10
   9  -1   5 660.265 263.462  10
   9  -1   6 3470.61 394.902  10
   9   0 -10-27.3541 246.884  19
   9   0  -9 3015.97 560.015  19
   9   0  -8 350.951 232.989  22
   9   0  -8-98.4453 330.132  19
   9   0  -7 14586.5 1166.63  22
   9   0  -7 17389.9 1370.69  19
   9   0  -6 2145.09 514.300  22
   9   0  -6 3842.53 717.155  19
   9   0  -5 403.075 356.411  22
   9   0  -5 145.751 318.055  19
   9   0  -4 300.568 427.461  22
   9   0  -4 1116.92 433.903  19
   9   0  -3 11404.3 1220.66  22
   9   0  -3 9090.40 1031.59  19
   9   0  -2 9227.82 992.259  10
   9   0  -2 7619.10 923.394  19
   9   0  -1 440.735 284.514  10
   9   0  -1 50.4649 432.283  22
   9   0   0 2292.14 586.677  10
   9   0   0 1909.55 507.510  22
   9   0   1 19272.4 1500.96  10
   9   0   1 18958.4 1405.53  22
   9   0   2 7846.99 937.927  10
   9   0   2 5983.02 699.064  22
   9   0   3 220.387 335.912  10
   9   0   3-303.388 274.448  22
   9   0   4 11816.0 999.391  10
   9   0   5 16424.9 1048.73  10
   9   0   6 181.010 173.919  10
   9   1 -10 4324.78 537.616  19
   9   1  -9 7133.68 777.787  19
   9   1  -8 4975.10 628.219  22
   9   1  -8 5342.14 710.937  19
   9   1  -7 4648.41 742.407  22
   9   1  -7 4137.44 707.868  19
   9   1  -6 6717.20 885.408  22
   9   1  -6 5424.22 767.921  19
   9   1  -5 14136.6 1310.82  22
   9   1  -5 12581.0 1135.36  19
   9   1  -4 5499.17 858.644  22
   9   1  -4 4978.66 716.394  19
   9   1  -3 3955.21 659.037  22
   9   1  -2 7556.29 942.047  22
   9   1  -1 12517.8 1181.29  22
   9   1  -1 11798.4 1073.70  26
   9   1   0 1381.67 522.680  22
   9   1   0 1689.74 492.557  26
   9   1   1 3092.68 550.389  22
   9   1   2 1109.86 309.854  22
   9   1   2 2030.93 498.416  10
   9   1   3 1342.15 417.979  10
   9   1   4 691.149 272.046  10
   9   1   5 639.002 248.369  10
   9   1   6 2309.01 328.273  10
   9   2  -9 3772.10 447.827  22
   9   2  -9 5359.45 541.356  19
   9   2  -8 2697.47 468.558  22
   9   2  -8 2373.84 381.798  19
   9   2  -7 2780.32 569.302  22
   9   2  -7 1464.76 342.895  19
   9   2  -6 1751.71 507.031  22
   9   2  -5 1151.11 429.822  22
   9   2  -4 3327.63 701.464  22
   9   2  -3 2917.06 617.847  22
   9   2  -3 2157.95 510.134  26
   9   2  -2 563.953 267.826  22
   9   2  -2 1412.29 431.326  26
   9   2  -1 3054.13 575.448  22
   9   2  -1 3289.68 615.134  26
   9   2   0 1711.62 421.389  22
   9   2   0 2997.21 659.175  26
   9   2   1 4620.86 692.740  26
   9   2   2 19.3806 264.366  26
   9   2   3-142.783 285.318  10
   9   2   4 2814.07 441.648  10
   9   2   5-8.94938 160.511  10
   9   3  -7-175.764 228.004  22
   9   3  -6 2594.94 448.902  22
   9   3  -5 8026.95 820.017  22
   9   3  -4 525.760 282.689  22
   9   3  -4 329.266 290.793  26
   9   3  -3 3224.18 528.712  22
   9   3  -3 3317.71 567.698  26
   9   3  -2 5969.40 634.441  22
   9   3  -2 5935.92 723.259  26
   9   3  -1 301.645 141.394  22
   9   3  -1 815.687 391.372  26
   9   3   0 1980.58 425.417  26
   9   3   1 358.992 264.809  26
   9   3   3 1416.67 330.347  10
 -10  -2   6 2832.38 360.621   9
 -10  -2   5 14.5830 124.231   9
  10  -2  -4 4280.85 476.876  22
 -10  -2   4 5172.60 507.469   9
  10  -2  -3 16295.8 989.922  22
  10  -2  -2 2169.99 402.350  22
  10  -1  -8 1714.57 313.743  19
  10  -1  -7-690.771 300.658  19
  10  -1  -6 3544.06 441.155  22
  10  -1  -6 3034.77 514.697  19
  10  -1  -5 2207.92 416.063  22
  10  -1  -5 1967.53 404.541  19
  10  -1  -4 855.829 318.116  22
  10  -1  -3 1050.29 286.380  22
  10  -1  -2 3664.52 581.299  22
  10  -1  -1 1668.49 430.157  22
  10  -1   0 2583.81 407.232  10
  10  -1   0 2134.86 403.721  22
  10  -1   1 3218.79 445.749  22
  10  -1   1 4359.84 495.892  10
  10  -1   2 1794.04 332.267  10
  10  -1   3 2306.20 322.971  10
  10   0  -8 3073.54 407.059  19
  10   0  -7 2964.89 403.303  22
  10   0  -7 2671.15 427.830  19
  10   0  -6 1969.71 415.102  22
  10   0  -6 2044.49 387.173  19
  10   0  -5 84.4513 234.029  22
  10   0  -5-325.532 291.493  19
  10   0  -4 25746.9 1483.21  22
  10   0  -4 19033.1 1188.84  19
  10   0  -3 7207.81 794.379  22
  10   0  -2 5770.14 701.609  22
  10   0  -1-73.0168 166.773  10
  10   0  -1-110.499 286.281  22
  10   0   0 28453.4 1476.50  22
  10   0   0 28606.4 1450.54  10
  10   0   1 3289.84 482.435  10
  10   0   1 2620.82 405.562  22
  10   0   2 1527.04 273.377  22
  10   0   2 1232.69 307.763  10
  10   0   3 188.539 179.839  10
  10   0   4 451.040 169.060  10
  10   1  -7 242.112 171.936  22
  10   1  -7 268.601 143.532  19
  10   1  -6 3655.77 526.551  22
  10   1  -6 3290.14 441.198  19
  10   1  -5 1914.69 415.049  22
  10   1  -4 1055.26 360.208  22
  10   1  -3 1389.50 458.534  22
  10   1  -2 3657.15 502.564  10
  10   1  -2 4262.07 592.287  22
  10   1  -1 1609.83 353.506  10
  10   1  -1 1295.85 334.248  22
  10   1   0 2341.09 428.473  10
  10   1   0 1767.99 346.753  22
  10   1   1 3097.80 403.233  22
  10   1   1 3968.00 512.429  10
  10   1   2 1311.91 299.417  10
  10   1   3 2571.46 343.006  10
  10   2  -6 1530.43 298.696  22
  10   2  -5 585.949 274.536  22
  10   2  -4 4495.67 550.700  22
  10   2  -3 19143.1 1110.76  22
  10   2  -2 2678.14 404.560  10
  10   2  -2 2761.14 425.292  22
  10   2  -1 3922.35 454.807  22
  10   2  -1 3427.89 472.536  10
  10   2   0 3189.60 464.757  10
  10   2   1 1477.47 285.142  10
  10   2   2 1533.06 270.211  10
  11   0  -3 1656.07 275.215  22
   0   0   0    0.00    0.00   0
TITL ADPCMG in P2(1)
REM P2(1) (#4 in standard setting)
CELL 1.54184   8.784805   5.523666  12.428719  90.0000  99.3423  90.0000
ZERR    2.00   0.000820   0.000575   0.001189   0.0000   0.0092   0.0000
LATT -1
SYMM -x, y+1/2,-z
SFAC C H N O S
UNIT 22.00 38.00 2.00 8.00 2.00
TREF
HKLF 4
END
;
_shelx_hkl_checksum              18334
_shelx_shelxl_version_number     2014/7
_olex2_exptl_crystal_mounting_method 'in fomblin film on a micromount'
_olex2_submission_special_instructions 'No special instructions were received'
loop_
_space_group_symop_operation_xyz
'x, y, z'
'-x, y+1/2, -z'
loop_
_atom_site_label
_atom_site_type_symbol
_atom_site_fract_x
_atom_site_fract_y
_atom_site_fract_z
_atom_site_U_iso_or_equiv
_atom_site_adp_type
_atom_site_occupancy
_atom_site_site_symmetry_order
_atom_site_calc_flag
_atom_site_refinement_flags_posn
S1 S 0.50749(15) 0.5613(3) 0.37281(11) 0.0356(4) Uani 1 1 d .
O13 O 0.1967(4) 0.0319(7) 0.3091(3) 0.0258(8) Uani 1 1 d .
O15 O 0.1144(4) 0.2628(8) 0.1541(3) 0.0283(8) Uani 1 1 d .
O14 O 0.0351(5) -0.0609(8) 0.4257(3) 0.0347(10) Uani 1 1 d .
N11 N 0.0724(6) 0.3344(9) 0.3724(4) 0.0279(10) Uani 1 1 d .
H11 H 0.036(9) 0.405(14) 0.420(7) 0.033 Uiso 1 1 d R
C12 C 0.0931(6) 0.0939(10) 0.3762(4) 0.0256(11) Uani 1 1 d .
C4 C 0.2289(6) 0.2434(10) 0.2482(4) 0.0234(10) Uani 1 1 d .
C3 C 0.1936(6) 0.4510(10) 0.3236(4) 0.0249(10) Uani 1 1 d .
H3 H 0.1527 0.5960 0.2801 0.030 Uiso 1 1 calc R
C5 C 0.3913(6) 0.2149(11) 0.2206(4) 0.0280(11) Uani 1 1 d .
H5 H 0.4004 0.0432 0.1969 0.034 Uiso 1 1 calc R
C10 C 0.5180(7) 0.2536(12) 0.3198(4) 0.0316(12) Uani 1 1 d .
H10 H 0.5006 0.1369 0.3780 0.038 Uiso 1 1 calc R
C16 C 0.0880(7) 0.0511(15) 0.0892(4) 0.0364(12) Uani 1 1 d .
H16A H 0.0035 0.0804 0.0288 0.055 Uiso 1 1 calc GR
H16B H 0.0604 -0.0830 0.1339 0.055 Uiso 1 1 calc GR
H16C H 0.1818 0.0096 0.0601 0.055 Uiso 1 1 calc GR
C2 C 0.3231(6) 0.5218(10) 0.4147(4) 0.0291(12) Uani 1 1 d .
H2A H 0.3327 0.3954 0.4719 0.035 Uiso 1 1 calc R
H2B H 0.2945 0.6749 0.4478 0.035 Uiso 1 1 calc R
C9 C 0.6773(7) 0.2091(13) 0.2922(5) 0.0376(13) Uani 1 1 d .
H9A H 0.6870 0.0364 0.2731 0.045 Uiso 1 1 calc R
H9B H 0.7556 0.2441 0.3571 0.045 Uiso 1 1 calc R
C6 C 0.4206(7) 0.3740(13) 0.1254(4) 0.0349(13) Uani 1 1 d .
H6A H 0.4100 0.5466 0.1443 0.042 Uiso 1 1 calc R
H6B H 0.3429 0.3376 0.0603 0.042 Uiso 1 1 calc R
C7 C 0.5829(8) 0.3287(15) 0.0991(5) 0.0434(16) Uani 1 1 d .
H7A H 0.5888 0.1607 0.0724 0.052 Uiso 1 1 calc R
H7B H 0.6010 0.4394 0.0398 0.052 Uiso 1 1 calc R
C8 C 0.7090(7) 0.3666(15) 0.1970(5) 0.0414(15) Uani 1 1 d .
H8A H 0.7124 0.5392 0.2187 0.050 Uiso 1 1 calc R
H8B H 0.8104 0.3232 0.1773 0.050 Uiso 1 1 calc R
loop_
_atom_site_aniso_label
_atom_site_aniso_U_11
_atom_site_aniso_U_22
_atom_site_aniso_U_33
_atom_site_aniso_U_23
_atom_site_aniso_U_13
_atom_site_aniso_U_12
S1 0.0368(7) 0.0386(8) 0.0315(6) -0.0074(7) 0.0055(5) -0.0072(6)
O13 0.0323(17) 0.023(2) 0.0237(16) -0.0003(16) 0.0097(13) -0.0008(15)
O15 0.0334(19) 0.032(2) 0.0185(16) 0.0002(15) 0.0008(14) 0.0010(16)
O14 0.047(2) 0.033(2) 0.0280(19) 0.0042(17) 0.0149(17) -0.0008(17)
N11 0.037(2) 0.027(2) 0.022(2) -0.0023(18) 0.0119(18) 0.0016(18)
C12 0.031(2) 0.029(3) 0.019(2) 0.002(2) 0.0095(17) 0.002(2)
C4 0.034(3) 0.023(2) 0.014(2) 0.0008(19) 0.0036(18) -0.004(2)
C3 0.032(3) 0.023(2) 0.020(2) 0.0022(19) 0.0037(19) 0.0011(19)
C5 0.030(2) 0.032(3) 0.023(2) 0.000(2) 0.0048(19) 0.002(2)
C10 0.034(3) 0.037(3) 0.024(2) 0.006(2) 0.006(2) -0.001(2)
C16 0.043(3) 0.039(3) 0.026(2) -0.010(3) 0.003(2) -0.004(3)
C2 0.035(3) 0.029(3) 0.022(2) -0.003(2) 0.0027(19) 0.001(2)
C9 0.035(3) 0.044(4) 0.034(3) 0.002(3) 0.005(2) 0.004(3)
C6 0.039(3) 0.042(3) 0.025(2) 0.005(2) 0.009(2) -0.002(3)
C7 0.043(4) 0.063(5) 0.026(3) 0.002(3) 0.013(2) -0.006(3)
C8 0.032(3) 0.055(4) 0.040(3) 0.001(3) 0.011(3) -0.003(3)
loop_
_atom_type_symbol
_atom_type_description
_atom_type_scat_dispersion_real
_atom_type_scat_dispersion_imag
_atom_type_scat_source
C C 0.0181 0.0091 'International Tables Vol C Tables 4.2.6.8 and 6.1.1.4'
H H 0.0000 0.0000 'International Tables Vol C Tables 4.2.6.8 and 6.1.1.4'
N N 0.0311 0.0180 'International Tables Vol C Tables 4.2.6.8 and 6.1.1.4'
O O 0.0492 0.0322 'International Tables Vol C Tables 4.2.6.8 and 6.1.1.4'
S S 0.3331 0.5567 'International Tables Vol C Tables 4.2.6.8 and 6.1.1.4'
loop_
_exptl_crystal_face_index_h
_exptl_crystal_face_index_k
_exptl_crystal_face_index_l
_exptl_crystal_face_perp_dist
_exptl_oxdiff_crystal_face_indexfrac_h
_exptl_oxdiff_crystal_face_indexfrac_k
_exptl_oxdiff_crystal_face_indexfrac_l
_exptl_oxdiff_crystal_face_x
_exptl_oxdiff_crystal_face_y
_exptl_oxdiff_crystal_face_z
0 0 1 0.0264 0.0022 -0.0002 1.0010 0.0395 0.1190 -0.0106
0 0 -1 0.0264 -0.0022 0.0002 -1.0010 -0.0395 -0.1190 0.0106
2 -3 3 0.1554 1.9928 -2.9928 3.0035 0.1843 0.4778 0.8634
-2 3 -1 0.1956 -1.9883 2.9925 -1.0015 -0.1052 -0.2398 -0.8846
-5 0 1 0.0059 -5.0031 0.0026 1.0204 -0.7912 0.2152 -0.3135
5 0 -1 0.0109 5.0031 -0.0026 -1.0204 0.7912 -0.2152 0.3135
1 -4 -1 0.1785 0.9774 -3.9887 -0.9941 -0.2289 0.0743 1.1032
loop_
_geom_angle_atom_site_label_1
_geom_angle_atom_site_label_2
_geom_angle_atom_site_label_3
_geom_angle
C2 S1 C10 95.3(3)
C12 O13 C4 108.8(4)
C4 O15 C16 115.8(4)
C12 N11 H11 121(5)
C12 N11 C3 110.4(5)
C3 N11 H11 119(5)
O14 C12 O13 120.4(5)
O14 C12 N11 130.6(5)
N11 C12 O13 108.9(5)
O13 C4 C3 101.9(4)
O13 C4 C5 107.6(4)
O15 C4 O13 108.7(4)
O15 C4 C3 105.0(4)
O15 C4 C5 112.7(4)
C5 C4 C3 119.9(4)
N11 C3 C4 99.0(4)
N11 C3 H3 110.9
N11 C3 C2 108.2(4)
C4 C3 H3 110.9
C2 C3 C4 116.3(4)
C2 C3 H3 110.9
C4 C5 H5 106.6
C4 C5 C10 112.8(4)
C4 C5 C6 113.3(5)
C10 C5 H5 106.6
C6 C5 H5 106.6
C6 C5 C10 110.5(5)
S1 C10 H10 108.4
C5 C10 S1 110.2(4)
C5 C10 H10 108.4
C9 C10 S1 109.6(5)
C9 C10 C5 111.9(5)
C9 C10 H10 108.4
O15 C16 H16A 109.5
O15 C16 H16B 109.5
O15 C16 H16C 109.5
H16A C16 H16B 109.5
H16A C16 H16C 109.5
H16B C16 H16C 109.5
S1 C2 H2A 108.6
S1 C2 H2B 108.6
C3 C2 S1 114.6(4)
C3 C2 H2A 108.6
C3 C2 H2B 108.6
H2A C2 H2B 107.6
C10 C9 H9A 109.2
C10 C9 H9B 109.2
C10 C9 C8 111.9(5)
H9A C9 H9B 107.9
C8 C9 H9A 109.2
C8 C9 H9B 109.2
C5 C6 H6A 109.5
C5 C6 H6B 109.5
C5 C6 C7 110.5(5)
H6A C6 H6B 108.1
C7 C6 H6A 109.5
C7 C6 H6B 109.5
C6 C7 H7A 109.0
C6 C7 H7B 109.0
H7A C7 H7B 107.8
C8 C7 C6 112.9(5)
C8 C7 H7A 109.0
C8 C7 H7B 109.0
C9 C8 H8A 109.7
C9 C8 H8B 109.7
C7 C8 C9 109.9(5)
C7 C8 H8A 109.7
C7 C8 H8B 109.7
H8A C8 H8B 108.2
loop_
_geom_bond_atom_site_label_1
_geom_bond_atom_site_label_2
_geom_bond_distance
S1 C10 1.831(7)
S1 C2 1.793(5)
O13 C12 1.374(6)
O13 C4 1.445(6)
O15 C4 1.417(6)
O15 C16 1.418(8)
O14 C12 1.213(7)
N11 H11 0.82(8)
N11 C12 1.341(8)
N11 C3 1.458(7)
C4 C3 1.544(7)
C4 C5 1.528(7)
C3 H3 1.0000
C3 C2 1.521(7)
C5 H5 1.0000
C5 C10 1.536(7)
C5 C6 1.529(7)
C10 H10 1.0000
C10 C9 1.514(8)
C16 H16A 0.9800
C16 H16B 0.9800
C16 H16C 0.9800
C2 H2A 0.9900
C2 H2B 0.9900
C9 H9A 0.9900
C9 H9B 0.9900
C9 C8 1.531(9)
C6 H6A 0.9900
C6 H6B 0.9900
C6 C7 1.534(9)
C7 H7A 0.9900
C7 H7B 0.9900
C7 C8 1.521(9)
C8 H8A 0.9900
C8 H8B 0.9900
loop_
_geom_hbond_atom_site_label_D
_geom_hbond_atom_site_label_H
_geom_hbond_atom_site_label_A
_geom_hbond_distance_DH
_geom_hbond_distance_HA
_geom_hbond_distance_DA
_geom_hbond_angle_DHA
_geom_hbond_site_symmetry_A
N11 H11 O14 0.82(8) 2.12(8) 2.880(6) 155(7) 2_556
loop_
_geom_torsion_atom_site_label_1
_geom_torsion_atom_site_label_2
_geom_torsion_atom_site_label_3
_geom_torsion_atom_site_label_4
_geom_torsion
S1 C10 C9 C8 -66.5(6)
O13 C4 C3 N11 -31.3(5)
O13 C4 C3 C2 84.2(5)
O13 C4 C5 C10 -73.6(6)
O13 C4 C5 C6 160.0(5)
O15 C4 C3 N11 82.0(4)
O15 C4 C3 C2 -162.4(4)
O15 C4 C5 C10 166.5(5)
O15 C4 C5 C6 40.1(7)
N11 C3 C2 S1 157.8(4)
C12 O13 C4 O15 -85.4(5)
C12 O13 C4 C3 25.2(5)
C12 O13 C4 C5 152.3(4)
C12 N11 C3 C4 29.2(5)
C12 N11 C3 C2 -92.5(5)
C4 O13 C12 O14 171.3(5)
C4 O13 C12 N11 -7.7(5)
C4 C3 C2 S1 47.5(6)
C4 C5 C10 S1 -61.4(5)
C4 C5 C10 C9 176.4(5)
C4 C5 C6 C7 -177.6(5)
C3 N11 C12 O13 -15.1(6)
C3 N11 C12 O14 166.1(5)
C3 C4 C5 C10 42.0(7)
C3 C4 C5 C6 -84.4(6)
C5 C4 C3 N11 -150.0(4)
C5 C4 C3 C2 -34.4(7)
C5 C10 C9 C8 56.0(8)
C5 C6 C7 C8 -55.9(8)
C10 S1 C2 C3 -58.7(4)
C10 C5 C6 C7 54.7(7)
C10 C9 C8 C7 -54.7(8)
C16 O15 C4 O13 -51.0(6)
C16 O15 C4 C3 -159.5(4)
C16 O15 C4 C5 68.2(6)
C2 S1 C10 C5 65.5(4)
C2 S1 C10 C9 -171.0(4)
C6 C5 C10 S1 66.5(5)
C6 C5 C10 C9 -55.7(7)
C6 C7 C8 C9 55.1(8)
