#------------------------------------------------------------------------------
#$Date: 2019-11-11 20:29:55 +0200 (Mon, 11 Nov 2019) $
#$Revision: 227275 $
#$URL: file:///home/coder/svn-repositories/cod/cif/4/03/58/4035863.cif $
#------------------------------------------------------------------------------
#
# This file is available in the Crystallography Open Database (COD),
# http://www.crystallography.net/
#
# All data on this site have been placed in the public domain by the
# contributors.
#
data_4035863
loop_
_publ_author_name
'Bookser, Brett C.'
'Weinhouse, Michael I.'
'Burns, Aaron C.'
'Valiere, Andrew N.'
'Valdez, Lino J.'
'Stanczak, Pawel'
'Na, Jim'
'Rheingold, Arnold L.'
'Moore, Curtis E.'
'Dyck, Brian'
_publ_section_title
;
 Solvent-Controlled, Site-Selective N-Alkylation Reactions of Azolo-Fused
 Ring Heterocycles at N1-, N2-, and N3-Positions, Including Pyrazolo[3,4-
 d]pyrimidines, Purines, [1,2,3]Triazolo[4,5]pyridines, and Related
 Deaza-Compounds.
;
_journal_issue                   12
_journal_name_full               'The Journal of organic chemistry'
_journal_page_first              6334
_journal_page_last               6353
_journal_paper_doi               10.1021/acs.joc.8b00540
_journal_volume                  83
_journal_year                    2018
_chemical_formula_moiety         'C6 H5 Cl N4'
_chemical_formula_sum            'C6 H5 Cl N4'
_chemical_formula_weight         168.59
_space_group_crystal_system      monoclinic
_space_group_IT_number           14
_space_group_name_Hall           '-P 2ybc'
_space_group_name_H-M_alt        'P 1 21/c 1'
_atom_sites_solution_hydrogens   geom
_atom_sites_solution_primary     dual
_audit_creation_date             2016-09-07
_audit_creation_method
;
Olex2 1.2-beta
(compiled 2016.08.25 svn.r3337 for OlexSys, GUI svn.r5221)
;
_cell_angle_alpha                90
_cell_angle_beta                 108.474(19)
_cell_angle_gamma                90
_cell_formula_units_Z            4
_cell_length_a                   7.008(8)
_cell_length_b                   13.971(15)
_cell_length_c                   7.564(9)
_cell_measurement_reflns_used    1575
_cell_measurement_temperature    100
_cell_measurement_theta_max      25.283
_cell_measurement_theta_min      2.848
_cell_volume                     702.4(14)
_computing_cell_refinement       'SAINT v8.37A (Bruker, 2015)'
_computing_data_collection       'APEX2 v2013.6-2 (Bruker, 2013)'
_computing_data_reduction        'SAINT v8.34A (Bruker, 2013)'
_computing_molecular_graphics    'Olex2 (Dolomanov et al., 2009)'
_computing_publication_material  'Olex2 (Dolomanov et al., 2009)'
_computing_structure_refinement  'XL (Sheldrick, 2008)'
_computing_structure_solution    'ShelXT (Sheldrick, 2008)'
_diffrn_ambient_temperature      100
_diffrn_detector                 'Bruker APEX-II CCD'
_diffrn_detector_area_resol_mean 7.9
_diffrn_detector_type            'CCD Area Detector'
_diffrn_measured_fraction_theta_full 0.927
_diffrn_measured_fraction_theta_max 0.765
_diffrn_measurement_device       'Kappa Four-Circle Diffractometer'
_diffrn_measurement_device_type  'Bruker APEX II Ultra'
_diffrn_measurement_method       '\f and \w scans'
_diffrn_radiation_monochromator  'Double Bounce Multilayer Mirrors'
_diffrn_radiation_probe          x-ray
_diffrn_radiation_type           MoK\a
_diffrn_radiation_wavelength     0.71073
_diffrn_reflns_av_R_equivalents  0.0389
_diffrn_reflns_av_unetI/netI     0.0450
_diffrn_reflns_Laue_measured_fraction_full 0.927
_diffrn_reflns_Laue_measured_fraction_max 0.765
_diffrn_reflns_limit_h_max       6
_diffrn_reflns_limit_h_min       -9
_diffrn_reflns_limit_k_max       16
_diffrn_reflns_limit_k_min       -16
_diffrn_reflns_limit_l_max       7
_diffrn_reflns_limit_l_min       -8
_diffrn_reflns_number            3813
_diffrn_reflns_point_group_measured_fraction_full 0.927
_diffrn_reflns_point_group_measured_fraction_max 0.765
_diffrn_reflns_theta_full        25.242
_diffrn_reflns_theta_max         27.535
_diffrn_reflns_theta_min         2.916
_diffrn_source                   'Micro Focus Rotating Anode'
_diffrn_source_type              'Bruker TXS'
_diffrn_standards_number         0
_exptl_absorpt_coefficient_mu    0.472
_exptl_absorpt_correction_T_max  0.2590
_exptl_absorpt_correction_T_min  0.2223
_exptl_absorpt_correction_type   multi-scan
_exptl_absorpt_process_details
;
SADABS-2016/2 (Bruker,2016/2) was used for absorption correction.
wR2(int) was 0.1295 before and 0.0488 after correction.
The Ratio of minimum to maximum transmission is 0.8583.
The \l/2 correction factor is Not present.
;
_exptl_crystal_colour            colourless
_exptl_crystal_colour_primary    colourless
_exptl_crystal_density_diffrn    1.594
_exptl_crystal_description       plate
_exptl_crystal_F_000             344
_exptl_crystal_size_max          0.28
_exptl_crystal_size_mid          0.27
_exptl_crystal_size_min          0.08
_refine_diff_density_max         0.237
_refine_diff_density_min         -0.305
_refine_diff_density_rms         0.056
_refine_ls_extinction_method     none
_refine_ls_goodness_of_fit_ref   1.159
_refine_ls_hydrogen_treatment    constr
_refine_ls_matrix_type           full
_refine_ls_number_parameters     175
_refine_ls_number_reflns         1239
_refine_ls_number_restraints     0
_refine_ls_restrained_S_all      1.159
_refine_ls_R_factor_all          0.0587
_refine_ls_R_factor_gt           0.0465
_refine_ls_shift/su_max          0.026
_refine_ls_shift/su_mean         0.002
_refine_ls_structure_factor_coef Fsqd
_refine_ls_weighting_details
'w=1/[\s^2^(Fo^2^)+(0.0259P)^2^+0.5939P] where P=(Fo^2^+2Fc^2^)/3'
_refine_ls_weighting_scheme      calc
_refine_ls_wR_factor_gt          0.0982
_refine_ls_wR_factor_ref         0.1035
_reflns_Friedel_coverage         0.000
_reflns_number_gt                1039
_reflns_number_total             1239
_reflns_threshold_expression     'I > 2\s(I)'
_cod_data_source_file            jo8b00540_si_009.cif
_cod_data_source_block           dart174
_cod_depositor_comments
;
The following automatic conversions were performed:

data item '_diffrn_radiation_probe' value 'X-ray' was changed to
'x-ray' in accordance with the
/home/data/users/saulius/crontab/automatic-downloads/current/ACS/lib/dictionaries/cif_core.dic
dictionary named 'cif_core.dic' version 2.4.2 last updated on
2011-04-26.

Automatic conversion script
Id: cif_fix_values 6909 2019-04-08 15:41:33Z antanas 
;
_cod_database_code               4035863
_shelx_space_group_comment
;
The symmetry employed for this shelxl refinement is uniquely defined
by the following loop, which should always be used as a source of
symmetry information in preference to the above space-group names.
They are only intended as comments.
;
_shelx_estimated_absorpt_t_max   0.963
_shelx_estimated_absorpt_t_min   0.879
_olex2_refinement_description
;
1. Fixed Uiso
 At 1.2 times of:
  All C(H) groups
 At 1.5 times of:
  All C(H,H,H) groups
2. Others
 Sof(C4')=Sof(C2')=Sof(C5')=Sof(H4)=Sof(N4')=Sof(C1')=Sof(H4AA)=Sof(H4AB)=
 Sof(H4AC)=Sof(N2')=Sof(C6')=Sof(H2AA)=Sof(N1')=1-FVAR(1)
 Sof(N2)=Sof(C6)=Sof(H6)=Sof(C2)=Sof(N1)=Sof(C1)=Sof(H1A)=Sof(H1B)=Sof(H1C)=
 Sof(N3)=Sof(C4)=Sof(C5)=Sof(H5)=FVAR(1)
3.a Aromatic/amide H refined with riding coordinates:
 C6(H6), C5(H5), C5'(H4), C6'(H2AA)
3.b Idealised Me refined as rotating group:
 C1(H1A,H1B,H1C), C1'(H4AA,H4AB,H4AC)
;
_shelx_res_file
;
    dart174.res created by SHELXL-2014/7

TITL dart174_a.res in P2(1)/c
CELL 0.71073 7.008 13.9713 7.5637 90 108.474 90
ZERR 4 0.008 0.0154 0.0086 0 0.019 0
LATT 1
SYMM -X,0.5+Y,0.5-Z
SFAC C H Cl N
UNIT 24 20 4 16

L.S. 4
PLAN  -10 0 0
SIZE 0.08 0.27 0.28
TEMP -173.15
list 4
BOND $H
CONF
fmap 2
acta
MORE -1
REM <olex2.extras>
REM <HklSrc "%.\\dart174.hkl">
REM </olex2.extras>

WGHT    0.025900    0.593900
FVAR       0.73323   0.70013
CL1   3    0.462790    0.394511    0.625328    11.00000    0.03748    0.02480 =
         0.06408    0.00945    0.02525    0.01454
N3'   4    0.706217    0.090161    0.664468    11.00000    0.03411    0.02147 =
         0.05393    0.00080    0.01309    0.00518
PART 1
N2    4    1.051743    0.253783    0.723026    21.00000    0.01639    0.04014 =
         0.04635   -0.00324    0.01478   -0.00282
C6    1    0.515890    0.110523    0.628916    21.00000    0.02078    0.01653 =
         0.05409   -0.00574    0.01060   -0.00054
AFIX  43
H6    2    0.422355    0.059162    0.605762    21.00000   -1.20000
AFIX   0
C2    1    0.805016    0.166686    0.680206    21.00000    0.01361    0.02809 =
         0.02540    0.00035    0.00261    0.00189
PART 0
C3'   1    0.737608    0.259264    0.672979    11.00000    0.02677    0.02832 =
         0.02235    0.00305    0.00875    0.00483
PART 1
N1    4    0.907238    0.314580    0.702521    21.00000    0.01427    0.02344 =
         0.04278    0.00212    0.00905   -0.00513
C1    1    0.940090    0.418327    0.716851    21.00000    0.03809    0.02801 =
         0.06221   -0.00868    0.02234   -0.01853
AFIX 137
H1A   2    0.905764    0.442883    0.824331    21.00000   -1.50000
H1B   2    0.854786    0.449269    0.602917    21.00000   -1.50000
H1C   2    1.081676    0.432169    0.732881    21.00000   -1.50000
AFIX   0
N3    4    0.995198    0.164890    0.709216    21.00000    0.01281    0.04012 =
         0.04917   -0.00112    0.00763    0.00484
C4    1    0.559805    0.282262    0.644965    21.00000    0.01770    0.01707 =
         0.03020    0.00336    0.00725    0.00296
C5    1    0.442202    0.204246    0.623099    21.00000    0.01525    0.02163 =
         0.03639   -0.00022    0.00730    0.00109
AFIX  43
H5    2    0.302433    0.213012    0.602723    21.00000   -1.20000
AFIX   0

PART 0
PART 2
C4'   1    0.665572    0.348739    0.654851   -21.00000    0.01142    0.01711 =
         0.03056   -0.00108    0.00626    0.00350

C2'   1    0.895595    0.222248    0.703509   -21.00000    0.02454    0.03005 =
         0.03230   -0.00049    0.01103    0.00222
C5'   1    0.812468    0.412276    0.682569   -21.00000    0.03005    0.02100 =
         0.03869    0.00655    0.01084   -0.00618
AFIX  43
H4    2    0.789601    0.479387    0.678036   -21.00000   -1.20000
AFIX   0

N4'   4    0.613297    0.166833    0.651966   -21.00000    0.01977    0.01651 =
         0.04525    0.00224    0.00267    0.00605
C1'   1    0.420074    0.147533    0.609718   -21.00000    0.02785    0.00696 =
         0.04388   -0.00397    0.01275    0.00121
AFIX 137
H4AA  2    0.348394    0.173152    0.485813   -21.00000   -1.50000
H4AB  2    0.367141    0.177031    0.702134   -21.00000   -1.50000
H4AC  2    0.400894    0.078053    0.609765   -21.00000   -1.50000
AFIX   0

N2'   4    0.906399    0.126817    0.709332   -21.00000    0.01170    0.03352 =
         0.04854   -0.00234   -0.00011    0.00740
C6'   1    0.990092    0.375188    0.716407   -21.00000    0.03769    0.02179 =
         0.04407   -0.00108    0.01848    0.00232
AFIX  43
H2AA  2    1.097190    0.419786    0.736388   -21.00000   -1.20000
AFIX   0

N1'   4    1.042668    0.284648    0.726923   -21.00000    0.01368    0.01964 =
         0.03678    0.00383   -0.00528   -0.00094
HKLF 4

REM  dart174_a.res in P2(1)/c
REM R1 =  0.0465 for    1039 Fo > 4sig(Fo)  and  0.0587 for all    1239 data
REM    175 parameters refined using      0 restraints

END

WGHT      0.0254      0.5980

REM Highest difference peak  0.237,  deepest hole -0.305,  1-sigma level  0.056
Q1    1   0.4185  0.3452  0.5757  11.00000  0.05    0.24
Q2    1   0.3816  0.3844  0.4930  11.00000  0.05    0.23
Q3    1   0.5583  0.4422  0.5120  11.00000  0.05    0.19
Q4    1   0.4676  0.3980  0.4663  11.00000  0.05    0.19
Q5    1   0.6463  0.0874  0.5271  11.00000  0.05    0.18
Q6    1   0.5578  0.3926  0.7723  11.00000  0.05    0.18
Q7    1   0.8881  0.4360  0.5390  11.00000  0.05    0.18
Q8    1   1.0233  0.4195  0.8776  11.00000  0.05    0.17
Q9    1   0.8775  0.3627  0.5465  11.00000  0.05    0.17
Q10   1   0.7383  0.1541  0.5575  11.00000  0.05    0.16
;
_shelx_res_checksum              71952
_shelx_hkl_file
;
   0   0  -1   -0.20    0.50
   0   0  -1    0.50    0.40
   0   0   1    0.30    0.40
   0   0   1    0.20    0.30
   0   0   2 5668.93  236.38
   0   0   2 5829.22  236.38
   0   0  -2 6096.29  238.08
   0   0  -2 5901.31  238.98
   0   0  -3    0.50    1.00
   0   0  -3    0.50    0.80
   0   0  -4  779.22   32.50
   0   0  -4  767.22   32.00
   0   0  -5   -0.50    1.10
   0   0  -5    3.30    1.60
   0   0  -6  125.99    7.50
   0   0  -7    5.50    2.60
   0   0  -7    1.50    3.50
   0   0  -8   10.50    4.80
   0  -1   0    0.10    0.20
   0  -1   0    0.40    0.20
   0   1  -1   66.59    3.20
   0   1  -1   64.89    3.30
   0  -1   1   67.79    3.20
   0  -1   1   64.59    3.40
   0   1  -2 9753.42  392.16
   0   1  -2 9888.41  392.36
   0  -1  -2 9667.33  388.26
   0  -1   2 9999.00  391.16
   0  -1  -2 9199.38  388.36
   0  -1   2 9569.34  391.86
   0   1  -3   12.20    2.00
   0   1  -3   12.00    1.60
   0  -1   3   10.40    1.80
   0  -1  -3   12.00    1.20
   0  -1  -3   11.50    1.60
   0  -1   3   14.40    1.70
   0   1  -4 1210.58   49.80
   0   1  -4 1258.37   49.40
   0  -1  -4 1194.88   49.30
   0  -1   4 1186.68   48.80
   0  -1   4 1150.18   49.00
   0  -1  -4 1201.58   48.90
   0   1  -5   30.00    3.50
   0   1  -5   23.00    2.80
   0  -1  -5   25.50    2.40
   0  -1  -5   31.90    2.90
   0   1  -6    1.00    2.20
   0  -1  -6   -1.90    1.80
   0   1  -7    1.40    2.60
   0   1  -7   -1.40    3.10
   0  -1  -7    5.60    2.40
   0  -1  -7    4.10    3.30
   0   2   0 2656.13  102.99
   0  -2   0 2387.76  103.49
   0  -2   0 2505.35  102.69
   0   2  -1  114.89    5.50
   0   2  -1  117.29    5.30
   0  -2   1  104.69    5.40
   0  -2   1  116.39    5.30
   0   2  -2  808.42   34.20
   0   2  -2  850.01   34.00
   0  -2   2  795.82   34.00
   0  -2   2  848.82   34.40
   0   2  -3   47.50    3.10
   0   2  -3   42.30    3.40
   0  -2  -3   45.40    2.10
   0  -2   3   44.70    3.10
   0  -2  -3   42.00    2.30
   0  -2   3   47.60    3.50
   0   2  -4   16.00    2.30
   0   2  -4   17.30    2.60
   0  -2  -4   20.20    2.20
   0  -2   4   14.40    2.40
   0  -2  -4   21.60    1.70
   0  -2   4   14.70    2.10
   0   2  -5    3.10    2.00
   0   2  -5    1.80    1.60
   0  -2   5    2.10    1.40
   0  -2  -5    3.20    1.20
   0  -2   5    2.90    1.40
   0  -2  -5    2.20    1.50
   0   2  -6   20.40    4.70
   0   2  -6   25.50    4.00
   0  -2  -6   10.30    2.30
   0   2  -7   25.10    4.40
   0   2  -7   31.90    5.80
   0   3   0    0.80    0.90
   0  -3   0    1.10    0.80
   0  -3   0    0.80    0.90
   0   3  -1    5.10    1.40
   0   3  -1    4.10    1.20
   0   3  -1    7.40    1.50
   0  -3   1    3.80    1.30
   0  -3   1    4.10    1.20
   0   3  -2  944.81   39.40
   0   3  -2  969.70   39.20
   0  -3   2  950.00   39.50
   0  -3   2  933.21   39.20
   0   3  -3    5.40    1.40
   0   3  -3    4.00    1.70
   0  -3   3    3.10    1.50
   0  -3   3    2.60    1.60
   0   3  -4    6.70    1.80
   0   3  -4    7.10    2.10
   0  -3  -4    4.50    0.70
   0  -3   4    9.70    2.10
   0  -3   4    9.90    2.30
   0  -3  -4    5.20    1.10
   0   3  -5    8.60    2.10
   0   3  -5   11.40    2.80
   0   3  -5    7.70    3.10
   0  -3  -5    9.90    1.70
   0  -3  -5    7.10    1.20
   0  -3   5   11.40    2.30
   0  -3   5    7.30    2.20
   0   3  -6  117.59    7.70
   0   3  -6  119.29    8.60
   0  -3   6  106.89    6.10
   0  -3  -6  112.69    6.30
   0  -3   6  108.39    6.30
   0   3  -7    8.90    3.50
   0   3  -7    2.20    3.50
   0   4   0 2293.17   92.89
   0  -4   0 2249.38   92.79
   0  -4   0 2365.46   92.89
   0   4  -1  302.77   12.80
   0   4  -1  295.27   13.00
   0  -4   1  276.77   12.80
   0  -4   1  289.27   13.00
   0   4  -2    6.90    1.80
   0   4  -2   11.20    2.30
   0   4  -2   10.10    1.80
   0  -4   2    7.60    1.70
   0  -4   2    8.50    2.00
   0   4  -3   38.60    4.30
   0   4  -3   32.00    3.50
   0   4  -3   30.30    2.90
   0  -4   3   28.60    3.50
   0  -4   3   27.20    3.10
   0   4  -4  375.06   17.00
   0   4  -4  326.37   15.70
   0   4  -4  337.57   16.20
   0  -4   4  336.47   16.40
   0  -4   4  348.07   15.90
   0   4  -5    6.50    2.40
   0   4  -5    4.30    2.20
   0   4  -5    7.20    3.20
   0  -4  -5    6.70    1.40
   0  -4   5    6.00    2.20
   0  -4   5    7.60    2.40
   0   4  -6   -1.50    2.60
   0   4  -6    5.40    2.90
   0  -4  -6    2.70    1.50
   0  -4   6    0.90    2.00
   0  -4   6    0.90    2.00
   0   4  -7    9.00    4.20
   0   4  -7    6.40    3.40
   0   5   0    1.40    1.00
   0  -5   0    0.40    0.90
   0  -5   0    1.80    1.10
   0   5  -1  260.47   11.70
   0   5  -1  259.77   11.90
   0  -5   1  280.97   12.10
   0  -5  -1  250.27   11.10
   0  -5  -1  248.48   11.10
   0  -5   1  248.68   11.70
   0   5  -2   28.90    3.50
   0   5  -2   23.60    3.00
   0   5  -2   24.90    2.80
   0  -5   2   22.90    3.10
   0  -5   2   25.30    2.90
   0   5  -3   42.80    3.80
   0   5  -3   41.60    3.90
   0   5  -3   42.70    3.50
   0  -5   3   41.90    3.80
   0  -5   3   40.10    3.70
   0   5  -4   13.30    2.80
   0   5  -4    8.10    2.10
   0   5  -4   11.80    3.10
   0  -5   4    9.10    2.30
   0  -5   4   10.10    2.70
   0   5  -5   85.69    6.40
   0   5  -5  100.49    7.30
   0  -5  -5   86.19    4.40
   0  -5   5   74.69    6.30
   0  -5   5   88.29    6.30
   0   5  -6    4.20    3.40
   0   5  -6   -1.90    2.40
   0  -5   6    0.30    2.30
   0  -5  -6    4.00    1.40
   0  -5   6    2.70    3.00
   0   5  -7    3.30    3.10
   0   5  -7   10.10    4.40
   0   6   0 1568.04   63.89
   0  -6   0 1580.34   63.79
   0  -6   0 1585.44   63.99
   0  -6   0 1523.45   63.69
   0   6  -1    8.70    2.10
   0  -6  -1    5.30    1.30
   0  -6   1    7.40    1.80
   0  -6   1    7.20    2.00
   0  -6  -1    7.50    1.30
   0   6  -2   92.89    6.10
   0   6  -2   98.79    5.70
   0  -6  -2   98.69    4.70
   0  -6   2   90.59    5.70
   0  -6   2  100.99    6.20
   0   6  -3  214.58   11.30
   0   6  -3  224.78   11.10
   0   6  -3  211.18   10.70
   0  -6   3  221.08   10.90
   0  -6   3  200.38   11.30
   0   6  -4  125.29    8.40
   0   6  -4  144.59    8.30
   0  -6   4  128.09    8.00
   0  -6  -4  136.69    5.70
   0  -6   4  130.69    8.40
   0   6  -5    8.40    3.70
   0   6  -5    8.00    3.20
   0  -6   5    9.00    2.90
   0  -6  -5    8.70    1.20
   0  -6   5   12.00    3.20
   0   6  -6   10.30    3.30
   0   6  -6   13.80    4.40
   0  -6   6    6.50    4.00
   0  -6   6   12.00    3.20
   0   6  -7   25.00    5.70
   0   7   0    4.80    1.60
   0  -7   0    4.10    1.40
   0  -7   0    2.70    1.40
   0  -7   0    1.90    1.20
   0   7  -1   21.80    3.10
   0  -7  -1   14.60    2.00
   0  -7   1   17.80    2.60
   0  -7  -1   17.50    2.10
   0  -7   1   17.50    2.80
   0   7  -2  910.61   38.20
   0   7  -2  909.11   37.80
   0  -7  -2  901.41   36.70
   0  -7   2  848.82   38.20
   0  -7  -2  872.71   36.60
   0  -7   2  906.31   37.90
   0   7  -3   80.29    5.90
   0   7  -3   87.99    5.50
   0  -7   3   81.89    6.10
   0  -7  -3   77.19    4.00
   0  -7   3   77.99    5.80
   0   7  -4   17.10    3.40
   0   7  -4   24.10    4.50
   0  -7   4   15.10    3.50
   0  -7  -4   16.30    1.40
   0  -7   4   14.90    3.30
   0   7  -5   40.60    5.20
   0   7  -5   37.60    5.80
   0  -7  -5   31.20    2.20
   0  -7   5   35.70    5.30
   0  -7   5   37.60    5.10
   0   7  -6   84.59    7.90
   0  -7   6   91.69    7.50
   0   7  -7   13.00    5.20
   0   8   0  155.38    8.10
   0  -8   0  150.08    7.70
   0  -8   0  159.98    8.00
   0  -8   0  145.99    8.00
   0   8  -1  581.54   26.40
   0  -8   1  621.04   26.50
   0  -8  -1  617.44   25.60
   0  -8   1  599.14   26.70
   0  -8  -1  613.04   25.80
   0   8  -2    5.30    2.20
   0  -8  -2    5.40    1.50
   0  -8  -2    3.70    1.20
   0  -8   2    3.10    2.00
   0  -8   2    3.50    1.90
   0   8  -3    6.40    2.80
   0  -8   3    2.50    2.20
   0  -8  -3    2.40    1.20
   0  -8   3   -0.10    1.90
   0   8  -4   68.69    6.10
   0  -8  -4   54.49    3.30
   0  -8   4   67.49    6.00
   0   8  -5   42.30    6.30
   0  -8   5   27.50    4.90
   0  -8  -5   27.90    2.30
   0   8  -6   10.90    4.40
   0  -8   6    8.10    3.80
   0   8  -7    6.40    4.50
   0  -8   7   -1.90    3.90
   0   9   0    0.20    1.80
   0  -9   0    0.00    1.30
   0  -9   0   -0.60    1.30
   0   9  -1  242.98   12.50
   0  -9   1  263.47   12.50
   0  -9  -1  249.48   11.90
   0  -9   1  243.08   12.70
   0  -9  -1  252.27   11.50
   0   9  -2  136.19    8.00
   0  -9   2  122.99    7.70
   0  -9   2  116.79    7.90
   0  -9  -2  133.19    6.80
   0  -9  -2  127.29    6.30
   0   9  -3  237.28   12.90
   0  -9   3  244.18   12.70
   0  -9  -3  233.38   10.90
   0  -9  -3  235.08   10.60
   0   9  -4   21.40    4.40
   0  -9  -4   20.40    2.30
   0  -9   4   21.50    4.20
   0   9  -5    7.80    3.80
   0  -9  -5    1.00    2.00
   0  -9   5    2.00    3.30
   0   9  -6   14.10    5.00
   0  -9   6    8.00    4.20
   0  10   0  494.35   22.00
   0 -10   0  477.25   21.80
   0 -10   0  481.35   22.00
   0  10  -1   95.79    6.50
   0 -10  -1  102.69    6.20
   0 -10  -1   95.99    5.60
   0 -10  -1  106.19    6.30
   0 -10   1   95.99    6.50
   0  10  -2    0.50    2.00
   0 -10   2   -0.50    2.00
   0 -10  -2   -0.30    1.10
   0 -10  -2   -2.80    1.40
   0  10  -3   25.20    4.60
   0 -10  -3   20.20    2.00
   0 -10  -3   18.40    2.60
   0 -10   3   25.70    4.30
   0  10  -4  228.08   13.30
   0 -10   4  222.58   13.10
   0 -10  -4  242.58   10.80
   0 -10  -4  222.08   10.20
   0  10  -5   29.90    5.80
   0 -10   5   25.40    5.00
   0  10  -6    4.70    4.10
   0 -10   6    8.70    4.50
   0 -11   0   -2.30    1.90
   0  11  -1   -2.10    2.20
   0 -11   1    0.70    2.20
   0 -11  -1    2.20    1.90
   0 -11  -1    2.40    1.90
   0  11  -2  156.78    9.20
   0 -11  -2  140.59    8.00
   0 -11   2  141.39    9.00
   0 -11  -2  136.39    7.20
   0  11  -3   -0.50    2.60
   0 -11   3    2.20    2.80
   0 -11  -3    1.90    1.90
   0 -11  -3    0.60    1.10
   0  11  -4   31.70    5.60
   0 -11  -4   39.80    3.60
   0 -11   4   34.60    5.80
   0  11  -5   17.80    5.20
   0 -11   5    7.50    4.00
   0  11  -6  113.09    9.90
   0 -11   6  108.49    9.80
   0 -12   0   72.99    6.00
   0  12  -1   47.70    5.70
   0 -12  -1   33.90    4.30
   0 -12   1   42.40    5.50
   0  12  -2   84.49    7.20
   0 -12   2  100.09    7.40
   0 -12  -2   93.29    6.30
   0  12  -3   31.50    5.40
   0 -12  -3   34.70    4.20
   0 -12   3   36.40    5.50
   0  12  -4    7.20    3.70
   0 -12   4   12.50    4.20
   0 -12  -4    5.60    2.40
   0  12  -5    7.90    4.30
   0 -12   5   -1.60    3.60
   0 -13   0   -2.70    2.50
   0  13  -1   25.10    4.50
   0 -13  -1   28.20    4.30
   0 -13   1   34.80    5.00
   0  13  -2  231.38   13.10
   0 -13   2  222.28   13.10
   0 -13  -2  224.48   12.00
   0  13  -3    9.50    3.80
   0 -13   3    6.80    3.60
   0 -13  -3    7.50    2.80
   0  13  -4   72.19    7.50
   0 -13   4   67.19    7.90
   0  13  -5    8.00    4.40
   0 -13   5   -1.80    4.20
   0 -14   0  230.98   13.00
   0  14  -1   -2.20    2.60
   0 -14  -1   -2.90    2.30
   0 -14   1    1.30    2.70
   0  14  -2    4.60    3.20
   0 -14   2    4.90    3.30
   0 -14  -2    4.70    3.00
   0  14  -3    0.90    3.00
   0 -14   3    1.90    3.20
   0 -14  -3   -1.20    2.30
   0  14  -4   52.39    7.30
   0 -14   4   37.50    6.60
   0 -15   0   -1.00    2.90
   0 -15  -1   36.80    5.50
   0 -15   1   36.60    5.70
   0  15  -2    3.50    3.40
   0 -15  -2    0.10    2.60
   0 -15   2   -2.10    3.00
   0  15  -3   10.20    4.50
   0 -15  -3   10.80    3.70
   0 -15   3   19.50    5.20
   0 -16   0  102.49    8.70
   0 -16  -1   19.20    4.70
   0 -16   1   17.70    4.70
   0  16  -2    3.00    3.20
   0 -16   2    4.20    3.80
   0 -16  -2    1.20    3.20
   1   0  -7    0.10    1.90
   1   0  -7   -1.20    2.00
   1   0  -6  181.78    9.20
   1   0  -6  166.68    8.90
   1   0  -5   -0.30    1.10
   1   0  -5   -1.10    1.10
   1   0  -4 6635.54  268.97
   1   0  -4 6771.12  268.97
   1   0  -3    0.80    1.00
   1   0  -3    1.50    0.90
  -1   0   2 6560.24  251.17
   1   0  -2 6268.77  251.57
  -1   0   2 5811.32  250.07
   1   0  -1    1.10    0.90
  -1   0   1    0.40    0.80
  -1   0   0  430.36   17.80
   1   0   0  416.36   17.80
   1   0   1    1.20    1.00
  -1   0  -1    2.30    1.40
  -1   0  -1    0.40    0.90
   1   0   1    1.60    1.20
  -1   0  -2  108.49    5.90
  -1   0  -2  108.69    5.70
   1   0   2  111.29    5.70
   1   0   2  111.29    5.10
   1   0   3    1.90    0.80
  -1   0  -3   -1.70    1.20
   1   0   3    1.40    1.10
  -1   0  -3    1.20    1.40
  -1   0  -4  445.06   20.10
  -1   0  -4  445.36   20.10
  -1   0  -5    8.50    2.70
  -1   0  -5   10.80    2.70
  -1   0  -6    6.60    3.20
  -1   0  -6    5.20    2.50
  -1   0  -7    2.50    2.70
  -1   0  -7    1.10    3.20
   1  -1  -7   11.00    2.60
   1   1  -6 1321.67   53.29
   1   1  -6 1335.97   53.59
   1  -1  -6 1262.07   52.99
   1  -1  -6 1210.88   52.69
   1   1  -5    5.40    1.80
   1   1  -5    4.80    1.60
   1  -1  -5    4.20    1.40
   1  -1  -5    6.10    1.60
   1   1  -4  370.86   15.90
   1   1  -4  387.26   16.00
   1  -1  -4  346.07   15.40
  -1  -1   4  345.17   15.30
   1  -1  -4  366.96   15.30
  -1  -1   4  340.97   15.30
   1   1  -3   86.79    4.70
   1   1  -3   86.29    4.60
  -1  -1   3   82.99    4.50
  -1  -1   3   79.59    4.60
   1  -1  -3   85.69    4.20
   1  -1  -3   84.59    4.00
   1   1  -2 3555.94  131.29
  -1  -1   2 3222.58  132.09
   1  -1  -2 3128.69  130.69
  -1  -1   2 3132.09  131.19
   1   1  -1    2.20    1.20
  -1   1   1    3.10    0.80
   1  -1  -1    2.60    1.00
  -1  -1   1    2.60    1.10
   1   1   0 1688.83   67.19
  -1   1   0 1598.14   67.19
  -1  -1   0 1638.64   67.19
   1  -1   0 1718.93   67.39
  -1   1  -1  386.16   16.70
   1   1   1  394.36   16.20
  -1   1  -1  374.86   16.40
   1   1   1  394.36   16.00
   1  -1   1  382.36   16.80
   1  -1   1  384.86   16.40
  -1  -1  -1  394.46   16.00
  -1  -1  -1  377.16   16.40
  -1   1  -2   33.40    2.90
   1   1   2   35.60    1.80
   1   1   2   34.00    2.10
  -1   1  -2   38.50    3.10
   1  -1   2   38.00    3.10
   1  -1   2   38.40    2.40
  -1  -1  -2   33.20    2.80
  -1  -1  -2   34.90    2.50
  -1   1  -3   16.30    2.80
  -1   1  -3   14.80    2.50
   1  -1   3   14.30    2.30
  -1  -1  -3   13.40    2.30
   1  -1   3   15.50    1.80
  -1  -1  -3   18.90    2.50
  -1   1  -4   90.69    6.00
  -1   1  -4   86.79    5.80
   1  -1   4   80.89    5.00
  -1  -1  -4   88.79    5.50
   1  -1   4   91.39    4.70
  -1  -1  -4   79.59    5.50
  -1   1  -5   90.19    6.40
  -1   1  -5   82.69    6.60
  -1  -1  -5   93.19    6.40
  -1  -1  -5   88.59    6.10
  -1   1  -6  100.19    7.90
  -1   1  -6  104.69    7.30
  -1  -1  -6   97.79    7.00
  -1  -1  -6  119.29    7.60
  -1   1  -7   16.40    4.50
  -1   1  -7   13.70    3.60
  -1  -1  -7   15.40    4.00
   1  -2  -7    0.50    1.70
   1   2  -5   57.39    4.40
   1   2  -5   61.39    4.20
   1  -2  -5   51.49    3.30
  -1  -2   5   51.39    3.70
   1  -2  -5   52.19    3.30
  -1  -2   5   52.99    3.80
   1   2  -4  353.16   14.90
   1   2  -4  342.77   14.70
   1  -2  -4  298.27   13.70
  -1  -2   4  336.47   14.70
  -1  -2   4  338.97   14.70
   1  -2  -4  295.67   13.60
   1   2  -3    5.30    1.60
   1  -2  -3    5.60    0.70
  -1  -2   3    7.60    1.80
  -1  -2   3    3.80    1.40
   1  -2  -3    5.30    0.60
   1   2  -2  895.21   34.80
  -1  -2   2  786.12   34.80
  -1  -2   2  836.42   34.60
  -1   2   1  239.48    9.90
   1   2  -1  231.18   10.50
   1  -2  -1  243.68   10.10
  -1  -2   1  231.38   10.60
   1   2   0  371.26   14.80
  -1   2   0  339.37   15.00
   1  -2   0  327.27   15.10
  -1  -2   0  366.86   15.00
   1  -2   0  347.17   15.00
  -1   2  -1   14.70    2.00
  -1   2  -1   14.10    2.30
   1   2   1   12.70    1.20
  -1  -2  -1   14.00    1.70
   1  -2   1   15.00    2.10
   1  -2   1   14.60    2.20
  -1   2  -2   53.99    3.80
  -1   2  -2   55.09    3.80
  -1  -2  -2   52.19    3.30
  -1  -2  -2   50.99    2.90
   1  -2   2   52.79    3.30
   1  -2   2   52.09    4.00
  -1   2  -3  408.26   18.80
  -1   2  -3  442.36   18.90
   1  -2   3  417.86   17.90
  -1  -2  -3  417.96   18.10
   1  -2   3  409.56   18.70
  -1  -2  -3  395.66   17.90
  -1   2  -4    2.20    2.00
  -1   2  -4    1.90    2.10
  -1  -2  -4    0.50    1.30
   1  -2   4    5.60    1.50
   1  -2   4    2.00    1.60
  -1  -2  -4    1.80    1.60
  -1   2  -5   45.30    5.00
  -1   2  -5   51.39    6.00
  -1  -2  -5   46.00    5.00
   1  -2   5   46.10    3.80
  -1  -2  -5   37.40    4.20
   1  -2   5   42.70    3.40
  -1   2  -6   11.10    3.20
  -1   2  -6   14.80    4.10
  -1  -2  -6   10.20    3.20
  -1  -2  -6   12.00    2.70
  -1   2  -7    6.50    4.40
  -1   2  -7   13.80    3.80
  -1  -2  -7   11.90    3.70
   1   3  -8    9.00    4.80
  -1  -3   6   37.20    3.40
   1  -3  -6   46.90    3.20
  -1  -3   6   43.20    3.80
   1  -3  -6   43.40    3.00
   1   3  -5    2.40    1.70
   1   3  -5    3.00    1.80
  -1  -3   5    1.20    1.50
   1  -3  -5    1.80    0.90
   1  -3  -5    1.00    0.80
  -1  -3   5    0.70    1.70
   1   3  -4   48.60    3.60
  -1  -3   4   51.49    4.00
  -1  -3   4   47.60    3.80
   1   3  -3   25.40    2.90
  -1  -3   3   24.60    2.80
  -1  -3   3   23.70    2.90
   1   3  -2 1367.26   55.99
  -1  -3   2 1357.96   55.99
  -1  -3   2 1377.06   56.19
   1   3  -1    0.00    1.00
   1  -3  -1    0.40    0.80
  -1  -3   1    1.90    1.30
  -1   3   0   34.30    2.70
   1   3   0   37.40    2.40
   1  -3   0   33.10    2.70
  -1  -3   0   36.60    2.60
   1  -3   0   36.70    2.70
  -1   3  -1   83.79    4.80
  -1   3  -1   90.39    4.80
   1   3   1   76.89    3.80
   1  -3   1   93.79    5.10
  -1  -3  -1   75.59    4.20
   1  -3   1   82.89    4.70
  -1   3  -2  461.45   21.30
  -1   3  -2  477.15   21.30
  -1  -3  -2  482.15   20.00
  -1  -3  -2  496.65   20.40
   1  -3   2  491.55   20.80
   1  -3   2  502.45   21.60
  -1   3  -3   39.60    3.70
  -1   3  -3   38.90    3.60
  -1  -3  -3   33.20    2.80
   1  -3   3   39.30    3.10
   1  -3   3   38.70    3.60
  -1  -3  -3   35.80    2.70
  -1   3  -4    8.40    2.60
  -1   3  -4    7.80    2.60
   1  -3   4    5.40    2.10
   1  -3   4    6.50    1.90
  -1  -3  -4    5.20    1.70
  -1  -3  -4    2.00    1.60
  -1   3  -5    0.30    2.40
  -1   3  -5    6.20    2.60
   1  -3   5    3.10    1.90
   1  -3   5    4.90    2.00
  -1  -3  -5    0.30    1.90
  -1  -3  -5    2.80    1.90
  -1   3  -6   41.90    5.60
  -1   3  -6   53.69    6.80
  -1  -3  -6   53.49    4.80
  -1  -3  -6   46.10    4.40
   1  -3   6   38.80    3.60
  -1   3  -7    9.00    4.00
  -1   3  -7    9.70    3.70
  -1  -3  -7   11.20    3.40
   1   4  -8   36.90    6.80
  -1  -4   6    1.90    1.90
   1  -4  -6    2.60    1.10
   1  -4  -6    2.50    1.10
  -1  -4   6    3.90    2.20
   1   4  -5   29.10    3.60
   1  -4  -5   32.90    1.90
  -1  -4   5   28.30    3.80
  -1  -4   5   31.30    3.90
   1  -4  -5   33.10    1.90
   1   4  -4  500.65   20.80
  -1  -4   4  450.45   20.90
  -1  -4   4  446.36   20.90
   1   4  -3   19.10    2.60
  -1  -4   3   19.60    2.80
  -1  -4   3   17.10    2.70
   1   4  -2    3.60    1.40
  -1  -4   2    4.70    1.80
  -1  -4   2    3.60    1.40
   1   4  -1   83.69    4.80
  -1  -4   1   86.19    5.00
   1  -4  -1   97.59    4.60
   1   4   0 1206.08   46.80
  -1   4   0 1077.19   47.00
   1  -4   0 1170.58   47.30
  -1  -4   0 1143.49   47.00
   1  -4   0 1138.79   47.20
  -1   4  -1   72.49    4.40
   1   4   1   66.49    3.20
  -1   4  -1   65.69    4.30
   1  -4   1   62.29    4.40
   1  -4   1   67.99    4.20
  -1  -4  -1   65.39    3.70
   1  -4   1   64.29    3.90
  -1   4  -2    6.00    2.10
  -1   4  -2    5.70    1.90
  -1  -4  -2    7.70    1.30
   1  -4   2    6.80    2.10
  -1  -4  -2    7.80    0.80
   1  -4   2    7.30    1.70
  -1   4  -3  231.08   12.00
  -1   4  -3  242.48   12.30
   1  -4   3  229.28   12.30
   1  -4   3  249.97   11.60
  -1  -4  -3  251.07   10.90
  -1   4  -4  123.29    8.10
  -1   4  -4  137.09    8.00
   1  -4   4  130.19    8.20
   1  -4   4  138.39    7.40
  -1  -4  -4  122.09    6.60
  -1  -4  -4  126.29    6.80
  -1   4  -5    7.40    2.90
  -1   4  -5   10.70    3.60
   1  -4   5    4.60    2.40
   1  -4   5    7.40    2.40
  -1  -4  -5    5.30    2.10
  -1  -4  -5    6.80    2.20
  -1   4  -6   17.00    4.60
  -1   4  -6   11.80    3.80
  -1  -4  -6   16.70    2.80
  -1  -4  -6   12.70    3.10
   1  -4   6    9.60    2.60
  -1   4  -7   45.50    6.90
  -1   4  -7   31.60    5.50
  -1  -4  -7   36.60    6.00
   1   5  -7   16.50    5.30
  -1  -5   6    3.00    2.20
   1  -5  -6    0.40    0.80
   1  -5  -6    2.80    0.90
  -1  -5   6    4.20    2.60
  -1  -5   5    9.90    3.00
  -1  -5   5   15.10    3.10
   1   5  -4   11.80    2.40
  -1  -5   4   11.80    2.70
  -1  -5   4   12.40    2.60
   1   5  -3  241.58   12.10
  -1  -5   3  261.47   12.60
  -1  -5   3  274.47   12.70
   1   5  -2   30.70    3.20
  -1  -5   2   28.40    3.20
   1  -5  -2   20.90    1.70
  -1  -5   2   26.00    3.00
   1   5  -1    0.40    1.00
  -1  -5   1    1.30    1.30
   1  -5  -1    2.30    1.10
  -1   5   0   26.00    3.10
  -1   5   0   23.70    2.20
   1   5   0   23.60    1.80
   1   5   0   20.10    2.00
  -1  -5   0   26.00    2.70
   1  -5   0   23.20    2.40
   1  -5   0   27.30    3.00
   1   5   1 1051.29   42.40
  -1   5  -1 1051.79   43.80
  -1   5  -1 1118.59   43.80
   1  -5   1 1020.70   43.90
  -1  -5  -1 1037.50   42.90
   1  -5   1  983.10   43.20
   1  -5   1 1059.99   43.70
  -1   5  -2    0.00    1.50
  -1   5  -2    1.20    1.60
   1  -5   2    1.40    1.40
   1  -5   2    2.10    1.70
  -1  -5  -2    2.70    1.10
  -1   5  -3    8.30    2.40
  -1   5  -3    9.70    2.70
  -1  -5  -3    6.70    1.50
   1  -5   3    6.80    2.50
   1  -5   3    7.20    2.20
  -1   5  -4   60.49    5.30
  -1   5  -4   58.19    5.40
   1  -5   4   43.60    5.30
  -1  -5  -4   49.99    3.40
   1  -5   4   57.69    4.60
  -1  -5  -4   50.29    3.60
  -1   5  -5  226.88   11.80
  -1   5  -5  193.98   11.80
  -1  -5  -5  199.18    9.70
  -1  -5  -5  191.38   10.00
   1  -5   5  197.98   10.60
   1  -5   5  186.68   11.40
  -1   5  -6   21.20    4.40
  -1   5  -6   18.80    5.00
  -1  -5  -6   11.30    2.80
   1  -5   6   13.50    3.20
  -1   5  -7    8.10    4.30
  -1   5  -7    2.20    3.60
   1   6  -7   11.40    4.90
  -1  -6   7    4.30    3.40
   1   6  -6   25.20    5.60
  -1  -6   6   27.30    4.40
  -1  -6   6   19.30    3.90
  -1  -6   5   12.20    3.00
  -1  -6   5   14.10    3.50
   1   6  -4  326.97   15.30
  -1  -6   4  314.77   15.80
   1   6  -3    5.20    1.80
  -1  -6   3    9.70    2.30
  -1  -6   3   10.40    2.50
   1   6  -2   39.50    3.20
  -1  -6   2   35.00    3.30
   1  -6  -2   31.60    2.40
  -1  -6   2   34.90    3.40
   1   6  -1  856.01   36.50
   1   6  -1  865.51   36.50
  -1  -6   1  880.31   36.90
   1  -6  -1  865.51   36.60
   1  -6  -1  903.61   36.40
  -1   6   0  426.76   17.80
   1   6   0  414.76   17.20
   1   6   0  411.06   17.40
   1  -6   0  404.96   18.10
  -1  -6   0  380.06   17.70
   1  -6   0  387.16   17.80
  -1   6  -1   58.79    4.50
  -1   6  -1   60.29    4.30
   1  -6   1   60.29    4.60
   1  -6   1   54.99    3.90
  -1  -6  -1   62.69    3.90
   1  -6   1   54.89    4.20
  -1   6  -2   16.40    3.10
  -1   6  -2   17.10    2.90
  -1  -6  -2   15.90    2.10
   1  -6   2   15.30    3.10
   1  -6   2   15.60    2.70
  -1   6  -3  195.98   10.70
  -1   6  -3  195.48   10.50
   1  -6   3  198.48   10.10
   1  -6   3  195.38   11.00
  -1  -6  -3  177.38    8.80
  -1   6  -4   82.49    6.80
  -1   6  -4   87.79    6.90
  -1  -6  -4   95.49    5.20
  -1  -6  -4   89.29    4.60
   1  -6   4   87.89    7.00
   1  -6   4   89.29    6.30
  -1   6  -5   10.10    3.80
  -1   6  -5   15.50    3.70
   1  -6   5    9.30    2.90
   1  -6   5    7.10    2.80
  -1  -6  -5    8.90    2.20
  -1   6  -6   19.00    4.80
  -1   6  -6   16.80    4.40
   1  -6   6    9.80    3.50
  -1  -6  -6   10.30    2.60
  -1   6  -7   19.50    5.50
  -1   6  -7   26.20    5.40
   1   7  -7   32.20    6.40
  -1  -7   7   21.80    4.40
   1   7  -6  169.68   11.20
  -1  -7   6  137.89   10.40
  -1  -7   6  159.08   10.10
   1   7  -5   30.80    5.30
  -1  -7   5   26.40    4.40
  -1  -7   5   30.30    4.90
   1   7  -4    2.80    2.60
  -1  -7   4    6.70    2.90
  -1  -7   4    1.40    1.90
   1   7  -3    5.90    1.90
   1   7  -3   15.20    3.20
  -1  -7   3   11.10    2.80
  -1  -7   3   12.40    2.70
   1   7  -2  814.22   35.60
   1   7  -2  845.82   35.30
   1  -7  -2  821.12   34.50
  -1  -7   2  813.62   35.60
  -1  -7   2  866.41   35.80
   1   7  -1   11.50    2.30
   1   7  -1    7.40    1.80
   1  -7  -1   11.10    2.00
   1  -7  -1   10.20    2.10
  -1  -7   1    8.00    2.10
   1   7   0    1.00    1.10
   1   7   0    0.00    1.00
   1  -7   0    1.20    1.60
  -1  -7   0    1.20    1.30
   1  -7   0    0.50    1.30
   1  -7   0    1.50    1.30
  -1   7  -1   38.40    3.80
  -1   7  -1   40.10    3.70
  -1  -7  -1   34.70    3.10
   1  -7   1   40.50    4.50
   1  -7   1   36.40    3.40
   1  -7   1   41.00    3.50
  -1   7  -2  526.35   23.80
  -1   7  -2  546.95   24.10
   1  -7   2  521.05   23.40
  -1  -7  -2  546.75   22.70
   1  -7   2  510.85   24.30
  -1   7  -3   14.00    3.30
  -1   7  -3   10.60    2.80
  -1  -7  -3   10.20    1.90
   1  -7   3    9.40    2.90
   1  -7   3   18.80    3.00
  -1   7  -4    1.50    2.40
  -1   7  -4    7.60    3.40
   1  -7   4    5.50    2.80
  -1  -7  -4    4.30    1.00
   1  -7   4    2.30    2.50
  -1  -7  -4    3.90    1.70
  -1   7  -5    8.70    3.80
  -1   7  -5    7.10    3.30
  -1  -7  -5   13.20    2.50
   1  -7   5    6.30    3.00
  -1  -7  -5   12.40    1.90
  -1   7  -6   25.50    5.80
  -1   7  -6   29.70    5.30
   1  -7   6   19.10    4.20
   1   8  -7    0.40    3.90
  -1  -8   7   -3.50    3.20
   1   8  -6    8.70    4.10
  -1  -8   6    1.40    3.20
   1   8  -5  132.49    9.50
  -1  -8   5  130.89    9.30
   1   8  -4   88.79    6.90
  -1  -8   4   82.39    6.80
   1   8  -3  171.78   10.70
   1   8  -3  195.88   10.80
  -1  -8   3  198.88   10.80
  -1  -8   3  213.08   11.20
   1   8  -2   10.00    2.60
   1   8  -2    9.80    2.30
  -1  -8   2   10.90    2.70
  -1  -8   2   11.70    2.60
   1  -8  -2   12.10    2.00
   1  -8  -2   10.00    2.30
   1   8  -1   19.90    2.90
   1   8  -1   18.50    2.70
   1  -8  -1   21.10    2.90
  -1  -8   1   19.50    3.10
   1  -8  -1   20.70    3.00
   1   8   0  219.28   10.70
   1   8   0  231.88   10.80
   1  -8   0  240.08   11.20
   1  -8   0  236.28   11.80
  -1  -8   0  220.28   11.30
   1  -8   0  248.38   11.50
  -1   8  -1    0.50    1.80
   1  -8   1    2.00    1.70
  -1  -8  -1    0.20    1.20
   1  -8   1   -0.60    1.40
   1  -8   1    2.40    2.00
  -1   8  -2    7.70    2.80
  -1   8  -2    7.20    2.60
   1  -8   2    7.40    2.20
   1  -8   2    8.80    2.90
  -1  -8  -2    8.70    2.00
  -1   8  -3  195.58   11.10
  -1   8  -3  197.38   11.40
  -1  -8  -3  197.28    9.70
   1  -8   3  212.38   11.00
  -1   8  -4   68.69    6.10
  -1   8  -4   58.89    6.10
  -1  -8  -4   54.49    4.10
   1  -8   4   58.79    5.70
  -1   8  -5   42.40    6.50
  -1   8  -5   30.50    5.50
  -1  -8  -5   32.40    3.60
   1  -8   5   24.70    4.40
  -1   8  -6   -0.90    3.10
  -1   8  -6    7.80    4.30
   1  -8   6    0.70    3.10
   1   9  -6   25.00    5.70
  -1  -9   6    8.00    4.00
   1   9  -5   93.89    7.90
  -1  -9   5   92.69    7.80
   1   9  -4   12.30    3.50
  -1  -9   4   14.10    4.00
   1   9  -3  100.79    7.00
  -1  -9   3   92.59    7.00
   1  -9  -3   97.89    5.50
   1   9  -2  128.99    7.40
   1   9  -2  129.49    7.70
   1  -9  -2  131.59    7.10
  -1  -9   2  122.49    8.00
  -1  -9   2  124.59    7.80
   1  -9  -2  135.99    7.10
   1   9  -1  108.69    6.20
   1   9  -1  103.39    6.10
   1  -9  -1  101.59    6.30
   1  -9  -1   94.29    5.90
   1  -9  -1  100.99    6.00
  -1  -9   1  114.39    6.70
  -1  -9   1   97.69    6.60
   1   9   0   25.00    3.10
  -1  -9   0   21.00    3.30
   1  -9   0   22.80    3.60
   1  -9   0   21.30    3.00
   1  -9   0   22.10    3.30
  -1   9  -1  191.88   10.60
   1  -9   1  194.18   10.30
   1  -9   1  184.88   10.70
   1  -9   1  203.98   10.20
  -1  -9  -1  189.38    9.80
  -1   9  -2   25.50    4.30
  -1   9  -2   22.80    3.70
   1  -9   2   21.90    3.50
  -1  -9  -2   25.00    3.10
  -1   9  -3   49.70    6.00
  -1   9  -3   29.70    4.60
  -1  -9  -3   36.80    3.50
   1  -9   3   39.90    5.00
  -1   9  -4    4.30    3.20
  -1   9  -4    9.30    3.20
   1  -9   4    8.40    3.00
  -1  -9  -4    1.40    1.80
  -1   9  -5   34.70    6.00
  -1   9  -5   28.10    5.10
   1  -9   5   21.00    4.50
  -1   9  -6   16.90    5.30
  -1   9  -6   14.80    4.70
   1  -9   6    7.50    4.20
   1  10  -6   12.10    4.60
  -1 -10   6    4.40    4.20
   1  10  -5   16.90    5.00
  -1 -10   5   12.60    4.60
   1  10  -4  229.28   13.00
   1 -10  -4  225.48   10.60
  -1 -10   4  222.78   13.10
   1 -10  -4  219.58   10.40
   1  10  -3   60.09    5.60
   1 -10  -3   58.99    4.10
   1 -10  -3   57.19    4.30
   1 -10  -3   58.59    4.20
  -1 -10   3   67.29    7.00
   1  10  -2   30.00    4.30
   1 -10  -2   32.40    3.50
   1 -10  -2   30.00    3.60
   1 -10  -2   29.60    3.50
  -1 -10   2   22.80    4.10
   1  10  -1   29.00    3.70
   1 -10  -1   28.00    3.60
   1 -10  -1   31.90    3.90
   1 -10  -1   36.80    3.90
  -1 -10   1   28.10    4.20
   1  10   0  596.64   25.90
   1 -10   0  626.44   26.40
  -1 -10   0  634.84   26.70
   1 -10   0  562.54   26.30
   1 -10   0  571.64   26.90
  -1  10  -1   66.59    6.00
  -1 -10  -1   74.89    5.30
   1 -10   1   70.59    5.40
   1 -10   1   69.59    5.30
  -1  10  -2    4.60    2.70
  -1 -10  -2    2.20    1.80
   1 -10   2    1.30    2.10
  -1  10  -3    4.60    3.20
  -1 -10  -3   -2.30    1.70
   1 -10   3    0.60    2.40
  -1  10  -4  171.48   11.50
  -1 -10  -4  177.68    9.50
   1 -10   4  193.08   11.20
  -1  10  -5   18.60    5.00
   1 -10   5    9.50    3.70
  -1  10  -6    3.40    4.20
   1 -10   6    0.40    4.00
   1  11  -6   15.40    5.00
  -1 -11   6   13.20    4.80
   1  11  -5    5.20    3.50
  -1 -11   5    2.90    3.90
   1  11  -4   51.69    6.80
   1 -11  -4   45.40    3.80
  -1 -11   4   49.80    6.50
   1 -11  -4   44.10    3.80
   1  11  -3   28.80    4.80
  -1 -11   3   18.40    4.30
   1 -11  -3   18.90    3.00
   1 -11  -3   24.10    3.10
   1 -11  -3   19.50    3.00
   1  11  -2  266.07   14.20
   1 -11  -2  279.17   13.40
   1 -11  -2  281.57   13.80
  -1 -11   2  284.27   14.80
   1 -11  -2  288.67   13.50
   1  11  -1   10.80    2.70
   1 -11  -1   10.70    2.50
  -1 -11   1   10.20    3.10
   1 -11  -1    7.20    2.60
   1 -11  -1    7.10    2.30
   1  11   0  103.19    6.40
   1 -11   0   96.89    6.70
  -1 -11   0  102.19    7.10
   1 -11   0  103.29    6.60
  -1  11  -1   76.19    6.50
  -1 -11  -1   77.59    5.80
   1 -11   1   68.69    5.70
  -1  11  -2  379.36   19.80
  -1 -11  -2  405.06   18.60
   1 -11   2  410.36   19.40
  -1  11  -3   10.10    3.90
  -1 -11  -3   12.70    2.80
   1 -11   3    7.20    3.10
  -1  11  -4   10.50    4.20
   1 -11   4   12.10    4.30
  -1 -11  -4   11.40    2.90
  -1  11  -5  106.09    9.10
   1 -11   5   89.89    8.50
   1  12  -5   15.80    4.90
  -1 -12   5   19.70    5.20
   1  12  -4   22.80    5.10
  -1 -12   4    5.60    3.70
   1 -12  -4   23.40    3.10
   1  12  -3   13.30    3.90
   1 -12  -3    7.70    2.20
   1 -12  -3    7.90    2.40
  -1 -12   3    5.30    3.80
   1 -12  -3    5.70    2.30
   1  12  -2  140.99    8.90
   1 -12  -2  131.09    7.80
   1 -12  -2  141.39    8.10
  -1 -12   2  159.58    9.80
   1  12  -1  119.49    7.50
  -1 -12   1  114.59    8.00
   1 -12  -1  109.59    7.00
   1 -12  -1  110.49    7.20
   1 -12   0   65.39    5.70
   1 -12   0   77.09    5.80
  -1 -12   0   79.79    6.20
  -1  12  -1   -3.20    2.60
   1 -12   1   -1.10    2.40
  -1 -12  -1   -0.80    1.90
  -1  12  -2   61.29    7.60
  -1 -12  -2   52.99    5.10
   1 -12   2   52.69    6.10
  -1  12  -3  159.48   10.90
   1 -12   3  159.18   10.40
  -1 -12  -3  150.08    9.00
  -1  12  -4   70.79    8.70
   1 -12   4   59.79    7.10
  -1  12  -5   -1.20    3.90
   1 -12   5   -5.10    3.40
   1  13  -5    5.20    4.00
  -1 -13   5    4.20    4.70
   1  13  -4    7.60    3.80
  -1 -13   4    6.20    4.00
   1  13  -3    5.50    3.30
   1 -13  -3   10.70    2.80
  -1 -13   3    9.20    4.00
   1  13  -2  102.59    7.40
   1 -13  -2  106.79    6.90
  -1 -13   2   94.09    8.20
   1 -13  -2  100.79    6.50
   1  13  -1    6.70    2.90
   1 -13  -1    3.50    2.30
  -1 -13   1    5.10    3.20
   1 -13  -1    8.30    2.70
  -1 -13   0   64.59    6.80
   1 -13   0   55.89    6.00
  -1 -13  -1   30.40    4.70
   1 -13   1   29.50    5.00
  -1  13  -2    6.10    3.70
  -1 -13  -2    3.10    2.70
   1 -13   2    4.10    3.00
  -1  13  -3    2.00    3.50
  -1 -13  -3    0.20    2.50
   1 -13   3    1.70    3.10
  -1  13  -4   -0.10    3.60
   1 -13   4    5.70    4.10
   1  14  -4   90.09    7.90
  -1 -14   4   76.49    9.30
   1  14  -3    0.80    3.10
  -1 -14   3   -1.10    3.20
   1 -14  -3   -1.80    2.20
   1  14  -2   -2.10    2.40
  -1 -14   2   -1.60    2.70
   1 -14  -2    0.60    2.30
   1  14  -1   30.80    4.80
   1 -14  -1   33.30    4.90
  -1 -14   1   33.40    5.40
  -1 -14   0   89.29    7.30
   1 -14   0   81.69    6.90
   1 -14   1   11.30    3.80
  -1 -14  -1    8.00    3.40
  -1  14  -2   -0.90    3.10
   1 -14   2    2.50    3.20
  -1 -14  -2    4.60    3.00
  -1  14  -3    4.20    3.90
   1 -14   3    9.10    3.70
  -1 -14  -3    4.50    3.20
  -1  14  -4   16.70    5.70
   1 -14   4   18.00    4.90
   1  15  -3   82.69    7.50
  -1 -15   3   88.69    9.90
   1 -15  -3   86.49    6.80
   1  15  -2    1.90    3.00
  -1 -15   2   -0.40    3.80
   1 -15  -2    1.10    2.70
   1  15  -1   12.10    3.60
   1 -15  -1    9.70    3.50
  -1 -15   1   12.00    4.20
  -1 -15   0   17.40    4.60
   1 -15   0   21.00    4.70
  -1 -15  -1  148.39    9.80
   1 -15   1  135.79   10.00
  -1  15  -2    4.80    3.90
   1 -15   2    3.80    3.50
  -1 -15  -2    0.70    3.20
  -1  15  -3   29.60    6.20
   1 -15   3   46.90    7.00
   1  16  -2   -2.10    2.60
   1 -16  -2   -2.70    2.60
  -1 -16   2   -2.50    3.50
  -1 -16   1  125.39   10.30
   1 -16  -1  137.89    9.60
  -1 -16   0   75.59    8.50
   1 -16   0   77.39    7.50
   1 -16   1   27.50    5.60
  -1 -16  -1   28.50    5.50
   2   0  -7    1.20    2.00
   2   0  -6  124.89    7.10
   2   0  -5   -0.60    1.20
  -2   0   4   70.19    3.40
   2   0  -4   76.49    4.80
  -2   0   3    3.10    1.00
   2   0  -3    2.10    1.30
  -2   0   3    2.10    1.20
   2   0  -2 1335.17   52.69
  -2   0   2 1220.28   52.49
  -2   0   1    1.20    1.40
   2   0  -1    2.80    1.70
   2   0   0 4153.78  161.28
  -2   0   0 3830.62  161.18
  -2   0  -1    8.10    2.20
   2   0   1    6.80    2.10
   2   0   1    7.80    1.50
   2   0   2    1.50    1.20
  -2   0  -2    0.50    1.60
   2   0   2    0.80    1.50
  -2   0  -2    2.70    1.60
  -2   0  -3    3.10    1.90
   2   0   3    4.40    1.20
  -2   0  -3    0.30    1.60
   2   0   3    4.10    1.70
   2   0   4   71.69    4.00
  -2   0  -4   80.89    6.10
  -2   0  -4   79.19    5.40
   2   0   4   71.09    4.40
  -2   0  -5    0.50    2.70
  -2   0  -5    7.60    3.00
  -2   0  -6   33.70    5.40
  -2   0  -6   36.90    5.30
  -2   0  -7   -5.30    4.00
  -2   0  -7   -2.40    2.60
   2  -1  -7   15.00    2.80
   2   1  -6   48.20    4.40
   2  -1  -6   52.09    4.10
   2   1  -5    5.70    1.90
  -2  -1   5    5.30    1.10
   2  -1  -5    4.30    1.60
  -2  -1   5    3.70    0.90
   2   1  -4   16.00    2.50
  -2  -1   4   14.20    1.90
  -2  -1   4   16.50    2.30
   2  -1  -4   17.40    2.40
   2   1  -3  449.16   19.90
  -2   1   3  466.65   18.60
  -2   1   3  455.05   18.50
  -2  -1   3  478.95   19.30
   2  -1  -3  437.26   19.60
  -2  -1   3  425.86   19.70
  -2   1   2  622.04   25.70
   2   1  -2  626.84   26.20
  -2  -1   2  606.54   26.20
   2  -1  -2  594.34   26.00
  -2   1   1    3.70    1.60
   2   1  -1    4.80    1.70
   2  -1  -1    5.90    1.80
  -2  -1   1    1.60    1.50
  -2   1   0  332.97   14.70
   2   1   0  323.27   14.50
   2  -1   0  321.47   14.70
  -2  -1   0  304.07   14.60
  -2   1  -1  757.52   33.40
   2   1   1  795.02   33.10
   2   1   1  821.52   32.50
   2  -1   1  746.23   33.40
   2  -1   1  806.12   32.90
  -2  -1  -1  781.52   33.40
  -2   1  -2  515.35   21.90
   2   1   2  485.25   21.20
  -2   1  -2  523.75   22.50
   2   1   2  487.65   21.50
  -2  -1  -2  489.95   22.20
   2  -1   2  513.95   22.30
  -2  -1  -2  486.25   21.30
   2  -1   2  493.15   21.70
   2   1   3   83.19    4.10
  -2   1  -3   76.69    5.40
  -2   1  -3   71.49    5.60
   2   1   3   74.59    4.50
  -2  -1  -3   74.89    5.70
  -2  -1  -3   85.09    5.00
   2  -1   3   83.59    5.60
   2  -1   3   79.99    4.60
  -2   1  -4    4.50    2.40
  -2   1  -4    4.20    2.20
   2  -1   4    1.30    1.60
  -2  -1  -4    4.00    2.00
   2  -1   4    5.30    1.60
  -2  -1  -4    6.10    2.50
  -2   1  -5   20.20    4.00
  -2   1  -5   17.50    4.00
  -2  -1  -5   16.30    3.80
  -2  -1  -5   25.10    3.80
   2  -1   5   14.10    2.10
   2  -1   5   15.60    2.00
  -2   1  -6    4.70    3.20
  -2   1  -6    4.00    3.00
  -2  -1  -6   -0.20    2.40
  -2  -1  -6    9.10    3.20
  -2   1  -7    1.70    3.30
  -2   1  -7    2.50    3.10
  -2  -1  -7    2.00    3.00
   2   2  -6   44.80    4.20
  -2  -2   6   33.30    2.00
   2  -2  -6   42.00    3.50
   2   2  -5  123.79    7.10
  -2  -2   5  118.39    6.80
  -2  -2   5  121.99    6.50
   2  -2  -5  123.59    6.50
   2   2  -4   48.80    4.00
  -2  -2   4   50.89    4.10
   2  -2  -4   55.59    3.60
  -2  -2   4   56.39    3.70
   2   2  -3    3.20    1.70
  -2  -2   3    6.40    2.00
  -2  -2   3    5.40    1.40
   2  -2  -3    5.00    1.50
   2   2  -2   66.69    4.30
  -2   2   2   62.79    3.50
   2  -2  -2   63.59    4.00
  -2  -2   2   65.39    4.40
  -2   2   1 1483.75   59.99
   2   2  -1 1444.86   60.19
  -2  -2   1 1502.25   60.49
   2  -2  -1 1436.16   60.19
   2   2   0   80.19    4.50
  -2   2   0   74.09    4.60
   2  -2   0   64.29    4.70
  -2  -2   0   68.09    4.70
   2   2   1  229.18   10.80
   2   2   1  237.48   10.20
  -2   2  -1  233.08   11.50
  -2   2  -1  236.18   11.20
   2  -2   1  231.18   11.60
   2  -2   1  234.58   10.90
  -2  -2  -1  230.38   11.20
  -2   2  -2   76.19    5.10
   2   2   2   77.19    4.40
  -2   2  -2   74.89    5.40
   2  -2   2   75.69    5.60
  -2  -2  -2   76.49    5.30
  -2  -2  -2   88.59    4.40
   2  -2   2   77.39    5.00
   2   2   3  136.59    6.40
  -2   2  -3  148.29    8.30
   2   2   3  143.99    6.30
  -2   2  -3  153.48    8.70
  -2  -2  -3  140.99    8.30
  -2  -2  -3  153.68    7.50
   2  -2   3  154.58    8.70
   2  -2   3  155.38    7.60
  -2   2  -4   19.60    3.60
  -2   2  -4   19.50    3.80
   2  -2   4   20.20    2.80
  -2  -2  -4   25.40    3.90
  -2  -2  -4   27.70    3.30
   2  -2   4   19.80    3.40
  -2   2  -5   29.70    4.90
  -2   2  -5   21.70    4.40
   2  -2   5   22.60    3.50
  -2  -2  -5   18.00    3.90
   2  -2   5   22.30    2.80
  -2  -2  -5   24.00    3.60
  -2   2  -6    6.50    3.50
  -2   2  -6   14.70    4.30
  -2  -2  -6   11.80    3.20
  -2  -2  -6   11.20    3.30
  -2   2  -7    3.90    3.50
  -2   2  -7    1.80    3.90
  -2  -2  -7    2.60    2.90
  -2  -3   6  106.29    6.50
  -2  -3   6  100.69    6.10
   2  -3  -6  109.59    5.90
   2   3  -5    4.90    2.00
  -2  -3   5    3.50    1.70
  -2  -3   5    7.60    2.40
   2  -3  -5    7.30    1.70
   2   3  -4    1.50    1.70
  -2  -3   4   -1.00    1.10
   2  -3  -4   -0.90    0.90
  -2  -3   4    0.20    1.70
   2   3  -3   39.40    3.40
  -2  -3   3   39.90    4.20
   2  -3  -3   29.50    2.50
  -2  -3   3   34.10    3.00
   2   3  -2  208.28   10.20
  -2   3   2  226.78    9.10
   2  -3  -2  204.48    9.80
  -2  -3   2  198.78   10.40
   2   3  -1   81.19    4.90
  -2   3   1   81.79    4.70
   2  -3  -1   85.19    5.00
  -2  -3   1   81.29    5.10
  -2   3   0  426.56   19.80
   2   3   0  478.75   19.60
  -2  -3   0  443.16   19.80
   2  -3   0  465.45   19.90
   2  -3   0  439.26   20.10
  -2   3  -1    1.40    1.70
   2   3   1    2.30    0.80
   2   3   1    3.40    1.30
  -2   3  -1    6.10    2.10
   2  -3   1    6.00    2.20
   2  -3   1    9.00    2.00
  -2  -3  -1    2.00    1.50
   2   3   2  471.75   19.70
  -2   3  -2  488.55   21.50
  -2   3  -2  455.55   21.10
   2  -3   2  458.25   21.70
   2  -3   2  499.15   21.10
  -2  -3  -2  453.65   20.90
  -2   3  -3   21.00    3.60
  -2   3  -3   16.60    3.10
   2  -3   3   16.90    3.40
   2  -3   3   10.70    2.10
  -2  -3  -3   11.90    1.90
  -2  -3  -3   13.20    2.80
  -2   3  -4   10.10    3.20
  -2   3  -4   13.30    3.40
   2  -3   4   16.10    3.30
   2  -3   4    9.60    2.40
  -2  -3  -4   16.60    3.30
  -2  -3  -4    6.40    1.90
  -2   3  -5    0.10    2.90
  -2   3  -5    2.50    2.90
  -2  -3  -5    7.00    2.30
   2  -3   5   -1.00    1.80
   2  -3   5    2.70    2.30
  -2  -3  -5    3.40    2.70
  -2   3  -6   19.80    4.50
  -2   3  -6   17.30    4.80
  -2  -3  -6   23.50    4.40
  -2  -3  -6   21.70    3.60
  -2   3  -7   -1.20    3.60
  -2   3  -7   -4.50    2.60
  -2  -4   6    2.90    2.00
   2  -4  -6    2.70    1.30
  -2  -4   6    0.60    2.30
   2   4  -5   54.59    4.50
  -2  -4   5   51.39    4.40
  -2  -4   5   59.19    5.20
   2  -4  -5   56.59    3.60
   2   4  -4  160.58    8.40
   2  -4  -4  143.09    7.20
  -2  -4   4  155.68    8.30
  -2  -4   4  158.58    8.80
   2   4  -3   63.79    4.40
  -2  -4   3   62.49    4.40
  -2  -4   3   65.59    4.80
   2  -4  -3   59.89    3.60
   2   4  -2  214.58   10.30
  -2   4   2  212.38    9.00
   2  -4  -2  207.08    9.80
  -2  -4   2  207.88   10.60
  -2   4   1 1210.58   47.50
   2   4  -1 1134.49   47.70
   2  -4  -1 1142.09   47.90
  -2  -4   1 1125.99   48.10
   2   4   0  783.42   32.80
  -2   4   0  797.92   33.30
   2  -4   0  759.72   33.50
  -2  -4   0  772.42   33.30
   2  -4   0  810.12   33.40
   2   4   1   20.70    1.30
  -2   4  -1   26.50    3.60
   2   4   1   22.50    2.10
  -2   4  -1   16.80    3.10
   2  -4   1   27.60    3.30
   2  -4   1   18.80    3.30
  -2  -4  -1   24.30    3.00
  -2   4  -2  112.39    7.00
   2   4   2  114.29    5.00
  -2   4  -2  106.59    6.90
   2  -4   2  113.19    6.20
   2  -4   2  103.69    6.60
   2  -4   2  117.69    7.40
  -2  -4  -2  106.19    6.40
  -2   4  -3  195.48   10.70
  -2   4  -3  189.28   10.80
   2  -4   3  186.18    9.80
  -2  -4  -3  206.88    8.90
  -2  -4  -3  199.58   10.20
   2  -4   3  176.48   10.80
  -2   4  -4  170.88   10.20
  -2   4  -4  179.88   10.40
   2  -4   4  151.58   10.10
   2  -4   4  179.38    9.20
  -2  -4  -4  170.48    8.30
  -2  -4  -4  169.08    9.60
  -2   4  -5   18.70    4.00
  -2   4  -5    6.40    3.70
   2  -4   5   10.00    2.60
  -2  -4  -5   13.10    3.10
   2  -4   5   14.40    3.40
  -2  -4  -5   14.50    2.70
  -2   4  -6    4.80    3.20
  -2   4  -6    4.60    3.60
  -2  -4  -6   -1.90    2.60
   2  -4   6   -4.40    1.80
  -2  -4  -6    1.90    2.20
  -2  -5   7   28.70    4.80
  -2  -5   6    2.60    2.60
  -2  -5   6    3.40    2.00
   2  -5  -6    2.50    1.30
  -2  -5   5    5.00    2.80
   2  -5  -5   10.60    1.60
  -2  -5   5    7.80    2.40
   2   5  -4   11.60    2.60
  -2  -5   4   13.90    3.10
   2  -5  -4    9.50    1.50
  -2  -5   4    9.20    2.40
   2   5  -3  792.62   33.90
  -2  -5   3  823.02   34.00
  -2  -5   3  766.02   34.40
   2  -5  -3  791.22   32.90
   2   5  -2   14.00    2.50
  -2  -5   2    7.20    2.40
   2  -5  -2   10.30    1.90
   2   5  -1    2.40    1.50
  -2   5   1    5.30    1.50
   2  -5  -1    4.40    1.70
  -2  -5   1    2.60    1.90
   2   5   0  201.18    9.60
  -2   5   0  221.38   10.30
  -2  -5   0  197.68   10.20
   2  -5   0  199.88   10.50
   2  -5   0  206.68   10.30
   2   5   1 1316.97   51.99
  -2   5  -1 1240.98   53.29
  -2   5  -1 1238.68   53.39
  -2  -5  -1 1249.88   52.89
   2  -5   1 1270.77   53.19
   2  -5   1 1323.87   53.89
  -2   5  -2  224.58   11.20
   2   5   2  200.68    8.60
  -2   5  -2  201.38   11.00
   2  -5   2  214.78   10.90
  -2  -5  -2  194.78   10.20
   2  -5   2  202.18   11.40
   2  -5   2  207.68   10.20
  -2   5  -3   35.00    4.80
  -2   5  -3   33.40    4.80
   2  -5   3   29.10    4.60
   2  -5   3   28.20    3.80
  -2  -5  -3   31.80    3.80
  -2   5  -4   11.20    3.50
  -2   5  -4    9.70    3.50
   2  -5   4   12.00    3.00
  -2  -5  -4    4.00    2.30
  -2  -5  -4   11.70    1.90
   2  -5   4    8.70    3.00
  -2   5  -5  114.29    8.50
  -2   5  -5  117.89    8.40
   2  -5   5  107.49    7.10
  -2  -5  -5  109.19    7.50
  -2  -5  -5  109.59    6.20
   2  -5   5   96.19    7.90
  -2   5  -6    6.30    3.40
  -2   5  -6   -1.20    3.20
   2  -5   6   -4.60    2.20
  -2  -6   7    3.00    2.90
  -2  -6   6    5.10    2.90
   2  -6  -6    2.30    1.70
  -2  -6   6   -1.10    2.10
  -2  -6   5  146.29    9.10
  -2  -6   5  136.29    8.40
   2  -6  -5  129.79    6.40
   2   6  -4  139.09    8.20
   2  -6  -4  142.99    6.80
  -2  -6   4  146.89    8.40
  -2  -6   4  138.09    8.70
   2   6  -3    4.90    1.90
  -2  -6   3    5.50    1.90
  -2  -6   3    5.60    2.40
   2  -6  -3    4.00    1.30
   2   6  -2   14.30    2.50
   2  -6  -2   13.70    2.30
  -2  -6   2   10.80    2.80
  -2   6   1  402.56   16.90
   2   6  -1  377.66   17.20
   2  -6  -1  393.26   17.60
   2  -6  -1  394.76   17.70
  -2  -6   1  356.36   17.70
   2   6   0   99.99    5.30
  -2   6   0   89.09    5.70
   2  -6   0   99.49    6.30
   2  -6   0   90.79    5.80
  -2  -6   0   94.69    5.90
   2   6   1   21.30    2.00
  -2   6  -1   28.50    3.70
  -2   6  -1   21.80    3.70
   2  -6   1   18.70    3.10
   2  -6   1   23.80    3.80
  -2  -6  -1   22.60    3.20
  -2   6  -2   -0.20    1.80
  -2   6  -2   -3.20    1.70
   2  -6   2    5.10    2.50
   2  -6   2    4.10    2.10
  -2  -6  -2   -0.90    1.30
   2  -6   2    0.90    1.60
  -2   6  -3  225.68   11.60
  -2   6  -3  209.58   11.60
   2  -6   3  194.08   10.40
  -2  -6  -3  183.98   10.20
   2  -6   3  185.68   11.60
  -2   6  -4   -0.80    2.50
  -2   6  -4   -2.70    2.10
   2  -6   4    1.50    2.70
  -2  -6  -4    1.40    2.00
   2  -6   4    3.00    2.50
  -2   6  -5    1.00    2.70
  -2   6  -5    8.50    3.90
  -2  -6  -5    4.30    2.60
   2  -6   5    1.10    2.40
  -2  -6  -5    0.70    1.40
  -2   6  -6   42.60    7.10
  -2   6  -6   34.90    6.30
  -2  -7   7    0.30    3.00
  -2  -7   6  116.39    8.70
  -2  -7   5    8.60    3.70
   2  -7  -5    6.30    1.40
  -2  -7   5    5.20    2.80
  -2  -7   4    6.50    3.00
   2  -7  -4    8.50    1.60
  -2  -7   4    6.80    2.40
   2   7  -3   16.60    3.00
  -2  -7   3   12.40    2.70
   2  -7  -3   13.40    2.20
  -2  -7   3   10.30    3.00
   2   7  -2  527.85   22.90
  -2  -7   2  490.75   23.50
   2  -7  -2  532.95   22.70
  -2   7   1    8.80    1.80
   2   7  -1    9.60    2.10
   2  -7  -1    9.50    2.60
   2  -7  -1    7.30    2.30
  -2  -7   1    8.50    2.50
   2   7   0    5.70    1.70
  -2   7   0    7.80    2.00
   2   7   0    9.20    1.50
   2  -7   0    8.80    2.30
   2  -7   0    3.90    2.00
  -2  -7   0    9.30    2.50
   2   7   1   51.29    3.20
  -2   7  -1   52.99    4.50
  -2   7  -1   45.80    4.70
   2  -7   1   39.80    4.00
  -2  -7  -1   53.89    4.30
   2  -7   1   50.49    5.60
  -2   7  -2   54.69    4.90
  -2   7  -2   57.69    5.40
  -2  -7  -2   52.39    4.40
   2  -7   2   59.39    5.50
   2  -7   2   60.49    4.60
   2  -7   2   53.99    4.80
  -2   7  -3   87.19    6.90
  -2   7  -3   95.19    7.40
   2  -7   3   94.09    6.40
   2  -7   3   86.89    8.00
  -2  -7  -3  100.99    6.30
  -2   7  -4   59.69    6.70
  -2   7  -4   66.99    7.70
  -2  -7  -4   59.69    5.20
   2  -7   4   60.59    5.40
  -2   7  -5    3.10    3.80
  -2   7  -5    3.40    3.40
  -2  -7  -5    2.70    2.40
   2  -7   5    5.80    2.80
  -2   7  -6   23.90    5.80
  -2   7  -6   24.80    5.40
   2   8  -7   10.30    5.00
  -2  -8   7    6.00    3.80
  -2  -8   6    8.00    3.80
   2  -8  -5   39.90    3.00
  -2  -8   5   38.30    6.00
  -2  -8   4  127.89    8.80
   2  -8  -4  113.89    6.20
  -2  -8   3    5.20    2.30
  -2  -8   3    1.70    2.30
   2  -8  -3    3.40    1.60
   2   8  -2    1.40    1.50
  -2  -8   2    1.70    2.10
   2  -8  -2   -0.40    1.30
   2   8  -1  785.42   31.80
   2  -8  -1  724.63   32.30
   2  -8  -1  744.43   32.20
  -2  -8   1  711.43   32.50
   2   8   0   77.29    4.40
  -2   8   0   84.79    5.50
   2   8   0   83.19    4.90
  -2  -8   0   69.69    5.70
   2  -8   0   74.59    5.80
   2  -8   0   87.89    5.60
  -2   8  -1  207.68   11.80
   2   8   1  230.58    9.90
  -2   8  -1  224.18   11.30
   2  -8   1  193.68   11.70
  -2  -8  -1  224.28   11.10
   2  -8   1  189.78   10.70
   2  -8   1  209.98   11.20
  -2   8  -2    8.00    2.70
  -2   8  -2    8.40    3.20
   2  -8   2    3.30    2.00
  -2  -8  -2    5.50    2.30
  -2   8  -3   62.99    7.30
  -2   8  -3   65.09    6.90
  -2  -8  -3   59.29    4.90
   2  -8   3   53.79    5.30
  -2   8  -4    0.80    2.80
  -2   8  -4   -3.50    2.80
  -2  -8  -4    1.90    2.20
   2  -8   4    4.30    2.70
  -2   8  -5    7.90    4.20
  -2   8  -5   15.30    4.80
   2  -8   5   14.50    3.90
  -2   8  -6   38.30    7.00
  -2   8  -6   39.00    6.40
   2  -8   6   30.50    5.30
   2   9  -7   15.60    5.50
  -2  -9   7   12.20    4.50
   2   9  -6    8.90    4.50
  -2  -9   6    8.60    4.30
  -2  -9   5    2.80    3.40
   2  -9  -5    4.30    1.70
  -2  -9   4    2.80    2.90
   2  -9  -4    1.90    1.50
   2  -9  -3  283.57   13.70
  -2  -9   3  294.87   15.40
   2   9  -2    3.80    2.00
   2   9  -2    6.60    2.30
  -2  -9   2    2.90    2.60
   2  -9  -2    6.10    2.40
   2  -9  -2    4.40    2.10
   2   9  -1  111.99    6.50
   2   9  -1  109.49    6.40
   2  -9  -1  108.99    7.20
   2  -9  -1  115.79    7.00
  -2  -9   1  115.59    7.50
   2   9   0   47.70    3.70
  -2   9   0   50.99    4.20
   2   9   0   47.80    3.30
   2  -9   0   50.39    5.90
  -2  -9   0   48.80    4.60
   2  -9   0   50.09    4.30
  -2   9  -1  107.49    7.80
  -2   9  -1  105.69    7.20
  -2  -9  -1  113.09    7.20
   2  -9   1  112.69    7.00
   2  -9   1  113.99    7.40
  -2   9  -2  131.29    8.30
  -2   9  -2  116.89    8.50
   2  -9   2  115.29    7.60
  -2  -9  -2  123.99    7.60
  -2   9  -3    0.40    2.90
  -2   9  -3    6.10    2.90
   2  -9   3    4.00    2.60
  -2  -9  -3    2.50    2.40
  -2   9  -4    8.20    4.30
  -2   9  -4   14.90    4.20
   2  -9   4   17.40    4.10
  -2  -9  -4    8.30    2.80
  -2   9  -5   34.20    6.40
  -2   9  -5   39.20    6.10
   2  -9   5   31.00    5.30
   2  10  -6   30.00    6.20
  -2 -10   6   13.30    5.20
   2  10  -5   16.20    4.50
  -2 -10   5   13.00    4.40
   2  10  -4  202.48   11.60
  -2 -10   4  176.08   11.70
   2 -10  -4  179.08    9.50
   2  10  -3   69.09    5.80
   2 -10  -3   61.09    5.20
   2 -10  -3   64.89    4.90
  -2 -10   3   62.99    7.10
   2  10  -2   73.49    5.60
   2 -10  -2   77.19    5.60
  -2 -10   2   70.49    6.40
   2 -10  -2   75.19    5.70
   2  10  -1    4.90    2.10
   2  10  -1    6.60    2.20
   2 -10  -1    3.20    2.40
  -2 -10   1    5.40    2.80
   2 -10  -1    5.60    2.20
   2  10   0  356.76   16.30
   2  10   0  347.57   15.90
   2 -10   0  371.26   17.10
  -2 -10   0  346.57   17.50
   2 -10   0  381.16   17.50
  -2  10  -1    0.20    2.20
   2 -10   1    2.70    2.20
  -2 -10  -1    1.50    2.40
  -2  10  -2   47.50    5.60
  -2  10  -2   50.09    6.80
   2 -10   2   43.30    5.20
  -2 -10  -2   39.50    5.00
  -2  10  -3   19.40    4.10
  -2  10  -3   17.90    4.80
  -2 -10  -3   22.70    3.90
   2 -10   3   16.70    3.90
  -2  10  -4  178.78   12.40
  -2  10  -4  189.28   11.80
  -2 -10  -4  195.68   10.90
   2 -10   4  182.58   11.30
  -2  10  -5   46.70    7.60
  -2  10  -5   40.30    6.40
   2 -10   5   42.70    6.50
   2  11  -6   95.59    8.70
  -2 -11   6   66.99    8.60
   2  11  -5   16.80    4.60
  -2 -11   5   12.30    4.40
   2  11  -4   65.19    6.40
   2 -11  -4   63.09    4.90
  -2 -11   4   57.29    7.30
   2  11  -3   94.89    6.90
   2 -11  -3   87.39    6.30
   2 -11  -3   86.59    6.30
  -2 -11   3   93.29    8.20
   2  11  -2  337.27   16.10
   2 -11  -2  312.07   15.90
  -2 -11   2  341.17   17.40
   2 -11  -2  321.67   17.10
   2  11  -1   30.70    3.90
   2  11  -1   34.30    4.10
   2 -11  -1   27.70    3.90
  -2 -11   1   25.20    4.50
   2 -11  -1   27.60    4.20
   2  11   0   81.69    5.40
   2  11   0   90.79    5.40
   2 -11   0   95.39    6.50
  -2 -11   0   78.59    6.80
  -2 -11  -1  400.96   19.60
   2 -11   1  409.86   19.40
  -2  11  -2  319.87   16.30
  -2  11  -2  291.47   16.90
   2 -11   2  338.37   16.20
  -2 -11  -2  301.47   15.80
  -2  11  -3  104.59    8.90
  -2  11  -3  108.79    8.30
  -2 -11  -3  113.49    7.80
   2 -11   3  103.29    8.00
  -2  11  -4    4.20    3.30
  -2  11  -4    5.60    4.00
   2 -11   4    1.70    3.10
  -2 -11  -4   -1.60    2.70
  -2  11  -5    6.10    4.80
  -2  11  -5    2.40    3.40
   2 -11   5    4.70    3.70
   2  12  -5   46.00    6.70
  -2 -12   5   43.50    7.40
   2  12  -4   66.19    7.80
  -2 -12   4   70.09    8.10
   2  12  -3   16.20    4.10
   2 -12  -3   16.30    3.40
  -2 -12   3   16.90    4.90
   2  12  -2   28.20    4.20
   2 -12  -2   25.90    4.00
   2 -12  -2   32.90    4.10
  -2 -12   2   22.50    5.10
   2  12  -1  379.86   18.00
   2 -12  -1  389.16   18.50
  -2 -12   1  402.56   19.80
   2  12   0   85.89    5.50
  -2 -12   0   67.59    6.70
   2 -12   0   84.79    6.30
   2 -12   1    7.20    2.90
  -2 -12  -1    1.90    3.00
  -2  12  -2   14.20    4.60
  -2 -12  -2    5.70    3.20
   2 -12   2   15.70    3.80
  -2  12  -3  154.58   11.70
   2 -12   3  167.28   10.70
  -2 -12  -3  182.48   10.60
  -2  12  -4   25.30    6.10
   2 -12   4   27.10    5.40
   2  13  -5    4.70    3.50
  -2 -13   5   -0.80    4.10
   2  13  -4    7.20    3.50
  -2 -13   4    3.10    3.60
   2 -13  -4    4.90    2.40
   2  13  -3   54.59    5.60
   2 -13  -3   53.69    5.50
  -2 -13   3   57.79    7.70
   2  13  -2    6.00    2.70
  -2 -13   2    4.70    3.50
   2 -13  -2    6.60    2.50
   2  13  -1    6.30    2.50
  -2 -13   1    3.00    2.90
   2 -13  -1    4.00    2.60
   2 -13   0   -2.20    2.40
  -2 -13   0   -0.60    2.90
   2 -13   1   89.39    6.90
  -2 -13  -1   69.79    7.00
  -2  13  -2    6.60    4.00
  -2 -13  -2    7.90    3.50
   2 -13   2    6.10    3.20
  -2  13  -3   -1.10    3.40
  -2 -13  -3    4.20    3.10
   2 -13   3    0.70    3.40
  -2  13  -4    4.20    4.50
   2 -13   4    5.80    3.80
   2  14  -4   34.20    6.00
  -2 -14   4   25.80    6.00
   2  14  -3    9.30    3.40
   2 -14  -3    6.20    2.70
  -2 -14   3   11.40    4.50
   2  14  -2   25.50    4.30
   2 -14  -2   23.60    4.10
  -2 -14   2   15.00    4.80
   2  14  -1   14.80    3.40
   2 -14  -1   17.40    3.90
  -2 -14   1   14.70    4.70
  -2 -14   0   75.19    8.40
   2 -14   0   79.89    6.60
   2 -14   1   12.60    4.00
  -2 -14  -1   10.60    4.20
  -2 -14  -2   30.70    5.20
   2 -14   2   29.20    5.30
  -2  14  -3   10.90    5.10
  -2 -14  -3   11.60    4.20
   2 -14   3    8.50    4.30
   2  15  -3  103.89    8.10
   2 -15  -3  103.39    7.40
  -2 -15   3  100.79    9.50
   2  15  -2   14.10    3.80
  -2 -15   2   11.30    4.80
   2 -15  -2   23.30    4.30
   2  15  -1   12.70    3.40
   2 -15  -1    5.50    3.00
  -2 -15   1   14.60    4.80
   2 -15   0   23.40    4.60
  -2 -15   0   31.40    5.80
  -2 -15  -1   83.19    7.70
   2 -15   1   78.29    7.60
  -2 -15  -2   15.00    4.70
   2 -15   2   14.50    4.40
   2  16  -2    4.90    3.20
  -2 -16   2    2.20    4.60
   2 -16  -2    1.70    3.20
   2 -16  -1   57.69    7.10
  -2 -16   1   50.29    7.60
   2 -16   0    7.60    4.00
  -2 -16   0   11.60    5.00
  -2 -16  -1   -4.20    3.20
   2 -16   1   -0.30    3.40
   3   0  -6  138.19    8.10
   3   0  -5   -1.00    1.60
  -3   0   4  620.44   26.40
   3   0  -4  610.74   27.10
  -3   0   4  620.54   25.80
   3   0  -3    0.90    1.80
  -3   0   3    2.20    1.60
  -3   0   2  152.38    8.50
   3   0  -2  157.28    8.60
  -3   0   1    2.30    1.90
   3   0  -1    0.20    1.60
  -3   0   0   83.59    6.00
   3   0   0   95.89    6.20
  -3   0  -1    3.40    2.10
   3   0   1    4.60    1.70
   3   0   1    7.20    2.50
   3   0   2  911.61   36.10
  -3   0  -2  826.92   37.20
   3   0   2  803.42   36.60
  -3   0  -3   -0.10    1.90
   3   0   3    2.40    1.80
  -3   0  -3    0.10    2.10
  -3   0  -4  236.08   12.50
  -3   0  -4  258.77   13.70
   3   0   4  234.18   10.90
   3   0   4  229.08   11.70
  -3   0  -5    4.10    2.90
   3   0   5    3.10    1.60
  -3   0  -5    6.90    3.50
  -3   0  -6   18.20    4.70
  -3   0  -6   15.60    4.40
   3  -1  -7   63.99    5.20
   3   1  -6  114.79    7.30
   3  -1  -6  108.99    6.90
   3   1  -5    3.60    2.00
  -3  -1   5    1.50    1.20
  -3  -1   5    2.90    1.70
   3  -1  -5    3.30    1.80
   3   1  -4   21.60    3.20
  -3   1   4   21.40    1.60
  -3   1   4   23.30    2.00
   3  -1  -4   25.90    3.50
  -3  -1   4   20.70    3.10
  -3  -1   4   25.50    2.40
  -3   1   3  447.26   19.70
   3   1  -3  435.36   20.30
   3  -1  -3  468.95   20.40
  -3  -1   3  444.26   20.40
  -3   1   2  114.09    6.60
   3   1  -2  120.99    7.00
  -3  -1   2   98.09    6.80
   3  -1  -2  127.69    7.10
   3   1  -1  202.18   10.70
  -3   1   1  222.38   10.80
  -3  -1   1  212.78   11.00
   3  -1  -1  202.38   10.80
  -3   1   0  453.15   19.70
   3   1   0  438.96   19.40
   3  -1   0  402.96   19.50
  -3  -1   0  394.46   19.40
  -3   1  -1  100.09    6.90
   3   1   1  114.39    6.00
   3   1   1  107.69    6.60
   3  -1   1  107.49    6.30
  -3  -1  -1  112.19    7.20
   3  -1   1   93.29    6.80
  -3   1  -2  100.39    7.00
   3   1   2   88.09    5.40
   3   1   2   97.29    6.10
   3  -1   2   93.99    6.70
   3  -1   2   98.69    5.90
  -3  -1  -2   91.89    6.80
   3   1   3    6.20    2.00
  -3   1  -3   12.60    3.30
  -3   1  -3   11.50    3.00
  -3  -1  -3    5.40    2.90
  -3  -1  -3    8.70    2.40
   3  -1   3    7.40    2.70
   3   1   4  102.89    5.70
  -3   1  -4  112.49    8.20
   3   1   4  100.69    5.20
  -3   1  -4   96.59    7.10
  -3  -1  -4  102.99    6.90
   3  -1   4   98.29    5.90
  -3  -1  -4  106.29    8.00
   3  -1   4  101.59    7.00
  -3   1  -5   14.50    4.20
  -3   1  -5    7.70    3.60
   3  -1   5    8.50    1.90
  -3  -1  -5   13.40    3.60
  -3  -1  -5   12.70    4.00
  -3   1  -6   51.39    7.10
  -3   1  -6   44.40    6.40
  -3  -1  -6   41.90    6.50
  -3  -1  -6   40.00    5.60
   3  -2  -7    1.80    2.40
  -3  -2   6    6.10    2.10
   3  -2  -6    6.10    2.20
  -3  -2   6    2.00    1.40
   3   2  -5  283.67   14.10
   3  -2  -5  290.87   13.80
  -3  -2   5  276.97   13.90
  -3  -2   5  285.87   13.10
   3   2  -4    2.60    1.70
  -3  -2   4    1.50    1.30
  -3  -2   4    2.00    1.90
   3  -2  -4    1.00    1.60
   3   2  -3   89.69    5.80
  -3   2   3   88.79    4.80
  -3  -2   3   81.89    5.90
   3  -2  -3   81.79    5.60
  -3   2   2   49.30    3.80
   3   2  -2   51.39    4.20
  -3  -2   2   52.29    5.30
   3  -2  -2   42.10    4.10
  -3   2   1  428.56   18.90
   3   2  -1  419.66   18.90
  -3  -2   1  386.26   19.00
   3  -2  -1  420.26   19.20
   3   2   0  113.99    6.70
  -3   2   0   96.39    6.50
  -3  -2   0  111.89    6.90
   3  -2   0  100.19    6.80
   3   2   1   72.29    4.40
   3   2   1   76.89    5.30
  -3   2  -1   84.29    6.10
   3  -2   1   72.79    5.00
   3  -2   1   76.39    5.90
  -3  -2  -1   85.19    5.90
   3   2   2   19.10    2.40
  -3   2  -2   20.00    3.70
   3   2   2   15.40    2.60
  -3   2  -2   19.80    3.50
   3  -2   2   20.30    3.80
  -3  -2  -2   15.20    3.20
   3  -2   2   13.80    2.70
  -3   2  -3   45.70    5.60
  -3   2  -3   44.30    5.40
   3   2   3   44.50    3.50
   3  -2   3   41.10    3.70
   3  -2   3   38.50    3.90
   3  -2   3   36.20    4.80
  -3  -2  -3   52.29    5.90
  -3   2  -4   14.50    4.10
   3   2   4    3.00    0.50
   3   2   4    5.30    0.60
  -3   2  -4   11.60    3.40
   3  -2   4    8.40    2.90
   3  -2   4   10.20    2.30
  -3  -2  -4   11.60    2.80
  -3  -2  -4    7.10    3.20
  -3   2  -5   -0.80    2.90
  -3   2  -5    0.00    3.00
   3  -2   5   -1.30    1.80
  -3  -2  -5   -3.00    2.60
  -3  -2  -5   -1.60    2.10
  -3   2  -6   13.50    4.50
  -3   2  -6   12.60    4.50
  -3  -2  -6   16.30    4.00
  -3  -2  -6    6.50    3.60
  -3  -3   6   24.90    3.20
   3  -3  -6   35.90    3.90
  -3  -3   6   32.60    4.20
   3   3  -5   10.40    2.80
  -3  -3   5   12.00    3.00
   3  -3  -5    9.60    2.30
  -3  -3   5    9.80    2.20
   3   3  -4  262.47   12.30
  -3  -3   4  228.58   11.40
   3  -3  -4  229.58   11.60
  -3  -3   4  224.88   12.20
   3   3  -3   20.70    3.20
  -3   3   3   21.50    1.90
  -3  -3   3   19.70    3.50
   3  -3  -3   22.50    3.20
  -3   3   2  705.53   29.50
   3   3  -2  694.23   30.20
  -3  -3   2  670.73   30.50
   3  -3  -2  704.63   30.20
   3   3  -1   21.40    3.10
  -3   3   1   21.10    3.20
  -3  -3   1   15.30    3.10
   3  -3  -1   19.10    3.30
   3   3   0   52.69    4.10
  -3   3   0   49.40    4.30
   3  -3   0   50.99    5.50
  -3  -3   0   53.69    5.40
   3  -3   0   42.80    3.90
   3   3   1    2.30    1.20
   3   3   1    3.10    1.70
  -3   3  -1    6.90    2.40
   3  -3   1    3.80    1.80
  -3  -3  -1    2.20    2.10
   3  -3   1    1.70    2.00
  -3   3  -2   35.40    4.70
  -3   3  -2   31.40    4.50
   3   3   2   32.10    3.10
   3   3   2   37.30    2.60
   3  -3   2   26.40    3.80
  -3  -3  -2   32.90    4.40
   3  -3   2   31.60    4.70
  -3   3  -3    4.70    2.60
   3   3   3    5.70    1.30
  -3   3  -3    0.70    2.20
   3  -3   3    4.70    1.90
   3  -3   3    7.20    3.00
  -3  -3  -3    1.10    2.30
   3  -3   3    2.00    2.10
  -3   3  -4  107.39    8.10
  -3   3  -4  104.49    8.10
  -3  -3  -4  110.39    8.30
   3  -3   4  106.69    6.60
   3  -3   4   89.39    7.50
  -3   3  -5   -1.50    3.20
  -3   3  -5   -1.00    3.10
  -3  -3  -5    0.80    3.20
   3  -3   5    0.60    2.00
  -3  -3  -5    0.30    2.10
  -3   3  -6   23.40    5.30
  -3   3  -6   16.00    5.00
  -3  -3  -6   30.50    5.50
  -3  -4   7   11.70    4.20
   3  -4  -6   98.89    6.10
  -3  -4   6   96.19    7.10
  -3  -4   6   93.49    6.30
  -3  -4   5  183.68   10.60
   3  -4  -5  182.78    9.50
  -3  -4   5  180.88    9.70
   3   4  -4  370.66   16.80
   3  -4  -4  343.47   16.10
  -3  -4   4  329.17   17.00
   3   4  -3    4.20    2.20
  -3   4   3    3.50    0.80
  -3  -4   3   -0.70    2.00
   3  -4  -3    2.90    1.70
   3   4  -2   96.59    6.20
  -3   4   2   84.09    5.30
   3  -4  -2   97.09    6.20
  -3  -4   2  102.09    6.60
  -3   4   1  338.07   16.30
   3   4  -1  371.76   16.50
  -3  -4   1  339.17   16.90
   3  -4  -1  365.26   16.90
   3   4   0  247.08   11.20
  -3   4   0  204.08   11.30
  -3  -4   0  217.48   11.60
   3  -4   0  225.48   11.40
   3  -4   0  217.58   11.90
   3   4   1   11.50    2.20
   3   4   1    9.50    1.50
  -3   4  -1    9.10    3.00
  -3  -4  -1   11.40    2.80
   3  -4   1    6.10    2.60
   3  -4   1    8.50    2.30
   3   4   2   75.09    4.50
  -3   4  -2   76.09    6.00
  -3   4  -2   71.79    5.90
   3  -4   2   77.39    6.30
   3  -4   2   71.89    5.50
  -3  -4  -2   71.79    5.70
   3   4   3   93.99    4.30
  -3   4  -3   95.49    7.30
  -3   4  -3   93.29    7.10
   3  -4   3   87.89    6.10
  -3  -4  -3  109.19    7.40
   3  -4   3   77.69    6.90
  -3   4  -4   10.40    3.80
  -3   4  -4    9.00    3.60
   3  -4   4    8.40    2.60
   3  -4   4    8.10    3.30
  -3  -4  -4    4.30    3.00
  -3   4  -5    4.20    3.70
  -3   4  -5    6.00    3.80
  -3  -4  -5    6.50    3.30
   3  -4   5    1.60    2.20
  -3   4  -6   31.00    6.00
  -3   4  -6   40.60    6.40
  -3  -5   7  107.29    7.80
  -3  -5   6    5.80    3.20
  -3  -5   6    8.10    2.50
   3  -5  -6    8.40    2.40
  -3  -5   5    4.70    2.20
  -3  -5   5    3.70    2.80
   3  -5  -5    7.10    2.20
   3   5  -4   33.70    4.40
  -3  -5   4   33.20    3.90
  -3  -5   4   31.90    4.50
   3  -5  -4   36.00    3.40
   3   5  -3  737.33   31.70
  -3  -5   3  713.03   32.30
   3  -5  -3  728.03   31.30
  -3   5   2  203.98    9.40
   3   5  -2  193.88   10.30
  -3  -5   2  192.88   10.90
   3  -5  -2  197.58   10.40
   3   5  -1    3.80    1.80
  -3   5   1    0.80    1.50
   3  -5  -1    2.00    2.00
  -3  -5   1    2.10    2.00
   3   5   0   71.09    4.90
  -3   5   0   70.69    5.40
   3  -5   0   73.89    5.30
  -3  -5   0   74.29    5.70
   3  -5   0   76.79    5.90
   3   5   1  503.05   20.70
  -3   5  -1  511.35   22.20
   3  -5   1  470.45   21.60
  -3  -5  -1  437.06   21.70
   3  -5   1  435.86   22.40
   3   5   2   45.20    3.10
  -3   5  -2   58.59    6.50
  -3   5  -2   49.70    5.80
  -3  -5  -2   47.80    5.40
   3  -5   2   39.90    5.60
   3  -5   2   49.00    4.50
  -3   5  -3    1.30    2.80
  -3   5  -3    3.70    2.90
   3  -5   3   -1.10    2.30
  -3  -5  -3   -0.10    2.40
   3  -5   3   -0.20    1.90
  -3   5  -4   20.10    4.60
  -3   5  -4   10.60    4.20
  -3  -5  -4   16.70    3.90
   3  -5   4   13.50    3.10
   3  -5   4   14.60    3.90
  -3   5  -5   69.79    7.30
  -3   5  -5   62.79    7.70
  -3  -5  -5   73.49    6.80
   3  -5   5   61.79    5.70
  -3   5  -6    8.80    4.50
  -3   5  -6   -1.00    3.80
  -3  -6   7    6.60    3.50
   3  -6  -6    2.60    1.90
  -3  -6   6    1.20    3.10
  -3  -6   6    1.70    2.30
   3  -6  -5  106.79    6.50
  -3  -6   5  114.49    8.30
  -3  -6   5  113.89    7.40
  -3  -6   4    0.30    1.70
  -3  -6   4    0.30    2.50
   3  -6  -4    1.00    1.60
   3   6  -3   37.60    4.30
   3  -6  -3   39.30    4.10
  -3  -6   3   36.90    4.90
   3   6  -2  172.28    9.40
  -3   6   2  189.28    8.60
   3  -6  -2  178.98    9.60
  -3  -6   2  155.08    9.90
   3   6  -1  406.96   18.00
  -3   6   1  394.66   17.90
  -3  -6   1  378.16   18.70
   3  -6  -1  387.56   18.60
  -3   6   0   83.69    5.80
   3   6   0   84.99    5.30
  -3  -6   0   75.69    5.90
   3  -6   0   86.99    6.00
   3  -6   0   90.39    6.50
   3   6   1   43.40    3.40
  -3   6  -1   49.60    4.70
  -3  -6  -1   46.60    5.20
   3  -6   1   56.39    6.20
   3  -6   1   46.40    4.20
  -3   6  -2  197.18   11.70
  -3   6  -2  199.08   11.90
   3   6   2  217.28    9.40
  -3  -6  -2  224.48   11.70
   3  -6   2  191.28   12.10
  -3   6  -3  112.29    8.60
  -3   6  -3  136.69    8.90
  -3  -6  -3   97.99    7.70
   3  -6   3  128.69    7.70
  -3   6  -4  191.48   11.40
  -3   6  -4  163.38   11.30
   3  -6   4  167.38   10.00
  -3  -6  -4  167.98   10.70
  -3   6  -5   12.80    4.50
  -3   6  -5   10.30    5.00
   3  -6   5   10.80    3.60
  -3  -6  -5   11.70    3.70
  -3   6  -6    2.50    4.50
  -3   6  -6    5.80    4.20
   3  -6   6    0.90    4.30
  -3  -7   7    3.10    3.60
  -3  -7   6   48.80    6.80
  -3  -7   5   14.90    4.00
   3  -7  -5   14.80    2.70
  -3  -7   4   27.30    4.80
  -3  -7   4   31.40    4.50
   3  -7  -4   37.00    4.00
   3   7  -3   11.80    3.10
  -3  -7   3   12.00    3.50
   3  -7  -3   11.00    2.60
  -3   7   2   38.90    3.00
   3   7  -2   38.70    3.80
   3  -7  -2   43.40    4.70
  -3  -7   2   35.40    5.00
  -3   7   1  160.78    8.50
   3   7  -1  173.78    8.80
   3  -7  -1  151.98    9.20
   3  -7  -1  144.39    9.20
  -3  -7   1  179.78    9.90
  -3   7   0  571.64   25.60
   3   7   0  603.44   24.90
   3  -7   0  535.75   26.30
   3  -7   0  570.34   25.90
  -3  -7   0  565.94   26.00
   3   7   1    2.80    1.40
  -3   7  -1    3.10    2.10
   3  -7   1    7.60    2.90
  -3  -7  -1    3.10    2.30
   3  -7   1    5.90    2.30
   3   7   2  299.17   12.70
  -3   7  -2  284.97   15.60
  -3   7  -2  290.67   15.30
  -3  -7  -2  285.17   15.00
   3  -7   2  300.27   14.60
  -3   7  -3   67.19    6.80
  -3   7  -3   76.39    6.70
   3  -7   3   73.39    5.90
  -3  -7  -3   65.79    6.10
  -3   7  -4   64.99    7.50
  -3   7  -4   60.79    7.90
  -3  -7  -4   61.59    7.00
   3  -7   4   48.60    5.70
  -3   7  -5    8.50    4.10
  -3   7  -5   -1.40    3.70
  -3  -7  -5    4.90    5.20
   3  -7   5    8.40    3.40
  -3  -8   7   -1.50    3.40
  -3  -8   6    4.10    3.60
   3  -8  -5  174.08    9.20
  -3  -8   5  170.68   11.50
   3  -8  -4    3.40    1.80
  -3  -8   4    1.30    2.90
   3  -8  -3   63.19    5.20
  -3  -8   3   80.39    6.70
   3   8  -2   93.29    5.90
   3  -8  -2   77.29    6.00
  -3  -8   2   75.99    6.80
   3   8  -1  158.68    8.50
  -3   8   1  166.98    8.50
   3  -8  -1  157.38    9.20
  -3  -8   1  139.79    9.30
   3  -8  -1  147.59    9.40
  -3   8   0   36.90    4.40
   3   8   0   23.90    3.10
   3  -8   0   37.70    4.70
  -3  -8   0   25.30    4.30
   3  -8   0   27.70    4.50
   3   8   1   18.20    2.40
  -3   8  -1   29.30    4.20
  -3  -8  -1   20.80    3.70
  -3   8  -2  131.59    8.90
  -3   8  -2  134.59    9.50
   3  -8   2  152.28    8.60
  -3  -8  -2  124.39    8.60
  -3   8  -3   97.19    7.80
  -3   8  -3   86.39    8.10
   3  -8   3  100.99    7.20
  -3  -8  -3  108.19    7.80
  -3   8  -4   79.99    7.20
  -3   8  -4   78.09    9.20
  -3  -8  -4   56.09    6.90
   3  -8   4   68.29    6.50
  -3   8  -5   65.39    8.90
  -3   8  -5   56.79    7.50
   3  -8   5   44.00    5.90
  -3  -9   7   47.70    7.30
  -3  -9   6    7.90    4.00
  -3  -9   5   22.00    5.10
   3  -9  -5   21.80    3.20
  -3  -9   4   46.10    6.60
   3  -9  -4   55.39    4.70
   3  -9  -3   73.09    5.80
  -3  -9   3   85.09    7.20
   3  -9  -2  158.78    9.50
  -3  -9   2  149.59   10.20
   3  -9  -2  159.08    9.50
  -3   9   1   33.40    3.80
   3   9  -1   33.30    4.00
  -3  -9   1   35.20    5.00
   3  -9  -1   31.40    4.90
   3  -9  -1   33.90    4.70
  -3   9   0   22.90    3.60
   3   9   0   21.10    2.30
   3   9   0   19.00    2.90
  -3  -9   0   19.90    4.10
  -3   9  -1  314.67   15.80
   3   9   1  304.37   14.00
  -3  -9  -1  311.37   16.10
  -3   9  -2    6.30    3.10
  -3   9  -2    5.50    3.10
   3  -9   2    7.10    2.80
  -3  -9  -2    9.80    3.50
  -3   9  -3   10.90    4.60
  -3   9  -3   12.10    4.10
  -3  -9  -3    7.80    3.30
   3  -9   3    8.20    3.20
  -3   9  -4    6.80    4.30
  -3   9  -4    3.70    3.40
   3  -9   4    7.20    3.60
  -3  -9  -4    4.00    3.00
  -3   9  -5   15.80    4.90
  -3   9  -5   17.80    5.80
   3  -9   5    8.80    3.70
  -3 -10   6   56.09    7.60
  -3 -10   5   10.50    4.20
  -3 -10   4  241.58   14.80
   3 -10  -4  247.58   12.80
   3 -10  -3   20.00    3.80
  -3 -10   3   13.50    4.20
  -3 -10   2   68.59    6.70
   3  10  -1   -0.20    1.50
   3  10  -1   -0.10    1.60
  -3 -10   1   -1.90    2.50
   3  10   0  307.77   13.60
   3  10   0  305.77   14.40
  -3  10   0  291.97   15.20
  -3 -10   0  324.47   16.30
  -3  10  -1  102.69    7.80
   3  10   1  118.89    6.20
  -3 -10  -1  110.69    8.30
   3 -10   1  102.59    7.60
  -3  10  -2    5.50    3.30
   3 -10   2    8.10    3.20
  -3 -10  -2    4.30    3.10
  -3  10  -3   99.99    8.50
  -3  10  -3  104.29    9.10
   3 -10   3  104.89    8.00
  -3 -10  -3   86.29    7.60
  -3  10  -4   28.20    6.50
  -3  10  -4   25.80    5.30
   3 -10   4   19.40    4.40
  -3 -10  -4   36.30    5.60
  -3  10  -5   17.60    5.40
   3  11  -6   94.49    8.70
  -3 -11   6   76.59    9.60
   3  11  -5   18.50    5.00
  -3 -11   5    4.30    4.40
  -3 -11   4   88.99    8.40
   3 -11  -4   92.39    7.30
   3  11  -3  341.97   17.10
  -3 -11   3  338.67   18.50
   3  11  -2  354.76   16.60
  -3 -11   2  321.87   18.00
   3  11  -1  180.28    9.40
  -3 -11   1  181.08   11.60
   3  11   0   15.60    2.30
   3  11   0   15.60    2.80
  -3  11   0   15.60    3.40
  -3 -11   0   18.50    4.30
  -3  11  -1   -1.70    2.00
  -3 -11  -1    2.70    3.30
   3 -11   1    1.20    2.50
  -3  11  -2   93.29    7.30
  -3 -11  -2   84.49    7.40
   3 -11   2   78.89    7.10
  -3  11  -3    0.20    2.90
  -3  11  -3   -0.10    3.60
  -3 -11  -3   -0.90    2.90
   3 -11   3    2.70    3.30
  -3  11  -4   12.20    5.20
  -3  11  -4    6.60    4.00
   3 -11   4   10.00    4.40
   3  12  -5  240.58   14.30
  -3 -12   5  208.88   14.60
   3  12  -4   72.49    7.00
  -3 -12   4   58.49    8.30
   3  12  -3   11.60    3.30
  -3 -12   3   10.00    4.40
   3  12  -2    1.70    2.20
  -3 -12   2   -1.90    2.90
   3  12  -1  218.78   11.00
  -3 -12   1  211.18   13.20
   3  12   0   25.20    3.40
   3  12   0   30.80    3.00
  -3 -12   0   47.80    6.30
   3 -12   0   45.20    5.40
  -3  12  -1    5.50    2.80
   3 -12   1    7.30    3.20
  -3 -12  -1   11.60    4.10
  -3  12  -2    4.00    3.30
   3 -12   2    6.90    3.30
  -3 -12  -2    9.40    4.00
  -3  12  -3    6.50    3.70
  -3  12  -3   10.50    5.20
  -3 -12  -3   13.80    4.50
   3 -12   3   14.40    4.40
  -3  12  -4    2.50    4.90
  -3  12  -4    9.10    4.10
   3 -12   4   -0.70    3.80
   3  13  -5    6.90    3.60
  -3 -13   5    1.20    4.50
   3  13  -4   21.00    5.00
  -3 -13   4   10.60    4.70
   3  13  -3   65.09    6.00
  -3 -13   3   49.80    7.70
   3  13  -2    4.10    2.70
  -3 -13   2    4.20    3.90
   3  13  -1    1.60    2.10
   3 -13  -1    4.10    2.90
  -3 -13   1    3.30    3.60
   3 -13   0   70.29    7.40
  -3 -13   0   70.89    8.20
   3 -13   1   23.80    4.90
  -3 -13  -1   20.10    4.80
  -3 -13  -2   60.29    7.30
   3 -13   2   57.39    6.90
  -3  13  -3   12.80    4.30
  -3 -13  -3   23.10    5.50
   3 -13   3   19.20    5.10
   3  14  -4   33.00    5.80
  -3 -14   4   27.30    6.30
   3  14  -3   -1.90    2.70
   3 -14  -3    0.70    2.30
  -3 -14   3   -1.20    3.50
   3  14  -2   61.09    5.50
  -3 -14   2   58.49    7.90
   3 -14  -2   66.69    6.00
   3  14  -1   29.40    4.00
   3 -14  -1   25.90    4.90
  -3 -14   1   33.90    6.20
   3 -14   0   98.19    7.70
  -3 -14   0   98.39   10.20
  -3 -14  -1   23.60    5.60
   3 -14   1   20.50    4.50
   3 -14   2   39.80    6.10
  -3 -14  -2   39.10    6.60
   3  15  -3  111.59    8.30
  -3 -15   3   99.79   11.10
   3 -15  -3  103.79    7.80
   3  15  -2   17.30    3.60
   3 -15  -2   21.10    4.40
  -3 -15   2   20.00    5.40
  -3 -15   1    0.40    3.70
   3 -15  -1   -3.80    2.40
   3 -15   0   18.10    4.70
  -3 -15   0   17.40    5.50
  -3 -15  -1  123.99   10.50
   3 -15   1  132.69    9.60
   4   0  -6  167.68   10.60
  -4   0   5    1.00    1.10
   4   0  -5    3.20    2.10
  -4   0   5   -1.50    1.50
   4   0  -4  128.69    7.80
  -4   0   4  105.79    7.00
   4   0  -3    1.00    2.10
  -4   0   3    4.70    2.30
  -4   0   2 1163.28   50.59
   4   0  -2 1213.08   50.79
  -4   0   1    1.00    2.10
   4   0  -1    1.60    2.00
  -4   0   0  615.74   29.20
   4   0   0  674.33   29.30
   4   0   1    6.20    2.60
  -4   0  -1   11.70    3.30
   4   0   1    6.00    2.00
  -4   0  -2  110.29    8.20
   4   0   2  115.19    7.90
   4   0   2  117.49    6.90
   4   0   3    0.30    2.00
   4   0   3    0.50    1.80
  -4   0  -3    1.20    2.90
   4   0   4   46.70    4.00
  -4   0  -4   55.29    7.40
   4   0   4   34.70    4.50
  -4   0  -5    7.10    4.10
  -4   0  -6    6.90    4.20
   4  -1  -6    6.50    2.60
  -4  -1   6    6.40    1.50
  -4  -1   6    9.80    2.10
  -4   1   5    5.00    1.40
  -4   1   5    3.00    0.90
   4   1  -5    4.40    2.50
   4  -1  -5    5.30    2.30
  -4  -1   5    2.60    2.10
  -4  -1   5    1.90    1.40
  -4   1   4  356.66   16.90
   4   1  -4  380.76   18.00
   4  -1  -4  384.56   18.00
  -4  -1   4  358.06   17.70
   4   1  -3   77.79    5.80
  -4   1   3   68.39    5.30
   4  -1  -3   72.09    5.70
  -4  -1   3   70.99    5.70
   4   1  -2  294.37   15.20
  -4   1   2  327.57   15.30
   4  -1  -2  294.27   15.40
  -4  -1   2  309.97   15.50
   4   1  -1   18.70    3.60
  -4   1   1   13.60    3.10
   4  -1  -1   17.50    3.60
  -4  -1   1   12.30    3.20
   4   1   0  171.98    9.80
  -4   1   0  167.38   10.00
  -4  -1   0  177.98   10.50
   4  -1   0  159.68   10.00
   4   1   1  104.89    5.80
  -4   1  -1   89.19    6.90
   4   1   1   85.39    6.50
  -4  -1  -1   85.99    6.90
   4  -1   1   86.39    5.80
   4  -1   1   78.79    6.70
   4   1   2   81.19    5.50
  -4   1  -2   85.19    7.20
   4   1   2   88.49    6.40
   4  -1   2   89.19    5.90
   4  -1   2   88.39    7.00
  -4  -1  -2   80.89    7.00
   4   1   3    9.90    2.80
  -4   1  -3    9.10    3.60
   4  -1   3    7.30    3.10
   4  -1   3    8.90    2.80
  -4  -1  -3   11.70    3.70
   4   1   4   12.00    2.60
  -4   1  -4   14.60    4.20
   4   1   4    9.40    2.00
   4  -1   4    8.40    3.00
  -4  -1  -4   18.00    4.70
   4  -1   4   10.70    2.50
  -4   1  -5   17.30    4.90
  -4  -1  -5   14.10    5.10
  -4   1  -6    7.70    4.70
  -4  -1  -6    2.90    4.30
  -4  -2   6    5.50    2.50
   4  -2  -6    3.10    2.30
  -4  -2   6    2.20    1.60
   4   2  -5   75.79    6.00
  -4  -2   5   66.49    4.70
  -4  -2   5   74.39    6.10
   4  -2  -5   63.89    5.60
  -4   2   4    7.80    1.80
   4   2  -4    3.10    2.00
  -4  -2   4    2.10    2.40
   4  -2  -4    1.50    1.90
  -4   2   3    1.10    1.70
   4   2  -3    2.80    2.00
   4  -2  -3    0.40    1.60
  -4  -2   3    2.30    2.30
  -4   2   2   11.90    2.70
   4   2  -2    5.90    2.40
  -4  -2   2    5.20    2.70
   4  -2  -2    8.30    3.00
  -4   2   1  100.19    7.40
   4   2  -1  127.69    7.70
  -4  -2   1  125.79    8.20
   4  -2  -1  122.79    8.00
   4   2   0    4.10    2.40
  -4   2   0    4.20    2.40
   4  -2   0    0.00    2.20
  -4  -2   0    2.50    2.50
   4   2   1   42.00    4.90
   4   2   1   41.10    3.50
  -4   2  -1   45.70    5.80
  -4  -2  -1   47.10    6.00
   4  -2   1   40.30    4.80
   4  -2   1   46.20    5.70
   4   2   2   59.39    4.90
   4   2   2   52.29    4.00
  -4   2  -2   65.89    7.10
  -4  -2  -2   63.39    7.20
   4  -2   2   46.30    4.40
   4  -2   2   56.49    6.60
  -4   2  -3   85.39    7.50
   4   2   3   95.19    6.00
   4  -2   3   75.09    6.80
  -4  -2  -3   90.29    7.70
   4  -2   3   66.89    6.70
  -4   2  -4   26.90    5.70
   4   2   4   24.20    2.50
  -4  -2  -4   34.40    5.80
   4  -2   4   21.20    4.20
   4  -2   4   21.00    3.40
  -4   2  -5    0.60    3.10
  -4   2  -5   -2.50    2.80
   4  -2   5    1.70    2.20
  -4  -2  -5   -0.90    3.10
   4  -3  -6   57.19    5.30
  -4  -3   6   65.69    5.80
  -4  -3   6   60.59    4.70
   4  -3  -5    3.50    2.20
  -4  -3   5    2.40    2.80
  -4  -3   5    1.60    1.60
  -4   3   4   86.39    4.50
   4   3  -4   71.79    5.90
   4  -3  -4   78.79    6.20
  -4  -3   4   78.59    6.60
   4   3  -3   -0.50    1.60
  -4   3   3   -1.60    1.40
   4  -3  -3   -0.30    1.70
  -4  -3   3    0.00    2.20
  -4   3   2   13.20    2.80
   4   3  -2    9.90    2.60
  -4  -3   2   11.70    3.30
   4  -3  -2    7.40    2.80
   4   3  -1   33.70    4.30
  -4   3   1   38.30    4.70
  -4  -3   1   25.30    4.60
   4  -3  -1   42.30    5.30
  -4   3   0  841.72   35.50
   4   3   0  807.22   34.90
   4  -3   0  809.72   34.80
  -4  -3   0  760.62   35.60
   4  -3   0  771.82   35.70
  -4   3  -1   45.30    5.60
   4   3   1   47.10    4.40
   4   3   1   38.90    3.30
   4  -3   1   43.20    5.60
  -4  -3  -1   38.00    5.40
   4  -3   1   46.70    4.30
   4   3   2  265.07   12.40
  -4   3  -2  231.18   13.60
  -4  -3  -2  239.98   13.80
   4  -3   2  232.28   13.70
   4  -3   2  232.58   12.60
  -4   3  -3    4.70    3.40
   4   3   3    4.30    1.80
  -4  -3  -3    9.00    3.80
   4  -3   3    6.10    3.10
  -4   3  -4   21.90    5.20
   4   3   4   21.70    2.10
  -4  -3  -4   27.40    5.60
   4  -3   4   18.00    4.20
   4  -3   4   17.50    3.50
  -4   3  -5   13.20    5.00
  -4   3  -5   23.70    5.60
  -4  -3  -5   24.00    5.30
   4  -3   5   15.30    3.40
  -4  -4   7   -0.20    2.60
  -4  -4   6   15.80    3.90
  -4  -4   6   10.60    2.50
   4  -4  -6   16.30    3.30
  -4  -4   5   73.89    6.80
   4  -4  -5   89.79    6.50
  -4  -4   5   87.79    5.90
   4   4  -4   20.60    4.20
  -4   4   4   16.60    1.20
   4  -4  -4   16.30    3.50
  -4  -4   4   17.40    3.70
   4   4  -3    0.80    1.80
  -4   4   3    1.00    1.50
   4  -4  -3    1.00    2.00
  -4  -4   3    2.50    2.60
   4   4  -2  449.76   20.40
  -4   4   2  441.56   19.80
   4  -4  -2  433.66   20.60
  -4  -4   2  393.96   20.70
  -4   4   1  104.79    6.90
   4   4  -1  107.39    6.90
   4  -4  -1   97.69    7.20
  -4  -4   1   94.69    7.40
   4   4   0   94.39    6.20
  -4   4   0   80.29    6.40
   4  -4   0   90.19    6.30
   4  -4   0   88.49    7.00
  -4  -4   0   91.89    7.00
   4   4   1    4.10    1.50
   4   4   1    5.30    2.30
  -4   4  -1    6.10    2.70
   4  -4   1    8.80    2.50
  -4  -4  -1    7.30    3.10
   4  -4   1    8.40    2.90
  -4   4  -2  209.58   12.20
   4   4   2  186.78    9.20
   4   4   2  204.48   10.10
   4  -4   2  181.98   12.00
  -4  -4  -2  192.18   11.90
   4   4   3    4.30    1.70
  -4   4  -3    3.10    3.20
  -4  -4  -3    2.20    3.10
  -4   4  -4   31.80    5.90
  -4   4  -4   38.60    6.30
  -4  -4  -4   42.50    6.60
   4  -4   4   25.40    4.30
  -4   4  -5   37.70    6.70
  -4   4  -5   31.90    6.10
   4  -4   5   18.60    3.90
  -4  -4  -5   40.90    6.70
  -4  -5   7   99.79    8.00
   4  -5  -6   13.00    3.20
  -4  -5   6   11.60    2.90
  -4  -5   6   14.70    4.00
  -4  -5   5   12.10    3.60
  -4  -5   5   10.10    2.50
   4  -5  -5    8.40    2.80
   4  -5  -4   18.90    3.50
  -4  -5   4   11.40    3.70
  -4   5   3  374.16   16.20
   4   5  -3  403.06   18.00
   4  -5  -3  329.27   17.40
  -4  -5   3  340.47   18.20
   4   5  -2   52.69    5.00
  -4   5   2   65.19    4.90
  -4  -5   2   63.89    5.80
   4  -5  -2   60.69    5.30
   4   5  -1   29.40    4.00
  -4   5   1   33.20    4.20
   4  -5  -1   27.00    4.80
  -4  -5   1   28.30    4.70
  -4   5   0   59.09    5.30
   4   5   0   57.99    4.80
   4  -5   0   63.39    6.90
  -4  -5   0   56.79    6.70
   4  -5   0   64.89    5.30
  -4   5  -1  172.58   10.60
   4   5   1  177.18    8.30
   4   5   1  193.88    9.60
   4  -5   1  149.49    9.60
   4  -5   1  167.38   11.10
  -4  -5  -1  173.98   10.70
  -4   5  -2    6.90    3.40
   4   5   2   12.30    2.40
  -4  -5  -2    8.20    3.60
   4   5   3   28.80    2.50
  -4   5  -3   31.00    5.80
  -4  -5  -3   32.60    5.70
   4  -5   3   31.90    4.30
  -4   5  -4    6.40    4.10
  -4   5  -4   12.70    4.40
   4  -5   4   10.40    3.10
  -4  -5  -4   15.30    4.60
  -4   5  -5   14.90    5.30
  -4   5  -5   12.50    4.70
  -4  -5  -5   10.30    4.30
   4  -5   5    6.50    3.30
  -4  -6   7   16.40    4.40
  -4  -6   6  101.59    8.60
   4  -6  -6  102.69    7.30
  -4  -6   5  109.29    8.10
   4  -6  -5   83.09    6.50
   4  -6  -4   91.59    6.50
  -4  -6   4   74.49    7.30
  -4   6   3   88.69    4.90
  -4  -6   3   82.89    7.00
   4  -6  -3   82.89    6.40
   4   6  -2  215.98   11.50
  -4   6   2  212.48   10.80
   4  -6  -2  212.28   12.00
  -4  -6   2  208.28   12.30
   4   6  -1  279.47   14.10
  -4   6   1  301.77   14.40
   4  -6  -1  279.87   15.10
  -4  -6   1  268.47   15.00
   4   6   0  340.17   15.80
  -4   6   0  321.57   16.50
   4  -6   0  315.77   17.30
   4  -6   0  329.97   16.50
  -4  -6   0  327.47   17.00
   4   6   1   72.59    4.00
  -4   6  -1   66.99    6.10
   4   6   1   76.99    5.20
  -4  -6  -1   64.99    7.30
   4   6   2   17.60    2.50
  -4   6  -2   29.80    5.10
  -4  -6  -2   23.00    4.60
  -4   6  -3   80.99    7.40
   4   6   3   66.79    3.40
   4  -6   3   77.59    6.00
  -4  -6  -3   69.69    7.90
  -4   6  -4  101.29    8.90
  -4   6  -4  101.69    8.90
   4  -6   4  101.79    7.60
  -4  -6  -4   99.19    8.80
  -4   6  -5   31.50    6.70
  -4   6  -5   30.50    6.00
  -4  -6  -5   30.60    6.70
   4  -6   5   26.10    4.80
  -4  -7   7    0.80    3.80
  -4  -7   6    6.80    3.70
  -4  -7   5   24.20    5.20
   4  -7  -5   38.50    4.70
   4  -7  -4  359.06   17.70
  -4  -7   4  365.96   19.10
  -4   7   3    0.80    1.10
   4  -7  -3    0.10    1.90
  -4  -7   3    1.00    2.70
  -4   7   2  464.35   20.30
   4   7  -2  447.46   21.20
   4  -7  -2  424.06   21.60
  -4  -7   2  464.25   22.40
  -4   7   1  129.59    7.70
   4   7  -1  119.19    7.60
  -4  -7   1  120.49    8.70
   4  -7  -1  123.59    8.70
   4   7   0  155.38    8.60
  -4   7   0  158.18    9.50
  -4  -7   0  144.59    9.90
  -4   7  -1   43.80    5.50
   4   7   1   29.70    3.50
   4   7   1   32.70    2.20
  -4  -7  -1   36.10    5.50
  -4   7  -2  207.28   12.30
   4   7   2  203.58    9.60
  -4  -7  -2  187.08   12.20
  -4   7  -3   43.20    6.40
  -4  -7  -3   31.20    5.70
   4  -7   3   29.40    4.50
  -4   7  -4    8.10    4.10
  -4   7  -4   15.40    5.00
   4  -7   4    9.20    3.40
  -4  -7  -4    6.20    3.80
  -4   7  -5   40.50    6.90
  -4   7  -5   25.60    6.80
   4  -7   5   32.30    5.30
  -4  -8   7    2.40    4.10
  -4  -8   6   59.19    8.00
  -4  -8   5   85.69    8.50
   4  -8  -5  100.59    7.00
   4  -8  -4   48.00    5.60
  -4  -8   4   50.99    7.10
  -4  -8   3   20.80    4.70
   4  -8  -3   19.00    3.80
  -4   8   2  110.89    6.40
  -4  -8   2  100.89    8.20
   4  -8  -2   96.79    8.30
  -4   8   1  132.89    8.30
   4   8  -1  146.79    8.50
  -4  -8   1  139.89    9.70
   4   8   0  131.69    7.60
  -4   8   0  125.39    8.50
  -4  -8   0  126.29    9.30
  -4   8  -1   79.19    6.90
   4   8   1   91.79    5.60
  -4  -8  -1   98.09    7.80
   4   8   2    5.60    1.60
  -4   8  -2    3.10    3.00
  -4  -8  -2    8.50    3.70
  -4   8  -3   27.00    5.30
   4  -8   3   19.80    4.20
  -4  -8  -3   20.30    4.80
  -4   8  -4   10.30    4.40
  -4   8  -4   10.90    4.90
  -4  -8  -4    3.10    3.80
   4  -8   4    7.20    3.40
  -4  -9   6   24.60    6.10
  -4  -9   5   22.00    5.50
   4  -9  -5   23.30    4.00
  -4  -9   4    0.00    3.20
   4  -9  -4    2.70    2.50
  -4  -9   3  395.96   20.80
  -4   9   2    4.20    1.90
  -4  -9   2    7.20    4.00
   4   9  -1   50.59    5.70
  -4   9   1   50.49    5.30
  -4  -9   1   49.80    6.70
  -4   9   0   70.59    6.00
   4   9   0   68.79    5.20
  -4  -9   0   81.29    8.60
  -4   9  -1   12.50    3.60
   4   9   1   12.20    2.30
  -4  -9  -1   11.60    4.00
  -4   9  -2   51.89    6.50
   4  -9   2   53.29    6.20
  -4  -9  -2   41.40    6.50
  -4   9  -3   -1.60    2.60
   4  -9   3    2.70    2.90
  -4  -9  -3    3.20    3.70
  -4   9  -4    7.40    4.20
  -4  -9  -4    6.90    4.10
   4  -9   4    2.10    3.50
  -4 -10   6   16.90    5.80
  -4 -10   5   35.10    6.60
  -4 -10   4   58.29    8.00
  -4 -10   3   21.50    5.10
  -4 -10   2   93.29    8.30
  -4  10   1   90.79    6.50
  -4 -10   1  103.09    8.40
   4  10   0   86.69    4.60
   4  10   0   84.39    5.80
  -4  10   0   82.39    6.70
  -4 -10   0   73.49    7.40
  -4  10  -1   39.50    5.80
   4  10   1   36.80    3.50
  -4 -10  -1   32.60    5.80
  -4  10  -2  112.49    8.70
   4 -10   2  113.19    8.50
  -4 -10  -2  114.39    9.40
  -4  10  -3   55.29    7.10
   4 -10   3   38.70    5.90
  -4 -10  -3   60.69    7.90
  -4  10  -4   60.59    7.90
   4 -10   4   61.69    7.10
  -4 -11   6   64.49    9.20
  -4 -11   5   27.60    6.10
  -4 -11   4    9.30    4.50
  -4 -11   3    4.10    3.70
  -4 -11   2   34.50    6.10
  -4  11   1   41.20    4.90
   4  11  -1   36.70    3.60
  -4 -11   1   37.50    6.60
  -4  11   0   98.89    7.20
   4  11   0   98.69    5.20
   4  11   0   91.59    6.30
  -4 -11   0  102.59   10.30
  -4  11  -1   66.39    7.20
  -4 -11  -1   72.19    8.30
   4 -11   1   67.79    6.30
  -4  11  -2   34.80    5.70
   4 -11   2   29.20    5.20
  -4 -11  -2   29.90    5.90
  -4  11  -3   -1.40    3.10
  -4 -11  -3    3.90    4.10
   4 -11   3    4.50    3.50
  -4 -12   5   15.60    5.70
  -4 -12   4    1.10    3.90
  -4 -12   3    0.60    3.50
   4  12  -2    2.50    2.30
  -4 -12   2   -1.70    3.70
   4  12  -1   64.79    4.80
  -4 -12   1   67.29    8.40
   4  12   0   16.40    4.80
  -4  12   0   25.60    4.50
  -4 -12   0   22.20    5.30
  -4  12  -1   55.49    6.50
   4 -12   1   59.99    7.00
  -4 -12  -1   59.59    8.10
  -4  12  -2   26.70    5.10
  -4 -12  -2   24.50    5.70
   4 -12   2   17.50    4.60
  -4  12  -3   64.59    8.00
   4 -12   3   66.29    7.60
  -4 -12  -3   62.49    8.40
   4  13  -4   66.39    6.50
  -4 -13   4   58.79    8.50
   4  13  -3   26.50    4.60
  -4 -13   3   20.10    5.70
   4  13  -2   92.19    6.70
  -4 -13   2   87.49   10.00
  -4 -13   1   51.69    8.10
   4 -13   0   16.50    4.50
  -4 -13   0   17.10    5.20
  -4  13  -1   30.20    5.00
   4 -13   1   28.90    5.30
  -4 -13  -1   32.00    6.30
  -4  13  -2   51.59    6.80
  -4 -13  -2   63.99    8.60
   4 -13   2   63.69    7.40
   4  14  -3   16.50    4.20
  -4 -14   3   10.60    5.10
   4  14  -2   58.89    5.40
  -4 -14   2   47.10    7.70
  -4 -14   1    4.90    4.20
   4 -14  -1    5.20    3.10
  -4 -14   0   83.69    9.90
   4 -14   0   93.49    7.90
  -4 -14  -1   13.50    5.20
   4 -14   1   10.60    4.10
   4 -15  -1    0.80    3.20
  -4 -15   1   -4.80    3.70
  -5   0   6  196.18    9.80
  -5   0   5    4.00    2.40
  -5   0   4  163.58    9.90
   5   0  -4  160.28   10.20
  -5   0   3   -1.10    2.10
   5   0  -3    0.60    2.20
  -5   0   2  365.16   18.00
   5   0  -2  332.47   17.70
   5   0  -1    1.60    2.30
  -5   0   1    2.70    2.50
  -5   0   0   94.69    7.90
   5   0   0  108.49    7.90
  -5   0  -1    0.80    2.70
   5   0   1    2.70    2.60
   5   0   1    2.10    1.90
   5   0   2   72.19    6.50
  -5   0  -2   68.39    8.20
   5   0   2   50.29    4.80
   5   0   3    2.20    2.60
  -5   0  -3   -0.70    3.20
   5   0   4   -0.90    2.00
  -5   0  -4   -0.50    3.60
  -5   0  -5    1.80    4.10
  -5  -1   6   56.19    5.10
  -5  -1   6   67.39    5.40
  -5   1   5   40.80    4.30
  -5  -1   5   36.10    4.90
  -5   1   4   76.29    6.10
  -5  -1   4   74.69    6.60
   5  -1  -4   70.79    6.30
  -5   1   3  149.88    9.20
   5   1  -3  144.49    9.40
   5  -1  -3  155.68    9.60
  -5  -1   3  120.59    9.20
  -5   1   2   24.90    4.40
   5   1  -2   28.40    4.70
   5  -1  -2   25.20    4.60
  -5  -1   2   24.80    4.80
  -5   1   1   31.50    5.00
   5   1  -1   31.10    5.10
  -5  -1   1   34.40    5.50
   5  -1  -1   37.30    5.40
   5   1   0   93.79    7.40
  -5   1   0  110.89    8.10
   5  -1   0  106.99    8.00
  -5  -1   0   92.09    7.90
   5   1   1   62.99    6.10
  -5   1  -1   63.69    7.50
   5   1   1   61.49    5.00
   5  -1   1   52.79    6.80
   5  -1   1   59.99    5.10
  -5  -1  -1   62.79    7.40
   5   1   2   14.70    3.60
  -5   1  -2   13.50    4.10
   5   1   2   10.50    2.80
  -5  -1  -2   20.50    5.30
   5  -1   2   10.20    3.60
   5  -1   2   13.00    3.20
  -5   1  -3   11.40    4.70
   5   1   3   11.70    3.40
   5   1   3   17.20    3.40
  -5  -1  -3   17.30    5.20
   5  -1   3   12.80    3.80
   5   1   4    1.90    2.10
  -5   1  -4    2.20    3.60
  -5  -1  -4    2.40    3.80
   5  -1   4    2.20    2.50
  -5   1  -5    8.40    5.00
  -5  -1  -5    2.00    4.40
  -5  -2   6   17.20    3.80
  -5  -2   6   14.30    2.70
  -5   2   5  111.59    6.30
  -5  -2   5  106.29    8.00
   5  -2  -5  115.19   13.40
  -5   2   4   19.50    3.40
   5  -2  -4   20.30    4.20
  -5  -2   4   12.80    3.70
  -5   2   3   72.89    6.00
   5   2  -3   72.59    6.30
   5  -2  -3   88.99    6.90
  -5  -2   3   68.49    6.50
   5   2  -2   29.60    4.60
  -5   2   2   26.60    4.70
  -5  -2   2   24.00    4.50
   5  -2  -2   33.00    5.10
  -5   2   1  286.27   15.70
   5   2  -1  323.77   15.90
   5  -2  -1  303.67   16.20
  -5  -2   1  280.47   16.00
  -5   2   0   32.00    5.20
   5   2   0   42.30    5.40
  -5  -2   0   28.20    5.20
   5  -2   0   30.30    5.30
   5   2   1    8.70    2.90
  -5   2  -1    6.30    3.20
   5   2   1    1.10    2.00
   5  -2   1    2.70    2.40
   5  -2   1    2.00    3.10
  -5  -2  -1    5.70    3.40
  -5   2  -2   10.60    4.20
   5   2   2    8.80    3.20
   5   2   2    8.90    2.40
  -5  -2  -2    9.70    4.10
  -5   2  -3   15.50    5.10
   5   2   3   18.60    3.40
   5   2   3   19.10    3.60
  -5  -2  -3   18.50    4.90
  -5   2  -4   11.70    4.80
   5  -2   4    9.50    3.20
  -5  -2  -4   17.00    5.60
  -5   2  -5   11.10    5.10
  -5  -2  -5   15.70    4.80
  -5  -3   6    3.60    3.00
  -5  -3   6    2.60    2.00
  -5   3   5   28.10    2.30
   5  -3  -5   32.00    5.40
  -5  -3   5   22.90    4.60
  -5   3   4  428.76   18.70
   5  -3  -4  376.46   20.10
  -5   3   3  120.99    7.60
   5  -3  -3  112.69    8.40
  -5  -3   3  111.59    8.50
   5   3  -2  261.67   14.00
  -5   3   2  248.78   13.70
   5  -3  -2  280.57   14.80
  -5  -3   2  252.27   14.70
  -5   3   1    5.60    2.80
   5   3  -1    5.10    2.50
  -5  -3   1    5.90    3.40
   5  -3  -1    6.50    3.20
  -5   3   0   74.69    7.80
   5   3   0   70.69    6.00
  -5  -3   0   79.89    7.20
   5  -3   0   67.49    5.80
  -5   3  -1   43.80    6.20
   5   3   1   30.00    4.50
   5   3   1   32.00    3.90
  -5  -3  -1   38.10    6.20
   5   3   2   11.70    3.20
  -5   3  -2    6.70    3.80
   5   3   2   18.40    3.00
  -5  -3  -2   17.00    4.80
  -5   3  -3   38.20    6.40
   5   3   3   27.80    4.20
  -5  -3  -3   44.40    7.20
  -5   3  -4   76.59    9.50
  -5  -3  -4   62.39    8.50
   5  -3   4   70.09    6.00
  -5   3  -5   27.90    6.60
  -5  -3  -5   26.80    6.20
  -5  -4   7    3.90    3.20
  -5  -4   6  133.29    8.40
  -5  -4   6  153.28   10.20
   5  -4  -5    8.90    3.80
  -5  -4   5    8.40    3.80
  -5   4   4   63.19    4.60
  -5  -4   4   60.69    7.20
   5  -4  -4   68.19    7.40
  -5   4   3   24.20    3.80
  -5  -4   3   23.90    4.90
   5  -4  -3   19.90    4.20
   5   4  -2  184.48   11.90
  -5   4   2  200.48   10.90
   5  -4  -2  188.28   11.60
  -5  -4   2  172.28   11.50
   5   4  -1    2.80    2.30
  -5   4   1    0.70    2.40
  -5  -4   1    0.20    2.60
   5   4   0   21.30    4.00
  -5   4   0   11.40    3.40
  -5  -4   0   15.20    4.30
   5   4   1  286.97   13.60
   5   4   1  303.27   15.00
  -5   4  -1  259.47   15.50
  -5  -4  -1  295.77   16.40
   5   4   2  144.69    8.70
   5   4   2  136.39    7.50
  -5   4  -2  139.19   10.20
  -5  -4  -2  145.39   11.00
  -5   4  -3   88.09    8.50
  -5  -4  -3   91.09    8.60
  -5   4  -4   26.00    6.00
  -5  -4  -4   13.00    4.80
   5  -4   4   10.50    3.30
  -5  -5   7   37.60    5.60
  -5  -5   6   14.00    4.40
  -5  -5   5   50.49    6.70
  -5   5   4   12.40    2.20
   5  -5  -4   19.80    4.40
  -5  -5   4    7.40    3.80
  -5   5   3   77.59    5.80
   5  -5  -3   84.09    7.00
  -5  -5   3   91.79    7.80
  -5   5   2   32.70    4.40
  -5  -5   2   24.30    5.20
   5   5  -1  299.47   15.10
  -5   5   1  290.57   15.20
  -5  -5   1  278.77   16.20
  -5   5   0   34.50    5.30
   5   5   0   21.10    3.80
  -5  -5   0   29.90    5.50
   5   5   1  112.99    7.30
   5   5   1  102.99    6.10
  -5   5  -1  118.79    8.80
  -5  -5  -1   91.99    8.80
   5   5   2   35.60    4.40
   5   5   2   39.90    3.20
  -5   5  -2   50.49    6.70
  -5  -5  -2   46.90    7.30
  -5   5  -3  209.88   14.30
  -5  -5  -3  244.98   15.00
  -5   5  -4   88.79   10.10
  -5  -5  -4   73.19    9.40
   5  -5   4   81.89    7.00
  -5  -6   7   22.40    5.30
  -5  -6   6   56.09    7.60
  -5  -6   5   77.09    8.70
  -5   6   4  130.49    6.40
  -5  -6   4  113.89    9.70
  -5   6   3  141.79    7.90
  -5  -6   3  125.49    9.80
  -5   6   2   79.09    6.20
  -5  -6   2   81.39    7.90
  -5   6   1  107.59    7.50
  -5  -6   1   90.59    8.50
   5   6   0  297.67   15.30
  -5   6   0  296.37   16.20
  -5  -6   0  312.37   17.10
  -5   6  -1  202.58   12.60
   5   6   1  220.38   11.40
   5   6   1  205.48    9.90
  -5  -6  -1  197.38   13.30
  -5   6  -2   21.90    5.40
   5   6   2   15.00    2.80
  -5  -6  -2   17.20    5.00
  -5   6  -3  128.39   10.10
  -5  -6  -3  114.29   10.40
  -5   6  -4   17.30    5.40
  -5  -6  -4   13.30    5.30
   5  -6   4    6.40    3.50
  -5  -7   7    0.90    4.10
  -5  -7   6   66.59    8.50
  -5  -7   5   51.09    7.20
  -5  -7   4  135.59   10.30
  -5   7   3   43.10    3.90
  -5  -7   3   40.20    6.50
  -5   7   2  229.68   11.90
  -5  -7   2  206.78   13.50
  -5   7   1   23.20    4.20
  -5  -7   1   25.30    5.40
   5   7   0   57.19    6.20
  -5   7   0   72.99    7.70
  -5  -7   0   62.89    7.90
  -5   7  -1   48.50    6.50
   5   7   1   38.70    3.00
   5   7   1   35.70    4.40
  -5  -7  -1   52.29    7.50
  -5   7  -2   92.89    8.30
  -5  -7  -2   95.09    9.20
  -5   7  -3    5.00    3.70
  -5  -7  -3    7.40    4.30
   5  -7   3    3.70    3.10
  -5   7  -4   11.00    4.70
  -5  -7  -4    8.50    5.10
   5  -7   4    2.40    3.40
  -5  -8   6    8.30    4.30
  -5  -8   5   12.80    5.00
  -5  -8   4   32.20    6.20
  -5   8   3    5.70    2.10
  -5  -8   3    4.30    3.70
  -5   8   2   19.40    3.70
  -5  -8   2   19.00    5.00
  -5   8   1   17.40    3.80
  -5  -8   1   14.10    4.50
  -5   8   0   10.90    3.60
   5   8   0   11.40    3.00
  -5  -8   0    9.90    4.50
  -5   8  -1  113.19    8.70
   5   8   1  111.79    7.10
  -5  -8  -1  127.39    9.90
  -5   8  -2    1.90    3.10
  -5  -8  -2    3.00    4.00
  -5   8  -3   11.10    4.20
   5  -8   3   17.70    4.60
  -5  -8  -3    8.50    4.80
  -5   8  -4   -2.90    3.20
   5  -8   4    6.00    4.00
  -5  -8  -4    2.70    4.60
  -5  -9   6    0.80    4.30
  -5  -9   5   10.70    4.80
  -5  -9   4   74.29    9.10
  -5   9   3    2.70    1.80
  -5  -9   3    2.00    3.70
  -5   9   2   76.69    5.90
  -5  -9   2   84.29    9.30
  -5   9   1  119.39    8.00
  -5  -9   1  117.29    9.70
  -5   9   0    6.10    3.10
  -5  -9   0    7.10    3.70
  -5   9  -1    6.10    3.40
   5   9   1   -0.20    2.70
  -5  -9  -1   10.00    4.80
  -5   9  -2   15.80    4.50
  -5  -9  -2   17.00    5.30
  -5   9  -3  102.29    9.00
   5  -9   3   94.19    8.30
  -5  -9  -3  105.59   11.30
  -5 -10   6   64.79    9.30
  -5 -10   5   12.40    4.90
  -5 -10   4   50.19    7.80
  -5 -10   3   12.00    4.50
  -5  10   2  143.29    8.50
  -5 -10   2  139.69   11.00
  -5  10   1   61.19    6.40
  -5 -10   1   57.19    7.90
  -5  10   0  115.79    8.30
  -5 -10   0  104.19    9.50
  -5  10  -1  115.79    9.30
  -5 -10  -1  144.39   10.90
  -5  10  -2   24.90    5.20
  -5 -10  -2   16.20    5.30
   5 -10   2   23.60    4.80
  -5  10  -3    8.60    4.20
  -5 -10  -3   19.90    6.00
   5 -10   3   12.30    4.60
  -5 -11   5   80.69   10.60
  -5 -11   4  107.09   11.70
  -5 -11   3  117.19   10.30
  -5  11   2   37.70    4.60
  -5 -11   2   46.40    7.50
  -5  11   1   -1.40    2.30
  -5 -11   1   -0.20    3.40
  -5  11   0   73.59    7.80
  -5 -11   0   59.79    8.60
  -5  11  -1   36.00    5.90
  -5 -11  -1   37.50    7.00
  -5  11  -2   10.30    4.00
   5 -11   2   10.20    4.20
  -5 -11  -2   11.20    5.10
  -5 -12   4    2.70    4.30
  -5 -12   3   62.89    9.10
  -5 -12   2    8.50    4.70
  -5 -12   1  104.59   10.10
  -5  12   0    4.50    3.10
  -5 -12   0    3.00    4.20
  -5  12  -1   26.70    5.20
  -5 -12  -1   25.50    6.50
   5 -12   1   26.60    5.10
  -5  12  -2    2.40    3.40
  -5 -13   3   24.20    6.40
  -5 -13   2   41.20    7.60
  -5 -13   1   58.39    8.70
  -5  13   0   10.60    3.50
  -5 -13   0   11.70    5.00
  -5  13  -1   16.00    4.30
  -5 -13  -1   12.70    5.60
   5 -13   1   19.40    4.80
  -6   0   6  142.69    8.80
  -6   0   5   -2.00    2.70
  -6   0   4   44.10    6.20
  -6   0   3    2.60    2.70
  -6   0   2   49.80    6.70
  -6   0   1   -3.30    1.90
  -6   0   0   25.20    5.70
  -6   0  -1    3.50    3.60
  -6   0  -2   76.99    9.60
  -6   0  -3    8.40    4.80
  -6   0  -4    3.40    4.90
   6   0   4   -4.10    3.80
  -6   1   6    6.50    2.30
  -6  -1   6    4.20    2.90
  -6   1   5   21.00    4.10
  -6  -1   5   21.80    4.50
  -6   1   4   66.29    6.40
  -6  -1   4   60.09    7.30
  -6   1   3   43.40    5.90
  -6  -1   3   39.70    6.10
  -6   1   2    3.80    3.10
  -6  -1   2    3.10    3.10
  -6   1   1   78.89    7.50
  -6  -1   1   90.99    7.90
  -6   1   0    5.90    3.70
  -6  -1   0   -0.90    2.90
  -6   1  -1   77.59    9.00
   6   1   1   51.99    5.10
  -6  -1  -1   52.39    7.70
  -6   1  -2   64.19    9.10
  -6  -1  -2   66.09    8.90
  -6   1  -3   17.40    5.50
  -6  -1  -3   17.10    5.90
  -6   1  -4   31.60    6.90
  -6  -1  -4   48.60    8.70
  -6  -2   6    0.50    2.60
  -6   2   5   82.49    6.20
  -6  -2   5   72.09    8.20
  -6   2   4    0.90    2.50
  -6  -2   4   -0.90    2.90
  -6   2   3   26.80    4.90
  -6  -2   3   23.80    5.20
  -6   2   2   47.00    6.40
  -6  -2   2   64.79    7.90
  -6   2   1   29.20    5.20
  -6  -2   1   34.20    6.00
  -6   2   0   69.59    8.20
  -6  -2   0   76.69    9.20
  -6   2  -1   88.09    8.30
   6   2   1   87.29    6.40
  -6  -2  -1   94.99    9.10
   6   2   2    1.90    2.20
  -6   2  -2    5.10    3.70
  -6  -2  -2    1.50    3.40
  -6   2  -3   46.70    7.70
  -6  -2  -3   37.50    7.70
  -6   2  -4   29.40    6.90
  -6  -2  -4   31.30    7.30
   6  -2   4   27.40    4.70
  -6  -3   6   10.20    3.80
  -6   3   5   23.00    3.40
  -6  -3   5   17.00    4.50
  -6   3   4  148.29    8.90
  -6  -3   4  117.49    9.80
  -6   3   3    2.70    2.60
  -6  -3   3    0.30    2.90
  -6   3   2   11.60    3.50
  -6  -3   2   15.90    4.50
  -6   3   1    3.80    2.80
  -6  -3   1    2.40    3.50
  -6   3   0  204.08   13.00
  -6  -3   0  203.38   13.60
   6   3   1   23.10    3.70
  -6   3  -1   13.50    4.40
  -6  -3  -1   24.20    5.70
  -6   3  -2  139.19   11.00
  -6  -3  -2  154.58   12.00
  -6   3  -3   32.20    6.50
  -6  -3  -3   26.50    6.60
  -6   3  -4   10.60    5.20
  -6  -3  -4    4.50    4.90
   6  -3   4    6.80    3.50
  -6  -4   7   27.10    5.60
  -6  -4   6   84.69    8.20
  -6   4   5    3.50    1.80
  -6  -4   5    2.40    3.20
  -6   4   4    4.00    2.60
  -6  -4   4    1.60    3.20
  -6   4   3  361.06   18.60
  -6  -4   3  388.06   20.40
  -6   4   2  416.16   20.10
  -6  -4   2  367.86   21.00
  -6   4   1  261.27   14.80
  -6  -4   1  258.97   15.80
  -6   4   0   83.39    7.80
  -6  -4   0  116.69    9.50
  -6   4  -1   27.70    5.50
   6   4   1   30.10    4.10
  -6  -4  -1   28.30    6.10
  -6   4  -2   26.50    6.10
   6   4   2   17.30    4.70
  -6  -4  -2   17.20    5.70
  -6   4  -3   64.29    9.00
  -6  -4  -3   89.79   10.70
  -6  -5   7    8.70    4.40
  -6  -5   6   23.40    5.50
  -6   5   5  314.67   14.20
  -6  -5   5  322.57   18.20
  -6  -5   4   83.09    9.30
  -6   5   3  209.68   11.90
  -6  -5   3  208.38   13.70
  -6   5   2    6.60    3.50
  -6  -5   2    7.80    4.10
  -6   5   1  378.16   19.60
  -6  -5   1  379.16   20.80
  -6   5   0  111.49    8.90
  -6  -5   0  101.29    9.40
   6   5   1  385.06   19.70
  -6   5  -1  366.56   20.20
  -6  -5  -1  365.16   20.90
  -6   5  -2   52.99    7.70
  -6  -5  -2   51.39    8.40
  -6   5  -3    2.20    4.00
  -6  -5  -3   -0.60    3.80
  -6  -6   7   57.69    7.70
  -6  -6   6   16.10    5.20
  -6  -6   5   54.19    7.70
  -6   6   4  116.39    7.00
  -6  -6   4   93.39    9.10
  -6   6   3  274.77   14.60
  -6  -6   3  297.27   17.20
  -6   6   2   26.10    4.90
  -6  -6   2   23.20    5.90
  -6   6   1  239.98   14.10
  -6  -6   1  250.67   15.80
  -6   6   0    2.50    3.40
  -6  -6   0    3.30    3.80
  -6   6  -1   24.10    5.20
  -6  -6  -1   21.40    5.70
  -6   6  -2    9.90    4.30
  -6  -6  -2    3.10    4.70
  -6   6  -3   26.30    6.10
  -6  -6  -3    6.60    5.10
  -6  -7   6   40.00    7.30
  -6  -7   5    6.70    4.50
  -6   7   4   29.90    3.60
  -6  -7   4   27.10    6.20
  -6   7   3   21.50    3.80
  -6  -7   3   16.80    5.40
  -6   7   2   35.20    5.40
  -6  -7   2   31.10    6.20
  -6   7   1   -2.20    2.70
  -6  -7   1    3.70    3.70
  -6   7   0    0.60    2.80
  -6  -7   0    0.90    3.90
  -6   7  -1   -0.50    3.00
  -6  -7  -1   -4.90    3.60
  -6   7  -2    5.60    3.80
  -6  -7  -2   12.10    5.10
  -6   7  -3   -0.90    3.50
  -6  -7  -3    8.20    5.40
   6  -7   3    1.10    3.10
  -6  -8   6   13.40    5.50
  -6  -8   5    4.40    4.10
  -6   8   4    5.20    1.90
  -6  -8   4    4.90    4.30
  -6   8   3  155.38    9.00
  -6  -8   3  144.69   11.60
  -6   8   2    1.60    2.90
  -6  -8   2    6.40    4.80
  -6   8   1   75.89    6.90
  -6  -8   1   84.99   10.50
  -6   8   0    3.60    3.40
  -6  -8   0    1.90    3.80
  -6   8  -1   31.20    6.10
  -6  -8  -1   14.00    5.20
  -6   8  -2    1.60    3.30
  -6  -8  -2    3.10    4.40
  -6  -9   5  136.29   11.80
  -6  -9   4    4.20    4.30
  -6   9   3   50.39    4.70
  -6  -9   3   51.69    8.00
  -6   9   2    2.50    2.60
  -6  -9   2    2.90    4.10
  -6   9   1  125.49    9.10
  -6  -9   1  131.39   11.00
  -6   9   0   19.60    4.50
  -6  -9   0   36.10    7.00
  -6   9  -1   54.79    7.20
  -6  -9  -1   37.70    7.80
  -6   9  -2   21.40    5.20
  -6  -9  -2   18.10    6.50
  -6 -10   5    2.60    4.60
  -6 -10   4   20.70    5.70
  -6 -10   3   68.89    9.20
  -6  10   2   53.79    6.00
  -6 -10   2   57.49    8.50
  -6  10   1   18.70    4.40
  -6 -10   1   16.30    5.50
  -6  10   0    8.00    3.80
  -6 -10   0   -3.10    3.90
  -6  10  -1   -0.20    3.00
  -6 -10  -1    6.50    4.80
  -6 -11   4   29.00    6.60
  -6 -11   3    6.30    4.70
  -6  11   2    0.80    2.50
  -6 -11   2   -1.40    3.30
  -6  11   1   25.20    4.50
  -6 -11   1   26.10    6.40
  -6  11   0   40.20    6.20
  -6 -11   0   35.50    7.80
  -6  11  -1   45.90    6.60
  -6 -11  -1   48.90    8.80
  -6 -12   3   55.99    8.90
  -6  12   2   -2.30    2.20
  -6 -12   2   -1.70    4.00
  -6  12   1   56.09    6.60
  -6 -12   1   73.59   10.40
  -6  12   0   22.60    4.90
  -6 -12   0   45.80    8.00
  -7   0   6   10.00    3.70
  -7   0   5   -1.70    2.90
  -7   0   4   99.29    8.40
  -7   0   3    2.90    3.50
  -7   0   2  188.68   13.10
  -7   0   1   -0.50    3.30
  -7   0   0   11.20    4.40
  -7   0  -1    2.10    3.80
  -7   0  -2   22.30    6.50
  -7   0  -3   -2.30    3.80
  -7   1   6   14.70    4.40
  -7  -1   6   12.40    4.00
  -7   1   5   88.69    7.50
  -7  -1   5   84.49    8.00
  -7   1   4   20.70    4.80
  -7  -1   4   23.90    5.30
  -7   1   3   97.09    8.40
  -7  -1   3   87.39    8.50
  -7   1   2   85.99    8.20
  -7  -1   2   81.19    9.40
  -7   1   1   40.70    7.10
  -7  -1   1   35.00    6.70
  -7   1   0  100.29    9.60
  -7  -1   0   95.39    9.30
  -7   1  -1   28.30    6.40
  -7  -1  -1   31.60    7.30
  -7   1  -2    0.50    4.00
  -7  -1  -2    6.60    5.10
  -7   1  -3    6.30    5.30
  -7  -1  -3    1.20    4.30
  -7  -2   6   43.20    6.30
  -7   2   5   27.70    4.80
  -7  -2   5   23.00    5.40
  -7   2   4  105.49    8.30
  -7  -2   4   92.89    9.00
  -7   2   3  152.78   10.70
  -7  -2   3  151.08   11.70
  -7   2   2   18.20    5.00
  -7  -2   2   13.30    4.60
  -7   2   1  136.99   10.30
  -7  -2   1  115.69   10.70
  -7   2   0    5.70    3.70
  -7  -2   0    5.50    3.90
  -7   2  -1    7.00    4.20
  -7  -2  -1   10.60    5.20
  -7   2  -2    2.70    4.40
  -7  -2  -2   11.80    5.50
  -7  -3   6   17.00    4.70
  -7   3   5    6.60    3.00
  -7  -3   5    8.30    4.20
  -7   3   4  122.69    8.90
  -7  -3   4  116.29   10.20
  -7   3   3   -0.20    2.50
  -7  -3   3    2.50    3.50
  -7   3   2   81.29    9.00
  -7  -3   2   76.09    9.70
  -7   3   1   36.00    6.50
  -7  -3   1   28.70    6.80
  -7   3   0   -2.00    2.80
  -7  -3   0   -2.00    3.10
  -7   3  -1   10.30    4.40
  -7  -3  -1   13.40    5.50
  -7   3  -2    8.80    4.70
  -7  -3  -2    8.90    5.10
  -7  -4   6  169.28   12.30
  -7  -4   5  123.99   10.30
  -7   4   4   78.39    6.80
  -7  -4   4   66.29    8.80
  -7   4   3    7.10    3.50
  -7  -4   3   10.10    4.40
  -7   4   2    3.70    3.10
  -7  -4   2   -0.70    3.80
  -7   4   1   32.40    5.70
  -7  -4   1   28.30    6.60
  -7   4   0   -1.60    3.40
  -7  -4   0    0.50    3.80
  -7   4  -1   11.30    4.70
  -7  -4  -1    7.00    4.30
  -7   4  -2    2.60    4.20
  -7  -4  -2   -3.30    3.80
  -7  -5   6   12.10    4.90
  -7  -5   5  148.79   11.60
  -7   5   4    9.90    3.40
  -7  -5   4    9.40    4.40
  -7   5   3  193.98   12.00
  -7  -5   3  191.48   13.60
  -7   5   2   15.30    4.30
  -7  -5   2   21.80    5.40
  -7   5   1   41.30    6.80
  -7  -5   1   30.70    6.70
  -7   5   0    8.50    4.20
  -7  -5   0   15.80    5.50
  -7   5  -1    2.00    3.80
  -7  -5  -1    0.00    3.50
  -7   5  -2    7.10    4.60
  -7  -5  -2   12.20    5.60
  -7  -6   6    6.40    4.60
  -7  -6   5   95.39   10.80
  -7   6   4   34.50    4.80
  -7  -6   4   24.80    6.30
  -7   6   3   27.40    4.60
  -7  -6   3   37.20    7.20
  -7   6   2   74.29    7.30
  -7  -6   2   80.19    9.80
  -7   6   1    1.20    2.90
  -7  -6   1    3.00    4.10
  -7   6   0    0.60    3.20
  -7  -6   0    8.90    4.90
  -7   6  -1   60.69    8.40
  -7  -6  -1   79.19   10.90
  -7   6  -2    5.90    4.50
  -7  -6  -2   16.10    6.00
  -7  -7   5    2.60    4.40
  -7   7   4   35.00    4.50
  -7  -7   4   32.40    6.60
  -7   7   3    6.50    3.10
  -7  -7   3    4.70    4.20
  -7   7   2    8.50    3.60
  -7  -7   2   10.40    5.50
  -7   7   1    9.40    4.30
  -7  -7   1    8.00    4.90
  -7   7   0   71.69    8.90
  -7  -7   0   60.69    9.00
  -7   7  -1    6.30    4.10
  -7  -7  -1    6.20    4.70
  -7  -8   5   43.60    7.90
  -7  -8   4   12.50    5.20
  -7   8   3   30.70    4.70
  -7  -8   3   29.70    6.80
  -7   8   2   13.00    3.80
  -7  -8   2   19.70    5.80
  -7   8   1   26.50    5.10
  -7  -8   1   46.00    8.00
  -7   8   0    6.50    3.70
  -7  -8   0    4.10    4.80
  -7   8  -1    8.70    4.50
  -7  -8  -1   16.00    6.80
  -7  -9   4   22.40    7.00
  -7   9   3   10.90    3.30
  -7  -9   3   17.10    6.30
  -7   9   2   13.50    3.90
  -7  -9   2    6.30    4.90
  -7   9   1   43.50    6.80
  -7  -9   1   30.60    7.30
  -7   9   0   -2.40    2.90
  -7  -9   0   -4.10    4.70
  -7  10   3    1.10    2.60
  -7 -10   3    6.00    5.40
  -7  10   2   48.70    6.20
  -7 -10   2   40.40    8.10
  -7  10   1   35.40    5.60
  -7 -10   1   43.00    8.10
  -8   0   5   -3.00    3.00
  -8   0   4    3.40    3.80
  -8   0   3   -2.90    3.00
  -8   0   2    5.50    4.10
  -8   0   1   -1.80    3.40
  -8   0   0   65.09    9.30
  -8   0  -1    0.40    4.00
  -8  -1   6   14.20    4.50
  -8   1   5   26.10    5.40
  -8  -1   5   15.80    4.70
  -8   1   4   41.80    6.50
  -8  -1   4   39.20    6.90
  -8   1   3    4.90    4.00
  -8  -1   3    3.90    3.60
  -8   1   2    1.10    3.90
  -8  -1   2   -1.00    3.50
  -8   1   1   28.20    6.30
  -8  -1   1   28.80    6.60
  -8   1   0   -0.60    3.50
  -8  -1   0    8.80    4.60
  -8   1  -1    2.80    4.30
  -8  -1  -1    3.10    4.70
  -8  -2   6    9.00    4.50
  -8   2   5   37.00    5.90
  -8  -2   5   35.00    6.50
  -8   2   4    2.80    3.50
  -8  -2   4    0.90    3.30
  -8   2   3   19.70    5.00
  -8  -2   3   23.00    6.00
  -8   2   2   18.60    5.50
  -8  -2   2   12.00    4.80
  -8   2   1    3.60    3.50
  -8  -2   1   -0.60    3.50
  -8   2   0    3.20    3.90
  -8  -2   0    9.00    4.90
  -8   2  -1   43.60    7.80
  -8  -2  -1   40.90    8.30
  -8   3   5    5.90    3.50
  -8  -3   5    4.70    4.10
  -8   3   4    4.40    3.90
  -8  -3   4    6.00    4.00
  -8   3   3    1.20    3.40
  -8  -3   3    0.80    3.60
  -8   3   2   17.00    4.80
  -8  -3   2   18.50    5.60
  -8   3   1    9.60    4.40
  -8  -3   1    1.70    3.80
  -8   3   0   50.09    7.90
  -8  -3   0   48.10    8.70
  -8   3  -1    5.50    4.00
  -8  -3  -1    3.90    4.90
  -8   4   5    0.30    2.80
  -8  -4   5    0.40    3.90
  -8   4   4   25.10    5.00
  -8  -4   4   21.00    5.70
  -8   4   3   39.00    6.00
  -8  -4   3   30.90    6.80
  -8   4   2   44.60    7.40
  -8  -4   2   45.10    8.00
  -8   4   1   21.40    5.70
  -8  -4   1   14.80    5.90
  -8   4   0   -4.70    2.80
  -8  -4   0    2.80    4.60
  -8  -5   5   48.10    8.40
  -8   5   4    0.30    2.70
  -8  -5   4    1.80    3.90
  -8   5   3    4.60    3.60
  -8  -5   3    5.60    4.40
  -8   5   2   -1.90    2.90
  -8  -5   2    0.20    3.50
  -8   5   1   90.59    9.00
  -8  -5   1  116.29   13.10
  -8   5   0   -0.40    3.50
  -8  -5   0    6.00    4.80
  -8   6   4    2.20    3.00
  -8  -6   4    4.40    4.70
  -8   6   3  120.79    9.50
  -8  -6   3  120.29   13.30
  -8   6   2   13.70    4.70
  -8  -6   2   19.00    6.00
  -8   6   1   14.10    4.60
  -8  -6   1   13.40    5.90
  -8   6   0    6.80    4.40
  -8  -6   0   15.00    6.10
  -8   7   4   36.10    5.40
  -8  -7   4   43.90    8.10
  -8   7   3    7.90    3.50
  -8  -7   3   -1.40    4.00
  -8   7   2    5.80    3.50
  -8  -7   2   10.80    5.10
  -8   7   1   11.90    4.70
  -8  -7   1   10.10    5.40
  -8   8   2   14.40    4.60
  -9   0   3   -2.40    3.10
  -9   0   2   29.60    6.80
  -9   1   3    2.00    3.70
  -9  -1   3   -0.60    3.50
  -9   1   2   64.69    9.10
  -9  -1   2   71.29    9.90
  -9   2   3   80.89    9.50
  -9  -2   3   63.79    9.30
  -9   2   2    9.40    4.70
  -9  -2   2    4.00    4.30
   0   0   0    0.00    0.00

_computing_structure_solution     'SHELXT 2014/5 (Sheldrick, 2014)'
;
_shelx_hkl_checksum              36358
_shelx_shelxl_version_number     2014/7
_olex2_submission_special_instructions 'No special instructions were received'
loop_
_space_group_symop_operation_xyz
'x, y, z'
'-x, y+1/2, -z+1/2'
'-x, -y, -z'
'x, -y-1/2, z-1/2'
loop_
_atom_site_label
_atom_site_type_symbol
_atom_site_fract_x
_atom_site_fract_y
_atom_site_fract_z
_atom_site_U_iso_or_equiv
_atom_site_adp_type
_atom_site_occupancy
_atom_site_site_symmetry_order
_atom_site_calc_flag
_atom_site_refinement_flags_posn
_atom_site_refinement_flags_occupancy
_atom_site_disorder_assembly
_atom_site_disorder_group
Cl1 Cl 0.46279(11) 0.39451(5) 0.62533(11) 0.0400(3) Uani 1 1 d . . . .
N3' N 0.7062(4) 0.09016(15) 0.6645(4) 0.0367(6) Uani 1 1 d . . . .
N2 N 1.052(2) 0.2538(6) 0.723(2) 0.033(3) Uani 0.700(5) 1 d . P A 1
C6 C 0.5159(7) 0.1105(3) 0.6289(6) 0.0308(11) Uani 0.700(5) 1 d . P A 1
H6 H 0.4224 0.0592 0.6058 0.037 Uiso 0.700(5) 1 calc R P A 1
C2 C 0.8050(7) 0.1667(4) 0.6802(6) 0.0232(10) Uani 0.700(5) 1 d . P A 1
C3' C 0.7376(4) 0.25926(19) 0.6730(4) 0.0256(6) Uani 1 1 d . . . .
N1 N 0.9072(5) 0.3146(3) 0.7025(5) 0.0268(10) Uani 0.700(5) 1 d . P A 1
C1 C 0.9401(11) 0.4183(4) 0.7169(10) 0.0413(16) Uani 0.700(5) 1 d . P A 1
H1A H 0.9058 0.4429 0.8243 0.062 Uiso 0.700(5) 1 calc GR P A 1
H1B H 0.8548 0.4493 0.6029 0.062 Uiso 0.700(5) 1 calc GR P A 1
H1C H 1.0817 0.4322 0.7329 0.062 Uiso 0.700(5) 1 calc GR P A 1
N3 N 0.9952(7) 0.1649(4) 0.7092(6) 0.0345(11) Uani 0.700(5) 1 d . P A 1
C4 C 0.5598(5) 0.2823(2) 0.6450(5) 0.0217(10) Uani 0.700(5) 1 d . P A 1
C5 C 0.4422(6) 0.2042(4) 0.6231(6) 0.0246(10) Uani 0.700(5) 1 d . P A 1
H5 H 0.3024 0.2130 0.6027 0.030 Uiso 0.700(5) 1 calc R P A 1
C4' C 0.6656(11) 0.3487(6) 0.6549(12) 0.020(2) Uani 0.300(5) 1 d . P A 2
C2' C 0.8956(17) 0.2222(8) 0.7035(14) 0.028(3) Uani 0.300(5) 1 d . P A 2
C5' C 0.8125(18) 0.4123(7) 0.6826(14) 0.030(3) Uani 0.300(5) 1 d . P A 2
H4 H 0.7896 0.4794 0.6780 0.036 Uiso 0.300(5) 1 calc R P A 2
N4' N 0.6133(11) 0.1668(5) 0.6520(11) 0.029(2) Uani 0.300(5) 1 d . P A 2
C1' C 0.4201(16) 0.1475(9) 0.6097(15) 0.026(2) Uani 0.300(5) 1 d . P A 2
H4AA H 0.3484 0.1732 0.4858 0.039 Uiso 0.300(5) 1 calc GR P A 2
H4AB H 0.3671 0.1770 0.7021 0.039 Uiso 0.300(5) 1 calc GR P A 2
H4AC H 0.4009 0.0781 0.6098 0.039 Uiso 0.300(5) 1 calc GR P A 2
N2' N 0.9064(18) 0.1268(8) 0.7093(14) 0.034(2) Uani 0.300(5) 1 d . P A 2
C6' C 0.990(2) 0.3752(10) 0.716(2) 0.033(3) Uani 0.300(5) 1 d . P A 2
H2AA H 1.0972 0.4198 0.7364 0.040 Uiso 0.300(5) 1 calc R P A 2
N1' N 1.043(5) 0.2846(16) 0.727(5) 0.026(5) Uani 0.300(5) 1 d . P A 2
loop_
_atom_site_aniso_label
_atom_site_aniso_U_11
_atom_site_aniso_U_22
_atom_site_aniso_U_33
_atom_site_aniso_U_23
_atom_site_aniso_U_13
_atom_site_aniso_U_12
Cl1 0.0375(4) 0.0248(4) 0.0641(6) 0.0094(4) 0.0253(4) 0.0145(3)
N3' 0.0341(14) 0.0215(13) 0.0539(17) 0.0008(11) 0.0131(12) 0.0052(11)
N2 0.016(3) 0.040(7) 0.046(3) -0.003(5) 0.015(2) -0.003(5)
C6 0.021(2) 0.017(2) 0.054(3) -0.006(2) 0.011(2) -0.001(2)
C2 0.014(2) 0.028(3) 0.025(3) 0.0004(19) 0.0026(17) 0.002(2)
C3' 0.0268(15) 0.0283(14) 0.0224(16) 0.0030(12) 0.0087(11) 0.0048(12)
N1 0.014(2) 0.023(2) 0.043(2) 0.0021(16) 0.0091(16) -0.0051(17)
C1 0.038(4) 0.028(4) 0.062(4) -0.009(3) 0.022(3) -0.019(3)
N3 0.013(2) 0.040(3) 0.049(3) -0.001(2) 0.0076(18) 0.005(2)
C4 0.0177(19) 0.0171(19) 0.030(2) 0.0034(16) 0.0072(15) 0.0030(15)
C5 0.015(2) 0.022(2) 0.036(3) 0.000(2) 0.0073(17) 0.0011(18)
C4' 0.011(4) 0.017(4) 0.031(6) -0.001(4) 0.006(3) 0.004(3)
C2' 0.025(6) 0.030(7) 0.032(6) 0.000(5) 0.011(4) 0.002(6)
C5' 0.030(6) 0.021(5) 0.039(6) 0.007(4) 0.011(5) -0.006(5)
N4' 0.020(4) 0.017(4) 0.045(6) 0.002(3) 0.003(4) 0.006(3)
C1' 0.028(6) 0.007(5) 0.044(7) -0.004(5) 0.013(5) 0.001(5)
N2' 0.012(5) 0.034(6) 0.049(6) -0.002(5) 0.000(4) 0.007(5)
C6' 0.038(8) 0.022(8) 0.044(8) -0.001(6) 0.018(5) 0.002(6)
N1' 0.014(7) 0.020(11) 0.037(7) 0.004(8) -0.005(5) -0.001(8)
loop_
_atom_type_symbol
_atom_type_description
_atom_type_scat_dispersion_real
_atom_type_scat_dispersion_imag
_atom_type_scat_source
C C 0.0033 0.0016 'International Tables Vol C Tables 4.2.6.8 and 6.1.1.4'
H H 0.0000 0.0000 'International Tables Vol C Tables 4.2.6.8 and 6.1.1.4'
Cl Cl 0.1484 0.1585 'International Tables Vol C Tables 4.2.6.8 and 6.1.1.4'
N N 0.0061 0.0033 'International Tables Vol C Tables 4.2.6.8 and 6.1.1.4'
loop_
_geom_angle_atom_site_label_1
_geom_angle_atom_site_label_2
_geom_angle_atom_site_label_3
_geom_angle
C2 N3' C6 109.3(3)
N4' N3' N2' 99.2(6)
N1 N2 N3 114.3(10)
N3' C6 H6 118.3
N3' C6 C5 123.5(4)
C5 C6 H6 118.3
N3' C2 C3' 128.7(4)
N3' C2 N3 120.7(6)
N3 C2 C3' 110.6(5)
C2 C3' N1 104.7(3)
C4 C3' C2 124.5(3)
C4 C3' N1 130.8(3)
C4' C3' N4' 126.2(5)
C2' C3' C4' 137.0(7)
C2' C3' N4' 96.8(6)
N2 N1 C3' 104.7(6)
N2 N1 C1 122.8(6)
C3' N1 C1 132.4(4)
N1 C1 H1A 109.5
N1 C1 H1B 109.5
N1 C1 H1C 109.5
H1A C1 H1B 109.5
H1A C1 H1C 109.5
H1B C1 H1C 109.5
C2 N3 N2 105.6(7)
C3' C4 Cl1 127.5(3)
C3' C4 C5 110.8(3)
C5 C4 Cl1 121.7(3)
C6 C5 H5 118.4
C4 C5 C6 123.2(4)
C4 C5 H5 118.4
C3' C4' Cl1 135.9(6)
C5' C4' Cl1 112.8(7)
C5' C4' C3' 111.1(7)
C3' C2' N2' 119.0(13)
C3' C2' N1' 112.5(13)
N1' C2' N2' 128.5(16)
C4' C5' H4 122.8
C6' C5' C4' 114.4(10)
C6' C5' H4 122.8
N3' N4' C3' 116.8(6)
N3' N4' C1' 108.4(9)
C1' N4' C3' 134.6(8)
N4' C1' H4AA 109.5
N4' C1' H4AB 109.5
N4' C1' H4AC 109.5
H4AA C1' H4AB 109.5
H4AA C1' H4AC 109.5
H4AB C1' H4AC 109.5
C2' N2' N3' 108.0(11)
C5' C6' H2AA 115.4
C5' C6' N1' 129(2)
N1' C6' H2AA 115.5
C6' N1' C2' 116(2)
loop_
_geom_bond_atom_site_label_1
_geom_bond_atom_site_label_2
_geom_bond_distance
Cl1 C4 1.697(4)
Cl1 C4' 1.509(8)
N3' C6 1.306(5)
N3' C2 1.259(6)
N3' N4' 1.242(7)
N3' N2' 1.430(13)
N2 N1 1.293(12)
N2 N3 1.298(12)
C6 H6 0.9500
C6 C5 1.403(6)
C2 C3' 1.372(6)
C2 N3 1.281(7)
C3' N1 1.376(4)
C3' C4 1.238(4)
C3' C4' 1.339(8)
C3' C2' 1.177(11)
C3' N4' 1.538(9)
N1 C1 1.466(6)
C1 H1A 0.9800
C1 H1B 0.9800
C1 H1C 0.9800
C4 C5 1.345(6)
C5 H5 0.9500
C4' C5' 1.325(14)
C2' N2' 1.335(16)
C2' N1' 1.32(3)
C5' H4 0.9500
C5' C6' 1.297(18)
N4' C1' 1.317(13)
C1' H4AA 0.9800
C1' H4AB 0.9800
C1' H4AC 0.9800
C6' H2AA 0.9500
C6' N1' 1.31(2)
loop_
_geom_torsion_atom_site_label_1
_geom_torsion_atom_site_label_2
_geom_torsion_atom_site_label_3
_geom_torsion_atom_site_label_4
_geom_torsion
Cl1 C4 C5 C6 176.6(4)
Cl1 C4' C5' C6' 177.2(9)
N3' C6 C5 C4 3.2(7)
N3' C2 C3' N1 178.6(4)
N3' C2 C3' C4 -1.5(6)
N3' C2 N3 N2 -178.5(8)
C6 N3' C2 C3' 3.2(6)
C6 N3' C2 N3 -177.7(4)
C2 N3' C6 C5 -3.9(6)
C2 C3' N1 N2 0.1(8)
C2 C3' N1 C1 -178.0(5)
C2 C3' C4 Cl1 -177.3(3)
C2 C3' C4 C5 0.1(5)
C3' C2 N3 N2 0.8(8)
C3' C4 C5 C6 -1.0(6)
C3' C4' C5' C6' 1.4(14)
C3' C2' N2' N3' 3.0(12)
C3' C2' N1' C6' 1(3)
N1 N2 N3 C2 -0.7(13)
N1 C3' C4 Cl1 2.5(6)
N1 C3' C4 C5 -180.0(4)
N3 N2 N1 C3' 0.3(13)
N3 N2 N1 C1 178.7(7)
N3 C2 C3' N1 -0.6(4)
N3 C2 C3' C4 179.3(4)
C4 C3' N1 N2 -179.8(8)
C4 C3' N1 C1 2.1(7)
C4' C3' C2' N2' -179.4(8)
C4' C3' C2' N1' 0(2)
C4' C3' N4' N3' 176.4(6)
C4' C3' N4' C1' 2.0(14)
C4' C5' C6' N1' 0(3)
C2' C3' C4' Cl1 -176.1(8)
C2' C3' C4' C5' -1.7(13)
C2' C3' N4' N3' -2.6(8)
C2' C3' N4' C1' -177.0(11)
C5' C6' N1' C2' -1(4)
N4' N3' N2' C2' -4.1(9)
N4' C3' C4' Cl1 5.3(12)
N4' C3' C4' C5' 179.7(7)
N4' C3' C2' N2' -0.5(10)
N4' C3' C2' N1' 179.1(17)
N2' N3' N4' C3' 4.1(8)
N2' N3' N4' C1' 179.9(8)
N2' C2' N1' C6' -179.1(17)
N1' C2' N2' N3' -177(2)
