#------------------------------------------------------------------------------
#$Date: 2019-11-11 19:55:06 +0200 (Mon, 11 Nov 2019) $
#$Revision: 227164 $
#$URL: file:///home/coder/svn-repositories/cod/cif/4/03/57/4035716.cif $
#------------------------------------------------------------------------------
#
# This file is available in the Crystallography Open Database (COD),
# http://www.crystallography.net/
#
# All data on this site have been placed in the public domain by the
# contributors.
#
data_4035716
loop_
_publ_author_name
'Xu, Cheng'
'Jiang, Shi-Fen'
'Wu, Yan-Dong'
'Jia, Feng-Cheng'
'Wu, An-Xin'
_publ_section_title
;
 Copper-Catalyzed Multicomponent Domino Reaction of 2-Bromobenzaldehydes,
 Aryl Methyl Ketones, and Sodium Azide: Access to 1 H-[1,2,3]Triazolo[4,5-
 c]quinoline Derivatives.
;
_journal_issue                   23
_journal_name_full               'The Journal of organic chemistry'
_journal_page_first              14802
_journal_page_last               14810
_journal_paper_doi               10.1021/acs.joc.8b02476
_journal_volume                  83
_journal_year                    2018
_chemical_formula_sum            'C15 H11 F N4 O'
_chemical_formula_weight         282.28
_space_group_crystal_system      triclinic
_space_group_IT_number           2
_space_group_name_Hall           '-P 1'
_space_group_name_H-M_alt        'P -1'
_atom_sites_solution_hydrogens   mixed
_audit_creation_method           SHELXL-2014/7
_cell_angle_alpha                78.717(13)
_cell_angle_beta                 80.118(13)
_cell_angle_gamma                84.188(13)
_cell_formula_units_Z            2
_cell_length_a                   7.524(6)
_cell_length_b                   8.604(7)
_cell_length_c                   10.117(9)
_cell_measurement_reflns_used    2083
_cell_measurement_temperature    296(2)
_cell_measurement_theta_max      30.89
_cell_measurement_theta_min      2.42
_cell_volume                     631.2(9)
_computing_structure_refinement  'SHELXL-2014/7 (Sheldrick, 2014)'
_diffrn_ambient_temperature      296(2)
_diffrn_measured_fraction_theta_full 0.989
_diffrn_measured_fraction_theta_max 0.899
_diffrn_measurement_device_type  CCD
_diffrn_radiation_type           MoK\a
_diffrn_radiation_wavelength     0.71073
_diffrn_reflns_av_R_equivalents  0.0320
_diffrn_reflns_av_unetI/netI     0.0471
_diffrn_reflns_Laue_measured_fraction_full 0.989
_diffrn_reflns_Laue_measured_fraction_max 0.899
_diffrn_reflns_limit_h_max       11
_diffrn_reflns_limit_h_min       -10
_diffrn_reflns_limit_k_max       12
_diffrn_reflns_limit_k_min       -12
_diffrn_reflns_limit_l_max       14
_diffrn_reflns_limit_l_min       -15
_diffrn_reflns_number            6934
_diffrn_reflns_point_group_measured_fraction_full 0.989
_diffrn_reflns_point_group_measured_fraction_max 0.899
_diffrn_reflns_theta_full        25.242
_diffrn_reflns_theta_max         32.186
_diffrn_reflns_theta_min         2.078
_exptl_absorpt_coefficient_mu    0.108
_exptl_absorpt_correction_type   multi-scan
_exptl_absorpt_process_details   sadabs
_exptl_crystal_colour            colorless
_exptl_crystal_density_diffrn    1.485
_exptl_crystal_description       Block
_exptl_crystal_F_000             292
_exptl_crystal_size_max          0.220
_exptl_crystal_size_mid          0.200
_exptl_crystal_size_min          0.180
_exptl_transmission_factor_max   0.864
_exptl_transmission_factor_min   0.864
_refine_diff_density_max         0.204
_refine_diff_density_min         -0.252
_refine_diff_density_rms         0.064
_refine_ls_extinction_method     none
_refine_ls_goodness_of_fit_ref   0.996
_refine_ls_hydrogen_treatment    mixed
_refine_ls_matrix_type           full
_refine_ls_number_parameters     196
_refine_ls_number_reflns         4006
_refine_ls_number_restraints     3
_refine_ls_restrained_S_all      0.996
_refine_ls_R_factor_all          0.0849
_refine_ls_R_factor_gt           0.0534
_refine_ls_shift/su_max          0.000
_refine_ls_shift/su_mean         0.000
_refine_ls_structure_factor_coef Fsqd
_refine_ls_weighting_details
'w=1/[\s^2^(Fo^2^)+(0.1065P)^2^] where P=(Fo^2^+2Fc^2^)/3'
_refine_ls_weighting_scheme      calc
_refine_ls_wR_factor_gt          0.1548
_refine_ls_wR_factor_ref         0.1810
_reflns_Friedel_coverage         0.000
_reflns_number_gt                2508
_reflns_number_total             4006
_reflns_threshold_expression     'I > 2\s(I)'
_cod_data_source_file            jo8b02476_si_003.cif
_cod_data_source_block           1_a
_cod_original_cell_volume        631.3(9)
_cod_database_code               4035716
_shelx_shelxl_version_number     2014/7
_shelx_space_group_comment
;
The symmetry employed for this shelxl refinement is uniquely defined
by the following loop, which should always be used as a source of
symmetry information in preference to the above space-group names.
They are only intended as comments.
;
_shelx_estimated_absorpt_t_min   0.977
_shelx_estimated_absorpt_t_max   0.981
_shelx_res_file
;

    1_a.res created by SHELXL-2014/7

TITL 1_a.res in P-1
CELL  0.71073   7.5243   8.6045  10.1172   78.717   80.118   84.188
ZERR   2.000   0.0063   0.0070   0.0085    0.013    0.013    0.013
LATT 1
SFAC C  H  N  F  O
UNIT 30 22 8 2 2
OMIT 0 -5 3
OMIT 2 6 0
OMIT -1 3 6
OMIT 1 4 3
OMIT 3 0 6
L.S. 20
ACTA
BOND $H
FMAP 2
PLAN 20
LIST 6
DFIX 0.84 0.02 O1 H1W O1 H2W
DANG 0.02 1.39 H1W H2W
SIZE 0.22 0.2 0.18
CONF
TEMP 23.000
WGHT    0.106500
FVAR       0.68768
C1    1    0.726661    0.454037    0.129399    11.00000    0.06927    0.04947 =
         0.04532   -0.00748   -0.01421   -0.00159
C2    1    0.767133    0.558903    0.011966    11.00000    0.08357    0.06512 =
         0.04324   -0.00394   -0.01446    0.00508
AFIX  43
H2    2    0.752672    0.534052   -0.070806    11.00000   -1.20000
AFIX   0
C3    1    0.829551    0.701943    0.015662    11.00000    0.07530    0.06002 =
         0.05427    0.01042   -0.00565    0.00439
AFIX  43
H3    2    0.860718    0.772518   -0.065445    11.00000   -1.20000
AFIX   0
C4    1    0.846645    0.742340    0.136123    11.00000    0.06245    0.04400 =
         0.06471    0.00202   -0.00720   -0.00215
AFIX  43
H4    2    0.886756    0.840613    0.137683    11.00000   -1.20000
AFIX   0
C5    1    0.803386    0.634831    0.257110    11.00000    0.04426    0.03826 =
         0.05130   -0.00409   -0.00804    0.00037
C6    1    0.744900    0.485992    0.256651    11.00000    0.04789    0.03910 =
         0.04171   -0.00648   -0.00904   -0.00009
N4    3    0.705780    0.371285    0.369730    11.00000    0.04898    0.03800 =
         0.03875   -0.00899   -0.00842   -0.00496
C8    1    0.716805    0.397276    0.491279    11.00000    0.03617    0.03739 =
         0.04144   -0.01247   -0.00635   -0.00263
C9    1    0.770583    0.546798    0.503363    11.00000    0.03833    0.03680 =
         0.04927   -0.01494   -0.00782   -0.00155
C10   1    0.812896    0.659748    0.388909    11.00000    0.03900    0.03329 =
         0.05784   -0.00990   -0.00924   -0.00084
C11   1    0.672887    0.269440    0.608055    11.00000    0.03819    0.03867 =
         0.03865   -0.01177   -0.00280   -0.00411
C12   1    0.588664    0.140370    0.592334    11.00000    0.05866    0.04591 =
         0.03806   -0.01170   -0.00534   -0.01365
AFIX  43
H12   2    0.558338    0.136374    0.507793    11.00000   -1.20000
AFIX   0
C13   1    0.549179    0.018259    0.699359    11.00000    0.06500    0.04556 =
         0.04915   -0.01221   -0.00049   -0.01552
AFIX  43
H13   2    0.492407   -0.067748    0.686921    11.00000   -1.20000
AFIX   0
C14   1    0.592582    0.021846    0.824305    11.00000    0.06499    0.05423 =
         0.04322   -0.00229    0.00082   -0.00964
AFIX  43
H14   2    0.565107   -0.061034    0.897021    11.00000   -1.20000
AFIX   0
C15   1    0.676125    0.147374    0.841406    11.00000    0.07950    0.07758 =
         0.03890   -0.00863   -0.01072   -0.02315
AFIX  43
H15   2    0.706991    0.149706    0.926119    11.00000   -1.20000
AFIX   0
C16   1    0.715567    0.270859    0.735174    11.00000    0.06648    0.06018 =
         0.04197   -0.01285   -0.00781   -0.02244
AFIX  43
H16   2    0.771716    0.356561    0.748903    11.00000   -1.20000
AFIX   0
F1    4    0.667665    0.313401    0.126742    11.00000    0.12808    0.06369 =
         0.05065   -0.01502   -0.02503   -0.02273
N1    3    0.857551    0.782318    0.435674    11.00000    0.05375    0.03458 =
         0.07186   -0.01294   -0.00978   -0.00738
AFIX  43
H1    2    0.890419    0.870682    0.385702    11.00000   -1.20000
AFIX   0
N2    3    0.843902    0.748154    0.571809    11.00000    0.06001    0.04518 =
         0.07139   -0.02421   -0.01258   -0.00651
N3    3    0.791908    0.606567    0.614825    11.00000    0.05308    0.04534 =
         0.05898   -0.02303   -0.00986   -0.00620
O1    5    0.935060    0.081091    0.307279    11.00000    0.07128    0.04182 =
         0.07033   -0.01574   -0.01225   -0.00913
H1W   2    0.850398    0.152557    0.322269    11.00000   -1.50000
H2W   2    1.014446    0.115148    0.341147    11.00000   -1.50000
HKLF 4

REM  1_a.res in P-1
REM R1 =  0.0534 for    2508 Fo > 4sig(Fo)  and  0.0849 for all    4006 data
REM    196 parameters refined using      3 restraints

END

WGHT      0.1027      0.0000

REM Highest difference peak  0.204,  deepest hole -0.252,  1-sigma level  0.064
Q1    1   1.0219  0.5752 -0.0311  11.00000  0.05    0.20
Q2    1   0.7846  0.1171  0.9090  11.00000  0.05    0.20
Q3    1   0.6327  0.2056  0.5959  11.00000  0.05    0.20
Q4    1   0.7282  0.3764  0.4243  11.00000  0.05    0.19
Q5    1   0.7983  0.6672  0.3276  11.00000  0.05    0.18
Q6    1   0.6575 -0.0593  0.9367  11.00000  0.05    0.18
Q7    1   0.7184  0.2618  0.6614  11.00000  0.05    0.18
Q8    1   0.7775  0.7320  0.0790  11.00000  0.05    0.17
Q9    1   0.6474 -0.0820  0.9730  11.00000  0.05    0.17
Q10   1   0.7845  0.0713  0.1820  11.00000  0.05    0.17
Q11   1   0.7000  0.4757  0.1974  11.00000  0.05    0.17
Q12   1   0.6723 -0.1012  1.0074  11.00000  0.05    0.16
Q13   1   0.6588  0.2775  0.6720  11.00000  0.05    0.16
Q14   1   1.0900  0.6878 -0.0766  11.00000  0.05    0.16
Q15   1   0.6630  0.0841  0.8205  11.00000  0.05    0.16
Q16   1   0.8673  0.1783  0.6680  11.00000  0.05    0.16
Q17   1   0.5031  0.4263  0.2540  11.00000  0.05    0.16
Q18   1   0.8040  0.0132  0.2319  11.00000  0.05    0.16
Q19   1   0.4691  0.3155  0.7549  11.00000  0.05    0.16
Q20   1   0.3944  0.1358  0.8337  11.00000  0.05    0.16
;
_shelx_res_checksum              56479
_shelx_hkl_file
;
  -1   0   0    1.80    0.30
  -1   0   0    0.90    0.30
  -2   0   0 3244.68  133.09
   2   0   0 3272.17  124.39
  -3   0   0   54.49    2.40
   3   0   0   54.59    2.20
  -4   0   0    7.70    0.60
   4   0   0    6.90    0.50
  -5   0   0    0.20    0.20
   5   0   0    0.00    0.20
  -6   0   0    1.20    0.30
   6   0   0    0.80    0.30
   6   0   0    0.80    0.20
  -7   0   0   13.20    1.00
   7   0   0   11.10    0.80
  -8   0   0    9.30    0.90
   8   0   0    8.50    0.80
   9   0   0    0.40    0.40
  -9   1   0    1.80    0.60
   8  -1   0    0.60    0.30
  -8   1   0    0.90    0.40
   7  -1   0    4.60    0.50
  -7   1   0    4.10    0.60
   6  -1   0   21.50    1.10
  -6   1   0   20.70    1.30
   5  -1   0   61.59    2.60
  -5   1   0   61.19    2.80
   4  -1   0 1950.70   72.89
  -4   1   0 1840.52   77.89
  -4   1   0 1929.81   76.59
   3  -1   0   10.50    0.60
  -3   1   0    9.80    0.70
  -3   1   0   10.40    0.60
   2  -1   0 9730.33  356.66
  -2   1   0 9999.00  376.56
  -2   1   0 8117.79  383.76
   1  -1   0  100.59    3.90
  -1   1   0  100.99    4.10
   0  -1   0  687.43   25.50
   0   1   0  653.83   27.30
   0   1   0  661.73   26.90
  -1  -1   0  104.69    4.30
   1   1   0  103.49    4.30
  -2  -1   0    0.80    0.10
   2   1   0    0.40    0.10
  -3  -1   0    1.30    0.20
   3   1   0    1.10    0.10
   4   1   0  135.99    5.60
  -5  -1   0   52.39    2.40
   5   1   0   53.69    2.30
   5   1   0   49.40    2.20
  -6  -1   0   29.40    1.50
   6   1   0   29.00    1.50
   6   1   0   29.70    1.40
  -7  -1   0    0.50    0.30
   7   1   0   -0.60    0.20
   8   1   0    0.10    0.30
   9   1   0    1.60    0.50
  10   1   0   -0.40    0.40
 -10   2   0    0.10    0.50
  -9   2   0    3.10    0.70
  -8   2   0   17.00    1.30
   7  -2   0   17.20    1.00
  -7   2   0   14.80    1.20
   6  -2   0  416.16   16.10
  -6   2   0  416.96   17.40
   5  -2   0    0.50    0.20
  -5   2   0    0.40    0.30
  -5   2   0    0.10    0.10
   4  -2   0 1039.90   39.20
  -4   2   0 1003.70   42.10
  -4   2   0 1042.60   41.30
   3  -2   0    0.00    0.10
  -3   2   0   -0.10    0.20
  -3   2   0    0.10    0.10
   2  -2   0   55.99    2.20
  -2   2   0   55.69    2.30
   1  -2   0  634.64   24.40
  -1   2   0  645.74   25.90
  -1   2   0  638.24   26.20
   0  -2   0  109.99    4.30
   0   2   0  113.89    4.60
   0   2   0  112.99    4.60
  -1  -2   0    2.50    0.20
   1   2   0    2.40    0.20
   2   2   0  727.73   29.50
   3   2   0  124.49    5.10
  -4  -2   0    0.30    0.10
   4   2   0    0.20    0.10
  -5  -2   0   31.20    1.50
   5   2   0   34.10    1.50
  -6  -2   0    5.40    0.50
   6   2   0    4.00    0.40
   6   2   0    4.30    0.50
   7   2   0    1.90    0.40
   8   2   0    1.40    0.40
   9   2   0    0.60    0.40
  10   2   0    1.10    0.50
  11   2   0    0.20    0.50
 -10   3   0    7.20    1.10
  -9   3   0    2.10    0.70
  -8   3   0   64.29    3.30
  -7   3   0    0.10    0.40
   6  -3   0  105.49    4.20
  -6   3   0  104.09    4.80
   5  -3   0   17.40    0.90
  -5   3   0   15.20    0.90
  -5   3   0   17.90    1.20
   4  -3   0   14.10    0.70
  -4   3   0   14.00    0.90
   3  -3   0  197.78    7.50
  -3   3   0  191.18    8.20
   2  -3   0  163.68    6.30
  -2   3   0  166.28    6.90
  -2   3   0  165.08    6.70
   1  -3   0  191.68    7.30
  -1   3   0  188.18    7.80
  -1   3   0  194.58    7.90
   0  -3   0  222.78    8.20
   0   3   0  188.68    8.70
   0   3   0  230.98    8.80
  -1  -3   0    5.40    0.30
   1   3   0    5.60    0.30
   2   3   0   66.69    2.80
   3   3   0  178.68    7.30
  -4  -3   0    0.00    0.10
   4   3   0    0.10    0.10
  -5  -3   0    0.20    0.10
   5   3   0    0.00    0.10
   6   3   0    3.10    0.40
   7   3   0    0.20    0.20
   7   3   0   -0.10    0.30
   8   3   0    1.60    0.40
   9   3   0    0.30    0.40
  10   3   0   -0.30    0.40
  -9   4   0    0.80    0.60
  -8   4   0   18.10    1.50
  -7   4   0    9.90    1.00
  -6   4   0    0.30    0.40
  -5   4   0   10.50    0.90
   4  -4   0   41.90    1.70
  -4   4   0   41.50    1.90
   3  -4   0   65.39    2.60
  -3   4   0   65.69    3.00
  -3   4   0   66.09    2.80
   2  -4   0    3.40    0.20
  -2   4   0    3.70    0.40
  -2   4   0    3.20    0.30
   1  -4   0   68.09    2.70
  -1   4   0   67.99    2.90
  -1   4   0   67.39    2.90
   0  -4   0    7.20    0.40
   0   4   0    6.30    0.40
   0   4   0    6.60    0.50
  -1  -4   0   83.19    3.10
   1   4   0   80.99    3.30
   1   4   0   70.39    3.30
   2   4   0    0.00    0.10
   3   4   0    2.90    0.30
   4   4   0   -0.20    0.10
   5   4   0   -0.10    0.20
   6   4   0    3.80    0.40
   7   4   0    7.20    0.70
   7   4   0    5.50    0.70
   8   4   0   -0.10    0.40
   9   4   0    0.60    0.50
  10   4   0    1.10    0.50
  -9   5   0    0.40    0.60
  -8   5   0    0.90    0.60
  -7   5   0   -0.40    0.40
  -6   5   0    3.60    0.70
  -5   5   0    2.40    0.50
  -4   5   0    0.00    0.20
  -4   5   0    0.20    0.30
   3  -5   0   14.70    0.70
  -3   5   0   15.30    0.90
  -3   5   0   15.20    1.00
   2  -5   0    0.20    0.10
  -2   5   0    0.10    0.20
  -2   5   0    0.60    0.20
   1  -5   0    2.80    0.30
  -1   5   0    2.90    0.40
  -1   5   0    2.50    0.30
   0  -5   0    4.30    0.40
   0   5   0    5.20    0.50
   0   5   0    5.10    0.40
  -1  -5   0   57.29    2.40
   1   5   0   58.89    2.50
   1   5   0   55.39    2.40
   2   5   0    1.80    0.30
   3   5   0   47.70    2.10
   4   5   0    8.60    0.60
   5   5   0   36.20    1.70
   6   5   0    1.00    0.30
   7   5   0   13.80    0.90
   8   5   0    0.80    0.50
   9   5   0    1.50    0.50
  10   5   0    0.20    0.50
  -8   6   0    0.50    0.50
  -7   6   0    0.00    0.50
  -6   6   0    0.30    0.40
  -5   6   0    0.10    0.40
  -4   6   0    0.00    0.20
  -4   6   0    0.00    0.30
  -3   6   0    0.20    0.20
  -3   6   0    0.10    0.30
   2  -6   0    1.40    0.20
  -2   6   0    1.20    0.30
  -2   6   0    1.30    0.30
   1  -6   0   14.60    0.70
  -1   6   0   14.10    0.90
  -1   6   0   15.00    0.90
   0  -6   0    8.40    0.50
   0   6   0    8.80    0.60
   0   6   0    8.90    0.60
  -1  -6   0  185.48    7.20
   1   6   0  180.18    7.60
   1   6   0  186.18    7.60
   2   6   0    0.00    0.10
   3   6   0    5.30    0.50
   4   6   0    0.50    0.20
   5   6   0   40.40    1.90
   6   6   0    1.60    0.40
   7   6   0    1.90    0.40
   8   6   0   -0.70    0.40
   9   6   0    0.50    0.40
  -8   7   0    0.10    0.50
  -7   7   0    0.10    0.50
  -6   7   0   -0.10    0.40
  -5   7   0    1.90    0.50
  -4   7   0    9.10    0.90
  -4   7   0    8.30    0.80
  -3   7   0    0.10    0.20
  -3   7   0   -0.30    0.30
  -2   7   0    1.30    0.30
  -2   7   0    1.30    0.40
   1  -7   0   52.49    2.20
  -1   7   0   53.59    2.50
  -1   7   0   56.99    2.50
   0  -7   0    2.30    0.30
   0   7   0    2.60    0.40
   0   7   0    2.50    0.40
   1   7   0   24.90    1.30
   2   7   0    0.00    0.20
   3   7   0   38.90    1.90
   4   7   0   20.50    1.20
   5   7   0    2.70    0.40
   6   7   0    0.00    0.30
   7   7   0    0.90    0.40
   8   7   0   -0.40    0.40
   9   7   0    2.10    0.60
  -7   8   0    0.90    0.60
  -6   8   0    1.60    0.60
  -5   8   0    0.50    0.50
  -4   8   0    0.80    0.40
  -3   8   0    0.50    0.30
  -3   8   0    1.10    0.40
  -2   8   0    0.30    0.30
  -2   8   0    0.20    0.30
  -1   8   0   23.90    1.30
  -1   8   0   23.00    1.30
   0   8   0   20.50    1.20
   1   8   0    6.40    0.70
   2   8   0   29.20    1.50
   3   8   0    0.60    0.30
   4   8   0    4.00    0.50
   5   8   0    0.60    0.30
   6   8   0    0.70    0.40
   7   8   0   12.20    1.00
   8   8   0    1.00    0.50
   8   8   0    0.00    0.40
  -6   9   0    1.30    0.60
  -5   9   0    0.80    0.50
  -4   9   0    1.30    0.50
  -3   9   0    3.80    0.70
  -3   9   0    3.50    0.60
  -2   9   0   24.60    1.50
  -2   9   0   25.90    1.50
  -1   9   0    0.30    0.30
   0   9   0    0.40    0.30
   1   9   0    0.40    0.30
   2   9   0   10.20    0.80
   3   9   0    9.00    0.80
   4   9   0    0.90    0.40
   5   9   0   12.20    1.00
   6   9   0    5.20    0.70
   7   9   0    2.00    0.50
   8   9   0    1.00    0.50
  -5  10   0    1.10    0.60
  -4  10   0    4.70    0.80
  -3  10   0    0.40    0.40
  -2  10   0    3.50    0.60
  -1  10   0    1.80    0.40
   0  10   0    2.70    0.50
   1  10   0    3.90    0.60
   2  10   0    0.20    0.30
   3  10   0    8.00    0.80
   4  10   0    9.80    0.90
   5  10   0    0.70    0.40
   6  10   0    0.20    0.40
   7  10   0   -0.10    0.40
  -2  11   0    0.70    0.40
  -1  11   0    1.40    0.50
   0  11   0    2.50    0.50
   1  11   0    3.70    0.60
   2  11   0    3.30    0.60
   3  11   0    0.10    0.40
   4  11   0    0.70    0.40
   5  11   0   -0.40    0.30
  -2  12   0    1.80    0.60
  -1  12   0    1.60    0.50
   0  12   0    0.20    0.40
   1  12   0   -0.30    0.40
   2  12   0    0.70    0.50
   0  12  -1    2.70    0.60
  -1  12  -1   -0.10    0.40
   4  11  -1    0.60    0.40
   3  11  -1    0.30    0.40
   2  11  -1    5.40    0.70
   1  11  -1    0.50    0.40
   0  11  -1    0.30    0.40
  -1  11  -1    2.60    0.60
  -2  11  -1    0.40    0.40
  -3  11  -1    1.40    0.50
   6  10  -1    1.40    0.50
   6  10  -1    1.50    0.50
   5  10  -1    0.10    0.40
   4  10  -1    1.60    0.40
   3  10  -1    0.70    0.40
   2  10  -1    0.50    0.30
   1  10  -1    4.80    0.60
   0  10  -1    2.30    0.50
  -1  10  -1    5.80    0.70
  -2  10  -1    1.60    0.50
  -3  10  -1   -0.20    0.30
  -4  10  -1    0.00    0.40
  -5  10  -1    3.70    0.80
   7   9  -1    0.80    0.40
   7   9  -1   -0.20    0.40
   6   9  -1    0.00    0.30
   5   9  -1    1.40    0.40
   4   9  -1    2.60    0.50
   3   9  -1   15.30    1.00
   2   9  -1    0.00    0.30
   1   9  -1    5.30    0.60
   0   9  -1    8.20    0.80
  -1   9  -1    0.70    0.40
  -2   9  -1   12.60    1.00
  -3   9  -1   11.70    1.10
  -3   9  -1   13.70    1.10
  -4   9  -1    6.10    0.80
  -4   9  -1    5.90    0.80
  -5   9  -1   12.10    1.20
  -6   9  -1    1.00    0.60
   8   8  -1    0.20    0.40
   7   8  -1    3.60    0.60
   7   8  -1    4.70    0.60
   6   8  -1    4.70    0.60
   5   8  -1   15.20    1.10
   4   8  -1    1.50    0.40
   3   8  -1    1.20    0.30
   2   8  -1    1.10    0.30
   1   8  -1    0.20    0.30
   0   8  -1   72.09    3.30
  -1   8  -1   45.80    2.20
  -1   8  -1   45.80    2.20
  -2   8  -1   15.60    1.10
  -2   8  -1   16.20    1.10
  -3   8  -1   42.20    2.20
  -3   8  -1   40.00    2.10
  -4   8  -1    3.20    0.50
  -4   8  -1    4.50    0.70
  -5   8  -1    2.00    0.60
  -6   8  -1    0.10    0.40
  -7   8  -1    1.00    0.60
   8   7  -1    2.70    0.60
   7   7  -1    3.10    0.50
   7   7  -1    2.30    0.50
   6   7  -1    0.30    0.30
   5   7  -1   -0.30    0.30
   4   7  -1    8.40    0.80
   3   7  -1    0.70    0.30
   2   7  -1  118.69    5.10
   1   7  -1  204.18    8.50
   0   7  -1   19.30    1.10
   0   7  -1   19.90    1.10
  -1   7  -1   57.29    2.60
  -1   7  -1   55.99    2.60
  -2   7  -1    2.60    0.50
  -2   7  -1    2.20    0.40
  -3   7  -1    1.60    0.40
  -3   7  -1    1.60    0.40
  -4   7  -1    7.50    0.70
  -4   7  -1    5.40    0.70
  -5   7  -1   10.20    1.00
  -6   7  -1    2.70    0.60
  -7   7  -1   -0.40    0.40
  -8   7  -1    0.10    0.50
   9   6  -1   -0.50    0.40
   8   6  -1    0.00    0.40
   7   6  -1   -0.20    0.40
   7   6  -1    0.50    0.30
   6   6  -1    4.80    0.50
   5   6  -1   30.00    1.50
   4   6  -1   35.30    1.70
   3   6  -1  277.77   11.40
   2   6  -1    2.00    0.30
   0   6  -1   14.00    0.90
   0   6  -1   14.10    0.80
  -1   6  -1   14.90    0.90
  -1   6  -1   14.20    0.90
  -2   6  -1   44.10    2.10
  -2   6  -1   43.80    2.10
  -3   6  -1   21.90    1.20
  -3   6  -1   21.40    1.30
  -4   6  -1    8.70    0.80
  -4   6  -1    8.70    0.70
  -5   6  -1    1.60    0.40
  -5   6  -1    2.30    0.50
  -6   6  -1    0.50    0.40
  -7   6  -1   -0.10    0.40
  -8   6  -1    0.80    0.50
   9   5  -1    0.40    0.50
   8   5  -1   -0.20    0.40
   7   5  -1   43.70    2.00
   7   5  -1   37.50    2.10
   6   5  -1    3.50    0.40
   5   5  -1   73.69    3.20
   4   5  -1    9.40    0.70
   3   5  -1    8.90    0.60
   2   5  -1   45.90    2.10
   1   5  -1   77.59    3.30
   0   5  -1   52.59    2.30
   0   5  -1   52.19    2.30
  -1   5  -1    2.00    0.30
  -1   5  -1    1.60    0.30
   1  -5   1    1.60    0.20
  -2   5  -1   27.40    1.30
  -2   5  -1   26.90    1.40
   2  -5   1   25.80    1.10
  -3   5  -1   10.50    0.70
  -3   5  -1    9.90    0.80
  -4   5  -1   10.00    0.70
  -4   5  -1    9.30    0.80
  -5   5  -1    0.50    0.30
  -5   5  -1    0.10    0.20
  -6   5  -1    2.90    0.60
  -7   5  -1    0.70    0.50
  -8   5  -1    1.30    0.60
  -9   5  -1    0.10    0.50
  10   4  -1   -0.30    0.50
   9   4  -1   13.00    1.10
   8   4  -1    0.10    0.40
   6   4  -1   10.90    0.90
   6   4  -1   11.40    0.80
   5   4  -1    0.80    0.20
   4   4  -1    0.90    0.20
   3   4  -1   73.79    3.10
   2   4  -1   42.00    1.90
   1   4  -1    4.20    0.40
   1   4  -1    4.90    0.30
   0   4  -1   56.69    2.40
   0   4  -1   56.69    2.50
  -1   4  -1    0.00    0.10
  -1   4  -1    0.00    0.10
   1  -4   1    0.00    0.10
  -2   4  -1  125.79    5.30
  -2   4  -1  128.69    5.20
   2  -4   1  118.29    4.80
  -3   4  -1    4.10    0.50
  -3   4  -1    4.70    0.40
   3  -4   1    4.00    0.30
  -4   4  -1    2.10    0.30
  -4   4  -1    2.10    0.40
  -5   4  -1    3.00    0.50
  -5   4  -1    1.20    0.30
  -6   4  -1    3.20    0.60
  -7   4  -1    2.70    0.60
  -8   4  -1    0.70    0.60
  -9   4  -1    0.30    0.50
  10   3  -1    0.10    0.50
   9   3  -1    0.60    0.50
   8   3  -1    0.70    0.40
   7   3  -1    0.70    0.40
   6   3  -1    0.40    0.30
   6   3  -1    0.30    0.20
   5   3  -1    9.80    0.60
   4   3  -1   60.89    2.60
   2   3  -1    0.80    0.20
   1   3  -1    3.60    0.30
  -1   3  -1  160.88    6.40
   1  -3   1  143.69    5.80
  -2   3  -1    1.70    0.20
  -2   3  -1    1.70    0.30
   2  -3   1    1.70    0.10
  -3   3  -1   10.80    0.80
  -3   3  -1   10.90    0.60
   3  -3   1   10.30    0.50
  -4   3  -1    1.50    0.30
   4  -3   1    1.90    0.20
  -5   3  -1   28.90    1.40
  -5   3  -1   28.90    1.60
   5  -3   1   29.50    1.30
  -6   3  -1    7.10    0.80
  -7   3  -1    5.70    0.80
  -8   3  -1    8.70    1.10
  -9   3  -1    1.60    0.60
 -10   3  -1    2.70    0.80
  10   2  -1    0.10    0.50
   9   2  -1    0.10    0.40
   8   2  -1    0.20    0.40
   7   2  -1    1.10    0.40
   6   2  -1    6.70    0.70
   6   2  -1    6.40    0.50
  -6  -2   1    6.60    0.60
   5   2  -1    6.70    0.60
   5   2  -1    7.50    0.50
  -5  -2   1    7.40    0.50
   4   2  -1   38.10    1.80
   4   2  -1   40.40    1.70
  -4  -2   1   40.60    1.80
   3   2  -1   27.90    1.20
   2   2  -1   21.70    1.00
  -2  -2   1   22.40    0.90
   1   2  -1  177.28    7.10
  -1  -2   1  171.98    7.10
   0   2  -1    9.00    0.40
  -1   2  -1  459.45   18.30
  -1   2  -1  434.36   18.00
  -2   2  -1   56.59    2.40
  -2   2  -1   55.79    2.50
   2  -2   1   55.39    2.20
  -3   2  -1  132.19    5.70
  -3   2  -1  134.49    5.50
  -4   2  -1    0.30    0.20
   4  -2   1    0.40    0.10
  -5   2  -1   56.69    2.50
  -5   2  -1   56.19    2.70
   5  -2   1   59.39    2.40
  -6   2  -1   45.50    2.30
  -6   2  -1   41.10    2.00
   6  -2   1   45.90    1.90
  -7   2  -1    3.50    0.60
  -8   2  -1    6.70    0.90
  -9   2  -1    0.20    0.50
 -10   2  -1    0.20    0.50
  10   1  -1    0.30    0.40
   9   1  -1   -0.90    0.30
   8   1  -1    0.10    0.30
   7   1  -1    1.70    0.40
  -7  -1   1    2.00    0.40
   6   1  -1    5.90    0.60
  -6  -1   1    6.10    0.60
   5   1  -1    7.70    0.50
   5   1  -1    7.90    0.60
  -5  -1   1    8.40    0.60
   4   1  -1    7.60    0.50
   4   1  -1    7.40    0.40
   3   1  -1    0.20    0.10
  -3  -1   1    0.40    0.10
   2   1  -1  230.58    9.30
  -2  -1   1  231.38    9.50
   1   1  -1  724.93   29.30
   1   1  -1  738.03   27.90
  -1  -1   1  715.63   29.70
   0   1  -1  137.69    5.70
   0   1  -1  136.99    5.30
  -1   1  -1  617.34   25.90
  -1   1  -1  640.74   25.30
  -2   1  -1   33.00    1.40
  -2   1  -1   25.10    1.40
   2  -1   1   33.00    1.20
  -3   1  -1  181.78    7.40
  -3   1  -1  173.08    7.20
   3  -1   1  172.58    6.80
  -4   1  -1  243.68   10.10
   4  -1   1  241.08    9.40
  -5   1  -1    0.00    0.20
  -5   1  -1   -0.10    0.30
   5  -1   1    0.10    0.20
  -6   1  -1    1.30    0.40
   6  -1   1    1.00    0.30
  -7   1  -1    1.00    0.40
   7  -1   1    1.70    0.30
  -8   1  -1   -0.10    0.40
   8  -1   1   -0.40    0.20
  -9   1  -1    0.40    0.50
 -10   1  -1    0.90    0.50
  10   0  -1    0.60    0.40
   9   0  -1   -0.10    0.30
   8   0  -1    0.20    0.30
  -8   0   1    0.40    0.40
   7   0  -1    0.60    0.30
  -7   0   1    0.90    0.40
   6   0  -1    1.00    0.30
  -6   0   1    1.20    0.30
   5   0  -1   -0.10    0.10
   5   0  -1   -0.10    0.20
  -5   0   1    0.10    0.20
   4   0  -1   51.59    2.10
   4   0  -1   45.70    2.00
  -4   0   1   49.60    2.20
   3   0  -1  207.28    7.60
   3   0  -1  206.78    7.90
  -3   0   1  175.18    8.10
   2   0  -1  372.86   15.10
   2   0  -1  371.16   14.40
  -2   0   1  383.16   15.40
   1   0  -1  415.26   16.40
  -1   0   1  398.16   16.70
   0   0  -1  649.14   27.00
   0   0  -1  677.33   25.60
   0   0   1  680.43   27.40
  -1   0  -1   82.79    3.20
  -1   0  -1   80.59    3.40
  -1   0  -1   85.09    3.50
  -2   0  -1 1005.40   40.50
  -2   0  -1  969.10   39.90
  -3   0  -1    0.50    0.10
  -3   0  -1   -0.20    0.10
  -4   0  -1   21.60    1.10
  -5   0  -1    0.40    0.20
   5   0   1   -0.30    0.20
  -6   0  -1    1.40    0.30
   6   0   1    0.80    0.30
  -7   0  -1    1.20    0.40
   7   0   1    1.10    0.30
  -8   0  -1    4.30    0.60
   8   0   1    4.30    0.60
  -9   0  -1    0.50    0.40
   9   0   1    0.40    0.40
   9  -1  -1   -0.10    0.30
  -9   1   1    0.60    0.50
   8  -1  -1    0.50    0.30
  -8   1   1    0.50    0.40
   7  -1  -1    0.00    0.20
  -7   1   1    0.00    0.30
   6  -1  -1    2.70    0.40
  -6   1   1    2.70    0.50
   5  -1  -1   61.79    2.60
  -5   1   1   61.49    2.80
   4  -1  -1    0.60    0.20
  -4   1   1    1.00    0.30
   3  -1  -1   82.09    3.30
  -3   1   1   84.59    3.60
   2  -1  -1 2212.08   82.89
  -2   1   1 2125.49   88.89
   1  -1  -1  292.37   10.70
  -1   1   1  260.87   11.50
  -1   1   1  285.07   11.30
   0   1   1  273.67   11.70
   0   1   1  303.77   11.90
  -1  -1  -1  670.23   25.60
   1   1   1  666.63   27.30
  -2  -1  -1  137.19    5.70
  -3  -1  -1    0.50    0.10
  -4  -1  -1    0.70    0.20
  -5  -1  -1   12.70    0.80
  -6  -1  -1   58.09    2.70
   6   1   1   58.29    2.60
   6   1   1   61.89    2.60
  -7  -1  -1    1.30    0.30
   7   1   1    0.70    0.30
   7   1   1    1.00    0.30
  -8  -1  -1   13.80    1.00
   8   1   1   14.10    1.00
   9   1   1    1.90    0.50
  10   1   1    1.80    0.50
 -10   2   1    0.70    0.60
  -9   2   1    0.50    0.50
   8  -2  -1    1.20    0.30
  -8   2   1    0.80    0.50
   7  -2  -1   21.60    1.20
  -7   2   1   21.70    1.40
   6  -2  -1   39.50    1.80
  -6   2   1   40.10    2.10
   5  -2  -1   25.60    1.30
  -5   2   1   35.70    1.70
   4  -2  -1  424.86   16.20
  -4   2   1  419.96   17.00
  -4   2   1  425.16   17.50
   3  -2  -1  477.25   18.00
  -3   2   1  478.15   19.40
  -3   2   1  459.95   19.00
   2  -2  -1   70.89    2.80
  -2   2   1   71.29    2.90
   1  -2  -1  606.14   23.10
  -1   2   1  591.04   24.30
  -1   2   1  610.74   24.80
   0  -2  -1  253.07    9.70
   0   2   1  266.17   10.40
   0   2   1  242.38   10.20
  -1  -2  -1  147.19    5.90
   1   2   1  154.98    6.20
   1   2   1  153.48    6.20
   2   2   1  158.58    6.60
   2   2   1  164.28    6.60
  -3  -2  -1  103.89    4.20
   3   2   1   98.99    4.20
  -4  -2  -1  255.27   10.30
   4   2   1  243.78   10.20
  -5  -2  -1    3.60    0.40
   5   2   1    3.30    0.40
  -6  -2  -1   38.90    1.80
   6   2   1   37.80    1.80
  -7  -2  -1   16.20    1.00
   7   2   1   17.50    1.00
   7   2   1   16.00    1.10
   8   2   1   10.50    0.90
   9   2   1    0.20    0.40
  10   2   1   -0.30    0.40
 -10   3   1    1.10    0.60
  -9   3   1    3.90    0.80
  -8   3   1   14.30    1.30
   7  -3  -1   11.80    0.80
  -7   3   1   10.50    1.10
   6  -3  -1   27.20    1.30
  -6   3   1   29.60    1.70
   5  -3  -1  127.09    5.20
  -5   3   1  135.59    5.80
   4  -3  -1   47.70    2.00
  -4   3   1   46.90    2.10
  -4   3   1   49.20    2.30
   3  -3  -1    0.80    0.20
  -3   3   1    1.00    0.20
   2  -3  -1  163.08    6.40
  -2   3   1  167.38    6.80
  -2   3   1  172.78    7.00
   1  -3  -1  107.19    4.10
  -1   3   1  105.29    4.30
  -1   3   1  104.19    4.40
   0  -3  -1  348.97   12.70
   0   3   1  324.87   13.60
   0   3   1  324.07   13.40
  -1  -3  -1  101.29    4.10
   1   3   1  108.39    4.30
  -2  -3  -1  193.08    7.80
   2   3   1  204.18    8.20
   2   3   1  203.08    8.20
   3   3   1  185.88    7.80
   3   3   1  193.78    7.80
   4   3   1  115.39    4.70
   4   3   1  107.59    4.60
  -5  -3  -1    6.70    0.50
   5   3   1    7.70    0.60
   6   3   1   37.70    1.80
   7   3   1    9.60    0.80
   8   3   1    1.80    0.50
   9   3   1    1.00    0.40
  10   3   1    0.40    0.40
  -9   4   1    2.10    0.70
  -8   4   1    4.30    0.80
  -7   4   1   12.70    1.20
  -6   4   1    5.40    0.70
   5  -4  -1    6.60    0.50
  -5   4   1    7.50    0.80
   3  -4  -1    0.50    0.10
  -3   4   1    0.80    0.30
   2  -4  -1   30.10    1.20
  -2   4   1   30.40    1.50
   1  -4  -1    9.00    0.40
  -1   4   1    7.30    0.50
  -1   4   1    8.40    0.60
   0  -4  -1   98.69    3.80
   0   4   1   95.79    4.10
   0   4   1   97.89    4.00
  -1  -4  -1  229.48    8.30
   1   4   1  201.98    8.80
   1   4   1  211.48    8.70
   2   4   1  148.89    6.10
   3   4   1   71.79    3.10
   4   4   1   72.19    3.10
   4   4   1   70.29    2.90
   5   4   1   16.50    1.00
   6   4   1    6.00    0.60
   7   4   1    1.10    0.30
   8   4   1    0.30    0.40
   9   4   1    0.80    0.40
  10   4   1    2.30    0.60
  -9   5   1    1.00    0.60
  -8   5   1    0.70    0.60
  -7   5   1    0.80    0.50
  -6   5   1    3.40    0.60
  -5   5   1    0.50    0.30
   4  -5  -1    3.40    0.30
  -4   5   1    4.10    0.60
  -4   5   1    3.40    0.40
   3  -5  -1   41.90    1.70
  -3   5   1   43.90    2.10
  -3   5   1   41.70    1.90
   2  -5  -1   73.29    2.90
  -2   5   1   71.89    3.10
  -2   5   1   71.89    3.20
   1  -5  -1    2.80    0.30
  -1   5   1    2.50    0.40
  -1   5   1    2.50    0.30
   0  -5  -1  178.58    6.90
   0   5   1  176.18    7.40
   0   5   1  180.58    7.30
  -1  -5  -1  118.79    4.30
   1   5   1   98.79    4.50
   1   5   1  107.39    4.50
  -2  -5  -1  106.39    4.40
   2   5   1  115.89    4.60
   3   5   1    6.60    0.50
   4   5   1    6.50    0.60
   5   5   1    7.50    0.60
   6   5   1   20.90    1.20
   7   5   1    4.20    0.50
   8   5   1   11.60    0.90
   9   5   1    1.20    0.50
  10   5   1   -0.20    0.40
  -8   6   1    0.60    0.60
  -7   6   1    0.30    0.50
  -6   6   1    2.20    0.60
  -5   6   1   10.80    1.00
  -4   6   1   19.90    1.30
   3  -6  -1    4.50    0.40
  -3   6   1    3.80    0.60
  -3   6   1    4.80    0.50
   2  -6  -1   40.30    1.60
  -2   6   1   36.60    1.80
  -2   6   1   39.90    2.00
   1  -6  -1   15.00    0.80
  -1   6   1   15.20    0.90
  -1   6   1   15.20    0.90
   0  -6  -1   72.09    3.00
   0   6   1   74.59    3.20
   0   6   1   73.49    3.20
  -1  -6  -1   37.90    1.60
   1   6   1   34.90    1.60
   1   6   1   32.20    1.60
   3   6   1   12.30    0.80
   4   6   1   57.29    2.60
   5   6   1   26.60    1.40
   6   6   1    6.50    0.70
   7   6   1   -0.30    0.30
   8   6   1    0.50    0.40
   9   6   1   -0.20    0.40
  -8   7   1    0.40    0.60
  -7   7   1    0.70    0.60
  -6   7   1    2.70    0.70
  -5   7   1    0.90    0.50
  -4   7   1   13.40    1.10
  -3   7   1    3.60    0.40
  -3   7   1    3.00    0.50
   2  -7  -1   12.50    0.70
  -2   7   1   12.40    0.90
  -2   7   1   12.30    0.80
   1  -7  -1   51.79    2.10
  -1   7   1   49.99    2.40
  -1   7   1   51.79    2.30
   0  -7  -1   25.70    1.20
   0   7   1   27.10    1.30
   0   7   1   22.80    1.30
  -1  -7  -1    0.40    0.20
   1   7   1    0.50    0.20
   1   7   1    0.50    0.20
  -2  -7  -1   13.50    0.90
   2   7   1   15.50    0.90
   3   7   1   60.59    2.70
   4   7   1    6.00    0.60
   5   7   1   -0.30    0.20
   6   7   1    0.30    0.30
   7   7   1    1.40    0.40
   8   7   1    0.90    0.40
   9   7   1    0.40    0.50
  -7   8   1   -0.50    0.50
  -6   8   1    5.00    0.90
  -5   8   1    2.00    0.60
  -4   8   1   -0.30    0.30
  -3   8   1   10.60    0.90
  -3   8   1   10.80    0.80
  -2   8   1    7.90    0.80
  -2   8   1    7.60    0.70
  -1   8   1   19.70    1.10
  -1   8   1   18.00    1.10
   0  -8  -1    1.30    0.30
   0   8   1    0.90    0.30
   0   8   1    0.40    0.30
  -1  -8  -1   46.30    2.10
   1   8   1   45.30    2.20
   2   8   1   26.80    1.40
   3   8   1    0.60    0.30
   4   8   1    1.30    0.40
   5   8   1    0.90    0.30
   6   8   1    1.50    0.40
   7   8   1    0.40    0.40
   8   8   1    0.30    0.40
  -6   9   1    0.90    0.60
  -5   9   1    0.00    0.40
  -4   9   1    0.30    0.50
  -3   9   1   12.30    1.00
  -3   9   1   12.70    1.10
  -2   9   1    4.50    0.60
  -2   9   1    6.20    0.70
  -1   9   1   15.90    1.10
   0   9   1   22.70    1.30
   1   9   1    0.00    0.30
   2   9   1    7.50    0.70
   3   9   1    1.50    0.40
   4   9   1    0.20    0.30
   5   9   1    2.10    0.40
   6   9   1    0.10    0.30
   7   9   1   -0.30    0.30
   8   9   1    4.20    0.70
  -5  10   1    2.40    0.70
  -4  10   1    4.30    0.80
  -3  10   1    2.30    0.60
  -2  10   1    1.20    0.40
  -1  10   1    2.80    0.50
   0  10   1    8.00    0.80
   1  10   1    2.30    0.50
   2  10   1    0.20    0.30
   3  10   1    0.30    0.30
   4  10   1    7.60    0.80
   5  10   1    0.20    0.40
   6  10   1    6.10    0.80
   7  10   1   -0.30    0.40
  -2  11   1    1.30    0.50
  -1  11   1    0.00    0.30
   0  11   1    0.30    0.40
   1  11   1   -0.10    0.30
   2  11   1   10.80    0.90
   3  11   1    0.20    0.40
   4  11   1    2.20    0.50
   5  11   1    0.40    0.40
  -1  12   1    0.00    0.40
   0  12   1    4.50    0.70
   1  12   1    0.60    0.50
   2  12   1    0.80    0.50
   3  12   1    0.10    0.40
   4  11  -2    0.30    0.40
   3  11  -2    0.20    0.40
   2  11  -2    0.10    0.40
   1  11  -2   -0.10    0.40
   0  11  -2    1.90    0.60
  -1  11  -2    0.40    0.40
  -2  11  -2    0.00    0.40
  -3  11  -2   -0.50    0.40
   6  10  -2    0.40    0.40
   6  10  -2   -0.20    0.40
   5  10  -2    0.00    0.30
   5  10  -2   -0.50    0.30
   4  10  -2    0.90    0.40
   3  10  -2    0.10    0.40
   2  10  -2    0.10    0.30
   1  10  -2    2.00    0.50
   0  10  -2    4.10    0.60
  -1  10  -2    1.00    0.40
  -2  10  -2    0.80    0.40
  -3  10  -2    1.50    0.50
  -4  10  -2    4.00    0.70
  -5  10  -2    0.10    0.50
   7   9  -2    0.50    0.40
   7   9  -2    0.10    0.40
   6   9  -2    0.50    0.40
   6   9  -2    0.30    0.40
   5   9  -2    1.40    0.40
   5   9  -2    1.50    0.40
   4   9  -2    0.00    0.30
   3   9  -2    0.00    0.30
   2   9  -2   12.30    1.00
   1   9  -2    2.70    0.50
   0   9  -2    1.00    0.40
  -1   9  -2   -0.10    0.30
  -2   9  -2   14.10    1.10
  -3   9  -2    4.70    0.70
  -3   9  -2    3.90    0.60
  -4   9  -2   10.60    1.10
  -4   9  -2   12.10    1.10
  -5   9  -2   10.40    1.10
  -6   9  -2    5.90    0.90
   7   8  -2    1.00    0.50
   7   8  -2    1.30    0.50
   6   8  -2    1.20    0.40
   6   8  -2    2.00    0.50
   5   8  -2    1.80    0.40
   5   8  -2    1.70    0.40
   4   8  -2    6.90    0.70
   3   8  -2    0.90    0.30
   2   8  -2   14.10    1.00
   1   8  -2    0.60    0.30
   0   8  -2   25.00    1.40
  -1   8  -2    9.70    0.90
  -2   8  -2   47.60    2.40
  -2   8  -2   46.80    2.40
  -3   8  -2   48.80    2.40
  -3   8  -2   48.30    2.50
  -4   8  -2   23.40    1.50
  -4   8  -2   23.40    1.50
  -5   8  -2   20.10    1.40
  -6   8  -2    1.00    0.50
  -7   8  -2    2.20    0.70
   8   7  -2    0.90    0.50
   7   7  -2    2.60    0.60
   6   7  -2    0.10    0.30
   6   7  -2    0.70    0.30
   5   7  -2    0.10    0.30
   5   7  -2   -0.50    0.30
   4   7  -2   14.00    1.00
   3   7  -2    0.90    0.30
   2   7  -2   26.60    1.50
   1   7  -2   44.50    2.20
   0   7  -2  104.79    4.60
  -1   7  -2  178.08    7.40
  -1   7  -2  170.68    7.40
  -2   7  -2   37.30    1.90
  -2   7  -2   37.90    1.90
  -3   7  -2   26.40    1.50
  -3   7  -2   26.20    1.50
  -4   7  -2    2.50    0.50
  -4   7  -2    1.90    0.50
  -5   7  -2    6.80    0.80
  -5   7  -2    6.80    0.80
  -6   7  -2    0.40    0.40
  -7   7  -2    0.10    0.40
  -8   7  -2    0.20    0.50
   9   6  -2    0.30    0.50
   8   6  -2    0.50    0.40
   7   6  -2    0.00    0.30
   6   6  -2    5.10    0.70
   6   6  -2    5.30    0.60
   5   6  -2    1.30    0.40
   5   6  -2    1.20    0.40
   4   6  -2   15.50    1.00
   3   6  -2  195.78    8.10
   2   6  -2  138.79    5.90
   0   6  -2  106.19    4.50
   0   6  -2  101.69    4.40
  -1   6  -2   24.10    1.30
  -1   6  -2   23.70    1.30
  -2   6  -2    9.70    0.70
  -2   6  -2    9.10    0.80
  -3   6  -2   34.80    1.80
  -3   6  -2   34.90    1.80
  -4   6  -2    0.30    0.30
  -4   6  -2    0.20    0.30
  -5   6  -2    1.90    0.40
  -5   6  -2    1.80    0.50
  -6   6  -2   -0.30    0.30
  -7   6  -2    3.70    0.70
  -8   6  -2    0.20    0.50
   9   5  -2   -0.10    0.40
   8   5  -2    3.10    0.60
   7   5  -2    3.40    0.60
   6   5  -2   13.10    1.00
   6   5  -2   10.60    1.00
   5   5  -2  241.78    9.70
   5   5  -2  227.58    9.40
   4   5  -2  152.48    6.40
   3   5  -2  130.29    5.50
   2   5  -2  241.18    9.90
   1   5  -2   29.00    1.40
  -1  -5   2   28.90    1.30
   0   5  -2    5.00    0.50
   0   5  -2    5.20    0.40
  -1   5  -2   32.20    1.60
  -1   5  -2   32.30    1.60
  -2   5  -2    1.50    0.30
  -2   5  -2    1.20    0.30
  -3   5  -2   52.99    2.50
  -3   5  -2   50.59    2.40
  -4   5  -2    0.00    0.20
  -4   5  -2    0.40    0.30
  -5   5  -2    6.30    0.70
  -5   5  -2    6.50    0.80
  -6   5  -2    1.80    0.50
  -7   5  -2    0.10    0.40
  -8   5  -2    0.20    0.50
  -9   5  -2    0.20    0.50
   9   4  -2    6.70    0.90
   8   4  -2    9.30    1.00
   7   4  -2   77.19    3.50
   6   4  -2  129.29    5.30
   6   4  -2  123.49    5.30
   5   4  -2   20.40    1.20
   5   4  -2   20.20    1.10
   4   4  -2  116.39    4.80
   4   4  -2  114.49    4.70
   3   4  -2   18.50    1.00
   2   4  -2   27.70    1.30
   1   4  -2   13.60    0.80
  -1  -4   2   14.40    0.70
   0   4  -2    4.00    0.40
   0   4  -2    6.00    0.40
  -1   4  -2  168.98    6.90
  -1   4  -2  166.58    7.00
  -2   4  -2   33.20    1.60
  -2   4  -2   34.70    1.70
  -3   4  -2    0.40    0.20
  -3   4  -2    0.50    0.20
  -4   4  -2   10.90    0.80
  -4   4  -2   10.60    0.70
  -5   4  -2    0.10    0.30
  -5   4  -2   -0.10    0.20
  -6   4  -2    1.80    0.50
  -6   4  -2    1.90    0.40
  -7   4  -2    0.50    0.40
  -8   4  -2    0.20    0.50
  -9   4  -2    0.00    0.50
  10   3  -2    4.00    0.80
   9   3  -2   11.70    1.10
   8   3  -2   38.00    2.00
   7   3  -2    1.80    0.50
   6   3  -2    2.40    0.40
   5   3  -2    1.00    0.30
   5   3  -2    1.60    0.20
   4   3  -2   34.30    1.50
   4   3  -2   34.40    1.60
  -4  -3   2   32.10    1.50
   3   3  -2   46.60    2.00
   3   3  -2   44.60    2.00
  -3  -3   2   43.10    1.90
   2   3  -2   16.30    0.80
   1   3  -2   39.10    1.80
  -1  -3   2   41.00    1.70
   0   3  -2  386.46   15.80
  -1   3  -2   10.90    0.60
  -1   3  -2   10.50    0.50
  -1   3  -2   11.50    0.60
  -2   3  -2    3.00    0.40
  -2   3  -2    3.40    0.30
  -3   3  -2    9.80    0.60
  -3   3  -2   10.30    0.70
  -4   3  -2   11.70    0.70
   4  -3   2   11.30    0.50
  -5   3  -2    1.70    0.30
  -5   3  -2    1.10    0.40
  -6   3  -2    9.70    1.00
  -6   3  -2   11.90    0.80
  -7   3  -2    3.80    0.70
  -8   3  -2    5.00    0.80
  -9   3  -2   -0.50    0.50
 -10   3  -2    0.00    0.60
  10   2  -2    3.90    0.70
   9   2  -2   -0.20    0.40
   8   2  -2    0.50    0.40
   7   2  -2    0.20    0.30
   6   2  -2    2.90    0.50
   5   2  -2    4.60    0.40
  -5  -2   2    4.90    0.50
   4   2  -2   43.90    1.90
   3   2  -2    2.70    0.30
   3   2  -2    3.00    0.30
  -3  -2   2    2.70    0.30
   2   2  -2  231.28    9.10
   2   2  -2  234.88    9.50
  -2  -2   2  235.48    9.60
   1   2  -2   18.80    0.90
   1   2  -2   19.20    0.80
  -1  -2   2   18.80    0.80
   0   2  -2  335.17   12.40
   0   2  -2  299.77   13.10
   0  -2   2  338.07   13.30
  -1   2  -2  190.28    7.90
  -2   2  -2    5.20    0.40
  -3   2  -2    1.70    0.20
   3  -2   2    2.00    0.20
  -4   2  -2   97.69    4.20
  -4   2  -2   92.09    4.00
   4  -2   2   93.79    3.70
  -5   2  -2   23.20    1.30
  -5   2  -2   22.90    1.20
   5  -2   2   23.10    1.10
  -6   2  -2   21.90    1.40
  -6   2  -2   26.10    1.30
   6  -2   2   24.50    1.20
  -7   2  -2    0.00    0.40
  -8   2  -2    0.70    0.50
  -9   2  -2   -0.30    0.40
 -10   2  -2   -0.10    0.50
  10   1  -2    0.10    0.40
   9   1  -2    0.10    0.40
   8   1  -2    0.40    0.40
   7   1  -2    1.00    0.40
  -7  -1   2    0.60    0.40
   6   1  -2   24.60    1.30
  -6  -1   2   25.60    1.40
   5   1  -2    3.80    0.40
   5   1  -2    4.10    0.30
  -5  -1   2    3.60    0.40
   4   1  -2    0.60    0.10
   4   1  -2    0.70    0.20
  -4  -1   2    0.50    0.20
   3   1  -2   38.00    1.60
  -3  -1   2   39.60    1.70
   2   1  -2  106.99    4.40
   1   1  -2  259.87   10.40
   1   1  -2  256.67    9.90
  -1  -1   2  254.97   10.50
   0   1  -2  411.36   16.70
   0   1  -2  408.36   15.80
   0  -1   2  419.06   17.00
  -1   1  -2   60.79    2.40
  -1   1  -2   60.89    2.60
  -1   1  -2   64.09    2.60
  -3   1  -2   47.30    2.10
  -4   1  -2  104.39    4.40
  -4   1  -2  101.19    4.30
   4  -1   2   98.49    4.00
  -5   1  -2    2.00    0.40
  -5   1  -2    1.90    0.30
   5  -1   2    2.00    0.30
  -6   1  -2    0.30    0.20
  -6   1  -2   -0.10    0.30
   6  -1   2    0.10    0.20
  -7   1  -2    0.40    0.40
   7  -1   2    0.20    0.20
  -8   1  -2    2.20    0.50
  -9   1  -2    1.30    0.50
 -10   1  -2   -0.50    0.40
  10   0  -2    0.40    0.40
   9   0  -2    0.30    0.30
   8   0  -2    2.90    0.50
  -8   0   2    3.10    0.60
   7   0  -2    0.60    0.30
  -7   0   2    0.00    0.30
   6   0  -2    4.20    0.50
  -6   0   2    3.70    0.50
   5   0  -2   12.90    0.80
  -5   0   2   12.50    0.80
   4   0  -2    2.60    0.30
   4   0  -2    3.30    0.20
  -4   0   2    3.30    0.40
   3   0  -2   32.50    1.50
   3   0  -2   36.80    1.40
   2   0  -2   42.20    1.70
   1   0  -2   27.00    1.10
   1   0  -2   27.50    1.10
  -1   0   2   27.40    1.20
   0   0  -2    5.30    0.30
   0   0  -2    5.20    0.30
   0   0   2    5.00    0.30
  -1   0  -2  471.55   18.10
  -2   0  -2  437.86   17.80
  -2   0  -2  441.56   18.10
  -2   0  -2  444.46   16.90
  -3   0  -2  116.69    4.90
  -4   0  -2   62.39    2.70
  -4   0  -2   61.69    2.80
  -5   0  -2    0.00    0.20
  -6   0  -2    6.10    0.60
   6   0   2    6.30    0.50
  -7   0  -2    2.40    0.50
   7   0   2    2.50    0.40
  -8   0  -2    0.20    0.30
   8   0   2    0.20    0.30
  -9   0  -2    1.60    0.50
   9  -1  -2    0.40    0.30
  -9   1   2    0.00    0.50
   8  -1  -2    0.70    0.30
  -8   1   2    0.90    0.50
   7  -1  -2    0.50    0.30
  -7   1   2    0.00    0.30
   6  -1  -2    3.70    0.40
  -6   1   2    3.30    0.50
   5  -1  -2    3.60    0.40
  -5   1   2    3.30    0.50
   4  -1  -2    5.00    0.40
  -4   1   2    4.80    0.50
   3  -1  -2   37.30    1.60
  -3   1   2   38.00    1.70
   2  -1  -2  118.89    4.60
   1  -1  -2 1837.92   69.49
  -1   1   2 1797.72   74.39
  -1  -1  -2  335.17   13.10
   1   1   2  349.87   14.00
  -2  -1  -2  288.57   11.00
   2   1   2  284.17   11.80
  -3  -1  -2   68.79    2.90
  -4  -1  -2    5.50    0.40
  -5  -1  -2    3.20    0.40
  -6  -1  -2    0.30    0.20
  -7  -1  -2    3.30    0.50
   7   1   2    3.80    0.50
  -8  -1  -2    1.20    0.40
   8   1   2    1.10    0.40
   9   1   2    6.10    0.70
  -9   2   2    0.50    0.50
   8  -2  -2    0.70    0.30
  -8   2   2    1.30    0.50
   7  -2  -2    0.90    0.30
  -7   2   2    1.30    0.50
   6  -2  -2    0.10    0.20
  -6   2   2   -0.30    0.30
   5  -2  -2   37.60    1.70
  -5   2   2   36.30    1.90
   4  -2  -2  130.99    5.10
  -4   2   2  129.09    5.60
   3  -2  -2  487.15   18.90
  -3   2   2  501.75   20.40
   2  -2  -2   97.99    3.80
  -2   2   2   96.79    3.90
   1  -2  -2  127.09    4.90
  -1   2   2  127.09    5.10
   0  -2  -2   91.09    3.50
   0   2   2   88.09    3.70
   0   2   2   94.39    3.80
   1   2   2  120.49    4.90
   1   2   2  114.59    4.80
  -2  -2  -2   42.50    2.00
   2   2   2   56.79    2.10
  -3  -2  -2   21.10    1.00
   3   2   2   20.30    1.00
  -5  -2  -2    4.30    0.40
  -6  -2  -2    5.50    0.50
   6   2   2    3.40    0.40
  -7  -2  -2   47.20    2.30
   7   2   2   48.10    2.30
   8   2   2    3.60    0.50
   9   2   2    2.80    0.50
  10   2   2    0.40    0.40
 -10   3   2    0.20    0.60
  -9   3   2    0.60    0.60
  -8   3   2    1.40    0.50
   7  -3  -2    7.80    0.70
  -7   3   2    8.50    1.00
   6  -3  -2   23.50    1.20
  -6   3   2   21.40    1.40
   5  -3  -2    3.00    0.30
  -5   3   2    3.30    0.60
   4  -3  -2    0.40    0.20
  -4   3   2    1.10    0.40
   3  -3  -2  163.68    6.10
  -3   3   2  162.28    6.40
  -3   3   2  143.39    6.60
   2  -3  -2   69.59    2.80
  -2   3   2   73.49    3.20
  -2   3   2   73.29    3.00
   1  -3  -2    3.00    0.20
  -1   3   2    3.60    0.30
  -1   3   2    3.30    0.20
   0  -3  -2   10.30    0.50
   0   3   2   10.80    0.60
   0   3   2   10.10    0.50
  -1  -3  -2  150.98    5.90
   1   3   2  153.78    6.30
  -3  -3  -2  191.38    7.20
   3   3   2  179.78    7.60
   3   3   2  182.18    7.60
   4   3   2   33.40    1.50
   4   3   2   30.80    1.40
   5   3   2  306.57   12.40
   5   3   2  300.37   12.50
   6   3   2   13.40    0.90
   6   3   2   13.60    0.80
   7   3   2    0.40    0.30
   8   3   2    0.20    0.30
   9   3   2    2.20    0.50
  10   3   2   -0.10    0.40
  11   3   2   -0.10    0.40
  -9   4   2    0.20    0.60
  -8   4   2    0.90    0.60
  -7   4   2    3.90    0.70
   6  -4  -2    6.60    0.60
  -6   4   2    6.60    0.80
   5  -4  -2    8.10    0.60
  -5   4   2    9.80    0.90
   3  -4  -2    4.10    0.40
  -3   4   2    4.30    0.50
  -3   4   2    4.30    0.30
   2  -4  -2    5.90    0.40
  -2   4   2    6.50    0.60
  -2   4   2    6.30    0.40
   1  -4  -2   11.70    0.60
  -1   4   2   12.70    0.70
   0  -4  -2   19.00    0.90
   0   4   2   19.50    1.00
   0   4   2   19.00    0.90
  -1  -4  -2 1173.18   45.10
   1   4   2 1153.78   47.40
   1   4   2 1192.28   47.90
  -2  -4  -2  122.79    4.90
   2   4   2  123.19    5.20
   2   4   2  127.49    5.20
   3   4   2  521.85   20.70
   3   4   2  503.35   20.90
   4   4   2    1.70    0.20
   4   4   2    1.20    0.30
   5   4   2    4.40    0.50
   5   4   2    3.90    0.40
   6   4   2    5.10    0.50
   7   4   2    3.60    0.50
   8   4   2   -0.10    0.30
   9   4   2    0.40    0.40
  10   4   2    0.20    0.40
  -9   5   2    0.30    0.60
  -8   5   2    3.10    0.80
  -7   5   2    0.20    0.50
  -6   5   2    6.60    0.90
   5  -5  -2    1.80    0.30
  -5   5   2    1.60    0.50
   4  -5  -2    2.20    0.30
  -4   5   2    2.30    0.50
   3  -5  -2   26.30    1.20
  -3   5   2   29.10    1.50
  -3   5   2   25.20    1.20
   2  -5  -2    7.20    0.50
  -2   5   2    8.40    0.70
  -2   5   2    7.90    0.50
   1  -5  -2  703.83   26.80
  -1   5   2  705.23   28.80
  -1   5   2  697.43   28.30
   0  -5  -2   58.89    2.40
   0   5   2   59.59    2.50
   0   5   2   58.39    2.60
  -1  -5  -2  140.29    5.40
   1   5   2  133.69    5.70
   1   5   2  138.29    5.70
  -2  -5  -2   20.80    1.00
   2   5   2   22.10    1.00
   2   5   2   21.30    1.10
  -3  -5  -2    5.10    0.50
   3   5   2    6.10    0.40
   3   5   2    5.70    0.50
   4   5   2    5.50    0.50
   5   5   2    8.70    0.70
   6   5   2    0.40    0.30
   7   5   2    3.90    0.50
   8   5   2    1.70    0.40
  10   5   2    0.60    0.50
  -8   6   2    0.20    0.60
  -7   6   2    0.40    0.50
  -6   6   2    2.20    0.60
  -5   6   2   29.10    1.80
   4  -6  -2    5.00    0.40
  -4   6   2    5.00    0.70
   3  -6  -2  109.49    4.30
  -3   6   2  107.09    4.80
  -3   6   2  105.89    4.50
   2  -6  -2    3.40    0.30
  -2   6   2    4.30    0.50
  -2   6   2    4.80    0.60
   1  -6  -2   13.40    0.70
  -1   6   2   13.30    0.90
  -1   6   2   12.20    0.80
   0  -6  -2    3.20    0.30
   0   6   2    3.80    0.40
   0   6   2    4.20    0.40
  -1  -6  -2    3.50    0.40
   1   6   2    4.20    0.40
   1   6   2    3.20    0.40
  -2  -6  -2    3.40    0.40
   2   6   2    3.80    0.30
   2   6   2    3.50    0.40
   4   6   2   34.00    1.60
   5   6   2   15.30    1.00
   6   6   2    1.80    0.40
   7   6   2   10.10    0.90
   8   6   2    5.00    0.60
  -8   7   2    0.00    0.60
  -7   7   2    7.80    1.10
  -6   7   2    0.70    0.50
  -5   7   2    8.30    1.00
  -4   7   2    0.00    0.40
  -3   7   2    1.40    0.50
  -3   7   2    1.50    0.30
   2  -7  -2    1.60    0.30
  -2   7   2    2.20    0.50
  -2   7   2    2.00    0.30
   1  -7  -2    7.40    0.60
  -1   7   2    8.10    0.70
  -1   7   2    8.30    0.60
   0  -7  -2   23.00    1.10
   0   7   2   23.60    1.20
   0   7   2   23.40    1.20
  -1  -7  -2   15.70    0.90
   1   7   2   16.90    1.00
   1   7   2   16.90    0.90
  -2  -7  -2   37.70    1.80
   2   7   2   39.40    1.80
  -3  -7  -2   29.50    1.50
   3   7   2   31.10    1.50
   4   7   2    8.40    0.70
   5   7   2    0.60    0.30
   6   7   2   16.70    1.10
   7   7   2    0.00    0.30
   8   7   2    3.20    0.60
  -7   8   2    0.30    0.60
  -6   8   2   -0.20    0.50
  -5   8   2   -0.50    0.40
  -4   8   2    0.90    0.50
  -3   8   2    6.10    0.80
  -2   8   2   19.10    1.10
  -2   8   2   19.00    1.30
   1  -8  -2    0.00    0.20
  -1   8   2   -0.20    0.30
  -1   8   2    0.10    0.20
   0  -8  -2   -0.10    0.20
   0   8   2   -0.60    0.20
   0   8   2   -0.40    0.20
  -1  -8  -2   24.50    1.20
   1   8   2   22.30    1.30
  -2  -8  -2   25.70    1.40
   2   8   2   27.00    1.40
   3   8   2   -0.20    0.20
   4   8   2   25.40    1.40
   5   8   2    1.10    0.40
   6   8   2    9.30    0.80
   7   8   2    0.30    0.30
   8   8   2    0.00    0.30
  -6   9   2    0.40    0.60
  -5   9   2    0.50    0.50
  -4   9   2    2.20    0.60
  -3   9   2    4.60    0.70
  -2   9   2    6.30    0.70
  -2   9   2    6.80    0.80
  -1   9   2   15.20    1.00
  -1   9   2   13.60    1.00
   0  -9  -2    6.60    0.60
   0   9   2    6.80    0.70
  -1  -9  -2    1.70    0.40
   1   9   2    1.60    0.40
  -2  -9  -2   25.20    1.40
   2   9   2   25.30    1.40
   3   9   2    0.80    0.30
   4   9   2    3.80    0.50
   5   9   2   -0.10    0.30
   6   9   2    3.70    0.60
   7   9   2    0.10    0.40
   8   9   2    1.10    0.50
  -5  10   2    2.10    0.70
  -4  10   2    2.30    0.70
  -3  10   2    7.00    0.90
  -2  10   2    0.80    0.40
  -1  10   2    0.40    0.30
   0  10   2   14.80    1.00
  -1 -10  -2    1.60    0.40
   1  10   2    1.40    0.40
   2  10   2    0.00    0.30
   3  10   2    0.30    0.30
   4  10   2    2.50    0.50
   5  10   2   -0.30    0.30
   6  10   2    5.50    0.70
   7  10   2   -0.10    0.40
  -1  11   2    1.00    0.40
   0  11   2    1.10    0.40
   1  11   2    1.70    0.40
   2  11   2    0.00    0.30
   3  11   2   -0.10    0.30
   4  11   2    6.10    0.70
   5  11   2   -0.60    0.30
  -1  12   2   -0.10    0.30
   0  12   2    2.20    0.50
   1  12   2   -0.10    0.40
   2  12   2    2.60    0.60
   3  12   2   -0.30    0.40
   2  11  -3    0.50    0.40
   1  11  -3    1.00    0.50
   0  11  -3    2.80    0.60
  -1  11  -3    0.10    0.40
  -2  11  -3    0.00    0.40
  -3  11  -3    0.20    0.50
   5  10  -3    0.10    0.40
   4  10  -3    0.00    0.40
   3  10  -3    1.50    0.50
   2  10  -3    2.90    0.60
   1  10  -3    1.30    0.50
   0  10  -3    0.20    0.40
  -1  10  -3    2.20    0.50
  -2  10  -3    0.50    0.40
  -3  10  -3    0.90    0.50
  -4  10  -3    0.70    0.50
   6   9  -3    0.70    0.40
   6   9  -3    0.60    0.40
   5   9  -3    0.50    0.40
   5   9  -3    0.10    0.40
   4   9  -3    1.10    0.40
   3   9  -3    6.00    0.70
   2   9  -3    0.20    0.30
   1   9  -3   -0.10    0.30
   0   9  -3    0.00    0.30
  -1   9  -3    2.40    0.50
  -2   9  -3    2.10    0.50
  -3   9  -3    0.70    0.40
  -4   9  -3    0.20    0.40
  -4   9  -3    0.20    0.40
  -5   9  -3   -0.30    0.40
  -6   9  -3    1.00    0.60
   7   8  -3    0.90    0.50
   6   8  -3    0.30    0.40
   6   8  -3    0.10    0.40
   5   8  -3    3.60    0.60
   5   8  -3    3.30    0.60
   4   8  -3    0.10    0.30
   4   8  -3    0.30    0.30
   3   8  -3    0.60    0.40
   3   8  -3    1.00    0.30
   2   8  -3    4.60    0.60
   1   8  -3    0.20    0.30
   0   8  -3    3.90    0.60
  -1   8  -3    2.30    0.50
  -2   8  -3    1.20    0.40
  -2   8  -3    2.20    0.50
  -3   8  -3    0.50    0.40
  -3   8  -3    1.00    0.40
  -4   8  -3   12.50    1.10
  -4   8  -3   11.10    1.10
  -5   8  -3    0.40    0.40
  -5   8  -3    0.30    0.40
  -6   8  -3    2.20    0.60
  -7   8  -3    0.00    0.50
   8   7  -3   -0.20    0.40
   7   7  -3   -0.10    0.40
   6   7  -3    0.30    0.30
   6   7  -3    0.50    0.40
   5   7  -3    0.30    0.30
   5   7  -3    0.10    0.30
   4   7  -3    8.00    0.80
   4   7  -3    8.40    0.80
   3   7  -3   -0.50    0.20
   3   7  -3    0.00    0.20
   2   7  -3   10.30    0.70
   2   7  -3   10.20    0.80
   1   7  -3   25.20    1.40
   0   7  -3   13.40    1.00
  -1   7  -3    0.40    0.30
  -1   7  -3    0.40    0.40
  -2   7  -3   18.10    1.20
  -2   7  -3   18.50    1.20
  -3   7  -3   -0.20    0.30
  -3   7  -3   -0.30    0.30
  -4   7  -3    2.80    0.60
  -4   7  -3    1.50    0.50
  -5   7  -3   -0.50    0.30
  -5   7  -3    0.70    0.40
  -6   7  -3    0.70    0.50
  -7   7  -3    0.20    0.50
  -8   7  -3    1.20    0.60
   8   6  -3    0.10    0.40
   7   6  -3    0.30    0.40
   6   6  -3    5.60    0.60
   6   6  -3    4.50    0.60
   5   6  -3    5.60    0.70
   5   6  -3    5.50    0.60
   4   6  -3   12.90    0.90
   4   6  -3   12.10    0.90
   3   6  -3   35.50    1.80
   3   6  -3   35.70    1.70
   2   6  -3    9.90    0.90
   2   6  -3   14.90    0.80
   1   6  -3   -0.50    0.20
   1   6  -3    1.00    0.20
   0   6  -3    7.10    0.70
  -1   6  -3    2.50    0.40
  -1   6  -3    4.00    0.50
  -2   6  -3    3.60    0.50
  -2   6  -3    4.00    0.50
  -3   6  -3    4.50    0.60
  -3   6  -3    5.00    0.60
  -4   6  -3    0.30    0.30
  -4   6  -3   -0.50    0.20
  -5   6  -3   -0.10    0.30
  -5   6  -3    0.10    0.30
  -6   6  -3    6.80    0.80
  -6   6  -3    8.30    0.90
  -7   6  -3    3.40    0.70
  -8   6  -3    3.60    0.70
   9   5  -3    0.60    0.50
   8   5  -3    2.50    0.60
   7   5  -3    5.30    0.70
   6   5  -3    3.20    0.50
   6   5  -3    3.70    0.60
   5   5  -3    0.40    0.30
   5   5  -3    0.70    0.40
   4   5  -3   -0.70    0.30
   4   5  -3    0.00    0.40
   3   5  -3    6.20    0.60
   3   5  -3    5.90    0.60
   2   5  -3   18.60    1.00
   2   5  -3   17.20    1.00
   1   5  -3    3.50    0.40
   1   5  -3    2.30    0.40
  -1  -5   3    3.30    0.30
   0   5  -3    0.00    0.10
  -1   5  -3   73.99    3.30
  -1   5  -3   73.89    3.30
  -2   5  -3    8.00    0.70
  -2   5  -3    7.50    0.70
  -3   5  -3    0.00    0.20
  -3   5  -3    0.00    0.20
  -4   5  -3   13.80    1.00
  -4   5  -3   12.90    0.90
  -5   5  -3   17.40    1.20
  -5   5  -3   18.20    1.20
  -6   5  -3   12.00    1.00
  -6   5  -3   11.80    1.00
  -7   5  -3    3.10    0.60
  -8   5  -3    3.00    0.70
  -9   5  -3    1.00    0.60
   9   4  -3    0.30    0.50
   8   4  -3    0.50    0.50
   7   4  -3    4.60    0.70
   6   4  -3    5.20    0.70
   5   4  -3    3.70    0.40
   5   4  -3    2.80    0.50
   4   4  -3   79.89    3.50
   4   4  -3   81.39    3.40
   3   4  -3    0.20    0.20
   3   4  -3    0.20    0.20
   2   4  -3    0.10    0.20
   2   4  -3    0.10    0.20
  -2  -4   3    0.20    0.10
   1   4  -3  100.99    4.40
   1   4  -3  107.69    4.10
  -1  -4   3  101.59    4.30
   0   4  -3    8.00    0.60
   0   4  -3    8.80    0.50
  -1   4  -3   65.49    2.50
  -1   4  -3   63.39    2.80
  -1   4  -3   63.99    2.80
  -2   4  -3   11.20    0.70
  -2   4  -3   11.20    0.80
  -3   4  -3   79.09    3.60
  -3   4  -3   84.29    3.60
  -4   4  -3   79.19    3.60
  -4   4  -3   81.99    3.70
  -5   4  -3   30.60    1.60
  -5   4  -3   30.50    1.70
  -6   4  -3    7.30    0.80
  -6   4  -3    7.90    0.90
  -7   4  -3    1.40    0.50
  -8   4  -3    0.30    0.50
  -9   4  -3   -0.70    0.40
   9   3  -3    3.20    0.70
   8   3  -3   15.10    1.20
   7   3  -3    0.10    0.40
   6   3  -3   44.70    2.20
   5   3  -3    0.20    0.20
   5   3  -3    0.30    0.30
   4   3  -3   12.30    0.80
   4   3  -3   13.30    0.70
   3   3  -3    1.90    0.30
   3   3  -3    1.80    0.20
   2   3  -3    0.20    0.10
   2   3  -3    0.00    0.10
  -2  -3   3   -0.10    0.10
   1   3  -3  205.68    8.40
  -1  -3   3  205.08    8.50
   0   3  -3  166.08    6.60
   0   3  -3  167.58    6.20
   0  -3   3  147.69    6.70
  -1   3  -3  319.17   13.00
  -1   3  -3  304.07   12.80
  -1   3  -3  319.17   12.00
  -2   3  -3  408.06   16.60
  -2   3  -3  396.76   16.30
  -3   3  -3  140.69    5.90
  -3   3  -3  142.79    6.10
  -4   3  -3    2.30    0.40
  -5   3  -3   -0.20    0.20
  -5   3  -3   -0.10    0.20
  -6   3  -3    1.00    0.30
  -6   3  -3    0.50    0.40
  -7   3  -3    0.30    0.40
  -8   3  -3   -0.40    0.40
  -9   3  -3    0.90    0.50
 -10   3  -3    0.20    0.50
  10   2  -3    5.40    0.80
   9   2  -3   -0.60    0.40
   8   2  -3    3.30    0.60
   7   2  -3    2.30    0.50
   6   2  -3   11.70    0.90
   5   2  -3    0.20    0.10
   5   2  -3    0.10    0.20
  -5  -2   3    0.10    0.20
   4   2  -3   12.20    0.70
   4   2  -3    8.60    0.60
   3   2  -3   70.79    3.00
   3   2  -3   73.99    3.00
   2   2  -3  631.14   24.90
   2   2  -3  607.64   23.70
   1   2  -3  457.95   18.70
  -1  -2   3  469.65   19.00
   0   2  -3  392.56   15.10
   0   2  -3  388.86   15.90
   0  -2   3  402.56   16.20
  -2   2  -3    0.30    0.10
  -2   2  -3    0.20    0.10
  -3   2  -3    0.70    0.20
  -3   2  -3    0.90    0.20
  -4   2  -3    3.20    0.40
  -4   2  -3    2.70    0.40
   4  -2   3    2.70    0.20
  -5   2  -3   16.60    1.10
  -5   2  -3   18.20    1.00
   5  -2   3   14.80    0.80
  -6   2  -3    1.00    0.30
  -6   2  -3    0.50    0.40
  -7   2  -3    0.20    0.30
  -7   2  -3    0.00    0.40
  -8   2  -3   -0.40    0.40
  -9   2  -3    0.30    0.50
 -10   2  -3   -0.30    0.50
  10   1  -3    0.30    0.50
   9   1  -3    0.50    0.40
   8   1  -3    2.30    0.50
   7   1  -3    0.20    0.30
   6   1  -3   23.50    1.30
  -6  -1   3   25.80    1.40
   5   1  -3   22.20    1.20
  -5  -1   3   23.70    1.30
   4   1  -3  235.48    9.70
  -4  -1   3  244.58   10.00
   3   1  -3  132.49    5.40
   3   1  -3  134.59    5.30
   2   1  -3    9.10    0.50
  -2  -1   3    7.50    0.50
   1   1  -3   18.30    0.80
   1   1  -3   16.40    0.80
  -1  -1   3   18.20    0.80
   0   1  -3   33.90    1.30
   0   1  -3   31.80    1.40
   0  -1   3   31.90    1.40
  -1   1  -3   33.20    1.30
   1  -1   3   33.30    1.50
  -2   1  -3   17.10    1.00
  -2   1  -3   21.90    1.00
  -3   1  -3   10.00    0.70
  -3   1  -3   10.10    0.60
  -4   1  -3    3.80    0.50
  -4   1  -3    4.30    0.50
  -5   1  -3   17.90    1.10
  -5   1  -3   18.30    1.00
  -6   1  -3    0.20    0.20
  -6   1  -3   -0.60    0.30
   6  -1   3   -0.20    0.20
  -7   1  -3   -0.20    0.30
  -7   1  -3    0.20    0.30
  -8   1  -3    1.70    0.50
  -9   1  -3    0.50    0.50
 -10   1  -3    0.50    0.50
  10   0  -3    0.60    0.40
   9   0  -3   -0.20    0.30
   8   0  -3   13.50    1.00
   7   0  -3    4.50    0.60
  -7   0   3    5.30    0.70
   6   0  -3   28.30    1.50
  -6   0   3   30.50    1.60
   5   0  -3    8.10    0.60
  -5   0   3    6.80    0.70
   4   0  -3    0.30    0.20
  -4   0   3    0.20    0.20
   3   0  -3   18.20    0.80
   3   0  -3   18.00    0.90
   2   0  -3   69.49    2.80
   1   0  -3   62.79    2.50
   1   0  -3   57.09    2.40
  -1   0   3   62.49    2.60
   0   0  -3    0.40    0.10
   0   0  -3    0.40    0.10
   0   0   3    0.60    0.10
  -1   0  -3  193.68    7.90
  -1   0  -3  192.08    7.40
  -2   0  -3   15.10    0.60
   2   0   3   10.90    0.70
  -3   0  -3  114.79    4.40
  -3   0  -3  112.19    4.80
  -3   0  -3  109.69    4.70
  -4   0  -3   91.79    4.00
  -4   0  -3   90.59    3.90
  -5   0  -3    0.10    0.20
  -5   0  -3    0.20    0.20
  -6   0  -3   36.80    1.90
  -7   0  -3    4.30    0.60
   7   0   3    4.70    0.50
  -8   0  -3    0.20    0.40
  -9   0  -3    0.90    0.50
  10  -1  -3    2.50    0.50
   9  -1  -3    0.40    0.40
   8  -1  -3    1.60    0.40
  -8   1   3    1.10    0.50
   7  -1  -3    0.60    0.30
  -7   1   3    0.10    0.40
   6  -1  -3    0.20    0.20
  -6   1   3   -0.10    0.30
   5  -1  -3   11.80    0.70
  -5   1   3   12.20    0.90
   4  -1  -3    2.00    0.30
  -4   1   3    2.60    0.40
   3  -1  -3    4.70    0.40
  -3   1   3    4.80    0.50
   2  -1  -3   16.20    0.80
  -2   1   3   16.10    0.80
   1  -1  -3  161.28    5.60
  -1   1   3  116.49    5.80
   0  -1  -3    0.70    0.10
   0  -1  -3    0.60    0.10
  -1  -1  -3    4.40    0.30
  -1  -1  -3    4.80    0.30
   1   1   3    4.20    0.30
  -2  -1  -3 1013.90   39.10
   2   1   3 1021.80   41.50
  -3  -1  -3    2.50    0.30
   3   1   3    3.40    0.30
  -4  -1  -3   88.59    3.80
  -5  -1  -3    2.60    0.40
  -6  -1  -3    6.90    0.60
  -7  -1  -3    1.10    0.40
  -8  -1  -3    0.70    0.40
   8   1   3   -0.10    0.30
   9   1   3    4.60    0.60
   9  -2  -3    0.50    0.30
  -9   2   3    0.20    0.50
   8  -2  -3   -0.10    0.30
  -8   2   3    0.10    0.40
   7  -2  -3    1.70    0.40
  -7   2   3    1.80    0.50
   6  -2  -3    0.60    0.30
  -6   2   3    0.50    0.40
   5  -2  -3    3.00    0.40
  -5   2   3    4.70    0.60
   4  -2  -3    1.50    0.20
  -4   2   3    1.80    0.40
   3  -2  -3   20.40    1.00
  -3   2   3   19.70    1.10
   2  -2  -3   17.70    0.80
  -2   2   3   18.50    1.00
   1  -2  -3    0.20    0.10
  -1   2   3    0.10    0.10
  -1   2   3    0.10    0.10
   0   2   3  894.91   36.70
  -1  -2  -3   22.60    1.00
   2   2   3    1.70    0.20
  -3  -2  -3   36.20    1.50
   3   2   3   35.90    1.60
  -4  -2  -3   44.90    1.90
   4   2   3   45.80    2.00
   5   2   3    1.60    0.30
  -6  -2  -3    5.00    0.50
  -7  -2  -3    5.70    0.60
   8   2   3    0.80    0.40
   9   2   3    1.80    0.50
 -10   3   3   -0.10    0.60
  -9   3   3    0.20    0.50
   8  -3  -3    0.00    0.30
  -8   3   3   -0.60    0.40
   7  -3  -3    0.30    0.30
  -7   3   3    0.40    0.50
   6  -3  -3    1.20    0.30
  -6   3   3    1.00    0.50
   5  -3  -3   23.30    1.20
  -5   3   3   24.80    1.50
   4  -3  -3   -0.10    0.10
  -4   3   3   -0.40    0.30
   3  -3  -3   49.80    2.10
  -3   3   3   50.49    2.30
   2  -3  -3   67.39    2.70
  -2   3   3   67.79    2.80
   1  -3  -3    6.70    0.40
  -1   3   3    7.20    0.40
  -1   3   3    6.30    0.50
   0  -3  -3   35.00    1.40
   0   3   3   33.70    1.50
   0   3   3   33.40    1.50
  -1  -3  -3   10.40    0.50
   1   3   3   12.10    0.60
  -2  -3  -3   97.39    3.80
   2   3   3   95.79    4.00
   2   3   3   95.89    4.00
  -3  -3  -3   19.30    0.90
   3   3   3   18.20    1.00
   3   3   3   19.10    0.90
  -4  -3  -3   49.10    2.10
   4   3   3   46.70    2.10
   4   3   3   49.90    2.20
   5   3   3   12.40    0.70
   5   3   3   11.60    0.80
   6   3   3    0.30    0.20
   6   3   3   -0.50    0.20
   7   3   3   -0.90    0.20
   8   3   3    0.80    0.40
   9   3   3    1.00    0.40
  10   3   3    0.60    0.40
  -9   4   3    0.70    0.60
  -8   4   3    1.80    0.60
   7  -4  -3    0.40    0.30
  -7   4   3    0.50    0.50
   6  -4  -3    1.10    0.30
  -6   4   3    1.00    0.50
   5  -4  -3   35.50    1.60
  -5   4   3   36.60    2.00
   4  -4  -3    8.50    0.50
  -4   4   3    7.10    0.70
   3  -4  -3    0.10    0.10
  -3   4   3    0.10    0.10
  -3   4   3    0.00    0.10
   2  -4  -3    0.20    0.10
  -2   4   3    0.40    0.20
  -2   4   3    0.30    0.10
   1  -4  -3   12.50    0.60
  -1   4   3   12.50    0.80
   0  -4  -3  132.09    5.10
   0   4   3  125.19    5.40
   0   4   3  135.49    5.50
  -1  -4  -3    0.60    0.10
   1   4   3    0.40    0.10
   1   4   3    0.50    0.10
  -2  -4  -3   13.40    0.70
   2   4   3   13.70    0.80
   2   4   3   14.10    0.70
  -3  -4  -3   51.59    2.20
   3   4   3   53.39    2.30
  -4  -4  -3   15.40    0.80
   4   4   3   13.90    0.70
   4   4   3   15.00    0.90
   5   4   3   14.90    0.90
   5   4   3   17.10    1.00
   6   4   3   -0.20    0.20
   7   4   3    3.00    0.50
   8   4   3    1.10    0.40
  10   4   3    0.80    0.50
  -9   5   3    0.40    0.60
  -8   5   3   -0.20    0.50
  -7   5   3    4.20    0.80
   6  -5  -3    6.70    0.60
  -6   5   3    4.90    0.80
   5  -5  -3    0.20    0.20
  -5   5   3    0.00    0.30
   4  -5  -3    0.10    0.20
  -4   5   3    0.10    0.30
   3  -5  -3    3.20    0.30
  -3   5   3    4.10    0.50
   2  -5  -3   37.70    1.60
  -2   5   3   37.20    1.60
  -2   5   3   37.80    1.90
   1  -5  -3   57.29    2.30
  -1   5   3   57.49    2.60
  -1   5   3   57.89    2.50
   0  -5  -3    8.00    0.50
   0   5   3    8.00    0.60
   0   5   3    7.60    0.50
  -1  -5  -3   15.30    0.80
   1   5   3   15.40    0.80
   1   5   3   15.20    0.80
   2   5   3    3.50    0.40
   2   5   3    3.60    0.30
  -3  -5  -3   66.29    2.80
   3   5   3   68.79    2.90
   4   5   3    8.60    0.50
   4   5   3    8.90    0.70
   5   5   3    1.60    0.30
   6   5   3    0.60    0.30
   7   5   3    3.70    0.50
   8   5   3    0.20    0.30
   9   5   3   19.50    1.30
  10   5   3    0.50    0.50
  -8   6   3    0.50    0.60
  -7   6   3   -0.30    0.50
  -6   6   3    2.40    0.60
  -5   6   3    1.60    0.50
   4  -6  -3    2.90    0.30
  -4   6   3    3.00    0.60
   3  -6  -3   33.10    1.50
  -3   6   3   32.50    1.80
   2  -6  -3    1.00    0.20
  -2   6   3    1.50    0.40
  -2   6   3    1.20    0.20
   1  -6  -3    1.90    0.30
  -1   6   3    1.60    0.40
  -1   6   3    1.60    0.20
   0  -6  -3   47.00    2.00
   0   6   3   46.90    2.20
   0   6   3   46.00    2.10
  -1  -6  -3   54.79    2.30
   1   6   3   54.69    2.40
   1   6   3   53.19    2.40
  -2  -6  -3    0.20    0.20
   2   6   3    0.00    0.20
   2   6   3   -0.10    0.20
  -3  -6  -3    3.30    0.40
   3   6   3    3.70    0.40
  -4  -6  -3    1.90    0.30
   4   6   3    1.50    0.30
   5   6   3   31.70    1.60
   6   6   3    0.80    0.30
   7   6   3   63.19    3.00
   8   6   3    1.50    0.40
   9   6   3    2.90    0.60
  -7   7   3    2.00    0.70
  -6   7   3   -0.30    0.40
  -5   7   3    4.50    0.80
  -4   7   3    1.30    0.50
   3  -7  -3    1.30    0.30
  -3   7   3    0.90    0.40
   2  -7  -3   10.30    0.70
  -2   7   3   11.40    0.90
  -2   7   3   11.00    0.70
   1  -7  -3   17.00    0.90
  -1   7   3   17.50    1.10
  -1   7   3   16.40    1.00
   0  -7  -3    2.70    0.30
   0   7   3    3.40    0.40
   0   7   3    2.50    0.40
  -1  -7  -3    1.20    0.30
   1   7   3    1.00    0.30
   1   7   3    1.10    0.30
  -2  -7  -3    2.40    0.40
   2   7   3    1.80    0.30
   2   7   3    2.70    0.30
  -3  -7  -3  120.59    4.90
   3   7   3  120.69    5.10
  -4  -7  -3    0.10    0.30
   4   7   3    0.70    0.30
   5   7   3   83.19    3.70
   6   7   3    2.70    0.50
   7   7   3    0.20    0.30
   8   7   3    1.20    0.40
   9   7   3    0.00    0.40
  -7   8   3    0.20    0.60
  -6   8   3    0.10    0.50
  -5   8   3   -0.10    0.50
  -4   8   3    0.00    0.50
  -3   8   3    4.30    0.70
   2  -8  -3    0.20    0.20
  -2   8   3    0.70    0.40
  -2   8   3    0.80    0.30
   1  -8  -3    3.70    0.40
  -1   8   3    3.40    0.40
  -1   8   3    3.60    0.50
   0  -8  -3    3.30    0.40
   0   8   3    4.20    0.50
   0   8   3    3.90    0.50
  -1  -8  -3  135.49    5.50
   1   8   3  135.99    5.70
  -2  -8  -3    6.10    0.60
   2   8   3    6.30    0.60
  -3  -8  -3   35.30    1.70
   3   8   3   34.00    1.70
   4   8   3    2.80    0.40
   5   8   3   -0.10    0.30
   6   8   3    3.60    0.50
   7   8   3    0.00    0.30
   8   8   3    0.20    0.40
   9   8   3    3.60    0.70
  -6   9   3    0.10    0.50
  -5   9   3    0.10    0.50
  -4   9   3    2.10    0.60
  -3   9   3   10.40    1.10
  -2   9   3    0.70    0.40
  -2   9   3    0.60    0.30
   1  -9  -3   55.09    2.40
  -1   9   3   55.59    2.60
  -1   9   3   56.59    2.70
   0  -9  -3    7.10    0.70
   0   9   3    7.90    0.70
  -1  -9  -3   13.60    0.90
   1   9   3   13.20    0.90
  -2  -9  -3    3.40    0.50
   2   9   3    2.50    0.40
  -3  -9  -3    0.20    0.30
   3   9   3    0.00    0.30
   4   9   3    8.30    0.70
   5   9   3    1.30    0.40
   6   9   3    1.10    0.40
   7   9   3    1.20    0.40
   8   9   3    0.30    0.40
  -5  10   3    3.80    0.80
  -4  10   3    0.20    0.50
  -3  10   3   16.00    1.30
  -2  10   3    1.40    0.50
  -1  10   3   11.10    0.90
   0  10   3    4.60    0.60
  -1 -10  -3   -0.20    0.30
   1  10   3   -0.30    0.30
  -2 -10  -3    3.20    0.50
   2  10   3    2.20    0.40
   3  10   3    1.60    0.40
   4  10   3    4.10    0.60
   5  10   3    0.00    0.30
   6  10   3    0.70    0.40
   7  10   3   -0.10    0.40
  -4  11   3   -0.20    0.50
  -1  11   3    1.40    0.40
   0  11   3    0.20    0.30
   1  11   3    0.10    0.30
  -2 -11  -3    3.00    0.60
   2  11   3    2.60    0.50
   3  11   3   -0.10    0.30
   4  11   3    1.60    0.50
   5  11   3    0.50    0.40
   0  12   3    0.20    0.40
   1  12   3    1.70    0.50
   2  12   3    0.80    0.50
   3  12   3    0.00    0.40
   4  10  -4    1.30    0.50
   3  10  -4   -0.40    0.30
   2  10  -4    1.70    0.50
   1  10  -4    0.50    0.40
   0  10  -4    2.80    0.60
  -1  10  -4    1.10    0.50
  -2  10  -4    0.50    0.40
  -3  10  -4   -0.10    0.40
  -4  10  -4    0.20    0.50
   6   9  -4   -0.10    0.40
   6   9  -4   -0.30    0.30
   5   9  -4   -0.30    0.30
   4   9  -4    3.20    0.60
   3   9  -4    3.30    0.60
   2   9  -4    3.10    0.60
   1   9  -4    0.70    0.40
   0   9  -4   -0.20    0.30
  -1   9  -4    3.00    0.60
  -2   9  -4    3.70    0.70
  -3   9  -4    0.30    0.40
  -4   9  -4    0.50    0.40
  -4   9  -4    0.30    0.40
  -5   9  -4    2.20    0.60
  -5   9  -4    3.20    0.70
  -6   9  -4   -0.20    0.50
   7   8  -4    0.00    0.40
   6   8  -4    2.70    0.60
   6   8  -4    1.70    0.50
   5   8  -4    8.40    0.90
   5   8  -4    6.80    0.80
   4   8  -4    1.00    0.40
   4   8  -4    1.20    0.40
   3   8  -4    0.30    0.30
   2   8  -4    1.80    0.40
   1   8  -4    4.70    0.70
   0   8  -4    7.40    0.80
  -1   8  -4    7.80    0.80
  -2   8  -4    0.20    0.30
  -3   8  -4   12.00    1.00
  -3   8  -4   11.20    1.10
  -4   8  -4    0.30    0.40
  -4   8  -4   -0.40    0.40
  -5   8  -4    2.10    0.60
  -5   8  -4    2.40    0.60
  -6   8  -4    0.30    0.50
  -7   8  -4    0.10    0.50
   7   7  -4    2.20    0.60
   6   7  -4    0.00    0.40
   5   7  -4    2.10    0.50
   5   7  -4    2.50    0.50
   4   7  -4    5.30    0.60
   4   7  -4    4.70    0.60
   3   7  -4    0.00    0.30
   3   7  -4    0.10    0.20
   2   7  -4    2.40    0.50
   2   7  -4    2.50    0.40
   1   7  -4   20.10    1.20
   0   7  -4    0.20    0.30
  -1   7  -4   33.20    1.80
  -2   7  -4    0.50    0.40
  -2   7  -4    0.70    0.40
  -3   7  -4    7.00    0.80
  -3   7  -4    6.30    0.80
  -4   7  -4    0.80    0.40
  -4   7  -4    0.60    0.40
  -5   7  -4   -0.40    0.30
  -5   7  -4    0.10    0.40
  -6   7  -4    0.30    0.40
  -6   7  -4   -0.60    0.40
  -7   7  -4    0.10    0.50
   8   6  -4    0.30    0.40
   7   6  -4    1.00    0.50
   6   6  -4    2.60    0.50
   5   6  -4    1.10    0.40
   5   6  -4    0.90    0.40
   4   6  -4    2.40    0.40
   4   6  -4    1.90    0.40
   3   6  -4   10.70    0.80
   3   6  -4   11.70    0.90
   2   6  -4    0.60    0.30
   2   6  -4    1.10    0.30
   1   6  -4   53.59    2.30
   1   6  -4   53.29    2.50
   0   6  -4   -0.40    0.20
   0  -6   4    0.20    0.20
  -1   6  -4    1.30    0.40
  -2   6  -4    3.00    0.50
  -2   6  -4    3.60    0.50
  -3   6  -4    8.20    0.80
  -3   6  -4    6.30    0.70
  -4   6  -4    0.40    0.40
  -4   6  -4    0.40    0.30
  -5   6  -4    0.20    0.40
  -5   6  -4   -0.30    0.30
  -6   6  -4    0.10    0.40
  -6   6  -4    0.00    0.40
  -7   6  -4   -0.20    0.40
  -8   6  -4    2.90    0.70
   8   5  -4    0.80    0.50
   7   5  -4   -0.20    0.30
   6   5  -4    2.90    0.60
   5   5  -4    2.00    0.40
   5   5  -4    3.10    0.50
   4   5  -4    0.10    0.30
   4   5  -4    0.70    0.30
   3   5  -4   42.00    1.90
   3   5  -4   40.60    2.00
   2   5  -4   11.60    0.70
   2   5  -4   11.10    0.80
   1   5  -4    6.30    0.60
   1   5  -4    6.50    0.50
  -1  -5   4    5.60    0.40
   0   5  -4    0.10    0.20
   0   5  -4    1.30    0.20
   0  -5   4    1.20    0.20
  -1   5  -4    5.50    0.50
  -2   5  -4    0.90    0.30
  -2   5  -4    1.00    0.30
  -3   5  -4    1.90    0.40
  -3   5  -4    1.90    0.40
  -4   5  -4   12.10    0.90
  -4   5  -4   11.00    0.90
  -5   5  -4    0.00    0.30
  -5   5  -4    0.20    0.30
  -6   5  -4   12.00    1.10
  -6   5  -4   12.70    1.00
  -7   5  -4    1.40    0.50
  -8   5  -4    3.30    0.70
  -9   5  -4    0.70    0.60
   9   4  -4   -0.30    0.40
   8   4  -4    0.00    0.50
   7   4  -4    1.20    0.50
   6   4  -4   10.90    0.90
   5   4  -4   16.30    1.00
   5   4  -4   14.70    1.10
   4   4  -4    5.40    0.50
   4   4  -4    6.00    0.60
   3   4  -4    6.20    0.60
   3   4  -4    5.80    0.60
   2   4  -4   -0.30    0.10
   2   4  -4   -0.10    0.20
  -2  -4   4   -0.10    0.10
   1   4  -4    1.50    0.20
   1   4  -4    1.50    0.30
   0   4  -4   26.70    1.40
   0  -4   4   27.60    1.30
  -1   4  -4    6.10    0.30
   1  -4   4    5.90    0.50
  -2   4  -4   17.80    1.00
  -2   4  -4   16.90    1.00
  -3   4  -4   10.00    0.80
  -3   4  -4   10.60    0.80
  -4   4  -4   39.40    1.90
  -4   4  -4   36.40    1.90
  -5   4  -4   11.10    0.90
  -5   4  -4   11.00    0.90
  -6   4  -4   10.50    1.00
  -6   4  -4   12.00    1.00
  -7   4  -4    0.30    0.40
  -7   4  -4    0.50    0.40
  -8   4  -4    0.20    0.50
  -9   4  -4    0.10    0.50
   9   3  -4    1.90    0.60
   8   3  -4    3.90    0.70
   7   3  -4    6.30    0.80
   6   3  -4    0.10    0.40
   5   3  -4    0.20    0.30
   5   3  -4    0.50    0.20
   4   3  -4    1.20    0.30
   4   3  -4    2.30    0.30
   3   3  -4    2.90    0.30
   3   3  -4    2.10    0.30
  -3  -3   4    2.00    0.20
   2   3  -4    9.70    0.60
   2   3  -4    9.50    0.60
  -2  -3   4    9.20    0.50
   1   3  -4    0.90    0.20
   1   3  -4    1.00    0.20
   0   3  -4    2.60    0.30
   0   3  -4    2.60    0.30
   0  -3   4    3.00    0.30
  -1   3  -4   53.69    2.10
   1  -3   4   56.09    2.50
  -2   3  -4  245.98   10.40
  -2   3  -4  259.77   10.60
  -3   3  -4    9.40    0.80
  -3   3  -4   10.20    0.70
  -4   3  -4   22.20    1.30
  -4   3  -4   23.40    1.30
  -5   3  -4   -0.10    0.20
  -5   3  -4   -0.40    0.20
  -6   3  -4    0.20    0.30
  -6   3  -4    0.30    0.30
  -7   3  -4    0.50    0.40
  -7   3  -4   -0.10    0.30
  -8   3  -4   -0.20    0.40
  -9   3  -4    0.50    0.50
 -10   3  -4   -0.10    0.50
   9   2  -4    0.80    0.50
   8   2  -4    1.70    0.50
   7   2  -4    1.50    0.40
   6   2  -4    1.60    0.40
   5   2  -4    0.00    0.30
   4   2  -4    0.00    0.20
   4   2  -4    0.20    0.10
  -4  -2   4    0.40    0.20
   3   2  -4    1.80    0.20
   3   2  -4    1.50    0.30
  -3  -2   4    0.90    0.20
   2   2  -4   66.79    2.80
   2   2  -4   65.09    2.70
   1   2  -4   17.50    0.90
   1   2  -4   18.70    0.90
   0   2  -4  808.92   30.60
   0   2  -4  794.62   32.30
  -1   2  -4    5.30    0.30
  -1   2  -4    4.70    0.50
   1  -2   4    5.90    0.50
  -2   2  -4    5.40    0.50
  -2   2  -4    6.10    0.30
  -3   2  -4   25.80    1.40
  -3   2  -4   29.60    1.40
  -5   2  -4    1.30    0.40
  -5   2  -4    1.90    0.40
  -6   2  -4    1.10    0.30
  -6   2  -4    0.60    0.40
  -7   2  -4    7.60    0.90
  -7   2  -4    9.50    0.80
  -8   2  -4    1.90    0.60
  -9   2  -4    0.00    0.40
 -10   2  -4    0.90    0.60
   9   1  -4    1.80    0.50
   8   1  -4    1.90    0.50
   7   1  -4   -0.10    0.30
   6   1  -4    0.80    0.30
  -6  -1   4    1.00    0.40
   5   1  -4    1.10    0.30
  -5  -1   4    2.90    0.40
   4   1  -4  138.59    5.90
  -4  -1   4  148.79    6.10
   3   1  -4    0.10    0.20
   3   1  -4   -0.20    0.10
  -3  -1   4    0.20    0.20
   2   1  -4  425.36   17.20
   2   1  -4  425.86   16.40
   1   1  -4   99.59    4.20
   1   1  -4  101.99    4.00
   0   1  -4    2.20    0.30
   0   1  -4    2.20    0.20
  -1   1  -4   98.69    4.20
  -1   1  -4   98.29    3.80
   1  -1   4   98.79    4.20
  -2   1  -4   52.59    2.00
  -2   1  -4   43.90    2.20
   2  -1   4   53.69    2.30
  -3   1  -4  102.59    4.50
  -3   1  -4  110.89    4.20
  -4   1  -4    5.40    0.60
  -4   1  -4    6.30    0.60
  -5   1  -4   29.20    1.50
  -5   1  -4   26.70    1.50
  -6   1  -4   27.70    1.50
  -6   1  -4   25.50    1.50
  -7   1  -4    0.40    0.30
  -7   1  -4    1.00    0.40
  -8   1  -4    5.10    0.70
  -9   1  -4    1.40    0.50
 -10   1  -4    1.80    0.60
   9   0  -4    0.00    0.40
   8   0  -4    2.50    0.50
   7   0  -4    0.40    0.30
  -7   0   4    0.30    0.40
   6   0  -4   50.39    2.40
  -6   0   4   55.09    2.60
   5   0  -4    1.30    0.30
  -5   0   4    2.80    0.40
  -4   0   4   53.79    2.50
   3   0  -4  100.79    4.10
  -3   0   4   98.89    4.30
   2   0  -4    2.50    0.30
   2   0  -4    2.40    0.30
  -2   0   4    3.50    0.30
   1   0  -4    1.90    0.20
   1   0  -4    1.60    0.20
  -1   0   4    0.80    0.20
   0   0  -4  168.48    6.40
   0   0  -4  141.79    6.00
  -1   0  -4  268.57   10.20
  -1   0  -4  261.87   10.80
  -3   0  -4   24.30    1.00
  -3   0  -4   23.60    1.20
   3   0   4   21.60    1.20
  -4   0  -4  188.18    8.30
  -4   0  -4  212.18    8.50
  -5   0  -4    7.90    0.70
  -5   0  -4    8.20    0.70
  -6   0  -4    5.00    0.60
  -6   0  -4    5.60    0.60
  -7   0  -4    0.90    0.40
  -8   0  -4    7.10    0.80
  -9   0  -4    2.50    0.60
 -10   0  -4    0.10    0.50
  10  -1  -4    1.40    0.50
   9  -1  -4    0.20    0.30
   8  -1  -4    8.00    0.80
  -8   1   4    7.30    0.90
   7  -1  -4    1.90    0.40
  -7   1   4    1.90    0.50
   6  -1  -4    3.30    0.40
  -6   1   4    3.40    0.60
   5  -1  -4    6.20    0.60
  -5   1   4    6.30    0.70
   4  -1  -4    1.80    0.30
  -4   1   4    2.20    0.40
   3  -1  -4   28.90    1.30
  -3   1   4   29.40    1.50
   2  -1  -4   75.39    3.20
  -2   1   4   83.69    3.40
   1  -1  -4   17.70    0.80
   1  -1  -4   18.60    0.80
  -1   1   4   19.00    0.90
   0  -1  -4  241.48    9.80
  -1  -1  -4   42.20    1.70
  -1  -1  -4   36.60    1.60
  -2  -1  -4  129.99    5.20
  -2  -1  -4  137.29    5.50
  -3  -1  -4   35.80    1.70
   3   1   4   35.70    1.70
  -4  -1  -4    1.50    0.20
  -4  -1  -4    0.50    0.20
   4   1   4    0.70    0.20
   5   1   4    1.30    0.30
  -6  -1  -4   26.80    1.50
  -7  -1  -4    3.10    0.50
  -8  -1  -4    2.30    0.50
  -9  -1  -4    1.40    0.50
   9  -2  -4    0.50    0.30
  -9   2   4    0.20    0.50
   8  -2  -4    0.60    0.30
  -8   2   4   -0.30    0.40
   7  -2  -4    0.30    0.30
  -7   2   4    0.30    0.40
   6  -2  -4    0.30    0.20
  -6   2   4    0.40    0.40
   5  -2  -4    1.20    0.30
  -5   2   4    1.10    0.40
   4  -2  -4    2.80    0.30
  -4   2   4    3.60    0.50
   3  -2  -4    0.40    0.20
  -3   2   4    0.10    0.20
   2  -2  -4  102.49    4.00
  -2   2   4   97.49    4.30
   1  -2  -4   48.80    2.00
   0  -2  -4    0.00    0.10
   0   2   4    0.10    0.10
  -1  -2  -4   13.60    0.60
   1   2   4   14.50    0.70
  -2  -2  -4   49.20    2.00
   2   2   4   50.29    2.20
  -3  -2  -4    0.20    0.10
   3   2   4    0.20    0.10
  -4  -2  -4   68.69    2.80
   4   2   4   67.19    3.00
   5   2   4    0.20    0.20
   6   2   4    9.40    0.70
   7   2   4    9.10    0.80
   8   2   4   -1.00    0.30
   9   2   4    4.70    0.70
  -9   3   4    0.20    0.50
   8  -3  -4   -0.20    0.30
  -8   3   4   -0.40    0.50
   7  -3  -4    0.10    0.20
  -7   3   4    0.40    0.50
   6  -3  -4    0.50    0.30
  -6   3   4    0.40    0.40
   5  -3  -4    6.00    0.50
  -5   3   4    6.50    0.70
   4  -3  -4   10.90    0.70
  -4   3   4   11.10    0.90
   3  -3  -4   34.60    1.50
  -3   3   4   34.90    1.70
   2  -3  -4    0.90    0.20
  -2   3   4    1.30    0.10
  -2   3   4    0.70    0.20
   1  -3  -4    8.20    0.50
  -1   3   4    7.80    0.50
  -1   3   4    8.00    0.50
   0  -3  -4  204.48    8.00
   0   3   4  209.68    8.60
  -1  -3  -4   34.00    1.50
   1   3   4   40.50    1.70
  -2  -3  -4   47.00    2.00
   2   3   4   48.70    2.10
  -3  -3  -4    3.30    0.30
   3   3   4    3.30    0.30
  -4  -3  -4    0.80    0.20
   4   3   4    1.10    0.20
  -5  -3  -4   17.20    1.00
   5   3   4   18.30    1.00
   6   3   4    6.80    0.60
   7   3   4    7.00    0.70
   7   3   4    8.50    0.70
   8   3   4    0.10    0.30
   9   3   4    0.00    0.40
  10   3   4    0.40    0.40
  -9   4   4   -0.20    0.60
  -8   4   4    1.00    0.60
   7  -4  -4    2.90    0.40
  -7   4   4    2.70    0.70
   6  -4  -4    6.60    0.60
  -6   4   4    5.40    0.80
   5  -4  -4    0.10    0.20
  -5   4   4   -0.30    0.40
   4  -4  -4   17.50    0.90
  -4   4   4   16.60    1.20
   3  -4  -4    3.60    0.40
   2  -4  -4   65.79    2.70
  -2   4   4   67.69    3.00
  -2   4   4   64.99    2.70
   1  -4  -4    6.40    0.40
  -1   4   4    7.30    0.50
   0  -4  -4   36.80    1.50
   0   4   4   34.50    1.60
   0   4   4   35.30    1.60
  -1  -4  -4   57.49    2.30
   1   4   4   54.59    2.40
   1   4   4   56.09    2.50
  -2  -4  -4    2.90    0.30
   2   4   4    4.30    0.40
  -3  -4  -4   49.60    2.10
   3   4   4   48.80    2.20
   3   4   4   47.80    2.10
  -4  -4  -4    5.00    0.50
   4   4   4    2.90    0.40
   4   4   4    4.80    0.40
  -5  -4  -4    5.70    0.60
   5   4   4    5.40    0.60
   5   4   4    7.00    0.50
   6   4   4    0.50    0.30
   6   4   4    0.90    0.30
   7   4   4   -0.40    0.30
   8   4   4    2.20    0.50
   9   4   4    1.00    0.40
  10   4   4    0.70    0.40
  11   4   4    0.30    0.50
  -8   5   4    2.80    0.70
  -7   5   4    0.70    0.60
   6  -5  -4    3.10    0.40
  -6   5   4    2.50    0.60
   5  -5  -4    0.20    0.20
  -5   5   4    0.40    0.40
   4  -5  -4    0.70    0.20
  -4   5   4    1.30    0.40
   3  -5  -4    0.80    0.20
  -3   5   4    1.10    0.30
   2  -5  -4   17.80    0.80
  -2   5   4   15.90    0.80
  -2   5   4   16.90    1.00
   1  -5  -4   10.00    0.60
  -1   5   4   10.40    0.60
  -1   5   4   10.10    0.70
   0  -5  -4   13.00    0.70
   0   5   4   12.60    0.70
   0   5   4   13.50    0.80
  -1  -5  -4   71.29    2.90
   1   5   4   71.59    3.10
   1   5   4   69.29    3.00
  -2  -5  -4   75.89    3.10
   2   5   4   74.49    3.20
   2   5   4   74.29    3.20
   3   5   4    5.10    0.50
   3   5   4    5.80    0.40
  -4  -5  -4    1.80    0.30
   4   5   4    2.40    0.30
  -5  -5  -4    7.90    0.70
   5   5   4   10.60    0.80
   6   5   4    3.20    0.50
   7   5   4    1.50    0.40
   8   5   4    0.30    0.40
   9   5   4    1.50    0.50
  -8   6   4    0.00    0.50
  -7   6   4   -0.20    0.50
  -6   6   4    0.50    0.50
   5  -6  -4    0.30    0.20
  -5   6   4   -0.20    0.30
   4  -6  -4    2.00    0.30
  -4   6   4    2.60    0.50
   3  -6  -4    2.80    0.30
  -3   6   4    2.90    0.50
   2  -6  -4   33.60    1.50
  -2   6   4   34.80    1.60
  -2   6   4   33.50    1.80
   1  -6  -4   33.70    1.40
  -1   6   4   31.80    1.50
  -1   6   4   30.90    1.60
   0  -6  -4    8.10    0.60
   0   6   4    9.00    0.70
   0   6   4    8.60    0.60
  -1  -6  -4   23.30    1.10
   1   6   4   23.20    1.20
   1   6   4   24.70    1.20
  -2  -6  -4   16.90    0.90
   2   6   4   16.30    1.00
   2   6   4   16.70    0.90
  -3  -6  -4   41.60    1.90
   3   6   4   44.20    1.90
   3   6   4   43.50    2.00
  -4  -6  -4   -0.40    0.20
   4   6   4    0.00    0.20
  -5  -6  -4    1.60    0.40
   5   6   4    1.30    0.30
   6   6   4    0.60    0.30
   7   6   4   10.30    0.90
   8   6   4    0.50    0.40
   9   6   4    2.00    0.50
  -7   7   4    0.00    0.50
  -6   7   4   -0.40    0.50
  -5   7   4    3.70    0.70
   4  -7  -4    6.10    0.50
  -4   7   4    4.50    0.80
   3  -7  -4    7.00    0.60
  -3   7   4    6.30    0.80
   2  -7  -4    3.50    0.40
  -2   7   4    3.30    0.60
  -2   7   4    3.80    0.40
   1  -7  -4   17.80    0.90
  -1   7   4   18.40    1.00
  -1   7   4   17.10    1.10
   0  -7  -4    2.60    0.30
   0   7   4    2.80    0.40
   0   7   4    2.40    0.40
  -1  -7  -4   12.60    0.80
   1   7   4   13.80    0.90
   1   7   4   11.90    0.80
  -2  -7  -4    0.00    0.20
   2   7   4    0.30    0.20
   2   7   4    0.20    0.20
  -3  -7  -4    6.90    0.60
   3   7   4    6.90    0.60
  -4  -7  -4   -0.10    0.20
   4   7   4   -0.10    0.20
  -5  -7  -4   32.60    1.70
   5   7   4   34.30    1.70
   6   7   4    1.80    0.40
   7   7   4    0.30    0.40
   8   7   4    0.30    0.40
   9   7   4    0.10    0.40
  -7   8   4   -0.20    0.60
  -6   8   4   -0.70    0.50
  -5   8   4    0.50    0.60
  -4   8   4    1.20    0.60
   3  -8  -4    2.40    0.40
  -3   8   4    1.90    0.60
   2  -8  -4    0.20    0.20
  -2   8   4    0.00    0.40
   1  -8  -4    1.80    0.30
  -1   8   4    1.40    0.30
  -1   8   4    1.50    0.40
   0  -8  -4    1.00    0.30
   0   8   4    1.40    0.40
   0   8   4    1.40    0.30
  -1  -8  -4   31.50    1.50
   1   8   4   31.50    1.60
   1   8   4   32.10    1.60
  -2  -8  -4    0.30    0.30
   2   8   4    0.70    0.30
  -3  -8  -4   17.70    1.10
   3   8   4   16.20    1.00
  -4  -8  -4    0.30    0.30
   4   8   4    0.20    0.30
   5   8   4    3.90    0.50
   6   8   4    0.30    0.30
   7   8   4    0.40    0.30
   8   8   4    2.30    0.50
   9   8   4    1.00    0.50
  -6   9   4   -0.90    0.50
  -5   9   4   -0.40    0.50
  -4   9   4   -0.60    0.40
  -3   9   4    1.90    0.60
  -2   9   4    0.40    0.40
   1  -9  -4   23.20    1.20
  -1   9   4   22.20    1.40
  -1   9   4   22.30    1.30
   0  -9  -4    1.20    0.30
   0   9   4    1.30    0.30
   0   9   4    1.20    0.40
  -1  -9  -4    0.00    0.30
   1   9   4    0.00    0.20
  -2  -9  -4    1.80    0.40
   2   9   4    1.50    0.40
  -3  -9  -4    6.90    0.70
   3   9   4    6.00    0.60
  -4  -9  -4    0.10    0.30
   4   9   4   -0.20    0.30
   5   9   4   -0.10    0.30
   6   9   4    0.90    0.40
   7   9   4    8.20    0.90
   8   9   4   -0.40    0.40
  -5  10   4    1.70    0.70
  -4  10   4   -0.30    0.40
  -3  10   4    3.40    0.70
  -2  10   4   -0.20    0.40
  -1  10   4    0.30    0.30
   0 -10  -4    1.40    0.40
   0  10   4    1.70    0.40
  -1 -10  -4    1.60    0.40
   1  10   4    1.10    0.40
  -2 -10  -4    2.40    0.50
   2  10   4    1.60    0.40
  -3 -10  -4    0.80    0.40
   3  10   4    0.50    0.30
   4  10   4    1.00    0.40
   5  10   4    5.50    0.70
   6  10   4    1.20    0.40
   7  10   4    3.20    0.60
  -4  11   4    0.40    0.50
   0  11   4    0.00    0.30
   1  11   4    0.70    0.40
  -2 -11  -4    1.80    0.50
   2  11   4    1.00    0.40
  -3 -11  -4    1.60    0.50
   3  11   4    1.30    0.40
   4  11   4    5.00    0.70
   5  11   4    7.10    0.80
   0  12   4    0.30    0.40
   1  12   4    3.10    0.60
   2  12   4    5.40    0.70
   3  12   4   12.80    1.10
   3  10  -5   -0.20    0.40
   2  10  -5    1.40    0.50
   1  10  -5    2.10    0.60
   0  10  -5    0.80    0.50
  -1  10  -5    6.30    0.90
  -2  10  -5    0.00    0.40
  -3  10  -5    1.90    0.60
   5   9  -5    0.10    0.40
   4   9  -5    0.30    0.40
   3   9  -5    1.10    0.50
   2   9  -5    1.00    0.40
   1   9  -5   12.10    1.00
   0   9  -5    0.40    0.40
  -1   9  -5    1.90    0.50
  -2   9  -5   -0.10    0.40
  -3   9  -5    0.10    0.40
  -4   9  -5    2.00    0.60
  -5   9  -5   -0.20    0.50
  -5   9  -5   -0.30    0.40
   6   8  -5    0.30    0.40
   5   8  -5    3.80    0.60
   5   8  -5    4.10    0.70
   4   8  -5    2.30    0.50
   3   8  -5   17.60    1.20
   2   8  -5    0.80    0.40
   1   8  -5    0.70    0.40
   0   8  -5    5.80    0.70
  -1   8  -5    0.00    0.30
  -2   8  -5    0.20    0.40
  -3   8  -5    0.00    0.40
  -3   8  -5    0.20    0.40
  -4   8  -5    1.40    0.50
  -4   8  -5    1.40    0.50
  -5   8  -5    0.30    0.50
  -5   8  -5    0.70    0.50
  -6   8  -5    0.40    0.50
  -6   8  -5    0.50    0.50
   7   7  -5    4.80    0.70
   6   7  -5    1.60    0.50
   5   7  -5    8.80    0.90
   5   7  -5    6.00    0.70
   4   7  -5    1.50    0.40
   4   7  -5    1.20    0.40
   3   7  -5    0.00    0.30
   3   7  -5   -0.30    0.20
   2   7  -5    8.90    0.80
   1   7  -5    0.10    0.30
   0   7  -5    0.90    0.40
  -1   7  -5    0.70    0.40
  -2   7  -5    1.00    0.40
  -3   7  -5    2.30    0.50
  -3   7  -5    3.00    0.60
  -4   7  -5    1.50    0.50
  -4   7  -5    2.00    0.50
  -5   7  -5   -0.20    0.40
  -5   7  -5   -0.50    0.40
  -6   7  -5    2.40    0.60
  -6   7  -5    1.40    0.60
  -7   7  -5   -0.30    0.40
   7   6  -5    0.40    0.40
   6   6  -5    3.00    0.60
   5   6  -5    0.20    0.30
   5   6  -5    0.10    0.30
   4   6  -5    0.50    0.30
   4   6  -5    1.20    0.40
   3   6  -5    0.80    0.30
   3   6  -5    0.90    0.40
   2   6  -5    0.70    0.30
   2   6  -5    0.50    0.30
   1   6  -5    3.00    0.50
   0   6  -5   -0.10    0.30
  -1   6  -5    2.50    0.50
   1  -6   5    2.50    0.40
  -2   6  -5    7.70    0.80
  -3   6  -5    3.10    0.60
  -3   6  -5    3.60    0.60
  -4   6  -5    1.30    0.40
  -4   6  -5    1.10    0.40
  -5   6  -5   -0.10    0.40
  -5   6  -5   -0.10    0.40
  -6   6  -5    1.50    0.50
  -6   6  -5    1.90    0.50
  -7   6  -5    0.30    0.40
  -8   6  -5    0.40    0.50
   8   5  -5    0.40    0.50
   7   5  -5    0.20    0.40
   6   5  -5    0.10    0.30
   5   5  -5    1.30    0.40
   5   5  -5    1.00    0.40
   4   5  -5    0.20    0.30
   4   5  -5    0.30    0.30
   3   5  -5    8.40    0.80
   3   5  -5    8.30    0.70
   2   5  -5    0.40    0.20
   2   5  -5    0.10    0.30
   1   5  -5    1.30    0.40
   1   5  -5    1.50    0.30
   0   5  -5   17.90    1.10
   0  -5   5   18.20    1.00
  -1   5  -5   20.30    1.20
   1  -5   5   20.20    1.20
  -2   5  -5    0.70    0.30
   2  -5   5    0.50    0.30
  -3   5  -5    1.90    0.40
  -3   5  -5    2.40    0.50
  -4   5  -5    1.10    0.40
  -4   5  -5    1.40    0.40
  -5   5  -5    5.60    0.70
  -5   5  -5    5.60    0.70
  -6   5  -5    1.50    0.50
  -6   5  -5    2.60    0.50
  -7   5  -5    0.50    0.40
  -7   5  -5    1.50    0.50
  -8   5  -5    1.30    0.60
   8   4  -5    0.00    0.40
   7   4  -5    0.60    0.40
   6   4  -5   -0.30    0.30
   5   4  -5    3.50    0.60
   4   4  -5    5.30    0.60
   4   4  -5    5.60    0.60
   3   4  -5   16.80    1.00
   3   4  -5   16.00    1.00
   2   4  -5   10.50    0.70
   2   4  -5    9.30    0.70
   1   4  -5    8.10    0.70
   1   4  -5    8.30    0.50
  -1  -4   5    7.80    0.60
   0   4  -5   12.60    0.60
   0   4  -5   11.30    0.80
   0  -4   5   12.00    0.80
   1  -4   5    9.10    0.70
  -2   4  -5    1.20    0.30
   2  -4   5    1.60    0.40
  -3   4  -5    8.80    0.80
  -3   4  -5    8.80    0.80
  -4   4  -5    3.00    0.50
  -4   4  -5    4.20    0.60
  -5   4  -5    0.50    0.40
  -5   4  -5    0.10    0.30
  -6   4  -5    2.40    0.50
  -6   4  -5    2.90    0.60
  -7   4  -5    1.10    0.40
  -7   4  -5   -0.40    0.30
  -8   4  -5   -0.10    0.40
  -9   4  -5    0.20    0.50
   8   3  -5    1.00    0.50
   7   3  -5    1.00    0.50
   6   3  -5    1.70    0.50
   5   3  -5    2.60    0.50
   4   3  -5    3.20    0.50
   4   3  -5    3.30    0.40
   3   3  -5    0.80    0.30
   3   3  -5    1.10    0.20
   2   3  -5   39.30    1.80
   2   3  -5   37.80    1.70
  -2  -3   5   38.30    1.70
   1   3  -5   14.50    0.70
   1   3  -5   14.30    0.80
  -1  -3   5   13.90    0.80
   0   3  -5    5.70    0.50
   0   3  -5    4.70    0.40
   0  -3   5    5.10    0.40
  -1   3  -5    0.80    0.30
  -1   3  -5    0.90    0.10
   1  -3   5    1.00    0.30
  -2   3  -5    0.10    0.10
   2  -3   5    0.10    0.20
  -3   3  -5    1.80    0.40
  -3   3  -5    1.40    0.30
  -4   3  -5    0.00    0.20
  -4   3  -5    0.10    0.30
  -5   3  -5   10.60    0.90
  -5   3  -5   11.50    0.90
  -6   3  -5    4.20    0.60
  -6   3  -5    3.70    0.60
  -7   3  -5   -0.20    0.30
  -7   3  -5    0.20    0.40
  -8   3  -5    0.10    0.40
  -9   3  -5    1.10    0.60
   9   2  -5    0.70    0.50
   8   2  -5    0.10    0.40
   7   2  -5   -0.30    0.30
   6   2  -5    0.10    0.30
   5   2  -5    0.20    0.30
   4   2  -5    2.50    0.40
   4   2  -5    4.20    0.40
   3   2  -5   11.20    0.70
   3   2  -5   11.10    0.70
   2   2  -5   57.19    2.40
   2   2  -5   57.19    2.50
  -2  -2   5   56.59    2.50
   1   2  -5   10.90    0.60
   1   2  -5    9.70    0.60
  -1  -2   5    9.80    0.60
   0   2  -5    0.90    0.20
   0   2  -5    0.50    0.10
   0  -2   5    0.70    0.20
  -1   2  -5   39.30    1.60
  -1   2  -5   40.10    1.80
   1  -2   5   37.90    1.80
  -2   2  -5   30.00    1.20
   2  -2   5   30.70    1.50
  -3   2  -5   68.79    3.10
   3  -2   5   68.59    3.10
  -5   2  -5    2.30    0.40
  -5   2  -5    3.00    0.50
  -6   2  -5    0.60    0.30
  -6   2  -5    0.60    0.30
  -7   2  -5    1.60    0.50
  -7   2  -5    2.00    0.50
  -8   2  -5    0.20    0.40
  -8   2  -5    0.20    0.30
  -9   2  -5    0.60    0.50
 -10   2  -5    1.90    0.70
   9   1  -5   -0.70    0.40
   8   1  -5   -0.20    0.40
   7   1  -5   -0.50    0.30
   6   1  -5    0.40    0.30
   5   1  -5    2.70    0.40
  -5  -1   5    2.80    0.40
   4   1  -5   11.30    0.80
   3   1  -5    7.70    0.60
   3   1  -5    9.30    0.60
  -3  -1   5    9.00    0.60
   2   1  -5    1.80    0.20
   2   1  -5    2.20    0.30
  -2  -1   5    2.20    0.30
   1   1  -5  165.38    6.30
   1   1  -5  162.78    6.70
  -1  -1   5  156.38    6.70
   0   1  -5  113.59    4.60
   0   1  -5  100.49    4.30
   0  -1   5  116.09    4.70
  -1   1  -5   47.70    2.10
  -1   1  -5   46.50    1.90
   1  -1   5   48.30    2.20
  -2   1  -5    5.20    0.50
  -2   1  -5    8.10    0.40
   2  -1   5    7.50    0.60
  -3   1  -5    2.70    0.40
  -3   1  -5    3.40    0.30
   3  -1   5    3.00    0.40
  -4   1  -5    3.00    0.40
  -5   1  -5    4.80    0.60
  -5   1  -5    3.90    0.50
  -6   1  -5    7.60    0.80
  -6   1  -5    6.60    0.70
  -7   1  -5   12.30    1.00
  -7   1  -5   10.00    0.90
  -8   1  -5   13.20    1.20
  -8   1  -5   15.90    1.10
  -9   1  -5    0.00    0.40
 -10   1  -5    2.90    0.80
   9   0  -5   -0.40    0.40
   8   0  -5   -0.70    0.30
   7   0  -5    0.50    0.30
   6   0  -5    0.40    0.30
  -6   0   5    1.10    0.40
   5   0  -5   16.50    1.00
  -5   0   5   16.40    1.10
  -4   0   5    2.90    0.40
   3   0  -5   17.20    0.80
   3   0  -5   15.70    0.90
  -3   0   5   17.40    0.90
   2   0  -5   34.60    1.50
   2   0  -5   32.80    1.50
  -2   0   5   35.70    1.60
   1   0  -5    4.30    0.40
   1   0  -5    4.70    0.40
  -1   0   5    5.20    0.40
   0   0  -5    4.50    0.30
   0   0  -5    3.50    0.40
   0   0   5    4.50    0.40
  -1   0  -5    4.30    0.40
   1   0   5    5.10    0.40
  -2   0  -5    6.30    0.40
  -2   0  -5    8.80    0.60
   2   0   5    7.00    0.50
  -3   0  -5   52.79    2.40
   3   0   5   52.49    2.40
  -4   0  -5  140.79    6.10
  -4   0  -5  164.08    6.60
   4   0   5  164.38    6.70
  -5   0  -5   57.79    2.60
   5   0   5   53.19    2.60
  -6   0  -5   55.79    2.60
  -6   0  -5   53.29    2.70
  -7   0  -5   -0.10    0.30
  -7   0  -5    0.50    0.40
  -8   0  -5   11.40    1.10
  -9   0  -5    0.60    0.50
  10   0   5    1.90    0.60
   9  -1  -5   -0.30    0.30
   8  -1  -5    1.20    0.40
   7  -1  -5    2.00    0.40
  -7   1   5    1.20    0.50
   6  -1  -5    0.20    0.30
  -6   1   5    0.70    0.40
   5  -1  -5    0.90    0.30
  -5   1   5    1.90    0.50
   4  -1  -5    7.70    0.60
  -3   1   5    3.70    0.40
   2  -1  -5   30.30    1.40
   2  -1  -5   32.10    1.40
  -2   1   5   31.80    1.50
   1  -1  -5    1.00    0.20
   1  -1  -5    0.60    0.20
  -1   1   5    0.90    0.20
   0  -1  -5   54.89    2.20
   0  -1  -5   55.29    2.30
   0   1   5   52.29    2.40
  -1  -1  -5  276.47   10.80
  -1  -1  -5  283.87   11.40
  -2  -1  -5  938.61   36.90
  -2  -1  -5  890.01   35.20
   2   1   5  921.51   37.50
  -3  -1  -5  150.48    7.40
  -3  -1  -5  187.48    6.90
   3   1   5  196.28    7.50
  -4  -1  -5   66.89    3.00
  -4  -1  -5   68.39    2.80
   4   1   5   68.29    3.00
  -5  -1  -5    9.70    0.80
  -5  -1  -5   13.00    0.70
   5   1   5   11.50    0.80
   6   1   5   32.80    1.70
   7   1   5    4.00    0.60
   8   1   5    2.20    0.50
   9   1   5    0.70    0.40
   9  -2  -5   -0.10    0.30
   8  -2  -5   -0.10    0.30
  -8   2   5    0.00    0.50
   7  -2  -5    0.40    0.30
  -7   2   5    0.10    0.40
   6  -2  -5    3.40    0.40
  -6   2   5    4.40    0.70
   5  -2  -5    0.60    0.30
  -5   2   5    0.40    0.40
   4  -2  -5    8.40    0.60
  -4   2   5    9.10    0.80
   3  -2  -5   23.40    1.20
  -3   2   5   25.10    1.30
   2  -2  -5  202.18    8.00
  -2   2   5  209.18    8.60
   1  -2  -5  226.18    9.00
  -1   2   5  242.58    9.80
   0  -2  -5  617.24   23.60
  -1  -2  -5  430.76   17.90
  -1  -2  -5  452.65   17.00
   1   2   5  447.46   18.20
  -2  -2  -5   19.50    1.10
  -2  -2  -5   21.30    0.90
   2   2   5   20.20    1.10
  -3  -2  -5   57.99    2.40
   3   2   5   58.29    2.60
  -4  -2  -5   75.49    3.10
   4   2   5   75.49    3.30
  -5  -2  -5    1.90    0.30
   5   2   5    1.90    0.30
   6   2   5    4.50    0.60
   7   2   5   -0.40    0.30
   8   2   5   21.50    1.40
   9  -3  -5    0.10    0.30
  -9   3   5   -0.40    0.60
   8  -3  -5    1.40    0.40
  -8   3   5    0.90    0.60
   7  -3  -5    0.10    0.30
  -7   3   5   -0.10    0.40
   6  -3  -5    0.10    0.20
  -6   3   5    0.50    0.40
   5  -3  -5   15.10    0.90
  -5   3   5   13.90    1.10
   4  -3  -5   73.49    3.10
  -4   3   5   73.49    3.40
   3  -3  -5   79.59    3.30
  -3   3   5   81.49    3.60
   2  -3  -5   85.59    3.30
  -2   3   5   83.39    3.40
  -2   3   5   77.09    3.60
   1  -3  -5  293.97   11.00
  -1   3   5  278.57   11.60
   0  -3  -5   15.30    0.70
  -1  -3  -5    0.40    0.10
   1   3   5    0.40    0.20
  -2  -3  -5   38.50    1.70
   2   3   5   40.20    1.80
  -3  -3  -5   13.00    0.70
   3   3   5   14.00    0.80
  -4  -3  -5   60.19    2.50
   4   3   5   57.79    2.60
  -5  -3  -5    6.90    0.60
   5   3   5    7.80    0.60
   6   3   5   10.80    0.80
   7   3   5   15.00    1.00
   8   3   5    0.80    0.40
   9   3   5    0.30    0.40
  -9   4   5   -0.40    0.60
   8  -4  -5    0.20    0.30
  -8   4   5    0.50    0.60
   7  -4  -5    1.80    0.40
  -7   4   5    2.00    0.60
   6  -4  -5   11.00    0.80
  -6   4   5   11.00    1.10
   5  -4  -5   13.80    0.90
  -5   4   5   15.90    1.20
   4  -4  -5   19.60    1.00
  -4   4   5   18.70    1.20
   3  -4  -5   43.50    1.80
  -3   4   5   38.70    2.00
   2  -4  -5   34.40    1.60
  -2   4   5   37.80    1.60
   1  -4  -5   31.30    1.40
  -1   4   5   31.50    1.50
   0  -4  -5    0.20    0.10
   0   4   5    0.40    0.20
   0   4   5    0.10    0.10
   1   4   5    7.90    0.60
   1   4   5    9.40    0.60
  -2  -4  -5   17.30    0.90
   2   4   5   16.70    0.90
   2   4   5   17.20    1.00
  -3  -4  -5   45.90    2.00
   3   4   5   46.30    2.10
  -4  -4  -5    3.00    0.40
   4   4   5    3.10    0.40
  -5  -4  -5   10.30    0.80
   5   4   5   11.60    0.90
   5   4   5   12.50    0.80
   6   4   5    0.30    0.30
   6   4   5    0.20    0.30
   7   4   5   13.10    1.10
   8   4   5    1.30    0.50
   9   4   5   -0.70    0.40
  -8   5   5    2.40    0.80
   7  -5  -5    2.70    0.40
  -7   5   5    3.30    0.80
   6  -5  -5   11.10    0.80
  -6   5   5   12.20    1.10
   5  -5  -5    2.30    0.40
  -5   5   5    2.80    0.60
   4  -5  -5    9.90    0.70
  -4   5   5    9.40    0.90
   3  -5  -5    7.50    0.50
  -3   5   5    7.90    0.70
   2  -5  -5    0.20    0.20
  -2   5   5    1.00    0.30
   1  -5  -5    0.20    0.20
  -1   5   5    0.80    0.30
  -1   5   5    0.50    0.20
   0  -5  -5   -0.10    0.10
   0   5   5    0.00    0.20
   0   5   5    0.10    0.10
  -1  -5  -5   62.29    2.50
   1   5   5   58.39    2.60
   1   5   5   59.89    2.70
  -2  -5  -5    0.00    0.10
   2   5   5    0.40    0.20
   2   5   5    0.20    0.20
   3   5   5    9.70    0.70
   3   5   5    9.30    0.60
  -4  -5  -5   -0.60    0.20
   4   5   5    0.10    0.20
   4   5   5    0.40    0.20
  -5  -5  -5   38.30    1.90
   5   5   5   42.10    1.90
   5   5   5   40.80    2.00
   6   5   5    1.00    0.40
   7   5   5   -0.30    0.30
   8   5   5    1.40    0.50
   9   5   5    0.10    0.50
  -8   6   5    2.00    0.70
  -7   6   5   -0.30    0.50
   6  -6  -5    0.20    0.30
  -6   6   5    0.60    0.50
   5  -6  -5    0.50    0.30
  -5   6   5   -0.30    0.40
   4  -6  -5    0.50    0.20
  -4   6   5    0.30    0.40
   3  -6  -5    0.20    0.20
  -3   6   5    0.40    0.40
   2  -6  -5    3.80    0.40
  -2   6   5    4.70    0.60
   1  -6  -5   12.90    0.80
  -1   6   5   13.50    0.80
  -1   6   5   12.60    0.90
   0  -6  -5   10.90    0.60
   0   6   5    8.40    0.70
   0   6   5    9.10    0.70
  -1  -6  -5   34.30    1.50
   1   6   5   31.00    1.60
   1   6   5   31.40    1.60
  -2  -6  -5    0.60    0.20
   2   6   5    0.30    0.30
   2   6   5    1.10    0.30
  -3  -6  -5    9.10    0.70
   3   6   5   11.50    0.70
   3   6   5    9.30    0.80
  -4  -6  -5    6.40    0.60
   4   6   5    6.60    0.70
   4   6   5    6.90    0.60
  -5  -6  -5    0.00    0.20
   5   6   5   -0.30    0.30
   6   6   5    9.20    0.90
   7   6   5   -0.20    0.30
   8   6   5    1.40    0.50
   9   6   5    0.50    0.50
  10   6   5   -0.10    0.50
  -7   7   5    0.20    0.60
  -6   7   5   -0.20    0.50
  -5   7   5    2.20    0.60
   4  -7  -5   12.10    0.80
  -4   7   5   11.00    1.20
   3  -7  -5    1.60    0.30
  -3   7   5    1.00    0.50
   2  -7  -5    2.90    0.40
  -2   7   5    2.10    0.50
  -1   7   5    2.60    0.60
  -1   7   5    3.10    0.40
   0  -7  -5    1.20    0.30
   0   7   5    1.40    0.40
   0   7   5    0.60    0.30
  -1  -7  -5    1.40    0.30
   1   7   5   -0.40    0.20
   1   7   5   -0.10    0.30
  -2  -7  -5   11.30    0.80
   2   7   5   11.90    0.90
   2   7   5   14.00    0.80
  -3  -7  -5    2.10    0.40
   3   7   5    1.80    0.40
   3   7   5    2.70    0.40
  -4  -7  -5   10.60    0.80
   4   7   5    9.50    0.80
  -5  -7  -5    2.90    0.50
   5   7   5    2.80    0.50
   6   7   5    5.60    0.60
   7   7   5    0.80    0.40
   8   7   5   -0.20    0.40
   9   7   5    1.20    0.50
  -6   8   5    1.90    0.80
  -5   8   5    0.00    0.50
  -4   8   5    0.30    0.50
   3  -8  -5    0.20    0.30
  -3   8   5   -0.10    0.40
   2  -8  -5   -0.10    0.30
  -2   8   5   -0.70    0.30
   1  -8  -5    2.00    0.40
  -1   8   5    1.30    0.30
  -1   8   5    1.90    0.50
   0  -8  -5    3.60    0.50
   0   8   5    3.10    0.50
   0   8   5    4.20    0.50
  -1  -8  -5    0.10    0.30
   1   8   5    0.50    0.30
   1   8   5    0.30    0.20
  -2  -8  -5   10.40    0.80
   2   8   5    9.90    0.70
  -3  -8  -5   16.40    1.00
   3   8   5   16.30    1.00
  -4  -8  -5    8.40    0.80
   4   8   5    7.80    0.70
  -5  -8  -5    0.20    0.30
   5   8   5    0.20    0.30
   6   8   5    1.70    0.40
   7   8   5    1.50    0.50
   8   8   5    1.90    0.50
   9   8   5    0.20    0.40
  -5   9   5   -0.50    0.50
  -4   9   5    0.20    0.50
  -3   9   5    1.10    0.50
   2  -9  -5    0.00    0.30
  -2   9   5    0.20    0.40
   1  -9  -5    2.10    0.40
  -1   9   5    2.10    0.50
   0  -9  -5    8.60    0.80
   0   9   5   10.10    0.90
   0   9   5    9.20    0.80
  -1  -9  -5    6.50    0.70
   1   9   5    5.70    0.60
  -2  -9  -5   -0.30    0.30
   2   9   5    0.30    0.30
  -3  -9  -5    4.80    0.60
   3   9   5    4.10    0.50
  -4  -9  -5   11.80    1.00
   4   9   5   10.60    0.80
  -5  -9  -5    0.70    0.40
   5   9   5    1.10    0.30
   6   9   5    2.50    0.50
   7   9   5    1.60    0.50
   8   9   5    1.30    0.50
  -4  10   5    0.20    0.60
  -3  10   5    3.10    0.70
  -2  10   5    2.20    0.60
   1 -10  -5    0.20    0.30
  -1  10   5    0.00    0.40
   0 -10  -5    2.80    0.50
   0  10   5    2.60    0.50
  -1 -10  -5    5.30    0.60
   1  10   5    5.70    0.60
  -2 -10  -5    4.30    0.60
   2  10   5    4.60    0.60
  -3 -10  -5    2.40    0.50
   3  10   5    1.70    0.40
  -4 -10  -5    2.00    0.50
   4  10   5    1.40    0.40
   5  10   5    5.80    0.70
   6  10   5    0.20    0.30
   7  10   5    6.10    0.80
  -4  11   5    0.10    0.50
  -3  11   5    0.40    0.50
   0  11   5    0.10    0.30
  -1 -11  -5    2.80    0.60
   1  11   5    2.90    0.50
  -2 -11  -5    0.70    0.40
   2  11   5    0.10    0.30
  -3 -11  -5    3.80    0.60
   3  11   5    3.20    0.60
  -4 -11  -5    4.90    0.70
   4  11   5    4.10    0.60
   5  11   5    5.40    0.70
   1  12   5    0.80    0.40
   2  12   5   13.30    1.10
  -3 -12  -5    5.00    0.80
   3  12   5    4.60    0.70
   0  10  -6   -0.10    0.40
   4   9  -6    0.70    0.50
   3   9  -6    0.40    0.40
   2   9  -6    0.60    0.40
   1   9  -6    1.00    0.50
   0   9  -6    4.30    0.70
  -1   9  -6    0.10    0.40
  -2   9  -6    0.20    0.40
  -3   9  -6   -0.30    0.40
  -4   9  -6    0.20    0.50
   6   8  -6    0.40    0.40
   4   8  -6    0.50    0.40
   3   8  -6    1.00    0.40
   2   8  -6    2.50    0.60
   1   8  -6    0.30    0.40
   0   8  -6    1.70    0.50
  -1   8  -6    0.20    0.40
  -2   8  -6    2.30    0.60
  -3   8  -6    2.50    0.60
  -4   8  -6    1.10    0.50
   4  -8   6    1.50    0.50
  -5   8  -6    1.80    0.60
  -6   8  -6   -0.50    0.50
  -6   8  -6   -0.40    0.50
   6   7  -6    0.30    0.40
   5   7  -6    1.40    0.50
   4   7  -6    0.70    0.40
   4   7  -6    1.20    0.40
   3   7  -6    0.10    0.30
   2   7  -6    8.50    0.90
   1   7  -6    0.30    0.40
   0   7  -6   -0.30    0.30
  -1   7  -6    3.00    0.60
  -2   7  -6   10.30    1.00
   2  -7   6   11.20    1.00
  -3   7  -6    6.80    0.80
   3  -7   6    8.40    0.90
  -4   7  -6    0.40    0.40
  -5   7  -6    3.80    0.70
  -5   7  -6    3.20    0.70
  -6   7  -6    0.50    0.50
  -6   7  -6    0.00    0.50
  -7   7  -6    0.60    0.50
   7   6  -6    1.20    0.50
   6   6  -6    2.30    0.50
   5   6  -6   -0.40    0.30
   4   6  -6    6.20    0.70
   4   6  -6    6.50    0.70
   3   6  -6    0.90    0.40
   3   6  -6    0.50    0.30
   2   6  -6    5.70    0.70
   1   6  -6    3.60    0.60
   0   6  -6   16.20    1.10
  -1   6  -6   29.50    1.70
   1  -6   6   29.20    1.60
  -2   6  -6    0.10    0.30
   2  -6   6    0.50    0.30
  -3   6  -6    7.10    0.80
   3  -6   6    8.10    0.90
  -4   6  -6    0.00    0.40
  -5   6  -6    3.40    0.70
  -5   6  -6    4.60    0.70
  -6   6  -6    0.60    0.50
  -6   6  -6    0.30    0.50
  -7   6  -6    3.00    0.70
  -7   6  -6    3.00    0.70
   7   5  -6    0.10    0.40
   6   5  -6    1.00    0.40
   5   5  -6    0.30    0.30
   4   5  -6    7.80    0.80
   4   5  -6    8.40    0.70
   3   5  -6   11.70    0.80
   3   5  -6   12.30    0.90
   2   5  -6    6.70    0.70
   2   5  -6    7.20    0.60
   1   5  -6   51.19    2.20
   1   5  -6   49.20    2.40
   0   5  -6   -0.40    0.20
   0  -5   6    0.30    0.20
  -1   5  -6    2.40    0.50
   1  -5   6    1.90    0.40
  -2   5  -6    2.90    0.50
   2  -5   6    3.10    0.50
  -3   5  -6   15.60    1.10
   3  -5   6   15.10    1.10
  -4   5  -6    8.90    0.90
  -5   5  -6    2.80    0.60
  -5   5  -6    1.80    0.50
  -6   5  -6    0.10    0.40
  -6   5  -6    0.30    0.40
  -7   5  -6    2.50    0.70
  -7   5  -6    2.90    0.60
  -8   5  -6    0.00    0.50
   8   4  -6    0.20    0.40
   7   4  -6   -0.20    0.40
   6   4  -6    1.40    0.40
   5   4  -6   13.90    1.00
   4   4  -6    1.30    0.40
   4   4  -6    0.60    0.30
   3   4  -6   14.80    1.00
   3   4  -6   17.20    1.00
   2   4  -6    2.00    0.40
   2   4  -6    2.60    0.40
   1   4  -6    0.00    0.20
   1   4  -6    0.00    0.20
  -1  -4   6    0.10    0.20
   0   4  -6   22.80    1.30
   0   4  -6   22.30    1.00
   0  -4   6   23.20    1.20
  -1   4  -6   26.60    1.50
   1  -4   6   27.10    1.40
  -2   4  -6    9.40    0.80
   2  -4   6   10.30    0.80
  -3   4  -6    5.70    0.70
   3  -4   6    6.20    0.70
  -4   4  -6    1.40    0.40
  -5   4  -6   11.50    1.00
  -5   4  -6   11.60    1.00
  -6   4  -6    9.30    1.00
  -6   4  -6    8.10    1.00
  -7   4  -6   -0.10    0.40
  -7   4  -6    0.10    0.40
  -8   4  -6    0.00    0.50
  -9   4  -6    1.10    0.60
   8   3  -6    0.60    0.50
   7   3  -6    3.80    0.60
   6   3  -6   -0.30    0.30
   5   3  -6    0.20    0.30
   4   3  -6    5.20    0.60
   3   3  -6    0.50    0.20
   3   3  -6    0.50    0.20
   2   3  -6    5.40    0.60
   2   3  -6    5.00    0.50
  -2  -3   6    5.10    0.50
   1   3  -6   14.10    0.90
   1   3  -6   13.90    0.80
  -1  -3   6   12.60    0.80
   0   3  -6   -0.10    0.20
   0   3  -6    0.00    0.10
   0  -3   6    0.00    0.20
  -1   3  -6   39.80    2.00
   1  -3   6   40.10    1.90
   2  -3   6   36.00    1.80
  -3   3  -6    1.00    0.30
   3  -3   6    0.10    0.30
  -4   3  -6   43.10    2.20
   4  -3   6   41.40    2.20
  -5   3  -6    2.10    0.50
  -5   3  -6    2.10    0.50
  -6   3  -6    0.00    0.30
  -6   3  -6    0.60    0.40
  -7   3  -6    0.20    0.40
  -7   3  -6    0.20    0.40
  -8   3  -6    0.40    0.40
  -8   3  -6    0.10    0.50
  -9   3  -6    0.90    0.60
   8   2  -6    0.20    0.40
   7   2  -6   -0.10    0.30
   6   2  -6    1.00    0.40
   5   2  -6    1.60    0.40
   4   2  -6    1.50    0.30
  -4  -2   6    0.80    0.30
   3   2  -6    2.80    0.30
   3   2  -6    2.60    0.40
  -3  -2   6    2.50    0.40
   2   2  -6    0.10    0.20
   2   2  -6    0.00    0.20
  -2  -2   6   -0.10    0.20
   1   2  -6    8.60    0.60
   1   2  -6    8.70    0.50
  -1  -2   6    8.80    0.60
   0   2  -6   87.89    3.80
   0   2  -6   92.29    3.50
   0  -2   6   86.79    3.90
  -1   2  -6    5.90    0.60
   1  -2   6    6.80    0.60
  -2   2  -6   50.49    2.00
   2  -2   6   52.09    2.40
  -3   2  -6    0.70    0.20
   3  -2   6    1.90    0.40
  -4   2  -6   14.50    1.00
   4  -2   6   14.90    1.00
   5  -2   6    2.80    0.50
  -6   2  -6   -0.20    0.30
  -6   2  -6    0.50    0.40
  -7   2  -6    4.30    0.70
  -7   2  -6    4.50    0.70
  -8   2  -6   -0.30    0.40
  -8   2  -6    0.00    0.40
  -9   2  -6    0.00    0.50
  10  -2   6    0.60    0.50
   8   1  -6   -0.40    0.40
   7   1  -6    0.80    0.40
   6   1  -6    0.30    0.30
   5   1  -6    1.70    0.40
  -5  -1   6    2.60    0.40
   4   1  -6    0.20    0.20
  -4  -1   6    0.20    0.30
   3   1  -6    0.20    0.20
   3   1  -6    0.40    0.20
  -3  -1   6    0.00    0.20
   2   1  -6   65.39    2.70
   2   1  -6   64.99    2.80
  -2  -1   6   62.99    2.90
   1   1  -6    5.00    0.50
   1   1  -6    5.30    0.40
  -1  -1   6    4.50    0.50
   0   1  -6    0.80    0.20
   0   1  -6    0.50    0.20
   0  -1   6    0.80    0.20
  -1   1  -6    1.30    0.20
  -1   1  -6    1.20    0.30
   1  -1   6    1.50    0.30
  -2   1  -6   27.60    1.40
   2  -1   6   25.40    1.40
  -3   1  -6   46.40    1.80
   3  -1   6   40.60    2.10
  -4   1  -6    0.00    0.20
   4  -1   6    0.00    0.10
   5  -1   6    6.60    0.70
  -6   1  -6    0.50    0.30
   6  -1   6    0.50    0.40
  -7   1  -6    0.30    0.30
   7  -1   6   -0.20    0.30
  -8   1  -6    0.60    0.40
   8  -1   6    0.30    0.40
   9  -1   6    0.00    0.40
  10  -1   6    1.00    0.50
   9   0  -6   -0.20    0.40
   8   0  -6    0.10    0.40
   7   0  -6    0.80    0.40
   6   0  -6    0.30    0.30
  -6   0   6   -0.60    0.30
   5   0  -6    3.50    0.50
   4   0  -6   15.80    0.90
  -4   0   6   14.50    1.00
   3   0  -6   21.10    1.10
  -3   0   6   20.50    1.10
   2   0  -6    2.90    0.30
   2   0  -6    3.30    0.30
  -2   0   6    4.40    0.50
   1   0  -6   18.90    0.90
   1   0  -6   18.20    1.00
  -1   0   6   19.10    1.00
   0   0  -6    0.30    0.10
   0   0  -6    0.40    0.20
   0   0   6    0.70    0.20
  -1   0  -6   86.79    3.50
  -1   0  -6   91.89    3.80
   1   0   6   89.49    3.90
  -2   0  -6    9.30    0.50
  -2   0  -6    9.60    0.70
   2   0   6    9.70    0.70
   3   0   6    1.20    0.20
  -4   0  -6    2.20    0.20
  -4   0  -6    2.00    0.40
   4   0   6    1.90    0.40
  -5   0  -6    0.70    0.30
  -5   0  -6    0.20    0.20
   5   0   6    0.70    0.30
  -6   0  -6   12.80    1.00
   6   0   6   12.10    0.90
  -7   0  -6    0.00    0.30
   7   0   6   -0.30    0.30
   8   0   6    0.30    0.40
   9   0   6    0.00    0.40
  10   0   6    0.10    0.40
   9  -1  -6   -0.30    0.30
   8  -1  -6    0.80    0.40
   7  -1  -6    4.30    0.60
  -7   1   6    4.20    0.70
   6  -1  -6    2.80    0.40
  -6   1   6    4.00    0.70
   5  -1  -6    2.50    0.40
  -5   1   6    1.80    0.50
   4  -1  -6    0.60    0.20
  -4   1   6   -0.40    0.30
  -3   1   6   18.30    1.10
   2  -1  -6    2.20    0.20
   2  -1  -6    2.40    0.30
  -2   1   6    2.40    0.40
   1  -1  -6   45.10    2.00
   1  -1  -6   46.30    1.90
  -1   1   6   43.60    2.10
   0  -1  -6   56.69    2.30
   0  -1  -6   55.59    2.50
   0   1   6   57.09    2.50
  -1  -1  -6    7.90    0.50
  -1  -1  -6    7.30    0.60
   1   1   6    7.50    0.60
  -2  -1  -6   24.30    1.20
  -2  -1  -6   22.00    1.00
   2   1   6   19.80    1.10
  -3  -1  -6    4.00    0.50
  -3  -1  -6    5.40    0.40
   3   1   6    5.10    0.50
  -4  -1  -6   29.80    1.60
  -4  -1  -6   35.30    1.40
   4   1   6   32.40    1.60
  -5  -1  -6    0.40    0.20
  -5  -1  -6    0.60    0.30
   5   1   6    0.30    0.30
   6   1   6    0.40    0.30
   7   1   6    0.80    0.40
   8   1   6    5.30    0.70
   9   1   6    0.00    0.40
   9  -2  -6    0.40    0.40
   8  -2  -6    1.30    0.40
  -8   2   6   -0.40    0.50
   7  -2  -6    0.20    0.30
  -7   2   6   -0.20    0.50
   6  -2  -6    0.50    0.30
  -6   2   6    0.00    0.40
   5  -2  -6    5.90    0.60
  -5   2   6    6.30    0.70
   4  -2  -6    1.60    0.30
  -4   2   6    1.60    0.40
   3  -2  -6   10.10    0.60
  -2   2   6    2.40    0.40
   1  -2  -6    0.60    0.20
  -1   2   6    0.80    0.30
   0  -2  -6  140.29    5.20
   0  -2  -6  138.59    5.50
   0   2   6  119.89    5.60
  -1  -2  -6    9.50    0.60
  -1  -2  -6   10.80    0.60
   1   2   6   10.60    0.70
  -2  -2  -6    6.00    0.50
  -2  -2  -6    6.10    0.40
   2   2   6    5.60    0.50
  -3  -2  -6    9.30    0.70
  -3  -2  -6    7.60    0.50
   3   2   6    8.20    0.60
  -4  -2  -6   13.00    0.70
   4   2   6   13.20    0.80
  -5  -2  -6    8.30    0.60
   5   2   6    8.90    0.70
   6   2   6   15.80    1.00
   7   2   6    2.50    0.50
   8   2   6   16.00    1.10
   9  -3  -6    0.00    0.40
  -9   3   6   -0.20    0.60
   8  -3  -6    0.40    0.30
  -8   3   6   -0.30    0.50
   7  -3  -6    0.90    0.30
  -7   3   6    0.80    0.50
   6  -3  -6    0.90    0.30
  -6   3   6    1.00    0.50
   5  -3  -6    3.30    0.40
  -5   3   6    4.00    0.60
   4  -3  -6    9.90    0.70
  -4   3   6    8.90    0.80
   3  -3  -6    0.00    0.20
  -3   3   6   -0.10    0.30
   2  -3  -6   32.50    1.60
  -2   3   6   42.10    1.80
  -1   3   6    0.70    0.20
   0  -3  -6    3.30    0.30
   0   3   6    4.50    0.40
  -1  -3  -6   39.20    1.70
   1   3   6   39.00    1.80
  -2  -3  -6   47.80    2.00
   2   3   6   49.40    2.20
  -3  -3  -6    5.90    0.50
   3   3   6    6.30    0.50
  -4  -3  -6    0.40    0.20
   4   3   6    0.00    0.20
  -5  -3  -6    6.00    0.50
   5   3   6    5.80    0.60
  -6  -3  -6   99.19    4.10
   6   3   6   96.89    4.30
   7   3   6   44.00    2.20
   8   3   6   22.10    1.40
   9   3   6   28.00    1.80
   8  -4  -6   -0.40    0.30
  -8   4   6   -0.90    0.50
   7  -4  -6    0.60    0.30
  -7   4   6    0.50    0.50
   6  -4  -6    5.10    0.60
  -6   4   6    5.30    0.80
   5  -4  -6    0.90    0.30
  -5   4   6    1.00    0.50
   4  -4  -6    1.20    0.30
  -4   4   6    1.80    0.50
   3  -4  -6   31.60    1.50
  -3   4   6   31.90    1.70
   2  -4  -6    4.20    0.40
   1  -4  -6    1.40    0.20
  -1   4   6    1.50    0.30
  -1   4   6    1.50    0.20
   0   4   6    8.10    0.60
   0   4   6    9.10    0.60
  -1  -4  -6    1.80    0.20
   1   4   6    0.90    0.20
  -2  -4  -6   43.60    1.80
   2   4   6   42.00    2.00
  -3  -4  -6    0.80    0.20
   3   4   6    1.40    0.30
  -4  -4  -6  143.29    5.80
   4   4   6  148.89    6.20
  -5  -4  -6  224.88    9.00
   5   4   6  232.48    9.60
  -6  -4  -6   43.10    2.00
   6   4   6   43.20    2.10
   7   4   6   42.50    2.20
   7   4   6   46.60    2.30
   8   4   6   21.10    1.50
   9   4   6    2.40    0.60
  10   4   6    1.10    0.60
  -8   5   6    0.10    0.60
   7  -5  -6    1.60    0.40
  -7   5   6    1.40    0.60
   6  -5  -6    0.20    0.30
  -6   5   6    0.70    0.50
   5  -5  -6    6.50    0.60
  -5   5   6    8.10    1.00
   4  -5  -6    1.40    0.30
  -4   5   6    1.10    0.40
   3  -5  -6    2.10    0.30
  -3   5   6    2.50    0.50
   2  -5  -6    0.20    0.20
  -2   5   6   -0.10    0.30
   1  -5  -6    0.00    0.20
  -1   5   6    0.10    0.10
  -1   5   6    0.50    0.30
   0  -5  -6   25.40    1.10
   0   5   6   22.60    1.20
   0   5   6   22.40    1.20
   1   5   6   80.29    3.50
   1   5   6   76.09    3.40
   2   5   6  105.09    4.50
   2   5   6  104.19    4.50
  -3  -5  -6  335.17   13.00
   3   5   6  341.67   13.90
   3   5   6  331.37   13.80
  -4  -5  -6   73.39    3.20
   4   5   6   76.69    3.30
   4   5   6   75.79    3.40
  -5  -5  -6   17.70    1.10
   5   5   6   20.20    1.30
   5   5   6   19.80    1.10
  -6  -5  -6   24.20    1.40
   6   5   6   29.30    1.60
   7   5   6    4.30    0.70
   8   5   6    1.50    0.50
   9   5   6    0.10    0.50
  10   5   6   -0.60    0.40
  -7   6   6    0.90    0.60
   6  -6  -6    0.60    0.30
  -6   6   6    0.50    0.50
   5  -6  -6   -0.10    0.20
  -5   6   6    0.20    0.40
   4  -6  -6   -0.10    0.20
  -4   6   6    0.00    0.40
   3  -6  -6    1.80    0.30
  -3   6   6    1.60    0.40
   2  -6  -6    4.60    0.50
  -2   6   6    4.20    0.60
   1  -6  -6  123.79    5.00
  -1   6   6  128.29    5.20
  -1   6   6  124.89    5.50
   0  -6  -6   88.29    3.60
   0   6   6   84.29    3.90
   0   6   6   89.59    3.70
  -1  -6  -6  131.99    5.20
   1   6   6  129.69    5.60
   1   6   6  130.09    5.50
  -2  -6  -6   86.29    3.50
   2   6   6   84.39    3.70
   2   6   6   82.29    3.70
  -3  -6  -6    3.30    0.50
   3   6   6    4.90    0.50
   3   6   6    3.20    0.50
  -4  -6  -6   51.69    2.40
   4   6   6   54.99    2.50
   4   6   6   53.59    2.40
  -5  -6  -6    9.70    0.80
   5   6   6    8.20    0.80
  -6  -6  -6    6.30    0.70
   6   6   6    6.00    0.70
   7   6   6    1.80    0.50
   8   6   6    0.00    0.40
   9   6   6    1.00    0.50
  10   6   6   -0.30    0.50
  -7   7   6    0.50    0.60
  -6   7   6   -0.20    0.50
   5  -7  -6    4.20    0.50
  -5   7   6    5.00    0.80
   4  -7  -6    4.40    0.50
  -4   7   6    4.40    0.80
   3  -7  -6   53.89    2.40
  -3   7   6   55.19    2.80
   2  -7  -6   47.50    2.10
  -2   7   6   49.00    2.50
   1  -7  -6   31.90    1.60
  -1   7   6   34.90    1.60
  -1   7   6   31.90    1.80
   0  -7  -6   55.59    2.50
   0   7   6   59.09    2.80
   0   7   6   60.39    2.60
  -1  -7  -6   10.70    0.80
   1   7   6   13.20    0.90
   1   7   6   12.70    0.90
  -2  -7  -6   85.99    3.60
   2   7   6   86.69    3.70
   2   7   6   82.49    3.70
  -3  -7  -6    4.60    0.50
   3   7   6    4.10    0.50
   3   7   6    4.00    0.50
  -4  -7  -6    3.70    0.50
   4   7   6    2.90    0.50
  -5  -7  -6    7.00    0.70
   5   7   6    5.80    0.60
  -6  -7  -6    1.00    0.40
   6   7   6    1.10    0.40
   7   7   6    0.00    0.30
   8   7   6   -0.10    0.40
   9   7   6    0.50    0.50
  -6   8   6    3.50    0.80
  -5   8   6   16.70    1.40
   4  -8  -6   14.10    0.90
  -4   8   6   14.50    1.30
   3  -8  -6   16.30    1.00
  -3   8   6   17.20    1.30
   2  -8  -6   28.90    1.50
  -2   8   6   29.00    1.70
   1  -8  -6    6.60    0.60
  -1   8   6    7.70    0.80
   0  -8  -6   41.70    2.10
   0   8   6   47.40    2.20
   0   8   6   49.70    2.30
  -1  -8  -6   -0.10    0.30
   1   8   6    0.60    0.30
   1   8   6    0.20    0.20
  -2  -8  -6   -0.20    0.20
   2   8   6    0.20    0.20
   2   8   6    0.00    0.30
  -3  -8  -6    2.90    0.50
   3   8   6    1.50    0.40
  -4  -8  -6   -0.50    0.20
   4   8   6    0.20    0.30
  -5  -8  -6   -0.10    0.30
   5   8   6    0.10    0.30
  -6  -8  -6    0.20    0.30
   6   8   6    0.40    0.30
   7   8   6    2.80    0.50
   8   8   6    0.40    0.40
  -5   9   6    5.70    1.00
  -4   9   6    9.60    1.10
   3  -9  -6   -0.60    0.30
  -3   9   6    0.70    0.50
   2  -9  -6    6.50    0.70
  -2   9   6    6.50    0.80
   1  -9  -6    1.40    0.40
  -1   9   6    1.50    0.50
   0  -9  -6   -0.60    0.30
   0   9   6    0.30    0.30
   0   9   6    0.20    0.30
  -1  -9  -6   -0.40    0.30
   1   9   6    0.10    0.30
  -2  -9  -6    0.00    0.30
   2   9   6   -0.20    0.30
  -3  -9  -6    2.60    0.50
   3   9   6    2.40    0.40
  -4  -9  -6    4.30    0.60
   4   9   6    3.40    0.50
  -5  -9  -6    1.10    0.40
   5   9   6    1.70    0.40
   6   9   6    0.00    0.30
   7   9   6    1.70    0.50
   8   9   6    0.30    0.40
  -4  10   6    0.50    0.60
  -3  10   6    0.20    0.50
  -2  10   6    0.30    0.40
   1 -10  -6   -0.40    0.30
  -1  10   6    0.10    0.40
   0 -10  -6    0.80    0.40
  -1 -10  -6    3.00    0.50
   1  10   6    3.00    0.50
  -2 -10  -6    8.10    0.80
   2  10   6    7.20    0.70
  -3 -10  -6    0.30    0.30
   3  10   6    0.60    0.30
  -4 -10  -6    0.10    0.40
   4  10   6    0.20    0.30
  -5 -10  -6    0.20    0.40
   5  10   6    0.80    0.40
   6  10   6    1.20    0.40
  -3  11   6    0.20    0.50
   0 -11  -6    1.60    0.50
  -1 -11  -6    0.60    0.40
   1  11   6    0.10    0.30
  -2 -11  -6    1.10    0.40
   2  11   6    0.20    0.30
  -3 -11  -6    0.20    0.40
   3  11   6   -0.10    0.30
  -4 -11  -6   -0.30    0.40
   4  11   6    0.40    0.40
   5  11   6    0.60    0.40
   1  12   6   -0.40    0.40
  -2 -12  -6    0.50    0.50
   2  12   6    0.30    0.40
  -3 -12  -6    0.80    0.50
   3  12   6    1.20    0.50
   3   9  -7    0.10    0.50
   2   9  -7    2.80    0.70
   1   9  -7    0.60    0.50
   0   9  -7    0.30    0.50
  -1   9  -7    0.30    0.50
  -2   9  -7   -0.10    0.50
  -3   9  -7   -0.40    0.40
   4   8  -7    1.40    0.60
   3   8  -7    1.40    0.50
   2   8  -7   -0.20    0.40
   1   8  -7   -0.30    0.40
   0   8  -7    0.30    0.40
  -1   8  -7   -0.30    0.40
  -2   8  -7   -0.50    0.40
  -3   8  -7   -0.40    0.40
  -4   8  -7    0.30    0.50
   4  -8   7    1.20    0.50
  -5   8  -7    0.20    0.50
   5  -8   7    0.20    0.50
   6   7  -7    0.00    0.40
   5   7  -7   -0.10    0.30
   4   7  -7    0.50    0.40
   3   7  -7    1.20    0.50
   2   7  -7    0.50    0.40
   1   7  -7   -0.30    0.30
   0   7  -7    0.20    0.40
  -1   7  -7    0.10    0.40
  -2   7  -7   -0.20    0.40
  -3   7  -7    1.40    0.50
   3  -7   7    2.80    0.60
  -4   7  -7    0.10    0.40
   4  -7   7    1.50    0.50
  -5   7  -7   -0.20    0.40
   5  -7   7    0.20    0.50
  -6   7  -7    3.00    0.70
   6  -7   7    3.00    0.70
  -7   7  -7   -0.30    0.50
   6   6  -7    0.20    0.40
   5   6  -7    0.00    0.30
   4   6  -7    0.20    0.30
   4   6  -7   -0.10    0.30
   3   6  -7    1.20    0.40
   2   6  -7    0.80    0.40
   1   6  -7   -0.20    0.30
   0   6  -7   -0.10    0.30
  -1   6  -7    4.00    0.60
  -2   6  -7    5.60    0.80
   2  -6   7    6.20    0.70
  -3   6  -7   -0.10    0.30
   3  -6   7   -0.30    0.30
  -4   6  -7    9.70    1.00
   4  -6   7    8.20    0.90
  -5   6  -7    0.10    0.40
   5  -6   7    0.00    0.40
  -6   6  -7    2.30    0.60
   6  -6   7    2.40    0.60
  -7   6  -7    0.80    0.50
   7  -6   7    2.50    0.70
   7   5  -7    0.20    0.40
   6   5  -7    0.20    0.40
   5   5  -7    0.20    0.30
   4   5  -7    0.20    0.30
   3   5  -7    2.10    0.40
   3   5  -7    2.00    0.40
   2   5  -7   -0.10    0.30
   2   5  -7   -0.20    0.20
   1   5  -7   -0.10    0.30
   0   5  -7   17.30    1.20
   0  -5   7   16.60    1.10
  -1   5  -7    0.70    0.40
   1  -5   7    0.20    0.30
  -2   5  -7   18.50    1.30
   2  -5   7   18.60    1.20
  -3   5  -7    0.50    0.40
   3  -5   7    0.80    0.40
  -4   5  -7    6.50    0.80
   4  -5   7    7.40    0.90
  -5   5  -7   12.50    1.10
   5  -5   7   13.20    1.20
  -6   5  -7    0.70    0.50
   6  -5   7    1.00    0.50
  -7   5  -7    0.40    0.50
   7  -5   7    1.60    0.60
   8  -5   7    1.00    0.60
   7   4  -7    0.10    0.40
   6   4  -7   -0.10    0.30
   5   4  -7    0.20    0.30
   4   4  -7    0.60    0.30
   3   4  -7    2.60    0.50
   3   4  -7    2.30    0.40
   2   4  -7   28.10    1.60
   2   4  -7   29.70    1.40
   1   4  -7    4.70    0.50
   1   4  -7    5.50    0.60
  -1  -4   7    4.80    0.50
   0   4  -7   43.30    2.20
   0  -4   7   42.50    2.10
  -1   4  -7   11.40    0.90
   1  -4   7   10.70    0.90
  -2   4  -7   12.60    1.00
   2  -4   7   14.00    1.00
  -3   4  -7   21.60    1.40
   3  -4   7   22.40    1.40
  -4   4  -7    4.00    0.70
   4  -4   7    3.90    0.60
  -5   4  -7   18.00    1.30
   5  -4   7   20.40    1.40
  -6   4  -7    1.10    0.50
   6  -4   7    1.70    0.60
  -7   4  -7   12.80    1.20
   7  -4   7   10.80    1.20
  -8   4  -7    0.90    0.50
   8  -4   7    1.30    0.60
   7   3  -7    0.50    0.40
   6   3  -7    1.20    0.40
   5   3  -7    0.90    0.40
   4   3  -7   41.10    2.00
   3   3  -7    6.70    0.70
   3   3  -7    6.20    0.60
   2   3  -7   45.20    2.10
   2   3  -7   49.70    2.30
  -2  -3   7   49.20    2.20
   1   3  -7   23.20    1.30
   1   3  -7   22.10    1.10
  -1  -3   7   22.40    1.20
   0   3  -7    6.90    0.70
   0   3  -7    6.60    0.50
   0  -3   7    5.30    0.60
  -1   3  -7    0.00    0.20
   1  -3   7    0.40    0.20
  -2   3  -7    1.80    0.40
   2  -3   7    2.70    0.40
  -3   3  -7   84.19    3.80
   3  -3   7   81.99    3.80
  -4   3  -7   15.20    1.10
   4  -3   7   15.80    1.20
  -5   3  -7   22.10    1.50
   5  -3   7   26.10    1.60
  -6   3  -7    1.50    0.50
   6  -3   7    1.10    0.50
  -7   3  -7    8.30    0.90
   7  -3   7    5.50    0.80
  -8   3  -7    0.20    0.40
   8  -3   7    0.30    0.50
   9  -3   7    0.40    0.60
   8   2  -7    1.60    0.50
   7   2  -7    0.10    0.40
   6   2  -7   24.70    1.40
   5   2  -7    0.80    0.30
   4   2  -7   10.90    0.80
   3   2  -7    6.60    0.60
   3   2  -7    8.40    0.70
  -3  -2   7    6.90    0.70
   2   2  -7    0.20    0.20
   2   2  -7    0.40    0.20
  -2  -2   7   -0.10    0.20
   1   2  -7   17.30    1.00
   1   2  -7   16.50    0.90
  -1  -2   7   17.40    1.00
   0   2  -7    7.60    0.50
   0   2  -7    6.40    0.70
   0  -2   7    7.60    0.60
  -1   2  -7   67.99    3.10
  -1   2  -7   70.29    2.70
   1  -2   7   66.29    3.10
  -2   2  -7   65.99    3.10
   2  -2   7   67.69    3.10
  -3   2  -7   20.20    1.20
   3  -2   7   20.60    1.30
  -4   2  -7    5.40    0.70
   4  -2   7    6.30    0.70
  -5   2  -7    7.60    0.80
   5  -2   7    7.80    0.80
  -6   2  -7    2.40    0.50
   6  -2   7    1.70    0.50
  -7   2  -7    0.30    0.40
   7  -2   7    0.70    0.40
  -8   2  -7    1.50    0.50
   8  -2   7    1.30    0.50
   9  -2   7   -0.20    0.50
   8   1  -7    5.10    0.70
   7   1  -7   -0.20    0.30
   6   1  -7    0.30    0.30
   5   1  -7    1.40    0.40
   4   1  -7    0.20    0.20
  -4  -1   7    0.40    0.30
   3   1  -7    6.20    0.60
   2   1  -7   46.70    2.10
   2   1  -7   44.90    2.00
  -2  -1   7   45.10    2.10
   1   1  -7   17.80    0.90
   1   1  -7   16.20    1.00
  -1  -1   7   17.40    1.00
   0   1  -7   29.70    1.30
   0   1  -7   29.90    1.50
   0  -1   7   29.20    1.50
  -1   1  -7   16.70    1.00
  -1   1  -7   16.90    0.80
   1  -1   7   16.50    1.00
  -2   1  -7  130.09    5.00
  -2   1  -7  125.29    5.40
   2  -1   7  125.49    5.50
  -3   1  -7    4.00    0.30
   3  -1   7    4.50    0.50
  -4   1  -7    2.00    0.40
   4  -1   7    1.70    0.40
  -5   1  -7    1.50    0.40
   5  -1   7    2.00    0.50
  -6   1  -7    4.80    0.70
   6  -1   7    4.70    0.60
  -7   1  -7    0.20    0.40
   7  -1   7    0.00    0.40
  -8   1  -7    0.20    0.40
   8  -1   7   -0.10    0.40
   9  -1   7    0.50    0.50
  10  -1   7    0.10    0.50
   8   0  -7    0.30    0.40
   7   0  -7    0.90    0.40
   6   0  -7    0.80    0.30
  -6   0   7    0.80    0.40
   5   0  -7    1.10    0.30
  -5   0   7    0.80    0.40
   4   0  -7   29.10    1.50
  -4   0   7   29.80    1.60
   3   0  -7   12.50    0.80
  -3   0   7    9.40    0.90
   2   0  -7    5.90    0.50
   2   0  -7    6.40    0.50
  -2   0   7    4.40    0.50
   1   0  -7    7.50    0.50
   1   0  -7    7.50    0.60
  -1   0   7    7.50    0.70
   0   0  -7  167.88    6.50
   0   0  -7  163.38    6.90
   0   0   7  165.18    7.00
  -1   0  -7    2.60    0.40
  -1   0  -7    2.30    0.20
   1   0   7    2.60    0.40
  -2   0  -7    6.30    0.70
  -2   0  -7    7.70    0.50
   2   0   7    6.70    0.60
  -3   0  -7    0.10    0.20
  -3   0  -7    0.40    0.10
   3   0   7    0.00    0.10
  -4   0  -7   13.80    0.70
  -4   0  -7   14.60    1.00
   4   0   7   13.60    0.90
  -5   0  -7    0.40    0.30
   5   0   7    0.40    0.30
  -6   0  -7    4.60    0.60
   6   0   7    5.90    0.70
  -7   0  -7    1.50    0.40
   7   0   7    2.00    0.50
   8   0   7   -0.10    0.40
   9   0   7    0.20    0.40
  10   0   7    0.20    0.50
   8  -1  -7    1.10    0.40
   7  -1  -7    1.40    0.40
  -7   1   7    1.40    0.60
   6  -1  -7    5.90    0.60
  -6   1   7    7.70    0.90
   5  -1  -7   11.30    0.80
  -5   1   7    8.90    1.00
   4  -1  -7    7.10    0.60
  -4   1   7    6.60    0.70
   3  -1  -7    1.80    0.30
  -3   1   7    1.80    0.40
   2  -1  -7   23.90    1.10
   2  -1  -7   22.30    1.10
  -2   1   7   23.60    1.30
   1  -1  -7    3.10    0.40
   1  -1  -7    3.30    0.30
  -1   1   7    3.70    0.50
   0  -1  -7   10.50    0.70
   0  -1  -7   11.10    0.60
   0   1   7   11.10    0.80
  -1  -1  -7    3.40    0.30
  -1  -1  -7    3.10    0.40
   1   1   7    3.10    0.40
  -2  -1  -7   38.30    1.60
  -2  -1  -7   38.80    1.90
  -3  -1  -7   -0.20    0.20
  -3  -1  -7    0.00    0.10
   3   1   7    0.20    0.20
  -4  -1  -7   41.80    1.70
  -4  -1  -7   31.90    1.90
   4   1   7   40.60    1.90
  -5  -1  -7    6.70    0.70
  -5  -1  -7    5.40    0.50
   5   1   7    5.20    0.60
  -6  -1  -7    3.90    0.60
   6   1   7    3.60    0.60
   7   1   7   -0.10    0.30
   8   1   7    1.00    0.50
   9   1   7   -0.30    0.40
  10   1   7   -0.20    0.40
   8  -2  -7    0.90    0.40
   7  -2  -7    1.90    0.40
  -7   2   7    1.50    0.60
   6  -2  -7    0.30    0.30
  -6   2   7   -0.70    0.40
   5  -2  -7    0.10    0.30
  -5   2   7   -0.20    0.40
   4  -2  -7    0.30    0.20
  -4   2   7   -0.20    0.40
   3  -2  -7    0.00    0.20
  -3   2   7   -0.20    0.30
   2  -2  -7    1.00    0.20
  -2   2   7    1.20    0.30
   1  -2  -7    5.50    0.50
   1  -2  -7    5.00    0.50
  -1   2   7    5.90    0.60
   0  -2  -7   97.79    3.90
   0  -2  -7   99.39    4.20
  -1  -2  -7   23.00    1.00
  -1  -2  -7   21.50    1.20
  -2  -2  -7   54.59    2.20
  -2  -2  -7   52.49    2.40
   2   2   7   52.89    2.50
  -3  -2  -7    3.20    0.40
  -3  -2  -7    3.20    0.30
   3   2   7    3.60    0.50
  -4  -2  -7   34.40    1.40
  -4  -2  -7   26.90    1.60
   4   2   7   33.40    1.60
  -5  -2  -7    0.10    0.20
   5   2   7   -0.10    0.20
  -6  -2  -7   -0.20    0.20
   6   2   7    0.00    0.30
   7   2   7   -0.10    0.30
   8   2   7   -0.10    0.40
   9   2   7    0.80    0.50
   8  -3  -7    0.00    0.30
  -8   3   7   -0.30    0.50
   7  -3  -7   -0.10    0.30
  -7   3   7   -0.10    0.50
   6  -3  -7    0.60    0.30
  -6   3   7    0.20    0.50
   5  -3  -7    1.50    0.40
  -5   3   7    2.20    0.50
   4  -3  -7    0.50    0.30
  -4   3   7    0.50    0.40
   3  -3  -7    0.30    0.20
  -3   3   7    0.00    0.30
   2  -3  -7   71.09    3.00
  -2   3   7   73.59    3.30
  -1  -3  -7   10.20    0.60
   1   3   7   11.70    0.80
  -2  -3  -7   36.60    1.60
   2   3   7   34.30    1.70
  -3  -3  -7    0.00    0.10
   3   3   7    0.20    0.20
  -4  -3  -7    0.80    0.20
   4   3   7    0.60    0.30
  -5  -3  -7    0.10    0.20
   5   3   7   -0.20    0.20
  -6  -3  -7    1.90    0.40
   6   3   7    1.60    0.40
   7   3   7    3.80    0.60
   8   3   7    0.80    0.40
  10   3   7    1.00    0.60
   8  -4  -7   -0.10    0.30
  -8   4   7   -0.50    0.50
   7  -4  -7    0.20    0.30
  -7   4   7    0.30    0.50
   6  -4  -7    1.30    0.40
  -6   4   7    1.70    0.60
   5  -4  -7    1.90    0.40
  -5   4   7    1.60    0.50
   4  -4  -7   15.80    0.90
  -4   4   7   17.50    1.20
   3  -4  -7    0.90    0.30
  -3   4   7    0.40    0.40
   2  -4  -7    1.50    0.30
  -2   4   7    1.20    0.30
   1  -4  -7   11.70    0.70
  -1   4   7   13.90    0.90
  -1   4   7   15.10    0.80
   0   4   7   19.60    1.10
  -1  -4  -7    1.40    0.20
   1   4   7    1.30    0.30
  -2  -4  -7    7.00    0.50
   2   4   7    7.80    0.60
  -3  -4  -7    3.60    0.40
   3   4   7    3.10    0.40
  -4  -4  -7   21.30    1.10
   4   4   7   22.50    1.20
  -5  -4  -7   56.19    2.50
   5   4   7   56.49    2.60
  -6  -4  -7    1.40    0.40
   6   4   7    1.50    0.40
   7   4   7   76.09    3.50
   8   4   7    1.90    0.50
   9   4   7    3.70    0.70
  10   4   7    1.70    0.60
   8  -5  -7    0.20    0.40
   7  -5  -7   -0.10    0.30
  -7   5   7    0.10    0.50
   6  -5  -7    0.30    0.30
  -6   5   7    1.10    0.60
   5  -5  -7    0.80    0.30
  -5   5   7    0.70    0.50
   4  -5  -7    3.00    0.40
  -4   5   7    4.10    0.70
   3  -5  -7    0.00    0.20
  -3   5   7   -0.40    0.30
   2  -5  -7   15.10    0.90
  -2   5   7   14.50    1.00
   1  -5  -7    1.20    0.30
  -1   5   7    1.70    0.40
   0  -5  -7   15.00    0.80
   0   5   7   13.60    0.90
   0   5   7   15.70    1.00
  -1  -5  -7    1.20    0.30
   1   5   7    1.60    0.30
   1   5   7    1.60    0.30
  -2  -5  -7   19.50    1.00
   2   5   7   19.70    1.10
   2   5   7   18.80    1.10
  -3  -5  -7  323.27   12.50
   3   5   7  317.67   13.20
   3   5   7  322.67   13.30
  -4  -5  -7    1.10    0.30
   4   5   7    0.60    0.30
   4   5   7   -0.20    0.30
  -5  -5  -7  129.39    5.50
   5   5   7  141.39    5.90
   5   5   7  137.89    5.90
  -6  -5  -7    1.20    0.40
   6   5   7    0.80    0.40
   6   5   7    1.00    0.40
   7   5   7    3.60    0.60
   8   5   7    0.10    0.40
   9   5   7    1.60    0.60
  10   5   7    0.10    0.50
   7  -6  -7    0.20    0.30
  -7   6   7    0.70    0.60
   6  -6  -7    2.00    0.40
  -6   6   7    2.20    0.70
   5  -6  -7    1.10    0.30
  -5   6   7    1.90    0.60
   4  -6  -7    4.20    0.50
  -4   6   7    5.30    0.70
   3  -6  -7    1.10    0.30
  -3   6   7    1.00    0.40
   2  -6  -7    1.10    0.30
  -2   6   7    0.90    0.40
   1  -6  -7   40.40    1.80
  -1   6   7   38.00    2.00
   0  -6  -7    2.50    0.40
   0   6   7    2.90    0.40
   0   6   7    3.70    0.50
  -1  -6  -7  396.86   15.30
   1   6   7  396.96   16.10
   1   6   7  393.96   16.40
  -2  -6  -7   19.20    1.10
   2   6   7   20.00    1.20
   2   6   7   16.70    1.10
  -3  -6  -7   66.49    2.90
   3   6   7   68.29    3.10
   3   6   7   67.99    3.10
  -4  -6  -7   20.80    1.20
   4   6   7   20.90    1.30
   4   6   7   18.80    1.20
  -5  -6  -7    0.70    0.30
   5   6   7    0.80    0.30
   5   6   7    1.00    0.40
  -6  -6  -7    0.10    0.30
   6   6   7    0.00    0.30
   7   6   7    0.00    0.40
   8   6   7    1.90    0.50
   9   6   7    6.60    0.90
  -6   7   7    0.50    0.50
   5  -7  -7    1.00    0.40
  -5   7   7    2.10    0.60
   4  -7  -7    0.50    0.30
  -4   7   7    0.50    0.50
   3  -7  -7   42.70    1.90
  -3   7   7   39.90    2.20
   2  -7  -7    0.50    0.30
  -2   7   7    0.50    0.40
   1  -7  -7  151.88    6.00
  -1   7   7  144.49    6.50
   0  -7  -7   31.50    1.60
   0   7   7   33.50    1.60
   0   7   7   31.50    1.70
  -1  -7  -7   14.30    0.90
   1   7   7   16.30    1.00
   1   7   7   13.30    1.00
  -2  -7  -7    9.50    0.80
   2   7   7   10.10    0.80
   2   7   7   10.80    0.80
  -3  -7  -7   -0.10    0.20
   3   7   7    0.20    0.30
   3   7   7   -0.20    0.30
  -4  -7  -7    0.40    0.30
   4   7   7    0.60    0.30
  -5  -7  -7   14.90    1.00
   5   7   7   14.20    1.00
  -6  -7  -7    4.20    0.60
   6   7   7    3.30    0.50
   7   7   7   10.50    1.00
   8   7   7    0.50    0.40
   9   7   7    1.00    0.50
  -5   8   7   16.90    1.40
   4  -8  -7    0.70    0.40
  -4   8   7    0.80    0.60
   3  -8  -7   31.90    1.60
  -3   8   7   31.30    1.90
   2  -8  -7   10.40    0.90
  -2   8   7   10.20    1.00
   1  -8  -7    4.30    0.50
  -1   8   7    5.30    0.70
   0  -8  -7   -0.10    0.30
   0   8   7    0.40    0.30
   0   8   7    0.60    0.40
  -1  -8  -7    2.90    0.40
   1   8   7    2.80    0.40
   1   8   7    3.00    0.50
  -2  -8  -7   -0.30    0.20
   2   8   7    0.10    0.20
   2   8   7    0.00    0.30
  -3  -8  -7   24.20    1.30
   3   8   7   23.60    1.30
  -4  -8  -7    3.70    0.50
   4   8   7    3.40    0.50
  -5  -8  -7    5.50    0.70
   5   8   7    5.10    0.60
  -6  -8  -7   -0.10    0.30
   6   8   7   -0.10    0.30
   7   8   7    2.20    0.50
   8   8   7    0.90    0.50
  -5   9   7    7.10    1.00
  -4   9   7    1.00    0.60
   3  -9  -7    1.50    0.40
  -3   9   7    1.00    0.50
   2  -9  -7    0.80    0.40
  -2   9   7    1.70    0.60
   1  -9  -7    3.10    0.50
  -1   9   7    4.30    0.70
   0  -9  -7    0.50    0.30
   0   9   7    1.50    0.50
  -1  -9  -7    9.80    0.80
   1   9   7   10.00    0.90
   1   9   7    9.60    0.80
  -2  -9  -7    0.00    0.30
   2   9   7    0.40    0.30
  -3  -9  -7    3.30    0.50
   3   9   7    2.90    0.50
  -4  -9  -7   -0.30    0.30
   4   9   7   -0.10    0.30
  -5  -9  -7    1.00    0.40
   5   9   7    1.00    0.40
  -6  -9  -7    4.10    0.70
   6   9   7    2.40    0.50
   7   9   7    0.60    0.40
  -4  10   7    0.40    0.60
  -3  10   7    0.60    0.50
   2 -10  -7    0.50    0.40
  -2  10   7    0.80    0.50
   1 -10  -7    2.30    0.50
  -1  10   7    3.60    0.70
   0 -10  -7    0.70    0.40
  -1 -10  -7    2.50    0.50
   1  10   7    1.70    0.40
  -2 -10  -7    2.90    0.50
   2  10   7    2.50    0.50
  -3 -10  -7   -0.10    0.30
   3  10   7    0.10    0.30
  -4 -10  -7    1.90    0.50
   4  10   7    2.10    0.50
  -5 -10  -7    2.00    0.60
   5  10   7    1.00    0.40
   6  10   7   -0.10    0.30
  -3  11   7    0.80    0.60
  -2  11   7   -0.20    0.50
   0 -11  -7    4.00    0.60
  -1 -11  -7    0.00    0.40
  -2 -11  -7    0.20    0.40
   2  11   7    0.30    0.40
  -3 -11  -7    0.10    0.40
   3  11   7    0.20    0.30
  -4 -11  -7    2.50    0.60
   4  11   7    1.90    0.50
  -5 -11  -7   -0.20    0.40
   5  11   7    0.00    0.40
  -1 -12  -7   -0.10    0.40
  -2 -12  -7    2.30    0.60
   2  12   7    1.70    0.50
  -3 -12  -7    0.10    0.50
   3  12   7   -0.30    0.40
   3   8  -8    1.80    0.60
   2   8  -8    1.30    0.60
   1   8  -8    6.20    0.90
   0   8  -8    0.70    0.50
  -1   8  -8    0.00    0.40
  -2   8  -8    0.20    0.40
  -3   8  -8   -0.10    0.40
  -4   8  -8    0.00    0.50
   5  -8   8    0.70    0.60
   3   7  -8    3.00    0.60
   2   7  -8    1.80    0.50
   1   7  -8    1.40    0.50
   0   7  -8    0.80    0.50
  -1   7  -8   -0.20    0.40
  -2   7  -8    0.20    0.40
  -3   7  -8    0.00    0.40
  -4   7  -8    0.00    0.40
   4  -7   8    0.00    0.50
  -5   7  -8    0.90    0.60
   5  -7   8    1.60    0.60
   6  -7   8    0.40    0.60
   6   6  -8    0.10    0.40
   5   6  -8   -0.10    0.40
   3   6  -8    0.70    0.50
   2   6  -8   -0.60    0.30
   1   6  -8    1.10    0.50
   0   6  -8    0.40    0.40
  -1   6  -8    3.00    0.60
  -2   6  -8    1.80    0.50
   2  -6   8    1.20    0.40
  -3   6  -8    1.40    0.50
   3  -6   8    1.80    0.50
  -4   6  -8    0.40    0.40
   4  -6   8    0.60    0.40
  -5   6  -8    0.00    0.40
   5  -6   8    0.00    0.40
  -6   6  -8    1.00    0.60
   6  -6   8    1.30    0.60
  -7   6  -8    0.00    0.50
   6   5  -8    0.50    0.40
   5   5  -8    0.30    0.30
   4   5  -8    0.00    0.30
   3   5  -8    0.20    0.30
   3   5  -8    0.20    0.30
   2   5  -8    0.80    0.40
   1   5  -8    6.30    0.80
   0   5  -8    1.10    0.40
  -1   5  -8   -0.30    0.30
   1  -5   8    0.20    0.30
  -2   5  -8    0.60    0.40
   2  -5   8    0.80    0.40
  -3   5  -8    1.90    0.50
   3  -5   8    2.10    0.50
  -4   5  -8    3.50    0.60
   4  -5   8    3.90    0.70
  -5   5  -8    0.00    0.40
   5  -5   8    0.80    0.50
  -6   5  -8    0.00    0.40
   6  -5   8    0.30    0.50
  -7   5  -8    1.00    0.60
   7  -5   8    0.70    0.60
  -8   5  -8    2.60    0.70
   6   4  -8    0.10    0.30
   5   4  -8    1.20    0.40
   4   4  -8    0.50    0.30
   3   4  -8    1.20    0.30
   3   4  -8    1.80    0.50
   2   4  -8    0.60    0.40
   2   4  -8    1.40    0.30
   1   4  -8   -0.20    0.30
   0   4  -8    6.30    0.70
   0  -4   8    5.40    0.60
  -1   4  -8    3.70    0.60
   1  -4   8    3.50    0.50
  -2   4  -8    5.30    0.70
   2  -4   8    5.00    0.60
  -3   4  -8   10.00    0.90
   3  -4   8    8.20    0.90
  -4   4  -8   -0.20    0.30
   4  -4   8    0.00    0.40
  -5   4  -8    0.60    0.50
   5  -4   8    1.10    0.50
  -6   4  -8    6.70    0.90
   6  -4   8    7.30    1.00
  -7   4  -8    1.00    0.50
   7  -4   8    1.30    0.60
  -8   4  -8   13.00    1.30
   8  -4   8   12.60    1.30
   7   3  -8    1.00    0.50
   6   3  -8    0.40    0.40
   5   3  -8    0.10    0.30
   4   3  -8   -0.10    0.30
   3   3  -8    1.60    0.30
   2   3  -8   16.40    1.00
   2   3  -8   16.80    1.10
  -2  -3   8   16.30    1.00
   1   3  -8    0.10    0.30
   1   3  -8   -0.10    0.20
  -1  -3   8    0.30    0.30
   0   3  -8    4.60    0.60
   0   3  -8    4.50    0.50
   0  -3   8    4.60    0.50
  -1   3  -8   29.10    1.60
   1  -3   8   28.70    1.60
  -2   3  -8    0.50    0.40
   2  -3   8    1.00    0.40
  -3   3  -8    3.80    0.60
   3  -3   8    5.50    0.70
  -4   3  -8   21.80    1.50
   4  -3   8   24.00    1.50
  -5   3  -8    5.80    0.80
   5  -3   8    6.80    0.80
  -6   3  -8   48.90    2.70
   6  -3   8   52.29    2.70
  -7   3  -8    1.10    0.50
   7  -3   8    1.10    0.60
  -8   3  -8    7.80    1.00
   7   2  -8    0.40    0.40
   6   2  -8    2.90    0.50
   5   2  -8    2.40    0.50
   4   2  -8   11.60    0.90
   3   2  -8    0.90    0.30
  -3  -2   8    1.10    0.40
   2   2  -8    1.30    0.40
   2   2  -8    1.40    0.30
  -2  -2   8    1.20    0.30
   1   2  -8    3.40    0.40
   1   2  -8    3.50    0.50
  -1  -2   8    3.40    0.50
   0   2  -8    3.30    0.50
   0   2  -8    3.20    0.30
   0  -2   8    3.00    0.40
  -1   2  -8   61.49    2.50
  -1   2  -8   59.49    2.80
   1  -2   8   59.89    2.80
  -2   2  -8  145.99    6.20
   2  -2   8  138.99    6.20
  -3   2  -8   21.50    1.40
   3  -2   8   22.00    1.40
  -4   2  -8  189.88    8.20
   4  -2   8  191.58    8.20
  -5   2  -8    3.00    0.60
   5  -2   8    2.90    0.60
  -6   2  -8   25.90    1.70
   6  -2   8   25.30    1.60
  -7   2  -8    0.30    0.40
   7  -2   8    1.20    0.50
  -8   2  -8    7.50    1.00
   8  -2   8    7.50    1.00
  -9   2  -8   -0.20    0.50
   9  -2   8    0.30    0.50
   7   1  -8    1.40    0.50
   6   1  -8    2.00    0.50
   5   1  -8   -0.20    0.30
   4   1  -8    0.20    0.30
  -4  -1   8    0.20    0.30
   3   1  -8    1.20    0.30
  -3  -1   8    1.10    0.40
   2   1  -8    5.90    0.60
   2   1  -8    6.10    0.70
  -2  -1   8    6.50    0.70
   1   1  -8   62.89    2.60
   1   1  -8   59.19    2.80
  -1  -1   8   60.59    2.80
   0   1  -8  454.95   18.80
   0   1  -8  467.15   17.70
   0  -1   8  462.15   19.10
  -1   1  -8   11.60    0.70
  -1   1  -8   12.10    1.00
   1  -1   8   12.00    1.00
  -2   1  -8  299.07   12.50
  -2   1  -8  298.47   11.60
   2  -1   8  305.57   12.60
  -3   1  -8    0.00    0.40
   3  -1   8    0.30    0.30
  -4   1  -8   46.50    2.40
   4  -1   8   49.70    2.40
  -5   1  -8    0.70    0.40
   5  -1   8    0.20    0.30
  -6   1  -8   20.50    1.40
   6  -1   8   21.20    1.40
  -7   1  -8    0.50    0.40
   7  -1   8    0.50    0.40
  -8   1  -8   -0.10    0.40
   8  -1   8    0.00    0.40
   9  -1   8   -0.20    0.40
   7   0  -8    0.30    0.40
   6   0  -8    0.50    0.30
   5   0  -8    0.30    0.30
  -5   0   8    0.40    0.40
   4   0  -8   36.80    1.80
  -4   0   8   38.60    2.00
   3   0  -8   10.70    0.80
  -3   0   8   12.80    1.00
   2   0  -8  377.66   15.30
   2   0  -8  373.06   14.50
  -2   0   8  374.26   15.60
   1   0  -8    2.20    0.40
   1   0  -8    1.90    0.30
  -1   0   8    1.30    0.50
   0   0  -8  141.59    6.10
   0   0  -8  146.29    5.70
   0   0   8  145.49    6.20
  -1   0  -8   12.70    0.70
  -1   0  -8   11.70    0.90
   1   0   8   11.90    0.90
  -2   0  -8   78.99    3.20
  -2   0  -8   77.99    3.60
   2   0   8   81.59    3.60
  -3   0  -8    2.10    0.50
  -3   0  -8    1.50    0.30
   3   0   8    1.80    0.40
  -4   0  -8   17.60    1.20
   4   0   8   18.10    1.20
  -5   0  -8    0.20    0.30
   5   0   8    0.70    0.30
  -6   0  -8    2.70    0.60
   6   0   8    4.70    0.70
  -7   0  -8    0.10    0.40
   7   0   8    0.30    0.40
  -8   0  -8    0.70    0.50
   8   0   8    1.40    0.50
   9   0   8    0.10    0.40
  10   0   8    0.10    0.50
   7  -1  -8    0.20    0.40
   6  -1  -8   25.40    1.40
  -6   1   8   24.20    1.60
   5  -1  -8    1.00    0.40
  -5   1   8    0.30    0.50
   4  -1  -8   94.99    4.00
  -4   1   8   97.89    4.40
   3  -1  -8   11.50    0.80
  -3   1   8   10.40    0.90
   2  -1  -8   36.60    1.70
  -2   1   8   36.10    1.90
   1  -1  -8    0.90    0.30
   1  -1  -8    1.20    0.30
  -1   1   8    0.50    0.30
   0  -1  -8   84.19    3.70
   0  -1  -8   81.69    3.40
   0   1   8   86.49    3.80
  -1  -1  -8   -0.10    0.10
  -1  -1  -8   -0.10    0.20
   1   1   8    0.10    0.20
  -2  -1  -8    0.90    0.20
  -2  -1  -8    0.70    0.30
   2   1   8    0.80    0.20
  -3  -1  -8    0.60    0.30
  -3  -1  -8    0.20    0.20
   3   1   8    0.70    0.30
  -4  -1  -8    9.50    0.60
  -4  -1  -8    9.10    0.80
   4   1   8    9.40    0.80
  -5  -1  -8    8.30    0.60
  -5  -1  -8    8.20    0.80
   5   1   8    8.80    0.80
  -6  -1  -8    1.70    0.50
   6   1   8    2.50    0.50
   7   1   8    1.80    0.50
   8   1   8    0.30    0.40
   9   1   8    0.20    0.40
  10   1   8    0.40    0.50
   7  -2  -8    0.20    0.40
  -7   2   8    0.60    0.60
   6  -2  -8   18.80    1.20
  -6   2   8   18.20    1.40
   5  -2  -8    2.10    0.40
  -5   2   8    3.20    0.60
   4  -2  -8   16.70    1.00
  -4   2   8   15.50    1.20
   3  -2  -8    2.90    0.40
  -3   2   8    2.80    0.50
   2  -2  -8   31.80    1.50
  -2   2   8   29.70    1.70
   1  -2  -8   -0.10    0.20
   1  -2  -8   -0.10    0.20
  -1   2   8   -0.10    0.30
   0  -2  -8    1.20    0.20
   0  -2  -8    0.70    0.20
   0   2   8    1.20    0.30
  -1  -2  -8    0.80    0.20
  -1  -2  -8    0.30    0.20
   1   2   8    0.20    0.10
  -2  -2  -8    8.50    0.70
  -2  -2  -8    9.00    0.60
   2   2   8    6.60    0.60
  -3  -2  -8   37.70    1.70
  -3  -2  -8   37.10    1.90
   3   2   8   37.70    1.90
  -4  -2  -8   19.20    1.00
  -4  -2  -8   20.30    1.20
   4   2   8   19.70    1.20
  -5  -2  -8    0.60    0.20
   5   2   8    1.10    0.40
  -6  -2  -8    0.80    0.30
   6   2   8    1.50    0.40
   7   2   8    0.80    0.40
   8   2   8   -0.20    0.30
   9   2   8    0.50    0.40
  -8   3   8    2.80    0.80
   7  -3  -8    0.20    0.40
  -7   3   8    0.60    0.60
   6  -3  -8    5.00    0.60
  -6   3   8    7.00    0.90
   5  -3  -8    1.60    0.40
  -5   3   8    2.10    0.60
   4  -3  -8    3.40    0.50
  -4   3   8    4.20    0.70
   3  -3  -8   -0.30    0.20
  -3   3   8   -0.20    0.30
   2  -3  -8    0.40    0.20
  -2   3   8    0.10    0.30
   1  -3  -8   21.30    1.10
  -1   3   8   21.20    1.20
   0  -3  -8   13.40    0.80
   0   3   8   12.90    0.90
  -1  -3  -8   26.90    1.30
   1   3   8   26.80    1.40
  -2  -3  -8   42.10    1.80
   2   3   8   41.60    2.00
  -3  -3  -8    1.00    0.20
   3   3   8    1.30    0.30
  -4  -3  -8    2.30    0.30
   4   3   8    3.20    0.50
  -5  -3  -8    3.10    0.40
   5   3   8    2.60    0.50
  -6  -3  -8    3.40    0.50
   6   3   8    3.20    0.50
   7   3   8    0.30    0.30
   8   3   8   -0.10    0.30
   7  -4  -8   -0.30    0.30
  -7   4   8    0.00    0.50
   6  -4  -8   -0.60    0.30
  -6   4   8    0.00    0.50
   5  -4  -8    1.20    0.40
  -5   4   8    1.30    0.50
   4  -4  -8   -0.30    0.20
  -4   4   8   -0.40    0.40
   3  -4  -8   17.50    1.00
  -3   4   8   16.70    1.20
   2  -4  -8    6.70    0.50
  -2   4   8    6.50    0.70
   1  -4  -8    0.10    0.20
  -1   4   8   -0.10    0.30
   0  -4  -8   10.10    0.70
   0   4   8    9.80    0.80
  -1  -4  -8    5.90    0.50
   1   4   8    6.60    0.60
  -2  -4  -8   18.80    1.00
   2   4   8   20.10    1.10
  -3  -4  -8    1.70    0.30
   3   4   8    2.30    0.40
  -4  -4  -8    6.40    0.60
   4   4   8    7.30    0.70
  -5  -4  -8    3.70    0.50
   5   4   8    3.90    0.50
  -6  -4  -8    0.30    0.30
   6   4   8    0.50    0.30
  -7  -4  -8    4.50    0.60
   7   4   8    4.60    0.60
   9   4   8    0.90    0.50
  10   4   8    0.50    0.60
   7  -5  -8    1.60    0.40
  -7   5   8    1.80    0.70
   6  -5  -8    0.10    0.30
  -6   5   8    0.20    0.50
   5  -5  -8    1.50    0.40
  -5   5   8    2.00    0.60
   4  -5  -8    1.50    0.40
  -4   5   8    1.70    0.50
   3  -5  -8    1.80    0.30
  -3   5   8    1.00    0.50
   2  -5  -8    1.40    0.30
  -2   5   8    1.10    0.40
   1  -5  -8    6.50    0.60
  -1   5   8    5.80    0.60
   0  -5  -8    9.10    0.60
   0   5   8    8.70    0.70
   0   5   8   10.30    0.80
  -1  -5  -8    5.60    0.50
   1   5   8    3.60    0.50
  -2  -5  -8    3.00    0.40
   2   5   8    2.00    0.40
   2   5   8    2.30    0.40
  -3  -5  -8    1.70    0.30
   3   5   8    2.60    0.40
  -4  -5  -8   10.10    0.70
   4   5   8   10.20    0.80
  -5  -5  -8   15.80    1.00
   5   5   8   15.90    1.00
  -6  -5  -8    4.30    0.60
   6   5   8    3.40    0.60
  -7  -5  -8   -0.20    0.30
   7   5   8    0.20    0.40
   8   5   8    0.10    0.40
   9   5   8   -0.30    0.40
   7  -6  -8    0.20    0.30
   6  -6  -8    0.50    0.30
  -6   6   8    0.90    0.60
   5  -6  -8    0.20    0.30
  -5   6   8    0.50    0.50
   4  -6  -8    0.80    0.30
  -4   6   8    1.20    0.50
   3  -6  -8    1.00    0.30
  -3   6   8    1.00    0.50
   2  -6  -8    1.90    0.40
  -2   6   8    2.20    0.50
   1  -6  -8    3.50    0.40
  -1   6   8    3.90    0.60
   0  -6  -8    0.50    0.30
   0   6   8    0.60    0.30
   0   6   8    0.70    0.30
  -1  -6  -8   13.50    0.90
   1   6   8   13.80    1.00
   1   6   8   14.90    0.90
  -2  -6  -8   22.30    1.20
   2   6   8   22.70    1.30
   2   6   8   23.10    1.30
  -3  -6  -8   17.50    1.00
   3   6   8   18.10    1.10
   3   6   8   17.80    1.10
  -4  -6  -8    0.30    0.30
   4   6   8    0.50    0.30
   4   6   8   -0.10    0.30
  -5  -6  -8    1.50    0.40
   5   6   8    1.50    0.40
   5   6   8    1.70    0.40
  -6  -6  -8   -0.10    0.30
   6   6   8    0.40    0.30
  -7  -6  -8    0.60    0.40
   7   6   8    0.70    0.40
   8   6   8    1.80    0.50
   9   6   8    0.30    0.50
   6  -7  -8    0.40    0.40
  -6   7   8    1.00    0.60
   5  -7  -8    0.30    0.30
  -5   7   8    0.30    0.50
   4  -7  -8    1.30    0.40
  -4   7   8    0.80    0.50
   3  -7  -8    0.90    0.30
  -3   7   8    0.70    0.40
   2  -7  -8    2.80    0.40
  -2   7   8    2.90    0.60
   1  -7  -8   32.70    1.60
  -1   7   8   32.80    1.80
   0  -7  -8    2.60    0.40
   0   7   8    2.80    0.50
  -1  -7  -8    2.60    0.40
   1   7   8    2.90    0.40
   1   7   8    3.10    0.50
  -2  -7  -8    7.80    0.70
   2   7   8    8.30    0.70
   2   7   8    7.70    0.70
  -3  -7  -8    4.90    0.60
   3   7   8    3.40    0.50
   3   7   8    4.80    0.60
  -4  -7  -8    0.70    0.30
   4   7   8    0.20    0.30
   4   7   8    0.20    0.30
  -5  -7  -8    0.30    0.30
   5   7   8    0.00    0.30
  -6  -7  -8    5.20    0.70
   6   7   8    5.30    0.70
  -7  -7  -8    4.10    0.70
   7   7   8    3.50    0.60
   8   7   8    1.20    0.50
   5  -8  -8    2.00    0.50
  -5   8   8    2.70    0.70
   4  -8  -8    0.40    0.30
  -4   8   8    0.90    0.50
   3  -8  -8   10.70    0.80
  -3   8   8    9.40    1.00
   2  -8  -8    2.80    0.50
  -2   8   8    2.90    0.60
   1  -8  -8   -0.10    0.30
  -1   8   8    0.40    0.40
   0  -8  -8    5.80    0.60
   0   8   8    5.90    0.70
  -1  -8  -8    8.20    0.70
   1   8   8   10.00    0.80
   1   8   8    9.50    0.80
  -2  -8  -8    0.20    0.30
   2   8   8   -0.10    0.20
   2   8   8    0.70    0.30
  -3  -8  -8    3.20    0.50
   3   8   8    2.70    0.50
   3   8   8    3.10    0.50
  -4  -8  -8    8.90    0.80
   4   8   8    9.90    0.80
  -5  -8  -8    4.90    0.60
   5   8   8    4.10    0.60
  -6  -8  -8    0.50    0.40
   6   8   8    0.10    0.40
  -7  -8  -8    3.00    0.60
   7   8   8    2.70    0.60
   8   8   8    3.00    0.60
   4  -9  -8    2.60    0.50
  -4   9   8    1.80    0.70
   3  -9  -8    1.60    0.50
  -3   9   8    1.50    0.60
   2  -9  -8   -0.10    0.30
  -2   9   8   -0.20    0.40
   1  -9  -8    8.90    0.80
  -1   9   8    8.50    0.90
   0  -9  -8    0.00    0.30
   0   9   8    0.20    0.40
  -1  -9  -8    2.80    0.50
   1   9   8    2.90    0.50
   1   9   8    2.50    0.50
  -2  -9  -8    3.50    0.50
   2   9   8    3.40    0.50
  -3  -9  -8    2.10    0.50
   3   9   8    2.40    0.50
  -4  -9  -8    4.10    0.60
   4   9   8    3.00    0.50
  -5  -9  -8    3.70    0.60
   5   9   8    4.90    0.70
  -6  -9  -8    2.10    0.60
   6   9   8    1.00    0.50
   7   9   8    1.10    0.50
  -3  10   8    3.10    0.80
   2 -10  -8    0.20    0.40
  -2  10   8    0.10    0.50
   1 -10  -8    0.20    0.30
  -1  10   8    1.20    0.50
   0 -10  -8   -0.10    0.30
   0  10   8    0.30    0.40
  -2 -10  -8    3.90    0.60
   2  10   8    3.70    0.50
  -3 -10  -8    2.80    0.60
   3  10   8    2.40    0.50
  -4 -10  -8   -0.10    0.40
   4  10   8    0.40    0.40
  -5 -10  -8    1.10    0.50
   5  10   8    0.20    0.40
  -6 -10  -8    0.70    0.50
   6  10   8    0.50    0.40
  -2  11   8    0.20    0.50
   1 -11  -8    1.50    0.50
   0 -11  -8    0.90    0.40
  -1 -11  -8    0.70    0.40
  -2 -11  -8    1.00    0.50
   2  11   8    0.20    0.40
  -3 -11  -8    0.50    0.40
   3  11   8    1.10    0.40
  -4 -11  -8    0.60    0.50
   4  11   8    0.40    0.40
   2   8  -9    5.50    0.90
   1   8  -9    7.00    1.00
   0   8  -9    2.50    0.70
  -1   8  -9    4.30    0.80
   2   7  -9    0.50    0.50
   1   7  -9    4.60    0.80
   0   7  -9    1.40    0.50
  -1   7  -9    0.10    0.40
  -2   7  -9    0.30    0.40
  -3   7  -9    1.30    0.50
  -4   7  -9    0.60    0.50
   4  -7   9    1.10    0.60
   5  -7   9    0.40    0.50
   2   6  -9    0.60    0.50
   1   6  -9    0.00    0.40
   0   6  -9    0.10    0.40
  -1   6  -9    0.00    0.40
  -2   6  -9    1.70    0.50
  -3   6  -9    1.10    0.50
   3  -6   9    1.40    0.50
  -4   6  -9   -0.60    0.40
   4  -6   9    0.10    0.40
  -5   6  -9   -0.40    0.40
   5  -6   9    0.20    0.50
  -6   6  -9   -0.30    0.50
   6  -6   9    0.10    0.50
   5   5  -9    0.00    0.30
   4   5  -9    1.20    0.40
   2   5  -9    0.40    0.40
   1   5  -9    1.00    0.50
   0   5  -9    3.20    0.60
  -1   5  -9    0.60    0.40
   1  -5   9    0.50    0.40
  -2   5  -9    0.00    0.40
   2  -5   9    0.00    0.30
  -3   5  -9   -0.10    0.40
   3  -5   9   -0.10    0.40
  -4   5  -9    0.10    0.40
   4  -5   9   -0.10    0.40
  -5   5  -9    0.10    0.40
   5  -5   9    0.00    0.40
  -6   5  -9   -0.70    0.40
   6  -5   9    0.20    0.50
  -7   5  -9   -0.60    0.50
   6   4  -9    0.40    0.40
   5   4  -9   -0.30    0.30
   4   4  -9    0.00    0.30
   3   4  -9    1.70    0.40
   2   4  -9    1.30    0.40
   1   4  -9    0.60    0.40
   0   4  -9    0.10    0.30
   0  -4   9   -0.10    0.30
  -1   4  -9   -0.20    0.30
   1  -4   9    0.10    0.30
  -2   4  -9   -0.10    0.30
   2  -4   9    0.00    0.30
  -3   4  -9   -0.30    0.30
   3  -4   9    0.30    0.40
  -4   4  -9    1.80    0.50
   4  -4   9    2.40    0.60
  -5   4  -9    0.60    0.50
   5  -4   9    0.30    0.50
  -6   4  -9    1.70    0.60
   6  -4   9    1.30    0.60
  -7   4  -9    0.60    0.50
   7  -4   9    0.40    0.50
  -8   4  -9    0.10    0.50
   6   3  -9    0.10    0.30
   5   3  -9    1.10    0.40
   4   3  -9    0.10    0.30
   3   3  -9    0.80    0.30
   2   3  -9    0.40    0.20
   2   3  -9    0.40    0.40
   1   3  -9    0.70    0.40
   1   3  -9    0.90    0.30
  -1  -3   9    0.80    0.30
   0   3  -9    1.80    0.50
   0  -3   9    1.40    0.40
  -1   3  -9    1.70    0.50
   1  -3   9    0.90    0.40
  -2   3  -9   14.00    1.10
   2  -3   9   13.70    1.00
  -3   3  -9    2.40    0.50
   3  -3   9    3.20    0.60
  -4   3  -9    0.10    0.40
   4  -3   9    0.10    0.40
  -5   3  -9    1.80    0.50
   5  -3   9    2.50    0.60
  -6   3  -9    1.50    0.60
   6  -3   9    1.10    0.60
  -7   3  -9    5.80    0.90
   7  -3   9    5.10    0.90
  -8   3  -9    1.20    0.60
   8  -3   9    1.40    0.70
   6   2  -9    0.00    0.30
   5   2  -9    0.10    0.30
   4   2  -9    1.40    0.40
   3   2  -9    0.20    0.30
   2   2  -9    7.00    0.60
   2   2  -9    7.30    0.80
  -2  -2   9    7.00    0.70
   1   2  -9    7.40    0.80
   1   2  -9    7.30    0.60
  -1  -2   9    8.30    0.80
   0   2  -9    5.60    0.50
   0   2  -9    4.40    0.60
   0  -2   9    5.30    0.60
  -1   2  -9    3.60    0.60
   1  -2   9    3.80    0.50
  -2   2  -9    3.10    0.50
   2  -2   9    2.50    0.50
  -3   2  -9    8.00    0.90
   3  -2   9    6.40    0.70
  -4   2  -9    3.30    0.60
   4  -2   9    2.80    0.60
  -5   2  -9   15.90    1.30
   5  -2   9   17.30    1.30
  -6   2  -9    1.40    0.50
   6  -2   9    1.90    0.60
  -7   2  -9    3.00    0.70
   7  -2   9    2.40    0.70
  -8   2  -9    1.20    0.60
   8  -2   9    1.80    0.70
  -9   2  -9    0.00    0.50
   7   1  -9   -0.10    0.30
   6   1  -9    0.40    0.40
   5   1  -9   -0.20    0.30
   4   1  -9    4.90    0.60
   3   1  -9    2.80    0.40
  -3  -1   9    3.40    0.50
   2   1  -9    0.70    0.30
  -2  -1   9    1.10    0.40
   1   1  -9   -0.10    0.30
   1   1  -9   -0.10    0.20
  -1  -1   9   -0.50    0.30
   0   1  -9    0.10    0.30
   0   1  -9    0.00    0.20
   0  -1   9   -0.10    0.30
  -1   1  -9    7.60    0.80
  -1   1  -9    7.90    0.60
   1  -1   9    7.20    0.80
  -2   1  -9   24.30    1.40
   2  -1   9   21.80    1.40
  -3   1  -9   42.20    2.10
   3  -1   9   38.60    2.10
  -4   1  -9    1.40    0.50
   4  -1   9    0.50    0.40
  -5   1  -9    7.50    0.90
   5  -1   9    8.50    0.90
  -6   1  -9    5.90    0.80
   6  -1   9    5.50    0.80
  -7   1  -9   -0.40    0.40
   7  -1   9    0.30    0.40
  -8   1  -9    0.80    0.50
   8  -1   9    0.30    0.50
  -9   1  -9    0.20    0.50
   9  -1   9    0.10    0.50
   7   0  -9    0.10    0.40
   6   0  -9    1.80    0.50
   5   0  -9    0.50    0.30
  -5   0   9    0.40    0.50
   4   0  -9    0.30    0.30
  -4   0   9    1.30    0.40
   3   0  -9    1.80    0.30
  -3   0   9    1.40    0.40
   2   0  -9   25.50    1.30
  -2   0   9   27.60    1.50
   1   0  -9   17.30    0.90
   1   0  -9   16.00    1.10
  -1   0   9   17.40    1.10
   0   0  -9   39.70    1.70
   0   0  -9   39.30    2.00
   0   0   9   38.20    2.00
  -1   0  -9  130.79    5.50
  -1   0  -9  129.39    5.10
   1   0   9  122.19    5.60
  -2   0  -9    0.40    0.40
  -2   0  -9    1.00    0.20
   2   0   9    0.80    0.40
  -3   0  -9   18.80    1.30
  -3   0  -9   18.20    0.90
   3   0   9   17.70    1.20
  -4   0  -9   17.80    1.30
   4   0   9   18.40    1.20
  -5   0  -9    0.10    0.40
   5   0   9   -0.40    0.30
  -6   0  -9    0.20    0.40
   6   0   9    0.40    0.40
  -7   0  -9   -0.40    0.30
   7   0   9   -0.10    0.40
  -8   0  -9    7.60    0.90
   8   0   9    8.00    0.90
   9   0   9    0.60    0.50
   7  -1  -9    0.40    0.40
   6  -1  -9    0.90    0.40
  -6   1   9    0.40    0.50
   5  -1  -9    0.10    0.30
  -5   1   9    0.60    0.50
   4  -1  -9   31.80    1.60
  -4   1   9   33.70    1.90
   3  -1  -9   44.90    2.10
  -3   1   9   44.90    2.30
   2  -1  -9   10.40    0.80
  -2   1   9   13.50    1.00
   1  -1  -9  161.98    6.80
   1  -1  -9  161.38    6.40
  -1   1   9  159.58    6.90
   0  -1  -9    0.00    0.20
   0  -1  -9    0.20    0.30
   0   1   9    0.40    0.40
  -1  -1  -9    3.60    0.40
  -1  -1  -9    3.70    0.60
   1   1   9    4.10    0.60
  -2  -1  -9    5.40    0.70
  -2  -1  -9    5.20    0.50
   2   1   9    6.80    0.70
  -3  -1  -9    2.70    0.50
  -3  -1  -9    2.80    0.30
   3   1   9    2.90    0.50
  -4  -1  -9   13.10    1.10
  -4  -1  -9   13.70    0.80
   4   1   9   14.20    1.00
  -5  -1  -9    1.20    0.40
   5   1   9    1.90    0.50
  -6  -1  -9   19.20    1.30
   6   1   9   21.00    1.30
   7   1   9    1.90    0.50
   8   1   9    4.60    0.70
   9   1   9    0.40    0.50
   7  -2  -9    0.70    0.40
   6  -2  -9    9.70    0.90
  -6   2   9   10.50    1.10
   5  -2  -9   35.00    1.80
  -5   2   9   38.00    2.10
   4  -2  -9    0.70    0.40
  -4   2   9    0.80    0.50
   3  -2  -9   47.60    2.20
  -3   2   9   50.19    2.50
   2  -2  -9   -0.50    0.20
  -2   2   9    0.50    0.40
   1  -2  -9    0.20    0.30
  -1   2   9    0.90    0.40
   0  -2  -9   -0.20    0.20
   0  -2  -9   -0.40    0.20
   0   2   9    0.30    0.30
  -1  -2  -9    5.00    0.50
  -1  -2  -9    5.40    0.60
   1   2   9    5.20    0.60
  -2  -2  -9   17.70    1.20
  -2  -2  -9   19.00    1.00
   2   2   9   19.20    1.20
  -3  -2  -9   17.70    0.90
  -3  -2  -9   16.90    1.10
   3   2   9   16.90    1.10
  -4  -2  -9   23.90    1.20
  -4  -2  -9   26.60    1.50
   4   2   9   25.60    1.50
  -5  -2  -9    0.70    0.30
  -5  -2  -9    1.20    0.40
   5   2   9    1.20    0.40
   6   2   9    8.40    0.80
   7   2   9    4.50    0.60
   8   2   9    0.30    0.40
   9   2   9    0.40    0.40
   7  -3  -9    9.00    0.90
  -7   3   9   10.80    1.20
   6  -3  -9    0.10    0.40
  -6   3   9    0.40    0.50
   5  -3  -9    3.00    0.50
  -5   3   9    4.70    0.80
   4  -3  -9    0.20    0.30
  -4   3   9    0.40    0.40
   3  -3  -9    0.80    0.30
  -3   3   9    1.90    0.50
   2  -3  -9    0.00    0.30
  -2   3   9    1.50    0.40
   1  -3  -9    8.40    0.60
  -1   3   9   10.40    0.90
   0  -3  -9   16.80    0.90
   0   3   9   17.20    1.10
  -1  -3  -9   28.00    1.40
   1   3   9   28.50    1.60
  -2  -3  -9   29.90    1.40
   2   3   9   31.50    1.70
  -3  -3  -9    7.90    0.60
   3   3   9    8.30    0.70
  -4  -3  -9    6.10    0.60
   4   3   9    7.80    0.70
  -5  -3  -9   11.90    0.80
   5   3   9   13.30    0.90
  -6  -3  -9   -0.10    0.20
   6   3   9    0.20    0.30
   7   3   9    0.40    0.40
   8   3   9    0.80    0.40
  -7   4   9    0.40    0.60
   6  -4  -9    0.50    0.40
  -6   4   9    0.30    0.50
   5  -4  -9    0.10    0.30
  -5   4   9    0.80    0.50
   4  -4  -9    0.50    0.30
  -4   4   9    1.30    0.50
   3  -4  -9   12.10    0.80
  -3   4   9   14.40    1.10
   2  -4  -9   16.10    0.90
  -2   4   9   14.60    1.10
   1  -4  -9    9.20    0.70
  -1   4   9    8.80    0.90
   0  -4  -9   20.20    1.10
   0   4   9   19.30    1.20
  -1  -4  -9   24.00    1.20
   1   4   9   23.50    1.40
  -2  -4  -9    0.50    0.30
   2   4   9    1.40    0.40
  -3  -4  -9    3.00    0.40
   3   4   9    2.40    0.40
  -4  -4  -9    0.00    0.20
   4   4   9   -0.20    0.30
  -5  -4  -9    0.70    0.30
   5   4   9    1.00    0.40
  -6  -4  -9   -0.10    0.20
   6   4   9    0.30    0.30
  -7  -4  -9    4.90    0.60
   7   4   9    5.40    0.70
   6  -5  -9    0.30    0.40
  -6   5   9    1.00    0.60
   5  -5  -9    5.60    0.60
  -5   5   9    7.70    1.00
   4  -5  -9    7.20    0.70
  -4   5   9    7.40    0.90
   3  -5  -9    0.40    0.30
  -3   5   9    0.30    0.40
   2  -5  -9    4.30    0.50
  -2   5   9    4.50    0.70
   1  -5  -9    9.20    0.70
  -1   5   9   10.00    0.90
   0  -5  -9   -0.20    0.20
   0   5   9    0.20    0.30
  -1  -5  -9    0.60    0.30
   1   5   9    0.80    0.40
   1   5   9    0.60    0.30
  -2  -5  -9    0.20    0.20
   2   5   9   -0.20    0.30
  -3  -5  -9    0.20    0.20
   3   5   9    0.20    0.30
  -4  -5  -9    0.20    0.20
   4   5   9    0.10    0.30
  -5  -5  -9    9.30    0.70
   5   5   9    8.90    0.80
  -6  -5  -9    0.40    0.30
   6   5   9   -0.10    0.30
  -7  -5  -9    0.50    0.30
   8   5   9    0.10    0.40
   9   5   9    0.50    0.50
   6  -6  -9    1.40    0.40
  -6   6   9    1.00    0.60
   5  -6  -9    0.50    0.40
  -5   6   9    0.90    0.50
   4  -6  -9    0.80    0.40
  -4   6   9    2.50    0.60
   3  -6  -9    1.20    0.40
  -3   6   9    0.90    0.50
   2  -6  -9    0.10    0.30
  -2   6   9   -0.60    0.30
   1  -6  -9    2.80    0.40
  -1   6   9    2.80    0.50
   0  -6  -9    0.60    0.30
   0   6   9    0.90    0.40
  -1  -6  -9    0.10    0.20
   1   6   9    0.30    0.30
   1   6   9    0.50    0.30
  -2  -6  -9    6.00    0.60
   2   6   9    6.50    0.70
   2   6   9    7.40    0.70
  -3  -6  -9   17.00    1.00
   3   6   9   16.80    1.10
   3   6   9   17.70    1.10
  -4  -6  -9    0.30    0.30
   4   6   9    0.60    0.40
   4   6   9    0.80    0.40
  -5  -6  -9    2.50    0.40
   5   6   9    2.10    0.50
   5   6   9    1.90    0.50
  -6  -6  -9    1.00    0.40
   6   6   9    1.10    0.40
  -7  -6  -9    0.30    0.40
   7   6   9    0.30    0.40
   8   6   9   -0.10    0.40
   5  -7  -9    0.20    0.30
  -5   7   9    0.50    0.50
   4  -7  -9    0.60    0.40
  -4   7   9    0.30    0.50
   3  -7  -9    0.90    0.40
  -3   7   9    1.70    0.50
   2  -7  -9   -0.10    0.30
  -2   7   9    0.20    0.40
   1  -7  -9    2.00    0.40
  -1   7   9    2.10    0.50
   0  -7  -9   18.30    1.10
   0   7   9   16.20    1.10
  -1  -7  -9   14.80    0.90
   1   7   9   15.00    1.00
   1   7   9   15.30    1.00
  -2  -7  -9    1.20    0.30
   2   7   9    1.30    0.40
   2   7   9    1.00    0.40
  -3  -7  -9    0.90    0.30
   3   7   9    1.60    0.40
   3   7   9    1.60    0.40
  -4  -7  -9    6.90    0.70
   4   7   9    6.40    0.70
   4   7   9    6.80    0.70
  -5  -7  -9    0.00    0.30
   5   7   9   -0.10    0.30
  -6  -7  -9    1.30    0.40
   6   7   9    1.30    0.50
  -7  -7  -9    0.00    0.30
   7   7   9    0.40    0.40
   8   7   9    1.10    0.50
   5  -8  -9    0.10    0.40
   4  -8  -9    0.70    0.40
  -4   8   9   -0.10    0.50
   3  -8  -9    3.80    0.50
  -3   8   9    3.60    0.70
   2  -8  -9    3.40    0.50
  -2   8   9    4.00    0.70
   1  -8  -9    4.80    0.60
  -1   8   9    4.30    0.70
   0  -8  -9   12.30    0.90
   0   8   9   10.30    0.90
  -1  -8  -9    1.10    0.30
   1   8   9    0.90    0.30
   1   8   9    1.30    0.40
  -2  -8  -9    5.90    0.60
   2   8   9    6.90    0.70
   2   8   9    6.90    0.70
  -3  -8  -9    0.80    0.30
   3   8   9    0.20    0.40
   3   8   9    0.10    0.30
  -4  -8  -9    6.00    0.70
   4   8   9    4.80    0.70
  -5  -8  -9    0.10    0.30
   5   8   9    0.20    0.40
  -6  -8  -9    0.60    0.40
   6   8   9    0.80    0.40
  -7  -8  -9    0.10    0.40
   7   8   9   -0.30    0.40
   4  -9  -9    0.30    0.40
   3  -9  -9    0.60    0.40
  -3   9   9    0.20    0.50
   2  -9  -9    6.30    0.70
  -2   9   9    6.90    0.90
   1  -9  -9    2.30    0.50
  -1   9   9    2.60    0.60
   0  -9  -9    1.40    0.40
   0   9   9    1.60    0.50
  -1  -9  -9    0.60    0.40
   1   9   9    0.50    0.40
  -2  -9  -9    6.00    0.70
   2   9   9    5.90    0.70
   2   9   9    5.50    0.60
  -3  -9  -9   -0.40    0.30
   3   9   9    0.00    0.30
  -4  -9  -9    2.30    0.50
   4   9   9    1.70    0.50
  -5  -9  -9    1.10    0.50
   5   9   9    0.60    0.40
  -6  -9  -9   13.40    1.10
   6   9   9   13.00    1.10
   3 -10  -9    2.10    0.50
   2 -10  -9    0.40    0.40
  -2  10   9    0.00    0.40
   1 -10  -9   -0.20    0.30
  -1  10   9   -0.20    0.40
   0 -10  -9    0.50    0.40
   0  10   9    0.60    0.40
  -1 -10  -9    0.10    0.40
  -2 -10  -9   10.00    0.90
   2  10   9   11.50    0.90
  -3 -10  -9    1.10    0.50
   3  10   9    0.80    0.40
  -4 -10  -9   12.00    1.00
   4  10   9   10.90    1.00
  -5 -10  -9    0.40    0.40
   5  10   9    0.50    0.40
   1 -11  -9   -0.40    0.30
   0 -11  -9    7.30    0.80
  -1 -11  -9    0.00    0.40
  -2 -11  -9    4.20    0.70
  -3 -11  -9    0.00    0.40
   3  11   9    0.70    0.40
   4  11   9    0.20    0.40
   2   7 -10    1.20    0.60
   1   7 -10   18.50    1.60
   0   7 -10    5.80    1.00
  -1   7 -10    5.20    0.90
  -2   7 -10    0.80    0.60
   2   6 -10   12.70    1.30
   1   6 -10    5.80    0.90
   0   6 -10    1.20    0.60
  -1   6 -10    4.50    0.80
  -2   6 -10    0.10    0.40
  -3   6 -10    0.50    0.50
   3  -6  10    0.10    0.40
  -4   6 -10    1.20    0.60
   4  -6  10    0.10    0.40
   5  -6  10    0.70    0.50
   2   5 -10    0.10    0.40
   1   5 -10    0.90    0.50
   0   5 -10    0.40    0.50
  -1   5 -10    7.00    0.90
  -2   5 -10   -0.10    0.40
   2  -5  10   -0.10    0.40
  -3   5 -10    1.00    0.50
   3  -5  10    1.60    0.50
  -4   5 -10    0.20    0.50
   4  -5  10    0.30    0.40
  -5   5 -10   -0.30    0.40
   5  -5  10    0.00    0.50
  -6   5 -10   -0.40    0.40
   6  -5  10   -0.10    0.50
   5   4 -10    0.50    0.40
   4   4 -10    0.60    0.30
   1   4 -10    7.90    0.90
   0   4 -10    1.70    0.50
  -1   4 -10    0.10    0.40
   1  -4  10    0.40    0.30
  -2   4 -10   -0.20    0.40
   2  -4  10    0.80    0.40
  -3   4 -10    1.40    0.50
   3  -4  10    2.10    0.50
  -4   4 -10    0.50    0.40
   4  -4  10    0.00    0.40
  -5   4 -10    0.10    0.50
   5  -4  10    0.70    0.50
  -6   4 -10    0.20    0.50
   6  -4  10    0.10    0.50
   5   3 -10    0.40    0.30
   4   3 -10    0.40    0.30
   3   3 -10    2.40    0.40
   2   3 -10    4.70    0.50
   1   3 -10    0.20    0.30
  -1  -3  10    0.50    0.40
   0   3 -10   -0.30    0.30
   0  -3  10    0.30    0.30
  -1   3 -10    3.10    0.60
   1  -3  10    3.30    0.50
  -2   3 -10   -0.10    0.30
   2  -3  10    0.20    0.30
  -3   3 -10    1.40    0.50
   3  -3  10    1.10    0.40
  -4   3 -10    3.00    0.60
   4  -3  10    2.30    0.60
  -5   3 -10    1.70    0.60
   5  -3  10    1.90    0.60
  -6   3 -10    2.50    0.70
   6  -3  10    2.20    0.70
  -7   3 -10    0.10    0.50
   7  -3  10    0.10    0.50
   6   2 -10    0.60    0.40
   5   2 -10   -0.30    0.30
   4   2 -10    0.50    0.30
   3   2 -10    0.60    0.30
   2   2 -10    0.00    0.20
  -2  -2  10    0.40    0.30
   1   2 -10    5.50    0.70
   1   2 -10    4.90    0.50
  -1  -2  10    4.40    0.60
   0   2 -10    6.50    0.80
   0  -2  10    6.90    0.70
  -1   2 -10    3.10    0.60
   1  -2  10    2.50    0.50
  -2   2 -10    1.70    0.50
   2  -2  10    1.10    0.40
  -3   2 -10    1.00    0.40
   3  -2  10    0.60    0.40
  -4   2 -10    2.00    0.50
   4  -2  10    2.80    0.60
  -5   2 -10    0.60    0.40
   5  -2  10   -0.20    0.40
  -6   2 -10    0.40    0.40
   6  -2  10    0.30    0.50
  -7   2 -10    0.30    0.50
   7  -2  10   -0.40    0.50
  -8   2 -10    0.00    0.50
   8  -2  10   -0.30    0.50
   6   1 -10   -0.30    0.30
   5   1 -10    0.30    0.30
   4   1 -10    0.40    0.30
   3   1 -10    3.50    0.50
   2   1 -10    4.30    0.50
  -2  -1  10    4.50    0.60
   1   1 -10    4.40    0.60
   1   1 -10    4.80    0.50
  -1  -1  10    4.60    0.60
   0   1 -10    1.60    0.30
   0   1 -10    1.30    0.40
   0  -1  10    2.00    0.50
  -1   1 -10    3.00    0.40
  -1   1 -10    2.40    0.50
   1  -1  10    2.80    0.50
  -2   1 -10    2.00    0.50
   2  -1  10    1.80    0.50
  -3   1 -10    1.90    0.50
   3  -1  10    2.00    0.50
  -4   1 -10    0.50    0.40
   4  -1  10   -0.30    0.30
  -5   1 -10   -0.10    0.30
   5  -1  10   -0.50    0.40
  -6   1 -10   -0.10    0.40
   6  -1  10   -0.20    0.40
  -7   1 -10   -0.10    0.40
   7  -1  10   -0.50    0.40
  -8   1 -10    0.10    0.40
   8  -1  10    0.00    0.50
   6   0 -10    0.40    0.40
   5   0 -10    1.40    0.40
   4   0 -10    0.00    0.30
  -4   0  10    0.10    0.40
   3   0 -10    0.60    0.30
  -3   0  10    0.50    0.40
   2   0 -10    2.30    0.40
  -2   0  10    3.40    0.60
   1   0 -10   18.80    1.20
   1   0 -10   19.90    1.10
  -1   0  10   19.00    1.20
   0   0 -10    7.50    0.80
   0   0 -10    6.50    0.60
   0   0  10    6.20    0.70
  -1   0 -10   11.40    0.90
  -1   0 -10   10.70    0.70
   1   0  10   10.40    0.90
  -2   0 -10    0.10    0.30
  -2   0 -10    0.00    0.20
   2   0  10   -0.10    0.30
  -3   0 -10    0.50    0.40
   3   0  10    0.90    0.40
  -4   0 -10    1.30    0.40
   4   0  10    1.80    0.50
  -5   0 -10    1.20    0.40
   5   0  10    1.00    0.40
  -6   0 -10    0.30    0.40
   6   0  10    0.00    0.40
  -7   0 -10    1.00    0.50
   7   0  10    1.10    0.50
  -8   0 -10    2.50    0.60
   8   0  10    1.80    0.60
   6  -1 -10   -0.30    0.40
   5  -1 -10    0.20    0.30
  -5   1  10    0.40    0.50
   4  -1 -10    0.70    0.30
  -4   1  10    0.30    0.40
   3  -1 -10   16.90    1.00
  -3   1  10   15.40    1.20
   2  -1 -10   12.70    0.80
  -2   1  10   12.60    1.00
   1  -1 -10    0.60    0.30
  -1   1  10    0.40    0.40
   0  -1 -10    0.60    0.20
   0  -1 -10    0.20    0.30
   0   1  10    0.90    0.40
  -1  -1 -10    0.10    0.20
  -1  -1 -10    0.10    0.30
   1   1  10    0.10    0.30
  -2  -1 -10   10.20    0.70
  -2  -1 -10    9.80    0.90
   2   1  10   10.10    0.90
  -3  -1 -10    1.20    0.30
  -3  -1 -10    1.40    0.40
   3   1  10    1.40    0.40
  -4  -1 -10    0.50    0.30
   4   1  10    0.40    0.40
  -5  -1 -10    0.80    0.40
   5   1  10   -0.10    0.30
  -6  -1 -10    9.60    0.90
   6   1  10    9.20    0.90
  -7  -1 -10    2.20    0.60
   7   1  10    2.90    0.60
   8   1  10    1.40    0.50
   9   1  10    1.20    0.50
   6  -2 -10    2.40    0.50
  -6   2  10    3.20    0.70
   5  -2 -10    0.80    0.40
  -5   2  10    0.90    0.50
   4  -2 -10    5.30    0.60
  -4   2  10    4.10    0.70
   3  -2 -10    6.60    0.70
  -3   2  10    7.10    0.80
   2  -2 -10   -0.10    0.20
  -2   2  10   -0.20    0.40
   1  -2 -10    0.50    0.20
  -1   2  10    1.00    0.40
   0  -2 -10    0.90    0.30
   0  -2 -10    1.00    0.30
   0   2  10    1.20    0.40
  -1  -2 -10    0.30    0.20
  -1  -2 -10    0.10    0.30
   1   2  10    0.10    0.30
  -2  -2 -10   10.90    0.70
  -2  -2 -10   11.70    0.90
   2   2  10   10.50    0.90
  -3  -2 -10   -0.10    0.30
  -3  -2 -10    0.30    0.20
   3   2  10   -0.30    0.30
  -4  -2 -10   27.80    1.60
  -4  -2 -10   27.30    1.30
   4   2  10   25.90    1.60
  -5  -2 -10   15.30    1.10
   5   2  10   14.10    1.10
   6   2  10    5.20    0.70
   7   2  10    1.60    0.50
   8   2  10   -0.20    0.40
   9   2  10    0.30    0.40
   6  -3 -10    0.10    0.40
  -6   3  10    0.00    0.50
   5  -3 -10    3.40    0.50
  -5   3  10    4.10    0.80
   4  -3 -10    2.60    0.50
  -4   3  10    2.50    0.60
   3  -3 -10    2.70    0.40
  -3   3  10    3.40    0.60
   2  -3 -10    0.70    0.30
  -2   3  10    1.80    0.50
   1  -3 -10   -0.20    0.20
  -1   3  10    0.40    0.40
   0  -3 -10   16.30    0.90
   0   3  10   16.50    1.10
  -1  -3 -10    7.50    0.60
   1   3  10    8.80    0.80
  -2  -3 -10   37.10    1.70
   2   3  10   39.30    2.00
  -3  -3 -10   26.60    1.30
   3   3  10   26.70    1.50
  -4  -3 -10    4.40    0.50
   4   3  10    4.20    0.60
  -5  -3 -10    1.50    0.30
   5   3  10    0.90    0.40
   6   3  10    3.30    0.60
   7   3  10    0.00    0.30
   8   3  10   -0.20    0.40
   9   3  10   -0.20    0.40
   6  -4 -10    0.90    0.40
  -6   4  10    1.60    0.60
   5  -4 -10    1.30    0.40
  -5   4  10    3.10    0.70
   4  -4 -10    0.50    0.40
  -4   4  10    1.00    0.50
   3  -4 -10    0.80    0.30
  -3   4  10    2.10    0.50
   2  -4 -10   10.10    0.80
  -2   4  10   11.40    1.00
   1  -4 -10   20.00    1.10
  -1   4  10   21.80    1.40
   0  -4 -10   23.00    1.20
   0   4  10   23.70    1.40
  -1  -4 -10    9.40    0.70
   1   4  10   11.90    0.90
  -2  -4 -10   -0.20    0.20
   2   4  10    0.10    0.30
  -3  -4 -10    1.50    0.30
   3   4  10    1.30    0.40
  -4  -4 -10    2.90    0.40
   4   4  10    3.40    0.60
  -5  -4 -10    0.80    0.30
   5   4  10    1.80    0.50
  -6  -4 -10    1.10    0.30
   6   4  10    0.60    0.40
   7   4  10    1.20    0.40
   8   4  10    0.00    0.40
   5  -5 -10    2.30    0.50
  -5   5  10    2.60    0.70
   4  -5 -10    3.50    0.50
   3  -5 -10   10.90    0.80
  -3   5  10   10.50    1.00
   2  -5 -10    3.40    0.50
  -2   5  10    3.00    0.60
   1  -5 -10    1.30    0.40
  -1   5  10    1.00    0.40
   0  -5 -10    0.50    0.30
   0   5  10    0.50    0.40
  -1  -5 -10    4.50    0.50
   1   5  10    4.90    0.60
  -2  -5 -10    0.50    0.30
   2   5  10    0.70    0.40
  -3  -5 -10    1.70    0.30
   3   5  10    2.30    0.50
  -4  -5 -10    0.00    0.20
   4   5  10   -0.20    0.30
  -5  -5 -10    1.80    0.40
   5   5  10    1.30    0.40
  -6  -5 -10    0.70    0.30
   6   5  10   -0.20    0.30
  -7  -5 -10    0.20    0.30
   7   5  10    0.20    0.40
   8   5  10   -0.10    0.40
   5  -6 -10    1.40    0.50
  -5   6  10    1.00    0.60
   4  -6 -10   -0.10    0.30
  -4   6  10    0.20    0.50
   3  -6 -10    0.40    0.30
  -3   6  10    0.80    0.50
   2  -6 -10    0.00    0.30
  -2   6  10    0.10    0.40
   1  -6 -10    3.40    0.50
  -1   6  10    2.60    0.50
   0  -6 -10    0.80    0.30
   0   6  10    0.10    0.40
  -1  -6 -10    0.20    0.30
   1   6  10    0.60    0.40
   1   6  10    0.00    0.30
  -2  -6 -10    1.50    0.40
   2   6  10    1.10    0.40
   2   6  10    1.10    0.40
  -3  -6 -10    1.10    0.30
   3   6  10    0.80    0.40
   3   6  10    0.70    0.30
  -4  -6 -10   -0.20    0.20
   4   6  10   -0.40    0.30
   4   6  10   -0.20    0.30
  -5  -6 -10    4.30    0.60
   5   6  10    4.10    0.60
   5   6  10    3.70    0.60
  -6  -6 -10    0.00    0.30
   6   6  10    0.20    0.40
   6   6  10   -0.10    0.30
  -7  -6 -10    3.10    0.60
   7   6  10    2.70    0.60
   8   6  10   -0.50    0.40
   4  -7 -10   -0.30    0.30
  -4   7  10    0.10    0.50
   3  -7 -10    0.00    0.30
  -3   7  10    0.30    0.50
   2  -7 -10    0.60    0.40
  -2   7  10    1.00    0.50
   1  -7 -10    0.00    0.30
  -1   7  10    0.20    0.40
   0  -7 -10    0.30    0.30
   0   7  10    0.30    0.40
  -1  -7 -10    0.20    0.30
   1   7  10   -0.20    0.30
  -2  -7 -10    2.20    0.40
   2   7  10    1.60    0.40
   2   7  10    1.40    0.50
  -3  -7 -10   11.10    0.90
   3   7  10   12.80    1.00
   3   7  10   11.60    1.00
  -4  -7 -10    0.10    0.30
   4   7  10   -0.10    0.30
   4   7  10    0.50    0.40
  -5  -7 -10    1.40    0.40
   5   7  10    1.30    0.50
  -6  -7 -10    2.00    0.50
   6   7  10    1.10    0.50
  -7  -7 -10    2.10    0.50
   7   7  10    0.80    0.50
   4  -8 -10    0.10    0.40
   3  -8 -10    0.10    0.30
  -3   8  10    0.40    0.50
   2  -8 -10    4.00    0.60
  -2   8  10    3.30    0.70
   1  -8 -10   -0.20    0.30
  -1   8  10    0.10    0.40
   0  -8 -10    0.10    0.30
   0   8  10    0.00    0.40
  -1  -8 -10    3.90    0.50
   1   8  10    3.10    0.60
  -2  -8 -10    0.40    0.30
   2   8  10   -0.20    0.30
   2   8  10   -0.20    0.30
  -3  -8 -10   -0.10    0.30
   3   8  10    0.40    0.40
   3   8  10   -0.40    0.30
  -4  -8 -10    3.50    0.60
   4   8  10    3.10    0.60
  -5  -8 -10    4.10    0.60
   5   8  10    3.50    0.60
  -6  -8 -10   -0.30    0.30
   6   8  10    0.10    0.40
  -7  -8 -10    0.60    0.40
   7   8  10    0.60    0.50
   3  -9 -10   -0.10    0.40
   2  -9 -10    1.30    0.40
  -2   9  10    0.60    0.50
   1  -9 -10    0.10    0.30
  -1   9  10    0.50    0.50
   0  -9 -10   -0.30    0.30
   0   9  10    0.00    0.40
  -1  -9 -10    0.30    0.30
   1   9  10    0.30    0.40
  -2  -9 -10    0.10    0.30
   2   9  10    0.70    0.40
   2   9  10    0.80    0.40
  -3  -9 -10    4.50    0.60
   3   9  10    5.10    0.70
  -4  -9 -10   -0.20    0.30
   4   9  10   -0.20    0.30
  -5  -9 -10    0.80    0.40
   5   9  10    0.50    0.40
  -6  -9 -10    4.50    0.70
   6   9  10    3.20    0.60
   1 -10 -10    0.30    0.40
  -1  10  10    0.20    0.50
   0 -10 -10    0.30    0.40
   0  10  10   -0.10    0.40
  -1 -10 -10    2.70    0.50
  -2 -10 -10    1.00    0.50
  -3 -10 -10    0.20    0.40
   3  10  10    0.20    0.40
  -4 -10 -10    4.60    0.70
   4  10  10    5.80    0.70
   3  11  10    0.60    0.40
   1   6 -11    1.00    0.70
   0   6 -11    2.10    0.70
  -1   6 -11   -0.30    0.50
  -2   6 -11   -0.90    0.50
   4  -6  11    0.10    0.50
   1   5 -11   -0.20    0.50
   0   5 -11    0.80    0.60
  -1   5 -11    0.00    0.50
  -2   5 -11   -0.40    0.50
  -3   5 -11    1.90    0.60
   3  -5  11    1.60    0.60
  -4   5 -11    1.60    0.60
   4  -5  11    1.50    0.60
   5  -5  11    0.90    0.60
   1   4 -11    0.00    0.40
   0   4 -11   -0.20    0.40
  -1   4 -11    3.70    0.70
   1  -4  11    5.20    0.70
  -2   4 -11    5.40    0.80
   2  -4  11    7.60    0.90
  -3   4 -11    2.80    0.60
   3  -4  11    2.90    0.60
  -4   4 -11    0.30    0.40
   4  -4  11    0.70    0.50
  -5   4 -11    0.60    0.50
   5  -4  11    0.40    0.50
   4   3 -11   -0.20    0.30
   3   3 -11    0.80    0.40
   1   3 -11    4.10    0.70
   0   3 -11    9.70    1.00
   0  -3  11    8.90    0.90
  -1   3 -11    2.10    0.60
   1  -3  11    1.80    0.50
  -2   3 -11   -0.20    0.40
   2  -3  11    0.70    0.40
  -3   3 -11   -0.20    0.40
   3  -3  11    0.60    0.40
  -4   3 -11    0.20    0.40
   4  -3  11   -0.20    0.40
  -5   3 -11    1.50    0.60
   5  -3  11    0.60    0.50
  -6   3 -11    0.20    0.50
   6  -3  11   -0.20    0.40
   5   2 -11    0.40    0.40
   4   2 -11    8.20    0.80
   3   2 -11    1.40    0.40
   2   2 -11    2.50    0.40
  -1  -2  11    0.40    0.40
   0   2 -11   -0.10    0.40
   0  -2  11    0.00    0.30
  -1   2 -11    1.70    0.50
   1  -2  11    0.80    0.40
  -2   2 -11    0.00    0.40
   2  -2  11    0.30    0.40
  -3   2 -11    2.10    0.60
   3  -2  11    1.90    0.50
  -4   2 -11    1.50    0.50
   4  -2  11    2.40    0.60
  -5   2 -11    0.50    0.40
   5  -2  11    0.40    0.50
  -6   2 -11    0.00    0.40
   6  -2  11    0.50    0.50
  -7   2 -11    0.40    0.50
   7  -2  11    0.30    0.50
   5   1 -11   -0.10    0.40
   4   1 -11    0.20    0.30
   3   1 -11    0.50    0.30
   2   1 -11    0.40    0.30
  -2  -1  11    0.30    0.40
   1   1 -11    1.40    0.30
  -1  -1  11    1.50    0.40
   0   1 -11    1.30    0.40
   0   1 -11    0.90    0.30
   0  -1  11    1.80    0.50
  -1   1 -11    0.30    0.40
   1  -1  11   -0.10    0.30
  -2   1 -11    5.20    0.70
   2  -1  11    4.40    0.70
  -3   1 -11    8.50    0.90
   3  -1  11    6.70    0.80
  -4   1 -11    0.00    0.40
   4  -1  11    0.30    0.40
  -5   1 -11    1.40    0.50
   5  -1  11    0.10    0.50
  -6   1 -11    0.70    0.50
   6  -1  11    1.20    0.50
  -7   1 -11   -0.60    0.40
   7  -1  11   -0.20    0.40
   5   0 -11    0.00    0.30
   4   0 -11    0.40    0.30
   3   0 -11   -0.50    0.20
  -3   0  11    0.30    0.40
   2   0 -11   -0.10    0.20
  -2   0  11   -0.40    0.40
   1   0 -11    2.10    0.40
  -1   0  11    1.60    0.50
   0   0 -11    2.30    0.40
   0   0 -11    2.70    0.50
   0   0  11    2.50    0.50
  -1   0 -11    5.30    0.70
  -1   0 -11    5.70    0.50
   1   0  11    5.20    0.70
  -2   0 -11    1.50    0.50
   2   0  11    1.90    0.50
  -3   0 -11    1.60    0.50
   3   0  11    1.60    0.50
  -4   0 -11    7.50    0.90
   4   0  11    7.50    0.90
  -5   0 -11    0.10    0.40
   5   0  11    0.30    0.40
  -6   0 -11    0.30    0.40
   6   0  11    0.70    0.40
  -7   0 -11   -0.10    0.40
   7   0  11    0.20    0.40
  -8   0 -11    2.00    0.60
   8   0  11    0.90    0.50
   5  -1 -11    0.20    0.40
   4  -1 -11    0.80    0.40
  -4   1  11    0.10    0.50
   3  -1 -11    0.00    0.30
  -3   1  11    0.30    0.40
   2  -1 -11    1.00    0.30
  -2   1  11    1.00    0.50
   1  -1 -11   -0.10    0.20
  -1   1  11    0.30    0.40
   0  -1 -11    2.70    0.40
   0  -1 -11    2.60    0.50
   0   1  11    3.00    0.60
  -1  -1 -11    0.00    0.30
  -1  -1 -11    0.30    0.20
   1   1  11    0.70    0.40
  -2  -1 -11    4.30    0.50
  -2  -1 -11    5.20    0.70
   2   1  11    4.30    0.60
  -3  -1 -11    3.70    0.60
   3   1  11    4.10    0.60
  -4  -1 -11   -0.10    0.30
   4   1  11    0.40    0.40
  -5  -1 -11    1.10    0.50
   5   1  11    1.00    0.50
  -6  -1 -11    1.80    0.50
   6   1  11    0.90    0.50
   7   1  11   -0.30    0.40
   8   1  11    0.30    0.40
   5  -2 -11    1.70    0.50
   4  -2 -11    1.40    0.40
  -4   2  11    1.50    0.60
   3  -2 -11    0.00    0.30
  -3   2  11    0.50    0.40
   2  -2 -11    0.00    0.30
  -2   2  11   -0.40    0.40
   1  -2 -11    0.10    0.20
  -1   2  11    0.00    0.40
   0  -2 -11    0.10    0.20
   0   2  11    0.30    0.40
  -1  -2 -11    5.40    0.50
  -1  -2 -11    5.40    0.60
   1   2  11    4.40    0.70
  -2  -2 -11    0.60    0.20
  -2  -2 -11    0.60    0.40
   2   2  11    0.60    0.40
  -3  -2 -11    0.00    0.20
  -3  -2 -11    0.00    0.30
   3   2  11    0.00    0.30
  -4  -2 -11   -0.10    0.30
   4   2  11    0.90    0.40
  -5  -2 -11   -0.20    0.30
   5   2  11   -0.30    0.30
   6   2  11    0.30    0.40
   7   2  11   -0.60    0.40
   8   2  11   -0.40    0.40
  -6   3  11    1.30    0.70
   5  -3 -11    0.90    0.40
  -5   3  11    0.90    0.60
   4  -3 -11   -0.20    0.30
  -4   3  11    0.00    0.50
   3  -3 -11    0.40    0.30
  -3   3  11    0.20    0.50
   2  -3 -11    0.90    0.30
  -2   3  11    0.60    0.50
   1  -3 -11    0.30    0.30
  -1   3  11    0.30    0.40
   0  -3 -11    0.70    0.30
   0   3  11    1.10    0.40
  -1  -3 -11    2.00    0.30
   1   3  11    1.80    0.50
  -2  -3 -11    0.70    0.30
   2   3  11    0.80    0.40
  -3  -3 -11    0.90    0.30
   3   3  11    0.80    0.40
  -4  -3 -11    0.20    0.20
   4   3  11   -0.40    0.30
  -5  -3 -11    0.10    0.20
   5   3  11   -0.20    0.30
   6   3  11    2.60    0.60
   7   3  11    0.10    0.40
   8   3  11    0.40    0.40
   9   3  11   -0.40    0.40
   5  -4 -11    0.50    0.40
  -5   4  11   -0.60    0.50
   4  -4 -11    1.00    0.40
  -4   4  11    0.50    0.50
   3  -4 -11    0.00    0.30
  -3   4  11    0.00    0.40
   2  -4 -11    1.10    0.30
  -2   4  11    1.00    0.50
   1  -4 -11    0.20    0.30
  -1   4  11    0.20    0.40
   0  -4 -11    1.50    0.40
   0   4  11    2.20    0.50
  -1  -4 -11    1.50    0.30
   1   4  11    2.60    0.50
  -2  -4 -11    2.20    0.40
   2   4  11    2.60    0.50
  -3  -4 -11    1.30    0.30
   3   4  11    1.20    0.40
  -4  -4 -11   11.20    0.80
   4   4  11   11.50    1.00
  -5  -4 -11    1.60    0.40
   5   4  11    1.30    0.50
  -6  -4 -11   -0.10    0.30
   6   4  11   -0.30    0.40
   7   4  11    0.20    0.40
   8   4  11    1.80    0.50
  -5   5  11   -0.40    0.50
   4  -5 -11    0.80    0.40
  -4   5  11   -0.20    0.50
   3  -5 -11    0.30    0.30
  -3   5  11    0.80    0.50
   2  -5 -11    1.10    0.40
  -2   5  11    0.50    0.40
   1  -5 -11    1.40    0.40
  -1   5  11    0.40    0.40
   0  -5 -11    9.50    0.70
   0   5  11    9.80    0.90
  -1  -5 -11    1.70    0.40
   1   5  11    1.80    0.50
  -2  -5 -11    8.70    0.70
   2   5  11    7.80    0.80
  -3  -5 -11    1.80    0.40
   3   5  11    1.50    0.50
  -4  -5 -11    4.00    0.50
   4   5  11    3.60    0.60
  -5  -5 -11    0.00    0.20
   5   5  11   -0.20    0.30
  -6  -5 -11    3.30    0.50
   6   5  11    3.90    0.60
  -7  -5 -11    6.20    0.70
   7   5  11    6.90    0.80
   4  -6 -11   -0.20    0.30
  -4   6  11    0.00    0.50
   3  -6 -11    0.00    0.30
  -3   6  11    0.10    0.50
   2  -6 -11    7.80    0.70
  -2   6  11    4.70    0.80
   1  -6 -11    0.10    0.30
  -1   6  11    0.40    0.40
   0  -6 -11    0.70    0.30
   0   6  11    0.60    0.40
  -1  -6 -11    0.90    0.30
   1   6  11    0.70    0.40
  -2  -6 -11    4.10    0.50
   2   6  11    3.50    0.60
   2   6  11    3.80    0.60
  -3  -6 -11    3.90    0.50
   3   6  11    3.60    0.60
   3   6  11    2.90    0.60
  -4  -6 -11    2.20    0.40
   4   6  11    1.90    0.50
   4   6  11    1.50    0.50
  -5  -6 -11   14.30    1.00
   5   6  11   14.80    1.10
   5   6  11   16.30    1.20
  -6  -6 -11    0.40    0.30
   6   6  11    0.50    0.40
   6   6  11    0.50    0.40
  -7  -6 -11    1.70    0.50
   7   6  11    1.60    0.60
  -8  -6 -11    0.00    0.40
   3  -7 -11    0.00    0.40
  -3   7  11   -0.50    0.40
   2  -7 -11   -0.40    0.30
  -2   7  11    0.20    0.50
   1  -7 -11   -0.10    0.30
  -1   7  11    0.30    0.40
   0  -7 -11    0.40    0.30
   0   7  11    1.00    0.50
  -1  -7 -11    6.70    0.70
   1   7  11    5.50    0.70
  -2  -7 -11    1.40    0.40
   2   7  11    1.30    0.40
   2   7  11    0.90    0.50
  -3  -7 -11    7.60    0.70
   3   7  11    8.90    0.90
   3   7  11    9.40    0.90
  -4  -7 -11    0.80    0.40
   4   7  11    0.30    0.40
   4   7  11    0.50    0.40
  -5  -7 -11    1.90    0.50
   5   7  11    1.30    0.50
   5   7  11    1.10    0.50
  -6  -7 -11    0.90    0.40
   6   7  11   -0.50    0.40
  -7  -7 -11    3.10    0.60
   7   7  11    2.60    0.60
   2  -8 -11    0.40    0.40
  -2   8  11    0.10    0.50
   1  -8 -11    2.40    0.50
  -1   8  11    3.10    0.60
   0  -8 -11    0.60    0.40
   0   8  11    0.40    0.40
  -1  -8 -11    2.40    0.50
   1   8  11    2.30    0.50
  -2  -8 -11    1.00    0.40
   2   8  11    0.50    0.50
  -3  -8 -11    3.40    0.60
   3   8  11    4.00    0.70
   3   8  11    4.10    0.60
  -4  -8 -11    0.30    0.40
   4   8  11    0.80    0.40
  -5  -8 -11    5.40    0.70
   5   8  11    4.40    0.70
  -6  -8 -11    1.00    0.50
   6   8  11    0.20    0.40
   1  -9 -11    2.50    0.50
  -1   9  11    2.10    0.60
   0  -9 -11    0.30    0.40
   0   9  11    0.40    0.50
  -1  -9 -11    4.60    0.60
   1   9  11    5.00    0.70
  -2  -9 -11    1.70    0.50
   2   9  11    2.20    0.60
  -3  -9 -11    5.00    0.70
   3   9  11    4.70    0.70
  -4  -9 -11   -0.20    0.40
   4   9  11   -0.10    0.40
   5   9  11    0.40    0.40
   0  10  11    1.10    0.50
   1  10  11    2.10    0.60
   4  10  11    3.20    0.60
   0   5 -12    0.00    0.60
  -1   5 -12   -0.50    0.60
  -2   5 -12   -0.40    0.50
   3  -5  12    0.10    0.50
   0   4 -12   -1.10    0.40
  -1   4 -12   -0.30    0.50
  -2   4 -12    1.80    0.60
   2  -4  12    1.90    0.60
  -3   4 -12   -0.40    0.50
   3  -4  12    0.40    0.50
  -4   4 -12    2.50    0.70
   4  -4  12    2.10    0.70
   0   3 -12    7.30    1.00
  -1   3 -12    0.30    0.50
   1  -3  12   -0.40    0.40
  -2   3 -12    5.50    0.90
   2  -3  12    5.00    0.80
  -3   3 -12    1.70    0.60
   3  -3  12    2.20    0.60
  -4   3 -12   -0.10    0.50
   4  -3  12    0.00    0.40
  -5   3 -12    0.50    0.50
   5  -3  12    0.10    0.50
   4   2 -12    0.30    0.40
   3   2 -12    0.80    0.40
  -1  -2  12    0.80    0.50
   0   2 -12    4.00    0.70
   0  -2  12    4.00    0.70
  -1   2 -12    4.90    0.80
   1  -2  12    5.20    0.70
  -2   2 -12    0.00    0.40
   2  -2  12    0.10    0.40
  -3   2 -12    0.00    0.50
   3  -2  12    0.20    0.40
  -4   2 -12   -0.50    0.40
   4  -2  12    0.30    0.50
  -5   2 -12    2.40    0.70
   5  -2  12    3.10    0.70
  -6   2 -12    0.70    0.50
   6  -2  12    0.70    0.50
   4   1 -12    3.90    0.60
   3   1 -12    2.20    0.50
   2   1 -12    1.00    0.40
  -2  -1  12    0.80    0.50
   1   1 -12    1.70    0.40
  -1  -1  12    2.40    0.60
   0   1 -12   -0.20    0.40
   0  -1  12    0.30    0.40
  -1   1 -12    2.80    0.60
   1  -1  12    3.30    0.60
  -2   1 -12   -0.10    0.40
   2  -1  12    0.20    0.40
  -3   1 -12    4.30    0.70
   3  -1  12    4.00    0.70
  -4   1 -12    2.30    0.60
   4  -1  12    2.40    0.60
  -5   1 -12    1.70    0.60
   5  -1  12    1.30    0.60
  -6   1 -12    0.50    0.50
   6  -1  12    1.40    0.60
   4   0 -12   -0.20    0.30
   3   0 -12    0.30    0.30
  -3   0  12    1.00    0.50
   2   0 -12   -0.30    0.30
  -2   0  12    0.20    0.50
   1   0 -12    2.50    0.40
  -1   0  12    1.10    0.50
   0   0 -12    1.60    0.40
   0   0  12    2.20    0.60
  -1   0 -12    2.20    0.50
   1   0  12    1.80    0.50
  -2   0 -12    2.40    0.60
   2   0  12    2.00    0.50
  -3   0 -12    2.10    0.60
   3   0  12    1.70    0.50
  -4   0 -12   -0.20    0.40
   4   0  12   -0.30    0.40
  -5   0 -12    1.60    0.50
   5   0  12    1.30    0.60
  -6   0 -12    1.00    0.50
   6   0  12    1.20    0.50
  -7   0 -12   -0.30    0.40
   7   0  12    0.20    0.50
   4  -1 -12    0.30    0.40
  -4   1  12    0.00    0.50
   3  -1 -12   -0.10    0.30
  -3   1  12    0.70    0.50
   2  -1 -12    1.50    0.40
  -2   1  12    0.40    0.50
   1  -1 -12    1.00    0.30
  -1   1  12    0.20    0.40
   0  -1 -12    0.30    0.30
   0   1  12    0.00    0.40
  -1  -1 -12    1.70    0.50
  -1  -1 -12    2.30    0.40
   1   1  12    2.10    0.60
  -2  -1 -12    2.10    0.50
   2   1  12    1.70    0.50
  -3  -1 -12    4.20    0.70
   3   1  12    2.90    0.60
  -4  -1 -12    0.70    0.40
   4   1  12    0.00    0.40
  -5  -1 -12    0.60    0.40
   5   1  12    0.20    0.40
  -6  -1 -12    1.10    0.50
   6   1  12    1.60    0.60
   7   1  12    0.20    0.40
  -5   2  12    0.30    0.60
   4  -2 -12    0.40    0.30
  -4   2  12    0.40    0.60
   3  -2 -12    2.00    0.40
  -3   2  12    1.30    0.50
   2  -2 -12    0.50    0.30
  -2   2  12    0.30    0.50
   1  -2 -12    2.30    0.40
  -1   2  12    2.10    0.60
   0  -2 -12    0.20    0.30
   0   2  12    1.00    0.50
  -1  -2 -12   10.40    0.80
  -1  -2 -12   10.90    1.00
   1   2  12   11.90    1.10
  -2  -2 -12    2.10    0.50
  -2  -2 -12    1.30    0.30
   2   2  12    1.30    0.50
  -3  -2 -12    0.60    0.40
  -3  -2 -12    0.90    0.30
   3   2  12    0.70    0.40
  -4  -2 -12    0.50    0.40
   4   2  12    0.00    0.40
   5   2  12    1.30    0.50
   6   2  12   -0.10    0.40
   7   2  12    0.60    0.50
   4  -3 -12    0.20    0.40
  -4   3  12   -0.30    0.50
   3  -3 -12    1.00    0.40
  -3   3  12    0.30    0.50
   2  -3 -12    0.20    0.30
  -2   3  12   -0.90    0.40
   1  -3 -12    5.90    0.60
  -1   3  12    5.80    0.80
   0  -3 -12    1.30    0.40
   0   3  12    1.50    0.50
  -1  -3 -12    0.00    0.30
   1   3  12    0.30    0.40
  -2  -3 -12   -0.10    0.20
   2   3  12   -0.10    0.40
  -3  -3 -12    0.10    0.20
   3   3  12    0.00    0.40
  -4  -3 -12    0.00    0.20
   4   3  12    0.00    0.40
   5   3  12   -0.10    0.40
   6   3  12   -0.20    0.40
   7   3  12    0.00    0.40
   8   3  12    0.00    0.40
   4  -4 -12   -0.40    0.30
  -4   4  12   -0.20    0.50
   3  -4 -12    0.50    0.30
  -3   4  12    0.50    0.50
   2  -4 -12    1.10    0.40
  -2   4  12   -0.10    0.40
   1  -4 -12    1.50    0.40
  -1   4  12    1.90    0.60
   0  -4 -12    0.40    0.30
   0   4  12    0.10    0.40
  -1  -4 -12    0.00    0.20
   1   4  12   -0.10    0.40
  -2  -4 -12    1.20    0.30
   2   4  12    1.60    0.50
  -3  -4 -12    0.00    0.20
   3   4  12    0.30    0.40
  -4  -4 -12    0.30    0.30
   4   4  12   -0.10    0.40
  -5  -4 -12    1.10    0.40
   5   4  12    1.00    0.40
   6   4  12    0.40    0.40
   7   4  12    0.60    0.50
   8   4  12   -0.40    0.40
   3  -5 -12    0.50    0.40
  -3   5  12    0.30    0.50
   2  -5 -12    0.80    0.40
  -2   5  12    1.40    0.60
   1  -5 -12    0.70    0.30
  -1   5  12    0.00    0.40
   0  -5 -12    1.00    0.40
   0   5  12    1.80    0.60
  -1  -5 -12    1.00    0.40
   1   5  12    0.60    0.40
  -2  -5 -12    0.40    0.30
   2   5  12    0.70    0.40
  -3  -5 -12    3.60    0.50
   3   5  12    3.40    0.60
  -4  -5 -12    0.00    0.30
   4   5  12    0.10    0.40
  -5  -5 -12    0.80    0.40
   5   5  12    1.10    0.50
  -6  -5 -12    0.70    0.40
   6   5  12    0.40    0.40
   7   5  12    0.50    0.50
   3  -6 -12    0.50    0.40
  -3   6  12   -0.60    0.50
   2  -6 -12    0.40    0.30
  -2   6  12    0.20    0.50
   1  -6 -12    1.60    0.40
  -1   6  12    1.10    0.50
   0  -6 -12    0.70    0.30
   0   6  12    0.10    0.40
  -1  -6 -12    2.50    0.50
   1   6  12    1.80    0.60
  -2  -6 -12    1.00    0.40
   2   6  12    0.10    0.40
  -3  -6 -12    1.10    0.40
   3   6  12    0.70    0.50
   3   6  12    0.90    0.40
  -4  -6 -12    0.40    0.30
   4   6  12    0.30    0.40
   4   6  12    0.30    0.40
  -5  -6 -12    6.40    0.70
   5   6  12    6.90    0.90
   5   6  12    5.10    0.80
  -6  -6 -12    0.30    0.40
   6   6  12   -0.10    0.50
   6   6  12    0.00    0.40
  -7  -6 -12    1.70    0.50
   2  -7 -12    0.30    0.40
  -2   7  12   -0.40    0.50
   1  -7 -12    0.50    0.40
  -1   7  12    0.40    0.50
   0  -7 -12    0.70    0.40
   0   7  12    0.30    0.50
  -1  -7 -12    3.60    0.50
   1   7  12    1.90    0.60
  -2  -7 -12   -0.10    0.30
   2   7  12    0.20    0.40
  -3  -7 -12   10.40    0.90
   3   7  12    7.60    0.90
   3   7  12   11.00    1.00
  -4  -7 -12    2.70    0.50
   4   7  12    2.90    0.60
   4   7  12    2.80    0.60
  -5  -7 -12    1.10    0.40
   5   7  12    1.30    0.50
   5   7  12    0.60    0.50
  -6  -7 -12    0.70    0.40
   6   7  12    0.60    0.50
   1  -8 -12    2.90    0.60
  -1   8  12    2.30    0.60
   0  -8 -12   -0.10    0.30
   0   8  12    0.20    0.50
  -1  -8 -12    4.30    0.60
   1   8  12    3.80    0.70
  -2  -8 -12    6.80    0.70
   2   8  12    5.70    0.80
  -3  -8 -12    0.30    0.40
   3   8  12    0.30    0.50
   3   8  12    0.60    0.40
  -4  -8 -12    0.70    0.40
   4   8  12    0.30    0.50
   4   8  12    1.00    0.50
  -5  -8 -12    0.70    0.40
   5   8  12    1.00    0.50
   0   9  12    3.60    0.70
   1   9  12    0.40    0.50
   2   9  12    0.20    0.40
   4   9  12    0.50    0.40
  -1   4 -13    0.50    0.60
  -1   3 -13   -0.60    0.50
   1  -3  13    0.10    0.50
  -2   3 -13    0.40    0.60
   2  -3  13    0.70    0.50
  -3   3 -13   -0.80    0.50
   3  -3  13   -0.10    0.50
   0  -2  13    0.30    0.50
  -1   2 -13   -0.10    0.50
   1  -2  13    0.10    0.40
  -2   2 -13   -0.10    0.50
   2  -2  13    0.60    0.50
  -3   2 -13    0.00    0.40
   3  -2  13    0.20    0.40
  -4   2 -13    0.10    0.50
   4  -2  13    0.00    0.50
   3   1 -13    0.10    0.40
  -1  -1  13    0.10    0.40
   0  -1  13    0.40    0.50
  -1   1 -13    0.10    0.50
   1  -1  13    0.40    0.50
  -2   1 -13   -0.10    0.40
   2  -1  13    0.50    0.50
  -3   1 -13    0.40    0.50
   3  -1  13    0.50    0.50
  -4   1 -13    1.90    0.60
   4  -1  13    1.10    0.50
  -5   1 -13   -0.10    0.50
   5  -1  13    0.10    0.50
   3   0 -13    0.50    0.40
   2   0 -13    0.30    0.30
  -2   0  13    0.70    0.50
   1   0 -13    0.30    0.30
  -1   0  13    0.90    0.50
   0   0  13   -0.60    0.40
  -1   0 -13    1.40    0.60
   1   0  13    1.10    0.50
  -2   0 -13   10.20    1.10
   2   0  13    9.90    1.10
  -3   0 -13    1.40    0.60
   3   0  13    1.50    0.50
  -4   0 -13    3.90    0.80
   4   0  13    4.30    0.80
  -5   0 -13    1.00    0.50
   5   0  13    0.90    0.50
   3  -1 -13    0.60    0.40
  -3   1  13    0.80    0.50
   2  -1 -13    1.20    0.40
  -2   1  13    0.60    0.50
   1  -1 -13   -0.10    0.30
  -1   1  13    0.50    0.50
   0  -1 -13   15.40    1.00
   0   1  13   14.00    1.20
   1   1  13    6.50    0.90
  -2  -1 -13    3.40    0.70
   2   1  13    2.60    0.70
  -3  -1 -13    5.80    0.80
   3   1  13    5.30    0.80
  -4  -1 -13    4.20    0.70
   4   1  13    4.70    0.80
  -5  -1 -13    4.30    0.80
   5   1  13    3.90    0.70
  -6  -1 -13    1.00    0.50
   6   1  13    0.70    0.50
  -4   2  13    0.70    0.60
   3  -2 -13    0.20    0.40
  -3   2  13    0.90    0.60
   2  -2 -13    4.20    0.60
  -2   2  13    3.30    0.70
   1  -2 -13    8.60    0.80
  -1   2  13    6.70    0.90
   0  -2 -13    0.80    0.40
   0   2  13    0.80    0.50
  -1  -2 -13    5.40    0.60
   1   2  13    4.50    0.80
  -2  -2 -13    3.20    0.50
  -2  -2 -13    2.80    0.60
   2   2  13    4.00    0.70
  -3  -2 -13    2.10    0.60
   3   2  13    3.10    0.70
   4   2  13    0.90    0.50
   5   2  13   -0.20    0.40
   6   2  13    2.30    0.60
   3  -3 -13    2.70    0.50
  -3   3  13    2.40    0.70
   2  -3 -13    0.50    0.40
  -2   3  13    0.20    0.60
   1  -3 -13    0.70    0.40
  -1   3  13    0.80    0.60
   0  -3 -13    1.30    0.40
   0   3  13    0.00    0.50
  -1  -3 -13    0.00    0.30
   1   3  13    0.20    0.50
  -2  -3 -13    0.70    0.30
   2   3  13    0.80    0.50
  -3  -3 -13    0.70    0.30
   3   3  13    1.30    0.50
   4   3  13   -0.40    0.40
   5   3  13    4.10    0.70
   6   3  13    0.70    0.50
  -3   4  13   -0.40    0.50
   2  -4 -13    1.30    0.40
  -2   4  13    1.00    0.60
   1  -4 -13    0.60    0.40
  -1   4  13    0.30    0.50
   0  -4 -13   -0.20    0.30
   0   4  13   -0.20    0.50
  -1  -4 -13    1.30    0.40
   1   4  13    1.60    0.60
  -2  -4 -13   -0.10    0.30
   2   4  13    0.60    0.50
  -3  -4 -13    1.40    0.40
   3   4  13    1.40    0.60
  -4  -4 -13    1.30    0.40
   4   4  13    1.40    0.50
   5   4  13    1.10    0.50
   6   4  13    0.30    0.50
   2  -5 -13   -0.20    0.40
  -2   5  13    0.00    0.50
   1  -5 -13    0.40    0.40
  -1   5  13    0.20    0.50
   0  -5 -13    0.10    0.30
  -1  -5 -13   -0.50    0.30
   1   5  13   -0.40    0.50
  -2  -5 -13    0.40    0.30
   2   5  13    0.40    0.50
  -3  -5 -13    0.70    0.30
   3   5  13    1.10    0.50
  -4  -5 -13    0.50    0.30
   4   5  13    0.80    0.50
  -5  -5 -13    0.00    0.30
   5   5  13    0.40    0.50
   6   5  13    0.30    0.50
   1  -6 -13    0.00    0.40
  -1   6  13   -0.20    0.50
   0  -6 -13    1.00    0.40
   0   6  13    0.20    0.50
  -1  -6 -13    0.40    0.30
   1   6  13   -0.10    0.50
  -2  -6 -13    0.40    0.40
   2   6  13    0.80    0.50
  -3  -6 -13    0.90    0.40
   3   6  13    1.10    0.50
   3   6  13    1.60    0.50
  -4  -6 -13    0.20    0.30
   4   6  13    0.40    0.40
   4   6  13   -0.10    0.40
  -5  -6 -13    0.00    0.40
   5   6  13    0.20    0.40
   5   6  13    0.30    0.50
  -6  -6 -13    0.20    0.40
   6   6  13    0.20    0.50
   0  -7 -13   -0.10    0.30
   0   7  13   -0.90    0.40
  -1  -7 -13    0.50    0.40
   1   7  13    0.10    0.50
  -2  -7 -13    0.40    0.40
   2   7  13    0.10    0.50
  -3  -7 -13    0.10    0.40
   3   7  13    0.40    0.50
  -4  -7 -13    0.60    0.40
   4   7  13    1.00    0.50
   4   7  13    0.90    0.50
  -5  -7 -13    0.80    0.40
   5   7  13    1.10    0.50
   5   7  13    0.70    0.50
   1   8  13    1.00    0.60
   2   8  13   -0.60    0.40
   3   8  13    0.20    0.50
   4   8  13    0.00    0.50
   4   8  13   -0.10    0.40
   1  -2  14   -0.30    0.50
  -2   2 -14   -0.20    0.50
   2  -2  14   -0.30    0.50
   0  -1  14    0.70    0.50
   1  -1  14    0.40    0.50
  -2   1 -14    0.00    0.50
   2  -1  14    0.60    0.50
  -3   1 -14    0.20    0.50
   3  -1  14    0.10    0.50
   2   0 -14    0.60    0.40
  -2   0  14    0.80    0.60
  -1   0  14    0.30    0.50
   0   0  14    0.10    0.50
   1   0  14   -0.10    0.50
  -2   0 -14   -0.20    0.40
   2   0  14    0.40    0.50
  -3   0 -14    0.60    0.50
   3   0  14    0.10    0.50
  -4   0 -14    0.00    0.50
  -2   1  14   -0.10    0.50
   1  -1 -14    0.30    0.30
  -1   1  14    0.80    0.60
   0   1  14    0.10    0.50
   1   1  14   -0.50    0.40
  -2  -1 -14    0.60    0.50
   2   1  14    2.70    0.70
  -3  -1 -14    1.50    0.60
   3   1  14    0.80    0.50
  -4  -1 -14    0.20    0.50
   4   1  14    0.50    0.50
  -2   2  14    0.10    0.50
   1  -2 -14    1.80    0.40
  -1   2  14    1.10    0.60
   0  -2 -14    0.00    0.30
   0   2  14    0.30    0.50
  -1  -2 -14    3.00    0.50
   1   2  14    3.40    0.70
   2   2  14    0.00    0.50
   3   2  14    1.10    0.60
   4   2  14    1.80    0.70
   1  -3 -14    3.20    0.60
  -1   3  14    2.90    0.80
   0  -3 -14    0.40    0.40
   0   3  14    0.30    0.50
  -1  -3 -14    1.10    0.40
   1   3  14    0.70    0.60
  -2  -3 -14    0.00    0.30
   2   3  14    0.00    0.50
   3   3  14    1.40    0.60
   4   3  14    9.50    1.10
   1  -4 -14    0.60    0.40
   0  -4 -14    0.50    0.40
   0   4  14    0.30    0.60
  -1  -4 -14    0.50    0.40
   1   4  14    0.80    0.60
  -2  -4 -14    8.10    0.80
   2   4  14    7.80    1.00
  -3  -4 -14   12.90    1.00
   3   4  14   14.40    1.30
   4   4  14    4.10    0.80
   0  -5 -14    3.30    0.60
   0   5  14    2.90    0.80
  -1  -5 -14   10.30    0.90
   1   5  14    7.10    1.10
  -2  -5 -14    2.10    0.50
   2   5  14    1.80    0.70
  -3  -5 -14    0.20    0.40
   3   5  14    0.40    0.60
  -4  -5 -14    3.20    0.60
   4   5  14    3.50    0.80
  -2  -6 -14    4.30    0.70
   2   6  14    3.90    0.80
  -3  -6 -14    0.70    0.40
   3   6  14    0.90    0.60
  -4  -6 -14    1.30    0.50
   4   6  14    2.80    0.60
  -1  -3 -15    0.20    0.40
   0   0   0    0.00    0.00

_computing_structure_solution     'SHELXT 2014/5 (Sheldrick, 2014)'
;
_shelx_hkl_checksum              74979
loop_
_space_group_symop_operation_xyz
'x, y, z'
'-x, -y, -z'
loop_
_atom_site_label
_atom_site_type_symbol
_atom_site_fract_x
_atom_site_fract_y
_atom_site_fract_z
_atom_site_U_iso_or_equiv
_atom_site_adp_type
_atom_site_occupancy
_atom_site_site_symmetry_order
_atom_site_calc_flag
_atom_site_refinement_flags_posn
_atom_site_refinement_flags_adp
C1 C 0.7267(2) 0.45404(19) 0.12940(15) 0.0544(4) Uani 1 1 d . .
C2 C 0.7671(3) 0.5589(2) 0.01197(16) 0.0650(5) Uani 1 1 d . .
H2 H 0.7527 0.5341 -0.0708 0.078 Uiso 1 1 calc R U
C3 C 0.8296(3) 0.7019(2) 0.01566(18) 0.0672(5) Uani 1 1 d . .
H3 H 0.8607 0.7725 -0.0654 0.081 Uiso 1 1 calc R U
C4 C 0.8466(2) 0.74234(19) 0.13612(17) 0.0591(4) Uani 1 1 d . .
H4 H 0.8868 0.8406 0.1377 0.071 Uiso 1 1 calc R U
C5 C 0.80339(19) 0.63483(16) 0.25711(14) 0.0453(3) Uani 1 1 d . .
C6 C 0.74490(19) 0.48599(16) 0.25665(13) 0.0430(3) Uani 1 1 d . .
N4 N 0.70578(16) 0.37129(13) 0.36973(10) 0.0413(3) Uani 1 1 d . .
C8 C 0.71680(17) 0.39728(15) 0.49128(12) 0.0376(3) Uani 1 1 d . .
C9 C 0.77058(18) 0.54680(15) 0.50336(14) 0.0404(3) Uani 1 1 d . .
C10 C 0.81290(18) 0.65975(15) 0.38891(14) 0.0431(3) Uani 1 1 d . .
C11 C 0.67289(17) 0.26944(15) 0.60806(12) 0.0381(3) Uani 1 1 d . .
C12 C 0.5887(2) 0.14037(17) 0.59233(13) 0.0465(3) Uani 1 1 d . .
H12 H 0.5583 0.1364 0.5078 0.056 Uiso 1 1 calc R U
C13 C 0.5492(2) 0.01826(18) 0.69936(15) 0.0529(4) Uani 1 1 d . .
H13 H 0.4924 -0.0677 0.6869 0.064 Uiso 1 1 calc R U
C14 C 0.5926(2) 0.0218(2) 0.82430(15) 0.0558(4) Uani 1 1 d . .
H14 H 0.5651 -0.0610 0.8970 0.067 Uiso 1 1 calc R U
C15 C 0.6761(3) 0.1474(2) 0.84141(15) 0.0642(5) Uani 1 1 d . .
H15 H 0.7070 0.1497 0.9261 0.077 Uiso 1 1 calc R U
C16 C 0.7156(2) 0.2709(2) 0.73517(14) 0.0545(4) Uani 1 1 d . .
H16 H 0.7717 0.3566 0.7489 0.065 Uiso 1 1 calc R U
F1 F 0.66766(17) 0.31340(13) 0.12674(9) 0.0777(4) Uani 1 1 d . .
N1 N 0.85755(17) 0.78232(14) 0.43567(14) 0.0526(3) Uani 1 1 d . .
H1 H 0.8904 0.8707 0.3857 0.063 Uiso 1 1 calc R U
N2 N 0.84390(19) 0.74815(15) 0.57181(14) 0.0565(3) Uani 1 1 d . .
N3 N 0.79191(17) 0.60657(14) 0.61482(12) 0.0503(3) Uani 1 1 d . .
O1 O 0.93506(18) 0.08109(13) 0.30728(12) 0.0599(3) Uani 1 1 d D .
H1W H 0.850(3) 0.153(2) 0.322(2) 0.090 Uiso 1 1 d D U
H2W H 1.014(3) 0.115(3) 0.341(2) 0.090 Uiso 1 1 d D U
loop_
_atom_site_aniso_label
_atom_site_aniso_U_11
_atom_site_aniso_U_22
_atom_site_aniso_U_33
_atom_site_aniso_U_23
_atom_site_aniso_U_13
_atom_site_aniso_U_12
C1 0.0693(10) 0.0495(8) 0.0453(7) -0.0075(6) -0.0142(7) -0.0016(7)
C2 0.0836(12) 0.0651(11) 0.0432(7) -0.0039(7) -0.0145(8) 0.0051(9)
C3 0.0753(12) 0.0600(10) 0.0543(9) 0.0104(7) -0.0057(8) 0.0044(9)
C4 0.0625(10) 0.0440(8) 0.0647(9) 0.0020(7) -0.0072(8) -0.0022(7)
C5 0.0443(7) 0.0383(7) 0.0513(7) -0.0041(5) -0.0080(6) 0.0004(5)
C6 0.0479(7) 0.0391(7) 0.0417(6) -0.0065(5) -0.0090(5) -0.0001(6)
N4 0.0490(6) 0.0380(6) 0.0387(5) -0.0090(4) -0.0084(4) -0.0050(5)
C8 0.0362(6) 0.0374(6) 0.0414(6) -0.0125(5) -0.0063(5) -0.0026(5)
C9 0.0383(7) 0.0368(6) 0.0493(7) -0.0149(5) -0.0078(5) -0.0015(5)
C10 0.0390(7) 0.0333(6) 0.0578(8) -0.0099(5) -0.0092(6) -0.0008(5)
C11 0.0382(6) 0.0387(6) 0.0387(6) -0.0118(5) -0.0028(5) -0.0041(5)
C12 0.0587(8) 0.0459(7) 0.0381(6) -0.0117(5) -0.0053(6) -0.0136(6)
C13 0.0650(10) 0.0456(7) 0.0492(7) -0.0122(6) -0.0005(6) -0.0155(7)
C14 0.0650(10) 0.0542(9) 0.0432(7) -0.0023(6) 0.0008(7) -0.0096(7)
C15 0.0795(12) 0.0776(11) 0.0389(7) -0.0086(7) -0.0107(7) -0.0232(9)
C16 0.0665(10) 0.0602(9) 0.0420(7) -0.0128(6) -0.0078(6) -0.0224(7)
F1 0.1281(10) 0.0637(6) 0.0507(5) -0.0150(4) -0.0250(6) -0.0227(6)
N1 0.0537(8) 0.0346(6) 0.0719(8) -0.0129(5) -0.0098(6) -0.0074(5)
N2 0.0600(8) 0.0452(7) 0.0714(8) -0.0242(6) -0.0126(6) -0.0065(6)
N3 0.0531(7) 0.0453(7) 0.0590(7) -0.0230(5) -0.0099(5) -0.0062(5)
O1 0.0713(8) 0.0418(6) 0.0703(7) -0.0157(5) -0.0123(6) -0.0091(5)
loop_
_atom_type_symbol
_atom_type_description
_atom_type_scat_dispersion_real
_atom_type_scat_dispersion_imag
_atom_type_scat_source
C C 0.0033 0.0016 'International Tables Vol C Tables 4.2.6.8 and 6.1.1.4'
H H 0.0000 0.0000 'International Tables Vol C Tables 4.2.6.8 and 6.1.1.4'
N N 0.0061 0.0033 'International Tables Vol C Tables 4.2.6.8 and 6.1.1.4'
F F 0.0171 0.0103 'International Tables Vol C Tables 4.2.6.8 and 6.1.1.4'
O O 0.0106 0.0060 'International Tables Vol C Tables 4.2.6.8 and 6.1.1.4'
loop_
_geom_angle_atom_site_label_1
_geom_angle_atom_site_label_2
_geom_angle_atom_site_label_3
_geom_angle
F1 C1 C2 120.11(15)
F1 C1 C6 117.44(13)
C2 C1 C6 122.45(17)
C1 C2 C3 119.63(17)
C1 C2 H2 120.2
C3 C2 H2 120.2
C4 C3 C2 121.04(15)
C4 C3 H3 119.5
C2 C3 H3 119.5
C3 C4 C5 119.26(17)
C3 C4 H4 120.4
C5 C4 H4 120.4
C4 C5 C6 121.18(14)
C4 C5 C10 125.85(15)
C6 C5 C10 112.96(12)
N4 C6 C5 125.09(13)
N4 C6 C1 118.52(14)
C5 C6 C1 116.39(13)
C8 N4 C6 120.66(12)
N4 C8 C9 118.71(12)
N4 C8 C11 117.87(12)
C9 C8 C11 123.43(12)
N3 C9 C10 108.50(13)
N3 C9 C8 131.42(13)
C10 C9 C8 120.08(13)
N1 C10 C9 104.63(13)
N1 C10 C5 132.90(13)
C9 C10 C5 122.46(13)
C12 C11 C16 117.73(13)
C12 C11 C8 119.92(12)
C16 C11 C8 122.34(13)
C13 C12 C11 120.95(13)
C13 C12 H12 119.5
C11 C12 H12 119.5
C14 C13 C12 120.44(14)
C14 C13 H13 119.8
C12 C13 H13 119.8
C15 C14 C13 119.40(14)
C15 C14 H14 120.3
C13 C14 H14 120.3
C14 C15 C16 120.72(15)
C14 C15 H15 119.6
C16 C15 H15 119.6
C15 C16 C11 120.76(15)
C15 C16 H16 119.6
C11 C16 H16 119.6
C10 N1 N2 110.16(13)
C10 N1 H1 124.9
N2 N1 H1 124.9
N3 N2 N1 109.26(12)
N2 N3 C9 107.45(13)
H1W O1 H2W 98(2)
loop_
_geom_bond_atom_site_label_1
_geom_bond_atom_site_label_2
_geom_bond_distance
C1 F1 1.337(2)
C1 C2 1.353(2)
C1 C6 1.400(2)
C2 C3 1.370(3)
C2 H2 0.9300
C3 C4 1.361(3)
C3 H3 0.9300
C4 C5 1.393(2)
C4 H4 0.9300
C5 C6 1.397(2)
C5 C10 1.406(2)
C6 N4 1.3679(19)
N4 C8 1.3098(18)
C8 C9 1.421(2)
C8 C11 1.465(2)
C9 N3 1.3666(18)
C9 C10 1.372(2)
C10 N1 1.3307(19)
C11 C12 1.381(2)
C11 C16 1.381(2)
C12 C13 1.368(2)
C12 H12 0.9300
C13 C14 1.365(2)
C13 H13 0.9300
C14 C15 1.356(2)
C14 H14 0.9300
C15 C16 1.371(2)
C15 H15 0.9300
C16 H16 0.9300
N1 N2 1.339(2)
N1 H1 0.8600
N2 N3 1.287(2)
O1 H1W 0.855(16)
O1 H2W 0.840(16)
loop_
_geom_torsion_atom_site_label_1
_geom_torsion_atom_site_label_2
_geom_torsion_atom_site_label_3
_geom_torsion_atom_site_label_4
_geom_torsion
F1 C1 C2 C3 -179.22(15)
C6 C1 C2 C3 0.4(3)
C1 C2 C3 C4 -1.9(3)
C2 C3 C4 C5 1.3(3)
C3 C4 C5 C6 0.7(2)
C3 C4 C5 C10 -179.55(15)
C4 C5 C6 N4 177.58(13)
C10 C5 C6 N4 -2.2(2)
C4 C5 C6 C1 -2.1(2)
C10 C5 C6 C1 178.14(13)
F1 C1 C6 N4 1.5(2)
C2 C1 C6 N4 -178.16(15)
F1 C1 C6 C5 -178.80(13)
C2 C1 C6 C5 1.5(2)
C5 C6 N4 C8 1.9(2)
C1 C6 N4 C8 -178.39(13)
C6 N4 C8 C9 -0.14(19)
C6 N4 C8 C11 179.94(11)
N4 C8 C9 N3 179.36(13)
C11 C8 C9 N3 -0.7(2)
N4 C8 C9 C10 -1.1(2)
C11 C8 C9 C10 178.77(12)
N3 C9 C10 N1 -0.06(16)
C8 C9 C10 N1 -179.67(11)
N3 C9 C10 C5 -179.62(12)
C8 C9 C10 C5 0.8(2)
C4 C5 C10 N1 1.6(3)
C6 C5 C10 N1 -178.63(15)
C4 C5 C10 C9 -178.95(14)
C6 C5 C10 C9 0.78(19)
N4 C8 C11 C12 -12.66(19)
C9 C8 C11 C12 167.43(12)
N4 C8 C11 C16 166.17(13)
C9 C8 C11 C16 -13.7(2)
C16 C11 C12 C13 0.0(2)
C8 C11 C12 C13 178.85(12)
C11 C12 C13 C14 0.0(2)
C12 C13 C14 C15 -0.3(2)
C13 C14 C15 C16 0.7(3)
C14 C15 C16 C11 -0.7(3)
C12 C11 C16 C15 0.4(2)
C8 C11 C16 C15 -178.48(14)
C9 C10 N1 N2 -0.03(16)
C5 C10 N1 N2 179.46(15)
C10 N1 N2 N3 0.12(17)
N1 N2 N3 C9 -0.16(16)
C10 C9 N3 N2 0.14(16)
C8 C9 N3 N2 179.68(14)
