#------------------------------------------------------------------------------
#$Date: 2019-11-11 20:30:12 +0200 (Mon, 11 Nov 2019) $
#$Revision: 227276 $
#$URL: file:///home/coder/svn-repositories/cod/cif/4/03/58/4035864.cif $
#------------------------------------------------------------------------------
#
# This file is available in the Crystallography Open Database (COD),
# http://www.crystallography.net/
#
# All data on this site have been placed in the public domain by the
# contributors.
#
data_4035864
loop_
_publ_author_name
'Bookser, Brett C.'
'Weinhouse, Michael I.'
'Burns, Aaron C.'
'Valiere, Andrew N.'
'Valdez, Lino J.'
'Stanczak, Pawel'
'Na, Jim'
'Rheingold, Arnold L.'
'Moore, Curtis E.'
'Dyck, Brian'
_publ_section_title
;
 Solvent-Controlled, Site-Selective N-Alkylation Reactions of Azolo-Fused
 Ring Heterocycles at N1-, N2-, and N3-Positions, Including Pyrazolo[3,4-
 d]pyrimidines, Purines, [1,2,3]Triazolo[4,5]pyridines, and Related
 Deaza-Compounds.
;
_journal_issue                   12
_journal_name_full               'The Journal of organic chemistry'
_journal_page_first              6334
_journal_page_last               6353
_journal_paper_doi               10.1021/acs.joc.8b00540
_journal_volume                  83
_journal_year                    2018
_chemical_formula_moiety         'C7 H8 N4 O'
_chemical_formula_sum            'C7 H8 N4 O'
_chemical_formula_weight         164.17
_space_group_crystal_system      monoclinic
_space_group_IT_number           14
_space_group_name_Hall           '-P 2ybc'
_space_group_name_H-M_alt        'P 1 21/c 1'
_atom_sites_solution_hydrogens   geom
_atom_sites_solution_primary     direct
_atom_sites_solution_secondary   difmap
_audit_creation_date             2015-08-10
_audit_creation_method
;
Olex2 1.2-beta
(compiled 2015.01.26 svn.r3150 for OlexSys, GUI svn.r4998)
;
_cell_angle_alpha                90
_cell_angle_beta                 93.71(3)
_cell_angle_gamma                90
_cell_formula_units_Z            4
_cell_length_a                   9.381(7)
_cell_length_b                   12.286(8)
_cell_length_c                   6.591(5)
_cell_measurement_reflns_used    835
_cell_measurement_temperature    150
_cell_measurement_theta_max      23.200
_cell_measurement_theta_min      2.736
_cell_volume                     758.1(9)
_computing_cell_refinement       'SAINT v8.34A (Bruker, 2013)'
_computing_data_collection       'APEX2 v2013.6-2 (Bruker, 2013)'
_computing_data_reduction        'SAINT v8.34A (Bruker, 2013)'
_computing_molecular_graphics    'Olex2 (Dolomanov et al., 2009)'
_computing_publication_material  'Olex2 (Dolomanov et al., 2009)'
_computing_structure_refinement  'ShelXL (Sheldrick, 2008)'
_computing_structure_solution    'XT (Sheldrick, 2008)'
_diffrn_ambient_temperature      150
_diffrn_detector                 'Bruker APEX CCD'
_diffrn_detector_area_resol_mean 8.0
_diffrn_detector_type            'CCD Area Detector'
_diffrn_measured_fraction_theta_full 0.928
_diffrn_measured_fraction_theta_max 0.997
_diffrn_measurement_device       'Kappa Four-Circle Diffractometer'
_diffrn_measurement_device_type  'Bruker APEX-II CCD'
_diffrn_measurement_method       '\f and \w scans'
_diffrn_radiation_monochromator  graphite
_diffrn_radiation_probe          x-ray
_diffrn_radiation_type           MoK\a
_diffrn_radiation_wavelength     0.71073
_diffrn_reflns_av_unetI/netI     0.1265
_diffrn_reflns_Laue_measured_fraction_full 0.928
_diffrn_reflns_Laue_measured_fraction_max 0.997
_diffrn_reflns_limit_h_max       11
_diffrn_reflns_limit_h_min       -11
_diffrn_reflns_limit_k_max       14
_diffrn_reflns_limit_k_min       -14
_diffrn_reflns_limit_l_max       7
_diffrn_reflns_limit_l_min       -7
_diffrn_reflns_number            3403
_diffrn_reflns_point_group_measured_fraction_full 0.928
_diffrn_reflns_point_group_measured_fraction_max 0.997
_diffrn_reflns_theta_full        26.000
_diffrn_reflns_theta_max         25.400
_diffrn_reflns_theta_min         2.735
_diffrn_source                   'sealed tube'
_diffrn_source_type              fine-focus
_diffrn_standards_number         0
_exptl_absorpt_coefficient_mu    0.104
_exptl_absorpt_correction_T_max  0.0973
_exptl_absorpt_correction_T_min  0.0480
_exptl_absorpt_correction_type   multi-scan
_exptl_absorpt_process_details
;
 TWINABS-2012/1 (Bruker,2012) was used for absorption correction.
 
For component 1:
 wR2(int) was 0.0519 before and 0.0351 after correction.
 The Ratio of minimum to maximum transmission not present.
 The \l/2 correction factor is Not present
 
For component 2:
 wR2(int) was 0.0535 before and 0.0333 after correction.
 The Ratio of minimum to maximum transmission is 0.79.
 The \l/2 correction factor is Not present

Final HKLF 4 output contains 6173 reflections, Rint = 0.0651
 (2206 with I > 3sig(I), Rint = 0.0398)
;
_exptl_crystal_colour            colorless
_exptl_crystal_colour_primary    colorless
_exptl_crystal_density_diffrn    1.438
_exptl_crystal_description       plate
_exptl_crystal_F_000             344
_exptl_crystal_size_max          0.3
_exptl_crystal_size_mid          0.3
_exptl_crystal_size_min          0.1
_refine_diff_density_max         0.244
_refine_diff_density_min         -0.404
_refine_diff_density_rms         0.066
_refine_ls_extinction_method     none
_refine_ls_goodness_of_fit_ref   0.919
_refine_ls_hydrogen_treatment    constr
_refine_ls_matrix_type           full
_refine_ls_number_parameters     112
_refine_ls_number_reflns         3403
_refine_ls_number_restraints     0
_refine_ls_restrained_S_all      0.919
_refine_ls_R_factor_all          0.1309
_refine_ls_R_factor_gt           0.0561
_refine_ls_shift/su_max          0.000
_refine_ls_shift/su_mean         0.000
_refine_ls_structure_factor_coef Fsqd
_refine_ls_weighting_details
'w=1/[\s^2^(Fo^2^)+(0.0445P)^2^] where P=(Fo^2^+2Fc^2^)/3'
_refine_ls_weighting_scheme      calc
_refine_ls_wR_factor_gt          0.0972
_refine_ls_wR_factor_ref         0.1159
_reflns_Friedel_coverage         0.000
_reflns_number_gt                1854
_reflns_number_total             3403
_reflns_threshold_expression     'I > 2\s(I)'
_cod_data_source_file            jo8b00540_si_003.cif
_cod_data_source_block           dart130
_cod_depositor_comments
;
The following automatic conversions were performed:

data item '_diffrn_radiation_probe' value 'X-ray' was changed to
'x-ray' in accordance with the
/home/data/users/saulius/crontab/automatic-downloads/current/ACS/lib/dictionaries/cif_core.dic
dictionary named 'cif_core.dic' version 2.4.2 last updated on
2011-04-26.

Automatic conversion script
Id: cif_fix_values 6909 2019-04-08 15:41:33Z antanas 
;
_cod_database_code               4035864
_shelxl_version_number           2014-3
_shelx_space_group_comment
;
The symmetry employed for this shelxl refinement is uniquely defined
by the following loop, which should always be used as a source of
symmetry information in preference to the above space-group names.
They are only intended as comments.
;
_shelx_estimated_absorpt_t_max   0.990
_shelx_estimated_absorpt_t_min   0.970
_olex2_refinement_description
;
1. Twinned data refinement
 Scales: 0.509(2) 0.491(2)
2. Fixed Uiso
 At 1.2 times of:
  All C(H) groups
 At 1.5 times of:
  All C(H,H,H) groups
3.a Aromatic/amide H refined with riding coordinates:
 C006(H006), C00A(H00A)
3.b Idealised Me refined as rotating group:
 C00B(H00B,H00C,H00D), C00C(H00E,H00F,H00G)
;
_shelx_res_file
;
TITL PC1C_a.res in P2(1)/c
REM Old TITL PC1C in P2(1)/c
REM SHELXT solution in P2(1)/c
REM R1 0.267, Rweak 0.052, Alpha 0.116, Orientation as input
REM Formula found by SHELXT: C10 N O
CELL 0.71073 9.381 12.2863 6.5912 90 93.715 90
ZERR 4 0.0065 0.0083 0.0051 0 0.029 0
LATT 1
SYMM -X,0.5+Y,0.5-Z
SFAC C H N O
UNIT 28 32 16 4

L.S. 10
PLAN  20
SIZE 0.1 0.3 0.3
TEMP -123.15
BOND $H
fmap 2
MORE -1
ACTA 52
CONF
REM <olex2.extras>
REM <HklSrc "%.\\twin5.hkl">
REM </olex2.extras>

WGHT    0.044500
BASF   0.49117
FVAR       0.62515
O001  4    0.394441    0.269146    0.746081    11.00000    0.01558    0.01892 =
         0.04897   -0.00001    0.00253   -0.00196
N002  3    0.841635    0.185603    0.737603    11.00000    0.02170    0.01687 =
         0.02444   -0.00188    0.00170    0.00213
N003  3    0.501008    0.437901    0.747064    11.00000    0.02425    0.01383 =
         0.03687   -0.00141    0.00398   -0.00275
N004  3    0.888607    0.290921    0.737192    11.00000    0.01968    0.02274 =
         0.02878   -0.00043    0.00233   -0.00297
N005  3    0.759946    0.458371    0.741364    11.00000    0.02278    0.01903 =
         0.04494   -0.00029    0.00120   -0.00313
C006  1    0.700705    0.173882    0.740983    11.00000    0.01618    0.01744 =
         0.02343   -0.00096    0.00270   -0.00313
AFIX  43
H006  2    0.648750    0.107556    0.742774    11.00000   -1.20000
AFIX   0
C007  1    0.765927    0.347473    0.739876    11.00000    0.02414    0.01719 =
         0.01697   -0.00168    0.00125   -0.00020
C008  1    0.512129    0.331439    0.743929    11.00000    0.01987    0.01906 =
         0.01809   -0.00108    0.00129   -0.00374
C009  1    0.645505    0.278585    0.741347    11.00000    0.01558    0.01567 =
         0.01501    0.00101    0.00022   -0.00163
C00A  1    0.627635    0.494202    0.744564    11.00000    0.03580    0.01261 =
         0.04115   -0.00003   -0.00142   -0.00117
AFIX  43
H00A  2    0.618246    0.571188    0.745252    11.00000   -1.20000
AFIX   0
C00B  1    0.948114    0.098589    0.739316    11.00000    0.02021    0.02787 =
         0.04998    0.00080    0.00507    0.00547
AFIX 137
H00B  2    1.002459    0.104215    0.617682    11.00000   -1.50000
H00C  2    0.899934    0.027837    0.740433    11.00000   -1.50000
H00D  2    1.013290    0.105413    0.860981    11.00000   -1.50000
AFIX   0
C00C  1    0.258329    0.326056    0.747162    11.00000    0.01376    0.03266 =
         0.07329    0.00001    0.00511    0.00223
AFIX 137
H00E  2    0.247796    0.374847    0.629524    11.00000   -1.50000
H00F  2    0.255375    0.368666    0.872509    11.00000   -1.50000
H00G  2    0.180215    0.272953    0.740179    11.00000   -1.50000
AFIX   0
HKLF 5

REM  PC1C_a.res in P2(1)/c
REM R1 =  0.0561 for    1854 Fo > 4sig(Fo)  and  0.1309 for all    3403 data
REM    112 parameters refined using      0 restraints

END

WGHT      0.0445      0.0000

REM Highest difference peak  0.244,  deepest hole -0.404,  1-sigma level  0.066
Q1    1   0.9632  0.2970  0.6876  11.00000  0.05    0.24
Q2    1   0.1040  0.3631  0.8890  11.00000  0.05    0.24
Q3    1   0.3490  0.4212  0.9167  11.00000  0.05    0.23
Q4    1   0.9581  0.0507  0.9091  11.00000  0.05    0.22
Q5    1   0.6682  0.0464  0.6663  11.00000  0.05    0.21
Q6    1   0.5892  0.6627  0.5698  11.00000  0.05    0.19
Q7    1   0.5812  0.2989  0.7620  11.00000  0.05    0.19
Q8    1   0.7340  0.0356  0.9248  11.00000  0.05    0.19
Q9    1   0.7336  0.3404  0.5636  11.00000  0.05    0.19
Q10   1   0.6606  0.0792  0.8145  11.00000  0.05    0.19
Q11   1   0.0425  0.2852  0.9071  11.00000  0.05    0.18
Q12   1   0.5323  0.1222  0.8832  11.00000  0.05    0.18
Q13   1   0.5641  0.2618  0.6286  11.00000  0.05    0.18
Q14   1   0.8799  0.3346  0.6133  11.00000  0.05    0.18
Q15   1   0.6188  0.5506  0.8536  11.00000  0.05    0.18
Q16   1   0.5988  0.3282  0.8795  11.00000  0.05    0.17
Q17   1   0.7944  0.4407  0.9195  11.00000  0.05    0.17
Q18   1   1.0089 -0.0458  0.8696  11.00000  0.05    0.17
Q19   1   0.4403  0.2074  0.6123  11.00000  0.05    0.17
Q20   1   0.2244  0.4614  0.6230  11.00000  0.05    0.17
;
_shelx_res_checksum              112
_shelx_hkl_file
;
   2   0   0 284.248 4.79505  -2
   2   0   0 284.248 4.79505   1
   3   0   0 22.2070 2.35949  -2
   3   0   0 22.2070 2.35949   1
   4   0   0 34.7096 2.41684  -2
   4   0   0 34.7096 2.41684   1
   5   0   0 28.0311 2.27411  -2
   5   0   0 28.0311 2.27411   1
   6   0   0 8.28743 1.85037  -2
   6   0   0 8.28743 1.85037   1
   7   0   0 150.405 4.88557  -2
   7   0   0 150.405 4.88557   1
   8   0   0 443.533 11.3615  -2
   8   0   0 443.533 11.3615   1
   9   0   0 117.321 10.2046  -2
   9   0   0 117.321 10.2046   1
  10   0   0 -0.6744 3.40408  -2
  10   0   0 -0.6744 3.40408   1
  11   0   0 51.8444 11.0566  -2
  11   0   0 51.8444 11.0566   1
   0   1   0 0.15540 0.55504  -2
   0  -1   0 0.15540 0.55504   1
   0  -1   0 0.08829 0.40817  -2
   0   1   0 0.08829 0.40817   1
   1   1   0 1193.55 8.39132  -2
  -1  -1   0 1193.55 8.39132   1
  -1  -1   0 1198.64 8.67323  -2
   1   1   0 1198.64 8.67323   1
   2   1   0 871.716 7.59650  -2
  -2  -1   0 871.716 7.59650   1
  -2  -1   0 801.109 5.55149  -2
   2   1   0 801.109 5.55149   1
   3   1   0 19.5597 1.75805  -2
  -3  -1   0 19.5597 1.75805   1
  -3  -1   0 17.2249 1.54967  -2
   3   1   0 17.2249 1.54967   1
   4   1   0 161.184 3.97856  -2
  -4  -1   0 161.184 3.97856   1
  -4  -1   0 144.951 3.33887  -2
   4   1   0 144.951 3.33887   1
   5   1   0 88.8027 3.53064  -2
  -5  -1   0 88.8027 3.53064   1
  -5  -1   0 87.5100 3.11312  -2
   5   1   0 87.5100 3.11312   1
   6   1   0 98.6029 3.70531  -2
  -6  -1   0 98.6029 3.70531   1
  -6  -1   0 100.778 3.77911  -2
   6   1   0 100.778 3.77911   1
   7   1   0 115.616 4.49441  -2
  -7  -1   0 115.616 4.49441   1
  -7  -1   0 122.007 5.21462  -2
   7   1   0 122.007 5.21462   1
   8   1   0 93.9443 9.18553  -2
  -8  -1   0 93.9443 9.18553   1
  -8  -1   0 83.9297 8.30815  -2
   8   1   0 83.9297 8.30815   1
   9   1   0 31.2705 8.46868  -2
  -9  -1   0 31.2705 8.46868   1
  -9  -1   0 27.2125 4.40141  -2
   9   1   0 27.2125 4.40141   1
  10   1   0 24.0577 8.99453  -2
 -10  -1   0 24.0577 8.99453   1
 -10  -1   0 5.67195 3.94513  -2
  10   1   0 5.67195 3.94513   1
  11   1   0 6.94792 8.74275  -2
 -11  -1   0 6.94792 8.74275   1
 -11  -1   0 -2.4557 7.64138  -2
  11   1   0 -2.4557 7.64138   1
   0   2   0 1301.58 10.0065  -2
   0  -2   0 1301.58 10.0065   1
   0  -2   0 1227.43 9.53851  -2
   0   2   0 1227.43 9.53851   1
   1   2   0 1.45598 0.62570  -2
  -1  -2   0 1.45598 0.62570   1
  -1  -2   0 0.99181 0.63966  -2
   1   2   0 0.99181 0.63966   1
   2   2   0 176.748 2.49338  -2
  -2  -2   0 176.748 2.49338   1
  -2  -2   0 154.337 2.75585  -2
   2   2   0 154.337 2.75585   1
   3   2   0 0.88052 1.14940  -2
  -3  -2   0 0.88052 1.14940   1
  -3  -2   0 -0.0259 1.04193  -2
   3   2   0 -0.0259 1.04193   1
   4   2   0 641.703 7.41647  -2
  -4  -2   0 641.703 7.41647   1
  -4  -2   0 593.451 6.89030  -2
   4   2   0 593.451 6.89030   1
   5   2   0 0.47344 1.38429  -2
  -5  -2   0 0.47344 1.38429   1
  -5  -2   0 -0.4355 1.22054  -2
   5   2   0 -0.4355 1.22054   1
   6   2   0 0.49130 1.41877  -2
  -6  -2   0 0.49130 1.41877   1
  -6  -2   0 -0.5842 1.43964  -2
   6   2   0 -0.5842 1.43964   1
   7   2   0 83.9472 4.42586  -2
  -7  -2   0 83.9472 4.42586   1
  -7  -2   0 77.3420 5.15330  -2
   7   2   0 77.3420 5.15330   1
   8   2   0 2.77323 4.37083  -2
  -8  -2   0 2.77323 4.37083   1
   9   2   0 0.38740 7.30981  -2
  -9  -2   0 0.38740 7.30981   1
  -9  -2   0 0.84939 3.54989  -2
   9   2   0 0.84939 3.54989   1
  10   2   0 19.7798 8.99861  -2
 -10  -2   0 19.7798 8.99861   1
 -10  -2   0 3.00507 3.47937  -2
  10   2   0 3.00507 3.47937   1
  11   2   0 20.5373 10.1859  -2
 -11  -2   0 20.5373 10.1859   1
 -11  -2   0 -2.9087 5.08659  -2
  11   2   0 -2.9087 5.08659   1
   0   3   0 0.62227 1.99987  -2
   0  -3   0 0.62227 1.99987   1
   0  -3   0 1.05013 1.57331  -2
   0   3   0 1.05013 1.57331   1
   1   3   0 63.8473 1.75588  -2
  -1  -3   0 63.8473 1.75588   1
  -1  -3   0 68.7003 2.45686  -2
   1   3   0 68.7003 2.45686   1
   2   3   0 79.8928 1.85197  -2
  -2  -3   0 79.8928 1.85197   1
  -2  -3   0 89.1200 2.04207  -2
   2   3   0 89.1200 2.04207   1
   3   3   0 0.67317 0.86465  -2
  -3  -3   0 0.67317 0.86465   1
  -3  -3   0 0.84902 0.99217  -2
   3   3   0 0.84902 0.99217   1
   4   3   0 23.0730 1.57540  -2
  -4  -3   0 23.0730 1.57540   1
  -4  -3   0 21.4765 2.00700  -2
   4   3   0 21.4765 2.00700   1
   5   3   0 363.259 4.61310  -2
  -5  -3   0 363.259 4.61310   1
  -5  -3   0 360.193 8.28708  -2
   5   3   0 360.193 8.28708   1
   6   3   0 179.822 3.94312  -2
  -6  -3   0 179.822 3.94312   1
  -6  -3   0 186.138 6.91530  -2
   6   3   0 186.138 6.91530   1
   7   3   0 21.8481 2.71435  -2
  -7  -3   0 21.8481 2.71435   1
   8   3   0 35.8578 6.69483  -2
  -8  -3   0 35.8578 6.69483   1
  -8  -3   0 43.6766 7.20508  -2
   8   3   0 43.6766 7.20508   1
   9   3   0 -4.7956 7.24882  -2
  -9  -3   0 -4.7956 7.24882   1
  -9  -3   0 -4.4866 3.74166  -2
   9   3   0 -4.4866 3.74166   1
  10   3   0 6.74423 8.10750  -2
 -10  -3   0 6.74423 8.10750   1
 -10  -3   0 1.00086 3.47525  -2
  10   3   0 1.00086 3.47525   1
  11   3   0 0.96630 8.13482  -2
 -11  -3   0 0.96630 8.13482   1
 -11  -3   0 2.32557 4.01638  -2
  11   3   0 2.32557 4.01638   1
   0   4   0 156.023 6.23676  -2
   0  -4   0 156.023 6.23676   1
   0  -4   0 159.502 4.37387  -2
   0   4   0 159.502 4.37387   1
   1   4   0 353.736 4.57752  -2
  -1  -4   0 353.736 4.57752   1
  -1  -4   0 339.651 4.71140  -2
   1   4   0 339.651 4.71140   1
   2   4   0 1.18680 0.87017  -2
  -2  -4   0 1.18680 0.87017   1
  -2  -4   0 1.52452 1.02215  -2
   2   4   0 1.52452 1.02215   1
   3   4   0 57.5845 1.90058  -2
  -3  -4   0 57.5845 1.90058   1
  -3  -4   0 58.0430 1.98029  -2
   3   4   0 58.0430 1.98029   1
   4   4   0 986.897 7.93338  -2
  -4  -4   0 986.897 7.93338   1
  -4  -4   0 1083.01 12.4393  -2
   4   4   0 1083.01 12.4393   1
   5   4   0 119.196 2.73088  -2
  -5  -4   0 119.196 2.73088   1
  -5  -4   0 124.391 4.90383  -2
   5   4   0 124.391 4.90383   1
   6   4   0 8.58555 1.42068  -2
  -6  -4   0 8.58555 1.42068   1
  -6  -4   0 4.49619 2.00285  -2
   6   4   0 4.49619 2.00285   1
   7   4   0 3.98116 1.81335  -2
  -7  -4   0 3.98116 1.81335   1
  -7  -4   0 7.27637 2.18357  -2
   7   4   0 7.27637 2.18357   1
   8   4   0 67.2391 9.12190  -2
  -8  -4   0 67.2391 9.12190   1
  -8  -4   0 52.2200 7.75934  -2
   8   4   0 52.2200 7.75934   1
   9   4   0 -1.5902 7.62556  -2
  -9  -4   0 -1.5902 7.62556   1
  -9  -4   0 -3.3147 4.27400  -2
   9   4   0 -3.3147 4.27400   1
  10   4   0 5.35597 8.47435  -2
 -10  -4   0 5.35597 8.47435   1
 -10  -4   0 11.4145 5.91589  -2
  10   4   0 11.4145 5.91589   1
   0   5   0 0.67121 1.75153  -2
   0  -5   0 0.67121 1.75153   1
   0  -5   0 2.18214 1.89039  -2
   0   5   0 2.18214 1.89039   1
   1   5   0 1.21354 1.58421  -2
  -1  -5   0 1.21354 1.58421   1
  -1  -5   0 -0.1515 1.16206  -2
   1   5   0 -0.1515 1.16206   1
   2   5   0 50.4272 1.87888  -2
  -2  -5   0 50.4272 1.87888   1
  -2  -5   0 53.0413 2.70942  -2
   2   5   0 53.0413 2.70942   1
   3   5   0 80.3409 2.25013  -2
  -3  -5   0 80.3409 2.25013   1
  -3  -5   0 78.8230 2.36411  -2
   3   5   0 78.8230 2.36411   1
   4   5   0 82.3796 2.39001  -2
  -4  -5   0 82.3796 2.39001   1
  -4  -5   0 92.8823 3.43792  -2
   4   5   0 92.8823 3.43792   1
   5   5   0 18.6895 1.58504  -2
  -5  -5   0 18.6895 1.58504   1
  -5  -5   0 23.8527 2.45607  -2
   5   5   0 23.8527 2.45607   1
   6   5   0 0.97452 1.18927  -2
  -6  -5   0 0.97452 1.18927   1
  -6  -5   0 -3.6174 1.39846  -2
   6   5   0 -3.6174 1.39846   1
   7   5   0 19.4938 5.33328  -2
  -7  -5   0 19.4938 5.33328   1
  -7  -5   0 15.3983 2.58984  -2
   7   5   0 15.3983 2.58984   1
   8   5   0 42.8344 7.27495  -2
  -8  -5   0 42.8344 7.27495   1
  -8  -5   0 30.3936 6.26677  -2
   8   5   0 30.3936 6.26677   1
   9   5   0 31.8318 8.18122  -2
  -9  -5   0 31.8318 8.18122   1
  -9  -5   0 15.1254 5.51096  -2
   9   5   0 15.1254 5.51096   1
  10   5   0 4.00224 7.54306  -2
 -10  -5   0 4.00224 7.54306   1
 -10  -5   0 -1.5220 5.45275  -2
  10   5   0 -1.5220 5.45275   1
   0   6   0 175.743 5.63295  -2
   0  -6   0 175.743 5.63295   1
   0  -6   0 174.057 5.31097  -2
   0   6   0 174.057 5.31097   1
   1   6   0 -1.3386 1.66329  -2
  -1  -6   0 -1.3386 1.66329   1
  -1  -6   0 1.01685 1.43274  -2
   1   6   0 1.01685 1.43274   1
   2   6   0 595.556 6.12823  -2
  -2  -6   0 595.556 6.12823   1
  -2  -6   0 562.869 7.81393  -2
   2   6   0 562.869 7.81393   1
   3   6   0 48.5600 2.03562  -2
  -3  -6   0 48.5600 2.03562   1
  -3  -6   0 45.6820 3.28035  -2
   3   6   0 45.6820 3.28035   1
   4   6   0 91.2727 2.66847  -2
  -4  -6   0 91.2727 2.66847   1
  -4  -6   0 90.1906 2.66600  -2
   4   6   0 90.1906 2.66600   1
   5   6   0 37.8613 2.08168  -2
  -5  -6   0 37.8613 2.08168   1
  -5  -6   0 37.4294 2.86286  -2
   5   6   0 37.4294 2.86286   1
   6   6   0 4.14782 3.67571  -2
  -6  -6   0 4.14782 3.67571   1
  -6  -6   0 1.29717 1.78960  -2
   6   6   0 1.29717 1.78960   1
   7   6   0 23.6767 5.55749  -2
  -7  -6   0 23.6767 5.55749   1
  -7  -6   0 28.8983 6.25758  -2
   7   6   0 28.8983 6.25758   1
   8   6   0 23.4812 6.31094  -2
  -8  -6   0 23.4812 6.31094   1
  -8  -6   0 11.0968 4.83744  -2
   8   6   0 11.0968 4.83744   1
   9   6   0 -9.5474 7.87609  -2
  -9  -6   0 -9.5474 7.87609   1
  -9  -6   0 -3.1817 4.52954  -2
   9   6   0 -3.1817 4.52954   1
  10   6   0 -4.7591 8.31057  -2
 -10  -6   0 -4.7591 8.31057   1
 -10  -6   0 -6.0235 4.91307  -2
  10   6   0 -6.0235 4.91307   1
   0   7   0 1.93637 2.71421  -2
   0  -7   0 1.93637 2.71421   1
   0  -7   0 1.62303 4.26017  -2
   0   7   0 1.62303 4.26017   1
   1   7   0 407.862 8.48508  -2
  -1  -7   0 407.862 8.48508   1
  -1  -7   0 407.619 8.43082  -2
   1   7   0 407.619 8.43082   1
   2   7   0 2.59683 1.63027  -2
  -2  -7   0 2.59683 1.63027   1
  -2  -7   0 1.43210 2.27648  -2
   2   7   0 1.43210 2.27648   1
   3   7   0 6.26576 1.69642  -2
  -3  -7   0 6.26576 1.69642   1
  -3  -7   0 4.62050 2.16027  -2
   3   7   0 4.62050 2.16027   1
   4   7   0 113.796 3.06727  -2
  -4  -7   0 113.796 3.06727   1
  -4  -7   0 97.0886 4.11608  -2
   4   7   0 97.0886 4.11608   1
   5   7   0 13.0575 4.61192  -2
  -5  -7   0 13.0575 4.61192   1
  -5  -7   0 17.1524 2.39001  -2
   5   7   0 17.1524 2.39001   1
   6   7   0 20.1442 5.84197  -2
  -6  -7   0 20.1442 5.84197   1
  -6  -7   0 22.0609 5.92640  -2
   6   7   0 22.0609 5.92640   1
   7   7   0 1.75691 4.38738  -2
  -7  -7   0 1.75691 4.38738   1
  -7  -7   0 13.3003 5.89838  -2
   7   7   0 13.3003 5.89838   1
   8   7   0 3.45114 4.64805  -2
  -8  -7   0 3.45114 4.64805   1
  -8  -7   0 -0.2813 4.58930  -2
   8   7   0 -0.2813 4.58930   1
   9   7   0 1.67709 4.49719  -2
  -9  -7   0 1.67709 4.49719   1
  -9  -7   0 2.60919 4.98979  -2
   9   7   0 2.60919 4.98979   1
   0  -8   0 274.754 10.6289  -2
   0   8   0 274.754 10.6289   1
   1   8   0 0.20874 1.50835  -2
  -1  -8   0 0.20874 1.50835   1
  -1  -8   0 1.86285 3.20329  -2
   1   8   0 1.86285 3.20329   1
   2   8   0 8.24240 1.74742  -2
  -2  -8   0 8.24240 1.74742   1
  -2  -8   0 8.49673 3.00468  -2
   2   8   0 8.49673 3.00468   1
   3   8   0 313.206 5.27707  -2
  -3  -8   0 313.206 5.27707   1
  -3  -8   0 311.184 7.77217  -2
   3   8   0 311.184 7.77217   1
   4   8   0 171.974 3.96964  -2
  -4  -8   0 171.974 3.96964   1
  -4  -8   0 158.584 5.63832  -2
   4   8   0 158.584 5.63832   1
   5   8   0 195.501 5.82845  -2
  -5  -8   0 195.501 5.82845   1
  -5  -8   0 219.475 12.1383  -2
   5   8   0 219.475 12.1383   1
   6   8   0 50.2695 3.35012  -2
  -6  -8   0 50.2695 3.35012   1
  -6  -8   0 41.1061 8.03934  -2
   6   8   0 41.1061 8.03934   1
   7   8   0 4.99311 4.77810  -2
  -7  -8   0 4.99311 4.77810   1
  -7  -8   0 6.16280 7.01685  -2
   7   8   0 6.16280 7.01685   1
   8   8   0 11.3258 5.70834  -2
  -8  -8   0 11.3258 5.70834   1
  -8  -8   0 4.54345 8.24933  -2
   8   8   0 4.54345 8.24933   1
   9   8   0 10.0358 5.93632  -2
  -9  -8   0 10.0358 5.93632   1
  -9  -8   0 18.4911 8.78466  -2
   9   8   0 18.4911 8.78466   1
   0  -9   0 2.95417 4.83146  -2
   0   9   0 2.95417 4.83146   1
   1   9   0 5.79659 2.27194  -2
  -1  -9   0 5.79659 2.27194   1
  -1  -9   0 4.90366 3.66711  -2
   1   9   0 4.90366 3.66711   1
   2   9   0 29.1575 3.30833  -2
  -2  -9   0 29.1575 3.30833   1
  -2  -9   0 29.2209 4.07124  -2
   2   9   0 29.2209 4.07124   1
   3   9   0 156.901 4.20180  -2
  -3  -9   0 156.901 4.20180   1
  -3  -9   0 163.587 6.50776  -2
   3   9   0 163.587 6.50776   1
   4   9   0 -0.6795 1.32900  -2
  -4  -9   0 -0.6795 1.32900   1
  -4  -9   0 1.74483 2.59572  -2
   4   9   0 1.74483 2.59572   1
   5   9   0 54.3697 8.11967  -2
  -5  -9   0 54.3697 8.11967   1
  -5  -9   0 52.7818 4.13303  -2
   5   9   0 52.7818 4.13303   1
   6   9   0 1.99605 4.18203  -2
  -6  -9   0 1.99605 4.18203   1
  -6  -9   0 20.6121 8.15996  -2
   6   9   0 20.6121 8.15996   1
   7   9   0 13.8207 5.58704  -2
  -7  -9   0 13.8207 5.58704   1
  -7  -9   0 16.9835 8.32546  -2
   7   9   0 16.9835 8.32546   1
   8   9   0 29.0153 6.94329  -2
  -8  -9   0 29.0153 6.94329   1
  -8  -9   0 20.8889 9.49890  -2
   8   9   0 20.8889 9.49890   1
   0 -10   0 0.32139 5.56317  -2
   0  10   0 0.32139 5.56317   1
   1  10   0 109.008 5.37389  -2
  -1 -10   0 109.008 5.37389   1
  -1 -10   0 104.203 6.20730  -2
   1  10   0 104.203 6.20730   1
   2  10   0 22.1842 3.04893  -2
  -2 -10   0 22.1842 3.04893   1
  -2 -10   0 24.3257 4.16799  -2
   2  10   0 24.3257 4.16799   1
   3  10   0 47.1671 3.58289  -2
  -3 -10   0 47.1671 3.58289   1
  -3 -10   0 43.8457 4.95543  -2
   3  10   0 43.8457 4.95543   1
   4  10   0 261.171 5.80782  -2
  -4 -10   0 261.171 5.80782   1
  -4 -10   0 255.204 8.16995  -2
   4  10   0 255.204 8.16995   1
   5  10   0 -1.4332 4.00694  -2
  -5 -10   0 -1.4332 4.00694   1
  -5 -10   0 4.14991 7.39652  -2
   5  10   0 4.14991 7.39652   1
   6  10   0 10.6355 5.86438  -2
  -6 -10   0 10.6355 5.86438   1
  -6 -10   0 11.8935 8.36890  -2
   6  10   0 11.8935 8.36890   1
   7  10   0 4.20013 5.41771  -2
  -7 -10   0 4.20013 5.41771   1
  -7 -10   0 4.64924 8.26525  -2
   7  10   0 4.64924 8.26525   1
   8  10   0 22.1853 6.51773  -2
  -8 -10   0 22.1853 6.51773   1
  -8 -10   0 19.4178 8.99145  -2
   8  10   0 19.4178 8.99145   1
   0 -11   0 0.98541 6.57251  -2
   0  11   0 0.98541 6.57251   1
   1  11   0 18.8931 5.00203  -2
  -1 -11   0 18.8931 5.00203   1
  -1 -11   0 20.6785 4.31474  -2
   1  11   0 20.6785 4.31474   1
   2  11   0 5.34932 2.47722  -2
  -2 -11   0 5.34932 2.47722   1
  -2 -11   0 1.59345 3.11948  -2
   2  11   0 1.59345 3.11948   1
   3  11   0 62.9633 4.02475  -2
  -3 -11   0 62.9633 4.02475   1
  -3 -11   0 63.3125 5.74034  -2
   3  11   0 63.3125 5.74034   1
   4  11   0 6.50918 5.13878  -2
  -4 -11   0 6.50918 5.13878   1
  -4 -11   0 5.70923 3.38879  -2
   4  11   0 5.70923 3.38879   1
   5  11   0 10.7121 5.87303  -2
  -5 -11   0 10.7121 5.87303   1
  -5 -11   0 15.8501 8.83555  -2
   5  11   0 15.8501 8.83555   1
   6  11   0 1.63787 4.78348  -2
  -6 -11   0 1.63787 4.78348   1
  -6 -11   0 -1.6563 7.96387  -2
   6  11   0 -1.6563 7.96387   1
   7  11   0 21.1020 6.57611  -2
  -7 -11   0 21.1020 6.57611   1
  -7 -11   0 -2.3286 8.48951  -2
   7  11   0 -2.3286 8.48951   1
   0 -12   0 31.2329 8.48272  -2
   0  12   0 31.2329 8.48272   1
   1  12   0 52.0796 5.91314  -2
  -1 -12   0 52.0796 5.91314   1
  -1 -12   0 42.7518 6.05620  -2
   1  12   0 42.7518 6.05620   1
   2  12   0 2.09007 2.30609  -2
  -2 -12   0 2.09007 2.30609   1
  -2 -12   0 -0.6684 4.49446  -2
   2  12   0 -0.6684 4.49446   1
   3  12   0 0.52099 5.10417  -2
  -3 -12   0 0.52099 5.10417   1
  -3 -12   0 3.14343 4.57186  -2
   3  12   0 3.14343 4.57186   1
   4  12   0 15.9352 6.40810  -2
  -4 -12   0 15.9352 6.40810   1
  -4 -12   0 19.1294 8.68743  -2
   4  12   0 19.1294 8.68743   1
   5  12   0 -0.3243 5.13225  -2
  -5 -12   0 -0.3243 5.13225   1
  -5 -12   0 10.5486 8.39821  -2
   5  12   0 10.5486 8.39821   1
   6  12   0 8.55027 5.77345  -2
  -6 -12   0 8.55027 5.77345   1
  -6 -12   0 -2.7058 7.97971  -2
   6  12   0 -2.7058 7.97971   1
   0  13   0 1.22582 3.79597  -2
   0 -13   0 1.22582 3.79597   1
   0 -13   0 0.20184 4.76202  -2
   0  13   0 0.20184 4.76202   1
   1  13   0 -0.7782 3.28019  -2
  -1 -13   0 -0.7782 3.28019   1
  -1 -13   0 -2.8096 4.16692  -2
   1  13   0 -2.8096 4.16692   1
  -2 -13   0 3.85723 4.99592  -2
   2  13   0 3.85723 4.99592   1
   3  13   0 1.25140 5.54254  -2
  -3 -13   0 1.25140 5.54254   1
  -3 -13   0 0.71669 8.52275  -2
   3  13   0 0.71669 8.52275   1
   4  13   0 3.48101 5.83729  -2
  -4 -13   0 3.48101 5.83729   1
  -4 -13   0 -4.4665 7.33898  -2
   4  13   0 -4.4665 7.33898   1
   5  13   0 -4.6650 4.68884  -2
  -5 -13   0 -4.6650 4.68884   1
  -5 -13   0 -8.5020 7.61766  -2
   5  13   0 -8.5020 7.61766   1
   0 -14   0 -2.1891 7.75914  -2
   0  14   0 -2.1891 7.75914   1
  -1 -14   0 17.1871 5.17571  -2
   1  14   0 17.1871 5.17571   1
  -2 -14   0 10.9517 9.76035  -2
   2  14   0 10.9517 9.76035   1
   3  14   0 0.94777 6.33778  -2
  -3 -14   0 0.94777 6.33778   1
  -3 -14   0 0.34901 8.70019  -2
   3  14   0 0.34901 8.70019   1
  11   0   1 2.38899 9.78626  -2
 -11   0   1 2.38899 9.78626   1
  10   0   1 0.47685 8.12554  -2
 -10   0   1 0.47685 8.12554   1
   9   0   1 -1.3056 7.52697  -2
  -9   0   1 -1.3056 7.52697   1
   8   0   1 9.95981 8.94765  -2
  -8   0   1 9.95981 8.94765   1
   6   0   1 3.40867 3.81962  -2
  -6   0   1 3.40867 3.81962   1
   5   0   1 -3.6121 3.63242  -2
  -5   0   1 -3.6121 3.63242   1
   4   0   1 2.11124 2.79877  -2
  -4   0   1 2.11124 2.79877   1
   3   0   1 -0.8786 2.36826  -2
  -3   0   1 -0.8786 2.36826   1
  -2   0   1 1.12341 1.92182   1
   2   0   1 -1.2558 2.67092  -2
  -2   0   1 -1.2558 2.67092   1
  -2   0   1 1.26126 1.44762   2
  -1   0   1 0.31788 0.79197   1
  -1   0   1 -0.1920 0.56401   2
   0   0   1 3.70027 0.80306   2
   0   0   1 4.14309 0.68277   1
   1   0   1 -0.1835 0.59585   1
   1   0   1 -0.6228 0.89463   2
   2   0   1 -0.1228 1.58488   1
  -2   0   1 -0.0342 2.65541  -2
   2   0   1 -0.0342 2.65541   1
   2   0   1 1.78764 2.16713   2
  -3   0   1 -1.0886 2.64912  -2
   3   0   1 -1.0886 2.64912   1
  -4   0   1 0.45526 2.72867  -2
   4   0   1 0.45526 2.72867   1
  -5   0   1 0.25886 3.10530  -2
   5   0   1 0.25886 3.10530   1
  -6   0   1 0.98022 3.25516  -2
   6   0   1 0.98022 3.25516   1
  -7   0   1 -2.5552 3.12994  -2
   7   0   1 -2.5552 3.12994   1
  -8   0   1 11.2759 8.71839  -2
   8   0   1 11.2759 8.71839   1
  -9   0   1 -3.7307 5.30349  -2
   9   0   1 -3.7307 5.30349   1
 -10   0   1 -13.455 10.4186  -2
  10   0   1 -13.455 10.4186   1
 -11   0   1 -10.722 10.6959  -2
  11   0   1 -10.722 10.6959   1
  11   1   1 -8.8294 10.7807  -2
  11  -1  -1 -8.8294 10.7807   1
  10   1   1 4.89322 10.2746  -2
  10  -1  -1 4.89322 10.2746   1
   9   1   1 39.5200 6.20213  -2
   9  -1  -1 39.5200 6.20213   1
  -9  -1  -1 26.6139 9.10645  -2
  -9   1   1 26.6139 9.10645   1
   8   1   1 112.262 11.1599  -2
   8  -1  -1 112.262 11.1599   1
  -8  -1  -1 100.161 10.2362  -2
  -8   1   1 100.161 10.2362   1
   7   1   1 109.803 9.98180  -2
   7  -1  -1 109.803 9.98180   1
  -7  -1  -1 107.604 11.3210  -2
  -7   1   1 107.604 11.3210   1
   6   1   1 36.9386 7.60442  -2
   6  -1  -1 36.9386 7.60442   1
  -6  -1  -1 39.7956 8.05304  -2
  -6   1   1 39.7956 8.05304   1
   5   1   1 0.83395 3.83256  -2
   5  -1  -1 0.83395 3.83256   1
  -5  -1  -1 4.21922 3.41700  -2
  -5   1   1 4.21922 3.41700   1
   4   1   1 123.505 4.35521  -2
   4  -1  -1 123.505 4.35521   1
  -4  -1  -1 122.177 5.16749  -2
  -4   1   1 122.177 5.16749   1
   3   1   1 44.5539 3.39966  -2
   3  -1  -1 44.5539 3.39966   1
   3  -1  -1 21.2363 3.31605   1
  -3  -1  -1 46.1058 4.15711  -2
  -3   1   1 46.1058 4.15711   1
   2  -1  -1 77.9879 2.11525   2
   2  -1  -1 77.1718 3.23826   1
   2   1   1 196.750 5.26965  -2
   2  -1  -1 196.750 5.26965   1
  -2  -1  -1 178.831 8.45327  -2
  -2   1   1 178.831 8.45327   1
  -2   1   1 80.2153 1.97938   2
  -2   1   1 85.3665 4.04585   1
   1  -1  -1 80.2257 2.03199   1
   1  -1  -1 81.9108 1.40629   2
   1   1   1 126.064 6.29214  -2
   1  -1  -1 126.064 6.29214   1
  -1   1   1 80.2860 2.09610   1
  -1   1   1 81.3759 2.56815   2
  -1  -1  -1 123.475 6.77267  -2
  -1   1   1 123.475 6.77267   1
   0  -1  -1 0.44828 0.48317   1
   0  -1  -1 0.76962 0.73495   2
   0   1   1 0.61979 0.52706   2
   0   1   1 0.31407 0.63149   1
  -1  -1  -1 46.9991 2.21234   1
  -1  -1  -1 49.1456 2.27382   2
   1   1   1 48.1612 1.92890   2
   1   1   1 48.4267 1.17621   1
  -2  -1  -1 104.097 2.21106   1
  -2  -1  -1 102.402 4.37764   2
   2   1   1 103.336 2.37142   1
   2   1   1 97.4186 3.55221   2
   2  -1  -1 186.627 6.75494  -2
   2   1   1 186.627 6.75494   1
  -3   1   1 36.2464 2.76997  -2
  -3  -1  -1 36.2464 2.76997   1
   3   1   1 24.4521 2.65801   1
   3   1   1 20.0558 3.32245   2
   3  -1  -1 33.1729 4.62347  -2
   3   1   1 33.1729 4.62347   1
  -4   1   1 106.906 3.21951  -2
  -4  -1  -1 106.906 3.21951   1
   4  -1  -1 119.812 4.18073  -2
   4   1   1 119.812 4.18073   1
  -5   1   1 0.81614 2.60476  -2
  -5  -1  -1 0.81614 2.60476   1
   5  -1  -1 2.79418 3.07677  -2
   5   1   1 2.79418 3.07677   1
  -6   1   1 38.2663 3.30204  -2
  -6  -1  -1 38.2663 3.30204   1
   6  -1  -1 38.1262 3.71244  -2
   6   1   1 38.1262 3.71244   1
  -7   1   1 98.5149 4.49097  -2
  -7  -1  -1 98.5149 4.49097   1
   7  -1  -1 95.9476 4.86903  -2
   7   1   1 95.9476 4.86903   1
  -8   1   1 104.894 5.87405  -2
  -8  -1  -1 104.894 5.87405   1
   8  -1  -1 95.7332 9.07888  -2
   8   1   1 95.7332 9.07888   1
  -9   1   1 43.7420 5.32106  -2
  -9  -1  -1 43.7420 5.32106   1
   9  -1  -1 37.4600 6.16542  -2
   9   1   1 37.4600 6.16542   1
 -10   1   1 -15.698 10.6209  -2
 -10  -1  -1 -15.698 10.6209   1
  10  -1  -1 -0.0422 9.94952  -2
  10   1   1 -0.0422 9.94952   1
 -11   1   1 25.0962 12.1894  -2
 -11  -1  -1 25.0962 12.1894   1
  11  -1  -1 -10.445 11.2086  -2
  11   1   1 -10.445 11.2086   1
  11  -2  -1 -0.0795 4.72153   1
  11  -2  -1 1.70707 4.02345   2
 -11   2   1 -0.2882 5.60495   2
 -11   2   1 5.28374 4.53753   1
  10   2   1 -4.3193 10.7229  -2
  10  -2  -1 -4.3193 10.7229   1
   9   2   1 21.5859 5.86100  -2
   9  -2  -1 21.5859 5.86100   1
  -9  -2  -1 3.34828 9.15617  -2
  -9   2   1 3.34828 9.15617   1
   8   2   1 393.059 11.0027  -2
   8  -2  -1 393.059 11.0027   1
  -8  -2  -1 352.412 15.8759  -2
  -8   2   1 352.412 15.8759   1
   7   2   1 154.764 7.58854  -2
   7  -2  -1 154.764 7.58854   1
  -7  -2  -1 155.989 11.7962  -2
  -7   2   1 155.989 11.7962   1
   6   2   1 69.1655 5.46590  -2
   6  -2  -1 69.1655 5.46590   1
  -6  -2  -1 78.5830 10.1122  -2
  -6   2   1 78.5830 10.1122   1
   5   2   1 26.6917 3.47210  -2
   5  -2  -1 26.6917 3.47210   1
  -5  -2  -1 26.5232 4.00299  -2
  -5   2   1 26.5232 4.00299   1
   4   2   1 484.505 5.44114  -2
   4  -2  -1 484.505 5.44114   1
  -4  -2  -1 529.341 8.98400  -2
  -4   2   1 529.341 8.98400   1
   3   2   1 463.006 4.94297  -2
   3  -2  -1 463.006 4.94297   1
   3  -2  -1 255.421 6.89065   1
  -3   2   1 258.199 8.03085   2
  -3  -2  -1 462.743 7.78003  -2
  -3   2   1 462.743 7.78003   1
   2   2   1 40.6732 2.59613  -2
   2  -2  -1 40.6732 2.59613   1
   2  -2  -1 26.1395 3.26781   1
   2  -2  -1 27.2804 3.57036   2
  -2  -2  -1 45.9538 7.35193  -2
  -2   2   1 45.9538 7.35193   1
  -2   2   1 26.2105 2.54652   2
  -2   2   1 26.1397 3.01770   1
   1  -2  -1 537.792 3.76909   2
   1  -2  -1 542.030 4.81478   1
   1   2   1 1198.04 10.8198  -2
   1  -2  -1 1198.04 10.8198   1
  -1   2   1 539.591 3.51510   2
  -1   2   1 541.508 4.73441   1
  -1  -2  -1 1180.36 18.7797  -2
  -1   2   1 1180.36 18.7797   1
   0  -2  -1 434.004 3.17187   1
   0  -2  -1 430.841 4.07077   2
   0   2   1 874.711 13.6361  -2
   0  -2  -1 874.711 13.6361   1
   0   2   1 431.190 3.87831   1
   0   2   1 433.412 3.32368   2
   0  -2  -1 889.938 8.41526  -2
   0   2   1 889.938 8.41526   1
  -1  -2  -1 491.795 4.59251   2
  -1  -2  -1 508.814 4.79448   1
   1   2   1 486.323 4.62865   2
   1   2   1 509.783 3.50552   1
   1  -2  -1 1036.62 14.9500  -2
   1   2   1 1036.62 14.9500   1
  -2  -2  -1 18.6260 2.11587   1
  -2  -2  -1 17.5025 2.45157   2
   2   2   1 18.3484 2.90143   1
   2  -2  -1 43.0961 2.43528  -2
   2   2   1 43.0961 2.43528   1
   2   2   1 16.9188 2.57813   2
  -3   2   1 433.368 10.6522  -2
  -3  -2  -1 433.368 10.6522   1
   3  -2  -1 457.288 7.64829  -2
   3   2   1 457.288 7.64829   1
   3   2   1 195.143 6.43040   2
  -4   2   1 456.457 5.63618  -2
  -4  -2  -1 456.457 5.63618   1
   4  -2  -1 449.262 11.1948  -2
   4   2   1 449.262 11.1948   1
  -5   2   1 25.3775 2.50027  -2
  -5  -2  -1 25.3775 2.50027   1
   5  -2  -1 27.0546 2.42873  -2
   5   2   1 27.0546 2.42873   1
  -6   2   1 73.8816 3.34556  -2
  -6  -2  -1 73.8816 3.34556   1
   6  -2  -1 75.0297 3.44731  -2
   6   2   1 75.0297 3.44731   1
  -7   2   1 151.482 5.05698  -2
  -7  -2  -1 151.482 5.05698   1
   7  -2  -1 140.719 4.69514  -2
   7   2   1 140.719 4.69514   1
  -8   2   1 371.609 7.80355  -2
  -8  -2  -1 371.609 7.80355   1
   8  -2  -1 375.201 14.0142  -2
   8   2   1 375.201 14.0142   1
  -9   2   1 -7.4250 9.91362  -2
  -9  -2  -1 -7.4250 9.91362   1
   9  -2  -1 15.3192 8.21033  -2
   9   2   1 15.3192 8.21033   1
 -10   2   1 -6.0034 10.6361  -2
 -10  -2  -1 -6.0034 10.6361   1
  10  -2  -1 -1.1349 8.02962  -2
  10   2   1 -1.1349 8.02962   1
  11  -3  -1 5.06017 4.05934   2
  11  -3  -1 13.9097 6.27007   1
 -11   3   1 1.33499 5.71021   2
 -11   3   1 -3.7537 3.46465   1
  10   3   1 43.3518 12.6643  -2
  10  -3  -1 43.3518 12.6643   1
   9   3   1 12.4174 8.80873  -2
   9  -3  -1 12.4174 8.80873   1
  -9  -3  -1 -11.904 8.98577  -2
  -9   3   1 -11.904 8.98577   1
   8   3   1 214.566 8.88218  -2
   8  -3  -1 214.566 8.88218   1
  -8  -3  -1 180.852 13.5489  -2
  -8   3   1 180.852 13.5489   1
   7   3   1 -4.2293 3.30090  -2
   7  -3  -1 -4.2293 3.30090   1
  -7  -3  -1 5.13214 7.37966  -2
  -7   3   1 5.13214 7.37966   1
   6   3   1 10.9159 3.29866  -2
   6  -3  -1 10.9159 3.29866   1
  -6  -3  -1 8.06923 7.50525  -2
  -6   3   1 8.06923 7.50525   1
   5   3   1 6.09890 2.69738  -2
   5  -3  -1 6.09890 2.69738   1
  -5  -3  -1 2.94194 3.44806  -2
  -5   3   1 2.94194 3.44806   1
   4   3   1 0.89323 2.25298  -2
   4  -3  -1 0.89323 2.25298   1
  -4  -3  -1 -1.9649 3.29867  -2
  -4   3   1 -1.9649 3.29867   1
   3   3   1 133.146 4.33562  -2
   3  -3  -1 133.146 4.33562   1
   3  -3  -1 72.7126 4.32829   1
  -3  -3  -1 142.978 5.19724  -2
  -3   3   1 142.978 5.19724   1
   2   3   1 170.615 4.39715  -2
   2  -3  -1 170.615 4.39715   1
   2  -3  -1 79.6680 4.27492   1
   2  -3  -1 68.2975 4.89751   2
  -2  -3  -1 174.802 5.82430  -2
  -2   3   1 174.802 5.82430   1
  -2   3   1 74.7020 3.00548   1
  -2   3   1 69.8487 5.15909   2
   1  -3  -1 481.589 5.91203   1
   1   3   1 998.726 10.8949  -2
   1  -3  -1 998.726 10.8949   1
   1  -3  -1 466.811 5.72663   2
  -1   3   1 488.162 5.05433   1
  -1   3   1 463.600 3.90448   2
  -1  -3  -1 1016.34 18.3399  -2
  -1   3   1 1016.34 18.3399   1
   0  -3  -1 -0.7976 1.03866   2
   0  -3  -1 0.78519 1.34664   1
   0   3   1 -1.8170 2.60272  -2
   0  -3  -1 -1.8170 2.60272   1
   0   3   1 -0.2353 1.10118   2
   0   3   1 1.40413 1.07758   1
   0  -3  -1 -4.5575 5.15492  -2
   0   3   1 -4.5575 5.15492   1
  -1  -3  -1 465.456 5.01191   2
  -1   3   1 938.453 9.89647  -2
  -1  -3  -1 938.453 9.89647   1
  -1  -3  -1 470.540 3.45406   1
   1  -3  -1 978.047 10.5722  -2
   1   3   1 978.047 10.5722   1
   1   3   1 467.505 9.28675   1
   1   3   1 459.454 5.87745   2
  -2  -3  -1 90.0136 5.45619   1
  -2   3   1 154.680 4.53002  -2
  -2  -3  -1 154.680 4.53002   1
  -2  -3  -1 84.4737 3.03529   2
   2  -3  -1 157.367 3.92664  -2
   2   3   1 157.367 3.92664   1
   2   3   1 83.7276 4.46056   2
   2   3   1 89.4912 5.31976   1
  -3   3   1 131.212 7.99484  -2
  -3  -3  -1 131.212 7.99484   1
   3  -3  -1 128.699 2.86636  -2
   3   3   1 128.699 2.86636   1
   3   3   1 52.6703 3.21358   2
  -4   3   1 -1.9188 3.89241  -2
  -4  -3  -1 -1.9188 3.89241   1
   4  -3  -1 0.27107 2.14070  -2
   4   3   1 0.27107 2.14070   1
   5  -3  -1 3.48386 2.74055  -2
   5   3   1 3.48386 2.74055   1
  -6   3   1 4.67459 7.40665  -2
  -6  -3  -1 4.67459 7.40665   1
   6  -3  -1 9.08561 3.31108  -2
   6   3   1 9.08561 3.31108   1
  -7   3   1 -0.5454 8.43011  -2
  -7  -3  -1 -0.5454 8.43011   1
   7  -3  -1 5.94855 3.44144  -2
   7   3   1 5.94855 3.44144   1
  -8   3   1 212.903 14.0332  -2
  -8  -3  -1 212.903 14.0332   1
   8  -3  -1 218.700 12.7307  -2
   8   3   1 218.700 12.7307   1
  -9   3   1 -5.8273 10.2737  -2
  -9  -3  -1 -5.8273 10.2737   1
   9  -3  -1 0.37325 8.28169  -2
   9   3   1 0.37325 8.28169   1
 -10   3   1 45.3620 11.7300  -2
 -10  -3  -1 45.3620 11.7300   1
  10  -3  -1 39.5424 10.4360  -2
  10   3   1 39.5424 10.4360   1
  10   4   1 1.69536 10.0133  -2
  10  -4  -1 1.69536 10.0133   1
   9   4   1 0.40917 9.00462  -2
   9  -4  -1 0.40917 9.00462   1
   8   4   1 33.3751 5.55208  -2
   8  -4  -1 33.3751 5.55208   1
  -8  -4  -1 26.5516 10.2094  -2
  -8   4   1 26.5516 10.2094   1
   7   4   1 44.9137 4.05342  -2
   7  -4  -1 44.9137 4.05342   1
  -7  -4  -1 35.3492 9.70417  -2
  -7   4   1 35.3492 9.70417   1
   6   4   1 171.974 5.17994  -2
   6  -4  -1 171.974 5.17994   1
  -6  -4  -1 162.102 11.6377  -2
  -6   4   1 162.102 11.6377   1
   5   4   1 14.3751 2.78483  -2
   5  -4  -1 14.3751 2.78483   1
  -5  -4  -1 8.70921 3.46819  -2
  -5   4   1 8.70921 3.46819   1
   4   4   1 114.490 4.08818  -2
   4  -4  -1 114.490 4.08818   1
  -4  -4  -1 100.229 4.89344  -2
  -4   4   1 100.229 4.89344   1
   3   4   1 183.057 4.84876  -2
   3  -4  -1 183.057 4.84876   1
   3  -4  -1 112.423 5.24602   1
  -3  -4  -1 171.112 3.83122  -2
  -3   4   1 171.112 3.83122   1
   2  -4  -1 47.8822 4.89075   2
   2   4   1 91.5988 3.89412  -2
   2  -4  -1 91.5988 3.89412   1
   2  -4  -1 51.2456 3.90367   1
  -2   4   1 49.5237 3.80152   1
  -2  -4  -1 97.3077 4.14120  -2
  -2   4   1 97.3077 4.14120   1
   1  -4  -1 9.32984 2.43743   1
   1   4   1 21.7042 3.02661  -2
   1  -4  -1 21.7042 3.02661   1
   1  -4  -1 7.16661 1.65959   2
  -1  -4  -1 27.3981 3.23760  -2
  -1   4   1 27.3981 3.23760   1
  -1   4   1 8.57900 2.91131   2
   0   4   1 145.099 5.30587  -2
   0  -4  -1 145.099 5.30587   1
   0  -4  -1 65.0164 3.02336   2
   0  -4  -1 68.9009 4.48220   1
   0  -4  -1 144.553 5.64409  -2
   0   4   1 144.553 5.64409   1
   0   4   1 68.1641 2.98958   1
   0   4   1 61.7569 4.21564   2
  -1   4   1 22.9573 1.85274  -2
  -1  -4  -1 22.9573 1.85274   1
  -1  -4  -1 10.0727 2.76554   1
   1   4   1 14.4838 1.85125   1
   1  -4  -1 28.5050 3.90614  -2
   1   4   1 28.5050 3.90614   1
   1   4   1 12.9299 2.65286   2
  -2   4   1 90.0436 4.07045  -2
  -2  -4  -1 90.0436 4.07045   1
  -2  -4  -1 38.6876 3.32770   2
   2  -4  -1 77.1201 6.94486  -2
   2   4   1 77.1201 6.94486   1
   2   4   1 36.7668 3.47815   2
   2   4   1 40.7418 4.38865   1
  -3   4   1 167.303 9.03808  -2
  -3  -4  -1 167.303 9.03808   1
   3  -4  -1 182.643 6.41163  -2
   3   4   1 182.643 6.41163   1
   3   4   1 62.8014 4.31701   2
  -4   4   1 109.066 8.37175  -2
  -4  -4  -1 109.066 8.37175   1
   4  -4  -1 111.952 3.35239  -2
   4   4   1 111.952 3.35239   1
  -5   4   1 6.16450 6.71381  -2
  -5  -4  -1 6.16450 6.71381   1
   5  -4  -1 10.7310 2.55804  -2
   5   4   1 10.7310 2.55804   1
  -6   4   1 167.057 10.8987  -2
  -6  -4  -1 167.057 10.8987   1
   6  -4  -1 160.182 4.85929  -2
   6   4   1 160.182 4.85929   1
  -7   4   1 33.0797 8.52649  -2
  -7  -4  -1 33.0797 8.52649   1
   7  -4  -1 41.2692 3.73513  -2
   7   4   1 41.2692 3.73513   1
  -8   4   1 33.6193 9.36085  -2
  -8  -4  -1 33.6193 9.36085   1
   8  -4  -1 46.3717 9.70671  -2
   8   4   1 46.3717 9.70671   1
  -9   4   1 0.79580 9.12871  -2
  -9  -4  -1 0.79580 9.12871   1
   9  -4  -1 25.3624 9.34676  -2
   9   4   1 25.3624 9.34676   1
 -10   4   1 6.47737 10.6761  -2
 -10  -4  -1 6.47737 10.6761   1
  10  -4  -1 14.3104 9.96694  -2
  10   4   1 14.3104 9.96694   1
  10   5   1 3.40009 11.0411  -2
  10  -5  -1 3.40009 11.0411   1
   9   5   1 23.7674 10.4583  -2
   9  -5  -1 23.7674 10.4583   1
   8   5   1 142.930 7.12064  -2
   8  -5  -1 142.930 7.12064   1
   7   5   1 2.04290 2.97635  -2
   7  -5  -1 2.04290 2.97635   1
  -7  -5  -1 0.66912 9.48406  -2
  -7   5   1 0.66912 9.48406   1
   6   5   1 44.5649 3.73959  -2
   6  -5  -1 44.5649 3.73959   1
  -6  -5  -1 53.0425 9.76175  -2
  -6   5   1 53.0425 9.76175   1
   5   5   1 -3.3849 3.18742  -2
   5  -5  -1 -3.3849 3.18742   1
  -5  -5  -1 9.15857 3.65136  -2
  -5   5   1 9.15857 3.65136   1
   4   5   1 137.702 4.26831  -2
   4  -5  -1 137.702 4.26831   1
  -4  -5  -1 144.549 5.55390  -2
  -4   5   1 144.549 5.55390   1
   3   5   1 210.679 4.66937  -2
   3  -5  -1 210.679 4.66937   1
   3  -5  -1 104.100 3.64148   2
  -3  -5  -1 208.231 4.86018  -2
  -3   5   1 208.231 4.86018   1
   2   5   1 0.51028 4.50093  -2
   2  -5  -1 0.51028 4.50093   1
   2  -5  -1 -1.0995 1.96867   1
  -2  -5  -1 0.57508 3.08601  -2
  -2   5   1 0.57508 3.08601   1
   1   5   1 2.35244 3.02933  -2
   1  -5  -1 2.35244 3.02933   1
   1  -5  -1 1.12185 2.36792   2
   1  -5  -1 0.07643 2.21739   1
  -1  -5  -1 0.71587 3.09592  -2
  -1   5   1 0.71587 3.09592   1
  -1   5   1 -1.4055 2.26783   1
   0  -5  -1 1.69745 2.31892   1
   0   5   1 4.14613 3.54808  -2
   0  -5  -1 4.14613 3.54808   1
   0  -5  -1 -1.5923 2.18025   2
   0   5   1 -1.5761 2.09900   1
   0  -5  -1 5.33101 2.92566  -2
   0   5   1 5.33101 2.92566   1
   0   5   1 0.15855 2.32511   2
  -1   5   1 1.56531 3.93508  -2
  -1  -5  -1 1.56531 3.93508   1
   1  -5  -1 3.25237 3.42577  -2
   1   5   1 3.25237 3.42577   1
   1   5   1 1.93488 2.16631   1
   1   5   1 2.54684 2.23475   2
  -2   5   1 -1.2399 3.43397  -2
  -2  -5  -1 -1.2399 3.43397   1
   2   5   1 -0.9774 1.90718   2
   2  -5  -1 0.51642 2.75271  -2
   2   5   1 0.51642 2.75271   1
  -3   5   1 198.755 4.94542  -2
  -3  -5  -1 198.755 4.94542   1
   3  -5  -1 207.471 10.3640  -2
   3   5   1 207.471 10.3640   1
   3   5   1 130.148 3.68999   1
  -4   5   1 138.153 9.51390  -2
  -4  -5  -1 138.153 9.51390   1
   4  -5  -1 124.018 8.59521  -2
   4   5   1 124.018 8.59521   1
   5  -5  -1 1.66690 2.10235  -2
   5   5   1 1.66690 2.10235   1
  -6   5   1 35.8415 8.52273  -2
  -6  -5  -1 35.8415 8.52273   1
   6  -5  -1 46.0612 3.34963  -2
   6   5   1 46.0612 3.34963   1
  -7   5   1 6.94163 8.87313  -2
  -7  -5  -1 6.94163 8.87313   1
   7  -5  -1 0.19635 8.21678  -2
   7   5   1 0.19635 8.21678   1
  -8   5   1 121.307 12.7309  -2
  -8  -5  -1 121.307 12.7309   1
   8  -5  -1 116.196 11.7374  -2
   8   5   1 116.196 11.7374   1
  -9   5   1 38.9552 11.3857  -2
  -9  -5  -1 38.9552 11.3857   1
   9  -5  -1 37.4014 10.9888  -2
   9   5   1 37.4014 10.9888   1
 -10   5   1 7.54797 10.8423  -2
 -10  -5  -1 7.54797 10.8423   1
  10  -5  -1 -10.873 10.6016  -2
  10   5   1 -10.873 10.6016   1
   9   6   1 2.21955 8.94843  -2
   9  -6  -1 2.21955 8.94843   1
   8   6   1 104.481 11.6322  -2
   8  -6  -1 104.481 11.6322   1
   7   6   1 67.1308 5.55938  -2
   7  -6  -1 67.1308 5.55938   1
   6   6   1 19.3372 3.06094  -2
   6  -6  -1 19.3372 3.06094   1
  -6  -6  -1 20.3354 10.0921  -2
  -6   6   1 20.3354 10.0921   1
   5   6   1 3.16529 3.04020  -2
   5  -6  -1 3.16529 3.04020   1
  -5  -6  -1 1.05062 3.70216  -2
  -5   6   1 1.05062 3.70216   1
   4   6   1 7.39944 2.98900  -2
   4  -6  -1 7.39944 2.98900   1
  -4  -6  -1 5.35944 2.88406  -2
  -4   6   1 5.35944 2.88406   1
   3   6   1 28.0606 3.19952  -2
   3  -6  -1 28.0606 3.19952   1
  -3  -6  -1 24.6570 4.41076  -2
  -3   6   1 24.6570 4.41076   1
   2   6   1 73.2424 4.71995  -2
   2  -6  -1 73.2424 4.71995   1
   2  -6  -1 38.9565 3.98391   1
  -2  -6  -1 67.6367 4.31042  -2
  -2   6   1 67.6367 4.31042   1
   1   6   1 79.1857 4.20811  -2
   1  -6  -1 79.1857 4.20811   1
   1  -6  -1 39.5008 4.32192   1
  -1  -6  -1 87.8038 4.30095  -2
  -1   6   1 87.8038 4.30095   1
   0   6   1 1146.74 13.8582  -2
   0  -6  -1 1146.74 13.8582   1
   0  -6  -1 1067.90 12.2507  -2
   0   6   1 1067.90 12.2507   1
  -1   6   1 82.8676 5.42357  -2
  -1  -6  -1 82.8676 5.42357   1
   1   6   1 38.3407 4.14219   2
   1  -6  -1 80.9368 4.96784  -2
   1   6   1 80.9368 4.96784   1
  -2   6   1 69.4610 4.95239  -2
  -2  -6  -1 69.4610 4.95239   1
   2   6   1 32.3630 3.75837   2
   2  -6  -1 75.4569 3.74133  -2
   2   6   1 75.4569 3.74133   1
  -3   6   1 21.9726 3.66755  -2
  -3  -6  -1 21.9726 3.66755   1
   3  -6  -1 20.7454 3.19049  -2
   3   6   1 20.7454 3.19049   1
  -4   6   1 4.89044 1.95696  -2
  -4  -6  -1 4.89044 1.95696   1
   4  -6  -1 6.75988 6.62842  -2
   4   6   1 6.75988 6.62842   1
  -5   6   1 10.2991 7.67638  -2
  -5  -6  -1 10.2991 7.67638   1
   5  -6  -1 13.1766 7.02313  -2
   5   6   1 13.1766 7.02313   1
  -6   6   1 31.0258 9.48974  -2
  -6  -6  -1 31.0258 9.48974   1
   6  -6  -1 20.5020 8.11713  -2
   6   6   1 20.5020 8.11713   1
  -7   6   1 93.4919 12.2151  -2
  -7  -6  -1 93.4919 12.2151   1
   7  -6  -1 74.2826 10.5456  -2
   7   6   1 74.2826 10.5456   1
  -8   6   1 88.1142 11.7406  -2
  -8  -6  -1 88.1142 11.7406   1
   8  -6  -1 100.637 11.6221  -2
   8   6   1 100.637 11.6221   1
  -9   6   1 -4.8190 9.52759  -2
  -9  -6  -1 -4.8190 9.52759   1
   9  -6  -1 -7.5730 9.62491  -2
   9   6   1 -7.5730 9.62491   1
 -10   6   1 0.58863 10.2736  -2
 -10  -6  -1 0.58863 10.2736   1
  10  -6  -1 7.75688 10.9310  -2
  10   6   1 7.75688 10.9310   1
   9   7   1 5.31312 9.65971  -2
   9  -7  -1 5.31312 9.65971   1
   8   7   1 20.9145 9.27732  -2
   8  -7  -1 20.9145 9.27732   1
   7   7   1 7.86486 9.21229  -2
   7  -7  -1 7.86486 9.21229   1
   6   7   1 88.4914 3.62498  -2
   6  -7  -1 88.4914 3.62498   1
   5   7   1 -0.3652 3.06823  -2
   5  -7  -1 -0.3652 3.06823   1
   4  -7  -1 41.6554 3.18017   2
   4   7   1 63.8437 3.76153  -2
   4  -7  -1 63.8437 3.76153   1
  -4  -7  -1 60.9306 5.35801  -2
  -4   7   1 60.9306 5.35801   1
   3   7   1 1.22726 2.78951  -2
   3  -7  -1 1.22726 2.78951   1
  -3  -7  -1 5.24342 4.59339  -2
  -3   7   1 5.24342 4.59339   1
   2   7   1 60.7833 4.66478  -2
   2  -7  -1 60.7833 4.66478   1
   2  -7  -1 23.2931 3.44596   1
  -2   7   1 25.7108 2.17736   2
  -2  -7  -1 63.0085 7.94739  -2
  -2   7   1 63.0085 7.94739   1
   1   7   1 2.84376 6.72253  -2
   1  -7  -1 2.84376 6.72253   1
  -1  -7  -1 12.1184 7.18645  -2
  -1   7   1 12.1184 7.18645   1
   0   7   1 0.44423 5.57082  -2
   0  -7  -1 0.44423 5.57082   1
   0  -7  -1 0.85268 3.92344  -2
   0   7   1 0.85268 3.92344   1
  -1   7   1 5.35742 4.46590  -2
  -1  -7  -1 5.35742 4.46590   1
   1  -7  -1 5.40707 4.33582  -2
   1   7   1 5.40707 4.33582   1
  -2   7   1 46.5602 4.89376  -2
  -2  -7  -1 46.5602 4.89376   1
  -2  -7  -1 28.5891 1.90676   1
   2  -7  -1 60.1853 3.90625  -2
   2   7   1 60.1853 3.90625   1
   2   7   1 30.3765 3.77494   2
  -3   7   1 8.12412 3.87450  -2
  -3  -7  -1 8.12412 3.87450   1
   3  -7  -1 2.53850 3.26359  -2
   3   7   1 2.53850 3.26359   1
  -4   7   1 59.9161 4.18067  -2
  -4  -7  -1 59.9161 4.18067   1
   4   7   1 35.2086 2.71877   1
   4  -7  -1 70.1229 9.32216  -2
   4   7   1 70.1229 9.32216   1
  -5   7   1 1.15189 7.79644  -2
  -5  -7  -1 1.15189 7.79644   1
   5  -7  -1 6.76261 7.64921  -2
   5   7   1 6.76261 7.64921   1
  -6   7   1 82.5380 10.7328  -2
  -6  -7  -1 82.5380 10.7328   1
   6  -7  -1 92.7042 10.4188  -2
   6   7   1 92.7042 10.4188   1
  -7   7   1 -5.9051 9.54490  -2
  -7  -7  -1 -5.9051 9.54490   1
   7  -7  -1 -4.4914 7.80837  -2
   7   7   1 -4.4914 7.80837   1
  -8   7   1 32.0814 12.0611  -2
  -8  -7  -1 32.0814 12.0611   1
   8  -7  -1 18.0463 9.94582  -2
   8   7   1 18.0463 9.94582   1
  -9   7   1 -0.8121 11.9770  -2
  -9  -7  -1 -0.8121 11.9770   1
   9  -7  -1 8.71533 9.55173  -2
   9   7   1 8.71533 9.55173   1
   9   8   1 2.72297 10.0890  -2
   9  -8  -1 2.72297 10.0890   1
   8   8   1 8.07720 10.3349  -2
   8  -8  -1 8.07720 10.3349   1
   7   8   1 47.7295 11.3288  -2
   7  -8  -1 47.7295 11.3288   1
   6   8   1 12.4574 4.80604  -2
   6  -8  -1 12.4574 4.80604   1
   5   8   1 2.81078 2.63891  -2
   5  -8  -1 2.81078 2.63891   1
   4   8   1 588.472 8.12718  -2
   4  -8  -1 588.472 8.12718   1
  -4  -8  -1 584.497 14.4518  -2
  -4   8   1 584.497 14.4518   1
   3   8   1 48.7182 4.93345  -2
   3  -8  -1 48.7182 4.93345   1
  -3  -8  -1 29.8644 7.03005  -2
  -3   8   1 29.8644 7.03005   1
   2   8   1 4.67225 4.03975  -2
   2  -8  -1 4.67225 4.03975   1
  -2  -8  -1 6.73239 6.91585  -2
  -2   8   1 6.73239 6.91585   1
  -2   8   1 5.81154 1.57837   2
   1   8   1 18.3117 7.81309  -2
   1  -8  -1 18.3117 7.81309   1
  -1  -8  -1 14.7607 7.38037  -2
  -1   8   1 14.7607 7.38037   1
   0  -8  -1 6.31388 7.10587  -2
   0   8   1 6.31388 7.10587   1
  -1   8   1 18.5239 8.49738  -2
  -1  -8  -1 18.5239 8.49738   1
   1  -8  -1 11.0800 4.94025  -2
   1   8   1 11.0800 4.94025   1
  -2   8   1 15.8209 4.67777  -2
  -2  -8  -1 15.8209 4.67777   1
  -2  -8  -1 4.99929 1.42735   1
   2  -8  -1 16.7106 4.66399  -2
   2   8   1 16.7106 4.66399   1
  -3   8   1 46.2507 5.39857  -2
  -3  -8  -1 46.2507 5.39857   1
   3  -8  -1 42.8663 4.60299  -2
   3   8   1 42.8663 4.60299   1
  -4   8   1 583.078 10.7677  -2
  -4  -8  -1 583.078 10.7677   1
   4  -8  -1 510.970 8.53354  -2
   4   8   1 510.970 8.53354   1
  -5   8   1 -2.7570 8.66778  -2
  -5  -8  -1 -2.7570 8.66778   1
   5  -8  -1 5.22606 8.34990  -2
   5   8   1 5.22606 8.34990   1
  -6   8   1 16.3743 8.80874  -2
  -6  -8  -1 16.3743 8.80874   1
   6  -8  -1 15.6816 9.93479  -2
   6   8   1 15.6816 9.93479   1
  -7   8   1 9.91909 9.20758  -2
  -7  -8  -1 9.91909 9.20758   1
   7  -8  -1 45.2958 10.7467  -2
   7   8   1 45.2958 10.7467   1
  -8   8   1 14.7225 10.2078  -2
  -8  -8  -1 14.7225 10.2078   1
   8  -8  -1 6.09997 9.27460  -2
   8   8   1 6.09997 9.27460   1
  -9   8   1 2.86360 10.4919  -2
  -9  -8  -1 2.86360 10.4919   1
   9  -8  -1 3.65192 10.4479  -2
   9   8   1 3.65192 10.4479   1
   8   9   1 2.05179 9.59728  -2
   8  -9  -1 2.05179 9.59728   1
   6   9   1 53.9210 5.54968  -2
   6  -9  -1 53.9210 5.54968   1
   5   9   1 136.581 6.12373  -2
   5  -9  -1 136.581 6.12373   1
   4   9   1 76.0518 5.54485  -2
   4  -9  -1 76.0518 5.54485   1
  -4  -9  -1 65.8687 7.65340  -2
  -4   9   1 65.8687 7.65340   1
   3   9   1 2.38375 4.28784  -2
   3  -9  -1 2.38375 4.28784   1
  -3  -9  -1 -4.5232 6.38868  -2
  -3   9   1 -4.5232 6.38868   1
   2   9   1 -1.1890 4.30096  -2
   2  -9  -1 -1.1890 4.30096   1
  -2   9   1 -0.2456 1.51783   2
  -2  -9  -1 -8.4321 7.16163  -2
  -2   9   1 -8.4321 7.16163   1
   1   9   1 36.4056 8.89767  -2
   1  -9  -1 36.4056 8.89767   1
  -1  -9  -1 25.2206 8.35716  -2
  -1   9   1 25.2206 8.35716   1
   0  -9  -1 9.77059 8.46904  -2
   0   9   1 9.77059 8.46904   1
   1  -9  -1 25.7943 5.57387  -2
   1   9   1 25.7943 5.57387   1
  -2   9   1 -3.4857 7.82447  -2
  -2  -9  -1 -3.4857 7.82447   1
  -2  -9  -1 0.56290 1.52522   1
   2  -9  -1 4.02161 4.87619  -2
   2   9   1 4.02161 4.87619   1
  -3   9   1 -2.3649 5.90733  -2
  -3  -9  -1 -2.3649 5.90733   1
   3  -9  -1 -0.4136 4.53335  -2
   3   9   1 -0.4136 4.53335   1
  -4   9   1 66.9989 5.71511  -2
  -4  -9  -1 66.9989 5.71511   1
   4  -9  -1 59.3528 4.59155  -2
   4   9   1 59.3528 4.59155   1
  -5   9   1 162.520 13.0671  -2
  -5  -9  -1 162.520 13.0671   1
   5  -9  -1 129.986 12.1041  -2
   5   9   1 129.986 12.1041   1
  -6   9   1 45.0320 11.0148  -2
  -6  -9  -1 45.0320 11.0148   1
   6  -9  -1 53.9717 10.5110  -2
   6   9   1 53.9717 10.5110   1
  -7   9   1 6.87154 10.7043  -2
  -7  -9  -1 6.87154 10.7043   1
   7  -9  -1 -5.9908 8.82939  -2
   7   9   1 -5.9908 8.82939   1
  -8   9   1 0.52592 10.3033  -2
  -8  -9  -1 0.52592 10.3033   1
   8  -9  -1 -7.5636 9.63466  -2
   8   9   1 -7.5636 9.63466   1
   8  10   1 0.94184 10.4985  -2
   8 -10  -1 0.94184 10.4985   1
   7  10   1 7.23371 10.1816  -2
   7 -10  -1 7.23371 10.1816   1
   6  10   1 -8.0685 9.71993  -2
   6 -10  -1 -8.0685 9.71993   1
   5  10   1 45.1896 5.13994  -2
   5 -10  -1 45.1896 5.13994   1
   4  10   1 303.600 8.36362  -2
   4 -10  -1 303.600 8.36362   1
  -4 -10  -1 303.213 12.6298  -2
  -4  10   1 303.213 12.6298   1
   3  10   1 108.956 6.29365  -2
   3 -10  -1 108.956 6.29365   1
  -3 -10  -1 110.408 10.1228  -2
  -3  10   1 110.408 10.1228   1
   2  10   1 87.3047 6.15664  -2
   2 -10  -1 87.3047 6.15664   1
  -2 -10  -1 84.3150 9.86298  -2
  -2  10   1 84.3150 9.86298   1
   1  10   1 1.10463 9.47416  -2
   1 -10  -1 1.10463 9.47416   1
  -1 -10  -1 9.60848 8.74805  -2
  -1  10   1 9.60848 8.74805   1
   0 -10  -1 141.814 8.27772  -2
   0  10   1 141.814 8.27772   1
   1 -10  -1 6.32755 5.33828  -2
   1  10   1 6.32755 5.33828   1
  -2  10   1 84.1324 3.99252  -2
  -2 -10  -1 84.1324 3.99252   1
   2 -10  -1 77.1202 6.74754  -2
   2  10   1 77.1202 6.74754   1
  -3  10   1 99.2080 12.1394  -2
  -3 -10  -1 99.2080 12.1394   1
   3 -10  -1 98.1835 6.73397  -2
   3  10   1 98.1835 6.73397   1
  -4  10   1 293.446 16.0838  -2
  -4 -10  -1 293.446 16.0838   1
   4 -10  -1 294.613 16.3105  -2
   4  10   1 294.613 16.3105   1
  -5  10   1 38.8915 11.0466  -2
  -5 -10  -1 38.8915 11.0466   1
   5 -10  -1 29.9245 10.7476  -2
   5  10   1 29.9245 10.7476   1
  -6  10   1 3.66922 10.0456  -2
  -6 -10  -1 3.66922 10.0456   1
  -7  10   1 -0.9480 10.4926  -2
  -7 -10  -1 -0.9480 10.4926   1
   7 -10  -1 19.9299 10.0965  -2
   7  10   1 19.9299 10.0965   1
  -8  10   1 16.6916 11.4498  -2
  -8 -10  -1 16.6916 11.4498   1
   8 -10  -1 4.18873 9.49517  -2
   8  10   1 4.18873 9.49517   1
   7  11   1 -3.9137 10.3909  -2
   7 -11  -1 -3.9137 10.3909   1
   6  11   1 7.86281 10.9204  -2
   6 -11  -1 7.86281 10.9204   1
   5  11   1 13.2172 10.2854  -2
   5 -11  -1 13.2172 10.2854   1
   4  11   1 30.6820 5.22799  -2
   4 -11  -1 30.6820 5.22799   1
  -4 -11  -1 19.8649 7.56433  -2
  -4  11   1 19.8649 7.56433   1
   3  11   1 123.191 6.67821  -2
   3 -11  -1 123.191 6.67821   1
  -3 -11  -1 113.729 11.3711  -2
  -3  11   1 113.729 11.3711   1
   2  11   1 81.9548 6.29316  -2
   2 -11  -1 81.9548 6.29316   1
  -2 -11  -1 95.0386 10.9833  -2
  -2  11   1 95.0386 10.9833   1
   1  11   1 144.799 9.57829  -2
   1 -11  -1 144.799 9.57829   1
  -1 -11  -1 131.814 8.63752  -2
  -1  11   1 131.814 8.63752   1
   0 -11  -1 4.00400 6.53944  -2
   0  11   1 4.00400 6.53944   1
   1 -11  -1 136.002 8.33278  -2
   1  11   1 136.002 8.33278   1
  -2  11   1 91.7400 4.45506  -2
  -2 -11  -1 91.7400 4.45506   1
   2 -11  -1 91.2551 7.67821  -2
   2  11   1 91.2551 7.67821   1
  -3  11   1 121.485 13.2318  -2
  -3 -11  -1 121.485 13.2318   1
   3 -11  -1 95.9354 7.09474  -2
   3  11   1 95.9354 7.09474   1
  -4  11   1 45.2010 11.8017  -2
  -4 -11  -1 45.2010 11.8017   1
   4 -11  -1 42.7933 11.3051  -2
   4  11   1 42.7933 11.3051   1
  -5  11   1 23.5348 10.7159  -2
  -5 -11  -1 23.5348 10.7159   1
   5 -11  -1 -1.4472 10.8980  -2
   5  11   1 -1.4472 10.8980   1
  -6  11   1 -1.3421 11.0034  -2
  -6 -11  -1 -1.3421 11.0034   1
   6 -11  -1 0.20457 10.4212  -2
   6  11   1 0.20457 10.4212   1
  -7  11   1 -6.0101 10.2995  -2
  -7 -11  -1 -6.0101 10.2995   1
   7 -11  -1 11.4167 10.7705  -2
   7  11   1 11.4167 10.7705   1
   6  12   1 16.0932 11.4475  -2
   6 -12  -1 16.0932 11.4475   1
   5  12   1 6.81012 11.4613  -2
   5 -12  -1 6.81012 11.4613   1
   4  12   1 3.60042 10.1549  -2
   4 -12  -1 3.60042 10.1549   1
   3  12   1 3.30620 5.13769  -2
   3 -12  -1 3.30620 5.13769   1
  -3 -12  -1 4.60423 6.72346  -2
  -3  12   1 4.60423 6.72346   1
   2  12   1 -1.8268 5.41976  -2
   2 -12  -1 -1.8268 5.41976   1
  -2 -12  -1 -1.2814 6.75871  -2
  -2  12   1 -1.2814 6.75871   1
   1  12   1 3.33452 6.55185  -2
   1 -12  -1 3.33452 6.55185   1
  -1 -12  -1 3.34022 6.93533  -2
  -1  12   1 3.34022 6.93533   1
   0 -12  -1 303.080 11.2896  -2
   0  12   1 303.080 11.2896   1
   1 -12  -1 18.4894 6.85733  -2
   1  12   1 18.4894 6.85733   1
   2 -12  -1 6.59216 6.08467  -2
   2  12   1 6.59216 6.08467   1
  -3  12   1 9.33772 11.1975  -2
  -3 -12  -1 9.33772 11.1975   1
   3 -12  -1 14.9405 12.1851  -2
   3  12   1 14.9405 12.1851   1
  -4  12   1 -1.4154 11.5560  -2
  -4 -12  -1 -1.4154 11.5560   1
   4 -12  -1 3.31451 11.3055  -2
   4  12   1 3.31451 11.3055   1
  -5  12   1 -7.0365 10.6074  -2
  -5 -12  -1 -7.0365 10.6074   1
   5 -12  -1 6.93044 11.8149  -2
   5  12   1 6.93044 11.8149   1
  -6  12   1 11.8980 10.8552  -2
  -6 -12  -1 11.8980 10.8552   1
   6 -12  -1 14.1512 11.2301  -2
   6  12   1 14.1512 11.2301   1
   5  13   1 10.1787 11.9756  -2
   5 -13  -1 10.1787 11.9756   1
  -5 -13  -1 12.9166 12.1601  -2
  -5  13   1 12.9166 12.1601   1
   4  13   1 0.43606 11.1184  -2
   4 -13  -1 0.43606 11.1184   1
  -4 -13  -1 4.28442 10.3318  -2
  -4  13   1 4.28442 10.3318   1
   3  13   1 2.64404 11.2066  -2
   3 -13  -1 2.64404 11.2066   1
  -3 -13  -1 -10.881 10.3013  -2
  -3  13   1 -10.881 10.3013   1
  -2 -13  -1 -0.8937 7.10908  -2
  -2  13   1 -0.8937 7.10908   1
   1  13   1 16.5225 7.83499  -2
   1 -13  -1 16.5225 7.83499   1
  -1 -13  -1 21.5501 7.56840  -2
  -1  13   1 21.5501 7.56840   1
   0 -13  -1 4.82267 7.21384  -2
   0  13   1 4.82267 7.21384   1
   1 -13  -1 11.3199 7.59629  -2
   1  13   1 11.3199 7.59629   1
   2 -13  -1 19.0320 11.6429  -2
   2  13   1 19.0320 11.6429   1
  -3  13   1 4.53878 12.4157  -2
  -3 -13  -1 4.53878 12.4157   1
   3 -13  -1 -13.543 11.0643  -2
   3  13   1 -13.543 11.0643   1
  -4  13   1 15.5674 11.5265  -2
  -4 -13  -1 15.5674 11.5265   1
   4 -13  -1 9.08278 12.6573  -2
   4  13   1 9.08278 12.6573   1
  -5  13   1 4.67865 11.2356  -2
  -5 -13  -1 4.67865 11.2356   1
   5 -13  -1 27.5550 13.0436  -2
   5  13   1 27.5550 13.0436   1
   3  14   1 -11.653 13.0397  -2
   3 -14  -1 -11.653 13.0397   1
  -3 -14  -1 8.68322 11.4366  -2
  -3  14   1 8.68322 11.4366   1
  -2 -14  -1 -2.4248 7.27925  -2
  -2  14   1 -2.4248 7.27925   1
  -1 -14  -1 14.3915 7.93300  -2
  -1  14   1 14.3915 7.93300   1
   0 -14  -1 14.8948 8.05418  -2
   0  14   1 14.8948 8.05418   1
   1 -14  -1 30.9534 7.97750  -2
   1  14   1 30.9534 7.97750   1
   2 -14  -1 0.14206 11.6215  -2
   2  14   1 0.14206 11.6215   1
   3 -14  -1 13.8642 12.3632  -2
   3  14   1 13.8642 12.3632   1
 -11   0   2 25.2937 5.91536   1
 -11   0   2 22.7926 7.36646   2
 -10   0   2 -3.1032 6.26510   1
  -9   0   2 38.6615 8.44010   1
  -8   0   2 173.098 10.8172   1
   8   0   2 358.383 18.3711  -2
  -8   0   2 358.383 18.3711   1
  -7   0   2 71.6367 8.41259   1
  -7   0   2 79.3239 6.65381   2
  -6   0   2 0.69106 3.84899   1
  -6   0   2 1.27821 2.01900   2
  -5   0   2 29.1270 3.79498   1
  -5   0   2 24.7389 2.66371   2
  -4   0   2 6.28311 1.40557   2
  -4   0   2 5.32416 1.55854   1
  -3   0   2 13.5096 1.26860   2
  -3   0   2 13.2849 1.67028   1
  -2   0   2 34.3590 1.45109   2
  -2   0   2 35.2081 2.18230   1
  -1   0   2 118.382 2.17123   2
  -1   0   2 119.769 3.21856   1
   0   0   2 9999.99 30.0515   1
   0   0   2 9354.42 24.9621   2
   1   0   2 467.026 3.40516   1
   1   0   2 428.031 5.52341   2
   2   0   2 84.1290 2.02867   1
   2   0   2 84.3766 2.83300   2
   3   0   2 19.2905 1.87901   2
   3   0   2 22.6881 1.82878   1
   4   0   2 2.51314 2.24805   2
   4   0   2 -0.0209 1.10629   1
   5   0   2 20.4914 5.38192   2
   5   0   2 16.8823 2.05184   1
   6   0   2 3.54639 4.64776   2
  -6   0   2 7.15921 4.51997  -2
   6   0   2 7.15921 4.51997   1
   6   0   2 -2.2942 2.62134   1
   7   0   2 66.2612 6.30066   2
  -7   0   2 139.027 6.93638  -2
   7   0   2 139.027 6.93638   1
   7   0   2 60.9025 5.62092   1
  -8   0   2 368.967 9.95941  -2
   8   0   2 368.967 9.95941   1
   8   0   2 163.666 11.7110   2
   9   0   2 56.1100 9.53556   2
  -9   0   2 122.415 15.4260  -2
   9   0   2 122.415 15.4260   1
  10   0   2 1.14839 4.65402   2
 -10   0   2 8.92381 12.6068  -2
  10   0   2 8.92381 12.6068   1
  11  -1  -2 -6.1713 5.47365   2
  11  -1  -2 7.53970 5.10329   1
 -11   1   2 -1.4705 6.12065   2
 -11   1   2 0.17112 3.53962   1
  10   1   2 14.4772 11.5597  -2
  10  -1  -2 14.4772 11.5597   1
  10  -1  -2 2.64603 5.45895   1
 -10  -1  -2 17.8759 12.4574  -2
 -10   1   2 17.8759 12.4574   1
   9  -1  -2 8.24208 3.90868   1
  -9   1   2 13.0549 6.65273   1
   8   1   2 59.7486 12.0947  -2
   8  -1  -2 59.7486 12.0947   1
   8  -1  -2 44.2166 7.04842   1
  -8  -1  -2 77.9032 14.1504  -2
  -8   1   2 77.9032 14.1504   1
   7  -1  -2 57.0600 5.30651   2
   7  -1  -2 49.8559 5.07726   1
  -7   1   2 54.5187 7.87670   1
  -7   1   2 63.9574 6.72991   2
   6  -1  -2 47.1418 4.52926   1
   6  -1  -2 34.1618 3.82407   2
  -6   1   2 34.4387 4.20486   2
  -6   1   2 45.8580 7.42366   1
   5  -1  -2 19.1942 2.49012   1
   5  -1  -2 23.6165 3.62872   2
  -5   1   2 21.7057 3.56500   1
  -5   1   2 21.0582 4.12197   2
   4  -1  -2 55.8942 2.10437   2
   4  -1  -2 63.0622 2.97224   1
  -4   1   2 62.3660 2.85795   1
  -4   1   2 56.0389 2.48297   2
   3  -1  -2 3.08355 0.95096   2
   3  -1  -2 1.97662 1.40847   1
  -3   1   2 4.80761 1.31583   2
  -3   1   2 2.67373 1.53612   1
   2  -1  -2 276.880 2.71273   2
   2  -1  -2 281.770 3.88731   1
  -2   1   2 275.725 4.72477   1
  -2   1   2 278.938 5.07896   2
   1  -1  -2 365.661 3.59228   2
   1  -1  -2 379.863 4.46978   1
  -1   1   2 371.327 5.10381   1
  -1   1   2 364.996 4.59433   2
   0  -1  -2 48.0486 2.28826   1
   0  -1  -2 48.3420 2.13127   2
   0   1   2 49.8593 1.85332   1
   0   1   2 46.8385 2.12264   2
  -1  -1  -2 401.171 5.43893   2
  -1  -1  -2 418.007 4.13269   1
   1   1   2 421.021 3.81395   1
   1   1   2 397.812 4.86820   2
  -2  -1  -2 188.628 4.28094   2
  -2  -1  -2 198.301 3.58803   1
   2   1   2 196.635 2.48226   1
   2   1   2 192.761 3.87613   2
  -3  -1  -2 2.74435 1.56133   2
  -3  -1  -2 0.31154 1.21660   1
   3   1   2 -0.0342 0.86989   1
   3   1   2 0.05417 1.31839   2
  -4  -1  -2 27.1523 2.12832   1
  -4  -1  -2 29.6761 3.76604   2
   4   1   2 29.9319 1.70861   1
   4   1   2 27.9605 2.74359   2
  -5   1   2 38.2127 5.03801  -2
  -5  -1  -2 38.2127 5.03801   1
  -5  -1  -2 23.7369 3.71347   2
  -5  -1  -2 25.4695 4.40589   1
   5   1   2 27.1597 2.88965   2
   5  -1  -2 46.1298 7.16139  -2
   5   1   2 46.1298 7.16139   1
   5   1   2 26.1292 2.71936   1
  -6   1   2 69.0908 5.00018  -2
  -6  -1  -2 69.0908 5.00018   1
  -6  -1  -2 30.6210 4.80464   1
  -6  -1  -2 27.1318 6.70202   2
   6  -1  -2 65.9412 5.40416  -2
   6   1   2 65.9412 5.40416   1
   6   1   2 28.6051 3.98261   2
   6   1   2 29.2577 3.87433   1
  -7  -1  -2 40.2647 5.75428   1
  -7  -1  -2 41.2193 7.95958   2
  -7   1   2 93.8814 5.91686  -2
  -7  -1  -2 93.8814 5.91686   1
   7   1   2 38.5354 4.56340   1
   7   1   2 42.7602 4.91986   2
   7  -1  -2 88.9249 6.59308  -2
   7   1   2 88.9249 6.59308   1
  -8   1   2 71.3451 6.10176  -2
  -8  -1  -2 71.3451 6.10176   1
   8   1   2 28.5667 6.95665   2
   8  -1  -2 84.2870 7.39477  -2
   8   1   2 84.2870 7.39477   1
  -9  -1  -2 2.99972 5.97191   2
  -9   1   2 21.7466 12.1306  -2
  -9  -1  -2 21.7466 12.1306   1
   9   1   2 10.0950 4.25342   2
   9  -1  -2 20.5791 6.90109  -2
   9   1   2 20.5791 6.90109   1
 -10   1   2 8.48253 13.0084  -2
 -10  -1  -2 8.48253 13.0084   1
  10   1   2 -2.2558 4.40916   2
  10  -1  -2 24.3882 13.1389  -2
  10   1   2 24.3882 13.1389   1
  10  -2  -2 0.85875 5.25890   2
  10  -2  -2 5.18107 3.52428   1
 -10  -2  -2 -5.2337 11.6434  -2
 -10   2   2 -5.2337 11.6434   1
   9  -2  -2 3.28364 3.14445   1
  -9  -2  -2 -10.703 13.4170  -2
  -9   2   2 -10.703 13.4170   1
   8   2   2 12.7031 10.4186  -2
   8  -2  -2 12.7031 10.4186   1
   8  -2  -2 0.09314 4.47320   1
  -8  -2  -2 15.4308 12.9347  -2
  -8   2   2 15.4308 12.9347   1
   7  -2  -2 36.6575 4.38927   1
   7  -2  -2 37.2762 2.66855   2
  -7   2   2 30.1183 7.21799   1
   6  -2  -2 2.70011 1.53523   2
   6  -2  -2 0.36811 1.83477   1
  -6   2   2 -1.7504 3.94791   1
  -6   2   2 1.24719 2.28520   2
   5  -2  -2 3.86118 1.84819   1
   5  -2  -2 -0.4088 1.47024   2
  -5   2   2 4.93431 3.07288   2
  -5   2   2 1.84958 3.82448   1
   4  -2  -2 199.758 3.90968   1
   4  -2  -2 190.782 3.27562   2
  -4   2   2 191.624 5.52640   2
  -4   2   2 201.199 6.07790   1
   3  -2  -2 0.81569 1.00638   1
   3  -2  -2 0.92317 0.67690   2
  -3   2   2 0.31609 1.48714   2
  -3   2   2 1.81129 1.43393   1
   2  -2  -2 21.9224 1.33849   2
   2  -2  -2 22.4584 1.53257   1
  -2   2   2 20.2118 2.11721   1
  -2   2   2 25.7677 2.50598   2
   1  -2  -2 3.70950 0.96718   1
   1  -2  -2 5.57313 1.18883   2
  -1   2   2 3.42484 1.20558   1
  -1   2   2 4.26283 1.05238   2
   0  -2  -2 375.092 3.01348   1
   0  -2  -2 364.633 4.46922   2
   0   2   2 359.656 3.35916   2
   0   2   2 375.689 3.82435   1
  -1  -2  -2 -0.3493 1.16694   2
  -1  -2  -2 0.03751 0.99618   1
   1   2   2 -0.8836 0.86642   2
   1   2   2 -0.7575 0.90638   1
  -2  -2  -2 50.2856 2.90517   2
  -2  -2  -2 49.4316 3.10968   1
   2   2   2 50.4031 2.01305   2
   2   2   2 50.4092 1.63573   1
  -3  -2  -2 1.89226 1.67225   1
  -3  -2  -2 0.48110 1.81027   2
   3   2   2 0.44317 0.68655   1
   3   2   2 0.30076 1.08223   2
  -4  -2  -2 181.382 5.41836   1
  -4  -2  -2 178.279 6.63963   2
   4   2   2 178.400 4.25509   2
   4  -2  -2 409.362 12.4543  -2
   4   2   2 409.362 12.4543   1
   4   2   2 183.675 5.02646   1
  -5   2   2 1.23000 3.46009  -2
  -5  -2  -2 1.23000 3.46009   1
  -5  -2  -2 0.12471 2.73903   1
  -5  -2  -2 -3.7490 3.95409   2
   5   2   2 2.53804 1.47568   1
   5   2   2 0.80514 1.90937   2
   5  -2  -2 10.9688 6.51784  -2
   5   2   2 10.9688 6.51784   1
  -6   2   2 -0.9173 3.15052  -2
  -6  -2  -2 -0.9173 3.15052   1
  -6  -2  -2 2.38284 4.81220   2
   6  -2  -2 0.82722 7.26784  -2
   6   2   2 0.82722 7.26784   1
   6   2   2 3.17131 1.51724   1
   6   2   2 5.65771 2.84600   2
  -7  -2  -2 23.4005 7.21324   2
  -7   2   2 73.8427 4.57560  -2
  -7  -2  -2 73.8427 4.57560   1
   7   2   2 22.2020 3.84965   2
   7  -2  -2 61.7791 9.60388  -2
   7   2   2 61.7791 9.60388   1
   7   2   2 27.5377 5.08488   1
  -8   2   2 8.61559 11.3602  -2
  -8  -2  -2 8.61559 11.3602   1
   8  -2  -2 4.22746 6.10682  -2
   8   2   2 4.22746 6.10682   1
   8   2   2 -0.6804 4.72010   2
  -9   2   2 0.66601 12.4839  -2
  -9  -2  -2 0.66601 12.4839   1
   9   2   2 -2.4470 3.12293   2
   9  -2  -2 -2.6586 10.6800  -2
   9   2   2 -2.6586 10.6800   1
 -10   2   2 11.9844 14.4658  -2
 -10  -2  -2 11.9844 14.4658   1
  10   2   2 0.83140 5.28139   1
  10   2   2 -1.8608 4.88831   2
  10   3   2 -8.3226 11.8433  -2
  10  -3  -2 -8.3226 11.8433   1
 -10  -3  -2 -1.1999 12.6633  -2
 -10   3   2 -1.1999 12.6633   1
   9  -3  -2 0.84857 3.40667   2
   9  -3  -2 -1.5769 2.81101   1
  -9  -3  -2 -8.0928 11.8580  -2
  -9   3   2 -8.0928 11.8580   1
   8  -3  -2 12.4312 3.63640   1
   8  -3  -2 13.1530 4.10415   2
  -8  -3  -2 18.7337 14.3955  -2
  -8   3   2 18.7337 14.3955   1
   7   3   2 23.0972 10.7135  -2
   7  -3  -2 23.0972 10.7135   1
   7  -3  -2 6.61761 3.19238   2
   7  -3  -2 7.70822 4.07768   1
  -7  -3  -2 29.2650 12.0995  -2
  -7   3   2 29.2650 12.0995   1
   6  -3  -2 78.4470 4.11572   1
  -6  -3  -2 140.127 13.8374  -2
  -6   3   2 140.127 13.8374   1
   5  -3  -2 138.177 3.90863   1
   5  -3  -2 135.016 7.47714   2
  -5   3   2 135.010 9.66846   1
  -5   3   2 131.904 7.92719   2
   4  -3  -2 24.2857 2.08807   1
   4  -3  -2 26.0676 2.99727   2
  -4   3   2 27.9912 3.18286   1
  -4   3   2 23.7835 2.84597   2
   3  -3  -2 2.44415 0.75106   2
   3  -3  -2 1.72232 1.12428   1
  -3   3   2 0.13829 1.63109   2
  -3   3   2 1.67261 1.71282   1
   2  -3  -2 34.1414 1.89976   1
   2  -3  -2 36.0832 1.91058   2
  -2   3   2 32.7680 2.33970   2
  -2   3   2 34.9934 2.64402   1
   1  -3  -2 24.1737 1.51434   1
   1  -3  -2 25.0471 1.29697   2
  -1   3   2 22.3877 1.50326   1
  -1   3   2 23.4350 1.54251   2
   0  -3  -2 -0.1366 0.79960   2
   0  -3  -2 0.00560 0.83738   1
   0   3   2 0.20560 0.84786   1
   0   3   2 0.76225 0.87041   2
  -1  -3  -2 26.3805 1.68531   2
  -1  -3  -2 30.2272 1.75842   1
   1   3   2 26.9944 1.67918   2
   1   3   2 29.3090 1.27369   1
  -2  -3  -2 28.2024 2.74294   1
  -2  -3  -2 31.3067 2.46027   2
   2   3   2 28.5951 1.38303   1
   2   3   2 26.6928 1.82786   2
   2  -3  -2 53.8068 5.47455  -2
   2   3   2 53.8068 5.47455   1
  -3  -3  -2 1.75871 1.89599   1
  -3  -3  -2 0.91075 1.81649   2
   3   3   2 1.90554 0.70694   1
   3   3   2 2.28522 1.16588   2
   3  -3  -2 3.46329 3.18792  -2
   3   3   2 3.46329 3.18792   1
  -4  -3  -2 -1.0897 1.75741   1
  -4  -3  -2 -0.9864 1.81951   2
   4   3   2 0.61054 1.45835   2
   4   3   2 0.68823 1.87898   1
  -5  -3  -2 130.707 7.96060   1
  -5  -3  -2 118.338 10.4701   2
   5   3   2 120.922 4.35901   2
   5   3   2 128.050 8.13296   1
  -6   3   2 137.415 11.1185  -2
  -6  -3  -2 137.415 11.1185   1
   6   3   2 43.9715 5.25287   1
   6   3   2 50.3699 3.85867   2
   6  -3  -2 141.839 11.1883  -2
   6   3   2 141.839 11.1883   1
  -7   3   2 22.2462 9.87405  -2
  -7  -3  -2 22.2462 9.87405   1
   7   3   2 12.9534 3.86461   1
   7  -3  -2 25.0869 9.10786  -2
   7   3   2 25.0869 9.10786   1
   7   3   2 12.4159 5.07935   2
  -8   3   2 4.85752 10.8038  -2
  -8  -3  -2 4.85752 10.8038   1
   8   3   2 5.33671 3.50849   1
   8   3   2 11.0583 3.99575   2
   8  -3  -2 34.7907 10.5555  -2
   8   3   2 34.7907 10.5555   1
  -9   3   2 -13.123 10.1638  -2
  -9  -3  -2 -13.123 10.1638   1
   9  -3  -2 -6.1452 9.86755  -2
   9   3   2 -6.1452 9.86755   1
   9   3   2 -3.7988 2.90174   2
   9   3   2 2.21505 3.66132   1
 -10   3   2 1.94375 12.5941  -2
 -10  -3  -2 1.94375 12.5941   1
  10  -3  -2 -6.4895 9.50977  -2
  10   3   2 -6.4895 9.50977   1
  10   4   2 13.6501 13.0235  -2
  10  -4  -2 13.6501 13.0235   1
 -10  -4  -2 -6.1733 14.2474  -2
 -10   4   2 -6.1733 14.2474   1
   9  -4  -2 0.84647 3.00220   1
  -9  -4  -2 7.18348 12.5091  -2
  -9   4   2 7.18348 12.5091   1
   8  -4  -2 19.0435 5.03375   1
   8   4   2 63.2644 11.8710  -2
   8  -4  -2 63.2644 11.8710   1
   8  -4  -2 22.5233 4.90270   2
  -8  -4  -2 44.8530 12.9790  -2
  -8   4   2 44.8530 12.9790   1
   7  -4  -2 0.27328 2.64593   1
   7  -4  -2 0.13404 2.63157   2
   7   4   2 -3.2591 9.74557  -2
   7  -4  -2 -3.2591 9.74557   1
  -7  -4  -2 -2.7423 13.3362  -2
  -7   4   2 -2.7423 13.3362   1
   6  -4  -2 4.35553 2.19174   1
   6  -4  -2 4.21599 1.69689   2
  -6   4   2 5.17926 4.83259   1
   5  -4  -2 40.2579 2.77626   1
  -5   4   2 45.8781 6.37214   2
  -5   4   2 43.9665 7.52938   1
   4  -4  -2 319.562 5.25045   1
   4  -4  -2 286.411 3.98106   2
  -4   4   2 321.643 7.84737   1
  -4   4   2 285.331 10.2262   2
   3  -4  -2 37.5070 1.36482   2
   3  -4  -2 36.0681 2.70368   1
  -3   4   2 35.6614 2.26031   1
  -3   4   2 36.3748 3.49974   2
   2  -4  -2 -0.4424 0.64156   2
   2  -4  -2 0.73990 1.04330   1
  -2   4   2 1.21249 1.24440   1
  -2   4   2 0.24522 1.31800   2
   1  -4  -2 86.0322 2.35699   1
   1  -4  -2 80.7589 1.95984   2
  -1   4   2 83.1473 2.66235   1
  -1   4   2 81.9673 2.26319   2
   0  -4  -2 86.2501 2.17221   1
   0  -4  -2 84.2997 2.74143   2
   0   4   2 85.9506 2.63587   1
   0   4   2 81.5164 2.29111   2
  -1  -4  -2 81.8547 2.86685   2
  -1  -4  -2 83.7605 2.32915   1
   1   4   2 86.3906 1.93378   1
   1   4   2 86.3314 2.46689   2
  -2  -4  -2 0.44795 1.36323   1
  -2  -4  -2 0.53851 1.19128   2
   2   4   2 1.03084 0.70086   1
   2   4   2 0.19799 0.99802   2
   2  -4  -2 -1.7677 5.46586  -2
   2   4   2 -1.7677 5.46586   1
  -3  -4  -2 26.3978 4.31422   1
  -3  -4  -2 26.7677 2.57026   2
   3   4   2 30.6968 1.12209   1
   3   4   2 25.5168 2.39934   2
   3  -4  -2 62.1031 4.71778  -2
   3   4   2 62.1031 4.71778   1
  -4  -4  -2 273.636 10.6569   1
  -4  -4  -2 279.727 13.9270   2
   4   4   2 277.848 5.06339   2
   4   4   2 273.612 4.32267   1
  -5  -4  -2 55.0185 6.64818   1
  -5  -4  -2 58.4091 8.40048   2
   5   4   2 61.2612 3.35295   2
   5  -4  -2 97.4339 9.82590  -2
   5   4   2 97.4339 9.82590   1
  -6   4   2 6.49252 9.71479  -2
  -6  -4  -2 6.49252 9.71479   1
  -6  -4  -2 -0.9791 5.00344   2
   6   4   2 2.03685 2.13552   2
   6   4   2 0.84903 1.55906   1
   6  -4  -2 3.90437 8.56218  -2
   6   4   2 3.90437 8.56218   1
  -7   4   2 -4.0450 9.88498  -2
  -7  -4  -2 -4.0450 9.88498   1
   7  -4  -2 -10.269 8.81334  -2
   7   4   2 -10.269 8.81334   1
   7   4   2 2.09388 3.95176   2
  -8   4   2 68.2140 12.9246  -2
  -8  -4  -2 68.2140 12.9246   1
   8   4   2 31.6263 6.17891   2
   8  -4  -2 57.7010 11.2187  -2
   8   4   2 57.7010 11.2187   1
   8   4   2 29.5658 5.33518   1
  -9   4   2 -4.5631 12.5066  -2
  -9  -4  -2 -4.5631 12.5066   1
   9   4   2 3.12093 3.75769   2
   9  -4  -2 -2.3405 11.0417  -2
   9   4   2 -2.3405 11.0417   1
 -10   4   2 -16.597 12.6608  -2
 -10  -4  -2 -16.597 12.6608   1
  10  -4  -2 15.4227 12.3828  -2
  10   4   2 15.4227 12.3828   1
  10   5   2 -3.1556 12.7433  -2
  10  -5  -2 -3.1556 12.7433   1
  10  -5  -2 -0.4799 3.16389   2
 -10  -5  -2 -6.3119 14.3472  -2
 -10   5   2 -6.3119 14.3472   1
   9   5   2 29.2619 12.6876  -2
   9  -5  -2 29.2619 12.6876   1
  -9  -5  -2 16.0049 13.7519  -2
  -9   5   2 16.0049 13.7519   1
   8   5   2 35.5177 11.2016  -2
   8  -5  -2 35.5177 11.2016   1
   8  -5  -2 19.6746 5.07888   1
  -8  -5  -2 24.9675 13.1194  -2
  -8   5   2 24.9675 13.1194   1
   7  -5  -2 4.30668 2.72322   1
   7   5   2 4.23385 9.27506  -2
   7  -5  -2 4.23385 9.27506   1
  -7  -5  -2 15.5331 12.0272  -2
  -7   5   2 15.5331 12.0272   1
   6  -5  -2 1.80064 2.57640   1
   6   5   2 -9.2700 8.74755  -2
   6  -5  -2 -9.2700 8.74755   1
   6  -5  -2 1.00162 0.94743   2
  -6  -5  -2 8.86378 12.8429  -2
  -6   5   2 8.86378 12.8429   1
   5  -5  -2 2.98865 1.62816   1
  -5   5   2 -4.0209 4.27787   1
   4  -5  -2 30.5324 5.05872   2
   4  -5  -2 39.6497 2.95505   1
  -4   5   2 36.8769 5.45811   2
  -4   5   2 37.2796 3.93336   1
   3  -5  -2 22.1621 2.26756   1
   3  -5  -2 20.8050 4.37970   2
  -3   5   2 21.5056 2.04940   1
  -3   5   2 18.9804 2.50696   2
   2  -5  -2 11.5090 1.57676   1
   2  -5  -2 12.4997 1.76703   2
  -2   5   2 10.9770 1.60937   1
  -2   5   2 10.1788 1.10176   2
   1  -5  -2 2.64343 1.11411   1
   1  -5  -2 2.37469 1.25245   2
  -1   5   2 2.21158 1.33814   1
  -1   5   2 2.98726 1.06741   2
   0  -5  -2 0.88996 1.22847   2
   0  -5  -2 -0.6794 0.92831   1
   0   5   2 0.78821 1.15899   1
   0   5   2 -0.6162 0.93531   2
  -1  -5  -2 5.68149 1.26662   1
  -1  -5  -2 3.55239 1.71765   2
   1   5   2 3.46570 1.36560   1
   1   5   2 4.22497 1.16269   2
   1  -5  -2 10.1241 7.01217  -2
   1   5   2 10.1241 7.01217   1
  -2  -5  -2 15.4247 2.36725   1
  -2  -5  -2 13.8908 1.78397   2
   2   5   2 20.1108 2.36311   1
   2  -5  -2 33.3864 6.90027  -2
   2   5   2 33.3864 6.90027   1
   2   5   2 13.9382 1.59765   2
  -3  -5  -2 11.6590 2.03763   2
  -3  -5  -2 14.0288 4.05008   1
   3   5   2 8.63987 1.89142   2
   3   5   2 13.1537 4.07913   1
   3  -5  -2 23.3447 3.79752  -2
   3   5   2 23.3447 3.79752   1
  -4  -5  -2 20.2848 4.66364   1
  -4  -5  -2 18.6926 6.14278   2
   4   5   2 14.2107 1.98108   2
   4   5   2 18.8645 4.64406   1
  -5   5   2 3.28276 8.96458  -2
  -5  -5  -2 3.28276 8.96458   1
  -5  -5  -2 2.65395 5.40173   2
   5   5   2 2.52173 1.76710   2
   5  -5  -2 11.1715 8.51142  -2
   5   5   2 11.1715 8.51142   1
   6   5   2 1.12450 2.72382   2
   6  -5  -2 -2.2208 8.54548  -2
   6   5   2 -2.2208 8.54548   1
   6   5   2 1.55593 1.48319   1
  -7   5   2 17.1211 11.8381  -2
  -7  -5  -2 17.1211 11.8381   1
   7  -5  -2 6.64702 8.73846  -2
   7   5   2 6.64702 8.73846   1
   7   5   2 1.97815 3.96035   2
  -8   5   2 49.3168 13.7715  -2
  -8  -5  -2 49.3168 13.7715   1
   8   5   2 15.4269 4.93968   2
   8  -5  -2 24.4537 11.0170  -2
   8   5   2 24.4537 11.0170   1
  -9   5   2 19.3092 13.5896  -2
  -9  -5  -2 19.3092 13.5896   1
   9  -5  -2 34.8399 13.3349  -2
   9   5   2 34.8399 13.3349   1
 -10   5   2 8.20518 14.1171  -2
 -10  -5  -2 8.20518 14.1171   1
  10   5   2 2.69747 3.92487   1
  10  -5  -2 14.0071 13.0989  -2
  10   5   2 14.0071 13.0989   1
  10  -6  -2 1.41091 3.04773   2
  10  -6  -2 4.82107 5.67418   1
 -10   6   2 -2.3233 7.73837   1
 -10   6   2 -0.6954 5.96857   2
   9   6   2 -1.7592 11.9782  -2
   9  -6  -2 -1.7592 11.9782   1
  -9  -6  -2 -5.2834 14.2009  -2
  -9   6   2 -5.2834 14.2009   1
   8  -6  -2 8.69169 4.17456   1
   8   6   2 20.1389 11.2625  -2
   8  -6  -2 20.1389 11.2625   1
  -8  -6  -2 -7.1282 13.4505  -2
  -8   6   2 -7.1282 13.4505   1
   7   6   2 16.4738 10.5929  -2
   7  -6  -2 16.4738 10.5929   1
   7  -6  -2 9.20697 3.24319   1
  -7  -6  -2 10.2687 12.0787  -2
  -7   6   2 10.2687 12.0787   1
   6   6   2 2.37268 8.55374  -2
   6  -6  -2 2.37268 8.55374   1
   6  -6  -2 6.34228 2.75252   1
  -6  -6  -2 -8.4523 10.9923  -2
  -6   6   2 -8.4523 10.9923   1
   5  -6  -2 13.1327 3.02761   1
   5   6   2 25.6654 8.46608  -2
   5  -6  -2 25.6654 8.46608   1
  -5   6   2 27.4392 8.84264   1
   4  -6  -2 30.3694 3.30603   1
   4  -6  -2 25.5399 5.44157   2
  -4   6   2 27.3447 3.94260   1
   3  -6  -2 18.2298 2.33522   1
   3  -6  -2 17.3397 2.61180   2
  -3   6   2 17.1166 2.65191   2
  -3   6   2 18.0569 2.59215   1
   2  -6  -2 187.980 5.53365   1
   2  -6  -2 178.650 5.39856   2
  -2   6   2 190.340 5.30395   1
  -2   6   2 175.393 5.99958   2
   1  -6  -2 2.39891 1.59929   2
   1  -6  -2 3.77754 1.33661   1
  -1  -6  -2 11.0776 9.33482  -2
  -1   6   2 11.0776 9.33482   1
  -1   6   2 3.99931 1.94650   1
  -1   6   2 2.72021 1.35900   2
   0  -6  -2 70.9180 2.61187   1
   0  -6  -2 73.2281 3.90693   2
   0   6   2 70.1254 3.94060   1
   0   6   2 71.2039 2.72718   2
   0  -6  -2 154.396 11.8306  -2
   0   6   2 154.396 11.8306   1
  -1  -6  -2 1.71521 1.12623   1
  -1  -6  -2 1.03538 1.88200   2
   1   6   2 1.11471 1.46366   2
   1  -6  -2 4.95121 7.38124  -2
   1   6   2 4.95121 7.38124   1
   1   6   2 0.48463 1.59874   1
  -2  -6  -2 157.441 5.59623   1
  -2  -6  -2 160.337 4.13649   2
   2   6   2 163.459 4.87915   2
   2   6   2 160.814 5.36614   1
   2  -6  -2 324.186 10.8375  -2
   2   6   2 324.186 10.8375   1
  -3  -6  -2 10.1000 2.87234   2
  -3  -6  -2 10.3147 2.13638   1
   3   6   2 7.73886 2.04672   2
   3   6   2 9.13812 1.62669   1
  -4   6   2 67.8863 9.93079  -2
  -4  -6  -2 67.8863 9.93079   1
  -4  -6  -2 41.7994 7.83244   2
   4   6   2 39.7678 3.85352   2
   4   6   2 55.5901 7.79545   1
  -5   6   2 36.1929 10.2192  -2
  -5  -6  -2 36.1929 10.2192   1
  -5  -6  -2 2.77397 4.84603   2
   5  -6  -2 23.9704 9.64929  -2
   5   6   2 23.9704 9.64929   1
   5   6   2 10.1026 2.81291   2
  -6   6   2 3.15647 10.4823  -2
  -6  -6  -2 3.15647 10.4823   1
   6  -6  -2 -0.1699 9.30432  -2
   6   6   2 -0.1699 9.30432   1
   6   6   2 3.66407 2.81124   2
  -7   6   2 36.6359 12.7503  -2
  -7  -6  -2 36.6359 12.7503   1
   7  -6  -2 29.7583 9.79517  -2
   7   6   2 29.7583 9.79517   1
   7   6   2 8.72060 2.96922   2
  -8   6   2 9.87383 13.1642  -2
  -8  -6  -2 9.87383 13.1642   1
   8  -6  -2 0.79855 11.3244  -2
   8   6   2 0.79855 11.3244   1
   8   6   2 2.57493 3.77872   2
  -9   6   2 -20.288 12.4714  -2
  -9  -6  -2 -20.288 12.4714   1
   9  -6  -2 -19.154 11.8123  -2
   9   6   2 -19.154 11.8123   1
   9   7   2 2.85262 10.8607  -2
   9  -7  -2 2.85262 10.8607   1
   7   7   2 4.37625 10.7098  -2
   7  -7  -2 4.37625 10.7098   1
   7  -7  -2 4.09234 2.83980   1
  -7  -7  -2 3.61822 13.5343  -2
  -7   7   2 3.61822 13.5343   1
   6   7   2 8.63893 9.82299  -2
   6  -7  -2 8.63893 9.82299   1
   6  -7  -2 9.50236 3.08418   1
  -6  -7  -2 15.9754 13.1005  -2
  -6   7   2 15.9754 13.1005   1
   5   7   2 14.4177 9.05904  -2
   5  -7  -2 14.4177 9.05904   1
   5  -7  -2 5.63120 3.58515   1
  -5  -7  -2 6.74880 10.3368  -2
  -5   7   2 6.74880 10.3368   1
   4  -7  -2 48.6534 4.26820   1
   4  -7  -2 45.8717 2.97919   2
  -4  -7  -2 82.7922 12.3330  -2
  -4   7   2 82.7922 12.3330   1
  -4   7   2 45.7435 3.92077   2
  -4   7   2 47.9859 6.00401   1
   3  -7  -2 -0.6030 1.30982   2
   3  -7  -2 -0.3344 2.81834   1
   3   7   2 -2.3263 7.29758  -2
   3  -7  -2 -2.3263 7.29758   1
  -3   7   2 -0.9293 1.83395   2
  -3  -7  -2 0.59678 8.22658  -2
  -3   7   2 0.59678 8.22658   1
  -3   7   2 -0.7104 3.33879   1
   2  -7  -2 -0.0525 1.93033   1
   2  -7  -2 -0.0480 1.69135   2
  -2   7   2 0.54525 2.02491   2
  -2   7   2 0.46195 3.40049   1
  -2  -7  -2 4.17800 8.10939  -2
  -2   7   2 4.17800 8.10939   1
   1  -7  -2 147.669 4.11400   1
   1  -7  -2 128.102 5.05518   2
  -1   7   2 134.441 3.52881   2
  -1  -7  -2 227.945 12.4869  -2
  -1   7   2 227.945 12.4869   1
  -1   7   2 143.661 5.60164   1
   0  -7  -2 2.72679 1.92484   2
   0  -7  -2 2.94451 1.54058   1
   0   7   2 2.60160 1.42574   2
   0  -7  -2 3.83647 8.03099  -2
   0   7   2 3.83647 8.03099   1
   0   7   2 1.25595 1.95994   1
  -1  -7  -2 134.886 3.52778   1
  -1  -7  -2 129.971 5.48428   2
   1   7   2 130.735 5.22601   1
   1   7   2 131.263 4.11159   2
   1  -7  -2 246.005 12.0128  -2
   1   7   2 246.005 12.0128   1
  -2  -7  -2 2.72960 2.16708   1
  -2  -7  -2 5.23829 3.61312   2
   2   7   2 4.23129 2.35740   2
   2   7   2 4.04269 2.08156   1
  -3  -7  -2 3.76355 2.15875   1
  -3  -7  -2 8.98282 3.92874   2
   3   7   2 7.31481 1.66533   1
   3   7   2 1.89464 3.04088   2
  -4   7   2 85.7630 10.8265  -2
  -4  -7  -2 85.7630 10.8265   1
  -4  -7  -2 30.3587 5.40670   2
   4   7   2 36.8283 4.00535   2
   4  -7  -2 78.8622 10.9676  -2
   4   7   2 78.8622 10.9676   1
  -5   7   2 5.58387 10.0469  -2
  -5  -7  -2 5.58387 10.0469   1
   5  -7  -2 18.9904 10.5897  -2
   5   7   2 18.9904 10.5897   1
   5   7   2 10.3148 2.98500   2
  -6   7   2 23.5824 11.6640  -2
  -6  -7  -2 23.5824 11.6640   1
   6   7   2 1.79078 2.57997   2
   6  -7  -2 28.4462 10.9274  -2
   6   7   2 28.4462 10.9274   1
  -7   7   2 0.62712 11.7938  -2
  -7  -7  -2 0.62712 11.7938   1
   7   7   2 4.85606 2.84284   2
   7  -7  -2 -6.6479 10.9402  -2
   7   7   2 -6.6479 10.9402   1
  -8   7   2 -14.351 12.3739  -2
  -8  -7  -2 -14.351 12.3739   1
   8  -7  -2 -9.5101 11.2223  -2
   8   7   2 -9.5101 11.2223   1
  -9   7   2 -14.226 12.1159  -2
  -9  -7  -2 -14.226 12.1159   1
   9  -7  -2 -0.8459 13.2501  -2
   9   7   2 -0.8459 13.2501   1
   9  -8  -2 -0.2360 4.09648   1
   9  -8  -2 0.16611 5.36522   2
  -9   8   2 -2.1161 4.94985   2
   8   8   2 -1.8619 11.1939  -2
   8  -8  -2 -1.8619 11.1939   1
   7  -8  -2 5.01860 2.98459   1
   7   8   2 -3.6604 10.9676  -2
   7  -8  -2 -3.6604 10.9676   1
  -7  -8  -2 11.2280 14.5366  -2
  -7   8   2 11.2280 14.5366   1
   6  -8  -2 15.2677 3.32266   1
   6   8   2 50.7439 12.0780  -2
   6  -8  -2 50.7439 12.0780   1
  -6  -8  -2 34.6254 15.2307  -2
  -6   8   2 34.6254 15.2307   1
   5  -8  -2 100.102 7.26534   1
   5   8   2 193.664 13.8173  -2
   5  -8  -2 193.664 13.8173   1
  -5  -8  -2 168.543 16.1013  -2
  -5   8   2 168.543 16.1013   1
   4  -8  -2 63.7898 3.87579   2
   4  -8  -2 69.4209 6.33039   1
   4   8   2 156.152 12.4796  -2
   4  -8  -2 156.152 12.4796   1
  -4   8   2 61.7911 5.05535   2
  -4  -8  -2 137.009 14.4900  -2
  -4   8   2 137.009 14.4900   1
  -4   8   2 68.4640 7.14817   1
   3  -8  -2 118.939 7.09493   1
   3  -8  -2 118.432 4.95560   2
   3   8   2 254.173 12.9863  -2
   3  -8  -2 254.173 12.9863   1
  -3   8   2 121.435 8.45153   1
  -3  -8  -2 213.779 14.3514  -2
  -3   8   2 213.779 14.3514   1
  -3   8   2 111.729 5.55571   2
   2  -8  -2 2.14712 2.33800   1
   2  -8  -2 1.46508 2.04859   2
  -2   8   2 3.97058 2.54690   2
  -2  -8  -2 10.5704 9.77964  -2
  -2   8   2 10.5704 9.77964   1
  -2   8   2 4.27200 3.82553   1
   1  -8  -2 2.39349 2.33824   1
   1  -8  -2 1.28414 1.84682   2
   1   8   2 4.37976 6.02402  -2
   1  -8  -2 4.37976 6.02402   1
  -1   8   2 4.05736 1.57111   2
  -1   8   2 -3.5871 3.20351   1
  -1  -8  -2 5.21769 8.73614  -2
  -1   8   2 5.21769 8.73614   1
   0  -8  -2 117.558 4.49359   1
   0  -8  -2 109.207 8.99244   2
   0   8   2 115.507 5.57754   1
   0   8   2 114.186 3.94189   2
   0  -8  -2 197.858 13.1553  -2
   0   8   2 197.858 13.1553   1
  -1  -8  -2 1.06759 1.37105   1
  -1  -8  -2 -1.0908 3.47616   2
   1   8   2 1.89199 1.93822   1
   1   8   2 0.45386 2.18765   2
  -2  -8  -2 7.13744 2.67070   1
  -2  -8  -2 1.84429 3.52492   2
   2   8   2 4.61177 2.34516   1
   2   8   2 3.66176 2.42808   2
  -3  -8  -2 114.726 5.60292   1
  -3  -8  -2 110.180 8.73008   2
   3   8   2 116.894 7.29792   2
   3   8   2 116.340 4.91195   1
  -4   8   2 153.661 13.8310  -2
  -4  -8  -2 153.661 13.8310   1
  -4  -8  -2 68.7115 4.39111   1
  -4  -8  -2 70.5413 7.23380   2
   4   8   2 74.0611 3.33534   1
   4  -8  -2 151.430 13.0523  -2
   4   8   2 151.430 13.0523   1
   4   8   2 74.7864 6.49236   2
  -5   8   2 182.815 14.3125  -2
  -5  -8  -2 182.815 14.3125   1
   5   8   2 68.1811 6.37902   2
   5  -8  -2 204.770 15.5457  -2
   5   8   2 204.770 15.5457   1
  -6   8   2 38.2495 12.8562  -2
  -6  -8  -2 38.2495 12.8562   1
   6   8   2 23.5471 3.73188   2
   6  -8  -2 33.7154 12.2548  -2
   6   8   2 33.7154 12.2548   1
  -7   8   2 5.60295 12.8768  -2
  -7  -8  -2 5.60295 12.8768   1
   7  -8  -2 12.7350 11.3988  -2
   7   8   2 12.7350 11.3988   1
   7   8   2 -0.3567 2.59608   2
  -8   8   2 5.74970 12.7805  -2
  -8  -8  -2 5.74970 12.7805   1
   8  -8  -2 6.24986 12.8092  -2
   8   8   2 6.24986 12.8092   1
   8   9   2 18.1549 13.3028  -2
   8  -9  -2 18.1549 13.3028   1
   7   9   2 6.02470 12.2514  -2
   7  -9  -2 6.02470 12.2514   1
   7  -9  -2 8.84430 4.50828   1
   6  -9  -2 6.08304 2.95005   1
   6   9   2 4.25270 11.3873  -2
   6  -9  -2 4.25270 11.3873   1
  -6  -9  -2 18.8357 14.4482  -2
  -6   9   2 18.8357 14.4482   1
   5  -9  -2 20.1057 4.68323   1
   5   9   2 55.2578 11.3479  -2
   5  -9  -2 55.2578 11.3479   1
  -5  -9  -2 58.9829 14.3732  -2
  -5   9   2 58.9829 14.3732   1
  -5   9   2 15.4956 4.34280   1
   4  -9  -2 1.67023 2.08448   2
   4  -9  -2 0.95373 3.33412   1
   4   9   2 3.90525 9.94857  -2
   4  -9  -2 3.90525 9.94857   1
  -4   9   2 2.53312 3.59429   1
  -4  -9  -2 9.09609 12.0862  -2
  -4   9   2 9.09609 12.0862   1
  -4   9   2 -0.0507 2.94489   2
   3   9   2 142.629 12.1969  -2
   3  -9  -2 142.629 12.1969   1
   3  -9  -2 70.6083 6.64439   1
  -3   9   2 71.9820 6.39688   2
  -3  -9  -2 105.667 14.4236  -2
  -3   9   2 105.667 14.4236   1
  -3   9   2 73.9026 7.94407   1
   2   9   2 12.2191 8.98866  -2
   2  -9  -2 12.2191 8.98866   1
   2  -9  -2 4.82108 3.46535   1
  -2   9   2 8.41511 4.76682   2
  -2   9   2 4.67864 4.73428   1
  -2  -9  -2 21.2555 11.4657  -2
  -2   9   2 21.2555 11.4657   1
   1  -9  -2 1.98140 2.66047   1
   1  -9  -2 1.24057 4.63458   2
  -1   9   2 2.77876 1.68467   2
  -1   9   2 -0.1189 3.93274   1
   0   9   2 0.48858 5.63207  -2
   0  -9  -2 0.48858 5.63207   1
   0  -9  -2 3.83245 3.68891   1
   0  -9  -2 -1.1182 4.00574   2
   0   9   2 -2.1853 2.71003   1
   0   9   2 -0.0394 3.27437   2
  -1  -9  -2 2.32159 3.86559   2
   1   9   2 3.09420 2.61770   2
   1   9   2 7.25568 4.72580   1
  -2  -9  -2 9.63343 3.16633   1
  -2  -9  -2 10.6159 4.57234   2
   2  -9  -2 14.2527 6.11430  -2
   2   9   2 14.2527 6.11430   1
   2   9   2 18.0294 4.15125   2
  -3  -9  -2 56.6945 5.87050   1
  -3  -9  -2 52.2255 7.52394   2
  -3   9   2 135.159 13.2044  -2
  -3  -9  -2 135.159 13.2044   1
   3  -9  -2 115.514 6.38871  -2
   3   9   2 115.514 6.38871   1
   3   9   2 58.3173 6.23354   2
  -4   9   2 4.73073 10.1189  -2
  -4  -9  -2 4.73073 10.1189   1
  -4  -9  -2 -3.6855 3.04331   2
   4  -9  -2 -6.6733 9.37463  -2
   4   9   2 -6.6733 9.37463   1
   4   9   2 0.72823 3.18188   2
  -5   9   2 42.8172 12.9746  -2
  -5  -9  -2 42.8172 12.9746   1
   5   9   2 25.0091 4.82148   2
   5  -9  -2 48.0727 12.5016  -2
   5   9   2 48.0727 12.5016   1
  -6   9   2 23.0322 12.1230  -2
  -6  -9  -2 23.0322 12.1230   1
   6   9   2 4.97140 2.86463   2
   6  -9  -2 10.9493 13.0569  -2
   6   9   2 10.9493 13.0569   1
  -7   9   2 14.4836 12.8690  -2
  -7  -9  -2 14.4836 12.8690   1
   7  -9  -2 15.4895 12.3550  -2
   7   9   2 15.4895 12.3550   1
   7   9   2 11.1402 4.27417   2
  -8   9   2 18.8271 14.2387  -2
  -8  -9  -2 18.8271 14.2387   1
   8  -9  -2 25.0869 12.8886  -2
   8   9   2 25.0869 12.8886   1
   8 -10  -2 0.48260 5.18815   1
   8 -10  -2 5.27888 5.61933   2
  -8  10   2 8.03442 6.45004   2
  -8  10   2 2.38682 6.07847   1
   7  10   2 15.6979 12.3628  -2
   7 -10  -2 15.6979 12.3628   1
   6 -10  -2 1.90808 3.29155   1
   6  10   2 -2.2144 11.2508  -2
   6 -10  -2 -2.2144 11.2508   1
   5  10   2 -2.8487 10.6734  -2
   5 -10  -2 -2.8487 10.6734   1
   5 -10  -2 0.58043 3.51593   1
   4 -10  -2 96.2391 7.43061   1
   4  10   2 238.408 15.5121  -2
   4 -10  -2 238.408 15.5121   1
  -4  10   2 100.046 8.61787   1
   3  10   2 43.2088 11.1920  -2
   3 -10  -2 43.2088 11.1920   1
   3 -10  -2 27.0898 4.98312   1
  -3  10   2 34.6079 6.51230   1
   2 -10  -2 8.77352 3.96713   1
   2  10   2 22.0015 10.6638  -2
   2 -10  -2 22.0015 10.6638   1
  -2  10   2 11.3613 5.08899   1
  -2  10   2 9.50210 1.29550   2
   1  10   2 76.0587 11.6550  -2
   1 -10  -2 76.0587 11.6550   1
   1 -10  -2 47.6654 6.35779   1
  -1  10   2 46.2239 7.26337   1
  -1  10   2 39.0594 3.25044   2
  -1 -10  -2 74.4984 12.2716  -2
  -1  10   2 74.4984 12.2716   1
   0 -10  -2 2.10085 4.56015   2
   0 -10  -2 3.44865 3.96104   1
   0  10   2 -0.9831 5.71075  -2
   0 -10  -2 -0.9831 5.71075   1
   0  10   2 3.33250 3.84431   2
   0  10   2 -0.7886 4.61332   1
  -1 -10  -2 37.7077 3.46677   1
  -1 -10  -2 36.9799 6.70271   2
   1  10   2 40.7817 5.90191   2
   1 -10  -2 64.6093 12.8908  -2
   1  10   2 64.6093 12.8908   1
  -2 -10  -2 2.20497 4.36692   2
  -2 -10  -2 8.35222 5.18663   1
   2  10   2 0.63041 3.44150   2
   2 -10  -2 7.00626 6.29836  -2
   2  10   2 7.00626 6.29836   1
  -3 -10  -2 17.0487 5.48845   2
  -3  10   2 47.8982 11.5950  -2
  -3 -10  -2 47.8982 11.5950   1
   3  10   2 3.13719 3.49917   2
   3 -10  -2 41.1384 6.13540  -2
   3  10   2 41.1384 6.13540   1
  -4 -10  -2 111.275 9.62630   2
  -4  10   2 224.971 16.4650  -2
  -4 -10  -2 224.971 16.4650   1
   4 -10  -2 193.365 14.9863  -2
   4  10   2 193.365 14.9863   1
   4  10   2 110.336 7.98430   2
  -5  10   2 -14.430 11.8922  -2
  -5 -10  -2 -14.430 11.8922   1
   5 -10  -2 -0.6111 11.5504  -2
   5  10   2 -0.6111 11.5504   1
   5  10   2 4.13108 3.79085   2
  -6  10   2 -1.7496 12.6212  -2
  -6 -10  -2 -1.7496 12.6212   1
   6 -10  -2 -6.8758 12.2826  -2
   6  10   2 -6.8758 12.2826   1
   6  10   2 -0.1088 2.88325   2
  -7 -10  -2 -2.4376 5.22766   2
  -7  10   2 19.2233 13.5115  -2
  -7 -10  -2 19.2233 13.5115   1
   7 -10  -2 -1.7335 12.1420  -2
   7  10   2 -1.7335 12.1420   1
   7 -11  -2 9.13990 6.45452   2
   7 -11  -2 6.96773 5.77494   1
  -7  11   2 7.00914 6.04131   2
  -7  11   2 0.81342 5.74763   1
   6  11   2 -2.5339 12.5056  -2
   6 -11  -2 -2.5339 12.5056   1
   5  11   2 23.7903 11.9645  -2
   5 -11  -2 23.7903 11.9645   1
   5 -11  -2 4.63932 3.84649   1
   4  11   2 17.6926 12.1978  -2
   4 -11  -2 17.6926 12.1978   1
   4 -11  -2 11.3837 4.19920   1
  -4  11   2 2.64168 3.93298   1
   3  11   2 41.0797 12.2474  -2
   3 -11  -2 41.0797 12.2474   1
   3 -11  -2 28.4633 5.06960   1
  -3 -11  -2 55.7391 10.7827  -2
  -3  11   2 55.7391 10.7827   1
   2 -11  -2 1.32615 3.56150   1
   2  11   2 5.15074 11.7654  -2
   2 -11  -2 5.15074 11.7654   1
  -2 -11  -2 9.15550 11.6637  -2
  -2  11   2 9.15550 11.6637   1
   1 -11  -2 4.08481 4.15771   1
  -1  11   2 5.43277 4.58282   2
  -1 -11  -2 15.3775 11.9822  -2
  -1  11   2 15.3775 11.9822   1
   0 -11  -2 1.72256 4.03011   1
   0 -11  -2 -14.271 11.1389  -2
   0  11   2 -14.271 11.1389   1
   0  11   2 -4.1904 3.49826   2
  -1 -11  -2 16.7383 5.69446   1
   1  11   2 8.14386 4.29197   2
   1 -11  -2 16.1188 7.43810  -2
   1  11   2 16.1188 7.43810   1
   2 -11  -2 -1.5072 6.57852  -2
   2  11   2 -1.5072 6.57852   1
   2  11   2 5.45391 3.86332   2
  -3  11   2 44.8658 12.9553  -2
  -3 -11  -2 44.8658 12.9553   1
   3 -11  -2 41.9472 13.8262  -2
   3  11   2 41.9472 13.8262   1
   3  11   2 29.0948 5.00216   2
  -4 -11  -2 0.15388 4.42027   2
  -4  11   2 22.7985 13.0578  -2
  -4 -11  -2 22.7985 13.0578   1
   4 -11  -2 8.03404 12.0782  -2
   4  11   2 8.03404 12.0782   1
   4  11   2 4.16481 3.72723   2
  -5  11   2 -1.6888 12.2209  -2
  -5 -11  -2 -1.6888 12.2209   1
   5  11   2 2.27345 3.61215   2
   5 -11  -2 9.86472 13.0719  -2
   5  11   2 9.86472 13.0719   1
  -6  11   2 6.39171 13.5798  -2
  -6 -11  -2 6.39171 13.5798   1
   6 -11  -2 -0.8152 12.6782  -2
   6  11   2 -0.8152 12.6782   1
   6 -12  -2 -0.7076 4.83525   1
   6 -12  -2 1.24719 6.11499   2
  -6  12   2 2.64162 5.37904   1
  -6  12   2 10.1756 5.89912   2
   4 -12  -2 4.89983 3.96669   1
  -4 -12  -2 13.4932 9.07520  -2
  -4  12   2 13.4932 9.07520   1
   3 -12  -2 1.24760 3.59040   1
  -3 -12  -2 3.80614 11.0711  -2
  -3  12   2 3.80614 11.0711   1
   2 -12  -2 -1.0424 3.76187   1
   2  12   2 -1.8867 12.6418  -2
   2 -12  -2 -1.8867 12.6418   1
  -2 -12  -2 0.26081 12.3316  -2
  -2  12   2 0.26081 12.3316   1
   1 -12  -2 22.2698 5.40660   1
  -1 -12  -2 48.2977 13.8612  -2
  -1  12   2 48.2977 13.8612   1
  -1  12   2 12.4824 5.47986   2
   0 -12  -2 15.7041 5.68598   1
   0 -12  -2 11.5742 8.17894  -2
   0  12   2 11.5742 8.17894   1
   0  12   2 11.3480 4.86749   2
  -1 -12  -2 14.8526 5.41980   1
   1 -12  -2 42.6907 8.19675  -2
   1  12   2 42.6907 8.19675   1
   1  12   2 16.9748 5.38362   2
   2  12   2 -3.4598 3.27757   2
   2 -12  -2 -3.2326 11.9598  -2
   2  12   2 -3.2326 11.9598   1
   3 -12  -2 -14.964 13.1756  -2
   3  12   2 -14.964 13.1756   1
   3  12   2 -4.0439 3.20347   2
  -4  12   2 35.4650 13.9113  -2
  -4 -12  -2 35.4650 13.9113   1
   4 -12  -2 11.6881 13.5928  -2
   4  12   2 11.6881 13.5928   1
   4  12   2 6.47466 4.59431   2
  -5  12   2 3.19390 13.8033  -2
  -5 -12  -2 3.19390 13.8033   1
   3 -13  -2 1.34087 4.10376   1
  -3 -13  -2 -7.9030 11.1999  -2
  -3  13   2 -7.9030 11.1999   1
   2 -13  -2 -2.1783 3.96037   1
  -2 -13  -2 4.52892 12.4310  -2
  -2  13   2 4.52892 12.4310   1
   1 -13  -2 0.36270 4.11857   1
  -1  13   2 -2.2582 4.35476   2
  -1 -13  -2 -3.5486 8.82909  -2
  -1  13   2 -3.5486 8.82909   1
   0 -13  -2 2.82057 4.85715   1
   0  13   2 -6.1798 3.33912   2
   0 -13  -2 -5.6953 8.28648  -2
   0  13   2 -5.6953 8.28648   1
  -1 -13  -2 -1.0718 4.61857   1
   1 -13  -2 -5.9340 7.78409  -2
   1  13   2 -5.9340 7.78409   1
   1  13   2 3.52276 4.36398   2
   2 -13  -2 -2.4713 14.2495  -2
   2  13   2 -2.4713 14.2495   1
   2  13   2 -3.3765 3.65064   2
   3 -13  -2 -23.952 14.1878  -2
   3  13   2 -23.952 14.1878   1
  -4  13   2 -0.0853 14.1598  -2
  -4 -13  -2 -0.0853 14.1598   1
   4 -13  -2 0.89797 13.2864  -2
   4  13   2 0.89797 13.2864   1
  -2 -14  -2 17.7467 9.40336  -2
  -2  14   2 17.7467 9.40336   1
   1 -14  -2 10.4565 4.89806   1
  -1 -14  -2 11.1651 9.10752  -2
  -1  14   2 11.1651 9.10752   1
  -1  14   2 8.92657 5.85124   2
   0  14   2 0.20959 10.3262  -2
   0 -14  -2 0.20959 10.3262   1
   0 -14  -2 2.26585 9.07820  -2
   0  14   2 2.26585 9.07820   1
  -1 -14  -2 6.79109 5.46653   1
   1 -14  -2 -3.3225 14.4718  -2
   1  14   2 -3.3225 14.4718   1
   1  14   2 12.0538 4.82850   2
   2 -14  -2 -4.1083 15.0123  -2
   2  14   2 -4.1083 15.0123   1
   9   0   3 3.80537 14.0121  -2
 -10   0   3 3.80537 14.0121   1
  -9   0   3 -3.1090 5.40045   1
  -8   0   3 3.11827 5.77573   1
  -7   0   3 1.16875 2.21002   2
  -7   0   3 0.44809 4.37730   1
  -6   0   3 -0.7374 2.70100   1
  -6   0   3 -0.5308 1.40939   2
  -5   0   3 0.29625 1.51784   2
  -5   0   3 0.12225 2.64034   1
  -4   0   3 0.22946 1.30239   2
  -4   0   3 1.53522 2.29840   1
  -3   0   3 0.56968 0.82539   2
  -3   0   3 -0.5962 2.38157   1
  -2   0   3 -0.1538 1.44841   1
  -2   0   3 -0.1448 0.98530   2
  -1   0   3 0.41102 0.94946   2
  -1   0   3 0.74052 1.23393   1
   0   0   3 -0.3639 1.29621   2
   0   0   3 -0.0583 0.91223   1
   1   0   3 -0.1787 0.93834   1
   1   0   3 0.45695 1.25748   2
   2   0   3 0.58700 0.81310   1
   2   0   3 -1.5047 1.63794   2
   3   0   3 0.61527 0.84105   1
   3   0   3 -2.4286 2.15064   2
   4   0   3 -0.0825 1.29297   1
   4   0   3 -0.0693 2.35669   2
  -5   0   3 2.13486 6.16254  -2
   4   0   3 2.13486 6.16254   1
  -6   0   3 2.62074 6.92751  -2
   5   0   3 2.62074 6.92751   1
   5   0   3 0.67482 2.60832   2
   5   0   3 -0.5311 1.27569   1
  -7   0   3 1.60684 5.33375  -2
   6   0   3 1.60684 5.33375   1
   6   0   3 -1.6731 4.88856   2
  -8   0   3 0.64883 5.81194  -2
   7   0   3 0.64883 5.81194   1
   7   0   3 4.39482 5.71600   2
  -9   0   3 8.11398 10.2472  -2
   8   0   3 8.11398 10.2472   1
   8   0   3 0.73027 6.44785   2
 -10   0   3 -6.6799 12.2611  -2
   9   0   3 -6.6799 12.2611   1
  10   0   3 -2.3493 3.78014   2
  10   0   3 -1.4722 5.33032   1
  10  -1  -3 6.95046 5.29604   2
  10  -1  -3 5.26526 5.56573   1
  -9  -1  -3 12.1587 15.5219  -2
 -10   1   3 12.1587 15.5219   1
   9  -1  -3 14.3758 7.12563   1
  -8  -1  -3 33.9042 14.5761  -2
  -9   1   3 33.9042 14.5761   1
   8  -1  -3 61.3386 6.32524   1
  -8   1   3 60.2437 10.0514   1
   7  -1  -3 22.5404 4.61619   2
   7  -1  -3 24.6078 4.15585   1
  -7   1   3 24.8995 7.53141   1
   6  -1  -3 13.3469 2.58278   1
   6  -1  -3 15.3387 3.83043   2
  -6   1   3 15.1613 3.23622   2
  -6   1   3 10.1158 4.93021   1
   5  -1  -3 -1.4451 2.18863   1
   5  -1  -3 -0.1199 1.06315   2
  -5   1   3 0.32945 2.42993   1
  -5   1   3 2.57536 2.51171   2
   4  -1  -3 34.8318 1.75886   2
   4  -1  -3 39.4037 3.96562   1
  -4   1   3 32.4626 3.80348   1
  -4   1   3 33.9722 2.58255   2
   3  -1  -3 11.4538 2.92422   1
   3  -1  -3 7.93124 1.01973   2
  -3   1   3 9.99576 1.66898   2
  -3   1   3 7.03293 2.58276   1
   2  -1  -3 18.2302 1.81900   1
   2  -1  -3 21.1235 1.55836   2
  -2   1   3 20.6660 2.21023   1
  -2   1   3 18.4318 1.89908   2
   1  -1  -3 58.1813 2.01281   2
   1  -1  -3 56.0748 2.87403   1
  -1   1   3 58.8411 3.04470   1
  -1   1   3 55.1758 2.77059   2
   0  -1  -3 1.29969 1.35471   1
   0  -1  -3 2.47278 1.58427   2
   0   1   3 1.82833 1.36233   2
   0   1   3 3.40204 1.04253   1
  -1  -1  -3 19.3779 2.18093   2
  -1  -1  -3 22.1439 2.07083   1
   1   1   3 22.8645 1.95413   2
   1   1   3 20.8828 1.55455   1
  -2  -1  -3 38.2413 2.37858   1
  -2  -1  -3 31.5219 3.55583   2
   2   1   3 34.6123 1.55980   1
   2   1   3 32.6716 2.60696   2
  -3  -1  -3 18.3106 3.15742   2
  -3  -1  -3 17.5917 1.90675   1
   3   1   3 16.1836 1.27619   1
   3   1   3 16.0152 3.00094   2
  -5   1   3 12.4809 4.27427  -2
  -4  -1  -3 12.4809 4.27427   1
  -4  -1  -3 13.3447 3.16203   2
  -4  -1  -3 10.8257 3.30918   1
   4   1   3 9.52697 3.02313   2
   4   1   3 11.8532 1.54146   1
   5  -1  -3 2.86358 7.11458  -2
   4   1   3 2.86358 7.11458   1
  -6   1   3 15.1325 4.48441  -2
  -5  -1  -3 15.1325 4.48441   1
  -5  -1  -3 0.49349 2.98990   2
  -5  -1  -3 2.45173 2.05019   1
   6  -1  -3 20.7503 7.47983  -2
   5   1   3 20.7503 7.47983   1
   5   1   3 3.02888 1.37861   1
   5   1   3 4.20225 3.17849   2
  -7   1   3 30.1794 5.34434  -2
  -6  -1  -3 30.1794 5.34434   1
  -6  -1  -3 4.62420 5.28910   2
   7  -1  -3 44.4912 8.56578  -2
   6   1   3 44.4912 8.56578   1
   6   1   3 6.75874 3.40036   1
   6   1   3 7.24112 2.68360   2
  -7  -1  -3 39.4775 8.14051   2
  -8   1   3 110.957 6.32645  -2
  -7  -1  -3 110.957 6.32645   1
   7   1   3 41.5527 5.31834   2
   8  -1  -3 112.771 7.10273  -2
   7   1   3 112.771 7.10273   1
  -9   1   3 36.2583 10.7372  -2
  -8  -1  -3 36.2583 10.7372   1
   9  -1  -3 31.4155 6.93922  -2
   8   1   3 31.4155 6.93922   1
   8   1   3 10.2906 6.92041   2
 -10   1   3 27.2266 11.8037  -2
  -9  -1  -3 27.2266 11.8037   1
   9   1   3 29.5187 8.81776   2
   9   1   3 22.5405 6.23985   1
 -10  -1  -3 1.93121 3.90792   2
 -10  -1  -3 -0.6668 4.89716   1
  10   1   3 -4.7576 4.71354   1
  10   1   3 1.80021 3.89491   2
   9   2   3 8.06342 8.93582  -2
  10  -2  -3 8.06342 8.93582   1
  -9  -2  -3 1.38285 14.4203  -2
 -10   2   3 1.38285 14.4203   1
   9  -2  -3 7.33222 4.06064   1
   9  -2  -3 16.4555 5.06624   2
  -8  -2  -3 175.944 18.6169  -2
  -9   2   3 175.944 18.6169   1
   8  -2  -3 100.033 8.07910   2
   8  -2  -3 82.8611 9.34177   1
  -7  -2  -3 154.629 16.9398  -2
  -8   2   3 154.629 16.9398   1
   7  -2  -3 71.1482 4.64391   1
  -7   2   3 74.2446 10.2808   1
   6  -2  -3 9.71894 2.64406   1
   6  -2  -3 8.24569 2.83554   2
  -6   2   3 18.6378 6.54782   1
   5  -2  -3 1.41972 0.94202   2
   5  -2  -3 1.50657 1.97208   1
  -5   2   3 5.80518 4.31053   1
   4  -2  -3 91.3504 2.10566   2
   4  -2  -3 95.8425 4.10836   1
  -4   2   3 89.2510 5.35791   1
  -4   2   3 91.8435 4.38612   2
   3  -2  -3 85.2086 2.41092   2
   3  -2  -3 83.9153 3.55065   1
  -3   2   3 84.9655 4.93230   1
  -3   2   3 83.8390 3.38724   2
   2  -2  -3 0.05804 1.00568   2
   2  -2  -3 1.70580 1.06474   1
  -2   2   3 1.21077 1.14875   2
  -2   2   3 1.44571 1.63359   1
   1  -2  -3 145.686 3.42671   2
   1  -2  -3 136.595 2.71130   1
  -1   2   3 135.773 3.48090   1
  -1   2   3 143.889 3.91512   2
   0  -2  -3 145.794 3.93795   1
   0  -2  -3 133.748 3.55411   2
   0   2   3 133.985 2.68771   2
   0   2   3 148.090 3.05721   1
  -1  -2  -3 128.332 3.62133   1
  -1  -2  -3 122.900 4.09857   2
   1   2   3 132.035 2.85952   1
   1   2   3 124.213 3.08971   2
  -2  -2  -3 2.49893 1.44979   1
  -2  -2  -3 0.30965 2.04517   2
   2   2   3 3.23425 1.01154   1
   2   2   3 1.92113 1.39775   2
  -3  -2  -3 50.0959 3.62884   1
  -3  -2  -3 44.4673 4.53573   2
   3   2   3 49.0170 1.68779   1
   3   2   3 46.2608 3.25422   2
  -5   2   3 112.086 8.78138  -2
  -4  -2  -3 112.086 8.78138   1
  -4  -2  -3 91.2276 5.58577   2
   4   2   3 100.916 2.30348   1
   4   2   3 96.2752 4.33443   2
   5  -2  -3 121.528 9.41117  -2
   4   2   3 121.528 9.41117   1
  -6   2   3 6.06156 8.44953  -2
  -5  -2  -3 6.06156 8.44953   1
  -5  -2  -3 0.40116 4.39585   2
   5   2   3 5.20519 2.14528   2
   5   2   3 4.45621 1.25897   1
   6  -2  -3 21.0638 8.11904  -2
   5   2   3 21.0638 8.11904   1
  -7   2   3 76.3352 10.5913  -2
  -6  -2  -3 76.3352 10.5913   1
  -6  -2  -3 8.38381 5.89358   2
   7  -2  -3 79.6325 6.35127  -2
   6   2   3 79.6325 6.35127   1
   6   2   3 7.67067 2.68209   1
   6   2   3 10.2052 2.90702   2
  -8   2   3 159.674 13.8936  -2
  -7  -2  -3 159.674 13.8936   1
   7   2   3 31.8252 5.30750   1
   7   2   3 24.9235 7.35178   2
   8  -2  -3 120.459 11.1187  -2
   7   2   3 120.459 11.1187   1
  -9   2   3 162.739 14.6090  -2
  -8  -2  -3 162.739 14.6090   1
   9  -2  -3 135.798 11.8817  -2
   8   2   3 135.798 11.8817   1
   8   2   3 132.528 8.11552   2
   8   2   3 144.667 9.89281   1
 -10   2   3 -4.8041 12.5012  -2
  -9  -2  -3 -4.8041 12.5012   1
  10  -2  -3 3.03528 12.1276  -2
   9   2   3 3.03528 12.1276   1
 -10  -2  -3 -1.1155 5.53161   1
 -10  -2  -3 2.89734 4.33558   2
  10   2   3 0.74302 4.95488   1
  10   2   3 1.75918 4.01468   2
   9   3   3 7.10951 13.3385  -2
  10  -3  -3 7.10951 13.3385   1
  10  -3  -3 10.1809 6.86228   1
  -9  -3  -3 40.6247 17.9861  -2
 -10   3   3 40.6247 17.9861   1
   9  -3  -3 -2.6649 3.35335   1
   9  -3  -3 6.13209 4.55030   2
  -8  -3  -3 75.8740 17.0228  -2
  -9   3   3 75.8740 17.0228   1
   8  -3  -3 82.7865 6.70135   1
   8  -3  -3 98.8634 8.42346   2
  -7  -3  -3 102.484 16.8565  -2
  -8   3   3 102.484 16.8565   1
   7  -3  -3 2.43542 3.10718   1
   6   3   3 5.62123 9.16698  -2
   7  -3  -3 5.62123 9.16698   1
  -7   3   3 -2.1437 4.96302   1
   6  -3  -3 -1.0929 1.95662   1
   6  -3  -3 -0.6012 1.89421   2
  -6   3   3 0.54278 5.09753   1
   5  -3  -3 3.11648 2.02737   1
   5  -3  -3 4.13631 0.97863   2
  -5   3   3 4.91448 3.23002   2
  -5   3   3 1.63489 4.59612   1
   4  -3  -3 0.94946 0.75413   2
   4  -3  -3 -1.0409 1.75507   1
  -4   3   3 0.61577 4.14102   1
  -4   3   3 3.04932 2.84024   2
   3  -3  -3 14.9192 1.36656   2
   3  -3  -3 15.5044 2.06509   1
  -3   3   3 16.6437 3.60254   2
  -3   3   3 12.5997 2.94130   1
   2  -3  -3 19.5936 1.55974   2
   2  -3  -3 14.1772 1.72029   1
  -2   3   3 22.2633 2.67174   1
  -2   3   3 17.6564 1.92161   2
   1  -3  -3 117.343 3.26773   2
   1  -3  -3 119.876 2.73539   1
  -1   3   3 124.943 4.19789   1
  -1   3   3 115.867 3.21775   2
   0  -3  -3 1.40483 1.19205   1
   0  -3  -3 1.02393 1.12008   2
   0   3   3 -0.2864 0.90482   2
   0   3   3 1.29089 1.26117   1
  -1  -3  -3 126.039 3.81119   1
  -1  -3  -3 115.271 4.08951   2
   1   3   3 127.905 3.25236   1
   1   3   3 115.326 3.12315   2
  -2  -3  -3 36.2699 3.60489   1
  -2  -3  -3 35.2247 3.92122   2
   2   3   3 37.2137 1.87516   1
   2   3   3 36.8322 3.43383   2
  -3  -3  -3 5.50389 2.67053   2
  -3  -3  -3 7.83684 3.02598   1
   3   3   3 8.30640 0.93237   1
   3   3   3 7.72952 2.01230   2
   4  -3  -3 6.94651 7.44345  -2
   3   3   3 6.94651 7.44345   1
  -4  -3  -3 2.77184 4.83957   2
  -4  -3  -3 -0.3331 2.67230   1
   4   3   3 -1.1643 1.79562   2
   4   3   3 1.10685 0.83962   1
   5  -3  -3 5.17568 3.73174  -2
   4   3   3 5.17568 3.73174   1
  -6   3   3 2.35161 8.38435  -2
  -5  -3  -3 2.35161 8.38435   1
  -5  -3  -3 1.17573 5.26374   2
   6  -3  -3 3.59194 3.95972  -2
   5   3   3 3.59194 3.95972   1
   5   3   3 1.88587 2.09172   2
   5   3   3 -0.1929 1.19180   1
  -7   3   3 0.91721 9.66146  -2
  -6  -3  -3 0.91721 9.66146   1
  -6  -3  -3 0.49534 5.07209   2
   6   3   3 0.98915 2.94091   2
   7  -3  -3 11.5912 8.74733  -2
   6   3   3 11.5912 8.74733   1
  -8   3   3 121.074 14.5362  -2
  -7  -3  -3 121.074 14.5362   1
   7   3   3 1.67489 2.51691   2
   7   3   3 2.20954 3.12803   1
   8  -3  -3 94.7189 11.5983  -2
   7   3   3 94.7189 11.5983   1
  -9   3   3 58.3422 12.9489  -2
  -8  -3  -3 58.3422 12.9489   1
   8   3   3 54.3798 7.75762   1
   8   3   3 46.6149 5.96612   2
   9  -3  -3 58.7361 11.2549  -2
   8   3   3 58.7361 11.2549   1
 -10   3   3 12.6815 12.7155  -2
  -9  -3  -3 12.6815 12.7155   1
   9   3   3 2.58233 6.09962   2
  10  -4  -3 1.09520 4.93284   1
  -9  -4  -3 -14.098 15.7675  -2
 -10   4   3 -14.098 15.7675   1
   8   4   3 39.2814 12.4958  -2
   9  -4  -3 39.2814 12.4958   1
   9  -4  -3 5.12559 4.76976   1
  -8  -4  -3 38.3439 17.3144  -2
  -9   4   3 38.3439 17.3144   1
   8  -4  -3 7.84601 3.58492   1
   7   4   3 23.3022 11.2186  -2
   8  -4  -3 23.3022 11.2186   1
  -7  -4  -3 26.2651 15.3339  -2
  -8   4   3 26.2651 15.3339   1
   7  -4  -3 24.1403 4.15550   1
   7  -4  -3 23.8840 4.52364   2
   6   4   3 73.5043 11.2551  -2
   7  -4  -3 73.5043 11.2551   1
  -6  -4  -3 78.5596 15.6500  -2
  -7   4   3 78.5596 15.6500   1
   6  -4  -3 44.4900 2.66003   2
   6  -4  -3 48.4413 4.99876   1
   5   4   3 54.5884 9.68286  -2
   6  -4  -3 54.5884 9.68286   1
  -5  -4  -3 55.7273 13.9539  -2
  -6   4   3 55.7273 13.9539   1
   5  -4  -3 6.24771 2.25058   1
   5  -4  -3 4.26672 1.24889   2
  -5   4   3 6.42986 5.71398   1
   4  -4  -3 15.5304 2.45628   1
   4  -4  -3 17.7657 1.69096   2
  -4   4   3 18.0284 4.41358   2
  -4   4   3 17.2226 5.97309   1
   3  -4  -3 48.7119 1.65654   2
   3  -4  -3 56.0681 3.73177   1
  -3   4   3 47.9946 8.03476   1
  -3   4   3 51.4630 5.61041   2
   2  -4  -3 19.6131 1.74079   2
   2  -4  -3 18.6302 1.89654   1
  -2   4   3 20.0385 2.55552   1
  -2   4   3 20.5393 1.75480   2
   1  -4  -3 0.28056 1.19909   2
   1  -4  -3 0.72934 1.14917   1
  -1   4   3 1.03055 1.35544   1
  -1   4   3 -0.6162 1.21545   2
   0  -4  -3 14.3723 1.89695   1
   0  -4  -3 11.8674 1.72041   2
   0   4   3 10.8346 1.60774   1
   0   4   3 11.6762 1.42898   2
  -1  -4  -3 2.12675 1.40361   1
  -1  -4  -3 1.48121 1.79166   2
   1   4   3 3.32560 1.33356   2
   1   4   3 3.10585 1.23384   1
  -2  -4  -3 15.4422 2.78753   1
  -2  -4  -3 10.6426 3.14246   2
   2   4   3 16.5264 1.40977   1
   3  -4  -3 48.4751 6.23603  -2
   2   4   3 48.4751 6.23603   1
   2   4   3 13.8255 2.49386   2
  -3  -4  -3 19.1844 4.37654   1
  -3  -4  -3 9.68212 5.71180   2
   3   4   3 11.3883 2.27899   2
   3   4   3 10.5937 1.39781   1
   4  -4  -3 28.4384 8.60795  -2
   3   4   3 28.4384 8.60795   1
  -5   4   3 52.0503 9.06692  -2
  -4  -4  -3 52.0503 9.06692   1
  -4  -4  -3 21.8762 6.72713   2
   4   4   3 25.7396 2.99858   2
   4   4   3 29.2834 1.54422   1
   5  -4  -3 38.2713 9.74698  -2
   4   4   3 38.2713 9.74698   1
  -6   4   3 54.9162 9.68078  -2
  -5  -4  -3 54.9162 9.68078   1
   5   4   3 1.71490 1.15131   1
   6  -4  -3 48.3002 9.93747  -2
   5   4   3 48.3002 9.93747   1
   5   4   3 -1.4234 2.84342   2
  -7   4   3 74.8523 11.5930  -2
  -6  -4  -3 74.8523 11.5930   1
   6   4   3 37.8277 4.56921   2
   6   4   3 38.2912 2.72818   1
   7  -4  -3 75.3314 11.1791  -2
   6   4   3 75.3314 11.1791   1
  -8   4   3 32.8004 12.5903  -2
  -7  -4  -3 32.8004 12.5903   1
   8  -4  -3 26.9948 9.74793  -2
   7   4   3 26.9948 9.74793   1
   7   4   3 10.4426 3.80075   2
  -9   4   3 55.1115 14.3683  -2
  -8  -4  -3 55.1115 14.3683   1
   8   4   3 19.4803 6.85390   2
   9  -4  -3 33.7041 7.12563  -2
   8   4   3 33.7041 7.12563   1
 -10   4   3 25.1928 14.7562  -2
  -9  -4  -3 25.1928 14.7562   1
   9   4   3 1.70941 3.59753   2
  10  -4  -3 5.73940 12.1576  -2
   9   4   3 5.73940 12.1576   1
   9   5   3 25.0054 13.1722  -2
  10  -5  -3 25.0054 13.1722   1
  -9  -5  -3 7.37136 15.0419  -2
 -10   5   3 7.37136 15.0419   1
   8   5   3 31.3497 13.2411  -2
   9  -5  -3 31.3497 13.2411   1
   9  -5  -3 11.3833 6.20072   1
  -8  -5  -3 36.7757 17.5030  -2
  -9   5   3 36.7757 17.5030   1
   8  -5  -3 49.4211 5.96582   2
   8  -5  -3 63.1301 6.09041   1
   7   5   3 63.6163 12.7194  -2
   8  -5  -3 63.6163 12.7194   1
  -7  -5  -3 76.7599 17.0218  -2
  -8   5   3 76.7599 17.0218   1
   7  -5  -3 -1.7331 3.10120   1
   6   5   3 -3.2490 9.07656  -2
   7  -5  -3 -3.2490 9.07656   1
   7  -5  -3 0.23396 2.02422   2
  -6  -5  -3 7.56130 14.0429  -2
  -7   5   3 7.56130 14.0429   1
   6  -5  -3 27.0941 4.22310   1
   6  -5  -3 27.3747 2.20316   2
   5   5   3 31.5676 9.93670  -2
   6  -5  -3 31.5676 9.93670   1
  -6   5   3 26.7419 7.97221   1
   4   5   3 24.7893 8.92120  -2
   5  -5  -3 24.7893 8.92120   1
   5  -5  -3 -0.4492 2.55179   1
   5  -5  -3 0.66398 0.91899   2
  -5   5   3 3.23438 4.46158   1
   4  -5  -3 40.9324 1.76384   2
   4  -5  -3 42.9737 4.09499   1
  -4   5   3 36.7440 7.68014   1
   3  -5  -3 45.1607 1.84403   2
   3  -5  -3 50.1005 3.79273   1
  -3   5   3 47.7065 4.89265   1
  -3   5   3 44.5324 6.28315   2
   2  -5  -3 0.80463 1.40223   1
   2  -5  -3 0.76763 0.86087   2
  -2   5   3 0.48036 1.48629   1
  -2   5   3 0.08449 1.13700   2
   1  -5  -3 1.73665 1.05214   2
   1  -5  -3 -0.2075 1.22424   1
  -1   5   3 -0.1401 1.31248   2
  -1   5   3 -0.0807 1.36008   1
   0  -5  -3 2.14454 1.49103   1
   0  -5  -3 2.99121 1.59692   2
   0   5   3 2.86492 1.30822   2
   0   5   3 5.16826 1.26295   1
  -1  -5  -3 -0.5771 1.47437   2
  -1  -5  -3 1.54767 1.33321   1
   2  -5  -3 -8.8469 7.78653  -2
   1   5   3 -8.8469 7.78653   1
   1   5   3 1.94319 1.37656   2
   1   5   3 1.00130 0.91146   1
  -2  -5  -3 4.76039 2.89124   2
  -2  -5  -3 4.79832 2.17424   1
   2   5   3 2.06258 1.97135   2
   2   5   3 2.24307 0.86566   1
  -4   5   3 117.895 10.2311  -2
  -3  -5  -3 117.895 10.2311   1
  -3  -5  -3 73.1518 9.21519   2
   4  -5  -3 122.212 11.3516  -2
   3   5   3 122.212 11.3516   1
   3   5   3 68.1213 2.07120   1
   3   5   3 66.3313 4.20542   2
  -5   5   3 29.9107 8.98000  -2
  -4  -5  -3 29.9107 8.98000   1
  -4  -5  -3 17.1169 6.38717   2
   5  -5  -3 19.3238 9.42831  -2
   4   5   3 19.3238 9.42831   1
   4   5   3 22.3856 3.99405   2
   4   5   3 21.5205 1.40106   1
  -6   5   3 36.0273 10.2138  -2
  -5  -5  -3 36.0273 10.2138   1
  -5  -5  -3 -2.0268 5.18421   2
   5   5   3 -4.0409 2.56029   2
   6  -5  -3 26.2181 9.36691  -2
   5   5   3 26.2181 9.36691   1
   5   5   3 0.47467 1.07177   1
  -7   5   3 3.73015 10.5264  -2
  -6  -5  -3 3.73015 10.5264   1
   6   5   3 11.8674 3.54908   2
   6   5   3 6.86459 2.71061   1
   7  -5  -3 20.4224 9.85090  -2
   6   5   3 20.4224 9.85090   1
  -8   5   3 75.5623 13.8149  -2
  -7  -5  -3 75.5623 13.8149   1
   7   5   3 9.52582 3.77866   2
   8  -5  -3 75.4297 12.1094  -2
   7   5   3 75.4297 12.1094   1
   7   5   3 5.79849 3.01527   1
  -9   5   3 49.2734 14.0989  -2
  -8  -5  -3 49.2734 14.0989   1
   8   5   3 29.5358 6.94109   2
   8   5   3 24.0614 4.82059   1
   9  -5  -3 34.1211 12.5011  -2
   8   5   3 34.1211 12.5011   1
 -10   5   3 22.7828 14.3621  -2
  -9  -5  -3 22.7828 14.3621   1
  10  -5  -3 15.5712 11.8633  -2
   9   5   3 15.5712 11.8633   1
   8   6   3 31.2190 13.6781  -2
   9  -6  -3 31.2190 13.6781   1
  -8  -6  -3 45.5375 15.4791  -2
  -9   6   3 45.5375 15.4791   1
   8  -6  -3 22.4984 4.53447   1
   8  -6  -3 20.0393 4.27073   2
   7   6   3 47.1052 13.0774  -2
   8  -6  -3 47.1052 13.0774   1
  -7  -6  -3 41.3456 16.8408  -2
  -8   6   3 41.3456 16.8408   1
   7  -6  -3 34.8578 4.96370   1
   6   6   3 36.1754 11.6753  -2
   7  -6  -3 36.1754 11.6753   1
  -6  -6  -3 38.8704 16.5666  -2
  -7   6   3 38.8704 16.5666   1
   6  -6  -3 11.4730 3.45482   1
   5   6   3 9.26728 9.80297  -2
   6  -6  -3 9.26728 9.80297   1
  -5  -6  -3 17.7563 14.2981  -2
  -6   6   3 17.7563 14.2981   1
   5  -6  -3 4.67367 3.14013   1
   4   6   3 7.95121 8.04548  -2
   5  -6  -3 7.95121 8.04548   1
  -5   6   3 -0.6192 5.48155   1
   4  -6  -3 0.26402 2.27823   1
   4  -6  -3 -0.5868 1.40505   2
  -4   6   3 0.08393 4.65393   1
   3  -6  -3 8.80495 2.09427   2
   3  -6  -3 9.21566 2.53173   1
  -3   6   3 7.69560 2.57572   2
  -3   6   3 7.14467 3.16104   1
   2  -6  -3 10.7831 2.46475   1
   2  -6  -3 8.94358 1.94676   2
  -2   6   3 12.1269 1.61404   2
  -2   6   3 12.4627 3.24349   1
   1  -6  -3 20.5556 2.39628   2
   1  -6  -3 20.5062 2.14389   1
  -1   6   3 20.5342 2.03587   2
  -1   6   3 23.2347 2.46841   1
   0  -6  -3 252.736 5.99233   1
   0  -6  -3 247.815 5.67528   2
   0   6   3 250.000 6.02378   1
   0   6   3 244.127 4.75045   2
   1  -6  -3 256.821 13.2483  -2
   0   6   3 256.821 13.2483   1
  -1  -6  -3 28.9717 2.34373   1
  -1  -6  -3 35.2418 4.70297   2
   1   6   3 31.3012 2.75278   1
   1   6   3 26.7316 2.40932   2
  -2  -6  -3 6.74135 2.17967   2
  -2  -6  -3 8.59719 2.58198   1
   3  -6  -3 14.2759 9.93642  -2
   2   6   3 14.2759 9.93642   1
   2   6   3 7.59233 2.07005   1
   2   6   3 7.38772 2.39926   2
  -3  -6  -3 3.41963 2.99566   2
  -4   6   3 -7.5226 8.24133  -2
  -3  -6  -3 -7.5226 8.24133   1
   4  -6  -3 -6.0307 9.19001  -2
   3   6   3 -6.0307 9.19001   1
   3   6   3 1.19323 1.81559   1
   3   6   3 -0.8039 2.22230   2
  -4  -6  -3 5.79259 5.86847   2
  -5   6   3 17.5350 10.0361  -2
  -4  -6  -3 17.5350 10.0361   1
   5  -6  -3 0.27655 9.46248  -2
   4   6   3 0.27655 9.46248   1
   4   6   3 6.27901 3.74543   2
   4   6   3 5.65422 2.34487   1
  -6   6   3 17.1605 10.8545  -2
  -5  -6  -3 17.1605 10.8545   1
   6  -6  -3 4.72277 9.49968  -2
   5   6   3 4.72277 9.49968   1
   5   6   3 3.14885 3.03152   2
  -7   6   3 49.2801 12.9321  -2
  -6  -6  -3 49.2801 12.9321   1
   6   6   3 7.25109 3.55303   2
   7  -6  -3 45.9360 11.3506  -2
   6   6   3 45.9360 11.3506   1
  -8   6   3 46.3733 13.3709  -2
  -7  -6  -3 46.3733 13.3709   1
   8  -6  -3 44.1959 11.2876  -2
   7   6   3 44.1959 11.2876   1
   7   6   3 21.5853 4.55020   2
  -9   6   3 32.3334 13.6445  -2
  -8  -6  -3 32.3334 13.6445   1
   9  -6  -3 42.8056 12.6809  -2
   8   6   3 42.8056 12.6809   1
   8   6   3 32.4721 4.63356   2
  -9  -6  -3 -2.6603 5.77206   2
  -9  -6  -3 -2.4014 5.42122   1
   9   6   3 1.87576 6.46131   1
   9   6   3 -5.3041 4.53717   2
   8   7   3 3.65586 11.8028  -2
   9  -7  -3 3.65586 11.8028   1
  -8  -7  -3 2.61675 15.4054  -2
  -9   7   3 2.61675 15.4054   1
   7   7   3 20.7897 11.3585  -2
   8  -7  -3 20.7897 11.3585   1
   8  -7  -3 7.41120 3.43975   1
  -7  -7  -3 6.18201 15.0877  -2
  -8   7   3 6.18201 15.0877   1
   7  -7  -3 1.10232 3.18552   1
   6   7   3 17.6579 10.5691  -2
   7  -7  -3 17.6579 10.5691   1
  -6  -7  -3 5.89091 15.6768  -2
  -7   7   3 5.89091 15.6768   1
   6  -7  -3 21.6375 4.03852   1
   5   7   3 31.3176 10.5954  -2
   6  -7  -3 31.3176 10.5954   1
  -5  -7  -3 37.8190 15.6687  -2
  -6   7   3 37.8190 15.6687   1
   5  -7  -3 4.67909 4.03432   1
   4   7   3 13.5180 9.28839  -2
   5  -7  -3 13.5180 9.28839   1
  -5   7   3 1.61906 5.93735   1
   4  -7  -3 32.7314 3.73508   1
   4  -7  -3 32.2576 4.18688   2
  -4   7   3 34.0182 4.79394   1
   3  -7  -3 -0.2716 1.81444   2
   2   7   3 14.2481 7.35274  -2
   3  -7  -3 14.2481 7.35274   1
   3  -7  -3 2.41914 3.61721   1
  -3   7   3 1.41476 2.88596   2
  -3   7   3 -1.3559 2.62501   1
   2  -7  -3 13.1816 2.33697   2
   2  -7  -3 10.3401 2.64547   1
  -2   7   3 10.4844 1.64720   2
  -2   7   3 9.26561 2.34108   1
   1  -7  -3 4.00757 1.68553   1
   1  -7  -3 3.41822 1.74702   2
  -1   7   3 0.04121 1.91893   1
  -1   7   3 5.45979 1.79429   2
   0  -7  -3 20.5388 11.3759  -2
  -1   7   3 20.5388 11.3759   1
   0  -7  -3 2.24349 1.80247   1
   0  -7  -3 2.12026 1.93552   2
   0   7   3 0.68901 1.86570   1
   0   7   3 -0.5104 1.35153   2
  -1  -7  -3 2.71258 2.00603   2
  -1  -7  -3 5.06898 1.61098   1
   1   7   3 1.76706 2.16435   2
   1   7   3 2.30178 1.75070   1
  -2  -7  -3 16.7582 4.29971   1
  -2  -7  -3 18.0170 4.12273   2
  -3   7   3 19.0884 9.81225  -2
  -2  -7  -3 19.0884 9.81225   1
   2   7   3 19.0289 2.93491   1
   2   7   3 13.6080 4.33396   2
   3  -7  -3 6.55787 9.42309  -2
   2   7   3 6.55787 9.42309   1
  -3  -7  -3 0.92073 3.10818   2
  -3  -7  -3 -0.6108 2.45614   1
  -4   7   3 40.0154 10.7569  -2
  -3  -7  -3 40.0154 10.7569   1
   3   7   3 2.50249 2.52800   2
   3   7   3 1.34059 1.89970   1
   4  -7  -3 38.5590 5.23979  -2
   3   7   3 38.5590 5.23979   1
  -5   7   3 7.23844 10.7796  -2
  -4  -7  -3 7.23844 10.7796   1
  -4  -7  -3 12.9260 7.37338   2
   4   7   3 14.2792 5.07374   1
   5  -7  -3 13.7360 10.2644  -2
   4   7   3 13.7360 10.2644   1
   4   7   3 8.42420 4.24076   2
   5   7   3 2.64799 3.37608   2
   6  -7  -3 33.5049 10.4071  -2
   5   7   3 33.5049 10.4071   1
   6   7   3 19.6648 4.07093   2
   7  -7  -3 21.9574 10.9176  -2
   6   7   3 21.9574 10.9176   1
  -8   7   3 18.1536 14.6869  -2
  -7  -7  -3 18.1536 14.6869   1
   7   7   3 0.21486 3.35142   2
   8  -7  -3 -1.3857 11.6566  -2
   7   7   3 -1.3857 11.6566   1
  -9   7   3 20.0228 15.2477  -2
  -8  -7  -3 20.0228 15.2477   1
   9  -7  -3 -3.1249 12.4606  -2
   8   7   3 -3.1249 12.4606   1
   7   8   3 31.9464 12.4549  -2
   8  -8  -3 31.9464 12.4549   1
   8  -8  -3 -1.1710 4.39562   1
  -7  -8  -3 12.9094 15.4216  -2
  -8   8   3 12.9094 15.4216   1
   6   8   3 36.4876 11.2573  -2
   7  -8  -3 36.4876 11.2573   1
   7  -8  -3 13.6147 4.06633   1
  -6  -8  -3 34.7605 15.7150  -2
  -7   8   3 34.7605 15.7150   1
   5   8   3 3.47248 11.5081  -2
   6  -8  -3 3.47248 11.5081   1
   6  -8  -3 4.81822 3.23614   1
  -5  -8  -3 4.62852 13.9908  -2
  -6   8   3 4.62852 13.9908   1
   5  -8  -3 10.0491 4.21960   1
   4   8   3 185.510 13.4117  -2
   5  -8  -3 185.510 13.4117   1
  -4  -8  -3 154.759 17.3004  -2
  -5   8   3 154.759 17.3004   1
   3   8   3 183.655 12.4628  -2
   4  -8  -3 183.655 12.4628   1
   4  -8  -3 168.034 9.39403   1
  -4   8   3 160.625 10.5700   1
  -4   8   3 152.383 8.04674   2
  -3  -8  -3 208.265 20.8069  -2
  -4   8   3 208.265 20.8069   1
   2   8   3 28.5621 9.30730  -2
   3  -8  -3 28.5621 9.30730   1
   3  -8  -3 31.1142 5.13788   1
   3  -8  -3 23.8714 3.93629   2
  -3   8   3 28.8812 5.95679   1
  -2  -8  -3 48.3394 15.0544  -2
  -3   8   3 48.3394 15.0544   1
  -3   8   3 22.8110 4.92481   2
   2  -8  -3 0.85038 2.28977   2
   2  -8  -3 1.65657 2.51105   1
  -1  -8  -3 -1.5796 13.1994  -2
  -2   8   3 -1.5796 13.1994   1
  -2   8   3 4.57757 1.34027   2
  -2   8   3 3.05011 4.42254   1
   1  -8  -3 3.52552 1.75919   1
  -1   8   3 2.17744 1.82994   2
  -1   8   3 -0.0886 4.17665   1
   0  -8  -3 1.94426 1.82313   1
   0  -8  -3 1.19396 4.35529   2
   0   8   3 1.29524 1.64255   2
   1  -8  -3 8.31077 5.01198  -2
   0   8   3 8.31077 5.01198   1
  -1  -8  -3 -3.7633 3.74245   2
  -1  -8  -3 1.39655 1.57773   1
   1   8   3 1.87248 2.31955   1
   2  -8  -3 0.06723 10.5207  -2
   1   8   3 0.06723 10.5207   1
   1   8   3 0.68981 2.35681   2
  -2  -8  -3 3.23110 3.53974   1
  -3   8   3 37.2239 11.1954  -2
  -2  -8  -3 37.2239 11.1954   1
  -2  -8  -3 2.14501 4.28117   2
   3  -8  -3 38.0608 11.5076  -2
   2   8   3 38.0608 11.5076   1
   2   8   3 1.33433 2.02054   1
   2   8   3 1.61221 3.31965   2
  -4   8   3 174.533 14.5680  -2
  -3  -8  -3 174.533 14.5680   1
  -3  -8  -3 19.2886 5.12760   2
  -3  -8  -3 13.6550 3.92339   1
   3   8   3 13.5037 4.66845   2
   4  -8  -3 174.224 15.1018  -2
   3   8   3 174.224 15.1018   1
  -5   8   3 184.066 14.7271  -2
  -4  -8  -3 184.066 14.7271   1
   5  -8  -3 165.638 14.7024  -2
   4   8   3 165.638 14.7024   1
   4   8   3 154.373 9.05827   2
   5   8   3 1.42238 3.13439   2
   6  -8  -3 11.9717 11.6136  -2
   5   8   3 11.9717 11.6136   1
   6   8   3 12.9520 4.03381   2
   7  -8  -3 28.7224 11.8757  -2
   6   8   3 28.7224 11.8757   1
  -8   8   3 19.0010 13.9834  -2
  -7  -8  -3 19.0010 13.9834   1
   7   8   3 12.5674 3.76771   2
   8  -8  -3 6.45217 12.4952  -2
   7   8   3 6.45217 12.4952   1
  -8  -8  -3 1.23834 5.66252   1
  -8  -8  -3 -3.5555 5.93656   2
   8   8   3 -3.7126 5.31379   1
   8   8   3 6.24362 3.71262   2
   7   9   3 3.49486 14.4236  -2
   8  -9  -3 3.49486 14.4236   1
   8  -9  -3 0.91866 4.68599   1
  -7  -9  -3 -19.186 14.3488  -2
  -8   9   3 -19.186 14.3488   1
   7  -9  -3 0.08121 4.70936   1
   6   9   3 8.09526 7.03221  -2
   7  -9  -3 8.09526 7.03221   1
  -6  -9  -3 16.0997 14.6343  -2
  -7   9   3 16.0997 14.6343   1
   5   9   3 73.0628 12.2527  -2
   6  -9  -3 73.0628 12.2527   1
   6  -9  -3 19.4733 4.25912   1
  -5  -9  -3 71.1990 16.6842  -2
  -6   9   3 71.1990 16.6842   1
   5  -9  -3 61.2288 7.60330   1
   4   9   3 55.0269 11.4440  -2
   5  -9  -3 55.0269 11.4440   1
  -4  -9  -3 56.9899 15.3200  -2
  -5   9   3 56.9899 15.3200   1
   3   9   3 57.2138 10.7911  -2
   4  -9  -3 57.2138 10.7911   1
   4  -9  -3 44.2030 6.14815   1
  -3  -9  -3 59.2880 14.2741  -2
  -4   9   3 59.2880 14.2741   1
  -4   9   3 42.4367 6.95886   1
   2   9   3 1.70007 9.17371  -2
   3  -9  -3 1.70007 9.17371   1
   3  -9  -3 -0.7088 3.50943   1
  -2  -9  -3 16.0729 11.5449  -2
  -3   9   3 16.0729 11.5449   1
  -3   9   3 1.95606 3.79320   1
  -3   9   3 -0.4061 3.65342   2
   1   9   3 10.0076 9.35288  -2
   2  -9  -3 10.0076 9.35288   1
   2  -9  -3 2.55368 3.60805   1
  -2   9   3 -1.8748 1.18739   2
  -1  -9  -3 5.56913 7.41012  -2
  -2   9   3 5.56913 7.41012   1
   1  -9  -3 13.8423 3.12647   1
  -1   9   3 11.5386 2.16363   2
   0  -9  -3 20.0001 11.8155  -2
  -1   9   3 20.0001 11.8155   1
   0  -9  -3 0.47122 1.89019   1
   1  -9  -3 -0.4659 10.7995  -2
   0   9   3 -0.4659 10.7995   1
   0   9   3 7.41618 4.02994   2
  -1  -9  -3 12.4267 2.02056   1
   1   9   3 9.94697 3.58411   1
   2  -9  -3 19.7521 10.7661  -2
   1   9   3 19.7521 10.7661   1
   1   9   3 8.41726 4.17914   2
  -2  -9  -3 2.43085 4.59613   1
  -2  -9  -3 -1.4665 4.17895   2
   3  -9  -3 13.6991 11.1791  -2
   2   9   3 13.6991 11.1791   1
   2   9   3 2.07163 3.92731   2
  -4   9   3 62.4771 13.1946  -2
  -3  -9  -3 62.4771 13.1946   1
  -3  -9  -3 0.63787 4.60703   2
   3   9   3 4.74739 4.23131   2
   4  -9  -3 48.3839 12.9226  -2
   3   9   3 48.3839 12.9226   1
  -4  -9  -3 9.75297 4.91037   2
   4   9   3 0.97130 3.75387   2
   5  -9  -3 61.2774 13.0936  -2
   4   9   3 61.2774 13.0936   1
   5   9   3 43.4359 6.49159   2
   6  -9  -3 69.6984 13.3296  -2
   5   9   3 69.6984 13.3296   1
   7  -9  -3 5.08115 11.8381  -2
   6   9   3 5.08115 11.8381   1
   6   9   3 4.89439 5.53094   2
  -8   9   3 3.45715 15.0818  -2
  -7  -9  -3 3.45715 15.0818   1
   7   9   3 5.54765 4.36673   2
   8  -9  -3 -3.5859 12.3443  -2
   7   9   3 -3.5859 12.3443   1
   6  10   3 10.7829 7.28605  -2
   7 -10  -3 10.7829 7.28605   1
  -6 -10  -3 -1.5528 17.3441  -2
  -7  10   3 -1.5528 17.3441   1
   6 -10  -3 4.22571 4.12392   1
   5  10   3 26.4312 11.7736  -2
   6 -10  -3 26.4312 11.7736   1
  -5 -10  -3 23.9492 16.7317  -2
  -6  10   3 23.9492 16.7317   1
   4  10   3 117.021 13.7431  -2
   5 -10  -3 117.021 13.7431   1
   5 -10  -3 3.96211 4.68333   1
  -4 -10  -3 110.486 9.99216  -2
  -5  10   3 110.486 9.99216   1
   4 -10  -3 98.9860 8.18433   1
   3  10   3 140.602 13.4666  -2
   4 -10  -3 140.602 13.4666   1
  -3 -10  -3 121.311 10.0478  -2
  -4  10   3 121.311 10.0478   1
   3 -10  -3 36.4255 5.96530   1
   2  10   3 76.1206 11.3612  -2
   3 -10  -3 76.1206 11.3612   1
  -2 -10  -3 59.5067 9.58655  -2
  -3  10   3 59.5067 9.58655   1
   2 -10  -3 32.0929 5.65383   1
   1  10   3 31.6635 10.4854  -2
   2 -10  -3 31.6635 10.4854   1
  -2  10   3 27.7909 6.41323   2
  -1 -10  -3 29.1237 9.00491  -2
  -2  10   3 29.1237 9.00491   1
   1 -10  -3 13.6220 4.68352   1
   0 -10  -3 61.0953 13.8688  -2
  -1  10   3 61.0953 13.8688   1
  -1  10   3 3.60949 4.51270   2
   0 -10  -3 43.8938 6.65563   1
   0  10   3 39.2767 6.43499   2
   1 -10  -3 63.3876 12.9743  -2
   0  10   3 63.3876 12.9743   1
  -1 -10  -3 0.49502 4.48606   1
   2 -10  -3 32.5626 12.6174  -2
   1  10   3 32.5626 12.6174   1
   1  10   3 2.70989 3.92592   2
  -2 -10  -3 41.2883 7.76590   1
   3 -10  -3 87.3984 13.9450  -2
   2  10   3 87.3984 13.9450   1
   2  10   3 19.8459 5.09133   2
  -4  10   3 171.953 17.2611  -2
  -3 -10  -3 171.953 17.2611   1
   4 -10  -3 112.189 14.9086  -2
   3  10   3 112.189 14.9086   1
   3  10   3 31.3642 6.04221   2
  -5  10   3 120.171 16.2282  -2
  -4 -10  -3 120.171 16.2282   1
   5 -10  -3 127.595 15.4614  -2
   4  10   3 127.595 15.4614   1
   4  10   3 101.858 8.62020   2
   6 -10  -3 7.31498 12.8978  -2
   5  10   3 7.31498 12.8978   1
   5  10   3 14.1720 5.31685   2
   6  10   3 6.76256 6.34581   2
   7 -10  -3 20.1079 13.6319  -2
   6  10   3 20.1079 13.6319   1
   5  11   3 4.37101 6.71396  -2
   6 -11  -3 4.37101 6.71396   1
  -5 -11  -3 -15.723 15.7067  -2
  -6  11   3 -15.723 15.7067   1
   5 -11  -3 4.40083 4.23785   1
  -4 -11  -3 3.78257 8.56769  -2
  -5  11   3 3.78257 8.56769   1
   4 -11  -3 7.52861 4.49944   1
  -3 -11  -3 49.0702 9.40177  -2
  -4  11   3 49.0702 9.40177   1
   2  11   3 65.6283 12.9847  -2
   3 -11  -3 65.6283 12.9847   1
   3 -11  -3 30.9190 5.97815   1
  -2 -11  -3 57.4851 10.2296  -2
  -3  11   3 57.4851 10.2296   1
   1  11   3 93.9828 12.7850  -2
   2 -11  -3 93.9828 12.7850   1
   2 -11  -3 37.9856 6.42736   1
  -1 -11  -3 87.6147 14.6483  -2
  -2  11   3 87.6147 14.6483   1
  -2  11   3 39.8649 7.57215   2
   1 -11  -3 48.3385 7.06710   1
   1 -11  -3 43.9095 6.41893   2
  -1  11   3 40.5798 6.87765   2
   0 -11  -3 58.1284 14.3860  -2
  -1  11   3 58.1284 14.3860   1
   0 -11  -3 -0.8764 4.16224   1
   1 -11  -3 51.1361 13.3547  -2
   0  11   3 51.1361 13.3547   1
   0  11   3 10.7589 5.33104   1
   0  11   3 5.23606 4.65759   2
  -1 -11  -3 67.5756 8.86480   1
   1  11   3 47.2347 6.77795   2
   2 -11  -3 75.1123 14.5663  -2
   1  11   3 75.1123 14.5663   1
   2  11   3 17.9470 5.47438   2
   3 -11  -3 73.0071 14.6671  -2
   2  11   3 73.0071 14.6671   1
  -4  11   3 60.7517 15.3934  -2
  -3 -11  -3 60.7517 15.3934   1
   3  11   3 36.6049 6.49348   2
   4 -11  -3 35.3132 14.3052  -2
   3  11   3 35.3132 14.3052   1
  -5  11   3 24.7658 14.3915  -2
  -4 -11  -3 24.7658 14.3915   1
   5 -11  -3 0.41245 13.2699  -2
   4  11   3 0.41245 13.2699   1
   4  11   3 7.08563 4.55140   2
  -6  11   3 -5.8781 14.7751  -2
  -5 -11  -3 -5.8781 14.7751   1
   6 -11  -3 14.1417 11.8390  -2
   5  11   3 14.1417 11.8390   1
   4 -12  -3 -3.1209 3.97829   1
  -3 -12  -3 3.96735 10.7178  -2
  -4  12   3 3.96735 10.7178   1
   3 -12  -3 -6.1391 3.70465   1
  -2 -12  -3 -0.7778 11.5562  -2
  -3  12   3 -0.7778 11.5562   1
   2 -12  -3 -3.1321 3.95309   1
  -1 -12  -3 22.5066 13.8702  -2
  -2  12   3 22.5066 13.8702   1
  -2  12   3 3.67692 5.27087   2
   1 -12  -3 1.32914 4.35359   1
   0 -12  -3 126.631 16.8345  -2
  -1  12   3 126.631 16.8345   1
  -1  12   3 124.651 12.6773  -2
   0 -12  -3 124.651 12.6773   1
   1 -12  -3 118.311 16.2888  -2
   0  12   3 118.311 16.2888   1
   0  12   3 79.0940 8.83522   2
  -1 -12  -3 13.7776 5.79039   1
   2 -12  -3 -1.4355 14.1969  -2
   1  12   3 -1.4355 14.1969   1
   1  12   3 4.65557 4.65494   2
   3 -12  -3 -14.553 12.9672  -2
   2  12   3 -14.553 12.9672   1
   2  12   3 -5.8370 3.57702   2
   4 -12  -3 2.73401 13.8436  -2
   3  12   3 2.73401 13.8436   1
   3  12   3 -2.7976 4.06481   2
  -5  12   3 8.13387 14.6093  -2
  -4 -12  -3 8.13387 14.6093   1
   3 -13  -3 -3.3956 4.07067   1
  -2 -13  -3 -0.1516 12.6752  -2
  -3  13   3 -0.1516 12.6752   1
   2 -13  -3 1.77220 4.98331   1
  -1 -13  -3 4.15168 13.8491  -2
  -2  13   3 4.15168 13.8491   1
   0  13   3 11.1741 11.1363  -2
   1 -13  -3 11.1741 11.1363   1
   0 -13  -3 18.6735 15.0324  -2
  -1  13   3 18.6735 15.0324   1
  -1  13   3 11.3262 5.33424   2
   0 -13  -3 -4.8271 4.88593   1
   1 -13  -3 -7.2527 13.9324  -2
   0  13   3 -7.2527 13.9324   1
   1  13   3 3.14257 4.97367   2
   2 -13  -3 -11.371 13.4005  -2
   1  13   3 -11.371 13.4005   1
   2  13   3 3.13272 4.64273   2
  -3 -13  -3 5.02412 3.75754   2
  -3 -13  -3 2.72501 5.78549   1
   3  13   3 0.86644 4.73048   2
   3  13   3 5.78669 7.23834   1
   9   0   4 38.0933 15.5192  -2
 -10   0   4 38.0933 15.5192   1
   8   0   4 113.553 17.9725  -2
  -9   0   4 113.553 17.9725   1
   7   0   4 113.311 14.9882  -2
  -8   0   4 113.311 14.9882   1
   6   0   4 36.8334 7.32089  -2
  -7   0   4 36.8334 7.32089   1
   5   0   4 13.2311 6.37096  -2
  -6   0   4 13.2311 6.37096   1
   4   0   4 16.9044 6.04985  -2
  -5   0   4 16.9044 6.04985   1
   3   0   4 8.07943 5.44484  -2
  -4   0   4 8.07943 5.44484   1
   2   0   4 39.2416 5.86499  -2
  -3   0   4 39.2416 5.86499   1
   1   0   4 213.933 8.09258  -2
  -2   0   4 213.933 8.09258   1
   0   0   4 1936.41 25.9656  -2
  -1   0   4 1936.41 25.9656   1
  -1   0   4 1910.88 14.6115  -2
   0   0   4 1910.88 14.6115   1
  -2   0   4 210.930 4.87263  -2
   1   0   4 210.930 4.87263   1
  -3   0   4 39.2906 3.17686  -2
   2   0   4 39.2906 3.17686   1
  -4   0   4 14.2187 2.98485  -2
   3   0   4 14.2187 2.98485   1
  -5   0   4 18.3313 4.12735  -2
   4   0   4 18.3313 4.12735   1
  -6   0   4 10.2555 4.45237  -2
   5   0   4 10.2555 4.45237   1
  -7   0   4 42.7427 5.10362  -2
   6   0   4 42.7427 5.10362   1
  -8   0   4 120.323 6.26438  -2
   7   0   4 120.323 6.26438   1
   9   1   4 13.0432 14.1756  -2
  10  -1  -4 13.0432 14.1756   1
  -9  -1  -4 4.74753 14.2467  -2
 -10   1   4 4.74753 14.2467   1
   8   1   4 21.7133 12.6329  -2
   9  -1  -4 21.7133 12.6329   1
  -8  -1  -4 19.8164 14.0949  -2
  -9   1   4 19.8164 14.0949   1
   7   1   4 55.8141 14.3595  -2
   8  -1  -4 55.8141 14.3595   1
  -7  -1  -4 47.7822 14.0825  -2
  -8   1   4 47.7822 14.0825   1
   6   1   4 24.8488 7.60525  -2
   7  -1  -4 24.8488 7.60525   1
  -6  -1  -4 31.3243 11.8667  -2
  -7   1   4 31.3243 11.8667   1
   5   1   4 26.3783 6.86907  -2
   6  -1  -4 26.3783 6.86907   1
  -5  -1  -4 26.3441 6.44828  -2
  -6   1   4 26.3441 6.44828   1
   4   1   4 9.17205 6.25669  -2
   5  -1  -4 9.17205 6.25669   1
  -4  -1  -4 7.78703 5.91772  -2
  -5   1   4 7.78703 5.91772   1
   3   1   4 25.9506 5.85715  -2
   4  -1  -4 25.9506 5.85715   1
  -3  -1  -4 21.4563 6.21363  -2
  -4   1   4 21.4563 6.21363   1
   2   1   4 36.7605 5.77382  -2
   3  -1  -4 36.7605 5.77382   1
  -2  -1  -4 42.0311 6.06141  -2
  -3   1   4 42.0311 6.06141   1
   1   1   4 221.480 10.4517  -2
   2  -1  -4 221.480 10.4517   1
  -1  -1  -4 221.141 8.39753  -2
  -2   1   4 221.141 8.39753   1
   0   1   4 160.257 9.56573  -2
   1  -1  -4 160.257 9.56573   1
   0  -1  -4 180.523 7.62818  -2
  -1   1   4 180.523 7.62818   1
  -1   1   4 192.389 10.0831  -2
   0  -1  -4 192.389 10.0831   1
   0  -1  -4 55.7701 2.89914   1
   1  -1  -4 186.223 5.49828  -2
   0   1   4 186.223 5.49828   1
  -2   1   4 221.538 9.96412  -2
  -1  -1  -4 221.538 9.96412   1
   2  -1  -4 229.699 5.09576  -2
   1   1   4 229.699 5.09576   1
  -3   1   4 38.7779 7.19995  -2
  -2  -1  -4 38.7779 7.19995   1
   3  -1  -4 34.8115 2.80727  -2
   2   1   4 34.8115 2.80727   1
  -4   1   4 32.1778 5.16458  -2
  -3  -1  -4 32.1778 5.16458   1
   4  -1  -4 24.6363 2.05318  -2
   3   1   4 24.6363 2.05318   1
  -5   1   4 9.98680 5.65594  -2
  -4  -1  -4 9.98680 5.65594   1
   5  -1  -4 6.51097 2.78471  -2
   4   1   4 6.51097 2.78471   1
  -6   1   4 22.2633 4.34780  -2
  -5  -1  -4 22.2633 4.34780   1
   6  -1  -4 29.4754 4.75384  -2
   5   1   4 29.4754 4.75384   1
  -7   1   4 31.2318 4.73144  -2
  -6  -1  -4 31.2318 4.73144   1
   7  -1  -4 25.2785 4.67080  -2
   6   1   4 25.2785 4.67080   1
  -8   1   4 45.4259 5.38417  -2
  -7  -1  -4 45.4259 5.38417   1
   8  -1  -4 48.8149 5.53548  -2
   7   1   4 48.8149 5.53548   1
  -9   1   4 36.1591 10.8338  -2
  -8  -1  -4 36.1591 10.8338   1
   9   2   4 4.95454 8.51153  -2
  10  -2  -4 4.95454 8.51153   1
  -9  -2  -4 3.28416 15.5103  -2
 -10   2   4 3.28416 15.5103   1
   8   2   4 -4.2536 11.4595  -2
   9  -2  -4 -4.2536 11.4595   1
  -8  -2  -4 9.51078 14.5550  -2
  -9   2   4 9.51078 14.5550   1
   7   2   4 6.25224 7.31038  -2
   8  -2  -4 6.25224 7.31038   1
  -7  -2  -4 4.42596 13.0499  -2
  -8   2   4 4.42596 13.0499   1
   6   2   4 23.7328 7.44559  -2
   7  -2  -4 23.7328 7.44559   1
  -6  -2  -4 23.2810 12.4214  -2
  -7   2   4 23.2810 12.4214   1
   5   2   4 -2.0103 6.32227  -2
   6  -2  -4 -2.0103 6.32227   1
  -5  -2  -4 16.1729 11.3209  -2
  -6   2   4 16.1729 11.3209   1
   4   2   4 64.0153 6.97185  -2
   5  -2  -4 64.0153 6.97185   1
  -4  -2  -4 61.2338 7.26061  -2
  -5   2   4 61.2338 7.26061   1
   3   2   4 71.1793 6.81891  -2
   4  -2  -4 71.1793 6.81891   1
  -3  -2  -4 67.9246 6.87042  -2
  -4   2   4 67.9246 6.87042   1
   2   2   4 25.2296 7.06931  -2
   3  -2  -4 25.2296 7.06931   1
  -2  -2  -4 23.1568 5.85492  -2
  -3   2   4 23.1568 5.85492   1
   1   2   4 6.25134 6.00790  -2
   2  -2  -4 6.25134 6.00790   1
  -1  -2  -4 1.44690 5.27836  -2
  -2   2   4 1.44690 5.27836   1
   0   2   4 131.121 8.99185  -2
   1  -2  -4 131.121 8.99185   1
   0  -2  -4 118.472 6.84011  -2
  -1   2   4 118.472 6.84011   1
  -1   2   4 129.841 9.31889  -2
   0  -2  -4 129.841 9.31889   1
   1  -2  -4 113.988 4.03675  -2
   0   2   4 113.988 4.03675   1
  -2   2   4 2.78569 6.37404  -2
  -1  -2  -4 2.78569 6.37404   1
   2  -2  -4 -1.1946 2.57440  -2
   1   2   4 -1.1946 2.57440   1
  -3   2   4 21.4384 6.80744  -2
  -2  -2  -4 21.4384 6.80744   1
   3  -2  -4 21.8180 2.68478  -2
   2   2   4 21.8180 2.68478   1
  -4   2   4 61.6532 6.73655  -2
  -3  -2  -4 61.6532 6.73655   1
   4  -2  -4 65.5977 3.23570  -2
   3   2   4 65.5977 3.23570   1
  -5   2   4 73.5861 7.79073  -2
  -4  -2  -4 73.5861 7.79073   1
   5  -2  -4 65.1497 2.83728  -2
   4   2   4 65.1497 2.83728   1
  -6   2   4 2.04289 7.05383  -2
  -5  -2  -4 2.04289 7.05383   1
   6  -2  -4 -2.4955 3.62774  -2
   5   2   4 -2.4955 3.62774   1
  -7   2   4 31.4553 7.92228  -2
  -6  -2  -4 31.4553 7.92228   1
   7  -2  -4 16.6622 4.68130  -2
   6   2   4 16.6622 4.68130   1
  -8   2   4 3.91132 8.96232  -2
  -7  -2  -4 3.91132 8.96232   1
   8  -2  -4 7.35934 8.05312  -2
   7   2   4 7.35934 8.05312   1
  -9   2   4 -8.8621 9.38480  -2
  -8  -2  -4 -8.8621 9.38480   1
   9  -2  -4 -3.9309 8.40543  -2
   8   2   4 -3.9309 8.40543   1
   8   3   4 10.0539 8.27867  -2
   9  -3  -4 10.0539 8.27867   1
  -8  -3  -4 -3.0001 13.5291  -2
  -9   3   4 -3.0001 13.5291   1
   7   3   4 14.6671 5.85785  -2
   8  -3  -4 14.6671 5.85785   1
  -7  -3  -4 37.8352 14.7659  -2
  -8   3   4 37.8352 14.7659   1
   6   3   4 11.1258 5.27349  -2
   7  -3  -4 11.1258 5.27349   1
  -6  -3  -4 24.8363 13.4798  -2
  -7   3   4 24.8363 13.4798   1
   5   3   4 86.1096 6.14694  -2
   6  -3  -4 86.1096 6.14694   1
  -5  -3  -4 93.7863 14.6512  -2
  -6   3   4 93.7863 14.6512   1
   4   3   4 65.6390 5.44301  -2
   5  -3  -4 65.6390 5.44301   1
  -4  -3  -4 61.6942 7.18007  -2
  -5   3   4 61.6942 7.18007   1
   3   3   4 20.3485 4.80358  -2
   4  -3  -4 20.3485 4.80358   1
  -3  -3  -4 21.3047 6.48269  -2
  -4   3   4 21.3047 6.48269   1
   2   3   4 11.5256 4.10440  -2
   3  -3  -4 11.5256 4.10440   1
  -2  -3  -4 12.2475 5.52878  -2
  -3   3   4 12.2475 5.52878   1
   1   3   4 16.9186 3.56793  -2
   2  -3  -4 16.9186 3.56793   1
  -1  -3  -4 14.5220 5.36288  -2
  -2   3   4 14.5220 5.36288   1
   0   3   4 5.29247 2.48879  -2
   1  -3  -4 5.29247 2.48879   1
   0  -3  -4 11.5850 3.24554  -2
  -1   3   4 11.5850 3.24554   1
  -1   3   4 6.43752 3.94839  -2
   0  -3  -4 6.43752 3.94839   1
   1  -3  -4 3.93251 3.06470  -2
   0   3   4 3.93251 3.06470   1
  -2   3   4 10.9914 6.76387  -2
  -1  -3  -4 10.9914 6.76387   1
   2  -3  -4 16.3930 2.92288  -2
   1   3   4 16.3930 2.92288   1
   3  -3  -4 7.88523 2.45045  -2
   2   3   4 7.88523 2.45045   1
  -4   3   4 24.7689 6.70326  -2
  -3  -3  -4 24.7689 6.70326   1
   4  -3  -4 18.0056 2.61365  -2
   3   3   4 18.0056 2.61365   1
  -5   3   4 60.0611 8.26031  -2
  -4  -3  -4 60.0611 8.26031   1
   5  -3  -4 61.8370 2.45369  -2
   4   3   4 61.8370 2.45369   1
  -6   3   4 102.191 9.70398  -2
  -5  -3  -4 102.191 9.70398   1
   6  -3  -4 86.0519 3.35232  -2
   5   3   4 86.0519 3.35232   1
  -7   3   4 24.0031 8.91899  -2
  -6  -3  -4 24.0031 8.91899   1
   7  -3  -4 17.4627 8.21965  -2
   6   3   4 17.4627 8.21965   1
  -8   3   4 17.3062 9.40490  -2
  -7  -3  -4 17.3062 9.40490   1
   8  -3  -4 24.0326 8.40699  -2
   7   3   4 24.0326 8.40699   1
  -9   3   4 8.72914 10.4544  -2
  -8  -3  -4 8.72914 10.4544   1
   9  -3  -4 -2.6789 8.67931  -2
   8   3   4 -2.6789 8.67931   1
  -9  -3  -4 3.49351 8.27575   2
  -9  -3  -4 -5.5580 5.06475   1
   9   3   4 1.84724 4.54386   2
   8   4   4 25.3750 8.12367  -2
   9  -4  -4 25.3750 8.12367   1
  -8  -4  -4 31.5273 15.7326  -2
  -9   4   4 31.5273 15.7326   1
   7   4   4 8.46298 5.66277  -2
   8  -4  -4 8.46298 5.66277   1
  -7  -4  -4 16.1961 14.0296  -2
  -8   4   4 16.1961 14.0296   1
   6   4   4 -0.0806 5.17730  -2
   7  -4  -4 -0.0806 5.17730   1
  -6  -4  -4 -3.8568 13.1242  -2
  -7   4   4 -3.8568 13.1242   1
   5   4   4 40.0956 5.44287  -2
   6  -4  -4 40.0956 5.44287   1
  -5  -4  -4 21.4164 13.6586  -2
  -6   4   4 21.4164 13.6586   1
   4   4   4 120.557 7.02240  -2
   5  -4  -4 120.557 7.02240   1
  -4  -4  -4 130.835 15.7499  -2
  -5   4   4 130.835 15.7499   1
   3   4   4 132.710 6.52157  -2
   4  -4  -4 132.710 6.52157   1
  -3  -4  -4 107.850 12.6454  -2
  -4   4   4 107.850 12.6454   1
   2   4   4 17.4185 4.52143  -2
   3  -4  -4 17.4185 4.52143   1
  -2  -4  -4 22.2367 5.73084  -2
  -3   4   4 22.2367 5.73084   1
   1   4   4 20.9324 3.81622  -2
   2  -4  -4 20.9324 3.81622   1
  -1  -4  -4 19.8483 4.44750  -2
  -2   4   4 19.8483 4.44750   1
   0   4   4 42.6251 3.00980  -2
   1  -4  -4 42.6251 3.00980   1
   0  -4  -4 47.2492 4.59054  -2
  -1   4   4 47.2492 4.59054   1
  -1   4   4 46.2395 4.47928  -2
   0  -4  -4 46.2395 4.47928   1
   1  -4  -4 50.9304 4.15352  -2
   0   4   4 50.9304 4.15352   1
  -2   4   4 29.6636 7.52681  -2
  -1  -4  -4 29.6636 7.52681   1
   2  -4  -4 25.2280 3.77645  -2
   1   4   4 25.2280 3.77645   1
   3  -4  -4 16.4382 2.73440  -2
   2   4   4 16.4382 2.73440   1
  -4   4   4 125.819 9.88484  -2
  -3  -4  -4 125.819 9.88484   1
   4  -4  -4 125.510 3.79395  -2
   3   4   4 125.510 3.79395   1
  -5   4   4 141.431 10.6555  -2
  -4  -4  -4 141.431 10.6555   1
   5  -4  -4 119.659 3.12671  -2
   4   4   4 119.659 3.12671   1
  -6   4   4 31.8706 8.72324  -2
  -5  -4  -4 31.8706 8.72324   1
   6  -4  -4 24.7942 3.60207  -2
   5   4   4 24.7942 3.60207   1
  -7   4   4 -13.865 8.80207  -2
  -6  -4  -4 -13.865 8.80207   1
   7  -4  -4 -0.8077 7.86728  -2
   6   4   4 -0.8077 7.86728   1
  -8   4   4 20.5530 10.8511  -2
  -7  -4  -4 20.5530 10.8511   1
   8  -4  -4 18.1169 9.15744  -2
   7   4   4 18.1169 9.15744   1
  -9   4   4 26.4409 10.3846  -2
  -8  -4  -4 26.4409 10.3846   1
   9  -4  -4 7.76225 10.4061  -2
   8   4   4 7.76225 10.4061   1
   8   5   4 10.1917 6.32997  -2
   9  -5  -4 10.1917 6.32997   1
  -8  -5  -4 -5.4299 14.8928  -2
  -9   5   4 -5.4299 14.8928   1
   7   5   4 13.9947 5.90217  -2
   8  -5  -4 13.9947 5.90217   1
  -7  -5  -4 28.5102 14.5641  -2
  -8   5   4 28.5102 14.5641   1
   6   5   4 5.60703 6.44917  -2
   7  -5  -4 5.60703 6.44917   1
  -6  -5  -4 16.7478 14.0814  -2
  -7   5   4 16.7478 14.0814   1
   5   5   4 -4.4148 4.94443  -2
   6  -5  -4 -4.4148 4.94443   1
  -5  -5  -4 6.90916 12.9701  -2
  -6   5   4 6.90916 12.9701   1
   4   5   4 3.25309 5.51768  -2
   5  -5  -4 3.25309 5.51768   1
  -4  -5  -4 1.68371 11.5944  -2
  -5   5   4 1.68371 11.5944   1
   3   5   4 13.7145 5.05214  -2
   4  -5  -4 13.7145 5.05214   1
  -3  -5  -4 26.7785 12.0993  -2
  -4   5   4 26.7785 12.0993   1
   2   5   4 10.8541 4.53372  -2
   3  -5  -4 10.8541 4.53372   1
  -2  -5  -4 14.1482 10.3060  -2
  -3   5   4 14.1482 10.3060   1
   1   5   4 6.62945 4.05162  -2
   2  -5  -4 6.62945 4.05162   1
  -1  -5  -4 6.39112 4.15845  -2
  -2   5   4 6.39112 4.15845   1
   0   5   4 3.35131 3.07549  -2
   1  -5  -4 3.35131 3.07549   1
   0  -5  -4 -0.9993 3.77509  -2
  -1   5   4 -0.9993 3.77509   1
  -1   5   4 3.51081 3.80222  -2
   0  -5  -4 3.51081 3.80222   1
   1  -5  -4 2.24597 4.21142  -2
   0   5   4 2.24597 4.21142   1
  -2   5   4 9.39268 3.73000  -2
  -1  -5  -4 9.39268 3.73000   1
   2  -5  -4 3.86924 3.50601  -2
   1   5   4 3.86924 3.50601   1
   3  -5  -4 7.01031 2.59292  -2
   2   5   4 7.01031 2.59292   1
  -4   5   4 23.6356 7.97291  -2
  -3  -5  -4 23.6356 7.97291   1
   4  -5  -4 11.8068 2.34919  -2
   3   5   4 11.8068 2.34919   1
  -5   5   4 14.9764 8.30221  -2
  -4  -5  -4 14.9764 8.30221   1
   5  -5  -4 0.59332 2.35359  -2
   4   5   4 0.59332 2.35359   1
  -6   5   4 -11.329 8.87551  -2
  -5  -5  -4 -11.329 8.87551   1
   6  -5  -4 -0.1754 8.59618  -2
   5   5   4 -0.1754 8.59618   1
  -7   5   4 -9.2909 9.35908  -2
  -6  -5  -4 -9.2909 9.35908   1
   7  -5  -4 0.07791 8.84635  -2
   6   5   4 0.07791 8.84635   1
  -8   5   4 28.2082 12.0103  -2
  -7  -5  -4 28.2082 12.0103   1
   8  -5  -4 12.5607 8.90487  -2
   7   5   4 12.5607 8.90487   1
  -9   5   4 14.5068 12.2747  -2
  -8  -5  -4 14.5068 12.2747   1
   9  -5  -4 -5.1669 10.5790  -2
   8   5   4 -5.1669 10.5790   1
   8   6   4 11.4232 7.51439  -2
   9  -6  -4 11.4232 7.51439   1
   7   6   4 6.34358 5.98656  -2
   8  -6  -4 6.34358 5.98656   1
  -7  -6  -4 11.6441 13.9413  -2
  -8   6   4 11.6441 13.9413   1
   6   6   4 12.7139 5.90789  -2
   7  -6  -4 12.7139 5.90789   1
  -6  -6  -4 -2.3638 14.8501  -2
  -7   6   4 -2.3638 14.8501   1
   5   6   4 11.0313 6.13254  -2
   6  -6  -4 11.0313 6.13254   1
  -5  -6  -4 -5.7082 12.6988  -2
  -6   6   4 -5.7082 12.6988   1
   4   6   4 35.4674 6.04512  -2
   5  -6  -4 35.4674 6.04512   1
  -4  -6  -4 33.5969 12.6210  -2
  -5   6   4 33.5969 12.6210   1
   3   6   4 20.4752 5.17042  -2
   4  -6  -4 20.4752 5.17042   1
  -3  -6  -4 31.8886 13.0307  -2
  -4   6   4 31.8886 13.0307   1
   2   6   4 62.0069 5.82515  -2
   3  -6  -4 62.0069 5.82515   1
  -2  -6  -4 72.9867 8.29809  -2
  -3   6   4 72.9867 8.29809   1
   1   6   4 60.3402 4.88192  -2
   2  -6  -4 60.3402 4.88192   1
  -1  -6  -4 74.1559 7.85283  -2
  -2   6   4 74.1559 7.85283   1
   0   6   4 42.9443 4.30632  -2
   1  -6  -4 42.9443 4.30632   1
   0  -6  -4 46.0103 6.89320  -2
  -1   6   4 46.0103 6.89320   1
  -1   6   4 38.5736 4.58746  -2
   0  -6  -4 38.5736 4.58746   1
   1  -6  -4 42.5234 7.14959  -2
   0   6   4 42.5234 7.14959   1
  -2   6   4 60.3740 4.29468  -2
  -1  -6  -4 60.3740 4.29468   1
   2  -6  -4 73.8475 4.38966  -2
   1   6   4 73.8475 4.38966   1
   3  -6  -4 70.9392 3.78134  -2
   2   6   4 70.9392 3.78134   1
  -4   6   4 17.6529 9.01339  -2
  -3  -6  -4 17.6529 9.01339   1
   4  -6  -4 10.7794 5.52291  -2
   3   6   4 10.7794 5.52291   1
  -5   6   4 31.9785 10.0953  -2
  -4  -6  -4 31.9785 10.0953   1
   5  -6  -4 44.6345 9.97847  -2
   4   6   4 44.6345 9.97847   1
  -6   6   4 -4.5558 9.65492  -2
  -5  -6  -4 -4.5558 9.65492   1
   6  -6  -4 -8.9063 8.71820  -2
   5   6   4 -8.9063 8.71820   1
  -7   6   4 10.6208 11.4982  -2
  -6  -6  -4 10.6208 11.4982   1
   7  -6  -4 0.22385 8.61849  -2
   6   6   4 0.22385 8.61849   1
  -8   6   4 11.5998 11.1785  -2
  -7  -6  -4 11.5998 11.1785   1
   8  -6  -4 16.9354 10.3472  -2
   7   6   4 16.9354 10.3472   1
  -8  -6  -4 -6.1932 8.73877   2
  -9   6   4 -9.1747 11.9437  -2
  -8  -6  -4 -9.1747 11.9437   1
   8   6   4 0.62694 6.08514   2
   8   6   4 15.6160 6.92408   1
   7   7   4 -0.2739 6.00542  -2
   8  -7  -4 -0.2739 6.00542   1
  -7  -7  -4 -3.0104 16.8140  -2
  -8   7   4 -3.0104 16.8140   1
   6   7   4 11.7046 5.90067  -2
   7  -7  -4 11.7046 5.90067   1
  -6  -7  -4 10.6763 14.8629  -2
  -7   7   4 10.6763 14.8629   1
   5   7   4 18.5880 6.59199  -2
   6  -7  -4 18.5880 6.59199   1
  -5  -7  -4 17.4195 14.3476  -2
  -6   7   4 17.4195 14.3476   1
   4   7   4 7.37842 5.79684  -2
   5  -7  -4 7.37842 5.79684   1
  -4  -7  -4 16.8544 13.7446  -2
  -5   7   4 16.8544 13.7446   1
   3   7   4 35.7640 5.93334  -2
   4  -7  -4 35.7640 5.93334   1
  -3  -7  -4 34.3863 13.6926  -2
  -4   7   4 34.3863 13.6926   1
   2   7   4 8.91968 5.03894  -2
   3  -7  -4 8.91968 5.03894   1
  -2  -7  -4 11.5811 7.51929  -2
  -3   7   4 11.5811 7.51929   1
   1   7   4 54.3192 5.46018  -2
   2  -7  -4 54.3192 5.46018   1
  -1  -7  -4 50.4389 7.43775  -2
  -2   7   4 50.4389 7.43775   1
   0   7   4 60.4329 5.04171  -2
   1  -7  -4 60.4329 5.04171   1
   0  -7  -4 68.7259 8.41311  -2
  -1   7   4 68.7259 8.41311   1
  -1   7   4 62.7241 5.11778  -2
   0  -7  -4 62.7241 5.11778   1
   1  -7  -4 58.3248 7.76389  -2
   0   7   4 58.3248 7.76389   1
  -2   7   4 53.0955 4.81963  -2
  -1  -7  -4 53.0955 4.81963   1
   2  -7  -4 59.2638 7.20519  -2
   1   7   4 59.2638 7.20519   1
   3  -7  -4 2.62061 6.50219  -2
   2   7   4 2.62061 6.50219   1
  -4   7   4 35.0515 10.7300  -2
  -3  -7  -4 35.0515 10.7300   1
   4  -7  -4 36.9331 6.28909  -2
   3   7   4 36.9331 6.28909   1
  -5   7   4 14.6759 11.1037  -2
  -4  -7  -4 14.6759 11.1037   1
   5  -7  -4 13.4538 9.10520  -2
   4   7   4 13.4538 9.10520   1
  -6   7   4 17.3441 11.2690  -2
  -5  -7  -4 17.3441 11.2690   1
   6  -7  -4 15.9151 9.29447  -2
   5   7   4 15.9151 9.29447   1
  -7   7   4 1.16099 12.0382  -2
  -6  -7  -4 1.16099 12.0382   1
   7  -7  -4 0.30529 8.95801  -2
   6   7   4 0.30529 8.95801   1
  -8   7   4 -17.949 11.0628  -2
  -7  -7  -4 -17.949 11.0628   1
   8  -7  -4 9.69991 10.5554  -2
   7   7   4 9.69991 10.5554   1
   7   8   4 4.09148 9.39795  -2
   8  -8  -4 4.09148 9.39795   1
  -7  -8  -4 -5.3346 14.9487  -2
  -8   8   4 -5.3346 14.9487   1
   6   8   4 23.1075 6.05198  -2
   7  -8  -4 23.1075 6.05198   1
  -6  -8  -4 17.7707 16.1236  -2
  -7   8   4 17.7707 16.1236   1
   5   8   4 51.5282 7.48125  -2
   6  -8  -4 51.5282 7.48125   1
  -5  -8  -4 71.8946 18.7886  -2
  -6   8   4 71.8946 18.7886   1
   4   8   4 100.097 7.58928  -2
   5  -8  -4 100.097 7.58928   1
  -4  -8  -4 124.565 17.8821  -2
  -5   8   4 124.565 17.8821   1
   3   8   4 88.7716 6.94223  -2
   4  -8  -4 88.7716 6.94223   1
  -3  -8  -4 84.7543 9.27146  -2
  -4   8   4 84.7543 9.27146   1
   2   8   4 72.6271 6.79716  -2
   3  -8  -4 72.6271 6.79716   1
  -2  -8  -4 63.8385 8.50036  -2
  -3   8   4 63.8385 8.50036   1
   1   8   4 7.11798 4.94577  -2
   2  -8  -4 7.11798 4.94577   1
  -1  -8  -4 -2.2112 6.70538  -2
  -2   8   4 -2.2112 6.70538   1
   0   8   4 66.6413 9.10809  -2
   1  -8  -4 66.6413 9.10809   1
   0  -8  -4 63.6994 8.33499  -2
  -1   8   4 63.6994 8.33499   1
  -1   8   4 81.7276 10.0951  -2
   0  -8  -4 81.7276 10.0951   1
   1  -8  -4 64.8741 8.19512  -2
   0   8   4 64.8741 8.19512   1
   2  -8  -4 2.38632 6.56053  -2
   1   8   4 2.38632 6.56053   1
   3  -8  -4 67.4655 7.79011  -2
   2   8   4 67.4655 7.79011   1
  -4   8   4 107.044 13.6799  -2
  -3  -8  -4 107.044 13.6799   1
   4  -8  -4 101.948 12.8829  -2
   3   8   4 101.948 12.8829   1
  -5   8   4 130.050 13.9070  -2
  -4  -8  -4 130.050 13.9070   1
   5  -8  -4 87.4237 12.1873  -2
   4   8   4 87.4237 12.1873   1
  -6   8   4 54.4409 12.7668  -2
  -5  -8  -4 54.4409 12.7668   1
   6  -8  -4 55.0524 10.9456  -2
   5   8   4 55.0524 10.9456   1
  -7   8   4 9.21239 12.1469  -2
  -6  -8  -4 9.21239 12.1469   1
   7  -8  -4 24.6981 10.5862  -2
   6   8   4 24.6981 10.5862   1
  -8   8   4 -8.8622 12.2322  -2
  -7  -8  -4 -8.8622 12.2322   1
   7   8   4 -1.2744 5.72045   2
   7   8   4 3.84741 5.95813   1
   6   9   4 3.62715 6.72827  -2
   7  -9  -4 3.62715 6.72827   1
   5   9   4 19.5148 6.77095  -2
   6  -9  -4 19.5148 6.77095   1
  -5  -9  -4 22.1435 15.1310  -2
  -6   9   4 22.1435 15.1310   1
   4   9   4 20.0369 6.06091  -2
   5  -9  -4 20.0369 6.06091   1
  -4  -9  -4 1.73537 15.3494  -2
  -5   9   4 1.73537 15.3494   1
   3   9   4 28.9917 6.70656  -2
   4  -9  -4 28.9917 6.70656   1
  -3  -9  -4 38.9549 8.75109  -2
  -4   9   4 38.9549 8.75109   1
   2   9   4 52.5049 6.65870  -2
   3  -9  -4 52.5049 6.65870   1
  -2  -9  -4 55.9451 8.50554  -2
  -3   9   4 55.9451 8.50554   1
   1   9   4 -0.0802 7.30152  -2
   2  -9  -4 -0.0802 7.30152   1
  -1  -9  -4 7.32299 7.37712  -2
  -2   9   4 7.32299 7.37712   1
   0  -9  -4 7.66816 8.47717  -2
  -1   9   4 7.66816 8.47717   1
  -1   9   4 -14.225 8.01824  -2
   0  -9  -4 -14.225 8.01824   1
   1  -9  -4 16.1410 10.7033  -2
   0   9   4 16.1410 10.7033   1
   2  -9  -4 11.0067 7.12681  -2
   1   9   4 11.0067 7.12681   1
   3  -9  -4 42.2902 6.97970  -2
   2   9   4 42.2902 6.97970   1
   4  -9  -4 33.2002 12.2640  -2
   3   9   4 33.2002 12.2640   1
  -5   9   4 7.87187 11.4628  -2
  -4  -9  -4 7.87187 11.4628   1
   5  -9  -4 20.5053 11.4375  -2
   4   9   4 20.5053 11.4375   1
  -6   9   4 32.3813 13.1789  -2
  -5  -9  -4 32.3813 13.1789   1
   6  -9  -4 23.1447 10.5186  -2
   5   9   4 23.1447 10.5186   1
  -7   9   4 -2.8712 12.4430  -2
  -6  -9  -4 -2.8712 12.4430   1
   7  -9  -4 2.25439 10.9943  -2
   6   9   4 2.25439 10.9943   1
   5  10   4 7.33659 6.72102  -2
   6 -10  -4 7.33659 6.72102   1
   4  10   4 67.7957 7.58120  -2
   5 -10  -4 67.7957 7.58120   1
  -4 -10  -4 59.7526 14.6699  -2
  -5  10   4 59.7526 14.6699   1
   3  10   4 61.0115 7.00864  -2
   4 -10  -4 61.0115 7.00864   1
  -3 -10  -4 74.4067 9.36460  -2
  -4  10   4 74.4067 9.36460   1
   2  10   4 24.7001 6.26075  -2
   3 -10  -4 24.7001 6.26075   1
  -2 -10  -4 31.4362 8.28258  -2
  -3  10   4 31.4362 8.28258   1
   1  10   4 25.4982 6.16626  -2
   2 -10  -4 25.4982 6.16626   1
  -1 -10  -4 18.3255 8.77429  -2
  -2  10   4 18.3255 8.77429   1
   0  10   4 10.9571 8.49440  -2
   1 -10  -4 10.9571 8.49440   1
   0 -10  -4 27.8461 8.39756  -2
  -1  10   4 27.8461 8.39756   1
  -1  10   4 32.8440 9.71593  -2
   0 -10  -4 32.8440 9.71593   1
   1 -10  -4 16.4167 7.53574  -2
   0  10   4 16.4167 7.53574   1
  -2  10   4 19.9127 9.18386  -2
  -1 -10  -4 19.9127 9.18386   1
   2 -10  -4 20.7657 7.77193  -2
   1  10   4 20.7657 7.77193   1
   3 -10  -4 20.8499 10.9327  -2
   2  10   4 20.8499 10.9327   1
   4 -10  -4 78.2061 13.8392  -2
   3  10   4 78.2061 13.8392   1
  -5  10   4 96.1118 15.5642  -2
  -4 -10  -4 96.1118 15.5642   1
   5 -10  -4 94.5218 13.4363  -2
   4  10   4 94.5218 13.4363   1
  -6  10   4 0.71479 12.9961  -2
  -5 -10  -4 0.71479 12.9961   1
   6 -10  -4 10.9997 11.5330  -2
   5  10   4 10.9997 11.5330   1
   4  11   4 -4.3604 6.64720  -2
   5 -11  -4 -4.3604 6.64720   1
   3  11   4 23.0885 6.87440  -2
   4 -11  -4 23.0885 6.87440   1
  -3 -11  -4 17.0295 8.51354  -2
  -4  11   4 17.0295 8.51354   1
   2  11   4 17.7310 6.67504  -2
   3 -11  -4 17.7310 6.67504   1
  -2 -11  -4 25.3658 8.55189  -2
  -3  11   4 25.3658 8.55189   1
   1  11   4 6.58714 8.95522  -2
   2 -11  -4 6.58714 8.95522   1
  -1 -11  -4 5.72254 8.46275  -2
  -2  11   4 5.72254 8.46275   1
   0  11   4 1.50384 8.33815  -2
   1 -11  -4 1.50384 8.33815   1
   0 -11  -4 8.19788 8.34423  -2
  -1  11   4 8.19788 8.34423   1
  -1  11   4 -13.988 8.94157  -2
   0 -11  -4 -13.988 8.94157   1
   1 -11  -4 -2.4418 8.14278  -2
   0  11   4 -2.4418 8.14278   1
  -2  11   4 7.96548 9.73570  -2
  -1 -11  -4 7.96548 9.73570   1
   2 -11  -4 6.98598 12.1139  -2
   1  11   4 6.98598 12.1139   1
   3 -11  -4 20.9659 11.3407  -2
   2  11   4 20.9659 11.3407   1
   4 -11  -4 21.2707 12.7157  -2
   3  11   4 21.2707 12.7157   1
   5 -11  -4 9.09229 11.9645  -2
   4  11   4 9.09229 11.9645   1
   2  12   4 -1.8410 9.21814  -2
   3 -12  -4 -1.8410 9.21814   1
  -2 -12  -4 -15.127 12.4283  -2
  -3  12   4 -15.127 12.4283   1
   1  12   4 26.5180 9.95546  -2
   2 -12  -4 26.5180 9.95546   1
  -1 -12  -4 0.01934 9.16350  -2
  -2  12   4 0.01934 9.16350   1
   0  12   4 25.3384 9.79378  -2
   1 -12  -4 25.3384 9.79378   1
   0 -12  -4 24.0321 13.8241  -2
  -1  12   4 24.0321 13.8241   1
  -1  12   4 27.9065 10.6159  -2
   0 -12  -4 27.9065 10.6159   1
   1 -12  -4 19.8749 12.5065  -2
   0  12   4 19.8749 12.5065   1
  -2  12   4 0.78037 9.84280  -2
  -1 -12  -4 0.78037 9.84280   1
   2 -12  -4 2.06519 12.8096  -2
   1  12   4 2.06519 12.8096   1
   3 -12  -4 -4.6559 10.9042  -2
   2  12   4 -4.6559 10.9042   1
  -3 -12  -4 9.33377 7.85143   2
   3  12   4 4.12811 5.11066   2
   8   0   5 0.46152 4.40414  -2
  -9   0   5 0.46152 4.40414   1
   7   0   5 3.32716 3.51745  -2
  -8   0   5 3.32716 3.51745   1
   6   0   5 -4.3197 4.53110  -2
  -7   0   5 -4.3197 4.53110   1
   5   0   5 -3.0689 3.70128  -2
  -6   0   5 -3.0689 3.70128   1
   4   0   5 -3.7897 4.53260  -2
  -5   0   5 -3.7897 4.53260   1
   3   0   5 5.68945 4.49986  -2
  -4   0   5 5.68945 4.49986   1
   2   0   5 1.91457 3.80991  -2
  -3   0   5 1.91457 3.80991   1
   1   0   5 0.66280 3.94143  -2
  -2   0   5 0.66280 3.94143   1
   0   0   5 0.59428 4.22053  -2
  -1   0   5 0.59428 4.22053   1
  -1   0   5 -2.7463 1.61928  -2
   0   0   5 -2.7463 1.61928   1
  -2   0   5 -0.0956 1.76289  -2
   1   0   5 -0.0956 1.76289   1
  -3   0   5 0.89802 1.67689  -2
   2   0   5 0.89802 1.67689   1
  -4   0   5 -2.1613 3.29030  -2
   3   0   5 -2.1613 3.29030   1
  -5   0   5 -0.0240 1.67086  -2
   4   0   5 -0.0240 1.67086   1
  -6   0   5 -0.4403 2.63501  -2
   5   0   5 -0.4403 2.63501   1
  -7   0   5 1.37773 2.92063  -2
   6   0   5 1.37773 2.92063   1
   8   1   5 10.9813 4.91007  -2
   9  -1  -5 10.9813 4.91007   1
  -8  -1  -5 4.55851 11.5328  -2
  -9   1   5 4.55851 11.5328   1
   7   1   5 58.9108 5.85571  -2
   8  -1  -5 58.9108 5.85571   1
  -7  -1  -5 58.0779 12.1176  -2
  -8   1   5 58.0779 12.1176   1
   6   1   5 8.60420 3.67159  -2
   7  -1  -5 8.60420 3.67159   1
  -6  -1  -5 9.09499 5.08206  -2
  -7   1   5 9.09499 5.08206   1
   5   1   5 8.01565 3.47588  -2
   6  -1  -5 8.01565 3.47588   1
  -5  -1  -5 4.91883 4.77772  -2
  -6   1   5 4.91883 4.77772   1
   4   1   5 1.32744 5.29569  -2
   5  -1  -5 1.32744 5.29569   1
  -4  -1  -5 1.98349 3.94131  -2
  -5   1   5 1.98349 3.94131   1
   3   1   5 18.9270 5.22387  -2
   4  -1  -5 18.9270 5.22387   1
  -3  -1  -5 13.1163 4.90266  -2
  -4   1   5 13.1163 4.90266   1
   2   1   5 11.5113 4.84404  -2
   3  -1  -5 11.5113 4.84404   1
  -2  -1  -5 15.4080 4.29757  -2
  -3   1   5 15.4080 4.29757   1
   1   1   5 5.24718 4.70465  -2
   2  -1  -5 5.24718 4.70465   1
  -1  -1  -5 6.78088 3.43892  -2
  -2   1   5 6.78088 3.43892   1
   0   1   5 19.9961 4.13162  -2
   1  -1  -5 19.9961 4.13162   1
   0  -1  -5 20.8356 2.69457  -2
  -1   1   5 20.8356 2.69457   1
  -1   1   5 19.2071 2.09605  -2
   0  -1  -5 19.2071 2.09605   1
   1  -1  -5 18.2605 2.45929  -2
   0   1   5 18.2605 2.45929   1
  -2   1   5 8.34482 4.23959  -2
  -1  -1  -5 8.34482 4.23959   1
   2  -1  -5 7.47890 1.97906  -2
   1   1   5 7.47890 1.97906   1
  -3   1   5 4.68301 3.61416  -2
  -2  -1  -5 4.68301 3.61416   1
   3  -1  -5 8.87626 2.30496  -2
   2   1   5 8.87626 2.30496   1
  -4   1   5 15.7774 4.83046  -2
  -3  -1  -5 15.7774 4.83046   1
   4  -1  -5 17.8707 2.28877  -2
   3   1   5 17.8707 2.28877   1
  -5   1   5 4.92857 2.23123  -2
  -4  -1  -5 4.92857 2.23123   1
   5  -1  -5 4.00033 2.47502  -2
   4   1   5 4.00033 2.47502   1
  -6   1   5 10.6174 2.80398  -2
  -5  -1  -5 10.6174 2.80398   1
   6  -1  -5 6.03202 2.60898  -2
   5   1   5 6.03202 2.60898   1
  -7   1   5 11.8173 4.92408  -2
  -6  -1  -5 11.8173 4.92408   1
   7  -1  -5 9.18095 3.18840  -2
   6   1   5 9.18095 3.18840   1
  -8   1   5 61.9467 8.26213  -2
  -7  -1  -5 61.9467 8.26213   1
   8  -1  -5 70.2838 5.64206  -2
   7   1   5 70.2838 5.64206   1
  -9   1   5 20.9413 6.19049  -2
  -8  -1  -5 20.9413 6.19049   1
   8   2   5 66.3348 7.57110  -2
   9  -2  -5 66.3348 7.57110   1
  -8  -2  -5 87.8325 15.3142  -2
  -9   2   5 87.8325 15.3142   1
   7   2   5 42.1284 5.46004  -2
   8  -2  -5 42.1284 5.46004   1
  -7  -2  -5 57.0327 13.3653  -2
  -8   2   5 57.0327 13.3653   1
   6   2   5 58.3850 5.49252  -2
   7  -2  -5 58.3850 5.49252   1
  -6  -2  -5 57.4599 11.8999  -2
  -7   2   5 57.4599 11.8999   1
   5   2   5 0.83801 3.43088  -2
   6  -2  -5 0.83801 3.43088   1
  -5  -2  -5 2.31416 4.54991  -2
  -6   2   5 2.31416 4.54991   1
   4   2   5 33.4110 3.78031  -2
   5  -2  -5 33.4110 3.78031   1
  -4  -2  -5 35.0142 5.37212  -2
  -5   2   5 35.0142 5.37212   1
   3   2   5 35.1405 3.73454  -2
   4  -2  -5 35.1405 3.73454   1
  -3  -2  -5 35.9488 5.28441  -2
  -4   2   5 35.9488 5.28441   1
   2   2   5 27.1168 3.17725  -2
   3  -2  -5 27.1168 3.17725   1
  -2  -2  -5 34.3480 5.28555  -2
  -3   2   5 34.3480 5.28555   1
   1   2   5 29.0176 3.22940  -2
   2  -2  -5 29.0176 3.22940   1
  -1  -2  -5 38.3796 5.14613  -2
  -2   2   5 38.3796 5.14613   1
   0   2   5 67.5727 3.05881  -2
   1  -2  -5 67.5727 3.05881   1
   0  -2  -5 79.5309 4.26081  -2
  -1   2   5 79.5309 4.26081   1
  -1   2   5 65.1536 6.78012  -2
   0  -2  -5 65.1536 6.78012   1
   1  -2  -5 72.3518 4.02951  -2
   0   2   5 72.3518 4.02951   1
  -2   2   5 42.8540 6.12314  -2
  -1  -2  -5 42.8540 6.12314   1
   2  -2  -5 37.2982 2.82160  -2
   1   2   5 37.2982 2.82160   1
  -3   2   5 32.3831 6.17080  -2
  -2  -2  -5 32.3831 6.17080   1
   3  -2  -5 31.9204 2.66758  -2
   2   2   5 31.9204 2.66758   1
  -4   2   5 47.9822 7.16274  -2
  -3  -2  -5 47.9822 7.16274   1
   4  -2  -5 37.2636 2.94167  -2
   3   2   5 37.2636 2.94167   1
  -5   2   5 45.2787 4.56954  -2
  -4  -2  -5 45.2787 4.56954   1
   5  -2  -5 37.0731 3.59562  -2
   4   2   5 37.0731 3.59562   1
  -6   2   5 8.73324 2.78111  -2
  -5  -2  -5 8.73324 2.78111   1
   6  -2  -5 3.67755 2.35034  -2
   5   2   5 3.67755 2.35034   1
  -7   2   5 57.4383 5.61016  -2
  -6  -2  -5 57.4383 5.61016   1
   7  -2  -5 53.0646 4.78985  -2
   6   2   5 53.0646 4.78985   1
  -8   2   5 52.3909 8.15926  -2
  -7  -2  -5 52.3909 8.15926   1
   8  -2  -5 68.0811 9.60177  -2
   7   2   5 68.0811 9.60177   1
  -9   2   5 80.9898 10.1664  -2
  -8  -2  -5 80.9898 10.1664   1
   7   3   5 70.2575 5.95014  -2
   8  -3  -5 70.2575 5.95014   1
  -7  -3  -5 62.7939 13.1429  -2
  -8   3   5 62.7939 13.1429   1
   6   3   5 -0.6906 3.27934  -2
   7  -3  -5 -0.6906 3.27934   1
  -6  -3  -5 -3.2580 9.79526  -2
  -7   3   5 -3.2580 9.79526   1
   5   3   5 -2.1807 3.17339  -2
   6  -3  -5 -2.1807 3.17339   1
  -5  -3  -5 7.68028 10.0727  -2
  -6   3   5 7.68028 10.0727   1
   4   3   5 0.39345 2.88223  -2
   5  -3  -5 0.39345 2.88223   1
  -4  -3  -5 4.63532 4.31184  -2
  -5   3   5 4.63532 4.31184   1
   3   3   5 3.31165 2.74838  -2
   4  -3  -5 3.31165 2.74838   1
  -3  -3  -5 -2.1294 3.82101  -2
  -4   3   5 -2.1294 3.82101   1
   2   3   5 15.1746 2.89771  -2
   3  -3  -5 15.1746 2.89771   1
  -2  -3  -5 15.9859 3.97159  -2
  -3   3   5 15.9859 3.97159   1
   1   3   5 27.1480 2.89102  -2
   2  -3  -5 27.1480 2.89102   1
  -1  -3  -5 31.5825 4.90003  -2
  -2   3   5 31.5825 4.90003   1
   0   3   5 15.2368 4.44952  -2
   1  -3  -5 15.2368 4.44952   1
   0  -3  -5 26.9087 4.34029  -2
  -1   3   5 26.9087 4.34029   1
  -1   3   5 23.7252 5.35515  -2
   0  -3  -5 23.7252 5.35515   1
   1  -3  -5 17.4212 3.10744  -2
   0   3   5 17.4212 3.10744   1
  -2   3   5 26.5309 5.32549  -2
  -1  -3  -5 26.5309 5.32549   1
   2  -3  -5 27.9338 2.73705  -2
   1   3   5 27.9338 2.73705   1
  -3   3   5 10.7155 4.92716  -2
  -2  -3  -5 10.7155 4.92716   1
   3  -3  -5 12.7544 2.85845  -2
   2   3   5 12.7544 2.85845   1
  -4   3   5 4.69076 4.73532  -2
  -3  -3  -5 4.69076 4.73532   1
   4  -3  -5 4.49908 2.34421  -2
   3   3   5 4.49908 2.34421   1
  -5   3   5 3.62558 2.80112  -2
  -4  -3  -5 3.62558 2.80112   1
   5  -3  -5 2.35612 2.00052  -2
   4   3   5 2.35612 2.00052   1
  -6   3   5 1.08092 2.97494  -2
  -5  -3  -5 1.08092 2.97494   1
   6  -3  -5 1.83038 2.39866  -2
   5   3   5 1.83038 2.39866   1
  -7   3   5 0.68552 3.06798  -2
  -6  -3  -5 0.68552 3.06798   1
   7  -3  -5 0.52451 4.65985  -2
   6   3   5 0.52451 4.65985   1
  -8   3   5 73.8291 9.26266  -2
  -7  -3  -5 73.8291 9.26266   1
   8  -3  -5 65.2593 9.26880  -2
   7   3   5 65.2593 9.26880   1
   7   4   5 7.85773 4.21497  -2
   8  -4  -5 7.85773 4.21497   1
  -7  -4  -5 12.4464 11.6383  -2
  -8   4   5 12.4464 11.6383   1
   6   4   5 29.0289 4.74581  -2
   7  -4  -5 29.0289 4.74581   1
  -6  -4  -5 39.4558 12.2916  -2
  -7   4   5 39.4558 12.2916   1
   5   4   5 14.6479 3.59390  -2
   6  -4  -5 14.6479 3.59390   1
  -5  -4  -5 18.2844 12.0387  -2
  -6   4   5 18.2844 12.0387   1
   4   4   5 7.26793 3.23426  -2
   5  -4  -5 7.26793 3.23426   1
  -4  -4  -5 12.2800 9.81934  -2
  -5   4   5 12.2800 9.81934   1
   3   4   5 2.87377 2.84058  -2
   4  -4  -5 2.87377 2.84058   1
  -3  -4  -5 -3.3157 3.85238  -2
  -4   4   5 -3.3157 3.85238   1
   2   4   5 24.6265 3.11737  -2
   3  -4  -5 24.6265 3.11737   1
  -2  -4  -5 23.6540 4.81119  -2
  -3   4   5 23.6540 4.81119   1
   1   4   5 10.4172 2.00801  -2
   2  -4  -5 10.4172 2.00801   1
  -1  -4  -5 8.19538 3.73066  -2
  -2   4   5 8.19538 3.73066   1
   0   4   5 4.01286 3.63202  -2
   1  -4  -5 4.01286 3.63202   1
   0  -4  -5 3.73327 2.65049  -2
  -1   4   5 3.73327 2.65049   1
  -1   4   5 6.67908 4.26301  -2
   0  -4  -5 6.67908 4.26301   1
   1  -4  -5 4.38362 2.51802  -2
   0   4   5 4.38362 2.51802   1
  -2   4   5 9.84565 4.90733  -2
  -1  -4  -5 9.84565 4.90733   1
   2  -4  -5 9.44082 2.49445  -2
   1   4   5 9.44082 2.49445   1
  -3   4   5 22.3942 6.07350  -2
  -2  -4  -5 22.3942 6.07350   1
   3  -4  -5 20.9843 3.09195  -2
   2   4   5 20.9843 3.09195   1
  -4   4   5 5.58022 5.07418  -2
  -3  -4  -5 5.58022 5.07418   1
   4  -4  -5 -0.7519 2.07503  -2
   3   4   5 -0.7519 2.07503   1
  -5   4   5 11.4656 3.40548  -2
  -4  -4  -5 11.4656 3.40548   1
   5  -4  -5 10.1729 2.47818  -2
   4   4   5 10.1729 2.47818   1
  -6   4   5 12.8555 4.07728  -2
  -5  -4  -5 12.8555 4.07728   1
   6  -4  -5 14.1618 5.53999  -2
   5   4   5 14.1618 5.53999   1
  -7   4   5 44.7267 5.68340  -2
  -6  -4  -5 44.7267 5.68340   1
   7  -4  -5 21.8767 6.77875  -2
   6   4   5 21.8767 6.77875   1
  -8   4   5 2.70350 3.60998  -2
  -7  -4  -5 2.70350 3.60998   1
   8  -4  -5 16.1697 6.53104  -2
   7   4   5 16.1697 6.53104   1
   7   5   5 39.5498 5.49388  -2
   8  -5  -5 39.5498 5.49388   1
  -7  -5  -5 50.0809 13.4567  -2
  -8   5   5 50.0809 13.4567   1
   6   5   5 8.03149 3.98100  -2
   7  -5  -5 8.03149 3.98100   1
  -6  -5  -5 8.69862 11.9429  -2
  -7   5   5 8.69862 11.9429   1
   5   5   5 19.1747 4.15773  -2
   6  -5  -5 19.1747 4.15773   1
  -5  -5  -5 7.47479 11.0465  -2
  -6   5   5 7.47479 11.0465   1
   4   5   5 5.46022 3.35824  -2
   5  -5  -5 5.46022 3.35824   1
  -4  -5  -5 -1.4221 10.7666  -2
  -5   5   5 -1.4221 10.7666   1
   3   5   5 40.4954 4.06391  -2
   4  -5  -5 40.4954 4.06391   1
  -3  -5  -5 40.8604 11.1296  -2
  -4   5   5 40.8604 11.1296   1
   2   5   5 13.2208 2.98065  -2
   3  -5  -5 13.2208 2.98065   1
  -2  -5  -5 16.8152 4.36456  -2
  -3   5   5 16.8152 4.36456   1
   1   5   5 3.65733 1.99983  -2
   2  -5  -5 3.65733 1.99983   1
  -1  -5  -5 5.26734 3.46493  -2
  -2   5   5 5.26734 3.46493   1
   0   5   5 0.61896 3.61834  -2
   1  -5  -5 0.61896 3.61834   1
   0  -5  -5 4.53054 2.64218  -2
  -1   5   5 4.53054 2.64218   1
  -1   5   5 1.06163 3.53038  -2
   0  -5  -5 1.06163 3.53038   1
   1  -5  -5 4.62190 2.42680  -2
   0   5   5 4.62190 2.42680   1
  -2   5   5 2.36862 3.87810  -2
  -1  -5  -5 2.36862 3.87810   1
   2  -5  -5 3.83590 2.17793  -2
   1   5   5 3.83590 2.17793   1
  -3   5   5 17.9327 5.92203  -2
  -2  -5  -5 17.9327 5.92203   1
   3  -5  -5 15.3673 2.73847  -2
   2   5   5 15.3673 2.73847   1
  -4   5   5 43.7375 8.19815  -2
  -3  -5  -5 43.7375 8.19815   1
   4  -5  -5 45.7342 3.61531  -2
   3   5   5 45.7342 3.61531   1
  -5   5   5 8.15291 3.47415  -2
  -4  -5  -5 8.15291 3.47415   1
   5  -5  -5 5.76182 4.78231  -2
   4   5   5 5.76182 4.78231   1
  -6   5   5 20.1784 4.68369  -2
  -5  -5  -5 20.1784 4.68369   1
   6  -5  -5 24.4105 6.90904  -2
   5   5   5 24.4105 6.90904   1
  -7   5   5 4.66543 3.86870  -2
  -6  -5  -5 4.66543 3.86870   1
   7  -5  -5 0.04009 4.88929  -2
   6   5   5 0.04009 4.88929   1
  -8   5   5 48.3676 9.12888  -2
  -7  -5  -5 48.3676 9.12888   1
   8  -5  -5 47.7512 9.21790  -2
   7   5   5 47.7512 9.21790   1
   6   6   5 28.8091 4.97460  -2
   7  -6  -5 28.8091 4.97460   1
  -6  -6  -5 29.7936 12.8341  -2
  -7   6   5 29.7936 12.8341   1
   5   6   5 -0.0636 3.46401  -2
   6  -6  -5 -0.0636 3.46401   1
  -5  -6  -5 15.8191 12.3612  -2
  -6   6   5 15.8191 12.3612   1
   4   6   5 8.88179 3.24311  -2
   5  -6  -5 8.88179 3.24311   1
  -4  -6  -5 -3.2996 11.0203  -2
  -5   6   5 -3.2996 11.0203   1
   3   6   5 6.37368 2.79372  -2
   4  -6  -5 6.37368 2.79372   1
  -3  -6  -5 -4.8395 10.0381  -2
  -4   6   5 -4.8395 10.0381   1
   2   6   5 10.7795 2.90902  -2
   3  -6  -5 10.7795 2.90902   1
  -2  -6  -5 -0.4551 10.5653  -2
  -3   6   5 -0.4551 10.5653   1
   1   6   5 12.2302 2.56467  -2
   2  -6  -5 12.2302 2.56467   1
  -1  -6  -5 16.1890 5.19225  -2
  -2   6   5 16.1890 5.19225   1
   0   6   5 74.5571 8.71750  -2
   1  -6  -5 74.5571 8.71750   1
   0  -6  -5 78.5690 4.90296  -2
  -1   6   5 78.5690 4.90296   1
  -1   6   5 80.9261 8.78912  -2
   0  -6  -5 80.9261 8.78912   1
   1  -6  -5 75.0103 4.59094  -2
   0   6   5 75.0103 4.59094   1
  -2   6   5 21.6115 5.93503  -2
  -1  -6  -5 21.6115 5.93503   1
   2  -6  -5 19.0606 3.01163  -2
   1   6   5 19.0606 3.01163   1
  -3   6   5 11.4685 5.38578  -2
  -2  -6  -5 11.4685 5.38578   1
   3  -6  -5 9.25240 2.30151  -2
   2   6   5 9.25240 2.30151   1
  -4   6   5 -2.9500 5.39155  -2
  -3  -6  -5 -2.9500 5.39155   1
   4  -6  -5 1.43546 3.71115  -2
   3   6   5 1.43546 3.71115   1
  -5   6   5 9.80591 4.19627  -2
  -4  -6  -5 9.80591 4.19627   1
   5  -6  -5 7.49559 5.06186  -2
   4   6   5 7.49559 5.06186   1
  -6   6   5 4.98852 3.85814  -2
  -5  -6  -5 4.98852 3.85814   1
   6  -6  -5 2.41243 5.08141  -2
   5   6   5 2.41243 5.08141   1
  -7   6   5 27.9919 5.61951  -2
  -6  -6  -5 27.9919 5.61951   1
   7  -6  -5 30.6032 7.82931  -2
   6   6   5 30.6032 7.82931   1
  -7  -6  -5 10.6215 10.8569   2
   7   6   5 16.1112 9.21374   2
   6   7   5 6.22520 3.83711  -2
   7  -7  -5 6.22520 3.83711   1
  -6  -7  -5 8.79051 12.8712  -2
  -7   7   5 8.79051 12.8712   1
   5   7   5 22.2903 4.36343  -2
   6  -7  -5 22.2903 4.36343   1
  -5  -7  -5 23.8794 13.0691  -2
  -6   7   5 23.8794 13.0691   1
   4   7   5 7.70015 3.28205  -2
   5  -7  -5 7.70015 3.28205   1
  -4  -7  -5 -0.9954 11.0717  -2
  -5   7   5 -0.9954 11.0717   1
   3   7   5 22.4884 4.05361  -2
   4  -7  -5 22.4884 4.05361   1
  -3  -7  -5 6.18840 11.7406  -2
  -4   7   5 6.18840 11.7406   1
   2   7   5 4.62885 2.51478  -2
   3  -7  -5 4.62885 2.51478   1
  -2  -7  -5 -3.1839 10.3875  -2
  -3   7   5 -3.1839 10.3875   1
   1   7   5 4.52212 2.31011  -2
   2  -7  -5 4.52212 2.31011   1
  -1  -7  -5 5.92860 4.84742  -2
  -2   7   5 5.92860 4.84742   1
   0   7   5 4.59263 5.67210  -2
   1  -7  -5 4.59263 5.67210   1
   0  -7  -5 4.55919 4.22035  -2
  -1   7   5 4.55919 4.22035   1
  -1   7   5 4.53893 4.77397  -2
   0  -7  -5 4.53893 4.77397   1
   1  -7  -5 -0.8878 4.06172  -2
   0   7   5 -0.8878 4.06172   1
  -2   7   5 4.97097 5.13224  -2
  -1  -7  -5 4.97097 5.13224   1
   2  -7  -5 5.40029 4.10216  -2
   1   7   5 5.40029 4.10216   1
  -3   7   5 7.90607 5.74112  -2
  -2  -7  -5 7.90607 5.74112   1
   3  -7  -5 0.11919 4.34379  -2
   2   7   5 0.11919 4.34379   1
  -4   7   5 34.1340 7.50836  -2
  -3  -7  -5 34.1340 7.50836   1
   4  -7  -5 18.4361 6.93330  -2
   3   7   5 18.4361 6.93330   1
  -5   7   5 3.55398 4.16063  -2
  -4  -7  -5 3.55398 4.16063   1
   5  -7  -5 9.72501 5.58036  -2
   4   7   5 9.72501 5.58036   1
  -6   7   5 16.2369 4.81006  -2
  -5  -7  -5 16.2369 4.81006   1
   6  -7  -5 16.8586 6.87461  -2
   5   7   5 16.8586 6.87461   1
  -7   7   5 11.6751 4.90578  -2
  -6  -7  -5 11.6751 4.90578   1
   7  -7  -5 1.36687 5.88158  -2
   6   7   5 1.36687 5.88158   1
   5   8   5 1.96150 3.65630  -2
   6  -8  -5 1.96150 3.65630   1
  -5  -8  -5 -8.5790 11.6578  -2
  -6   8   5 -8.5790 11.6578   1
   4   8   5 80.1662 5.88543  -2
   5  -8  -5 80.1662 5.88543   1
  -4  -8  -5 97.8651 16.0168  -2
  -5   8   5 97.8651 16.0168   1
   3   8   5 76.5036 6.00201  -2
   4  -8  -5 76.5036 6.00201   1
  -3  -8  -5 68.2745 14.7698  -2
  -4   8   5 68.2745 14.7698   1
   2   8   5 20.4681 3.67838  -2
   3  -8  -5 20.4681 3.67838   1
  -2  -8  -5 16.6267 5.86029  -2
  -3   8   5 16.6267 5.86029   1
   1   8   5 0.88807 3.05855  -2
   2  -8  -5 0.88807 3.05855   1
  -1  -8  -5 2.26272 4.32457  -2
  -2   8   5 2.26272 4.32457   1
   0   8   5 2.75913 5.72375  -2
   1  -8  -5 2.75913 5.72375   1
   0  -8  -5 2.49751 4.76279  -2
  -1   8   5 2.49751 4.76279   1
  -1   8   5 1.06155 4.46927  -2
   0  -8  -5 1.06155 4.46927   1
   1  -8  -5 2.78061 4.44909  -2
   0   8   5 2.78061 4.44909   1
  -2   8   5 2.46099 5.09883  -2
  -1  -8  -5 2.46099 5.09883   1
   2  -8  -5 -1.9999 4.15862  -2
   1   8   5 -1.9999 4.15862   1
  -3   8   5 24.7732 7.17208  -2
  -2  -8  -5 24.7732 7.17208   1
   3  -8  -5 14.5798 4.86936  -2
   2   8   5 14.5798 4.86936   1
  -4   8   5 63.9602 9.72925  -2
  -3  -8  -5 63.9602 9.72925   1
   4  -8  -5 73.8819 10.7580  -2
   3   8   5 73.8819 10.7580   1
  -5   8   5 91.0434 11.7917  -2
  -4  -8  -5 91.0434 11.7917   1
   5  -8  -5 76.8435 11.1964  -2
   4   8   5 76.8435 11.1964   1
  -6   8   5 6.36896 4.44867  -2
  -5  -8  -5 6.36896 4.44867   1
   6  -8  -5 3.35563 5.68208  -2
   5   8   5 3.35563 5.68208   1
   4   9   5 27.8881 5.06411  -2
   5  -9  -5 27.8881 5.06411   1
  -4  -9  -5 55.0813 14.6655  -2
  -5   9   5 55.0813 14.6655   1
   3   9   5 32.6800 4.81507  -2
   4  -9  -5 32.6800 4.81507   1
  -3  -9  -5 54.1014 13.6369  -2
  -4   9   5 54.1014 13.6369   1
   2   9   5 7.03529 5.34004  -2
   3  -9  -5 7.03529 5.34004   1
  -2  -9  -5 7.48060 5.26201  -2
  -3   9   5 7.48060 5.26201   1
   1   9   5 5.33080 4.79382  -2
   2  -9  -5 5.33080 4.79382   1
  -1  -9  -5 11.8357 5.14738  -2
  -2   9   5 11.8357 5.14738   1
   0   9   5 5.39090 7.12221  -2
   1  -9  -5 5.39090 7.12221   1
   0  -9  -5 7.30636 4.83552  -2
  -1   9   5 7.30636 4.83552   1
  -1   9   5 4.50384 5.46204  -2
   0  -9  -5 4.50384 5.46204   1
   1  -9  -5 6.45651 5.78816  -2
   0   9   5 6.45651 5.78816   1
  -2   9   5 12.1532 6.09945  -2
  -1  -9  -5 12.1532 6.09945   1
   2  -9  -5 4.40636 4.73511  -2
   1   9   5 4.40636 4.73511   1
  -3   9   5 4.19189 6.02941  -2
  -2  -9  -5 4.19189 6.02941   1
   3  -9  -5 2.31770 5.67083  -2
   2   9   5 2.31770 5.67083   1
  -4   9   5 44.0290 9.40195  -2
  -3  -9  -5 44.0290 9.40195   1
   4  -9  -5 37.2439 8.06422  -2
   3   9   5 37.2439 8.06422   1
  -5   9   5 41.9928 9.48347  -2
  -4  -9  -5 41.9928 9.48347   1
   5  -9  -5 24.0754 7.80352  -2
   4   9   5 24.0754 7.80352   1
  -5  -9  -5 38.9767 12.9163   2
   5   9   5 39.0392 10.9763   2
   3  10   5 49.3241 9.18880  -2
   4 -10  -5 49.3241 9.18880   1
  -3 -10  -5 78.7628 16.3210  -2
  -4  10   5 78.7628 16.3210   1
   2  10   5 29.0128 6.99415  -2
   3 -10  -5 29.0128 6.99415   1
  -2 -10  -5 46.0843 7.39463  -2
  -3  10   5 46.0843 7.39463   1
   1  10   5 17.5049 6.06259  -2
   2 -10  -5 17.5049 6.06259   1
  -1 -10  -5 6.79100 5.31243  -2
  -2  10   5 6.79100 5.31243   1
   0  10   5 26.1503 8.18511  -2
   1 -10  -5 26.1503 8.18511   1
   0 -10  -5 20.4987 6.29888  -2
  -1  10   5 20.4987 6.29888   1
  -1  10   5 25.2089 7.07206  -2
   0 -10  -5 25.2089 7.07206   1
   1 -10  -5 32.8039 7.09256  -2
   0  10   5 32.8039 7.09256   1
  -2  10   5 12.2168 6.59545  -2
  -1 -10  -5 12.2168 6.59545   1
   2 -10  -5 14.4706 6.65208  -2
   1  10   5 14.4706 6.65208   1
  -3  10   5 30.2259 7.98118  -2
  -2 -10  -5 30.2259 7.98118   1
   3 -10  -5 29.0685 8.09855  -2
   2  10   5 29.0685 8.09855   1
  -4  10   5 73.3489 11.6086  -2
  -3 -10  -5 73.3489 11.6086   1
   4 -10  -5 60.0175 11.2172  -2
   3  10   5 60.0175 11.2172   1
   2  11   5 9.68829 5.57100  -2
   3 -11  -5 9.68829 5.57100   1
  -2 -11  -5 21.8054 6.25899  -2
  -3  11   5 21.8054 6.25899   1
   1  11   5 51.0043 8.60658  -2
   2 -11  -5 51.0043 8.60658   1
  -1 -11  -5 29.3857 6.70461  -2
  -2  11   5 29.3857 6.70461   1
   0  11   5 17.0982 8.21674  -2
   1 -11  -5 17.0982 8.21674   1
   0 -11  -5 23.3026 6.16197  -2
  -1  11   5 23.3026 6.16197   1
  -1  11   5 16.3426 6.48124  -2
   0 -11  -5 16.3426 6.48124   1
   1 -11  -5 28.0116 6.33707  -2
   0  11   5 28.0116 6.33707   1
  -2  11   5 51.7452 9.16158  -2
  -1 -11  -5 51.7452 9.16158   1
   2 -11  -5 67.0548 11.7331  -2
   1  11   5 67.0548 11.7331   1
  -3  11   5 28.7630 8.23434  -2
  -2 -11  -5 28.7630 8.23434   1
   3 -11  -5 35.5558 9.43890  -2
   2  11   5 35.5558 9.43890   1
   6   0   6 12.4457 8.74264  -2
  -7   0   6 12.4457 8.74264   1
   5   0   6 -3.1328 8.46569  -2
  -6   0   6 -3.1328 8.46569   1
   4   0   6 14.9958 8.05214  -2
  -5   0   6 14.9958 8.05214   1
   3   0   6 16.9544 7.70496  -2
  -4   0   6 16.9544 7.70496   1
   2   0   6 12.0145 7.30131  -2
  -3   0   6 12.0145 7.30131   1
   1   0   6 86.8361 8.76207  -2
  -2   0   6 86.8361 8.76207   1
   0   0   6 529.660 14.2872  -2
  -1   0   6 529.660 14.2872   1
  -1   0   6 546.410 18.0194  -2
   0   0   6 546.410 18.0194   1
  -2   0   6 98.6231 10.5916  -2
   1   0   6 98.6231 10.5916   1
  -3   0   6 2.50080 8.60348  -2
   2   0   6 2.50080 8.60348   1
  -4   0   6 5.51674 8.06762  -2
   3   0   6 5.51674 8.06762   1
  -5   0   6 18.2240 6.24580  -2
   4   0   6 18.2240 6.24580   1
  -6   0   6 11.9537 6.05822  -2
   5   0   6 11.9537 6.05822   1
  -7   0   6 36.6864 9.00730  -2
   6   0   6 36.6864 9.00730   1
   6   1   6 24.9581 9.34522  -2
   7  -1  -6 24.9581 9.34522   1
  -6  -1  -6 18.3053 9.08616  -2
  -7   1   6 18.3053 9.08616   1
   5   1   6 14.8088 8.29057  -2
   6  -1  -6 14.8088 8.29057   1
  -5  -1  -6 19.1753 9.12141  -2
  -6   1   6 19.1753 9.12141   1
   4   1   6 6.27396 7.87719  -2
   5  -1  -6 6.27396 7.87719   1
  -4  -1  -6 -1.1360 7.84753  -2
  -5   1   6 -1.1360 7.84753   1
   3   1   6 5.17218 7.39333  -2
   4  -1  -6 5.17218 7.39333   1
  -3  -1  -6 5.68934 7.30120  -2
  -4   1   6 5.68934 7.30120   1
   2   1   6 5.57440 7.60737  -2
   3  -1  -6 5.57440 7.60737   1
  -2  -1  -6 0.56192 7.26655  -2
  -3   1   6 0.56192 7.26655   1
   1   1   6 82.1279 8.59691  -2
   2  -1  -6 82.1279 8.59691   1
  -1  -1  -6 75.2849 8.41000  -2
  -2   1   6 75.2849 8.41000   1
   0   1   6 63.2502 10.5565  -2
   1  -1  -6 63.2502 10.5565   1
   0  -1  -6 87.4305 8.67407  -2
  -1   1   6 87.4305 8.67407   1
  -1   1   6 85.9666 10.9707  -2
   0  -1  -6 85.9666 10.9707   1
   1  -1  -6 74.8790 8.14487  -2
   0   1   6 74.8790 8.14487   1
  -2   1   6 58.3843 9.90608  -2
  -1  -1  -6 58.3843 9.90608   1
   2  -1  -6 65.6515 7.53633  -2
   1   1   6 65.6515 7.53633   1
  -3   1   6 -1.8672 8.71042  -2
  -2  -1  -6 -1.8672 8.71042   1
   3  -1  -6 8.80792 7.53541  -2
   2   1   6 8.80792 7.53541   1
  -4   1   6 5.11380 8.48373  -2
  -3  -1  -6 5.11380 8.48373   1
   4  -1  -6 8.91689 5.92934  -2
   3   1   6 8.91689 5.92934   1
  -5   1   6 16.7126 8.75241  -2
  -4  -1  -6 16.7126 8.75241   1
   5  -1  -6 -0.8950 5.24442  -2
   4   1   6 -0.8950 5.24442   1
  -6   1   6 8.93509 8.79652  -2
  -5  -1  -6 8.93509 8.79652   1
   6  -1  -6 5.68624 7.79197  -2
   5   1   6 5.68624 7.79197   1
  -7   1   6 1.55243 9.02935  -2
  -6  -1  -6 1.55243 9.02935   1
   6   2   6 6.66835 8.39972  -2
   7  -2  -6 6.66835 8.39972   1
  -6  -2  -6 12.1269 8.84103  -2
  -7   2   6 12.1269 8.84103   1
   5   2   6 -0.9867 8.05349  -2
   6  -2  -6 -0.9867 8.05349   1
  -5  -2  -6 5.82122 8.56068  -2
  -6   2   6 5.82122 8.56068   1
   4   2   6 27.3378 8.30979  -2
   5  -2  -6 27.3378 8.30979   1
  -4  -2  -6 34.7180 9.31819  -2
  -5   2   6 34.7180 9.31819   1
   3   2   6 24.8968 7.79982  -2
   4  -2  -6 24.8968 7.79982   1
  -3  -2  -6 13.3448 7.86300  -2
  -4   2   6 13.3448 7.86300   1
   2   2   6 24.4630 7.61348  -2
   3  -2  -6 24.4630 7.61348   1
  -2  -2  -6 -1.7072 7.42763  -2
  -3   2   6 -1.7072 7.42763   1
   1   2   6 5.43548 8.75900  -2
   2  -2  -6 5.43548 8.75900   1
  -1  -2  -6 12.3654 7.19723  -2
  -2   2   6 12.3654 7.19723   1
   0   2   6 32.6481 9.85977  -2
   1  -2  -6 32.6481 9.85977   1
   0  -2  -6 47.4059 7.97276  -2
  -1   2   6 47.4059 7.97276   1
  -1   2   6 40.4948 10.1777  -2
   0  -2  -6 40.4948 10.1777   1
   1  -2  -6 43.8685 7.24370  -2
   0   2   6 43.8685 7.24370   1
   2  -2  -6 0.03535 5.95197  -2
   1   2   6 0.03535 5.95197   1
  -3   2   6 7.36660 9.03412  -2
  -2  -2  -6 7.36660 9.03412   1
   3  -2  -6 2.01466 5.63710  -2
   2   2   6 2.01466 5.63710   1
  -4   2   6 11.0774 8.85937  -2
  -3  -2  -6 11.0774 8.85937   1
   4  -2  -6 12.1560 4.80954  -2
   3   2   6 12.1560 4.80954   1
  -5   2   6 18.8689 9.79573  -2
  -4  -2  -6 18.8689 9.79573   1
   5  -2  -6 29.6117 5.16112  -2
   4   2   6 29.6117 5.16112   1
  -6   2   6 14.6301 8.95568  -2
  -5  -2  -6 14.6301 8.95568   1
   6  -2  -6 -3.8526 9.65030  -2
   5   2   6 -3.8526 9.65030   1
  -7   2   6 22.9873 9.88612  -2
  -6  -2  -6 22.9873 9.88612   1
   7  -2  -6 7.64088 8.32826  -2
   6   2   6 7.64088 8.32826   1
   6   3   6 6.18224 6.40022  -2
   7  -3  -6 6.18224 6.40022   1
  -6  -3  -6 -5.8940 14.5538  -2
  -7   3   6 -5.8940 14.5538   1
   5   3   6 48.6625 6.85080  -2
   6  -3  -6 48.6625 6.85080   1
  -5  -3  -6 37.9232 9.17476  -2
  -6   3   6 37.9232 9.17476   1
   4   3   6 30.2061 5.91246  -2
   5  -3  -6 30.2061 5.91246   1
  -4  -3  -6 47.4366 9.41157  -2
  -5   3   6 47.4366 9.41157   1
   3   3   6 12.7053 5.32300  -2
   4  -3  -6 12.7053 5.32300   1
  -3  -3  -6 18.7169 8.65869  -2
  -4   3   6 18.7169 8.65869   1
   2   3   6 -4.9592 8.55910  -2
   3  -3  -6 -4.9592 8.55910   1
  -2  -3  -6 9.75671 7.71559  -2
  -3   3   6 9.75671 7.71559   1
   1   3   6 1.69112 9.07347  -2
   2  -3  -6 1.69112 9.07347   1
  -1  -3  -6 0.58924 7.00856  -2
  -2   3   6 0.58924 7.00856   1
   0   3   6 16.6002 9.55531  -2
   1  -3  -6 16.6002 9.55531   1
   0  -3  -6 -2.9359 6.58260  -2
  -1   3   6 -2.9359 6.58260   1
  -1   3   6 7.84978 9.10102  -2
   0  -3  -6 7.84978 9.10102   1
   1  -3  -6 -5.9653 5.87149  -2
   0   3   6 -5.9653 5.87149   1
  -2   3   6 7.92092 9.51484  -2
  -1  -3  -6 7.92092 9.51484   1
   2  -3  -6 4.52138 6.46758  -2
   1   3   6 4.52138 6.46758   1
  -3   3   6 -13.697 8.85485  -2
  -2  -3  -6 -13.697 8.85485   1
   3  -3  -6 4.97884 4.68962  -2
   2   3   6 4.97884 4.68962   1
  -4   3   6 26.0651 10.4678  -2
  -3  -3  -6 26.0651 10.4678   1
   4  -3  -6 12.5625 4.92739  -2
   3   3   6 12.5625 4.92739   1
  -5   3   6 21.0835 10.4518  -2
  -4  -3  -6 21.0835 10.4518   1
   5  -3  -6 15.2242 9.37512  -2
   4   3   6 15.2242 9.37512   1
  -6   3   6 43.3281 10.5414  -2
  -5  -3  -6 43.3281 10.5414   1
   6  -3  -6 50.9844 10.8739  -2
   5   3   6 50.9844 10.8739   1
   7  -3  -6 3.46628 7.66755  -2
   6   3   6 3.46628 7.66755   1
   6   4   6 1.96770 6.43625  -2
   7  -4  -6 1.96770 6.43625   1
  -6  -4  -6 23.0842 17.5584  -2
  -7   4   6 23.0842 17.5584   1
   5   4   6 12.2205 5.78409  -2
   6  -4  -6 12.2205 5.78409   1
  -5  -4  -6 -3.3087 13.4712  -2
  -6   4   6 -3.3087 13.4712   1
   4   4   6 35.5926 6.39558  -2
   5  -4  -6 35.5926 6.39558   1
  -4  -4  -6 47.3727 9.35951  -2
  -5   4   6 47.3727 9.35951   1
   3   4   6 31.7520 6.07324  -2
   4  -4  -6 31.7520 6.07324   1
  -3  -4  -6 43.1471 9.24892  -2
  -4   4   6 43.1471 9.24892   1
   2   4   6 5.16514 8.89680  -2
   3  -4  -6 5.16514 8.89680   1
  -2  -4  -6 19.5848 8.21232  -2
  -3   4   6 19.5848 8.21232   1
   1   4   6 -5.5651 8.95833  -2
   2  -4  -6 -5.5651 8.95833   1
  -1  -4  -6 0.13958 6.80826  -2
  -2   4   6 0.13958 6.80826   1
   0   4   6 8.88181 9.44802  -2
   1  -4  -6 8.88181 9.44802   1
   0  -4  -6 1.84487 6.75466  -2
  -1   4   6 1.84487 6.75466   1
  -1   4   6 17.3125 9.49181  -2
   0  -4  -6 17.3125 9.49181   1
   1  -4  -6 8.54386 6.60899  -2
   0   4   6 8.54386 6.60899   1
  -2   4   6 1.41386 9.90232  -2
  -1  -4  -6 1.41386 9.90232   1
   2  -4  -6 3.99315 4.94933  -2
   1   4   6 3.99315 4.94933   1
  -3   4   6 17.4823 10.1339  -2
  -2  -4  -6 17.4823 10.1339   1
   3  -4  -6 15.7384 4.81983  -2
   2   4   6 15.7384 4.81983   1
  -4   4   6 57.3215 12.0921  -2
  -3  -4  -6 57.3215 12.0921   1
   4  -4  -6 49.7588 7.46722  -2
   3   4   6 49.7588 7.46722   1
  -5   4   6 43.7466 11.8046  -2
  -4  -4  -6 43.7466 11.8046   1
   5  -4  -6 45.4235 9.92693  -2
   4   4   6 45.4235 9.92693   1
  -6   4   6 9.05764 10.4201  -2
  -5  -4  -6 9.05764 10.4201   1
   6  -4  -6 28.9500 9.83884  -2
   5   4   6 28.9500 9.83884   1
   7  -4  -6 -5.3990 9.52209  -2
   6   4   6 -5.3990 9.52209   1
   5   5   6 10.1421 6.96687  -2
   6  -5  -6 10.1421 6.96687   1
  -5  -5  -6 0.53821 15.6503  -2
  -6   5   6 0.53821 15.6503   1
   4   5   6 -4.6318 7.29497  -2
   5  -5  -6 -4.6318 7.29497   1
  -4  -5  -6 6.55001 14.2769  -2
  -5   5   6 6.55001 14.2769   1
   3   5   6 19.2504 9.95862  -2
   4  -5  -6 19.2504 9.95862   1
  -3  -5  -6 -0.6691 8.04885  -2
  -4   5   6 -0.6691 8.04885   1
   2   5   6 11.1332 9.78194  -2
   3  -5  -6 11.1332 9.78194   1
  -2  -5  -6 1.59471 7.51931  -2
  -3   5   6 1.59471 7.51931   1
   1   5   6 13.4030 10.0084  -2
   2  -5  -6 13.4030 10.0084   1
  -1  -5  -6 6.08187 7.68088  -2
  -2   5   6 6.08187 7.68088   1
   0   5   6 -11.547 8.99848  -2
   1  -5  -6 -11.547 8.99848   1
   0  -5  -6 6.68440 6.88964  -2
  -1   5   6 6.68440 6.88964   1
  -1   5   6 -9.5558 9.62451  -2
   0  -5  -6 -9.5558 9.62451   1
   1  -5  -6 0.73956 5.12988  -2
   0   5   6 0.73956 5.12988   1
  -2   5   6 -13.556 9.60762  -2
  -1  -5  -6 -13.556 9.60762   1
   2  -5  -6 0.68087 4.84889  -2
   1   5   6 0.68087 4.84889   1
  -3   5   6 11.8245 10.5357  -2
  -2  -5  -6 11.8245 10.5357   1
   3  -5  -6 -4.3911 6.72777  -2
   2   5   6 -4.3911 6.72777   1
  -4   5   6 -9.9988 10.4847  -2
  -3  -5  -6 -9.9988 10.4847   1
   4  -5  -6 -2.0352 8.56738  -2
   3   5   6 -2.0352 8.56738   1
  -5   5   6 -15.533 10.8011  -2
  -4  -5  -6 -15.533 10.8011   1
   5  -5  -6 6.81648 9.02476  -2
   4   5   6 6.81648 9.02476   1
   6  -5  -6 -1.8132 10.0923  -2
   5   5   6 -1.8132 10.0923   1
   5   6   6 5.41124 7.98663  -2
   6  -6  -6 5.41124 7.98663   1
  -5  -6  -6 -14.961 15.8373  -2
  -6   6   6 -14.961 15.8373   1
   4   6   6 2.90518 9.80546  -2
   5  -6  -6 2.90518 9.80546   1
  -4  -6  -6 24.2981 15.2751  -2
  -5   6   6 24.2981 15.2751   1
   3   6   6 17.3084 9.75492  -2
   4  -6  -6 17.3084 9.75492   1
  -3  -6  -6 0.54365 15.4925  -2
  -4   6   6 0.54365 15.4925   1
   2   6   6 23.2538 10.3044  -2
   3  -6  -6 23.2538 10.3044   1
  -2  -6  -6 16.0167 14.0566  -2
  -3   6   6 16.0167 14.0566   1
   1   6   6 34.1588 10.6840  -2
   2  -6  -6 34.1588 10.6840   1
  -1  -6  -6 24.3536 7.36892  -2
  -2   6   6 24.3536 7.36892   1
   0   6   6 26.5052 9.62305  -2
   1  -6  -6 26.5052 9.62305   1
   0  -6  -6 15.2136 5.71189  -2
  -1   6   6 15.2136 5.71189   1
  -1   6   6 18.9888 10.4684  -2
   0  -6  -6 18.9888 10.4684   1
   1  -6  -6 12.4497 5.66121  -2
   0   6   6 12.4497 5.66121   1
  -2   6   6 41.9406 10.6911  -2
  -1  -6  -6 41.9406 10.6911   1
   2  -6  -6 23.6311 7.64971  -2
   1   6   6 23.6311 7.64971   1
  -3   6   6 24.9417 11.5554  -2
  -2  -6  -6 24.9417 11.5554   1
   3  -6  -6 25.6894 7.19894  -2
   2   6   6 25.6894 7.19894   1
  -4   6   6 5.26435 10.2067  -2
  -3  -6  -6 5.26435 10.2067   1
   4  -6  -6 1.72182 9.16348  -2
   3   6   6 1.72182 9.16348   1
  -5   6   6 9.77693 11.8250  -2
  -4  -6  -6 9.77693 11.8250   1
   5  -6  -6 24.6807 10.5143  -2
   4   6   6 24.6807 10.5143   1
   6  -6  -6 0.56566 10.8679  -2
   5   6   6 0.56566 10.8679   1
   4   7   6 -6.8643 9.57904  -2
   5  -7  -6 -6.8643 9.57904   1
  -4  -7  -6 18.8116 15.7757  -2
  -5   7   6 18.8116 15.7757   1
   3   7   6 7.23029 9.55449  -2
   4  -7  -6 7.23029 9.55449   1
  -3  -7  -6 31.6564 16.0789  -2
  -4   7   6 31.6564 16.0789   1
   2   7   6 5.64841 10.1105  -2
   3  -7  -6 5.64841 10.1105   1
  -2  -7  -6 5.30368 13.7699  -2
  -3   7   6 5.30368 13.7699   1
   1   7   6 17.4205 10.3725  -2
   2  -7  -6 17.4205 10.3725   1
  -1  -7  -6 14.9467 13.8857  -2
  -2   7   6 14.9467 13.8857   1
   0   7   6 27.8937 10.7909  -2
   1  -7  -6 27.8937 10.7909   1
   0  -7  -6 25.4088 8.97301  -2
  -1   7   6 25.4088 8.97301   1
  -1   7   6 6.09045 10.1910  -2
   0  -7  -6 6.09045 10.1910   1
   1  -7  -6 24.2145 8.61000  -2
   0   7   6 24.2145 8.61000   1
  -2   7   6 33.4624 11.9700  -2
  -1  -7  -6 33.4624 11.9700   1
   2  -7  -6 18.3711 7.90095  -2
   1   7   6 18.3711 7.90095   1
  -3   7   6 0.13764 11.5619  -2
  -2  -7  -6 0.13764 11.5619   1
   3  -7  -6 -5.9926 9.40438  -2
   2   7   6 -5.9926 9.40438   1
  -4   7   6 7.71230 11.6730  -2
  -3  -7  -6 7.71230 11.6730   1
   4  -7  -6 7.82221 10.3598  -2
   3   7   6 7.82221 10.3598   1
  -5   7   6 4.31887 11.0283  -2
  -4  -7  -6 4.31887 11.0283   1
   5  -7  -6 0.75805 9.97856  -2
   4   7   6 0.75805 9.97856   1
   3   8   6 30.2389 10.7549  -2
   4  -8  -6 30.2389 10.7549   1
  -3  -8  -6 43.7706 15.7924  -2
  -4   8   6 43.7706 15.7924   1
   2   8   6 25.0928 10.5243  -2
   3  -8  -6 25.0928 10.5243   1
  -2  -8  -6 33.3107 16.9619  -2
  -3   8   6 33.3107 16.9619   1
   1   8   6 3.34398 10.0937  -2
   2  -8  -6 3.34398 10.0937   1
  -1  -8  -6 6.54983 8.95292  -2
  -2   8   6 6.54983 8.95292   1
   0   8   6 7.28827 10.1794  -2
   1  -8  -6 7.28827 10.1794   1
   0  -8  -6 14.7266 9.11952  -2
  -1   8   6 14.7266 9.11952   1
  -1   8   6 43.7644 12.1719  -2
   0  -8  -6 43.7644 12.1719   1
   1  -8  -6 22.8214 8.69143  -2
   0   8   6 22.8214 8.69143   1
  -2   8   6 27.0087 11.6246  -2
  -1  -8  -6 27.0087 11.6246   1
   2  -8  -6 1.56924 7.48840  -2
   1   8   6 1.56924 7.48840   1
  -3   8   6 17.1077 11.5682  -2
  -2  -8  -6 17.1077 11.5682   1
   3  -8  -6 37.1139 11.1096  -2
   2   8   6 37.1139 11.1096   1
  -4   8   6 39.7707 12.0116  -2
  -3  -8  -6 39.7707 12.0116   1
   4  -8  -6 37.2780 12.9030  -2
   3   8   6 37.2780 12.9030   1
   2   9   6 23.4345 10.6065  -2
   3  -9  -6 23.4345 10.6065   1
  -2  -9  -6 41.0139 17.9061  -2
  -3   9   6 41.0139 17.9061   1
   1   9   6 18.7998 10.5752  -2
   2  -9  -6 18.7998 10.5752   1
  -1  -9  -6 -14.952 8.64769  -2
  -2   9   6 -14.952 8.64769   1
   0   9   6 -5.3551 10.2630  -2
   1  -9  -6 -5.3551 10.2630   1
   0  -9  -6 -0.3984 8.95586  -2
  -1   9   6 -0.3984 8.95586   1
  -1   9   6 12.2724 10.6316  -2
   0  -9  -6 12.2724 10.6316   1
   1  -9  -6 -5.5447 7.88837  -2
   0   9   6 -5.5447 7.88837   1
  -2   9   6 -5.1130 10.3363  -2
  -1  -9  -6 -5.1130 10.3363   1
   2  -9  -6 10.2341 10.8617  -2
   1   9   6 10.2341 10.8617   1
  -3   9   6 21.4343 12.2135  -2
  -2  -9  -6 21.4343 12.2135   1
   3  -9  -6 21.8994 12.7719  -2
   2   9   6 21.8994 12.7719   1
  -6   0   7 -3.7174 4.80913   1
  -6   0   7 2.81718 5.17734   2
   4   0   7 -0.4716 10.6337  -2
  -5   0   7 -0.4716 10.6337   1
   3   0   7 -14.108 9.07750  -2
  -4   0   7 -14.108 9.07750   1
   2   0   7 7.63508 10.0605  -2
  -3   0   7 7.63508 10.0605   1
   1   0   7 -7.4704 9.17945  -2
  -2   0   7 -7.4704 9.17945   1
   0   0   7 3.76159 8.82982  -2
  -1   0   7 3.76159 8.82982   1
  -1   0   7 2.65333 9.12016  -2
   0   0   7 2.65333 9.12016   1
  -2   0   7 1.37034 9.20695  -2
   1   0   7 1.37034 9.20695   1
  -3   0   7 -2.5970 10.9456  -2
   2   0   7 -2.5970 10.9456   1
  -4   0   7 11.2835 10.8610  -2
   3   0   7 11.2835 10.8610   1
  -5   0   7 -14.094 10.6292  -2
   4   0   7 -14.094 10.6292   1
   4   1   7 2.70541 10.1681  -2
   5  -1  -7 2.70541 10.1681   1
  -4  -1  -7 -2.7341 9.79754  -2
  -5   1   7 -2.7341 9.79754   1
   3   1   7 5.15946 10.4672  -2
   4  -1  -7 5.15946 10.4672   1
  -3  -1  -7 5.33619 10.3112  -2
  -4   1   7 5.33619 10.3112   1
   2   1   7 -3.6641 9.08358  -2
   3  -1  -7 -3.6641 9.08358   1
  -2  -1  -7 12.8792 9.34022  -2
  -3   1   7 12.8792 9.34022   1
   1   1   7 13.5875 9.27990  -2
   2  -1  -7 13.5875 9.27990   1
  -1  -1  -7 -6.9440 9.35792  -2
  -2   1   7 -6.9440 9.35792   1
   0   1   7 10.2761 8.86717  -2
   1  -1  -7 10.2761 8.86717   1
   0  -1  -7 14.6496 9.52012  -2
  -1   1   7 14.6496 9.52012   1
  -1   1   7 18.0625 11.9739  -2
   0  -1  -7 18.0625 11.9739   1
   1  -1  -7 5.73391 10.8520  -2
   0   1   7 5.73391 10.8520   1
  -2   1   7 4.15089 12.0123  -2
  -1  -1  -7 4.15089 12.0123   1
   2  -1  -7 -2.6532 8.35587  -2
   1   1   7 -2.6532 8.35587   1
  -3   1   7 1.34724 11.3020  -2
  -2  -1  -7 1.34724 11.3020   1
   3  -1  -7 2.19925 8.77977  -2
   2   1   7 2.19925 8.77977   1
  -4   1   7 -2.8139 10.7025  -2
  -3  -1  -7 -2.8139 10.7025   1
   4  -1  -7 11.0274 9.03224  -2
   3   1   7 11.0274 9.03224   1
  -5   1   7 -0.2002 11.2169  -2
  -4  -1  -7 -0.2002 11.2169   1
   5  -1  -7 -10.257 10.2571  -2
   4   1   7 -10.257 10.2571   1
   4   2   7 5.53969 9.75500  -2
   5  -2  -7 5.53969 9.75500   1
  -4  -2  -7 22.4457 11.2546  -2
  -5   2   7 22.4457 11.2546   1
   3   2   7 1.69326 9.72748  -2
   4  -2  -7 1.69326 9.72748   1
  -3  -2  -7 2.16979 9.75883  -2
  -4   2   7 2.16979 9.75883   1
   2   2   7 20.8140 10.1373  -2
   3  -2  -7 20.8140 10.1373   1
  -2  -2  -7 7.09769 10.2060  -2
  -3   2   7 7.09769 10.2060   1
   1   2   7 8.61541 9.68647  -2
   2  -2  -7 8.61541 9.68647   1
  -1  -2  -7 4.21400 9.57131  -2
  -2   2   7 4.21400 9.57131   1
   0   2   7 5.11442 12.2018  -2
   1  -2  -7 5.11442 12.2018   1
   0  -2  -7 27.2344 9.92335  -2
  -1   2   7 27.2344 9.92335   1
  -1   2   7 22.2551 12.0364  -2
   0  -2  -7 22.2551 12.0364   1
   1  -2  -7 37.3329 9.86453  -2
   0   2   7 37.3329 9.86453   1
  -2   2   7 19.4573 11.5093  -2
  -1  -2  -7 19.4573 11.5093   1
   2  -2  -7 11.9144 8.69555  -2
   1   2   7 11.9144 8.69555   1
  -3   2   7 9.04414 11.4421  -2
  -2  -2  -7 9.04414 11.4421   1
   3  -2  -7 20.3484 8.49786  -2
   2   2   7 20.3484 8.49786   1
  -4   2   7 6.73936 11.7554  -2
  -3  -2  -7 6.73936 11.7554   1
   4  -2  -7 9.00944 8.43198  -2
   3   2   7 9.00944 8.43198   1
  -5   2   7 -0.6217 12.1592  -2
  -4  -2  -7 -0.6217 12.1592   1
   4   3   7 7.74555 10.0432  -2
   5  -3  -7 7.74555 10.0432   1
  -4  -3  -7 15.3733 11.3632  -2
  -5   3   7 15.3733 11.3632   1
   3   3   7 7.28187 16.1501  -2
   4  -3  -7 7.28187 16.1501   1
  -3  -3  -7 13.7843 10.5388  -2
  -4   3   7 13.7843 10.5388   1
   2   3   7 9.97283 9.71389  -2
   3  -3  -7 9.97283 9.71389   1
  -2  -3  -7 9.68214 10.1432  -2
  -3   3   7 9.68214 10.1432   1
   1   3   7 -8.0473 11.9853  -2
   2  -3  -7 -8.0473 11.9853   1
  -1  -3  -7 18.5975 10.0579  -2
  -2   3   7 18.5975 10.0579   1
   0   3   7 -18.375 12.3743  -2
   1  -3  -7 -18.375 12.3743   1
   0  -3  -7 9.54822 9.37954  -2
  -1   3   7 9.54822 9.37954   1
  -1   3   7 1.11470 12.1197  -2
   0  -3  -7 1.11470 12.1197   1
   1  -3  -7 7.08057 8.98553  -2
   0   3   7 7.08057 8.98553   1
  -2   3   7 -9.2235 10.6263  -2
  -1  -3  -7 -9.2235 10.6263   1
   2  -3  -7 15.8272 10.9863  -2
   1   3   7 15.8272 10.9863   1
  -3   3   7 -6.2343 11.1009  -2
  -2  -3  -7 -6.2343 11.1009   1
   3  -3  -7 0.76199 7.94465  -2
   2   3   7 0.76199 7.94465   1
  -4   3   7 -2.1347 10.9989  -2
  -3  -3  -7 -2.1347 10.9989   1
  -5   3   7 0.28938 11.7744  -2
  -4  -3  -7 0.28938 11.7744   1
   5  -4  -7 3.19809 5.08602   1
   5  -4  -7 -1.7928 5.08201   2
  -5   4   7 1.78900 5.58781   2
  -5   4   7 2.48280 4.81900   1
   3   4   7 -7.9412 17.4105  -2
   4  -4  -7 -7.9412 17.4105   1
   4  -4  -7 12.4240 6.40669   1
  -3  -4  -7 -6.8114 10.5026  -2
  -4   4   7 -6.8114 10.5026   1
   2   4   7 3.13350 12.1104  -2
   3  -4  -7 3.13350 12.1104   1
  -2  -4  -7 8.14265 10.6297  -2
  -3   4   7 8.14265 10.6297   1
   1   4   7 10.4468 11.8330  -2
   2  -4  -7 10.4468 11.8330   1
  -1  -4  -7 -2.2452 9.34293  -2
  -2   4   7 -2.2452 9.34293   1
   0   4   7 12.3838 11.6669  -2
   1  -4  -7 12.3838 11.6669   1
   0  -4  -7 7.34605 9.01552  -2
  -1   4   7 7.34605 9.01552   1
  -1   4   7 6.09907 11.2218  -2
   0  -4  -7 6.09907 11.2218   1
   1  -4  -7 0.17978 8.53877  -2
   0   4   7 0.17978 8.53877   1
  -2   4   7 7.87919 12.2595  -2
  -1  -4  -7 7.87919 12.2595   1
   2  -4  -7 5.61457 8.49229  -2
   1   4   7 5.61457 8.49229   1
  -3   4   7 18.2644 12.0631  -2
  -2  -4  -7 18.2644 12.0631   1
   3  -4  -7 5.84319 16.5803  -2
   2   4   7 5.84319 16.5803   1
  -4   4   7 12.0236 12.5489  -2
  -3  -4  -7 12.0236 12.5489   1
   4  -4  -7 7.15962 12.0057  -2
   3   4   7 7.15962 12.0057   1
   3   4   7 9.18217 6.46649   2
   4  -5  -7 -1.0882 4.92118   1
  -3  -5  -7 15.0129 10.4119  -2
  -4   5   7 15.0129 10.4119   1
   2   5   7 -10.268 11.6299  -2
   3  -5  -7 -10.268 11.6299   1
  -2  -5  -7 -1.9422 10.1276  -2
  -3   5   7 -1.9422 10.1276   1
   1   5   7 0.82291 12.9078  -2
   2  -5  -7 0.82291 12.9078   1
  -1  -5  -7 8.79473 10.2542  -2
  -2   5   7 8.79473 10.2542   1
   0   5   7 -8.1333 11.5318  -2
   1  -5  -7 -8.1333 11.5318   1
   0  -5  -7 8.05759 9.82176  -2
  -1   5   7 8.05759 9.82176   1
  -1   5   7 21.0411 11.5739  -2
   0  -5  -7 21.0411 11.5739   1
   1  -5  -7 -18.174 15.4129  -2
   0   5   7 -18.174 15.4129   1
  -2   5   7 4.85229 12.4707  -2
  -1  -5  -7 4.85229 12.4707   1
   2  -5  -7 1.19722 14.6097  -2
   1   5   7 1.19722 14.6097   1
  -3   5   7 -2.8624 11.6549  -2
  -2  -5  -7 -2.8624 11.6549   1
   3  -5  -7 31.1778 12.9681  -2
   2   5   7 31.1778 12.9681   1
  -4   5   7 43.8806 13.9074  -2
  -3  -5  -7 43.8806 13.9074   1
   3   5   7 9.40222 6.75987   2
   4  -5  -7 21.6715 12.1526  -2
   3   5   7 21.6715 12.1526   1
   2   6   7 20.6586 12.5755  -2
   3  -6  -7 20.6586 12.5755   1
  -2  -6  -7 -8.9317 18.2130  -2
  -3   6   7 -8.9317 18.2130   1
   1   6   7 13.2129 13.0885  -2
   2  -6  -7 13.2129 13.0885   1
  -1  -6  -7 13.1065 10.1444  -2
  -2   6   7 13.1065 10.1444   1
   0   6   7 38.3354 13.8180  -2
   1  -6  -7 38.3354 13.8180   1
   0  -6  -7 6.92008 15.4364  -2
  -1   6   7 6.92008 15.4364   1
  -1   6   7 26.0870 13.2169  -2
   0  -6  -7 26.0870 13.2169   1
   1  -6  -7 13.1726 14.0394  -2
   0   6   7 13.1726 14.0394   1
  -2   6   7 16.0112 13.8062  -2
  -1  -6  -7 16.0112 13.8062   1
   2  -6  -7 6.04062 9.72704  -2
   1   6   7 6.04062 9.72704   1
   3  -6  -7 8.82966 12.4057  -2
   2   6   7 8.82966 12.4057   1
   1  -7  -7 1.29505 6.05656   1
   1  -7  -7 0.47485 9.43645   2
  -1   7   7 -11.062 8.98961   1
   0   0   0    0.00    0.00   0
;
_shelx_hkl_checksum              15249
_olex2_submission_special_instructions 'No special instructions were received'
loop_
_space_group_symop_operation_xyz
'x, y, z'
'-x, y+1/2, -z+1/2'
'-x, -y, -z'
'x, -y-1/2, z-1/2'
loop_
_atom_site_label
_atom_site_type_symbol
_atom_site_fract_x
_atom_site_fract_y
_atom_site_fract_z
_atom_site_U_iso_or_equiv
_atom_site_adp_type
_atom_site_occupancy
_atom_site_site_symmetry_order
_atom_site_calc_flag
_atom_site_refinement_flags_posn
O001 O 0.3944(2) 0.26915(18) 0.7461(4) 0.0278(8) Uani 1 1 d .
N002 N 0.8416(3) 0.1856(2) 0.7376(5) 0.0210(7) Uani 1 1 d .
N003 N 0.5010(3) 0.4379(2) 0.7471(4) 0.0249(8) Uani 1 1 d .
N004 N 0.8886(3) 0.2909(2) 0.7372(5) 0.0237(8) Uani 1 1 d .
N005 N 0.7599(3) 0.4584(2) 0.7414(5) 0.0290(8) Uani 1 1 d .
C006 C 0.7007(3) 0.1739(3) 0.7410(5) 0.0190(9) Uani 1 1 d .
H006 H 0.6487 0.1076 0.7428 0.023 Uiso 1 1 calc R
C007 C 0.7659(4) 0.3475(3) 0.7399(5) 0.0194(9) Uani 1 1 d .
C008 C 0.5121(4) 0.3314(3) 0.7439(5) 0.0190(9) Uani 1 1 d .
C009 C 0.6455(3) 0.2786(3) 0.7413(5) 0.0155(8) Uani 1 1 d .
C00A C 0.6276(4) 0.4942(3) 0.7446(6) 0.0300(10) Uani 1 1 d .
H00A H 0.6182 0.5712 0.7453 0.036 Uiso 1 1 calc R
C00B C 0.9481(3) 0.0986(3) 0.7393(6) 0.0326(11) Uani 1 1 d .
H00B H 1.0025 0.1042 0.6177 0.049 Uiso 1 1 calc GR
H00C H 0.8999 0.0278 0.7404 0.049 Uiso 1 1 calc GR
H00D H 1.0133 0.1054 0.8610 0.049 Uiso 1 1 calc GR
C00C C 0.2583(3) 0.3261(3) 0.7472(7) 0.0398(12) Uani 1 1 d .
H00E H 0.2478 0.3748 0.6295 0.060 Uiso 1 1 calc GR
H00F H 0.2554 0.3687 0.8725 0.060 Uiso 1 1 calc GR
H00G H 0.1802 0.2730 0.7402 0.060 Uiso 1 1 calc GR
loop_
_atom_site_aniso_label
_atom_site_aniso_U_11
_atom_site_aniso_U_22
_atom_site_aniso_U_33
_atom_site_aniso_U_23
_atom_site_aniso_U_13
_atom_site_aniso_U_12
O001 0.0156(14) 0.0189(16) 0.049(2) 0.0000(14) 0.0025(15) -0.0020(11)
N002 0.0217(18) 0.0169(17) 0.024(2) -0.0019(17) 0.0017(16) 0.0021(14)
N003 0.0243(18) 0.0138(17) 0.037(2) -0.0014(16) 0.0040(16) -0.0027(15)
N004 0.0197(18) 0.0227(19) 0.029(2) -0.0004(18) 0.0023(17) -0.0030(14)
N005 0.023(2) 0.0190(18) 0.045(2) -0.0003(18) 0.0012(19) -0.0031(14)
C006 0.016(2) 0.017(2) 0.023(2) -0.0010(19) 0.0027(18) -0.0031(16)
C007 0.024(2) 0.017(2) 0.017(2) -0.002(2) 0.001(2) -0.0002(18)
C008 0.020(2) 0.019(2) 0.018(2) -0.0011(19) 0.0013(17) -0.0037(17)
C009 0.0156(19) 0.016(2) 0.015(2) 0.0010(19) 0.0002(16) -0.0016(17)
C00A 0.036(3) 0.013(2) 0.041(3) 0.000(2) -0.001(2) -0.0012(19)
C00B 0.020(2) 0.028(3) 0.050(3) 0.001(2) 0.005(2) 0.0055(17)
C00C 0.014(2) 0.033(2) 0.073(3) 0.000(3) 0.005(2) 0.0022(18)
loop_
_atom_type_symbol
_atom_type_description
_atom_type_scat_dispersion_real
_atom_type_scat_dispersion_imag
_atom_type_scat_source
C C 0.0033 0.0016 'International Tables Vol C Tables 4.2.6.8 and 6.1.1.4'
H H 0.0000 0.0000 'International Tables Vol C Tables 4.2.6.8 and 6.1.1.4'
N N 0.0061 0.0033 'International Tables Vol C Tables 4.2.6.8 and 6.1.1.4'
O O 0.0106 0.0060 'International Tables Vol C Tables 4.2.6.8 and 6.1.1.4'
loop_
_geom_angle_atom_site_label_1
_geom_angle_atom_site_label_2
_geom_angle_atom_site_label_3
_geom_angle
C008 O001 C00C 116.6(3)
N004 N002 C00B 118.2(3)
C006 N002 N004 115.0(3)
C006 N002 C00B 126.8(3)
C008 N003 C00A 115.6(3)
C007 N004 N002 102.3(3)
C00A N005 C007 111.9(3)
N002 C006 H006 127.1
N002 C006 C009 105.7(3)
C009 C006 H006 127.1
N004 C007 N005 123.5(3)
N004 C007 C009 112.1(3)
N005 C007 C009 124.4(3)
O001 C008 C009 117.9(3)
N003 C008 O001 120.1(3)
N003 C008 C009 122.0(3)
C006 C009 C007 104.9(3)
C006 C009 C008 139.3(3)
C008 C009 C007 115.8(3)
N003 C00A H00A 114.8
N005 C00A N003 130.3(3)
N005 C00A H00A 114.8
N002 C00B H00B 109.5
N002 C00B H00C 109.5
N002 C00B H00D 109.5
H00B C00B H00C 109.5
H00B C00B H00D 109.5
H00C C00B H00D 109.5
O001 C00C H00E 109.5
O001 C00C H00F 109.5
O001 C00C H00G 109.5
H00E C00C H00F 109.5
H00E C00C H00G 109.5
H00F C00C H00G 109.5
loop_
_geom_bond_atom_site_label_1
_geom_bond_atom_site_label_2
_geom_bond_distance
O001 C008 1.344(3)
O001 C00C 1.456(4)
N002 N004 1.367(3)
N002 C006 1.331(4)
N002 C00B 1.463(4)
N003 C008 1.312(4)
N003 C00A 1.376(4)
N004 C007 1.345(4)
N005 C007 1.364(4)
N005 C00A 1.318(4)
C006 H006 0.9500
C006 C009 1.387(4)
C007 C009 1.412(4)
C008 C009 1.411(4)
C00A H00A 0.9500
C00B H00B 0.9800
C00B H00C 0.9800
C00B H00D 0.9800
C00C H00E 0.9800
C00C H00F 0.9800
C00C H00G 0.9800
loop_
_geom_torsion_atom_site_label_1
_geom_torsion_atom_site_label_2
_geom_torsion_atom_site_label_3
_geom_torsion_atom_site_label_4
_geom_torsion
O001 C008 C009 C006 -0.3(7)
O001 C008 C009 C007 -179.8(3)
N002 N004 C007 N005 179.7(3)
N002 N004 C007 C009 -0.2(4)
N002 C006 C009 C007 -0.5(4)
N002 C006 C009 C008 180.0(5)
N003 C008 C009 C006 178.7(4)
N003 C008 C009 C007 -0.7(6)
N004 N002 C006 C009 0.5(4)
N004 C007 C009 C006 0.4(4)
N004 C007 C009 C008 -179.9(3)
N005 C007 C009 C006 -179.4(4)
N005 C007 C009 C008 0.2(6)
C006 N002 N004 C007 -0.2(4)
C007 N005 C00A N003 0.2(7)
C008 N003 C00A N005 -0.7(7)
C00A N003 C008 O001 180.0(3)
C00A N003 C008 C009 0.9(6)
C00A N005 C007 N004 -179.8(3)
C00A N005 C007 C009 0.1(6)
C00B N002 N004 C007 -178.8(3)
C00B N002 C006 C009 178.9(3)
C00C O001 C008 N003 1.4(5)
C00C O001 C008 C009 -179.5(3)
loop_
_twin_individual_id
_twin_individual_mass_fraction_refined
1 0.509(2)
2 0.491(2)
