#------------------------------------------------------------------------------
#$Date: 2019-11-11 17:44:18 +0200 (Mon, 11 Nov 2019) $
#$Revision: 226770 $
#$URL: file:///home/coder/svn-repositories/cod/cif/4/03/53/4035306.cif $
#------------------------------------------------------------------------------
#
# This file is available in the Crystallography Open Database (COD),
# http://www.crystallography.net/
#
# All data on this site have been placed in the public domain by the
# contributors.
#
data_4035306
loop_
_publ_author_name
'Zhang, Cheng'
'Chang, Sailan'
'Dong, Shanliang'
'Qiu, Lihua'
'Xu, Xinfang'
_publ_section_title
;
 Acid-Promoted Bicyclization of Diaryl Alkynes: Synthesis of 2 H-Indazoles
 with in Situ Generated Diazonium Salt as Nitrogen Source.
;
_journal_issue                   16
_journal_name_full               'The Journal of organic chemistry'
_journal_page_first              9125
_journal_page_last               9136
_journal_paper_doi               10.1021/acs.joc.8b01199
_journal_volume                  83
_journal_year                    2018
_chemical_formula_moiety         'C16 H12 N2 O3'
_chemical_formula_sum            'C16 H12 N2 O3'
_chemical_formula_weight         280.28
_space_group_crystal_system      triclinic
_space_group_IT_number           2
_space_group_name_Hall           '-P 1'
_space_group_name_H-M_alt        'P -1'
_atom_sites_solution_hydrogens   mixed
_audit_creation_method           SHELXL-2014/7
_cell_angle_alpha                104.20(3)
_cell_angle_beta                 97.61(3)
_cell_angle_gamma                94.71(3)
_cell_formula_units_Z            2
_cell_length_a                   7.3093(15)
_cell_length_b                   8.7900(18)
_cell_length_c                   10.723(2)
_cell_measurement_reflns_used    2330
_cell_measurement_temperature    293(2)
_cell_measurement_theta_max      27.4623
_cell_measurement_theta_min      3.1912
_cell_volume                     657.3(3)
_computing_cell_refinement       'CrystalClear (Rigaku Inc., 2007)'
_computing_data_collection       'CrystalClear (Rigaku Inc., 2007)'
_computing_data_reduction        'CrystalClear (Rigaku Inc., 2007)'
_computing_structure_refinement  'SHELXL-2014/7 (Sheldrick, 2014)'
_diffrn_ambient_temperature      293(2)
_diffrn_measured_fraction_theta_full 0.986
_diffrn_measured_fraction_theta_max 0.981
_diffrn_measurement_device_type  'Saturn724+ (2x2 bin mode)'
_diffrn_radiation_type           MoK\a
_diffrn_radiation_wavelength     0.71073
_diffrn_reflns_av_R_equivalents  0.0183
_diffrn_reflns_av_unetI/netI     0.0302
_diffrn_reflns_Laue_measured_fraction_full 0.986
_diffrn_reflns_Laue_measured_fraction_max 0.981
_diffrn_reflns_limit_h_max       9
_diffrn_reflns_limit_h_min       -9
_diffrn_reflns_limit_k_max       10
_diffrn_reflns_limit_k_min       -11
_diffrn_reflns_limit_l_max       13
_diffrn_reflns_limit_l_min       -13
_diffrn_reflns_number            6081
_diffrn_reflns_point_group_measured_fraction_full 0.986
_diffrn_reflns_point_group_measured_fraction_max 0.981
_diffrn_reflns_theta_full        25.242
_diffrn_reflns_theta_max         27.463
_diffrn_reflns_theta_min         3.191
_exptl_absorpt_coefficient_mu    0.100
_exptl_absorpt_correction_T_max  1.0000
_exptl_absorpt_correction_T_min  0.8785
_exptl_absorpt_correction_type   multi-scan
_exptl_crystal_colour            Colorless
_exptl_crystal_density_diffrn    1.416
_exptl_crystal_description       Block
_exptl_crystal_F_000             292
_refine_diff_density_max         0.276
_refine_diff_density_min         -0.217
_refine_diff_density_rms         0.041
_refine_ls_extinction_method     none
_refine_ls_goodness_of_fit_ref   2.940
_refine_ls_hydrogen_treatment    mixed
_refine_ls_matrix_type           full
_refine_ls_number_parameters     194
_refine_ls_number_reflns         2951
_refine_ls_number_restraints     0
_refine_ls_restrained_S_all      2.940
_refine_ls_R_factor_all          0.0570
_refine_ls_R_factor_gt           0.0429
_refine_ls_shift/su_max          0.000
_refine_ls_shift/su_mean         0.000
_refine_ls_structure_factor_coef Fsqd
_refine_ls_weighting_details     'w=1/[\s^2^(Fo^2^)] where P=(Fo^2^+2Fc^2^)/3'
_refine_ls_weighting_scheme      calc
_refine_ls_wR_factor_gt          0.0625
_refine_ls_wR_factor_ref         0.0631
_reflns_Friedel_coverage         0.000
_reflns_number_gt                2309
_reflns_number_total             2951
_reflns_threshold_expression     'I > 2\s(I)'
_cod_data_source_file            jo8b01199_si_006.cif
_cod_data_source_block           shelxl
_cod_depositor_comments
;
The following automatic conversions were performed:

data item '_exptl_absorpt_correction_type' value 'Multi-scan' was
changed to 'multi-scan' in accordance with the
/home/data/users/saulius/crontab/automatic-downloads/current/ACS/lib/dictionaries/cif_core.dic
dictionary named 'cif_core.dic' version 2.4.2 last updated on
2011-04-26.

Automatic conversion script
Id: cif_fix_values 6909 2019-04-08 15:41:33Z antanas 
;
_cod_original_cell_volume        657.3(2)
_cod_database_code               4035306
_shelx_shelxl_version_number     2014/7
_shelx_space_group_comment
;
The symmetry employed for this shelxl refinement is uniquely defined
by the following loop, which should always be used as a source of
symmetry information in preference to the above space-group names.
They are only intended as comments.
;
_shelx_res_file
;

    shelxl.res created by SHELXL-2014/7

TITL shelxl in P-1
CELL 0.71073   7.30930   8.79000  10.72300 104.2011  97.6147  94.7092
ZERR    2.00   0.00146   0.00176   0.00214   0.0300   0.0300   0.0300
LATT 1
SFAC C  H  N  O
UNIT 32  24  4  6
L.S. 40
ACTA
BOND
FMAP 2
PLAN 20
HTAB N2 O3_$1
EQIV $1 x-1, y, z
htab
WGHT    0.000000
FVAR       0.52169
MOLE 1
C1    1    0.651970    0.254596    0.415523    11.00000    0.05366    0.04598 =
         0.06499    0.03321   -0.00271    0.00517
AFIX 137
H1A   2    0.587086    0.318869    0.476906    11.00000   -1.50000
H1B   2    0.577184    0.226265    0.330776    11.00000   -1.50000
H1C   2    0.767589    0.312740    0.412382    11.00000   -1.50000
AFIX   0
C2    1    0.765450    0.130299    0.579109    11.00000    0.02687    0.03730 =
         0.03312    0.01078    0.00498    0.00166
C3    1    0.801796   -0.024813    0.604066    11.00000    0.02510    0.02888 =
         0.02655    0.00615    0.00394    0.00272
C4    1    0.787222   -0.159993    0.501541    11.00000    0.04418    0.03774 =
         0.02508    0.00763    0.00316    0.00283
AFIX  43
H4    2    0.752780   -0.153871    0.416416    11.00000   -1.20000
AFIX   0
C5    1    0.823446   -0.303197    0.525054    11.00000    0.05117    0.03170 =
         0.02941    0.00051    0.00562    0.00575
AFIX  43
H5    2    0.812186   -0.393145    0.456105    11.00000   -1.20000
AFIX   0
C6    1    0.876229   -0.312204    0.650844    11.00000    0.04675    0.03131 =
         0.03533    0.00909    0.00726    0.01193
AFIX  43
H6    2    0.898656   -0.408797    0.666950    11.00000   -1.20000
AFIX   0
C7    1    0.896033   -0.178235    0.753321    11.00000    0.03376    0.04009 =
         0.02806    0.01011    0.00333    0.01004
AFIX  43
H7    2    0.935128   -0.184821    0.837771    11.00000   -1.20000
AFIX   0
C8    1    0.858170   -0.034056    0.731448    11.00000    0.01869    0.03104 =
         0.02558    0.00347    0.00500    0.00322
C9    1    0.881082    0.102424    0.849678    11.00000    0.02527    0.03246 =
         0.02610    0.00871    0.00331    0.00297
C10   1    0.717071    0.156286    0.902081    11.00000    0.01987    0.03174 =
         0.02506    0.00561    0.00221    0.00359
C11   1    0.704949    0.286422    1.008652    11.00000    0.02143    0.02944 =
         0.02331    0.00808    0.00210    0.00544
C12   1    0.827427    0.413710    1.091311    11.00000    0.02569    0.03433 =
         0.02798    0.01039    0.00186    0.00360
AFIX  43
H12   2    0.953583    0.423002    1.085798    11.00000   -1.20000
AFIX   0
C13   1    0.755835    0.524014    1.180449    11.00000    0.03875    0.03306 =
         0.02816    0.00599    0.00246    0.00386
AFIX  43
H13   2    0.834886    0.609133    1.235621    11.00000   -1.20000
AFIX   0
C14   1    0.565460    0.510731    1.189885    11.00000    0.04439    0.03815 =
         0.02929    0.00765    0.01035    0.01478
AFIX  43
H14   2    0.521695    0.586838    1.251864    11.00000   -1.20000
AFIX   0
C15   1    0.443197    0.388997    1.110416    11.00000    0.02907    0.04229 =
         0.03451    0.01335    0.01220    0.00990
AFIX  43
H15   2    0.317327    0.380407    1.116856    11.00000   -1.20000
AFIX   0
C16   1    0.515865    0.278098    1.019105    11.00000    0.02541    0.03137 =
         0.02547    0.00927    0.00463    0.00486
N1    3    0.549659    0.075409    0.850114    11.00000    0.02269    0.03873 =
         0.03235    0.00271    0.00450    0.00363
N2    3    0.430087    0.149723    0.922800    11.00000    0.01779    0.04120 =
         0.03881    0.00502    0.00493    0.00018
O1    4    0.801166    0.255485    0.659480    11.00000    0.05604    0.03133 =
         0.03788    0.00262    0.00464    0.00416
O2    4    0.688335    0.112334    0.455600    11.00000    0.06053    0.03550 =
         0.04030    0.01548   -0.01163    0.00055
O3    4    1.037963    0.158771    0.908628    11.00000    0.02119    0.04703 =
         0.03817   -0.00354    0.00125    0.00060
H2    2    0.307030    0.117856    0.902881    11.00000   -1.20000
HKLF 4

REM  shelxl in P-1
REM R1 =  0.0429 for    2309 Fo > 4sig(Fo)  and  0.0570 for all    2951 data
REM    194 parameters refined using      0 restraints

END

WGHT      0.0536      0.1162

REM Instructions for potential hydrogen bonds
HTAB N2 O3_$1

REM Highest difference peak  0.276,  deepest hole -0.217,  1-sigma level  0.041
Q1    1   0.5127  0.1027  0.8775  11.00000  0.05    0.24
Q2    1   0.7889  0.1399  0.8885  11.00000  0.05    0.21
Q3    1   0.7963 -0.0332  0.6750  11.00000  0.05    0.21
Q4    1   0.7622  0.0401  0.5970  11.00000  0.05    0.20
Q5    1   0.8736  0.0409  0.7753  11.00000  0.05    0.20
Q6    1   0.5126  0.2545  0.3845  11.00000  0.05    0.19
Q7    1   0.7307  0.2175  0.9650  11.00000  0.05    0.19
Q8    1   0.9362 -0.1801  0.7778  11.00000  0.05    0.18
Q9    1   0.7634  0.3209  1.0473  11.00000  0.05    0.18
Q10   1   0.4898  0.3253  1.0672  11.00000  0.05    0.18
Q11   1   0.9135 -0.0810  0.7322  11.00000  0.05    0.18
Q12   1   0.6600  0.2241  0.2994  11.00000  0.05    0.18
Q13   1   0.4804  0.2217  0.9794  11.00000  0.05    0.18
Q14   1   0.7268  0.1216  0.5462  11.00000  0.05    0.18
Q15   1   0.8299 -0.0739  0.5589  11.00000  0.05    0.17
Q16   1   0.8747 -0.2967  0.5785  11.00000  0.05    0.17
Q17   1   0.7336  0.3614  0.4726  11.00000  0.05    0.16
Q18   1   0.6150  0.3007  0.9949  11.00000  0.05    0.15
Q19   1   0.6465  0.1450  0.8669  11.00000  0.05    0.15
Q20   1   0.8826 -0.3561  0.6550  11.00000  0.05    0.15
;
_shelx_res_checksum              70643
_shelx_hkl_file
;
   0   0   2  341.87    2.23
   0   0  -2  344.66    2.07
   0   0  -3  181.03    1.48
   0   0   3  180.36    1.41
   0   0  -3  181.85    1.40
   0   0  -4  128.12    1.25
   0   0   4  128.24    1.21
   0   0   4  128.57    2.30
   0   0  -4  127.50    1.20
   0   0  -5   44.70    0.97
   0   0   5   46.80    0.82
   0   0   5   45.45    1.41
   0   0  -5   45.38    0.78
   0   0  -6    3.51    0.50
   0   0   6    3.41    0.42
   0   0   6    3.41    0.47
   0   0  -6    3.48    0.33
   0   0  -7    0.31    0.47
   0   0   7    0.66    0.39
   0   0  -8    6.56    0.67
   0   0  -9    6.42    0.75
   0   0 -10    6.55    0.77
   0   0 -11   18.95    1.02
   0   0 -12   40.84    1.36
   0   0 -13    0.49    0.42
   0   1 -13   12.84    0.92
   0   1 -12    5.91    0.72
   0   1 -11    1.52    0.74
   0   1 -10    3.15    0.59
   0   1  -9    9.09    0.79
   0   1  -8   21.24    0.99
   0   1  -7   83.51    1.48
   0  -1   7   78.96    1.21
   0  -1   7   81.51    1.56
   0   1  -6   75.98    1.24
   0  -1   6   76.89    1.06
   0  -1   6   76.50    1.29
   0   1  -6   76.28    1.11
   0   1  -5   37.60    0.76
   0  -1   5   40.10    0.71
   0  -1   5   38.96    0.73
   0   1  -5   38.52    0.71
   0   1  -4  110.47    1.09
   0  -1   4  112.78    1.06
   0  -1   4  110.66    1.11
   0   1  -4  110.80    1.09
   0   1  -3   53.90    0.84
   0  -1   3   53.75    0.65
   0  -1   3   54.08    0.71
   0   1  -3   53.15    0.67
   0   1  -2   92.16    0.70
   0   1  -2   89.95    0.75
   0  -1   2   90.72    0.78
   0   1  -2   88.61    0.73
   0  -1  -1   74.99    0.72
   0   1   1   75.42    0.69
   0  -1  -1   74.87    0.56
   0  -1  -2  470.78    3.47
   0  -1  -3    0.62    0.36
   0   1   3    0.82    0.26
   0   1   3    0.89    0.20
   0  -1  -3    1.14    0.40
   0  -1  -4   22.53    0.72
   0   1   4   22.12    0.58
   0  -1  -4   22.82    0.53
   0  -1  -5  199.36    2.06
   0   1   5  211.91    1.96
   0  -1  -5  203.33    1.83
   0  -1  -6   49.67    1.12
   0   1   6   49.73    1.00
   0  -1  -6   47.89    0.93
   0  -1  -7    4.66    0.66
   0  -1  -8    2.63    0.63
   0  -1  -9   76.21    1.81
   0  -1 -10   12.62    0.91
   0  -1 -11   34.31    1.27
   0  -1 -12    0.27    0.45
   0   2 -13    3.39    0.60
   0   2 -12   12.68    0.84
   0   2 -11    0.73    0.42
   0   2 -10    0.31    0.47
   0   2  -9    7.73    0.74
   0   2  -8    1.76    0.63
   0  -2   8    1.51    0.31
   0  -2   8    2.04    0.57
   0   2  -7   93.28    1.54
   0  -2   7   88.21    1.26
   0  -2   7   89.15    2.00
   0   2  -6   -0.16    0.32
   0  -2   6    0.11    0.35
   0  -2   6    0.16    0.17
   0   2  -6    0.21    0.20
   0   2  -5  136.15    1.35
   0   2  -5  138.57    1.38
   0  -2   5  138.50    1.55
   0   2  -5  139.17    1.42
   0  -2   4  376.88    2.75
   0  -2   1  100.10    1.05
   0   2  -1   98.19    0.85
   0   2  -1   96.23    0.65
   0  -2   0  174.63    1.54
   0   2   0  173.51    1.34
   0   2   0  174.92    1.03
   0  -2  -1  432.44    2.95
   0  -2  -2   38.19    0.69
   0   2   2   37.85    0.68
   0  -2  -2   38.49    0.74
   0  -2  -3  108.92    1.32
   0   2   3  106.93    1.20
   0  -2  -3  107.60    1.05
   0  -2  -4   40.65    1.02
   0   2   4   41.03    0.85
   0  -2  -4   40.67    0.70
   0  -2  -5    4.69    0.51
   0   2   5    4.33    0.54
   0  -2  -5    4.46    0.31
   0  -2  -6   38.86    1.22
   0  -2  -7    1.45    0.63
   0  -2  -8   36.43    1.25
   0  -2  -9   74.43    2.14
   0  -2 -10    1.25    0.69
   0  -2 -11    0.09    0.47
   0  -2 -11    0.47    0.49
   0  -2 -12    1.57    0.70
   0  -2 -12    2.20    0.72
   0   3 -13    0.19    0.41
   0   3 -12    0.97    0.46
   0   3 -11    0.18    0.45
   0   3 -10   12.84    0.94
   0   3  -9    0.26    0.48
   0   3  -8    7.22    0.40
   0   3  -8    8.42    0.68
   0  -3   8    8.13    1.04
   0   3  -7    5.18    0.36
   0   3  -7    5.66    0.54
   0  -3   7    5.98    1.55
   0   3  -6    8.77    0.40
   0   3  -6    9.11    0.53
   0  -3   6    9.48    0.50
   0   3  -6    8.36    0.41
   0   3  -5   48.44    0.74
   0   3  -5   48.13    0.84
   0  -3   5   47.70    0.90
   0   3  -5   49.47    0.80
   0  -3   4  188.41    2.81
   0   3  -4  188.39    1.57
   0  -3   4  188.59    1.62
   0   3  -4  189.49    1.60
   0  -3   3  305.54    2.16
   0   3  -3  306.97    2.06
   0  -3   3  304.74    2.08
   0  -3   2   70.82    0.79
   0   3  -2   70.95    0.77
   0  -3   2   68.84    0.61
   0   3  -2   69.28    0.61
   0  -3   1  176.16    1.39
   0   3  -1  177.47    1.40
   0   3  -1  178.83    1.08
   0  -3   0  189.54    1.65
   0   3   0  187.88    1.52
   0  -3  -1   32.75    0.70
   0   3   1   32.79    0.68
   0  -3  -1   32.64    0.44
   0  -3  -1   33.01    0.46
   0  -3  -2   50.51    1.08
   0   3   2   52.16    0.89
   0  -3  -2   53.24    0.73
   0  -3  -2   53.31    0.72
   0  -3  -3  265.68    2.33
   0   3   3  260.73    2.31
   0  -3  -3  265.92    2.08
   0  -3  -4   23.43    0.87
   0   3   4   23.29    0.71
   0  -3  -4   23.40    0.56
   0  -3  -5   16.12    0.87
   0  -3  -5   14.98    0.56
   0  -3  -6   44.67    1.49
   0  -3  -7   43.99    1.53
   0  -3  -8  101.89    2.14
   0  -3  -9    3.06    0.63
   0  -3 -10    0.33    0.51
   0  -3 -10    0.69    0.72
   0  -3 -11    1.86    0.75
   0  -3 -11    1.49    0.53
   0   4 -13    0.25    0.39
   0   4 -12    8.48    0.76
   0   4 -11    9.69    0.77
   0   4 -10    0.70    0.30
   0   4  -9   14.48    0.78
   0   4  -8    5.90    0.37
   0   4  -8    6.57    0.67
   0   4  -7   13.98    0.57
   0   4  -7   14.85    0.79
   0   4  -7   13.12    0.55
   0   4  -6  160.48    1.82
   0   4  -6  167.67    2.08
   0  -4   6  166.55    2.03
   0   4  -6  163.95    1.92
   0  -4   5  569.89    7.33
   0   4  -5  553.06    5.04
   0  -4   4   53.45    0.82
   0   4  -4   53.95    0.82
   0  -4   4   55.35    0.95
   0   4  -4   54.70    0.75
   0   4  -3  567.82    4.51
   0  -4   3  559.71    3.60
   0   4  -3  563.58    4.21
   0  -4   2  312.78    2.41
   0   4  -2  309.45    2.36
   0  -4   1    2.85    0.38
   0   4  -1    2.60    0.29
   0   4  -1    2.59    0.12
   0  -4   0   35.03    0.79
   0   4   0   35.22    0.70
   0  -4  -1   70.95    1.13
   0   4   1   71.65    1.05
   0  -4  -1   71.90    0.73
   0  -4  -1   71.96    0.73
   0  -4  -2   15.01    0.70
   0   4   2   14.78    0.59
   0  -4  -2   15.28    0.39
   0  -4  -2   14.87    0.49
   0  -4  -3   25.89    0.91
   0   4   3   25.32    0.73
   0  -4  -3   27.09    0.56
   0  -4  -3   27.05    0.68
   0  -4  -4    7.52    0.95
   0  -4  -4    6.71    0.36
   0  -4  -4    6.55    0.47
   0  -4  -5   42.95    1.61
   0  -4  -5   40.81    1.02
   0  -4  -5   41.48    1.18
   0  -4  -6   35.10    1.54
   0  -4  -6   33.74    1.16
   0  -4  -7    0.68    0.38
   0  -4  -7    1.21    0.47
   0  -4  -8    2.62    0.74
   0  -4  -8    1.93    0.44
   0  -4  -9    0.37    0.54
   0  -4  -9    0.36    0.45
   0  -4 -10    7.24    0.99
   0  -4 -10    6.13    0.86
   0  -4 -11    3.92    0.93
   0  -4 -11    3.00    0.83
   0   5 -13    0.87    0.43
   0   5 -12    1.26    0.54
   0   5 -11    0.00    0.43
   0   5 -10   10.69    0.87
   0   5  -9   45.43    1.23
   0   5  -8   38.39    1.27
   0  -5   8   37.38    1.25
   0   5  -7  151.88    1.52
   0  -5   7  166.45    3.40
   0  -5   6  175.28    2.60
   0   5  -6  163.82    1.96
   0  -5   6  171.85    2.51
   0   5  -6  167.49    2.01
   0  -5   5    0.13    0.20
   0   5  -5    0.09    0.28
   0  -5   5    0.56    0.33
   0   5  -5    0.33    0.16
   0   5  -4    6.10    0.36
   0  -5   4    6.67    0.34
   0   5  -4    6.22    0.31
   0  -5   3  246.27    2.56
   0   5  -3  244.57    2.50
   0  -5   3  253.64    2.05
   0   5  -3  251.77    2.07
   0  -5   2    5.79    0.63
   0   5  -2    5.59    0.47
   0   5  -2    5.79    0.22
   0  -5   1   13.79    0.65
   0   5  -1   13.52    0.51
   0  -5   0   88.61    1.33
   0   5   0   86.78    1.32
   0  -5   0   85.03    0.71
   0  -5  -1    2.47    0.51
   0   5   1    1.74    0.30
   0  -5  -1    2.31    0.29
   0  -5  -1    2.24    0.29
   0  -5  -2   56.35    1.26
   0  -5  -2   58.27    0.79
   0  -5  -2   58.28    0.90
   0  -5  -3   25.91    1.27
   0  -5  -3   30.11    0.62
   0  -5  -3   30.17    0.79
   0  -5  -4   32.34    1.49
   0  -5  -4   30.73    0.82
   0  -5  -4   30.32    0.93
   0  -5  -6   64.91    1.85
   0  -5  -6   59.25    1.31
   0  -5  -7    7.20    0.90
   0  -5  -7    6.82    0.59
   0  -5  -8    0.81    0.38
   0  -5  -8    1.03    0.47
   0  -5  -9    8.49    0.86
   0  -5  -9    8.80    0.86
   0  -5 -10    7.25    0.82
   0  -5 -10    7.55    0.77
   0   6 -13    0.61    0.48
   0   6 -12    2.32    0.63
   0   6 -11    0.60    0.53
   0   6 -10    2.90    0.49
   0   6  -9   73.40    1.89
   0   6  -8    4.81    0.63
   0   6  -7  190.86    2.29
   0  -6   7  193.33    2.02
   0  -6   6   10.94    1.82
   0  -6   6   10.49    0.54
   0   6  -6    9.39    0.49
   0  -6   5   18.26    1.16
   0   6  -5   16.96    0.61
   0  -6   5   18.77    0.63
   0   6  -5   17.56    0.59
   0  -6   4   23.48    0.84
   0   6  -4   21.39    0.62
   0  -6   4   23.67    0.50
   0   6  -4   23.45    0.56
   0   6  -3    7.56    0.51
   0   6  -3    7.29    0.28
   0  -6   2   20.60    0.75
   0  -6   1   49.12    1.17
   0  -6   0    4.24    0.76
   0  -6  -1   36.11    1.25
   0  -6  -1   37.77    0.76
   0  -6  -2   17.66    1.24
   0  -6  -2   17.79    0.50
   0  -6  -2   17.76    0.60
   0  -6  -3    9.68    0.96
   0  -6  -3   10.00    0.43
   0  -6  -3    9.55    0.54
   0  -6  -4    4.35    0.90
   0  -6  -4    3.86    0.29
   0  -6  -4    4.17    0.46
   0  -6  -5    0.25    0.55
   0  -6  -5    0.04    0.13
   0  -6  -5    0.14    0.27
   0  -6  -6    6.96    0.96
   0  -6  -6    6.53    0.62
   0  -6  -7   -0.04    0.49
   0  -6  -7    0.19    0.33
   0  -6  -8    1.86    0.79
   0  -6  -8    1.23    0.43
   0  -6  -9    3.31    0.95
   0  -6  -9    2.53    0.65
   0   7 -12    0.23    0.34
   0   7 -11    2.16    0.61
   0   7 -10   12.13    0.82
   0   7  -9   65.76    1.59
   0   7  -8   18.13    0.88
   0  -7   7    3.32    1.32
   0   7  -7    2.94    0.27
   0  -7   6    3.44    1.14
   0   7  -6    3.12    0.32
   0  -7   5   35.91    1.16
   0   7  -5   35.15    0.91
   0  -7   4    7.21    0.78
   0   7  -4    7.09    0.32
   0  -7   3    0.65    0.28
   0   7  -3    0.71    0.10
   0  -7   2    5.85    0.62
   0  -7   1    9.43    0.88
   0  -7   0   81.68    2.18
   0  -7  -1    4.55    0.69
   0  -7  -1    4.56    0.15
   0  -7  -3   48.39    1.47
   0  -7  -3   45.79    0.84
   0  -7  -3   47.71    0.93
   0  -7  -4    0.37    0.56
   0  -7  -4    0.07    0.11
   0  -7  -4    0.07    0.21
   0  -7  -5    0.46    0.57
   0  -7  -5    0.68    0.29
   0  -7  -6    8.82    0.94
   0  -7  -6    8.31    0.63
   0  -7  -7    1.80    0.71
   0  -7  -7    1.76    0.43
   0  -7  -8    1.16    0.96
   0  -7  -8    0.23    0.33
   0   8 -11    1.26    0.43
   0   8 -10    1.43    0.46
   0   8  -9   11.05    0.81
   0  -8   7    5.42    1.51
   0  -8   6    0.15    0.22
   0   8  -6    0.00    0.11
   0  -8   5    0.66    0.32
   0   8  -5    0.67    0.15
   0  -8   4   30.16    1.08
   0   8  -4   29.88    0.45
   0   8  -4   28.24    0.41
   0  -8   3    5.30    0.66
   0  -8   1    3.91    0.69
   0  -8   0    7.52    0.67
   0  -8  -1   21.53    1.03
   0  -8  -2    0.20    0.65
   0  -8  -2    0.13    0.09
   0  -8  -2    0.23    0.13
   0  -8  -3    2.62    0.61
   0  -8  -3    2.49    0.32
   0  -8  -4   -0.04    0.49
   0  -8  -4    0.28    0.29
   0  -8  -5    6.68    0.93
   0  -8  -5    5.94    0.45
   0  -8  -6    1.35    0.60
   0  -8  -6    1.53    0.42
   0   9 -10    8.22    0.83
   0   9  -9    0.29    0.34
   0  -9   8    6.98    2.02
   0  -9   7    0.50    0.25
   0  -9   6    0.75    0.33
   0   9  -6    0.51    0.16
   0  -9   5    0.54    0.35
   0  -9   4   11.43    0.70
   0  -9   3    5.86    0.79
   0  -9   2    4.37    0.63
   0  -9   0   22.73    1.12
   0  -9  -1    3.02    0.66
   0  -9  -2    0.14    0.44
   0  -9  -3    2.27    0.80
   0  -9  -4    0.46    0.51
   0  -9  -5    3.03    0.99
   0  10  -9   -0.06    0.35
   0 -10   8    0.62    0.37
   0 -10   7    2.69    0.88
   0 -10   6    3.51    0.97
   0 -10   5    0.24    0.33
   0 -10   4    0.19    0.53
   0 -10   3    0.54    0.55
   0 -10   2    0.24    0.34
   0 -10   1   10.11    0.80
   0 -10   0    0.42    0.53
   0 -10  -1    3.65    0.75
   0 -10  -2    0.23    0.49
   0 -10  -3    4.59    0.71
   0 -11   6   -0.08    0.31
   0 -11   5    5.54    0.77
   0 -11   4   14.16    0.97
   0 -11   3    6.74    0.72
   0 -11   2    0.23    0.46
   0 -11   1    7.48    0.81
   1 -11   0    0.50    0.43
   1 -11   1    0.01    0.33
   1 -11   2   44.61    1.50
   1 -11   3    0.13    0.34
   1 -11   4   11.92    0.95
   1 -11   5    0.46    0.52
   1 -11   6    0.35    0.31
   1 -10  -3    1.87    0.63
   1 -10  -1    0.49    0.53
   1 -10   0    0.22    0.36
   1 -10   1    0.63    0.43
   1 -10   2    0.74    0.57
   1 -10   3   24.55    1.04
   1 -10   4    3.66    0.59
   1 -10   5    1.87    0.46
   1 -10   6    0.12    0.30
   1 -10   7    0.16    0.17
   1 -10   8    0.25    0.22
  -1  10  -9    1.50    0.36
   1  -9  -5    1.12    0.75
   1  -9  -4    1.79    0.50
   1  -9  -3    0.59    0.75
   1  -9  -2    0.66    0.56
   1  -9   0    4.44    0.73
   1  -9   2    0.51    0.46
   1  -9   3    7.05    0.72
   1  -9   4    0.13    0.30
   1  -9   5   15.89    0.83
  -1   9  -6    0.18    0.16
   1  -9   7    1.17    0.44
  -1   9  -7    1.40    0.26
   1  -9   8    0.19    0.31
  -1   9  -8   -0.03    0.19
  -1   9  -9    5.45    0.62
  -1   9  -9    4.76    0.44
  -1   9 -10    1.59    0.44
  -1   9 -10    1.66    0.45
   1  -8  -7    2.70    0.72
   1  -8  -6    2.78    0.85
   1  -8  -6    2.48    0.40
   1  -8  -5   12.11    1.11
   1  -8  -5   10.25    0.45
   1  -8  -4    3.85    0.71
   1  -8  -4    3.30    0.33
   1  -8  -3    0.13    0.45
   1  -8  -3    0.12    0.12
   1  -8  -2    0.98    0.49
   1  -8  -1   21.87    1.14
   1  -8   1    8.15    0.65
   1  -8   2    1.73    0.39
   1  -8   3    9.21    0.75
   1  -8   4    3.56    0.49
   1  -8   5    3.24    0.47
  -1   8  -5    2.89    0.20
  -1   8  -5    2.94    0.22
   1  -8   6    0.27    0.19
  -1   8  -6    0.23    0.13
  -1   8  -6    0.38    0.20
   1  -8   7    3.25    1.10
  -1   8  -7    3.25    0.38
  -1   8  -8    0.09    0.28
  -1   8  -8    0.39    0.38
  -1   8  -9    8.72    0.65
  -1   8  -9    7.14    0.56
  -1   8 -10   37.56    1.01
  -1   8 -10   36.61    1.09
  -1   8 -11   21.35    0.82
  -1   8 -11   19.73    0.87
   1  -7  -8    0.17    0.60
   1  -7  -8    0.34    0.32
   1  -7  -7    1.28    0.62
   1  -7  -7    0.57    0.33
   1  -7  -6    2.91    0.63
   1  -7  -6    2.64    0.39
   1  -7  -5    1.17    0.57
   1  -7  -5    1.17    0.31
   1  -7  -4   13.69    1.23
   1  -7  -4   11.73    0.44
   1  -7  -4   12.80    0.58
   1  -7  -3   18.49    0.96
   1  -7  -3   17.45    0.42
   1  -7  -3   17.46    0.56
   1  -7  -2    7.32    0.74
   1  -7  -2    8.52    0.25
   1  -7  -1   97.30    2.45
   1  -7   0  218.91    2.50
   1  -7   1   11.25    0.75
   1  -7   2    1.15    0.50
   1  -7   3   14.59    0.89
   1  -7   4    8.17    0.60
  -1   7  -4    8.09    0.31
  -1   7  -4    7.95    0.34
   1  -7   5    1.23    0.35
  -1   7  -5    1.17    0.22
  -1   7  -5    1.27    0.28
   1  -7   6    0.14    0.20
  -1   7  -6    0.25    0.17
  -1   7  -6    0.14    0.27
   1  -7   7    2.31    0.47
  -1   7  -7    1.80    0.23
  -1   7  -7    2.02    0.38
  -1   7  -8    0.06    0.29
  -1   7  -9    1.12    0.42
  -1   7 -10    0.47    0.39
  -1   7 -10    0.36    0.31
  -1   7 -11    0.47    0.48
  -1   7 -11    0.34    0.35
  -1   7 -12    6.75    0.57
  -1   7 -12    7.46    0.73
   1  -6  -9    0.15    0.58
   1  -6  -9    0.32    0.39
   1  -6  -8   -0.02    0.58
   1  -6  -8    0.55    0.51
   1  -6  -7    3.55    0.77
   1  -6  -7    3.82    0.54
   1  -6  -6   17.45    1.27
   1  -6  -6   16.46    0.71
   1  -6  -5   17.34    1.20
   1  -6  -5   16.00    0.53
   1  -6  -5   17.54    0.64
   1  -6  -4    0.99    0.62
   1  -6  -4    0.91    0.20
   1  -6  -4    0.95    0.28
   1  -6  -3   32.51    1.52
   1  -6  -3   31.85    0.82
   1  -6  -3   31.63    0.86
   1  -6  -2    2.14    0.62
   1  -6  -2    1.77    0.21
   1  -6  -1    8.77    0.71
   1  -6   0  108.47    1.75
  -1   6  -1    0.56    0.34
   1  -6   2   31.85    0.96
  -1   6  -2   29.03    0.79
   1  -6   3    7.02    0.57
  -1   6  -3    6.61    0.54
  -1   6  -3    7.16    0.24
  -1   6  -3    6.37    0.24
   1  -6   4    0.32    0.28
  -1   6  -4    0.44    0.35
  -1   6  -4    0.49    0.17
  -1   6  -4    0.38    0.17
   1  -6   5    2.73    0.57
  -1   6  -5    2.62    0.35
  -1   6  -5    2.46    0.27
  -1   6  -5    2.45    0.31
   1  -6   6   11.70    0.83
  -1   6  -6   11.06    0.50
  -1   6  -6   11.44    0.51
  -1   6  -7  154.34    1.71
  -1   6  -9   28.32    0.97
  -1   6 -10    0.09    0.25
  -1   6 -11    4.66    0.48
  -1   6 -12    0.69    0.51
  -1   6 -12    0.65    0.45
   1  -5 -10    6.21    0.93
   1  -5 -10    5.81    0.84
   1  -5  -9    1.76    0.77
   1  -5  -9    1.96    0.58
   1  -5  -8    1.35    0.77
   1  -5  -8    0.96    0.51
   1  -5  -7   23.50    1.33
   1  -5  -6    0.94    0.39
   1  -5  -5   56.76    1.83
   1  -5  -5   63.70    1.49
   1  -5  -4    5.26    1.04
   1  -5  -4    5.36    0.34
   1  -5  -3   33.44    1.18
   1  -5  -3   31.71    0.59
   1  -5  -3   32.61    0.67
   1  -5  -2   29.22    1.10
   1  -5  -2   29.72    0.52
   1  -5  -2   29.22    0.54
   1  -5  -1    9.52    0.61
  -1   5   1    9.08    0.52
   1  -5  -1    9.07    0.21
   1  -5  -1    9.79    0.29
   1  -5   0    6.20    0.57
  -1   5   0    5.61    0.44
   1  -5   1    9.74    0.52
  -1   5  -1   10.29    0.46
   1  -5   2   10.55    0.49
  -1   5  -2   10.38    0.44
  -1   5  -2   10.66    0.18
  -1   5  -2   10.07    0.18
   1  -5   3    6.65    0.41
  -1   5  -3    7.14    0.36
  -1   5  -3    7.17    0.25
  -1   5  -3    6.77    0.29
   1  -5   4   38.00    0.82
  -1   5  -4   37.13    0.70
  -1   5  -4   37.63    0.63
   1  -5   5    0.92    0.23
  -1   5  -5    1.07    0.28
  -1   5  -5    0.99    0.21
  -1   5  -6   88.02    1.83
  -1   5  -6   89.58    1.88
  -1   5  -6   83.53    1.71
  -1   5  -7    9.31    0.48
  -1   5  -7   10.76    0.64
  -1   5  -8   14.40    0.50
  -1   5  -8   16.95    0.76
  -1   5  -9    3.98    0.27
  -1   5  -9    5.14    0.58
  -1   5 -10    0.15    0.30
  -1   5 -11    3.54    0.52
  -1   5 -12    7.10    0.65
  -1   5 -13    0.41    0.43
  -1   5 -13    0.49    0.69
   1  -4 -11    0.26    0.55
   1  -4 -11    0.50    0.43
   1  -4 -10    1.19    0.60
   1  -4  -9    1.46    0.59
   1  -4  -8    6.88    0.85
   1  -4  -7    1.21    0.41
   1  -4  -6   14.00    1.00
   1  -4  -5    2.84    0.76
   1  -4  -5    2.03    0.31
   1  -4  -4   -0.05    0.53
   1  -4  -4    0.09    0.25
   1  -4  -3    6.29    0.59
  -1   4   3    6.07    0.46
   1  -4  -3    6.20    0.29
   1  -4  -2   63.87    1.14
  -1   4   2   64.45    1.07
   1  -4  -2   64.40    0.74
   1  -4  -1   57.06    1.08
  -1   4   1   59.74    0.97
   1  -4  -1   61.15    0.55
   1  -4   0   22.56    0.63
  -1   4   0   21.89    0.63
   1  -4   1   29.06    0.68
  -1   4  -1   30.16    0.61
   1  -4   2   34.91    0.66
  -1   4  -2   34.71    0.64
  -1   4  -2   35.39    0.40
  -1   4  -2   34.69    0.45
   1  -4   3   37.70    0.63
  -1   4  -3   37.34    0.60
  -1   4  -3   38.39    0.54
  -1   4  -3   36.81    0.57
   1  -4   4  183.43    2.02
  -1   4  -4  186.43    1.70
  -1   4  -4  186.66    1.74
  -1   4  -5  331.14    3.07
  -1   4  -5  331.45    1.62
  -1   4  -5  331.40    1.76
  -1   4  -6   74.83    1.04
  -1   4  -6   78.87    1.22
  -1   4  -6   75.67    1.20
  -1   4  -7   25.56    0.71
  -1   4  -7   26.57    0.91
  -1   4  -8   23.52    0.73
  -1   4  -8   26.88    1.00
  -1   4  -9    1.55    0.44
  -1   4  -9    1.79    0.52
  -1   4 -10    0.27    0.35
  -1   4 -11    2.03    0.53
  -1   4 -12    0.91    0.34
  -1   4 -13    0.48    0.33
  -1   4 -13    0.27    0.55
   1  -3 -12    1.09    0.64
   1  -3 -11    5.09    0.76
   1  -3 -10    6.32    0.81
   1  -3  -9    1.48    0.70
   1  -3  -8   26.67    1.33
   1  -3  -7    0.64    0.91
   1  -3  -6    3.23    0.71
   1  -3  -6    2.98    0.31
   1  -3  -5   13.60    0.83
  -1   3   5   13.42    1.42
   1  -3  -5   13.65    0.54
   1  -3  -4   21.82    0.83
  -1   3   4   22.92    0.68
  -1   3   4   23.23    0.59
   1  -3  -4   24.13    0.56
   1  -3  -3  175.40    1.87
  -1   3   3  173.11    1.79
  -1   3   3  171.34    1.55
   1  -3  -3  175.30    1.48
   1  -3  -2  104.78    1.29
  -1   3   2  104.56    1.21
  -1   3   2  104.10    0.92
   1  -3  -2  104.74    0.94
   1  -3  -1   18.23    0.65
  -1   3   1   18.21    0.51
  -1   3   1   17.65    0.38
   1  -3  -1   17.41    0.27
   1  -3   0   15.71    0.47
  -1   3   0   15.51    0.43
  -1   3   0   15.78    0.17
   1  -3   0   15.81    0.20
   1  -3   1  101.71    0.94
  -1   3  -1  101.64    0.96
  -1   3  -1   99.67    0.68
   1  -3   2   24.73    0.46
  -1   3  -2   24.47    0.45
  -1   3  -2   24.94    0.36
  -1   3  -2   23.91    0.42
   1  -3   3  186.39    1.38
  -1   3  -3  186.44    1.31
  -1   3  -3  192.19    1.46
  -1   3  -4   26.32    0.44
  -1   3  -4   26.87    0.50
  -1   3  -4   27.65    0.55
  -1   3  -5   78.15    0.94
  -1   3  -5   79.14    1.00
  -1   3  -5   79.42    1.08
  -1   3  -6   46.99    0.75
  -1   3  -6   47.79    0.91
  -1   3  -6   47.78    0.94
  -1   3  -7   43.15    0.77
  -1   3  -7   46.79    1.04
  -1   3  -8    3.50    0.80
  -1   3  -8    4.51    0.58
  -1   3  -9    3.21    0.68
  -1   3  -9    4.42    0.59
  -1   3 -10   40.63    1.28
  -1   3 -11    0.35    0.53
  -1   3 -12    1.02    0.48
  -1   3 -13    2.55    0.59
  -1   3 -13    3.16    0.82
   1  -2 -12    0.35    0.52
   1  -2 -11    0.07    0.54
   1  -2 -10   16.31    1.15
   1  -2  -9   18.12    1.02
   1  -2  -8   66.96    1.74
   1  -2  -7   11.77    0.94
  -1   2   7   12.47    1.82
   1  -2  -6   27.71    1.09
  -1   2   6   26.82    0.80
   1  -2  -6   25.65    0.70
   1  -2  -5   17.39    0.83
  -1   2   5   16.21    0.63
  -1   2   5   18.86    0.81
   1  -2  -5   16.71    0.54
   1  -2  -4   74.47    1.22
  -1   2   4   71.18    1.08
  -1   2   4   73.74    0.98
   1  -2  -4   71.09    0.90
  -1   2   3  470.15    3.36
   1  -2  -2    0.70    0.58
  -1   2   2    0.71    0.24
  -1   2   2    0.88    0.21
   1  -2  -2    1.21    0.18
   1  -2  -1    0.45    0.44
  -1   2   1    0.71    0.36
  -1   2   1    0.50    0.13
   1  -2  -1    0.50    0.12
   1  -2   0  116.35    1.07
  -1   2   0  117.99    1.22
  -1   2   0  118.49    0.90
   1  -2   1  420.77    2.64
   1  -2   2  350.48    2.17
  -1   2  -2  348.49    2.17
  -1   2  -3  157.36    1.06
  -1   2  -3  159.61    1.12
  -1   2  -3  155.76    1.47
  -1   2  -4  187.43    1.52
  -1   2  -4  184.55    1.33
  -1   2  -4  187.58    1.53
  -1   2  -5    8.64    0.46
   1  -2   5    8.79    0.33
  -1   2  -5    8.39    0.69
  -1   2  -6   21.89    0.64
   1  -2   6   22.48    0.53
  -1   2  -6   22.75    0.64
  -1   2  -7    8.49    0.53
   1  -2   7    9.12    0.51
  -1   2  -8    0.45    0.30
   1  -2   8    0.58    0.24
  -1   2  -9    4.02    0.49
   1  -2   9    3.24    0.35
  -1   2 -10   16.33    0.83
  -1   2 -11    2.29    0.64
  -1   2 -12   12.29    0.81
  -1   2 -12   13.64    1.02
  -1   2 -13    2.43    0.56
  -1   2 -13    2.39    0.81
   1  -1 -13    0.52    0.53
   1  -1 -12    2.39    0.70
   1  -1 -11    0.83    0.55
   1  -1 -10   11.77    1.28
   1  -1  -9   64.14    1.67
  -1   1   9   65.39    1.57
   1  -1  -8  109.41    2.78
  -1   1   8  108.63    2.54
   1  -1  -7   53.01    1.43
  -1   1   7   53.30    1.20
   1  -1  -6   -0.01    0.49
  -1   1   6    0.35    0.28
  -1   1   6   -0.24    0.37
   1  -1  -6    0.05    0.19
   1  -1  -5   35.20    0.95
  -1   1   5   35.71    0.76
  -1   1   5   36.31    0.80
   1  -1  -5   34.05    0.67
   1  -1  -4   31.03    0.77
  -1   1   4   30.56    0.69
  -1   1   4   30.91    0.64
   1  -1  -4   31.18    0.59
   1  -1  -3    7.89    0.53
  -1   1   3    8.22    0.42
  -1   1   3    8.08    0.39
   1  -1  -3    8.51    0.41
   1  -1  -2   27.35    0.98
  -1   1   2   26.63    0.74
  -1   1   2   27.80    0.59
   1  -1  -2   28.17    0.55
   1  -1   0    6.70    0.24
  -1   1   0    7.14    0.21
  -1   1   0    6.89    0.23
   1  -1   0    7.49    0.22
  -1   1  -2  460.28    3.26
   1  -1   3  350.22    2.06
   1  -1   4  256.66    1.71
  -1   1  -4  249.73    1.88
  -1   1  -5    2.71    0.40
   1  -1   5    2.49    0.29
  -1   1  -5    2.44    0.71
  -1   1  -6   13.73    0.60
   1  -1   6   14.58    0.52
  -1   1  -6   13.94    0.53
  -1   1  -7    7.41    0.61
   1  -1   7    6.61    0.39
  -1   1  -8    4.62    0.65
   1  -1   8    4.41    0.45
  -1   1  -9    4.68    0.71
  -1   1 -10    0.15    0.43
  -1   1 -11    6.81    0.69
  -1   1 -11    7.29    0.84
  -1   1 -12    9.30    0.76
  -1   1 -12    9.06    0.97
  -1   1 -13   24.77    1.11
  -1   1 -13   20.45    1.27
   1   0 -13    0.22    0.52
   1   0 -12    0.03    0.52
   1   0 -11    3.08    0.70
   1   0 -10    0.46    0.51
  -1   0  10    0.98    0.60
   1   0  -9   12.65    0.95
  -1   0   9   13.76    1.91
   1   0  -8    8.00    0.92
  -1   0   8    9.05    1.50
   1   0  -7  104.48    1.86
  -1   0   7  104.23    1.72
   1   0  -6   35.85    1.03
  -1   0   6   34.13    0.76
  -1   0   6   35.24    0.84
   1   0  -6   34.47    0.75
   1   0  -5  279.81    2.48
  -1   0   5  280.92    2.32
   1   0  -5  277.33    2.27
   1   0  -4   34.39    0.76
  -1   0   4   33.98    0.64
  -1   0   4   34.27    0.68
   1   0  -4   35.64    0.62
   1   0  -3    6.03    0.54
  -1   0   3    5.48    0.31
  -1   0   3    5.67    0.32
   1   0  -3    5.64    0.31
  -1   0   2  518.90    3.38
   1   0  -1    0.35    0.23
  -1   0   1    0.50    0.14
  -1   0   1    0.42    0.16
   1   0  -1    0.27    0.19
  -1   0  -2    5.40    0.60
   1   0   2    4.42    0.30
  -1   0  -2    4.81    0.67
  -1   0  -3   54.43    0.71
   1   0   3   54.63    0.66
  -1   0  -3   54.16    0.78
  -1   0  -4   43.76    0.72
   1   0   4   42.95    0.65
  -1   0  -4   45.15    0.83
  -1   0  -5    2.15    0.31
   1   0   5    2.12    0.28
  -1   0  -5    1.93    0.59
  -1   0  -6    1.99    0.50
   1   0   6    2.29    0.37
  -1   0  -6    1.44    0.60
  -1   0  -7    0.55    0.42
   1   0   7    0.54    0.20
  -1   0  -8    3.38    0.60
  -1   0  -9   29.42    1.06
  -1   0 -10   10.02    0.73
  -1   0 -10   10.61    0.92
  -1   0 -11    1.45    0.55
  -1   0 -11    1.96    0.63
  -1   0 -12   13.49    0.91
  -1   0 -12   12.50    0.98
  -1   0 -13    0.58    0.57
  -1   0 -13    0.49    0.53
   1   1 -13    0.18    0.71
   1   1 -12    0.39    0.45
   1   1 -11    0.36    0.49
   1   1 -10    3.45    0.74
  -1  -1  10    4.22    1.44
   1   1  -9    6.01    0.79
  -1  -1   9    5.52    1.51
   1   1  -8   10.99    0.93
  -1  -1   8    9.11    0.82
   1   1  -7    9.29    0.74
  -1  -1   7    8.69    0.49
  -1  -1   7    9.21    1.61
   1   1  -6    3.62    0.52
  -1  -1   6    3.36    0.34
  -1  -1   6    4.33    1.18
   1   1  -6    3.04    0.31
   1   1  -5   49.93    0.94
  -1  -1   5   49.53    0.83
  -1  -1   5   48.19    0.88
   1   1  -5   50.71    0.83
   1   1  -4  120.17    1.27
  -1  -1   4  120.42    1.15
  -1  -1   4  123.07    1.21
   1   1  -4  123.25    1.17
   1   1  -3    3.50    0.45
  -1  -1   3    3.07    0.30
  -1  -1   3    3.14    0.31
   1   1  -3    3.27    0.28
   1   1  -2   33.72    0.55
   1   1  -2   34.14    0.87
  -1  -1   2   35.01    0.83
   1   1  -2   33.63    0.61
   1   1  -1  737.78    4.62
   1   1   0  320.29    1.94
  -1  -1  -1  166.52    1.38
   1   1   1  164.65    1.33
  -1  -1  -1  167.36    1.68
   1   1   1  170.90    1.54
  -1  -1  -2   55.03    0.73
   1   1   2   55.66    0.75
  -1  -1  -2   53.96    0.77
  -1  -1  -3  224.38    1.71
   1   1   3  224.92    1.70
  -1  -1  -3  222.76    1.81
  -1  -1  -4    0.29    0.45
   1   1   4    0.14    0.39
  -1  -1  -4    0.13    0.14
  -1  -1  -4    0.37    0.39
  -1  -1  -5   89.10    1.33
   1   1   5   88.75    1.21
  -1  -1  -5   87.73    1.18
  -1  -1  -5   89.60    1.36
  -1  -1  -6   18.71    0.85
   1   1   6   17.52    0.60
  -1  -1  -6   17.90    0.78
  -1  -1  -7  107.53    1.54
  -1  -1  -7  105.59    2.43
  -1  -1  -8   16.16    0.96
  -1  -1  -8   15.10    0.93
  -1  -1  -9   28.78    1.14
  -1  -1  -9   29.13    1.19
  -1  -1 -10   26.30    1.12
  -1  -1 -10   27.81    1.21
  -1  -1 -11   14.40    0.92
  -1  -1 -11   14.91    1.05
  -1  -1 -12    2.09    0.62
  -1  -1 -12    1.58    0.67
   1   2 -13    0.06    0.44
   1   2 -12    9.59    0.85
   1   2 -11    3.74    0.77
  -1  -2  11    4.23    1.14
   1   2 -10    1.78    0.59
  -1  -2  10    2.39    0.70
   1   2  -9   11.96    1.07
  -1  -2   9   11.18    0.76
   1   2  -8   87.27    2.13
  -1  -2   8   86.02    2.31
   1   2  -7   -0.04    0.44
  -1  -2   7    0.30    0.38
   1   2  -6    1.85    0.44
  -1  -2   6    1.93    0.39
   1   2  -6    1.71    0.27
   1   2  -5  142.54    1.44
   1   2  -5  145.92    1.58
  -1  -2   5  144.03    1.52
   1   2  -5  145.37    1.47
   1   2  -4    8.72    0.38
   1   2  -4    8.57    0.45
  -1  -2   4    8.31    0.39
   1   2  -4    9.31    0.43
  -1  -2   3    1.25    0.42
   1   2  -3    0.82    0.16
  -1  -2   3    1.26    0.27
   1   2  -3    0.75    0.15
  -1  -2   2  191.76    1.60
   1   2  -2  193.74    1.45
  -1  -2   2  191.34    1.39
   1   2  -2  192.37    1.42
  -1  -2   0   22.24    0.52
   1   2   0   21.89    0.48
  -1  -2   0   23.97    0.53
   1   2   0   22.17    0.50
  -1  -2  -1    1.84    0.27
   1   2   1    2.06    0.26
  -1  -2  -1    1.49    0.28
   1   2   1    1.72    0.21
  -1  -2  -2   33.72    0.75
   1   2   2   33.72    0.66
  -1  -2  -2   33.36    0.61
  -1  -2  -3    0.85    0.30
   1   2   3    0.77    0.26
  -1  -2  -3    0.90    0.30
  -1  -2  -4    4.75    0.49
   1   2   4    4.26    0.49
  -1  -2  -4    4.62    0.45
  -1  -2  -4    4.47    0.46
  -1  -2  -5    0.69    0.35
   1   2   5    0.76    0.24
  -1  -2  -5    1.03    0.27
  -1  -2  -5    0.61    0.33
  -1  -2  -6    2.82    0.54
  -1  -2  -6    2.58    0.46
  -1  -2  -7  193.13    2.26
  -1  -2  -7  186.35    4.10
  -1  -2  -8  107.38    2.17
  -1  -2  -8  106.83    2.18
  -1  -2  -9    0.38    0.47
  -1  -2  -9    0.34    0.51
  -1  -2 -10   10.83    0.95
  -1  -2 -11    0.31    0.38
  -1  -2 -12    0.43    0.71
  -1  -2 -12    0.34    0.79
   1   3 -13    3.06    0.65
   1   3 -12    2.33    0.76
   1   3 -11    4.87    0.69
  -1  -3  11    4.11    1.19
   1   3 -10   39.65    1.31
  -1  -3  10   40.82    1.27
   1   3  -9    6.17    0.77
  -1  -3   9    6.62    1.52
   1   3  -8   15.72    0.90
  -1  -3   8   14.89    0.79
   1   3  -7    4.29    1.07
   1   3  -7    5.59    0.68
  -1  -3   7    5.70    1.76
   1   3  -6    6.56    1.37
   1   3  -6    7.62    0.77
  -1  -3   6    7.81    0.52
   1   3  -6    7.17    0.42
   1   3  -5   24.16    0.61
   1   3  -5   21.44    0.70
  -1  -3   5   24.10    0.65
   1   3  -5   24.80    0.64
  -1  -3   4    0.38    0.23
   1   3  -4    0.19    0.21
  -1  -3   4    0.15    0.25
   1   3  -4    0.08    0.21
  -1  -3   3   67.07    0.92
   1   3  -3   68.46    0.87
  -1  -3   3   67.39    0.80
   1   3  -3   66.82    0.79
  -1  -3   2    1.48    0.26
   1   3  -2    1.58    0.26
  -1  -3   2    1.44    0.25
   1   3  -2    1.00    0.18
  -1  -3   1   15.48    0.49
   1   3  -1   15.78    0.47
  -1  -3   1   14.92    0.43
   1   3  -1   16.76    0.42
  -1  -3   0   11.63    0.48
   1   3   0   11.56    0.55
  -1  -3   0   10.84    0.40
   1   3   0   11.37    0.34
  -1  -3  -1  345.40    2.51
   1   3   1  342.89    2.47
  -1  -3  -1  342.87    2.31
   1   3   1  348.14    2.27
   1   3   2   24.08    0.66
  -1  -3  -2   23.94    0.60
  -1  -3  -3  133.09    1.77
   1   3   3  128.51    1.56
  -1  -3  -3  130.69    1.57
  -1  -3  -4    1.25    0.58
   1   3   4    1.15    0.35
  -1  -3  -4    1.02    0.38
  -1  -3  -5    0.90    0.42
  -1  -3  -5    1.02    0.28
  -1  -3  -5    1.55    0.60
  -1  -3  -6   15.15    0.94
  -1  -3  -6   15.69    0.94
  -1  -3  -7   18.76    1.13
  -1  -3  -7   18.29    0.85
  -1  -3  -8   22.28    1.09
  -1  -3  -8   22.29    1.10
  -1  -3  -9    0.48    0.45
  -1  -3  -9    1.17    0.81
  -1  -3 -10    2.08    0.71
  -1  -3 -10    1.32    0.39
  -1  -3 -11    0.39    0.44
  -1  -3 -11    0.16    0.67
   1   4 -13    0.35    0.44
   1   4 -12    2.30    0.59
  -1  -4  12    2.30    0.56
   1   4 -11    0.90    0.54
  -1  -4  11    1.31    0.63
   1   4 -10   31.72    1.30
   1   4  -9    9.85    0.91
   1   4  -8   23.14    1.02
   1   4  -7    1.76    0.36
   1   4  -7    1.60    0.49
   1   4  -6    2.77    0.40
   1   4  -6    2.47    0.52
   1   4  -6    2.28    0.32
  -1  -4   5   18.19    1.17
   1   4  -5   18.58    0.57
  -1  -4   5   18.98    0.59
   1   4  -5   19.88    0.57
  -1  -4   4   71.79    1.42
   1   4  -4   72.15    1.08
  -1  -4   4   70.99    0.97
   1   4  -4   73.35    0.97
  -1  -4   3    1.03    0.32
   1   4  -3    1.34    0.34
  -1  -4   3    1.19    0.27
   1   4  -3    1.28    0.23
   1   4  -2   94.58    1.13
  -1  -4   2   95.47    0.97
   1   4  -2   96.65    0.99
  -1  -4   1    2.75    0.50
   1   4  -1    2.67    0.32
  -1  -4   1    2.54    0.29
   1   4  -1    2.71    0.30
  -1  -4   0    2.01    0.38
   1   4   0    2.05    0.32
  -1  -4   0    1.95    0.30
   1   4   0    2.13    0.27
  -1  -4  -1    3.48    0.45
   1   4   1    3.26    0.35
  -1  -4  -1    3.06    0.45
   1   4   1    3.04    0.28
  -1  -4  -2   71.12    1.28
   1   4   2   67.06    1.14
  -1  -4  -2   69.74    1.04
  -1  -4  -3   22.11    0.88
  -1  -4  -3   21.99    0.56
  -1  -4  -3   21.31    0.71
  -1  -4  -4    5.68    0.81
  -1  -4  -4    5.11    0.65
  -1  -4  -4    6.27    0.56
  -1  -4  -5    0.29    0.50
  -1  -4  -5    0.36    0.45
  -1  -4  -6   22.24    1.13
  -1  -4  -6   21.95    0.95
  -1  -4  -7    0.70    0.45
  -1  -4  -7    1.10    0.43
  -1  -4  -8   14.13    0.97
  -1  -4  -8   13.57    0.89
  -1  -4  -9    3.39    0.80
  -1  -4  -9    3.77    0.61
  -1  -4 -10    0.64    0.47
  -1  -4 -10    0.40    0.53
   1   5 -13    0.38    0.41
   1   5 -12   19.03    1.01
  -1  -5  12   18.62    0.94
   1   5 -11    5.10    0.79
  -1  -5  11    4.89    1.25
   1   5 -10    2.28    0.63
  -1  -5  10    2.10    0.63
   1   5  -9    0.26    0.64
  -1  -5   9    0.30    0.25
   1   5  -8   12.91    0.89
  -1  -5   8   13.05    0.74
   1   5  -7   16.60    0.97
  -1  -5   7   16.66    1.15
  -1  -5   6    0.51    0.34
   1   5  -6    0.33    0.19
  -1  -5   5    6.58    1.68
   1   5  -5    5.67    0.45
  -1  -5   5    6.43    0.42
   1   5  -5    5.92    0.43
  -1  -5   4    0.24    0.33
   1   5  -4    0.26    0.29
  -1  -5   4    0.13    0.22
   1   5  -4    0.36    0.32
  -1  -5   3    2.35    0.37
   1   5  -3    2.02    0.31
  -1  -5   3    2.65    0.28
   1   5  -3    2.21    0.28
  -1  -5   2   45.71    0.93
   1   5  -2   44.57    0.85
  -1  -5   2   46.34    0.67
  -1  -5   1   32.94    0.86
   1   5  -1   33.13    0.76
  -1  -5   1   33.14    0.57
   1   5  -1   34.01    0.60
  -1  -5   0   74.73    1.35
  -1  -5   0   74.93    1.01
   1   5   0   74.96    0.95
  -1  -5  -1    0.17    0.38
  -1  -5  -1    0.09    0.24
  -1  -5  -2    1.20    0.64
  -1  -5  -2    1.13    0.39
  -1  -5  -3   13.75    0.91
  -1  -5  -3   13.11    0.55
  -1  -5  -3   11.85    0.65
  -1  -5  -4   38.44    1.36
  -1  -5  -4   37.91    1.01
  -1  -5  -4   37.96    1.32
  -1  -5  -5    1.27    0.68
  -1  -5  -5    1.52    0.45
  -1  -5  -6    9.17    0.99
  -1  -5  -6    8.61    0.71
  -1  -5  -7    1.01    0.53
  -1  -5  -7    0.98    0.46
  -1  -5  -8    0.44    0.68
  -1  -5  -8    0.01    0.45
  -1  -5  -9    3.10    0.60
  -1  -5  -9    3.08    0.74
  -1  -5 -10    1.42    0.77
  -1  -5 -10    1.66    0.68
   1   6 -13    1.49    0.52
   1   6 -12    0.42    0.59
   1   6 -11    0.23    0.43
  -1  -6  11    0.21    0.24
   1   6 -10    0.20    0.43
  -1  -6  10    0.22    0.24
   1   6  -9    0.08    0.44
  -1  -6   9   -0.04    0.37
   1   6  -8   22.45    1.08
  -1  -6   8   21.83    0.98
  -1  -6   7   48.37    1.12
  -1  -6   6    1.26    0.51
  -1  -6   6    0.83    0.36
   1   6  -6    0.70    0.27
  -1  -6   5   34.43    0.94
   1   6  -5   32.71    0.90
  -1  -6   4    3.75    0.54
  -1  -6   4    4.34    0.35
   1   6  -4    3.89    0.39
  -1  -6   3    0.14    0.35
  -1  -6   3   -0.03    0.15
   1   6  -3    0.17    0.24
  -1  -6   2   17.64    0.93
  -1  -6   2   18.64    0.50
   1   6  -2   17.47    0.46
  -1  -6   1    1.98    0.54
  -1  -6   1    1.91    0.25
   1   6  -1    1.78    0.24
  -1  -6   0    2.64    0.66
  -1  -6   0    2.52    0.31
  -1  -6  -1    0.90    0.71
  -1  -6  -1    0.61    0.29
  -1  -6  -2    2.22    0.60
  -1  -6  -2    2.01    0.69
  -1  -6  -2    2.42    0.39
  -1  -6  -3   15.55    0.95
  -1  -6  -3   16.30    0.52
  -1  -6  -3   14.64    0.63
  -1  -6  -4    0.33    0.48
  -1  -6  -4    0.69    0.27
  -1  -6  -4    0.76    0.40
  -1  -6  -5   42.85    1.53
  -1  -6  -5   41.71    1.30
  -1  -6  -6    9.76    0.98
  -1  -6  -6   10.42    0.85
  -1  -6  -7   -0.12    0.47
  -1  -6  -7    0.11    0.40
  -1  -6  -8    0.61    0.65
  -1  -6  -8    0.32    0.43
  -1  -6  -9    3.35    0.88
  -1  -6  -9    3.28    0.57
   1   7 -12    2.48    0.76
   1   7 -11    0.35    0.40
  -1  -7  11    0.19    0.28
   1   7 -10    2.92    0.71
  -1  -7  10    2.32    1.00
   1   7  -9    1.96    0.61
  -1  -7   9    2.32    0.97
   1   7  -8    0.09    0.42
  -1  -7   8    0.20    0.26
  -1  -7   7    0.89    0.33
  -1  -7   7    1.26    0.53
   1   7  -7    0.60    0.15
  -1  -7   6    0.30    0.25
  -1  -7   6    0.58    0.30
   1   7  -6    0.23    0.16
  -1  -7   5   10.04    0.68
   1   7  -5    9.09    0.51
  -1  -7   4   38.39    1.39
  -1  -7   4   39.82    1.00
   1   7  -4   36.46    0.95
  -1  -7   3    2.88    0.56
  -1  -7   3    2.77    0.25
   1   7  -3    2.74    0.28
  -1  -7   1  118.92    2.85
  -1  -7   0   91.07    1.89
  -1  -7   0   88.39    1.36
  -1  -7  -1    2.44    0.56
  -1  -7  -1    2.15    0.55
  -1  -7  -1    2.02    0.29
  -1  -7  -2    1.73    0.50
  -1  -7  -2    1.78    0.59
  -1  -7  -2    2.41    0.33
  -1  -7  -3    3.64    0.65
  -1  -7  -3    2.16    0.80
  -1  -7  -3    3.25    0.46
  -1  -7  -4    0.61    0.75
  -1  -7  -4    0.85    0.37
  -1  -7  -5    1.89    0.71
  -1  -7  -5    0.98    0.42
  -1  -7  -6    0.63    0.49
  -1  -7  -6    0.10    0.41
  -1  -7  -7    0.27    0.49
  -1  -7  -7    0.15    0.47
   1   8 -11    0.35    0.39
   1   8 -10    0.31    0.43
  -1  -8  10    0.36    0.28
   1   8  -9    0.03    0.42
  -1  -8   9    0.24    0.19
  -1  -8   8    1.34    0.51
  -1  -8   8    1.70    0.57
  -1  -8   7    1.19    0.62
  -1  -8   7    1.46    0.53
  -1  -8   6    4.94    1.33
  -1  -8   6    4.82    0.80
   1   8  -6    4.04    0.34
  -1  -8   5    1.44    0.44
  -1  -8   5    1.41    0.46
   1   8  -5    0.93    0.21
  -1  -8   4    0.46    0.14
   1   8  -4    0.18    0.12
  -1  -8   3    5.36    0.76
   1   8  -3    5.21    0.23
  -1  -8   2    3.64    0.61
  -1  -8   2    3.70    0.16
  -1  -8   1   23.50    1.08
  -1  -8   1   22.82    0.37
  -1  -8   1   23.44    0.40
  -1  -8   0   16.55    0.92
  -1  -8   0   16.21    0.41
  -1  -8   0   16.42    0.44
  -1  -8  -1   18.33    1.16
  -1  -8  -1   17.02    0.49
  -1  -8  -2    0.74    0.74
  -1  -8  -2    0.24    0.21
  -1  -8  -3    2.29    0.63
  -1  -8  -3    1.63    0.32
  -1  -8  -4   11.08    1.09
  -1  -8  -4    9.85    0.60
  -1  -8  -5    4.41    0.73
  -1  -8  -5    3.35    0.47
  -1  -8  -6    2.52    0.75
  -1  -8  -6    3.07    0.43
   1   9 -10    1.43    0.57
   1   9  -9    1.59    0.49
  -1  -9   8    6.55    2.29
  -1  -9   8    7.42    0.45
  -1  -9   7    1.31    0.50
  -1  -9   7    1.07    0.54
  -1  -9   6   17.70    0.94
  -1  -9   6   17.90    0.71
  -1  -9   5    0.26    0.39
  -1  -9   5   -0.08    0.09
  -1  -9   4    3.65    0.68
  -1  -9   3    0.37    0.51
  -1  -9   2    5.26    0.66
  -1  -9   1    3.36    0.60
  -1  -9   0    1.54    0.51
  -1  -9  -1    0.06    0.46
  -1  -9  -2    0.34    0.49
  -1  -9  -3    1.74    0.55
  -1  -9  -4    0.81    0.53
  -1 -10   8    1.24    0.52
  -1 -10   7    1.48    0.89
  -1 -10   6    0.80    0.47
  -1 -10   5   -0.01    0.37
  -1 -10   4    0.35    0.49
  -1 -10   3    3.56    0.57
  -1 -10   2    0.00    0.35
  -1 -10   1    1.16    0.54
  -1 -10   0    0.11    0.37
  -1 -10  -1    0.22    0.46
  -1 -10  -2    0.57    0.49
  -1 -11   6    1.41    0.77
  -1 -11   5    0.36    0.35
  -1 -11   4    6.70    0.73
  -1 -11   3    8.25    0.95
  -1 -11   2    0.70    0.46
   2 -11   0    2.41    0.68
   2 -11   1    2.10    0.54
   2 -11   2    4.98    0.74
   2 -11   3    2.45    0.50
   2 -11   4    1.13    0.37
   2 -11   5    0.68    0.37
   2 -11   6    0.34    0.28
   2 -10  -3    0.57    0.51
   2 -10  -2    1.73    0.49
   2 -10  -1    2.07    0.52
   2 -10   0    0.96    0.57
   2 -10   1   17.35    1.02
   2 -10   2    4.98    0.73
   2 -10   3    0.21    0.30
   2 -10   4    0.30    0.31
   2 -10   5    0.46    0.49
   2 -10   6    0.72    0.33
   2 -10   7    7.31    0.54
   2  -9  -5    1.39    0.46
   2  -9  -4    0.26    0.44
   2  -9  -2    0.18    0.39
   2  -9  -1    2.00    0.55
   2  -9   0    6.06    0.65
   2  -9   1    0.44    0.44
   2  -9   2    0.12    0.31
   2  -9   3    2.77    0.47
   2  -9   5    0.44    0.47
   2  -9   6    0.39    0.26
   2  -9   7    5.93    1.38
  -2   9  -7    5.94    0.39
  -2   9  -8    2.07    0.35
  -2   9  -8    1.75    0.33
  -2   9  -9    5.11    0.50
  -2   9  -9    5.47    0.48
  -2   9 -10   10.73    0.77
   2  -8  -7    0.51    0.76
   2  -8  -6    3.73    0.89
   2  -8  -5    0.42    0.45
   2  -8  -4    6.87    0.92
   2  -8  -3    2.04    0.52
   2  -8  -1    7.46    0.77
   2  -8   0    0.05    0.31
   2  -8   1    0.74    0.26
   2  -8   2    0.94    0.41
   2  -8   3    8.63    0.53
   2  -8   4   29.11    0.88
   2  -8   5    0.42    0.31
  -2   8  -5    0.46    0.11
  -2   8  -5    0.26    0.15
   2  -8   6    0.09    0.22
  -2   8  -6    0.16    0.26
   2  -8   7    0.07    0.18
  -2   8  -8    2.49    0.40
  -2   8  -9    3.22    0.43
  -2   8  -9    3.69    0.47
  -2   8 -10   15.60    0.78
  -2   8 -11    0.89    0.40
   2  -7  -8    3.75    0.73
   2  -7  -8    3.50    0.56
   2  -7  -7    1.67    0.50
   2  -7  -7    2.15    0.39
   2  -7  -6    0.55    0.56
   2  -7  -6    0.42    0.32
   2  -7  -5    8.40    1.14
   2  -7  -5    7.48    0.44
   2  -7  -4    0.88    0.37
   2  -7  -4    0.75    0.16
   2  -7  -4    0.75    0.23
   2  -7  -3   32.24    1.36
   2  -7  -3   30.96    0.60
   2  -7  -1   27.78    1.03
   2  -7   0    6.02    0.81
   2  -7   1    3.86    0.53
   2  -7   2    0.35    0.30
   2  -7   3    0.30    0.30
  -2   7  -3    0.27    0.18
   2  -7   4   10.85    0.64
  -2   7  -4   10.62    0.52
  -2   7  -4   11.50    0.38
  -2   7  -4   10.85    0.42
   2  -7   5   11.20    0.59
  -2   7  -5   10.36    0.49
  -2   7  -5   10.73    0.37
  -2   7  -5   10.97    0.51
   2  -7   6    1.44    0.46
  -2   7  -6    1.35    0.27
  -2   7  -6    1.33    0.19
  -2   7  -6    1.47    0.39
  -2   7  -7    6.55    0.39
  -2   7  -7    7.35    0.46
  -2   7  -7    5.88    0.35
  -2   7  -7    7.59    0.53
  -2   7  -8    4.49    0.44
  -2   7  -8    3.96    0.51
  -2   7  -9    7.54    0.52
  -2   7  -9    7.76    0.71
  -2   7 -10   13.15    0.58
  -2   7 -10   13.50    0.81
  -2   7 -11    0.37    0.39
  -2   7 -12    2.18    0.52
   2  -6  -9    2.69    0.77
   2  -6  -9    2.06    0.44
   2  -6  -8    1.48    0.87
   2  -6  -7    4.78    0.85
   2  -6  -6    1.54    0.60
   2  -6  -5    0.22    0.52
   2  -6  -5    0.08    0.18
   2  -6  -4    4.27    0.61
   2  -6  -4    4.78    0.33
   2  -6  -3    3.43    0.85
   2  -6  -3    3.50    0.31
   2  -6  -2   28.34    1.22
   2  -6  -2   30.12    0.70
   2  -6   0    0.30    0.75
   2  -6   1    3.79    0.43
  -2   6  -1    3.09    0.37
   2  -6   2   81.42    1.27
  -2   6  -2   79.67    1.25
   2  -6   3   29.71    0.94
  -2   6  -3   30.57    0.85
  -2   6  -3   31.13    0.66
  -2   6  -3   30.49    0.71
   2  -6   4    3.33    0.43
  -2   6  -4    3.15    0.38
  -2   6  -4    3.18    0.24
  -2   6  -4    3.19    0.32
   2  -6   5    1.37    0.52
  -2   6  -5    1.36    0.30
  -2   6  -5    1.23    0.22
  -2   6  -5    1.23    0.33
  -2   6  -6   71.63    1.56
  -2   6  -6   71.30    1.62
  -2   6  -6   77.92    1.90
  -2   6  -7    1.43    0.21
  -2   6  -7    1.21    0.23
  -2   6  -7    1.17    0.34
  -2   6  -8   23.65    0.64
  -2   6  -8   24.34    0.79
  -2   6  -8   26.41    1.06
  -2   6  -9    0.17    0.28
  -2   6  -9    0.13    0.56
  -2   6 -10    1.39    0.32
  -2   6 -10    1.59    0.61
  -2   6 -11    0.65    0.28
  -2   6 -11    1.31    0.59
  -2   6 -12    0.24    0.44
   2  -5 -10    0.97    0.65
   2  -5  -9    0.42    0.74
   2  -5  -8   21.96    1.21
   2  -5  -7    1.58    0.52
   2  -5  -6    3.96    0.67
   2  -5  -5    7.29    0.79
   2  -5  -5    6.90    0.44
   2  -5  -4    3.00    0.68
  -2   5   4    3.65    0.94
   2  -5  -4    3.14    0.31
   2  -5  -3   37.54    1.32
  -2   5   3   36.37    0.88
   2  -5  -3   38.51    0.91
   2  -5  -2    0.18    0.42
  -2   5   2    0.24    0.12
   2  -5  -2    0.39    0.30
   2  -5  -1   22.88    0.98
  -2   5   1   21.56    0.72
  -2   5   1   21.48    0.35
   2  -5  -1   22.11    0.40
  -2   5   0    9.46    0.54
  -2   5   0    8.82    0.17
   2  -5   0    9.06    0.19
   2  -5   1    5.46    0.50
  -2   5  -1    5.38    0.41
  -2   5  -1    5.40    0.18
   2  -5   2   45.38    0.82
  -2   5  -2   45.12    0.82
  -2   5  -2   46.99    0.60
  -2   5  -2   44.35    0.62
   2  -5   3   53.59    0.91
  -2   5  -3   52.77    0.86
  -2   5  -3   55.08    0.75
  -2   5  -3   52.48    0.85
   2  -5   4   18.08    0.55
  -2   5  -4   17.23    0.51
  -2   5  -4   17.52    0.63
  -2   5  -4   16.93    0.63
   2  -5   5    2.14    0.63
  -2   5  -5    2.13    0.30
  -2   5  -5    1.75    0.56
  -2   5  -5    2.29    0.44
  -2   5  -6   17.95    0.54
  -2   5  -6   18.61    0.67
  -2   5  -6   17.39    0.64
  -2   5  -6   18.46    0.80
  -2   5  -7  203.22    1.46
  -2   5  -7  208.45    2.20
  -2   5  -8   64.29    1.04
  -2   5  -8   70.36    1.24
  -2   5  -8   69.50    1.58
  -2   5  -9    1.44    0.20
  -2   5  -9    1.36    0.30
  -2   5  -9    1.87    0.58
  -2   5 -10    2.87    0.44
  -2   5 -10    3.09    0.52
  -2   5 -11    1.25    0.35
  -2   5 -11    0.71    0.47
  -2   5 -12    4.14    0.87
   2  -4 -11   13.29    1.39
   2  -4 -10    0.13    0.53
   2  -4  -9    1.08    0.87
   2  -4  -8    0.24    0.96
   2  -4  -7    0.11    0.62
  -2   4   7    0.12    0.24
   2  -4  -6    0.71    0.85
  -2   4   6    0.39    0.35
   2  -4  -5    1.74    0.67
  -2   4   5    2.89    0.58
   2  -4  -5    2.49    0.32
   2  -4  -4    0.89    0.55
  -2   4   4    0.34    0.29
   2  -4  -4    0.35    0.28
   2  -4  -3    0.12    0.49
  -2   4   3    0.19    0.30
  -2   4   3    0.15    0.18
   2  -4  -3    0.11    0.24
   2  -4  -2   38.11    1.12
  -2   4   2   38.14    0.84
  -2   4   2   37.63    0.58
   2  -4  -2   37.38    0.59
   2  -4  -1   21.35    0.78
  -2   4   1   21.48    0.61
  -2   4   1   21.33    0.39
   2  -4  -1   20.89    0.41
   2  -4   0   26.27    0.69
  -2   4   0   27.63    0.67
  -2   4   0   26.59    0.40
   2  -4   0   26.54    0.40
   2  -4   1  311.37    2.32
  -2   4  -1  307.56    2.30
  -2   4  -1  305.59    2.08
   2  -4   1  308.83    2.05
   2  -4   2  171.81    1.46
  -2   4  -2  169.53    1.43
  -2   4  -2  171.28    1.42
   2  -4   3   21.74    0.42
  -2   4  -3   21.41    0.42
  -2   4  -3   21.95    0.55
   2  -4   4   87.95    1.07
  -2   4  -4   87.01    0.90
  -2   4  -4   87.80    1.25
  -2   4  -4   89.59    1.21
  -2   4  -5   14.11    0.36
  -2   4  -5   15.49    0.44
  -2   4  -5   14.45    0.69
  -2   4  -5   15.11    0.74
  -2   4  -6    0.16    0.13
  -2   4  -6    0.35    0.26
  -2   4  -6    0.23    0.35
  -2   4  -6    0.47    0.44
  -2   4  -7   16.63    0.49
  -2   4  -7   17.16    0.64
  -2   4  -7   17.02    0.88
  -2   4  -8    9.70    0.36
  -2   4  -8   10.89    0.58
  -2   4  -8   10.62    0.84
  -2   4  -9    2.52    0.22
  -2   4  -9    2.46    0.32
  -2   4  -9    3.08    0.55
  -2   4 -10    0.28    0.42
  -2   4 -10    0.30    0.50
  -2   4 -11    0.19    0.25
  -2   4 -11   -0.06    0.49
  -2   4 -12    5.91    0.51
  -2   4 -12    6.99    0.80
  -2   4 -13   11.19    1.18
   2  -3 -12    0.62    0.85
   2  -3 -11    0.81    0.76
   2  -3 -10    7.16    0.88
   2  -3  -9    4.68    0.81
  -2   3   9    4.94    0.56
   2  -3  -8    1.76    0.66
  -2   3   8    1.40    0.61
   2  -3  -7    8.62    0.98
  -2   3   7    8.57    1.84
   2  -3  -6   16.71    1.20
  -2   3   6   17.90    1.14
   2  -3  -5   12.83    0.86
  -2   3   5   12.93    1.10
   2  -3  -5   12.83    0.49
   2  -3  -4  100.71    1.63
  -2   3   4  100.73    1.32
   2  -3  -4   99.80    1.28
   2  -3  -3   -0.09    0.47
  -2   3   3    0.46    0.29
  -2   3   3    0.32    0.35
   2  -3  -3    0.32    0.27
   2  -3  -2  111.17    1.41
  -2   3   2  112.91    1.30
  -2   3   2  111.41    1.06
   2  -3  -2  111.71    1.06
   2  -3  -1   59.84    0.91
  -2   3   1   59.68    0.84
  -2   3   1   58.76    0.66
   2  -3  -1   58.76    0.69
   2  -3   0   43.38    0.66
  -2   3   0   45.34    0.66
  -2   3   0   44.35    0.55
   2  -3   0   44.78    0.56
   2  -3   1  331.24    2.22
   2  -3   1  332.28    2.10
   2  -3   2   33.65    0.47
  -2   3  -2   32.51    0.45
  -2   3  -2   31.77    0.63
   2  -3   2   33.17    0.56
  -2   3  -3   53.03    0.52
  -2   3  -3   53.75    0.87
  -2   3  -4    8.07    0.21
  -2   3  -4    8.00    0.25
  -2   3  -4    7.85    0.56
  -2   3  -5    6.66    0.23
  -2   3  -5    7.20    0.29
  -2   3  -5    7.07    0.40
  -2   3  -5    6.52    0.50
  -2   3  -6   25.15    0.48
  -2   3  -6   24.92    0.60
  -2   3  -6   23.79    0.73
  -2   3  -6   25.76    0.91
  -2   3  -7    0.08    0.14
  -2   3  -7    0.07    0.24
  -2   3  -7    0.04    0.56
  -2   3  -8    0.11    0.14
  -2   3  -8    0.56    0.49
  -2   3  -8    0.22    0.58
  -2   3  -9    8.91    0.54
  -2   3  -9   11.30    0.57
  -2   3  -9   11.12    0.86
  -2   3 -10    1.48    0.35
  -2   3 -10    1.59    0.60
  -2   3 -11    1.12    0.73
  -2   3 -12    3.60    0.45
  -2   3 -12    3.65    0.79
  -2   3 -13    9.88    1.10
   2  -2 -12    0.49    0.53
   2  -2 -11    1.52    0.59
   2  -2 -10    3.58    0.89
  -2   2  10    4.16    1.65
   2  -2  -9    2.23    0.81
  -2   2   9    2.37    0.73
   2  -2  -8   24.39    1.23
  -2   2   8   23.52    0.93
   2  -2  -7    0.87    0.47
  -2   2   7    1.58    0.68
   2  -2  -6    4.50    0.85
  -2   2   6    3.71    0.71
   2  -2  -6    3.99    0.40
   2  -2  -5   50.75    1.18
  -2   2   5   50.24    0.98
  -2   2   5   50.93    1.00
   2  -2  -5   52.55    0.92
   2  -2  -4    0.32    0.46
  -2   2   4    0.49    0.42
  -2   2   4    0.38    0.38
   2  -2  -4    0.06    0.21
   2  -2  -3   56.32    1.04
  -2   2   3   56.90    0.91
  -2   2   3   54.41    0.75
   2  -2  -3   55.93    0.79
   2  -2  -2  127.44    1.31
  -2   2   2  124.99    1.21
  -2   2   2  127.01    1.13
   2  -2  -2  125.51    1.12
   2  -2  -1    5.70    0.37
  -2   2   1    5.71    0.32
  -2   2   1    5.92    0.37
   2  -2  -1    6.01    0.35
   2  -2   0  121.44    1.00
  -2   2   0  123.38    1.00
  -2   2   0  121.47    1.10
   2  -2   0  123.03    1.07
   2  -2   1   18.88    0.32
  -2   2  -1   18.87    0.30
  -2   2  -1   19.12    0.58
   2  -2   1   19.73    0.47
  -2   2  -2  175.82    1.48
   2  -2   2  177.18    1.41
  -2   2  -3   24.66    0.63
  -2   2  -4    4.86    0.16
  -2   2  -4    5.02    0.22
  -2   2  -4    5.16    0.63
  -2   2  -5   59.24    0.74
   2  -2   5   60.17    0.70
  -2   2  -5   56.70    0.97
  -2   2  -5   58.91    1.14
  -2   2  -6    1.75    0.28
   2  -2   6    2.42    0.22
  -2   2  -6    3.08    0.57
  -2   2  -7    1.15    0.24
   2  -2   7    1.16    0.23
  -2   2  -7    1.19    0.57
  -2   2  -8    0.97    0.35
   2  -2   8    0.77    0.17
  -2   2  -8    1.20    0.51
  -2   2  -9   13.88    0.68
   2  -2   9   14.02    0.54
  -2   2  -9   14.69    0.91
  -2   2 -10   19.22    0.82
  -2   2 -10   18.56    1.06
  -2   2 -11    0.35    0.29
  -2   2 -11    0.64    0.57
  -2   2 -12    0.55    0.43
  -2   2 -12    0.64    0.57
  -2   2 -13    0.64    0.41
  -2   2 -13    0.08    0.58
   2  -1 -13    3.06    0.86
   2  -1 -12    1.21    0.79
   2  -1 -11    1.22    0.65
  -2   1  11    1.11    0.53
   2  -1 -10   43.05    1.63
  -2   1  10   43.36    1.43
   2  -1  -9    0.46    0.69
  -2   1   9    0.08    0.31
   2  -1  -8    4.60    0.85
  -2   1   8    4.50    1.54
   2  -1  -7   19.97    1.11
  -2   1   7   20.81    0.85
   2  -1  -6    8.61    0.73
  -2   1   6    9.47    0.62
   2  -1  -6    8.25    0.43
   2  -1  -5  117.69    1.65
  -2   1   5  117.53    1.49
  -2   1   5  121.01    1.50
   2  -1  -5  116.32    1.37
   2  -1  -4   32.60    0.90
  -2   1   4   34.18    0.73
  -2   1   4   33.27    0.72
   2  -1  -4   33.94    0.68
   2  -1  -3   20.88    0.80
  -2   1   3   20.44    0.51
  -2   1   3   20.29    0.52
   2  -1  -3   21.50    0.53
   2  -1  -2   54.22    0.81
  -2   1   2   53.81    0.73
  -2   1   2   53.74    0.73
   2  -1  -2   55.68    0.74
   2  -1  -1   65.47    0.77
  -2   1   1   66.14    0.77
  -2   1   1   67.00    0.83
   2  -1  -1   66.09    0.85
   2  -1   0  165.35    1.15
  -2   1   0  168.18    1.16
  -2   1   0  165.39    1.48
   2  -1   0  166.37    1.38
   2  -1   1    9.11    0.18
  -2   1  -1    8.53    0.46
   2  -1   1    8.80    0.46
  -2   1  -2   42.84    0.30
   2  -1   2   41.55    0.31
  -2   1  -2   41.80    0.75
   2  -1   2   41.81    0.70
  -2   1  -3  132.91    0.89
   2  -1   3  133.26    0.88
  -2   1  -3  132.26    1.40
   2  -1   3  133.93    1.32
  -2   1  -4   62.39    0.71
   2  -1   4   62.97    0.68
  -2   1  -4   61.24    1.10
  -2   1  -5  105.87    1.16
   2  -1   5  107.24    1.13
  -2   1  -5  107.41    1.58
  -2   1  -6  102.26    1.34
   2  -1   6  102.59    1.25
  -2   1  -6  100.81    1.69
  -2   1  -7   17.29    0.78
   2  -1   7   16.94    0.61
  -2   1  -7   17.93    1.01
  -2   1  -8    3.50    0.52
   2  -1   8    3.37    0.36
  -2   1  -8    4.32    0.85
  -2   1  -9    0.70    0.58
   2  -1   9    0.11    0.17
  -2   1  -9   -0.13    0.59
  -2   1 -10    5.68    0.58
  -2   1 -10    6.11    0.80
  -2   1 -11    4.15    0.54
  -2   1 -11    3.97    0.68
  -2   1 -12   16.24    0.87
  -2   1 -12   16.41    1.11
   2   0 -13    3.91    0.83
   2   0 -12    6.36    1.17
  -2   0  12    5.53    1.99
   2   0 -11    5.63    0.84
  -2   0  11    5.35    1.17
   2   0 -10   10.58    0.96
  -2   0  10   11.16    1.61
   2   0  -9   16.77    1.32
  -2   0   9   17.32    1.33
   2   0  -8    4.20    0.80
  -2   0   8    4.92    1.33
   2   0  -7   27.96    1.16
  -2   0   7   27.02    0.94
   2   0  -6    0.22    0.51
  -2   0   6    0.17    0.29
  -2   0   6    0.43    0.52
   2   0  -6    0.21    0.30
   2   0  -5    1.15    0.42
  -2   0   5    1.14    0.31
  -2   0   5    1.11    0.27
   2   0  -5    1.00    0.28
   2   0  -4   79.10    1.13
  -2   0   4   77.60    1.03
   2   0  -4   81.45    0.98
   2   0  -3    3.45    0.37
  -2   0   3    3.61    0.35
  -2   0   3    3.56    0.35
   2   0  -3    3.56    0.40
   2   0  -2  989.36    6.18
  -2   0   2 1004.48   96.20
  -2   0   0  233.85    1.91
   2   0   0  232.31    1.75
  -2   0  -1   79.42    0.66
   2   0   1   80.31    0.67
  -2   0  -1   80.12    1.01
   2   0   1   80.67    0.97
  -2   0  -2   96.85    0.79
   2   0   2   99.50    0.81
   2   0   2   99.53    1.06
  -2   0  -3    1.27    0.18
   2   0   3    1.18    0.22
  -2   0  -3    0.72    0.34
   2   0   3    0.85    0.26
  -2   0  -4    9.39    0.44
   2   0   4    9.02    0.36
  -2   0  -4    9.33    0.67
  -2   0  -5   50.65    0.87
   2   0   5   51.22    0.82
  -2   0  -5   50.69    1.08
  -2   0  -6   11.20    0.56
   2   0   6   11.09    0.56
  -2   0  -6   10.92    0.94
  -2   0  -7   21.93    0.81
   2   0   7   20.77    0.72
  -2   0  -7   21.51    1.11
  -2   0  -8    1.69    0.49
   2   0   8    0.87    0.26
  -2   0  -8    1.09    0.85
  -2   0  -9   16.99    0.82
  -2   0  -9   17.20    1.11
  -2   0 -10    1.07    0.38
  -2   0 -10    1.32    0.76
  -2   0 -11    1.66    0.45
  -2   0 -11    2.33    0.64
  -2   0 -12    1.07    0.45
  -2   0 -12    1.06    0.65
   2   1 -13   10.89    1.00
  -2  -1  13   11.97    0.95
   2   1 -12    4.82    1.06
  -2  -1  12    4.38    1.78
   2   1 -11    0.33    0.56
  -2  -1  11    0.16    0.18
   2   1 -10    0.05    0.60
  -2  -1  10    0.35    0.44
   2   1  -9    0.36    0.62
  -2  -1   9    0.41    0.34
   2   1  -8    5.13    0.85
  -2  -1   8    5.17    0.63
   2   1  -6    3.88    0.56
  -2  -1   6    3.63    0.37
  -2  -1   6    3.26    0.42
   2   1  -6    3.76    0.36
   2   1  -5   10.44    0.64
  -2  -1   5    9.67    0.47
  -2  -1   5   10.32    0.53
   2   1  -5   10.07    0.54
   2   1  -4   62.48    1.00
  -2  -1   4   61.56    0.92
  -2  -1   4   62.11    0.95
   2   1  -4   63.02    0.87
   2   1  -3   -0.03    0.18
   2   1  -3    0.00    0.36
  -2  -1   3   -0.04    0.32
   2   1  -3    0.07    0.25
   2   1  -2  265.47    2.13
  -2  -1   2  265.21    1.92
   2   1  -2  265.57    1.94
   2   1   0  353.24    2.25
  -2  -1   0  343.56    2.35
   2   1   0  354.81    2.59
  -2  -1  -1  211.97    1.52
   2   1   1  212.56    1.55
  -2  -1  -1  209.67    1.73
   2   1   1  213.41    1.71
  -2  -1  -2   17.99    0.50
   2   1   2   17.33    0.44
  -2  -1  -2   17.54    0.69
   2   1   2   18.53    0.54
  -2  -1  -3    0.14    0.20
   2   1   3    0.22    0.24
  -2  -1  -3   -0.09    0.43
   2   1   3    0.32    0.37
  -2  -1  -4  158.58    1.65
   2   1   4  158.90    1.65
  -2  -1  -4  160.14    1.99
  -2  -1  -5   25.54    0.79
   2   1   5   25.88    0.70
  -2  -1  -5   25.42    0.91
  -2  -1  -6    9.07    0.63
   2   1   6    8.75    0.55
  -2  -1  -6    8.61    0.71
  -2  -1  -7    4.01    0.55
   2   1   7    3.28    0.43
  -2  -1  -7    4.14    0.82
  -2  -1  -8   26.24    0.94
  -2  -1  -8   26.23    1.13
  -2  -1  -9    3.87    0.59
  -2  -1  -9    4.77    0.68
  -2  -1 -10   11.72    0.80
  -2  -1 -10   11.15    0.97
  -2  -1 -11    2.08    0.44
  -2  -1 -11    2.32    0.87
  -2  -1 -12    0.99    0.58
  -2  -1 -12    0.57    0.54
   2   2 -13    0.34    0.58
  -2  -2  13    0.37    0.52
   2   2 -12    1.16    0.65
  -2  -2  12    1.62    0.55
   2   2 -11    0.68    0.78
  -2  -2  11    0.33    0.50
   2   2 -10   10.21    0.88
  -2  -2  10    9.58    1.68
   2   2  -9    9.13    0.92
  -2  -2   9    8.76    2.31
   2   2  -8   11.15    1.00
  -2  -2   8   10.94    0.78
   2   2  -7   25.22    1.04
  -2  -2   7   23.63    0.88
   2   2  -6  187.18    2.26
   2   2  -6  203.64    2.48
  -2  -2   6  195.38    2.31
   2   2  -6  190.80    2.14
   2   2  -5   29.35    0.73
   2   2  -5   30.55    0.84
  -2  -2   5   31.19    0.79
   2   2  -5   30.46    0.69
   2   2  -4   31.71    0.82
   2   2  -4   30.22    0.75
  -2  -2   4   29.84    0.73
   2   2  -4   29.80    0.67
  -2  -2   3   28.92    0.93
   2   2  -3   30.04    0.61
  -2  -2   3   34.19    0.68
   2   2  -3   34.37    0.66
  -2  -2   2    6.75    0.39
   2   2  -2    6.22    0.41
  -2  -2   2    6.47    0.39
   2   2  -2    6.49    0.39
  -2  -2   1  229.74    1.82
   2   2  -1  232.92    1.74
  -2  -2   1  228.49    1.80
   2   2  -1  232.94    1.80
  -2  -2   0   22.73    0.55
   2   2   0   23.04    0.52
  -2  -2   0   22.56    0.59
   2   2   0   22.80    0.56
  -2  -2  -1    2.24    0.39
   2   2   1    1.95    0.26
  -2  -2  -1    2.21    0.40
   2   2   1    2.11    0.30
  -2  -2  -2   10.13    0.48
   2   2   2    9.92    0.45
  -2  -2  -2   10.53    0.61
   2   2   2   10.47    0.46
  -2  -2  -3  167.57    1.80
   2   2   3  167.21    1.76
  -2  -2  -3  168.42    1.98
   2   2   3  164.89    1.80
  -2  -2  -4    6.28    0.61
   2   2   4    6.33    0.45
  -2  -2  -4    5.75    0.53
  -2  -2  -5    0.29    0.36
   2   2   5    0.32    0.31
  -2  -2  -5    0.68    0.62
  -2  -2  -6   55.66    1.56
  -2  -2  -6   55.21    1.63
  -2  -2  -7    5.62    0.57
  -2  -2  -7    6.13    0.71
  -2  -2  -8   10.84    0.81
  -2  -2  -8   10.21    0.80
  -2  -2  -9   10.81    0.85
  -2  -2  -9   10.14    1.02
  -2  -2 -10    2.77    0.64
  -2  -2 -10    2.86    0.66
  -2  -2 -11    9.93    0.80
   2   3 -13    0.79    0.53
  -2  -3  13    0.98    0.46
   2   3 -12    9.98    0.93
  -2  -3  12   11.23    2.20
   2   3 -11    3.01    0.74
  -2  -3  11    2.87    0.95
   2   3 -10    6.32    0.75
  -2  -3  10    6.19    1.55
   2   3  -9    0.25    0.80
  -2  -3   9    0.21    0.46
   2   3  -8    2.50    0.68
  -2  -3   8    2.70    0.52
   2   3  -7    0.12    0.51
  -2  -3   7    0.34    0.41
   2   3  -6    0.43    0.30
   2   3  -6    0.33    0.45
  -2  -3   6    0.59    0.31
   2   3  -6    0.46    0.19
   2   3  -5    0.20    0.21
   2   3  -5   -0.07    0.40
  -2  -3   5    0.61    0.36
   2   3  -5    0.13    0.37
  -2  -3   4    0.94    0.30
   2   3  -4    0.89    0.23
  -2  -3   4    1.28    0.45
   2   3  -4    1.16    0.24
  -2  -3   3   39.99    0.99
   2   3  -3   44.35    0.79
  -2  -3   3   44.03    0.81
   2   3  -3   43.86    0.78
  -2  -3   2    0.15    0.29
   2   3  -2    0.23    0.24
  -2  -3   2    0.25    0.28
   2   3  -2    0.09    0.29
  -2  -3   1   13.37    0.64
   2   3  -1   13.83    0.56
  -2  -3   1   13.37    0.56
   2   3  -1   14.16    0.50
  -2  -3   0   14.83    0.54
   2   3   0   15.61    0.55
  -2  -3   0   15.14    0.56
   2   3   0   15.65    0.55
  -2  -3  -1   60.94    1.02
   2   3   1   62.69    0.96
  -2  -3  -1   61.70    1.02
   2   3   1   62.09    0.91
  -2  -3  -2  132.03    1.62
   2   3   2  133.35    1.56
   2   3   2  131.93    1.51
  -2  -3  -3   32.00    0.84
   2   3   3   31.69    0.83
  -2  -3  -4    2.63    0.44
   2   3   4    2.17    0.39
  -2  -3  -5    0.11    0.43
  -2  -3  -6    1.96    0.72
  -2  -3  -6    1.45    0.51
  -2  -3  -7   12.05    0.95
  -2  -3  -7   11.03    0.91
  -2  -3  -8    0.36    0.53
  -2  -3  -8    0.12    0.60
  -2  -3  -9    3.82    0.76
  -2  -3  -9    2.94    0.61
  -2  -3 -10    3.28    0.56
  -2  -3 -10    3.03    0.71
  -2  -3 -11    7.90    0.85
  -2  -3 -11    7.94    0.91
   2   4 -13    0.19    0.49
  -2  -4  13    0.58    0.36
   2   4 -12    8.02    1.05
  -2  -4  12    7.79    1.74
   2   4 -11    1.41    0.55
  -2  -4  11    0.71    0.55
   2   4 -10    0.32    0.46
  -2  -4  10    0.67    0.39
   2   4  -9   11.39    0.81
  -2  -4   9   11.81    0.78
   2   4  -8   10.88    0.99
  -2  -4   8   11.12    0.76
   2   4  -7    4.96    0.70
   2   4  -6    4.28    0.84
   2   4  -6    4.37    0.41
  -2  -4   5    4.53    1.13
   2   4  -5    3.54    0.33
   2   4  -5    3.94    0.45
  -2  -4   4  288.30    3.28
   2   4  -4  281.28    3.31
   2   4  -4  293.38    2.68
  -2  -4   3   24.16    0.74
   2   4  -3   23.53    0.64
  -2  -4   3   22.71    0.64
   2   4  -3   23.91    0.63
  -2  -4   2    1.28    0.37
   2   4  -2    1.30    0.27
  -2  -4   2    1.40    0.25
   2   4  -2    1.43    0.26
  -2  -4   1    3.26    0.49
   2   4  -1    3.02    0.31
  -2  -4   1    2.89    0.41
   2   4  -1    3.14    0.37
  -2  -4   0  102.09    1.40
   2   4   0  100.74    1.33
  -2  -4   0  101.29    1.27
   2   4   0  105.76    1.29
  -2  -4  -1   30.30    0.90
   2   4   1   28.51    0.75
  -2  -4  -1   31.43    0.87
   2   4   1   29.75    0.70
  -2  -4  -2    2.39    0.45
  -2  -4  -2    2.11    0.53
   2   4   2    2.16    0.29
  -2  -4  -3   31.36    1.00
  -2  -4  -3   33.38    0.98
  -2  -4  -4    1.24    0.51
  -2  -4  -4    1.92    0.65
  -2  -4  -5    0.35    0.48
  -2  -4  -5    0.44    0.81
  -2  -4  -6   14.97    0.84
  -2  -4  -6   14.26    0.94
  -2  -4  -7   10.64    0.88
  -2  -4  -7   10.31    0.91
  -2  -4  -8    1.63    0.48
  -2  -4  -8    1.76    0.57
  -2  -4  -9   11.50    0.93
  -2  -4  -9   11.06    1.01
  -2  -4 -10    0.17    0.38
  -2  -4 -10    0.61    0.81
   2   5 -13    0.61    0.46
  -2  -5  13    1.16    0.44
   2   5 -12    0.52    0.65
  -2  -5  12    0.65    0.46
   2   5 -11    0.21    0.45
  -2  -5  11    0.21    0.25
   2   5 -10    7.14    0.83
  -2  -5  10    6.46    1.70
   2   5  -9   38.45    1.29
  -2  -5   9   39.50    1.22
   2   5  -8    0.09    0.55
  -2  -5   8    0.35    0.37
   2   5  -7    9.06    0.84
  -2  -5   7    9.09    0.69
  -2  -5   6   40.35    1.25
  -2  -5   6   38.55    1.09
   2   5  -6   37.18    1.01
  -2  -5   5   11.98    1.80
  -2  -5   5   11.49    0.57
   2   5  -5   11.28    0.59
  -2  -5   4   63.35    1.32
  -2  -5   4   62.23    1.12
   2   5  -4   66.13    1.14
  -2  -5   3   92.93    1.53
  -2  -5   3   92.53    1.33
   2   5  -3   94.26    1.35
  -2  -5   2    0.13    0.35
  -2  -5   2    0.19    0.39
   2   5  -2    0.23    0.25
  -2  -5   1   50.69    1.07
  -2  -5   1   50.91    0.99
   2   5  -1   52.00    0.93
  -2  -5   0    6.97    0.82
  -2  -5   0    5.99    0.59
   2   5   0    6.31    0.45
  -2  -5  -1    0.86    0.49
  -2  -5  -1    0.72    0.40
   2   5   1    0.44    0.22
  -2  -5  -2    5.52    0.65
  -2  -5  -2    5.72    0.65
  -2  -5  -3   14.83    0.91
  -2  -5  -3   14.31    0.95
  -2  -5  -4    4.10    0.56
  -2  -5  -4    3.93    0.50
  -2  -5  -5    7.83    0.81
  -2  -5  -5    7.78    0.78
  -2  -5  -6    1.00    0.47
  -2  -5  -6    1.26    0.56
  -2  -5  -7    7.72    0.76
  -2  -5  -7    8.20    0.89
  -2  -5  -8    0.90    0.52
  -2  -5  -8    0.93    0.63
  -2  -5  -9   11.89    0.96
  -2  -5  -9   10.57    0.87
   2   6 -13    0.32    0.45
  -2  -6  13    0.35    0.38
  -2  -6  12    0.54    0.29
   2   6 -11   13.78    0.95
  -2  -6  11   13.89    1.06
   2   6 -10   10.27    0.83
  -2  -6  10    9.88    0.69
   2   6  -9   64.71    1.90
  -2  -6   9   65.74    1.75
   2   6  -8   65.00    1.58
  -2  -6   8   66.26    1.56
  -2  -6   7   20.13    0.78
  -2  -6   6    2.01    0.76
  -2  -6   6    2.09    0.35
   2   6  -6    1.56    0.39
  -2  -6   5    1.09    0.50
  -2  -6   5    1.22    0.43
   2   6  -5    0.72    0.26
  -2  -6   4    3.43    0.56
  -2  -6   4    2.95    0.44
   2   6  -4    3.20    0.41
  -2  -6   3    4.24    0.61
  -2  -6   3    4.13    0.46
   2   6  -3    4.34    0.46
  -2  -6   2   72.08    1.84
  -2  -6   2   72.10    1.57
   2   6  -2   69.37    1.49
  -2  -6   1    0.01    0.48
  -2  -6   1    0.15    0.38
   2   6  -1    0.05    0.19
  -2  -6   0    0.75    0.66
  -2  -6   0    0.02    0.30
  -2  -6  -1    2.02    0.49
  -2  -6  -1    1.37    0.45
   2   6   1    1.34    0.27
  -2  -6  -2   -0.23    0.45
  -2  -6  -2    0.50    0.58
  -2  -6  -3   14.32    1.02
  -2  -6  -3   12.87    0.80
  -2  -6  -4    0.67    0.47
  -2  -6  -4    0.85    0.40
  -2  -6  -5   11.24    0.83
  -2  -6  -6    0.55    0.64
  -2  -6  -6    0.40    0.43
  -2  -6  -7    4.16    0.63
  -2  -6  -7    3.69    0.59
  -2  -6  -8    1.13    0.40
   2   7 -12   12.17    0.98
  -2  -7  12   10.49    2.04
   2   7 -11    1.02    0.51
  -2  -7  11    0.57    0.30
   2   7 -10    0.78    0.59
  -2  -7  10    0.83    0.52
   2   7  -9    2.42    0.58
  -2  -7   9    2.88    1.10
   2   7  -8   16.91    1.05
  -2  -7   8   15.38    0.72
  -2  -7   7    6.32    0.61
  -2  -7   6    4.24    1.42
  -2  -7   6    4.64    0.47
   2   7  -6    3.75    0.34
  -2  -7   5   19.77    0.93
  -2  -7   5   20.66    0.65
   2   7  -5   18.10    0.62
  -2  -7   4    0.21    0.42
  -2  -7   4    0.41    0.28
   2   7  -4    0.28    0.29
  -2  -7   3    1.01    0.44
  -2  -7   3    1.07    0.26
   2   7  -3    1.13    0.29
  -2  -7   2    1.75    0.43
  -2  -7   2    1.91    0.32
   2   7  -2    1.51    0.27
  -2  -7   1    1.81    0.59
  -2  -7   1    1.52    0.33
   2   7  -1    1.46    0.25
  -2  -7   0   89.08    1.90
   2   7   0   88.08    1.36
  -2  -7  -1    4.85    0.88
  -2  -7  -1    3.65    0.38
  -2  -7  -2    0.79    0.70
  -2  -7  -2    0.53    0.25
  -2  -7  -3    2.28    0.62
  -2  -7  -3    2.90    0.56
  -2  -7  -4   11.59    0.90
  -2  -7  -4   10.67    0.70
  -2  -7  -5    2.00    0.59
  -2  -7  -5    2.24    0.48
  -2  -7  -6    0.17    0.44
  -2  -7  -6    0.40    0.65
  -2  -7  -7    2.99    0.63
  -2  -7  -7    3.55    0.70
   2   8 -11    0.88    0.45
  -2  -8  11    0.75    0.33
   2   8 -10   13.16    0.96
  -2  -8  10   13.55    0.75
   2   8  -9    0.14    0.43
  -2  -8   9    0.38    0.28
  -2  -8   8    0.21    0.37
  -2  -8   8    0.23    0.29
  -2  -8   7    1.70    0.73
  -2  -8   7    1.50    0.35
  -2  -8   6    3.15    0.34
  -2  -8   5   12.86    0.79
  -2  -8   5   13.62    0.57
   2   8  -5   11.15    0.49
  -2  -8   4    6.51    0.66
  -2  -8   4    6.43    0.41
   2   8  -4    5.67    0.34
  -2  -8   3    3.24    0.65
  -2  -8   3    3.70    0.33
   2   8  -3    2.95    0.27
  -2  -8   2    1.86    0.54
  -2  -8   2    1.85    0.24
   2   8  -2    1.75    0.22
  -2  -8   1   11.16    1.02
  -2  -8   1   11.24    0.51
  -2  -8   0   19.91    1.06
  -2  -8   0   20.30    0.63
  -2  -8  -1    4.35    0.65
  -2  -8  -1    4.06    0.35
  -2  -8  -2    1.16    0.54
  -2  -8  -2    0.75    0.33
  -2  -8  -3    3.15    0.63
  -2  -8  -3    2.34    0.40
  -2  -8  -4    1.14    0.48
  -2  -8  -4    1.32    0.44
  -2  -8  -5    0.33    0.50
  -2  -8  -5    0.50    0.40
   2   9 -10    0.58    0.61
  -2  -9  10    0.38    0.30
   2   9  -9    1.24    0.53
  -2  -9   9    1.13    0.57
  -2  -9   8    0.25    0.34
  -2  -9   8    0.24    0.19
  -2  -9   7    1.06    0.39
  -2  -9   7    1.22    0.52
  -2  -9   6    1.30    0.85
  -2  -9   6    1.66    0.26
  -2  -9   5   10.84    0.46
  -2  -9   4    0.02    0.39
  -2  -9   4    0.06    0.13
  -2  -9   3   16.71    1.09
  -2  -9   3   16.28    0.48
  -2  -9   2    0.55    0.43
  -2  -9   1    0.60    0.46
  -2  -9   0    1.09    0.53
  -2  -9   0    0.78    0.21
  -2  -9  -1    5.75    0.91
  -2  -9  -2    2.21    0.62
  -2  -9  -3    4.55    0.92
  -2  -9  -4    3.86    0.73
  -2 -10   8    1.13    0.60
  -2 -10   7    2.80    1.27
  -2 -10   6    0.86    0.42
  -2 -10   5    1.01    0.47
  -2 -10   4    5.46    0.83
  -2 -10   3    2.19    0.58
  -2 -10   2    0.30    0.39
  -2 -10   1    0.55    0.62
  -2 -10   0    0.59    0.62
  -2 -10  -1    2.74    0.58
   3 -11   2    2.70    0.61
   3 -11   3    0.49    0.39
   3 -11   4    5.06    0.53
   3 -10  -3    8.94    0.84
   3 -10  -2    0.15    0.41
   3 -10  -1    0.79    0.33
   3 -10   0    0.49    0.37
   3 -10   1   32.04    1.08
   3 -10   2    0.11    0.32
   3 -10   3    4.41    0.54
   3 -10   4    0.42    0.32
   3 -10   5    5.36    0.49
   3 -10   6    7.43    0.54
   3  -9  -5    6.51    1.07
   3  -9  -4    0.80    0.47
   3  -9  -3    1.44    0.67
   3  -9  -2    7.92    0.90
   3  -9  -1    0.24    0.37
   3  -9   0    7.41    0.75
   3  -9   1    0.10    0.34
   3  -9   3    2.50    0.47
   3  -9   4    0.51    0.40
   3  -9   5    1.83    0.39
   3  -9   6   -0.01    0.16
  -3   9  -9    0.32    0.36
   3  -8  -7    0.93    0.82
   3  -8  -6   18.70    1.25
   3  -8  -4    0.51    0.45
   3  -8  -3    0.01    0.43
   3  -8  -1   10.37    0.75
   3  -8   0   37.63    1.28
   3  -8   1    4.33    0.54
   3  -8   2   16.31    0.81
   3  -8   3   29.63    1.02
   3  -8   4    3.45    0.39
  -3   8  -4    3.09    0.17
  -3   8  -4    3.12    0.21
   3  -8   5   14.66    0.57
  -3   8  -5   14.80    0.51
   3  -8   6    1.34    0.45
  -3   8  -6    1.46    0.26
  -3   8  -7    4.78    0.35
  -3   8  -8    0.11    0.13
  -3   8  -8    0.30    0.32
  -3   8  -9    0.26    0.47
  -3   8 -10    0.80    0.48
   3  -7  -8    0.37    0.58
   3  -7  -7    7.75    0.93
   3  -7  -6    0.90    0.54
   3  -7  -5    0.14    0.44
   3  -7  -3    6.76    0.75
   3  -7  -3    7.22    0.37
   3  -7  -2   99.35    1.92
   3  -7  -2   97.42    1.24
   3  -7  -1   67.24    1.53
   3  -7   0   -0.04    0.36
   3  -7   1    8.44    0.56
   3  -7   2   11.92    0.67
  -3   7  -2   10.64    0.48
   3  -7   3    1.81    0.33
  -3   7  -3    1.58    0.25
  -3   7  -3    1.82    0.17
  -3   7  -3    1.57    0.19
   3  -7   4    2.95    0.37
  -3   7  -4    3.06    0.28
  -3   7  -4    3.07    0.23
   3  -7   5    0.14    0.14
  -3   7  -5    0.08    0.15
  -3   7  -5    0.15    0.10
  -3   7  -5    0.22    0.36
  -3   7  -6    1.12    0.18
  -3   7  -6    0.94    0.18
  -3   7  -6    1.37    0.36
  -3   7  -7    0.05    0.13
  -3   7  -7    0.11    0.34
  -3   7  -8    0.74    0.19
  -3   7  -8    0.66    0.34
  -3   7  -9    5.25    0.60
  -3   7 -10    2.96    0.59
  -3   7 -11    2.11    0.54
   3  -6  -9    3.83    0.81
   3  -6  -8    7.28    0.87
   3  -6  -7    0.74    1.06
   3  -6  -6    5.25    0.79
  -3   6   6    4.22    0.43
   3  -6  -5    9.62    0.94
  -3   6   5    9.92    0.49
   3  -6  -5    8.62    0.42
   3  -6  -4    9.45    0.86
  -3   6   4    8.92    0.50
   3  -6  -4    9.54    0.44
  -3   6   3   47.19    0.86
   3  -6  -2  131.48    2.95
  -3   6   2  128.53    2.54
   3  -6  -2  135.42    2.70
   3  -6  -1   80.71    2.02
  -3   6   1   78.69    1.58
   3  -6  -1   81.52    1.66
   3  -6   0    0.27    0.33
  -3   6   0    0.54    0.30
  -3   6   0    0.11    0.13
   3  -6   0    0.40    0.19
   3  -6   1   70.45    1.59
  -3   6  -1   65.43    1.47
  -3   6  -1   68.69    1.29
   3  -6   2   15.31    0.63
  -3   6  -2   14.85    0.59
  -3   6  -2   15.25    0.51
   3  -6   3    9.76    0.52
  -3   6  -3    9.01    0.44
  -3   6  -3    9.48    0.37
  -3   6  -3   10.20    0.56
   3  -6   4    1.29    0.27
  -3   6  -4    1.24    0.23
  -3   6  -4    0.97    0.45
  -3   6  -4    1.59    0.39
   3  -6   5   51.10    0.86
  -3   6  -5   49.92    0.88
  -3   6  -5   47.08    0.95
  -3   6  -5   54.36    1.27
  -3   6  -6    0.47    0.15
  -3   6  -6    0.41    0.16
  -3   6  -6    0.44    0.25
  -3   6  -6    0.38    0.37
  -3   6  -7    0.08    0.12
  -3   6  -7   -0.03    0.10
  -3   6  -7    0.00    0.37
  -3   6  -8    0.00    0.10
  -3   6  -8    0.08    0.38
  -3   6  -9    0.85    0.15
  -3   6  -9    1.34    0.61
  -3   6 -10    1.55    0.56
  -3   6 -11    7.72    0.76
   3  -5 -10    4.90    1.01
   3  -5  -9    3.49    0.83
   3  -5  -8    3.88    0.78
  -3   5   8    3.55    0.93
   3  -5  -7    4.62    0.79
  -3   5   7    4.12    0.85
   3  -5  -6   81.07    1.94
  -3   5   6   79.62    1.57
   3  -5  -5   49.61    1.48
  -3   5   5   50.74    1.47
   3  -5  -5   43.62    0.94
   3  -5  -4    4.03    0.74
  -3   5   4    4.09    0.38
   3  -5  -4    3.31    0.33
   3  -5  -3   11.48    0.95
  -3   5   3   11.43    0.47
   3  -5  -3   11.00    0.46
  -3   5   2   16.73    0.52
   3  -5  -2   17.48    0.56
   3  -5  -1   50.91    1.12
  -3   5   1   49.94    1.03
  -3   5   1   51.79    0.78
   3  -5  -1   51.97    0.82
   3  -5   0   72.94    1.28
  -3   5   0   72.57    1.16
  -3   5   0   73.10    0.96
   3  -5   0   74.86    0.96
   3  -5   1    0.46    0.36
  -3   5  -1    0.31    0.13
  -3   5  -1    0.57    0.24
   3  -5   1    0.35    0.14
   3  -5   2    3.17    0.36
  -3   5  -2    3.33    0.30
  -3   5  -2    3.00    0.33
   3  -5   2    3.07    0.26
   3  -5   3   43.65    0.69
  -3   5  -3   43.26    0.73
  -3   5  -3   44.45    0.96
   3  -5   4   13.92    0.46
  -3   5  -4   13.17    0.41
  -3   5  -4   13.06    0.66
  -3   5  -5   36.86    0.77
  -3   5  -5   37.60    0.79
  -3   5  -5   33.53    1.36
  -3   5  -5   38.80    1.17
  -3   5  -6  117.83    2.28
  -3   5  -6  123.15    2.86
  -3   5  -7    1.15    0.17
  -3   5  -7    0.79    0.39
  -3   5  -8   -0.02    0.05
  -3   5  -8    0.11    0.13
  -3   5  -8    0.01    0.47
  -3   5  -9    1.85    0.23
  -3   5  -9    1.58    0.59
  -3   5 -10    2.66    0.78
  -3   5 -11   18.66    1.15
  -3   5 -12    4.40    0.73
   3  -4 -11    0.88    0.65
   3  -4 -10    2.97    0.72
  -3   4  10    2.46    0.45
   3  -4  -9    3.52    0.84
  -3   4   9    3.16    1.44
   3  -4  -8    0.44    0.67
  -3   4   8    0.72    0.38
   3  -4  -7    2.79    0.89
  -3   4   7    2.02    0.49
   3  -4  -6   28.76    1.12
  -3   4   6   32.05    0.96
  -3   4   5   66.69    1.63
   3  -4  -5   62.58    1.49
   3  -4  -4   23.52    1.04
  -3   4   4   24.50    0.78
   3  -4  -4   23.80    0.75
   3  -4  -3    0.49    0.51
  -3   4   3    0.22    0.17
  -3   4   3    0.58    0.23
   3  -4  -3    0.61    0.36
  -3   4   2   17.79    0.65
  -3   4   2   17.80    0.52
   3  -4  -2   18.12    0.53
   3  -4  -1   59.60    1.10
  -3   4   1   57.36    0.99
  -3   4   1   58.70    0.85
   3  -4  -1   59.12    0.88
   3  -4   0  117.22    1.37
  -3   4   0  118.92    1.38
  -3   4   0  117.43    1.26
   3  -4   0  117.99    1.25
   3  -4   1    0.37    0.35
  -3   4  -1    0.16    0.36
  -3   4  -1    0.15    0.38
   3  -4   1    0.33    0.36
   3  -4   2   42.41    0.61
  -3   4  -2   42.97    0.66
  -3   4  -2   46.85    0.94
   3  -4   2   44.12    0.76
  -3   4  -3   12.31    0.29
  -3   4  -3   12.15    0.58
  -3   4  -4    0.46    0.06
  -3   4  -4    0.33    0.22
  -3   4  -5    4.18    0.68
  -3   4  -6    0.69    0.41
  -3   4  -7    0.55    0.11
  -3   4  -7    0.60    0.13
  -3   4  -7    0.82    0.58
  -3   4  -8    0.87    0.12
  -3   4  -8    0.68    0.17
  -3   4  -8    0.85    0.49
  -3   4  -9    0.12    0.15
  -3   4  -9   -0.14    0.44
  -3   4 -10   11.00    0.46
  -3   4 -10   11.22    0.90
  -3   4 -11    2.91    0.57
  -3   4 -12    0.77    0.74
   3  -3 -11    0.55    0.55
  -3   3  11    0.58    0.37
   3  -3 -10    1.96    0.64
  -3   3  10    2.22    0.89
   3  -3  -9   34.85    1.43
  -3   3   9   35.65    1.13
   3  -3  -8   40.04    1.49
  -3   3   8   44.51    1.48
   3  -3  -7   36.59    1.34
  -3   3   7   35.84    1.06
   3  -3  -6    5.79    0.85
  -3   3   6    6.41    0.51
   3  -3  -5    0.28    0.62
  -3   3   5    0.50    0.33
   3  -3  -5    0.44    0.26
   3  -3  -4  318.18    3.60
  -3   3   4  315.78    3.33
   3  -3  -4  309.91    3.32
   3  -3  -3   60.86    1.31
  -3   3   3   60.82    1.09
  -3   3   3   59.21    0.99
   3  -3  -3   62.34    1.10
   3  -3  -2   18.96    0.67
  -3   3   2   19.10    0.58
  -3   3   2   19.92    0.56
   3  -3  -2   19.46    0.57
   3  -3  -1   31.73    0.70
  -3   3   1   30.82    0.62
  -3   3   1   31.44    0.64
   3  -3  -1   31.72    0.63
   3  -3   0  146.00    1.39
  -3   3   0  146.44    1.32
  -3   3   0  147.41    1.45
   3  -3   0  148.85    1.41
   3  -3   1   44.95    0.59
  -3   3  -1   45.75    0.60
  -3   3  -1   44.89    0.83
   3  -3   1   46.32    0.74
  -3   3  -2    0.20    0.18
  -3   3  -2    0.17    0.37
   3  -3   2    0.02    0.27
  -3   3  -3  121.96    1.58
   3  -3   3  123.74    1.43
  -3   3  -4   61.35    1.23
  -3   3  -5    3.43    0.47
  -3   3  -6   23.29    0.44
  -3   3  -6   24.33    1.04
  -3   3  -7   48.44    1.01
  -3   3  -7   50.43    1.08
  -3   3  -7   51.79    1.61
  -3   3  -8    5.90    0.24
  -3   3  -8    6.79    0.34
  -3   3  -8    6.29    0.69
  -3   3  -9   57.45    1.26
  -3   3  -9   59.20    1.85
  -3   3 -10    3.61    0.35
  -3   3 -10    4.37    0.87
  -3   3 -11    1.53    0.26
  -3   3 -11    1.33    0.55
  -3   3 -12   14.84    1.17
   3  -2 -12    3.10    1.10
  -3   2  12    2.97    1.26
   3  -2 -11    0.26    0.59
  -3   2  11    0.41    0.20
   3  -2 -10    7.01    0.86
  -3   2  10    6.65    1.46
   3  -2  -9    1.04    0.60
  -3   2   9    0.99    0.45
   3  -2  -8   13.09    0.98
  -3   2   8   13.88    0.74
   3  -2  -7   85.98    2.43
  -3   2   7   84.29    2.10
   3  -2  -6   16.87    1.11
  -3   2   6   16.56    0.79
   3  -2  -5   13.86    0.89
  -3   2   5   13.43    0.72
   3  -2  -5   12.81    0.53
   3  -2  -4  166.56    2.05
  -3   2   4  157.58    1.78
  -3   2   4  167.56    1.91
   3  -2  -4  166.81    1.79
   3  -2  -3   13.76    0.78
  -3   2   3   13.95    0.63
  -3   2   3   15.09    0.68
   3  -2  -3   14.33    0.57
   3  -2  -2  113.53    1.33
  -3   2   2  111.87    1.25
  -3   2   2  112.54    1.24
   3  -2  -2  114.70    1.29
   3  -2  -1    2.03    0.36
  -3   2   1    2.22    0.34
  -3   2   1    2.48    0.45
   3  -2  -1    2.02    0.30
   3  -2   0    0.17    0.24
  -3   2   0    0.37    0.15
  -3   2   0    0.11    0.35
   3  -2   0    0.41    0.30
   3  -2   1   35.36    0.46
  -3   2  -1   33.58    0.40
  -3   2  -1   37.33    0.84
   3  -2   1   35.72    0.71
  -3   2  -2    0.35    0.44
   3  -2   2    0.28    0.31
  -3   2  -3   41.86    0.98
   3  -2   3   41.79    0.81
  -3   2  -4    0.50    0.49
  -3   2  -5    9.40    0.24
  -3   2  -5    9.58    0.22
  -3   2  -5   10.32    0.88
  -3   2  -6    9.75    0.32
   3  -2   6    9.57    0.28
  -3   2  -6   10.03    1.01
  -3   2  -7    7.13    0.40
   3  -2   7    6.72    0.32
  -3   2  -7    6.98    0.73
  -3   2  -8   13.95    0.48
   3  -2   8   14.54    0.45
  -3   2  -8   15.28    1.14
  -3   2  -9   30.22    0.88
   3  -2   9   27.06    0.74
  -3   2  -9   30.59    1.32
  -3   2 -10    1.20    0.26
  -3   2 -10    1.44    0.57
  -3   2 -11    3.65    0.42
  -3   2 -11    3.95    0.72
  -3   2 -12    0.68    0.91
   3  -1 -12    1.52    0.81
  -3   1  12    1.08    0.68
   3  -1 -11   52.32    1.71
  -3   1  11   50.76    1.53
   3  -1 -10    0.20    0.64
  -3   1  10    0.28    0.41
   3  -1  -9  198.03    3.56
  -3   1   9  201.02    2.46
   3  -1  -8   12.74    1.00
  -3   1   8   12.30    0.74
   3  -1  -7   48.22    1.61
  -3   1   7   49.40    1.41
   3  -1  -6  103.73    1.95
  -3   1   6   99.92    1.75
   3  -1  -5   31.05    1.03
  -3   1   5   30.21    0.79
  -3   1   5   32.21    0.84
   3  -1  -5   31.50    0.78
   3  -1  -4   18.54    0.75
  -3   1   4   18.36    0.56
  -3   1   4   18.79    0.64
   3  -1  -4   18.86    0.59
   3  -1  -3    9.02    0.55
  -3   1   3    9.33    0.61
  -3   1   3    8.88    0.52
   3  -1  -3    8.31    0.51
   3  -1  -2  233.10    1.97
  -3   1   2  232.31    1.90
  -3   1   2  232.42    2.03
   3  -1  -2  232.62    1.99
   3  -1  -1   80.08    0.89
  -3   1   1   80.42    0.86
  -3   1   1   79.43    1.07
   3  -1  -1   80.40    1.01
   3  -1   0  326.97    2.07
  -3   1   0  324.34    2.43
   3  -1   0  332.03    2.39
   3  -1   1   74.44    0.62
   3  -1   1   74.93    0.65
  -3   1  -1   79.83    1.22
   3  -1   1   75.95    1.03
   3  -1   2    6.28    0.20
  -3   1  -2    6.18    0.57
   3  -1   2    6.13    0.44
  -3   1  -3  176.90    1.20
   3  -1   3  174.23    1.20
  -3   1  -3  175.05    1.92
   3  -1   3  172.68    1.71
  -3   1  -4   35.49    0.47
   3  -1   4   35.29    0.50
  -3   1  -4   36.54    1.01
   3  -1   4   35.70    0.84
  -3   1  -5   75.76    0.94
   3  -1   5   78.79    0.97
  -3   1  -5   77.10    1.58
  -3   1  -6   34.23    0.87
   3  -1   6   34.68    0.84
  -3   1  -6   33.61    1.34
  -3   1  -7   35.56    1.01
   3  -1   7   35.46    0.91
  -3   1  -7   36.48    1.41
  -3   1  -8    5.22    0.43
   3  -1   8    6.12    0.35
  -3   1  -8    6.41    0.78
  -3   1  -9   20.68    0.80
   3  -1   9   18.18    0.63
  -3   1  -9   21.01    1.16
  -3   1 -10    7.92    0.52
  -3   1 -10    8.11    0.89
  -3   1 -11   18.98    0.76
  -3   1 -11   19.43    1.13
  -3   1 -12    0.96    0.31
  -3   1 -12    1.63    0.79
   3   0 -13    0.76    0.57
  -3   0  13    0.33    0.47
   3   0 -12    2.86    0.62
  -3   0  12    2.71    0.71
   3   0 -11    0.45    0.96
  -3   0  11    0.28    0.28
   3   0 -10    5.57    0.88
  -3   0  10    5.48    0.91
   3   0  -9  120.74    2.42
  -3   0   9  116.60    2.13
   3   0  -8    0.75    0.65
  -3   0   8    0.31    0.44
   3   0  -7   14.85    1.07
  -3   0   7   13.26    0.74
   3   0  -6   97.41    1.74
  -3   0   6  100.15    1.59
   3   0  -5   18.28    0.90
  -3   0   5   17.89    0.64
  -3   0   5   18.38    0.82
   3   0  -5   17.13    0.62
   3   0  -4   38.20    0.89
  -3   0   4   34.31    0.73
  -3   0   4   34.87    0.85
   3   0  -4   33.66    0.78
   3   0  -3  149.51    1.63
  -3   0   3  148.39    1.47
   3   0  -3  152.32    1.56
   3   0  -2  136.41    1.24
   3   0  -2  132.88    1.31
  -3   0   2  132.95    1.44
   3   0  -2  134.92    1.40
   3   0  -1   42.29    0.61
   3   0  -1   39.97    0.67
  -3   0   1   42.21    0.88
   3   0  -1   41.77    0.80
   3   0   0  355.48    2.42
  -3   0   0  351.50    2.61
   3   0   0  356.87    2.75
  -3   0  -1    0.71    0.29
   3   0   1    0.55    0.16
  -3   0  -1    0.50    0.68
   3   0   1    0.36    0.49
  -3   0  -2   16.63    0.38
   3   0   2   17.04    0.43
  -3   0  -2   15.82    0.69
   3   0   2   16.84    0.58
  -3   0  -3   81.04    0.90
   3   0   3   81.00    0.92
  -3   0  -3   79.83    1.33
   3   0   3   79.87    1.18
  -3   0  -4   37.25    0.67
   3   0   4   38.23    0.69
  -3   0  -4   32.09    1.04
   3   0   4   33.91    0.85
  -3   0  -5   28.59    0.67
   3   0   5   27.73    0.62
  -3   0  -6    1.65    0.32
   3   0   6    1.34    0.26
  -3   0  -6    1.88    0.66
  -3   0  -7    0.39    0.37
   3   0   7    0.26    0.27
  -3   0  -7    0.48    0.64
  -3   0  -8   43.52    1.09
   3   0   8   36.14    0.80
  -3   0  -8   42.01    1.40
  -3   0  -9   10.03    0.65
  -3   0  -9   10.28    0.96
  -3   0 -10    0.54    0.27
  -3   0 -10    0.49    0.57
  -3   0 -11    6.78    0.62
  -3   0 -11    6.73    0.86
   3   1 -13   12.43    1.02
  -3  -1  13   10.44    1.37
   3   1 -12   27.10    1.29
  -3  -1  12   25.73    1.09
   3   1 -11   14.73    0.96
  -3  -1  11   15.87    2.49
   3   1 -10    8.46    0.97
  -3  -1  10    7.50    0.75
   3   1  -9   15.06    0.99
  -3  -1   9   15.50    0.96
   3   1  -8   15.18    1.03
  -3  -1   8   15.04    0.84
   3   1  -7   29.26    1.31
  -3  -1   7   28.15    1.08
   3   1  -6   18.96    0.90
  -3  -1   6   15.54    0.73
   3   1  -5   30.62    0.91
   3   1  -5   31.27    0.94
  -3  -1   5   28.31    0.83
   3   1  -5   29.68    0.74
   3   1  -4   76.34    1.03
   3   1  -4   77.38    1.20
  -3  -1   4   76.87    1.14
   3   1  -4   78.04    1.11
   3   1  -3  467.38    3.45
   3   1  -3  476.24    3.50
   3   1  -2    3.04    0.30
   3   1  -2    2.48    0.29
  -3  -1   2    2.60    0.43
   3   1  -2    4.33    0.41
  -3  -1   1    8.85    0.53
   3   1  -1    8.64    0.37
  -3  -1   1    7.77    0.54
   3   1  -1    9.50    0.49
  -3  -1   0  163.39    1.45
   3   1   0  162.94    1.41
  -3  -1   0  162.30    1.73
   3   1   0  166.61    1.64
  -3  -1  -1   13.12    0.42
   3   1   1   13.09    0.41
  -3  -1  -1   11.65    0.66
   3   1   1   12.97    0.55
  -3  -1  -2  129.31    1.26
   3   1   2  130.95    1.27
  -3  -1  -2  126.79    1.61
   3   1   2  127.68    1.45
  -3  -1  -3    2.41    0.32
   3   1   3    2.59    0.31
  -3  -1  -3    2.21    0.45
   3   1   3    2.80    0.48
  -3  -1  -4  137.09    1.63
   3   1   4  138.60    1.68
  -3  -1  -4  137.40    2.04
  -3  -1  -5    4.39    0.42
   3   1   5    4.34    0.39
  -3  -1  -5    4.84    0.68
   3   1   6   30.48    0.93
  -3  -1  -6   31.19    1.37
  -3  -1  -7   37.31    1.27
  -3  -1  -8   45.12    1.30
  -3  -1  -8   41.40    1.48
  -3  -1  -9   13.26    0.77
  -3  -1  -9   13.17    1.05
  -3  -1 -10    0.58    0.31
  -3  -1 -10    0.71    0.44
  -3  -1 -11    7.70    0.64
  -3  -1 -11    6.98    0.84
   3   2 -13    1.72    0.71
  -3  -2  13    1.13    0.61
   3   2 -12    5.70    0.81
  -3  -2  12    4.51    1.98
   3   2 -11   25.85    1.23
  -3  -2  11   26.29    1.19
   3   2 -10   19.62    1.12
  -3  -2  10   19.00    0.98
   3   2  -9   10.49    0.94
  -3  -2   9    9.53    0.72
   3   2  -8   10.55    0.92
  -3  -2   8   10.75    0.73
   3   2  -7   12.08    1.26
  -3  -2   7   11.44    0.77
   3   2  -6  130.96    2.04
  -3  -2   6  131.66    1.96
   3   2  -5   18.98    0.61
   3   2  -5   17.78    0.77
  -3  -2   5   21.15    0.78
   3   2  -5   20.31    0.66
   3   2  -4    0.58    0.28
   3   2  -4    0.51    0.40
  -3  -2   4    0.51    0.37
   3   2  -4    0.44    0.22
   3   2  -3  149.02    1.51
  -3  -2   3  146.81    1.67
   3   2  -3  151.43    1.65
  -3  -2   2   10.91    0.54
   3   2  -2   10.68    0.44
  -3  -2   2   11.31    0.64
   3   2  -2   11.17    0.57
  -3  -2   1    0.98    0.26
   3   2  -1    1.11    0.31
  -3  -2   1    1.35    0.45
   3   2  -1    1.21    0.46
  -3  -2   0   64.71    0.94
   3   2   0   64.67    0.93
  -3  -2   0   63.09    1.23
   3   2   0   64.61    1.04
  -3  -2  -1  127.97    1.40
   3   2   1  128.48    1.33
  -3  -2  -1  125.65    1.59
   3   2   1  128.07    1.49
  -3  -2  -2   18.09    0.63
   3   2   2   18.14    0.62
  -3  -2  -2   18.47    0.93
   3   2   2   18.46    0.62
  -3  -2  -3   39.63    0.94
   3   2   3   38.83    0.82
  -3  -2  -3   38.98    1.09
   3   2   3   38.87    0.85
  -3  -2  -4   14.60    0.61
   3   2   4   14.31    0.62
  -3  -2  -4   14.69    0.91
  -3  -2  -5    2.58    0.51
   3   2   5    1.95    0.33
  -3  -2  -5    1.68    0.60
  -3  -2  -6  323.84    2.53
  -3  -2  -6  307.97    3.18
  -3  -2  -7   34.97    1.03
  -3  -2  -7   31.92    1.18
  -3  -2  -8   10.95    0.69
  -3  -2  -8   10.32    0.91
  -3  -2  -9    0.89    0.42
  -3  -2  -9    1.63    0.63
  -3  -2 -10    3.52    0.50
  -3  -2 -10    3.82    0.84
  -3  -2 -11    2.36    0.61
   3   3 -13    0.22    0.54
  -3  -3  13    0.23    0.33
   3   3 -12    6.79    0.84
  -3  -3  12    6.36    2.21
   3   3 -11    9.15    0.95
  -3  -3  11    7.55    2.51
   3   3 -10    9.70    0.91
  -3  -3  10   10.18    0.78
   3   3  -9    6.64    0.87
  -3  -3   9    6.84    0.64
   3   3  -8    0.99    0.52
   3   3  -7   26.32    1.40
  -3  -3   7   24.89    0.99
   3   3  -6   76.79    1.57
  -3  -3   6   75.86    1.50
   3   3  -5   77.88    1.47
  -3  -3   5   77.76    1.40
   3   3  -5   71.13    1.28
  -3  -3   4    2.11    0.59
   3   3  -4    1.83    0.27
  -3  -3   4    1.76    0.40
   3   3  -4    1.62    0.46
  -3  -3   3   28.84    0.80
   3   3  -3   28.06    0.68
  -3  -3   3   27.96    0.82
   3   3  -3   28.85    0.81
  -3  -3   2    2.97    0.42
   3   3  -2    2.92    0.32
  -3  -3   2    2.62    0.46
   3   3  -2    2.96    0.47
  -3  -3   1   20.23    0.69
   3   3  -1   21.40    0.59
  -3  -3   1   19.18    0.77
   3   3  -1   20.67    0.65
  -3  -3   0   53.81    0.98
   3   3   0   53.58    0.92
  -3  -3   0   51.90    1.11
   3   3   0   52.72    0.99
  -3  -3  -1    1.60    0.39
   3   3   1    1.58    0.34
  -3  -3  -1    1.43    0.59
   3   3   1    1.36    0.31
  -3  -3  -2  144.68    1.91
   3   3   2  136.12    1.72
  -3  -3  -2  141.90    2.09
   3   3   2  133.65    1.70
  -3  -3  -3   43.62    1.05
   3   3   3   41.00    1.00
  -3  -3  -3   41.68    1.16
  -3  -3  -4    0.62    0.41
  -3  -3  -4    0.54    0.51
  -3  -3  -5    8.16    0.63
  -3  -3  -6   94.60    1.84
  -3  -3  -7    0.99    0.34
  -3  -3  -7    0.74    0.55
  -3  -3  -8    4.24    0.53
  -3  -3  -8    3.78    0.75
  -3  -3  -9    4.03    0.60
  -3  -3  -9    3.15    0.72
  -3  -3 -10    2.55    0.53
  -3  -3 -10    2.40    0.80
   3   4 -13    7.95    0.85
  -3  -4  13    5.45    2.87
   3   4 -12    6.99    1.10
  -3  -4  12    5.74    1.97
   3   4 -11   25.35    1.27
  -3  -4  11   24.62    1.08
   3   4 -10   -0.29    0.59
  -3  -4  10    0.07    0.41
   3   4  -9   32.44    1.22
  -3  -4   9   32.55    1.17
   3   4  -8    0.70    0.53
  -3  -4   8    0.52    0.64
   3   4  -7    2.57    0.70
  -3  -4   7    2.51    0.71
   3   4  -6   61.11    1.68
  -3  -4   5    1.17    0.50
   3   4  -5    0.79    0.30
  -3  -4   4    2.28    0.87
   3   4  -4    2.43    0.43
  -3  -4   3    5.68    1.53
   3   4  -3    4.89    0.52
  -3  -4   2   87.86    1.45
  -3  -4   2   84.63    1.38
   3   4  -2   91.71    1.47
  -3  -4   1   59.13    1.17
  -3  -4   1   58.65    1.21
   3   4  -1   58.30    1.07
  -3  -4   0    1.82    0.54
  -3  -4   0    1.13    0.36
   3   4   0    0.76    0.27
  -3  -4  -1   62.53    1.33
  -3  -4  -1   60.52    1.31
   3   4   1   59.64    1.12
  -3  -4  -2   73.25    1.79
  -3  -4  -2   71.54    1.80
  -3  -4  -3   77.23    2.00
  -3  -4  -3   80.04    2.14
  -3  -4  -4   42.14    1.23
  -3  -4  -4   41.30    1.28
  -3  -4  -5    7.66    0.64
  -3  -4  -5    6.81    0.78
  -3  -4  -6    4.23    0.53
  -3  -4  -6    4.84    0.82
  -3  -4  -7   15.51    0.93
  -3  -4  -7   15.04    0.93
  -3  -4  -8    5.08    0.56
  -3  -4  -8    5.12    0.97
  -3  -4  -9   10.36    0.87
  -3  -4  -9    9.96    1.09
   3   5 -13    2.06    0.64
  -3  -5  13    2.29    0.80
   3   5 -12    5.97    0.98
  -3  -5  12    5.16    2.07
   3   5 -11    0.30    0.47
  -3  -5  11    0.38    0.46
   3   5 -10    0.70    0.51
  -3  -5  10    0.46    0.45
   3   5  -9    6.96    0.84
  -3  -5   9    6.01    0.81
   3   5  -8   44.64    1.43
  -3  -5   8   43.65    1.23
   3   5  -7    3.66    0.59
  -3  -5   7    3.97    0.54
  -3  -5   6    0.72    0.47
  -3  -5   6    1.81    0.68
  -3  -5   5    0.89    0.52
  -3  -5   5    0.44    0.40
   3   5  -5    0.10    0.29
  -3  -5   4   28.02    1.16
  -3  -5   4   26.84    0.93
   3   5  -4   26.07    0.89
  -3  -5   3   10.18    0.86
  -3  -5   3   10.22    0.63
   3   5  -3    9.00    0.51
  -3  -5   2    0.61    0.32
  -3  -5   2    0.53    0.36
   3   5  -2    0.32    0.32
  -3  -5   1   50.00    1.50
  -3  -5   1   49.65    1.40
   3   5  -1   49.24    1.24
  -3  -5   0   37.15    1.21
  -3  -5   0   37.58    1.21
   3   5   0   35.26    1.01
  -3  -5  -1   14.06    0.85
  -3  -5  -1   13.86    0.84
   3   5   1   13.28    0.60
  -3  -5  -2    0.37    0.59
  -3  -5  -2    0.03    0.52
  -3  -5  -3    5.80    0.62
  -3  -5  -3    5.13    0.59
  -3  -5  -4   41.36    1.27
  -3  -5  -4   44.64    1.40
  -3  -5  -5    0.35    0.53
  -3  -5  -5    0.23    0.47
  -3  -5  -6    0.34    0.41
  -3  -5  -6    0.22    0.53
  -3  -5  -7    1.35    0.58
  -3  -5  -7    0.89    0.47
  -3  -5  -8    1.85    0.50
  -3  -5  -8    1.81    0.73
   3   6 -12    2.12    0.73
  -3  -6  12    1.78    0.87
   3   6 -11    1.11    0.69
  -3  -6  11    1.05    0.50
   3   6 -10    4.85    0.83
  -3  -6  10    4.58    0.59
   3   6  -9   41.57    1.48
  -3  -6   9   43.96    1.32
   3   6  -8    7.30    0.89
  -3  -6   8    7.77    0.63
  -3  -6   7    4.68    0.66
  -3  -6   6    6.83    1.50
  -3  -6   6    6.62    0.62
  -3  -6   5    6.84    1.39
  -3  -6   5    6.64    0.59
  -3  -6   4   15.58    0.87
  -3  -6   4   15.00    0.81
   3   6  -4   13.46    0.62
  -3  -6   3    5.73    0.63
  -3  -6   3    5.58    0.55
   3   6  -3    4.87    0.41
  -3  -6   2    6.80    0.62
  -3  -6   2    6.75    0.64
   3   6  -2    5.57    0.43
  -3  -6   1    0.84    0.30
  -3  -6   1    1.56    0.56
   3   6  -1    0.87    0.31
  -3  -6   0   10.23    0.96
  -3  -6   0    8.23    0.74
   3   6   0    8.31    0.45
  -3  -6  -1   68.46    1.64
  -3  -6  -1   66.30    1.50
  -3  -6  -2   33.12    1.21
  -3  -6  -2   30.53    1.00
  -3  -6  -3   42.18    1.43
  -3  -6  -3   43.85    1.40
  -3  -6  -4   30.11    1.15
  -3  -6  -4   31.00    1.13
  -3  -6  -5    0.86    0.47
  -3  -6  -5    0.63    0.32
  -3  -6  -6   12.63    0.90
  -3  -6  -6   11.71    0.85
  -3  -6  -7    4.80    0.67
  -3  -6  -7    4.62    0.64
   3   7 -12    0.34    0.65
  -3  -7  12    0.84    0.85
   3   7 -11    6.65    0.86
  -3  -7  11    5.56    1.61
   3   7 -10    5.74    0.90
  -3  -7  10    4.45    0.56
   3   7  -9    0.74    0.69
  -3  -7   9    0.37    0.24
   3   7  -8    1.43    0.52
  -3  -7   8    1.89    0.39
  -3  -7   7    8.11    2.39
  -3  -7   7    8.87    0.59
  -3  -7   6   18.91    2.10
  -3  -7   6   17.78    0.77
  -3  -7   5   -0.07    0.41
  -3  -7   5    0.21    0.29
  -3  -7   4    0.22    0.46
  -3  -7   4   -0.10    0.25
   3   7  -4    0.08    0.24
  -3  -7   3   62.53    1.59
  -3  -7   3   61.57    1.25
  -3  -7   2    5.35    0.63
  -3  -7   2    5.04    0.46
   3   7  -2    4.71    0.39
  -3  -7   1   59.44    1.25
  -3  -7   0    1.65    0.65
  -3  -7   0    1.25    0.35
   3   7   0    0.63    0.18
  -3  -7  -1   33.94    1.33
  -3  -7  -1   33.51    1.11
  -3  -7  -2    0.08    0.45
  -3  -7  -2    0.14    0.32
  -3  -7  -3   12.86    0.86
  -3  -7  -3   12.39    0.77
  -3  -7  -4    1.54    0.52
  -3  -7  -4    1.87    0.58
  -3  -7  -5    1.59    0.39
  -3  -7  -5    1.28    0.48
  -3  -7  -6    1.29    0.55
  -3  -7  -6    0.62    0.51
   3   8 -11    0.90    0.47
  -3  -8  11    0.26    0.25
   3   8 -10   -0.07    0.45
  -3  -8  10    0.05    0.18
   3   8  -9    1.04    0.42
  -3  -8   9    0.77    0.36
  -3  -8   8    0.53    0.44
  -3  -8   7    1.22    0.46
  -3  -8   7    0.65    0.28
  -3  -8   6    0.47    0.30
  -3  -8   6    0.41    0.25
  -3  -8   5    0.80    0.47
  -3  -8   5    0.00    0.21
  -3  -8   4   11.04    0.83
  -3  -8   4   11.85    0.65
  -3  -8   3   15.50    0.96
  -3  -8   3   15.32    0.68
  -3  -8   2    2.78    0.57
  -3  -8   2    2.80    0.43
  -3  -8   1  147.30    2.35
  -3  -8   1  144.43    2.40
  -3  -8   0    6.90    0.73
  -3  -8   0    6.39    0.51
  -3  -8  -1    0.42    0.68
  -3  -8  -1    0.27    0.40
  -3  -8  -2    5.26    0.73
  -3  -8  -2    4.87    0.53
  -3  -8  -3    2.14    0.55
  -3  -8  -3    1.46    0.39
  -3  -8  -4    6.92    0.80
  -3  -8  -4    5.50    0.63
   3   9  -9    1.51    0.53
  -3  -9   9    2.83    0.50
  -3  -9   8    5.91    0.72
  -3  -9   8    6.52    0.56
  -3  -9   7    2.12    0.38
  -3  -9   6    2.43    0.91
  -3  -9   6    2.60    0.35
  -3  -9   5    1.11    0.47
  -3  -9   5    0.33    0.24
  -3  -9   4   13.26    0.91
  -3  -9   4   14.15    0.60
  -3  -9   3    6.30    0.89
  -3  -9   3    6.54    0.44
  -3  -9   2   -0.28    0.45
  -3  -9   2    0.05    0.15
  -3  -9   1    1.23    0.45
  -3  -9   1    1.23    0.29
  -3  -9   0    0.18    0.47
  -3  -9   0    0.22    0.23
  -3  -9  -1    6.10    0.74
  -3  -9  -1    6.24    0.53
  -3  -9  -2    0.26    0.50
  -3  -9  -2    0.40    0.33
  -3 -10   7    0.38    0.47
  -3 -10   6    0.46    0.41
  -3 -10   5    0.41    0.48
  -3 -10   4    7.62    0.97
  -3 -10   3   22.09    1.25
  -3 -10   2    0.77    0.49
  -3 -10   1    0.40    0.48
   4 -10  -2    2.64    0.55
   4 -10  -1    3.35    0.80
   4 -10   0    5.50    0.69
   4 -10   1    0.68    0.47
   4 -10   2    9.10    0.69
   4 -10   3    1.28    0.40
   4 -10   4    0.25    0.26
   4  -9  -4    4.18    0.83
   4  -9  -3    3.38    0.86
   4  -9  -2    0.05    0.36
   4  -9  -1    7.04    0.71
   4  -9   0   19.97    0.86
   4  -9   1   16.19    0.76
   4  -9   2    3.15    0.47
   4  -9   3    0.61    0.32
   4  -9   4    5.38    0.40
   4  -9   5    1.70    0.24
   4  -8  -6    6.75    1.06
   4  -8  -5    1.47    0.52
   4  -8  -4    0.10    0.44
   4  -8  -3    0.18    0.41
   4  -8  -2    0.55    0.37
   4  -8  -1    0.17    0.35
   4  -8   0   -0.06    0.29
   4  -8   1    4.43    0.59
   4  -8   2   32.69    0.93
   4  -8   3    5.46    0.49
  -4   8  -3    4.82    0.26
   4  -8   4    0.27    0.24
  -4   8  -4   -0.07    0.15
   4  -8   5    0.24    0.13
  -4   8  -5   -0.01    0.20
  -4   8  -6    2.15    0.41
  -4   8  -7    0.66    0.35
  -4   8  -8    4.15    0.56
  -4   8  -9    4.41    0.65
   4  -7  -7    0.65    0.70
  -4   7   6   11.45    0.51
   4  -7  -5    0.35    0.44
  -4   7   5    0.36    0.19
   4  -7  -4   11.79    0.93
  -4   7   4   12.52    0.45
   4  -7  -3    0.46    0.39
  -4   7   3    0.56    0.30
   4  -7  -3    0.45    0.17
   4  -7  -2   60.55    1.74
  -4   7   2   58.71    1.21
   4  -7  -2   56.65    1.19
   4  -7  -1   29.73    1.17
  -4   7   1   27.63    0.66
   4  -7  -1   27.47    0.66
   4  -7   0    0.16    0.31
  -4   7   0    0.10    0.13
   4  -7   0   -0.01    0.09
   4  -7   1    3.46    0.46
  -4   7  -1    2.74    0.31
  -4   7  -1    3.41    0.24
   4  -7   2    7.61    0.45
  -4   7  -2    8.05    0.38
   4  -7   3    0.18    0.16
  -4   7  -3    0.30    0.28
  -4   7  -3    0.14    0.08
  -4   7  -3    0.01    0.19
   4  -7   4    3.47    0.32
  -4   7  -4    3.03    0.28
  -4   7  -4    1.96    0.57
  -4   7  -4    3.58    0.43
  -4   7  -5    4.32    0.46
  -4   7  -6    0.36    0.09
  -4   7  -6    0.50    0.51
  -4   7  -7   22.67    0.93
  -4   7  -8    2.31    0.49
  -4   7  -9    0.44    0.40
  -4   7 -10    1.30    0.56
   4  -6  -9    2.74    0.81
   4  -6  -8   -0.33    0.54
  -4   6   8    0.16    0.14
   4  -6  -7    0.56    0.56
  -4   6   7    0.47    0.29
   4  -6  -6    1.07    0.77
  -4   6   6    0.65    0.30
   4  -6  -5    3.64    0.90
  -4   6   5    3.41    1.27
   4  -6  -4    0.64    0.48
  -4   6   4    1.24    0.28
   4  -6  -4    0.84    0.22
   4  -6  -3   68.90    1.69
  -4   6   3   64.42    1.12
   4  -6  -3   66.93    1.18
   4  -6  -2   54.48    1.38
  -4   6   2   55.24    1.00
   4  -6  -2   55.09    1.03
   4  -6  -1   20.04    0.80
  -4   6   1   21.79    0.60
   4  -6   0   14.28    0.83
  -4   6   0   12.13    0.56
  -4   6   0   14.56    0.55
   4  -6   0   13.38    0.55
   4  -6   1    9.05    0.62
  -4   6  -1    7.58    0.45
  -4   6  -1    8.40    0.49
   4  -6   1    8.62    0.41
   4  -6   2    3.28    0.37
  -4   6  -2    3.25    0.29
  -4   6  -2    3.42    0.50
   4  -6   2    3.28    0.28
   4  -6   3   13.80    0.44
  -4   6  -3   13.69    0.50
  -4   6  -3   12.26    0.58
  -4   6  -4    0.13    0.15
  -4   6  -4    0.24    0.48
  -4   6  -5    1.12    0.42
  -4   6  -6    2.38    0.43
  -4   6  -7    1.66    0.58
  -4   6  -8   14.14    0.98
  -4   6  -9   10.90    0.81
  -4   6 -10    0.55    0.59
  -4   6 -11    4.84    0.82
   4  -5 -10    9.97    1.01
  -4   5  10    8.45    1.74
   4  -5  -9    6.62    0.87
  -4   5   9    5.19    1.32
   4  -5  -8   -0.09    0.57
  -4   5   8    0.26    0.31
   4  -5  -7    0.92    0.79
  -4   5   7    0.44    0.30
   4  -5  -6    0.39    0.76
  -4   5   6    0.79    0.34
  -4   5   5   27.46    0.83
   4  -5  -4   39.49    1.32
  -4   5   4   38.22    0.91
   4  -5  -4   36.25    0.92
   4  -5  -3   12.20    0.85
  -4   5   3   12.72    0.63
   4  -5  -3   11.35    0.57
   4  -5  -2    0.65    0.68
  -4   5   2    0.17    0.31
   4  -5  -2    0.35    0.26
   4  -5  -1   -0.11    0.44
  -4   5   1    0.31    0.37
  -4   5   1    0.00    0.22
   4  -5  -1    0.32    0.33
   4  -5   0    1.60    0.45
  -4   5   0    1.30    0.28
  -4   5   0    1.60    0.32
   4  -5   0    1.76    0.28
   4  -5   1    3.55    0.51
  -4   5  -1    2.93    0.32
  -4   5  -1    3.12    0.42
   4  -5   1    2.84    0.36
   4  -5   2   13.57    0.48
  -4   5  -2   12.93    0.46
  -4   5  -2   12.89    0.67
   4  -5   2   12.81    0.56
  -4   5  -3    2.35    0.19
  -4   5  -3    3.00    0.61
   4  -5   3    2.08    0.32
  -4   5  -4    9.68    0.75
  -4   5  -5   88.52    1.73
  -4   5  -6   62.99    1.54
  -4   5  -7   60.47    1.79
  -4   5  -8    0.28    0.44
  -4   5  -9    1.16    0.50
  -4   5 -10    0.13    0.47
  -4   5 -11    0.45    0.50
   4  -4 -10    3.49    0.98
  -4   4  10    2.73    1.24
   4  -4  -9    0.33    0.53
  -4   4   9    0.21    0.21
   4  -4  -8    0.69    0.67
  -4   4   8    0.47    0.31
   4  -4  -7    5.81    0.98
  -4   4   7    5.08    0.50
   4  -4  -6   20.65    1.07
  -4   4   6   21.20    0.78
   4  -4  -5    0.15    0.64
  -4   4   5    0.31    0.42
  -4   4   4   37.95    1.11
   4  -4  -4   33.82    1.01
   4  -4  -3   15.50    0.96
  -4   4   3   15.51    0.72
   4  -4  -3   13.93    0.60
   4  -4  -2   10.75    0.79
  -4   4   2   10.15    0.52
  -4   4   2   10.42    0.53
   4  -4  -2   10.74    0.54
   4  -4  -1   11.47    0.64
  -4   4   1   12.54    0.51
  -4   4   1   12.55    0.56
   4  -4  -1   12.08    0.54
   4  -4   0    5.20    0.54
  -4   4   0    5.02    0.41
  -4   4   0    5.00    0.47
   4  -4   0    5.37    0.52
   4  -4   1   93.51    1.16
  -4   4  -1   93.35    1.16
  -4   4  -1   91.35    1.44
   4  -4   1   94.61    1.37
  -4   4  -2    5.60    0.25
  -4   4  -2    5.83    0.63
   4  -4   2    5.77    0.47
  -4   4  -3    1.22    0.48
   4  -4   3    1.19    0.27
  -4   4  -4    5.40    0.70
  -4   4  -5    6.04    0.64
  -4   4  -6  124.78    1.92
  -4   4  -7   18.57    1.07
  -4   4  -8    0.48    0.46
  -4   4  -9    7.81    0.93
  -4   4 -10    0.83    0.69
  -4   4 -11    1.58    0.76
   4  -3 -11    3.50    0.89
  -4   3  11    2.87    1.15
   4  -3 -10    0.90    0.42
  -4   3  10    0.37    0.25
   4  -3  -9    1.49    0.62
  -4   3   9    1.44    0.61
   4  -3  -8    7.45    1.00
  -4   3   8    7.42    0.65
   4  -3  -7   17.99    0.98
  -4   3   7   18.81    0.85
   4  -3  -6   -0.08    0.70
  -4   3   6    0.21    0.34
   4  -3  -5   50.45    1.69
  -4   3   5   51.74    1.44
   4  -3  -4   20.57    1.00
  -4   3   4   18.82    0.80
   4  -3  -4   19.43    0.78
  -4   3   3    0.65    0.29
  -4   3   3    1.51    0.46
   4  -3  -3    1.01    0.36
   4  -3  -2   -0.03    0.43
  -4   3   2    0.27    0.29
  -4   3   2    0.51    0.46
   4  -3  -2    0.49    0.27
   4  -3  -1    0.65    0.30
  -4   3   1    0.40    0.25
  -4   3   1    0.82    0.51
   4  -3  -1    0.40    0.19
   4  -3   0   82.13    1.15
  -4   3   0   80.01    1.04
  -4   3   0   77.54    1.35
   4  -3   0   79.12    1.19
   4  -3   1  173.06    1.72
  -4   3  -1  169.06    1.66
  -4   3  -1  174.47    2.15
   4  -3   1  172.84    1.99
   4  -3   2    2.94    0.13
   4  -3   2    2.79    0.15
  -4   3  -2    3.14    0.56
   4  -3   2    2.64    0.40
  -4   3  -3    1.27    0.58
   4  -3   3    1.01    0.27
  -4   3  -4    1.16    0.51
  -4   3  -5    1.84    0.71
  -4   3  -6    3.64    0.65
  -4   3  -7    5.24    0.74
  -4   3  -8    2.42    0.62
  -4   3  -9    0.17    0.59
  -4   3 -10    1.31    0.65
  -4   3 -11    5.69    0.84
   4  -2 -12    3.83    0.99
  -4   2  12    2.95    0.90
   4  -2 -11    1.19    0.86
  -4   2  11    0.83    0.41
   4  -2 -10    0.99    0.84
  -4   2  10    0.94    0.39
   4  -2  -9    3.00    0.85
  -4   2   9    2.61    0.52
   4  -2  -8   10.60    0.95
  -4   2   8   10.32    0.71
   4  -2  -7    4.68    0.79
  -4   2   7    4.61    0.56
   4  -2  -6    1.48    0.69
  -4   2   6    1.25    0.49
   4  -2  -5   73.14    1.88
  -4   2   5   72.63    1.75
   4  -2  -4   16.64    0.97
  -4   2   4   15.72    0.70
   4  -2  -4   14.26    0.70
  -4   2   3   10.66    0.54
  -4   2   3   11.20    0.62
   4  -2  -3   11.06    0.57
   4  -2  -2   60.88    1.09
  -4   2   2   61.25    0.96
  -4   2   2   62.65    1.14
   4  -2  -2   59.08    1.05
   4  -2  -1    3.70    0.41
  -4   2   1    3.83    0.34
  -4   2   1    3.51    0.46
   4  -2  -1    3.52    0.38
   4  -2   0    2.95    0.30
  -4   2   0    3.62    0.28
  -4   2   0    3.10    0.50
   4  -2   0    2.71    0.36
   4  -2   1   16.99    0.35
   4  -2   1   15.94    0.38
  -4   2  -1   16.93    0.81
   4  -2   1   16.43    0.57
   4  -2   2   49.84    0.52
   4  -2   2   48.67    0.56
  -4   2  -2   50.14    1.13
   4  -2   2   48.84    0.96
  -4   2  -3   35.54    1.03
   4  -2   3   33.86    0.86
  -4   2  -4   30.13    1.21
  -4   2  -5    0.88    0.43
  -4   2  -6    1.02    0.44
  -4   2  -7    1.72    0.14
  -4   2  -7    1.72    0.58
  -4   2  -8    5.56    0.24
  -4   2  -8    6.14    0.83
  -4   2  -9    2.76    0.21
  -4   2  -9    3.24    0.68
  -4   2 -10    6.20    0.75
  -4   2 -11    8.27    0.94
   4  -1 -12    1.34    0.73
  -4   1  12    1.69    0.70
   4  -1 -11   12.04    1.15
  -4   1  11   12.28    1.75
   4  -1 -10    0.69    0.91
  -4   1  10    0.04    0.40
   4  -1  -9    4.63    1.08
  -4   1   9    4.91    0.70
   4  -1  -8   51.54    1.51
  -4   1   8   51.58    1.40
   4  -1  -7   49.26    1.74
  -4   1   7   49.94    1.53
   4  -1  -6    8.29    1.21
  -4   1   6    8.49    0.71
   4  -1  -5    0.58    0.56
  -4   1   5    0.48    0.44
   4  -1  -4    9.50    0.73
  -4   1   4    8.25    0.47
  -4   1   4    8.94    0.63
   4  -1  -4    8.28    0.60
   4  -1  -3   42.04    1.04
  -4   1   3   40.63    0.82
  -4   1   3   40.72    0.94
   4  -1  -3   42.31    0.92
   4  -1  -2   34.84    0.82
  -4   1   2   33.32    0.67
  -4   1   2   35.46    0.90
   4  -1  -2   35.43    0.82
   4  -1  -1    0.71    0.27
   4  -1  -1    0.71    0.27
  -4   1   1    0.85    0.39
   4  -1  -1    0.73    0.35
   4  -1   0   19.77    0.45
   4  -1   0   20.04    0.58
  -4   1   0   19.57    0.79
   4  -1   0   19.14    0.65
   4  -1   1    1.31    0.15
   4  -1   1    1.70    0.20
  -4   1  -1    1.36    0.48
   4  -1   1    1.84    0.41
   4  -1   2    0.07    0.11
   4  -1   2    0.08    0.18
  -4   1  -2   -0.26    0.57
   4  -1   2    0.13    0.30
  -4   1  -3   24.17    0.45
   4  -1   3   24.96    0.43
  -4   1  -3   23.89    0.98
  -4   1  -4  186.65    1.79
   4  -1   4  188.30    0.87
  -4   1  -4  189.06    2.31
  -4   1  -5    2.90    0.22
   4  -1   5    3.09    0.27
  -4   1  -5    3.02    0.68
  -4   1  -6    0.46    0.15
   4  -1   6    0.58    0.18
  -4   1  -6    1.35    0.98
   4  -1   7    1.59    0.20
  -4   1  -7    1.46    0.62
  -4   1  -8    9.59    0.43
   4  -1   8    9.31    0.40
  -4   1  -8    9.77    0.93
  -4   1  -9    8.93    0.45
  -4   1  -9    8.33    0.91
  -4   1 -10    1.17    0.27
  -4   1 -10    0.82    0.81
  -4   1 -11    0.12    0.59
   4   0 -12    3.59    0.91
  -4   0  12    3.48    1.52
   4   0 -11    1.31    0.84
  -4   0  11    0.45    0.54
   4   0 -10   11.42    1.03
  -4   0  10   10.77    0.91
   4   0  -9    5.32    0.91
  -4   0   9    5.91    0.74
   4   0  -8    6.11    0.90
  -4   0   8    6.42    0.61
   4   0  -7    0.42    0.94
  -4   0   7    0.17    0.63
   4   0  -6   47.91    1.53
  -4   0   6   49.30    1.50
   4   0  -5   17.46    0.98
  -4   0   5   19.90    1.08
   4   0  -4    5.69    0.55
  -4   0   4    5.72    0.57
   4   0  -4    6.27    0.58
   4   0  -3   72.80    1.12
   4   0  -3   70.31    1.22
  -4   0   3   73.26    1.32
   4   0  -3   70.28    1.14
   4   0  -2  364.44    3.09
   4   0  -2  372.38    3.25
  -4   0   2  371.32    3.53
   4   0  -2  355.11    3.20
   4   0  -1    0.22    0.15
   4   0  -1    0.49    0.44
  -4   0   1    0.46    0.73
   4   0  -1    0.30    0.36
   4   0   0   17.20    0.47
   4   0   0   16.40    0.53
  -4   0   0   17.34    0.78
   4   0   0   16.51    0.60
  -4   0  -1   83.36    1.06
   4   0   1   82.36    0.93
   4   0   1   77.96    1.19
  -4   0  -2    0.06    0.08
   4   0   2    0.01    0.13
  -4   0  -2   -0.08    0.55
   4   0   2    0.13    0.41
  -4   0  -3   33.86    0.61
   4   0   3   34.36    0.62
  -4   0  -3   33.40    1.13
  -4   0  -4   24.85    0.58
   4   0   4   23.89    0.57
  -4   0  -4   26.11    1.17
  -4   0  -5    1.12    0.25
   4   0   5    0.71    0.23
  -4   0  -5    1.59    0.65
  -4   0  -6    5.70    0.35
   4   0   6    5.77    0.35
  -4   0  -6    4.86    0.69
  -4   0  -7    1.06    0.25
   4   0   7    1.12    0.25
  -4   0  -7    0.79    0.53
  -4   0  -8    0.09    0.18
  -4   0  -8    0.11    0.71
  -4   0  -9   15.76    1.17
  -4   0 -10   23.31    0.69
  -4   0 -10   24.59    1.30
  -4   0 -11    0.93    0.56
   4   1 -13    1.09    0.87
  -4  -1  13    0.43    0.34
   4   1 -12    0.81    0.61
  -4  -1  12    1.31    0.59
   4   1 -11    3.76    0.77
  -4  -1  11    3.75    0.62
   4   1 -10   50.01    1.63
  -4  -1  10   47.90    1.46
   4   1  -9   21.92    1.12
  -4  -1   9   22.52    1.02
   4   1  -8    3.02    0.67
  -4  -1   8    3.68    0.56
   4   1  -7    0.72    0.64
  -4  -1   7    1.02    0.70
   4   1  -6    2.40    0.86
  -4  -1   6    2.62    0.80
   4   1  -5    8.01    0.79
  -4  -1   5    8.92    0.92
   4   1  -4   45.29    0.98
   4   1  -4   47.31    1.12
   4   1  -3   75.19    1.10
   4   1  -3   73.48    1.27
  -4  -1   3   73.76    1.38
   4   1  -3   73.62    1.17
   4   1  -2  413.56    3.91
   4   1  -2  393.03    3.83
  -4  -1   2  413.03    4.29
   4   1  -2  407.97    4.02
  -4  -1   1  374.53    6.16
   4   1  -1  370.83    3.18
  -4  -1   1  375.18    3.85
   4   1  -1  356.04    3.24
  -4  -1   0    9.27    0.42
   4   1   0    9.13    0.39
  -4  -1   0    9.69    0.72
   4   1   0   10.28    0.56
  -4  -1  -1   50.21    0.88
   4   1   1   48.57    0.81
  -4  -1  -1   53.13    1.33
   4   1   1   47.84    0.98
  -4  -1  -2   85.40    1.18
   4   1   2   86.35    1.15
  -4  -1  -2   84.37    1.63
  -4  -1  -3    3.81    0.42
   4   1   3    4.06    0.37
  -4  -1  -3    3.75    0.66
  -4  -1  -4   12.22    0.57
   4   1   4   11.55    0.54
  -4  -1  -4   11.49    1.17
  -4  -1  -5    1.37    0.35
   4   1   5    1.43    0.31
  -4  -1  -5    1.20    0.60
  -4  -1  -6   10.44    0.54
   4   1   6    9.26    0.44
  -4  -1  -6    9.88    0.82
  -4  -1  -7   12.55    0.64
  -4  -1  -7   12.39    0.95
  -4  -1  -8    1.08    0.31
  -4  -1  -8    0.83    0.95
  -4  -1  -9    1.00    0.32
  -4  -1  -9    1.05    0.58
  -4  -1 -10    4.14    0.48
  -4  -1 -10    4.02    0.75
   4   2 -13    0.08    0.58
  -4  -2  13    0.36    0.39
   4   2 -12    0.52    0.54
  -4  -2  12    0.85    0.70
   4   2 -11    0.56    0.81
  -4  -2  11    0.30    0.45
   4   2 -10    3.50    0.77
  -4  -2  10    4.09    0.85
   4   2  -9    3.97    0.80
  -4  -2   9    4.10    0.62
   4   2  -8   67.41    1.65
  -4  -2   8   70.27    1.64
   4   2  -7    6.64    0.75
  -4  -2   7    8.73    0.91
   4   2  -6    0.13    0.64
  -4  -2   6    0.41    0.53
   4   2  -5   44.41    1.16
  -4  -2   5   45.20    1.18
   4   2  -4    6.02    0.58
  -4  -2   4    6.68    0.85
   4   2  -3   17.24    0.59
   4   2  -3   16.96    0.70
  -4  -2   3   16.69    0.77
   4   2  -3   17.17    0.72
  -4  -2   2    0.83    0.32
   4   2  -2    0.50    0.24
  -4  -2   2    0.72    0.49
   4   2  -2    0.74    0.46
  -4  -2   1   80.22    1.25
   4   2  -1   78.12    1.13
  -4  -2   1   77.31    1.39
   4   2  -1   75.17    1.27
  -4  -2   0    0.52    0.30
   4   2   0    0.10    0.20
  -4  -2   0    0.61    0.74
   4   2   0    0.30    0.44
  -4  -2  -1   42.80    0.92
   4   2   1   41.07    0.81
  -4  -2  -1   40.85    1.23
  -4  -2  -2    7.82    0.52
   4   2   2    7.28    0.45
  -4  -2  -2    7.57    0.81
  -4  -2  -3    0.81    0.36
   4   2   3    0.56    0.20
  -4  -2  -3    0.57    0.58
  -4  -2  -4    0.89    0.31
   4   2   4    0.53    0.24
  -4  -2  -4    1.15    0.89
  -4  -2  -5   22.40    0.78
  -4  -2  -5   20.69    1.12
  -4  -2  -6    6.90    0.51
  -4  -2  -6    6.29    0.78
  -4  -2  -7   74.06    1.26
  -4  -2  -7   72.42    2.04
  -4  -2  -8    0.16    0.24
  -4  -2  -8    0.23    0.90
  -4  -2  -9    1.54    0.40
  -4  -2  -9    1.51    0.88
  -4  -2 -10    0.38    0.31
  -4  -2 -10    1.16    0.88
   4   3 -13    2.90    0.86
  -4  -3  13    2.56    1.16
   4   3 -12   17.54    1.06
  -4  -3  12   19.68    1.04
   4   3 -11   15.13    1.10
  -4  -3  11   14.07    0.93
   4   3 -10    0.56    0.85
  -4  -3  10    0.17    0.45
   4   3  -9    7.75    0.88
  -4  -3   9    6.77    0.65
   4   3  -8    0.16    0.55
  -4  -3   8   -0.38    0.43
   4   3  -7    0.67    0.59
   4   3  -6    1.07    0.55
  -4  -3   6    1.27    0.50
   4   3  -5    0.73    0.49
  -4  -3   5    1.09    0.48
  -4  -3   4    3.17    0.57
  -4  -3   4    2.04    0.61
  -4  -3   3   18.36    0.82
  -4  -3   3   17.22    0.80
  -4  -3   2   35.55    1.00
  -4  -3   2   35.27    1.08
  -4  -3   1   41.17    1.05
   4   3  -1   38.62    0.87
  -4  -3   1   41.89    1.20
  -4  -3   0   10.71    0.70
   4   3   0    9.58    0.50
  -4  -3   0   10.73    0.81
  -4  -3  -1   10.66    0.65
   4   3   1    9.60    0.55
  -4  -3  -1   11.08    0.85
  -4  -3  -2    1.56    0.34
  -4  -3  -2    1.73    0.65
  -4  -3  -3   12.23    0.68
  -4  -3  -3   11.93    1.17
  -4  -3  -4    8.17    0.61
  -4  -3  -4    8.05    0.81
  -4  -3  -5   14.17    0.76
  -4  -3  -6    2.67    0.41
  -4  -3  -7    0.82    0.45
  -4  -3  -7    0.30    0.55
  -4  -3  -8    1.49    0.42
  -4  -3  -8    1.27    0.73
  -4  -3  -9   -0.09    0.28
  -4  -3  -9    0.35    0.71
   4   4 -13   13.98    1.12
  -4  -4  13   10.89    3.16
   4   4 -12    2.59    0.81
  -4  -4  12    1.65    0.52
   4   4 -11   16.35    1.18
  -4  -4  11   15.33    1.06
   4   4 -10    0.34    0.57
  -4  -4  10    0.58    0.58
   4   4  -9   -0.16    0.59
  -4  -4   9   -0.03    0.38
   4   4  -8    2.93    0.62
  -4  -4   8    4.25    0.76
   4   4  -7    2.57    0.63
  -4  -4   7    2.76    0.60
   4   4  -6    2.46    0.53
  -4  -4   6    3.89    0.85
  -4  -4   5   31.88    1.25
  -4  -4   4    5.54    2.08
  -4  -4   3   15.93    1.26
  -4  -4   2   59.47    1.56
  -4  -4   1    5.06    0.62
  -4  -4   1    4.54    0.83
  -4  -4   0    0.67    0.38
  -4  -4   0    0.57    0.33
  -4  -4  -1    3.42    0.76
  -4  -4  -1    4.11    0.92
  -4  -4  -2   36.54    1.22
  -4  -4  -2   39.09    1.49
  -4  -4  -3    1.27    0.46
  -4  -4  -3    0.55    0.53
  -4  -4  -4   30.49    1.11
  -4  -4  -4   29.70    1.14
  -4  -4  -5    0.88    0.49
  -4  -4  -6    6.79    0.71
  -4  -4  -6    6.87    0.86
  -4  -4  -7    0.60    0.46
  -4  -4  -7    0.61    0.51
  -4  -4  -8    0.63    0.46
  -4  -4  -8    0.30    0.49
   4   5 -12    3.90    0.88
  -4  -5  12    3.23    0.60
   4   5 -11    3.51    0.66
  -4  -5  11    3.88    0.73
   4   5 -10    1.92    0.78
  -4  -5  10    2.24    0.54
   4   5  -9    0.24    0.55
  -4  -5   9    0.52    0.57
   4   5  -8    8.34    0.83
  -4  -5   8    8.49    0.72
   4   5  -7    2.67    0.66
  -4  -5   7    3.11    0.69
  -4  -5   6   10.85    0.68
  -4  -5   5   41.14    1.34
  -4  -5   5   40.15    1.16
  -4  -5   4    3.34    1.29
  -4  -5   4    3.07    0.69
  -4  -5   3   17.02    2.22
  -4  -5   3   16.10    0.91
  -4  -5   2    3.71    0.57
  -4  -5   2    3.41    0.78
  -4  -5   1    7.28    0.86
  -4  -5   1    6.35    0.72
  -4  -5   0   15.49    0.91
  -4  -5   0   14.43    0.85
  -4  -5  -1    4.85    0.56
  -4  -5  -1    4.21    0.63
  -4  -5  -2    2.00    0.57
  -4  -5  -2    1.38    0.56
  -4  -5  -3   11.74    0.76
  -4  -5  -3   11.71    0.87
  -4  -5  -4    3.22    0.52
  -4  -5  -4    2.44    0.52
  -4  -5  -5    0.55    0.47
  -4  -5  -5    0.88    0.52
  -4  -5  -6    0.61    0.34
  -4  -5  -6    0.70    0.73
  -4  -5  -7    0.15    0.33
  -4  -5  -7    0.45    0.54
   4   6 -12    0.98    0.73
  -4  -6  12    1.33    0.52
   4   6 -11   11.23    1.17
  -4  -6  11   11.40    0.83
   4   6 -10   13.96    0.92
  -4  -6  10   14.91    0.99
   4   6  -9   18.61    1.34
  -4  -6   9   15.44    0.84
   4   6  -8    8.68    0.82
  -4  -6   8    8.63    0.69
   4   6  -7    4.79    0.81
  -4  -6   7    5.47    0.58
  -4  -6   6   12.23    2.72
  -4  -6   6   10.84    0.75
  -4  -6   5   10.15    2.11
  -4  -6   5   10.58    0.83
  -4  -6   4   67.59    2.12
  -4  -6   4   66.20    1.43
  -4  -6   3    1.40    0.51
  -4  -6   3    2.14    0.55
  -4  -6   2    1.54    0.42
  -4  -6   2    1.80    0.48
  -4  -6   1    8.43    0.70
  -4  -6   1    8.17    0.69
  -4  -6   0    0.62    0.62
  -4  -6   0    0.06    0.35
  -4  -6  -1    4.91    0.62
  -4  -6  -1    5.47    0.72
  -4  -6  -2    0.31    0.42
  -4  -6  -2    0.17    0.42
  -4  -6  -3    6.37    0.72
  -4  -6  -3    5.76    0.92
  -4  -6  -4    3.06    0.54
  -4  -6  -4    3.69    0.73
  -4  -6  -5    1.38    0.50
  -4  -6  -5    0.98    0.51
  -4  -6  -6    6.82    0.75
  -4  -6  -6    5.92    0.81
   4   7 -11    0.50    0.69
  -4  -7  11    0.36    0.35
   4   7 -10   15.43    1.17
  -4  -7  10   14.65    0.85
   4   7  -9   11.33    1.07
  -4  -7   9   10.82    0.71
   4   7  -8    0.90    0.67
  -4  -7   8    1.12    0.48
  -4  -7   7    6.22    0.80
  -4  -7   7    5.64    0.61
  -4  -7   6    0.46    0.29
  -4  -7   6    0.55    0.31
  -4  -7   5    0.48    0.45
  -4  -7   5    0.74    0.40
  -4  -7   4    3.53    1.35
  -4  -7   4    3.79    0.48
  -4  -7   3   25.79    1.14
  -4  -7   3   25.37    0.94
  -4  -7   2    8.25    0.99
  -4  -7   2    7.17    0.60
  -4  -7   1    7.98    0.74
  -4  -7   1    7.52    0.71
  -4  -7   0   16.29    1.06
  -4  -7   0   14.16    0.86
  -4  -7  -1    5.84    0.89
  -4  -7  -1    5.00    0.67
  -4  -7  -2    1.28    0.38
  -4  -7  -2    1.30    0.44
  -4  -7  -3    0.45    0.54
  -4  -7  -3    0.06    0.42
  -4  -7  -4    0.51    0.41
  -4  -7  -4    0.60    0.60
  -4  -7  -5    0.59    0.67
  -4  -7  -5    0.08    0.46
   4   8 -10    0.29    0.71
  -4  -8  10    0.19    0.30
   4   8  -9    0.41    0.48
  -4  -8   9    0.30    0.41
   4   8  -8   13.55    1.02
  -4  -8   8   14.89    0.80
  -4  -8   7   10.94    2.44
  -4  -8   7   12.16    0.76
  -4  -8   6    5.01    1.64
  -4  -8   6    4.98    0.58
  -4  -8   5    1.26    0.64
  -4  -8   5    1.33    0.42
  -4  -8   4    0.61    0.66
  -4  -8   4    0.98    0.46
  -4  -8   3    0.36    0.49
  -4  -8   3    0.16    0.35
  -4  -8   2    5.69    0.82
  -4  -8   2    5.59    0.54
  -4  -8   1    8.83    0.79
  -4  -8   1   10.06    0.71
  -4  -8   0    9.92    0.80
  -4  -8   0    9.92    0.69
  -4  -8  -1    0.77    0.44
  -4  -8  -1    0.53    0.28
  -4  -8  -2    0.31    0.44
  -4  -8  -2    0.58    0.48
  -4  -8  -3    4.67    0.78
  -4  -8  -3    3.23    0.58
  -4  -9   8    4.08    0.71
  -4  -9   8    3.87    0.46
  -4  -9   7    0.52    0.36
  -4  -9   7    0.19    0.23
  -4  -9   6   18.37    1.02
  -4  -9   6   18.39    0.76
  -4  -9   5    2.64    0.95
  -4  -9   5    2.86    0.50
  -4  -9   4    1.11    0.56
  -4  -9   4    0.94    0.36
  -4  -9   3    2.72    0.59
  -4  -9   3    2.40    0.39
  -4  -9   2    1.59    0.53
  -4  -9   2    1.46    0.39
  -4  -9   1    2.16    0.69
  -4  -9   1    2.10    0.42
  -4  -9   0    0.45    0.50
  -4  -9   0   -0.01    0.21
  -4  -9  -1    0.08    0.50
  -4  -9  -1    0.46    0.29
   5 -10   0   10.16    0.70
   5 -10   1    6.54    0.56
   5 -10   2    0.13    0.19
   5  -9  -3    0.27    0.41
   5  -9  -2    0.73    0.54
   5  -9  -1    5.60    0.64
   5  -9   0    1.75    0.45
   5  -9   1    1.45    0.31
   5  -9   2    0.33    0.32
   5  -9   3    1.01    0.25
   5  -8  -5    0.42    0.67
   5  -8  -4    2.26    0.56
   5  -8  -3    5.46    0.86
   5  -8  -2    4.90    0.78
   5  -8  -1    1.15    0.38
   5  -8   0    1.85    0.43
   5  -8   1    0.40    0.34
  -5   8  -1    0.60    0.18
   5  -8   2    2.34    0.36
  -5   8  -2    2.96    0.27
   5  -8   3    2.50    0.32
  -5   8  -3    2.33    0.27
   5  -8   4   14.23    0.38
  -5   8  -5    9.92    0.55
  -5   8  -6    2.56    0.46
  -5   8  -7    7.32    0.58
  -5   8  -8    0.56    0.55
   5  -7  -7    9.52    1.15
  -5   7   7    7.86    1.45
   5  -7  -6    0.17    0.41
  -5   7   6    0.09    0.15
   5  -7  -5   -0.08    0.49
  -5   7   5    0.36    0.21
   5  -7  -4    5.82    0.82
  -5   7   4    4.49    0.36
   5  -7  -3   30.86    1.14
  -5   7   3   31.26    0.78
   5  -7  -2    6.32    0.84
  -5   7   2    5.50    0.35
   5  -7  -1    0.94    0.52
  -5   7   1    0.36    0.23
   5  -7   0    5.01    0.61
  -5   7   0    4.74    0.37
   5  -7   1    7.43    0.52
  -5   7  -1    6.67    0.39
   5  -7   1    6.23    0.36
   5  -7   2    6.14    0.37
  -5   7  -2    6.28    0.47
   5  -7   3    0.08    0.13
  -5   7  -3    0.35    0.44
   5  -7   4    0.07    0.05
  -5   7  -4    0.21    0.43
  -5   7  -5    0.25    0.33
  -5   7  -6    0.84    0.41
  -5   7  -7    1.71    0.46
  -5   7  -8    7.27    0.67
  -5   7  -9    1.06    0.55
  -5   6   8    1.52    0.78
   5  -6  -7    0.62    0.75
  -5   6   7    0.67    0.31
   5  -6  -6    0.22    0.49
  -5   6   6    0.09    0.23
   5  -6  -5    1.91    0.66
  -5   6   5    1.37    0.33
   5  -6  -4    0.45    0.77
  -5   6   4    0.47    0.37
   5  -6  -3   41.94    1.43
  -5   6   3   43.87    1.13
   5  -6  -2   25.25    1.02
  -5   6   2   24.65    0.82
   5  -6  -2   23.31    0.75
   5  -6  -1   47.76    1.21
  -5   6   1   47.10    1.05
   5  -6  -1   44.86    0.94
   5  -6   0    0.24    0.30
  -5   6   0    0.31    0.25
  -5   6   0    0.05    0.31
   5  -6   0    0.08    0.19
   5  -6   1   18.23    0.67
  -5   6  -1   17.05    0.56
  -5   6  -1   18.03    0.67
   5  -6   1   18.06    0.62
   5  -6   2   50.86    0.88
  -5   6  -2   52.37    1.18
   5  -6   2   45.69    0.91
   5  -6   3   25.18    0.52
  -5   6  -3   23.72    0.44
  -5   6  -3   26.01    0.89
  -5   6  -4    0.03    0.33
  -5   6  -5    7.00    0.74
  -5   6  -6    7.84    0.66
  -5   6  -7    5.08    0.75
  -5   6  -8    0.33    0.45
  -5   6  -9    3.72    0.67
  -5   6 -10    3.77    0.84
   5  -5  -9    3.87    0.84
  -5   5   9    3.03    1.45
   5  -5  -8    5.40    0.98
  -5   5   8    4.66    1.00
  -5   5   7   23.38    0.88
   5  -5  -6    8.54    1.15
  -5   5   6    8.89    0.67
   5  -5  -5    1.08    0.57
  -5   5   5    1.68    0.42
   5  -5  -4    0.98    0.45
  -5   5   4    1.17    0.37
   5  -5  -3    2.86    0.67
  -5   5   3    2.95    0.42
   5  -5  -2   35.11    1.04
  -5   5   2   37.31    1.00
   5  -5  -2   31.88    0.82
   5  -5  -1    0.20    0.38
  -5   5   1    0.38    0.21
  -5   5   1    0.34    0.55
   5  -5  -1    0.38    0.26
   5  -5   0    3.39    0.42
  -5   5   0    3.20    0.31
  -5   5   0    3.44    0.44
   5  -5   0    3.80    0.44
   5  -5   1   13.35    0.54
  -5   5  -1   12.12    0.47
  -5   5  -1   12.77    0.69
   5  -5   1   12.12    0.59
   5  -5   2    0.13    0.18
  -5   5  -2    0.39    0.22
  -5   5  -2    0.56    0.64
   5  -5   2    0.20    0.30
  -5   5  -3    2.55    0.45
  -5   5  -4   18.43    0.91
  -5   5  -5   73.03    1.89
  -5   5  -6    0.52    0.68
  -5   5  -7    0.21    0.48
  -5   5  -8    0.99    0.52
  -5   5  -9    1.75    0.56
  -5   5 -10    1.33    0.71
   5  -4 -10    0.87    0.56
  -5   4  10    0.94    0.51
   5  -4  -9    0.66    0.58
  -5   4   9    0.24    0.30
   5  -4  -8    5.28    0.86
  -5   4   8    6.08    0.62
   5  -4  -7    0.49    0.57
  -5   4   7    0.47    0.46
  -5   4   6    1.94    0.36
   5  -4  -5    3.69    0.63
  -5   4   5    4.24    0.57
   5  -4  -4    8.73    0.73
  -5   4   4    8.85    0.67
   5  -4  -3    3.10    0.62
  -5   4   3    3.56    0.48
   5  -4  -2   30.06    1.09
  -5   4   2   27.52    0.89
  -5   4   2   29.54    1.04
   5  -4  -2   29.66    0.98
   5  -4  -1  128.51    2.79
  -5   4   1  120.45    2.52
  -5   4   1  125.93    2.75
   5  -4  -1  117.02    2.56
   5  -4   0   51.33    1.28
  -5   4   0   49.71    1.21
  -5   4   0   50.02    1.45
   5  -4   0   45.53    1.21
   5  -4   1    5.90    0.40
  -5   4  -1    5.22    0.29
  -5   4  -1    6.12    0.76
   5  -4   2    7.19    0.26
   5  -4   2    7.30    0.31
  -5   4  -2    7.00    0.83
  -5   4  -3    8.40    0.92
  -5   4  -4   56.28    1.47
  -5   4  -5    8.31    0.92
  -5   4  -6    0.68    0.47
  -5   4  -7    0.20    0.47
  -5   4  -8    0.88    0.76
  -5   4  -9    1.38    0.74
  -5   4 -10   12.75    0.97
   5  -3 -11    0.68    0.59
  -5   3  11    0.20    0.29
   5  -3 -10    4.65    0.95
  -5   3  10    5.31    1.09
   5  -3  -9    6.65    0.91
  -5   3   9    6.13    0.64
   5  -3  -8    0.52    0.57
  -5   3   8    0.67    0.35
   5  -3  -7    1.89    0.55
  -5   3   7    1.33    0.39
   5  -3  -6    6.48    0.79
  -5   3   6    6.75    0.72
   5  -3  -5    0.99    0.53
  -5   3   5    1.06    0.38
   5  -3  -4   20.84    1.10
  -5   3   4   21.97    0.97
   5  -3  -3    3.41    0.55
  -5   3   3    3.72    0.53
   5  -3  -2   50.23    1.35
  -5   3   2   47.52    1.21
  -5   3   2   49.37    1.38
   5  -3  -1    0.38    0.52
  -5   3   1    0.32    0.30
  -5   3   1    0.26    0.44
   5  -3  -1    0.07    0.27
   5  -3   0    1.01    0.32
  -5   3   0    1.07    0.21
  -5   3   0    1.14    0.43
   5  -3   0    0.75    0.29
   5  -3   1    4.48    0.48
   5  -3   1    4.44    0.33
  -5   3  -1    4.55    0.68
  -5   3  -2   36.85    1.28
  -5   3  -3   10.86    1.15
  -5   3  -4    2.47    0.67
  -5   3  -5   18.50    1.00
  -5   3  -6    1.97    0.61
  -5   3  -7    7.55    0.83
  -5   3  -8    6.62    0.77
  -5   3  -9   27.32    1.25
  -5   3 -10    6.20    0.87
   5  -2 -11    0.73    0.76
  -5   2  11    0.35    0.40
   5  -2 -10    2.70    0.75
  -5   2  10    3.03    0.55
   5  -2  -9    1.20    0.52
  -5   2   9    0.78    0.45
   5  -2  -8   12.75    1.10
  -5   2   8   10.77    0.75
   5  -2  -7    9.70    0.91
  -5   2   7    9.05    0.67
   5  -2  -6    5.47    0.76
  -5   2   6    5.49    0.58
  -5   2   5   87.64    2.22
   5  -2  -4   43.33    1.45
  -5   2   4   42.62    1.31
   5  -2  -3   89.92    2.11
  -5   2   3   78.62    1.67
  -5   2   3   86.91    2.06
   5  -2  -2   33.92    0.94
  -5   2   2   32.59    0.77
  -5   2   2   35.19    1.11
   5  -2  -1    8.47    0.43
   5  -2  -1    7.97    0.53
  -5   2   1    7.97    0.70
   5  -2   0   10.62    0.38
   5  -2   0   11.05    0.52
  -5   2   0   10.49    0.93
   5  -2   1   26.99    0.49
   5  -2   1   26.49    0.57
  -5   2  -1   27.67    1.12
   5  -2   2   13.89    0.37
  -5   2  -2   14.52    1.01
  -5   2  -3    0.26    0.68
  -5   2  -4    0.59    0.67
  -5   2  -5    0.84    0.39
  -5   2  -6    9.58    0.86
  -5   2  -7    0.69    0.64
  -5   2  -8   32.42    1.45
  -5   2  -9    0.69    0.56
  -5   2 -10    1.89    0.93
   5  -1 -12    6.40    1.13
  -5   1  12    4.75    1.46
   5  -1 -11    6.42    0.89
  -5   1  11    7.12    0.76
   5  -1 -10   32.66    1.33
  -5   1  10   33.21    1.13
   5  -1  -9    0.41    0.67
  -5   1   9    0.28    0.42
   5  -1  -8    1.13    0.61
  -5   1   8    0.95    0.36
   5  -1  -7   16.28    0.97
  -5   1   7   17.57    0.95
   5  -1  -6    3.18    0.85
  -5   1   6    2.13    0.52
   5  -1  -5    9.56    0.81
  -5   1   5    9.95    0.96
  -5   1   4   71.00    1.81
   5  -1  -3    1.53    0.28
   5  -1  -3    1.78    0.48
  -5   1   3    1.34    0.60
   5  -1  -2    1.58    0.44
   5  -1  -2    3.33    0.55
  -5   1   2    2.28    0.81
   5  -1  -1   33.09    0.71
   5  -1  -1   32.57    0.84
  -5   1   1   32.46    1.15
   5  -1   0    0.24    0.20
   5  -1   0    0.49    0.51
  -5   1   0    0.28    0.64
   5  -1   1   11.42    0.39
   5  -1   1   11.28    0.46
  -5   1  -1   10.88    0.91
   5  -1   2   84.93    1.60
   5  -1   2   82.75    1.58
  -5   1  -2   89.48    2.31
   5  -1   3    7.90    0.31
  -5   1  -3    7.52    1.20
   5  -1   4    1.27    0.18
  -5   1  -4    1.38    0.60
  -5   1  -5    0.07    0.09
   5  -1   5    0.22    0.18
  -5   1  -5   -0.14    0.66
  -5   1  -6   48.97    0.73
   5  -1   6   50.11    0.77
  -5   1  -6   48.35    1.57
  -5   1  -7   65.74    0.97
  -5   1  -7   74.97    1.94
  -5   1  -8    2.47    0.22
  -5   1  -8    2.41    0.63
  -5   1  -9    9.06    0.92
  -5   1 -10    0.36    0.62
   5   0 -12    1.07    0.89
  -5   0  12    0.81    0.50
   5   0 -11    1.58    0.74
  -5   0  11    1.37    0.55
   5   0 -10   50.75    1.69
  -5   0  10   52.30    1.52
   5   0  -9   10.99    1.02
  -5   0   9    9.76    0.74
   5   0  -8    4.86    0.77
  -5   0   8    5.09    0.79
   5   0  -7   82.12    1.91
  -5   0   7   86.40    1.89
   5   0  -6   30.04    1.36
  -5   0   6   31.11    1.40
   5   0  -5   23.11    1.10
  -5   0   5   24.06    1.06
   5   0  -4   70.26    1.70
  -5   0   4   72.45    1.88
   5   0  -3    1.86    0.77
   5   0  -3    2.60    0.63
  -5   0   3    3.01    0.71
   5   0  -2    0.28    0.13
   5   0  -2    0.72    0.39
  -5   0   2    0.83    0.40
   5   0  -1   84.05    1.18
   5   0  -1   79.92    1.28
  -5   0   1   84.90    1.67
   5   0   0    0.01    0.16
   5   0   0    0.12    0.38
  -5   0   0    0.90    0.94
   5   0   1    3.87    0.29
   5   0   1    3.68    0.40
  -5   0  -1    3.64    0.80
  -5   0  -2    9.04    0.45
   5   0   2    9.08    0.39
  -5   0  -2    9.86    1.06
  -5   0  -3   30.11    0.81
   5   0   3   29.44    0.79
  -5   0  -3   29.40    1.36
  -5   0  -4    1.46    0.23
   5   0   4    1.18    0.22
  -5   0  -4    1.22    0.62
  -5   0  -5    3.25    0.26
   5   0   5    2.76    0.28
  -5   0  -5    2.26    0.61
  -5   0  -6    1.73    0.26
   5   0   6    1.39    0.27
  -5   0  -6    1.47    0.67
  -5   0  -7    4.72    0.35
  -5   0  -7    4.54    0.71
  -5   0  -8    7.21    0.37
  -5   0  -8    5.42    0.76
  -5   0  -9    4.40    0.81
  -5   0 -10    0.05    0.57
   5   1 -12    5.67    1.12
  -5  -1  12    3.99    0.68
   5   1 -11    0.20    0.53
  -5  -1  11    0.91    0.52
   5   1 -10    3.65    0.86
  -5  -1  10    2.63    0.74
   5   1  -9    8.41    1.04
  -5  -1   9    7.60    0.78
   5   1  -8   15.36    1.01
  -5  -1   8   15.98    0.95
   5   1  -7   24.50    1.10
  -5  -1   7   24.71    1.05
  -5  -1   6    7.42    0.72
   5   1  -5    1.22    0.92
  -5  -1   5    0.84    0.79
   5   1  -4   58.67    1.58
  -5  -1   4   58.51    1.67
  -5  -1   3   26.22    1.15
   5   1  -2    8.80    0.52
   5   1  -2    9.20    0.73
  -5  -1   2    8.73    1.00
   5   1  -1   72.92    1.15
   5   1  -1   73.01    1.28
  -5  -1   1   74.86    1.70
  -5  -1   0   16.56    1.10
   5   1   0   15.38    0.53
  -5  -1   0   16.27    1.06
  -5  -1  -1    2.10    0.68
   5   1   1    1.30    0.26
  -5  -1  -1    1.55    0.68
  -5  -1  -2    1.72    0.35
   5   1   2    1.26    0.30
  -5  -1  -2    1.37    0.56
  -5  -1  -3   44.67    1.19
   5   1   3   41.29    1.07
  -5  -1  -3   41.41    1.51
  -5  -1  -4   96.91    1.53
   5   1   4   92.74    1.50
  -5  -1  -4   92.16    2.05
  -5  -1  -5   72.62    1.29
   5   1   5   66.22    1.21
  -5  -1  -5   71.55    1.87
  -5  -1  -6   12.10    0.61
  -5  -1  -6   11.15    1.02
  -5  -1  -7    1.44    0.29
  -5  -1  -7    1.28    0.48
  -5  -1  -8    0.19    0.25
  -5  -1  -8    0.12    0.57
  -5  -1  -9    0.19    0.22
  -5  -1  -9    0.40    0.84
   5   2 -12    0.34    0.58
  -5  -2  12   -0.07    0.42
   5   2 -11    3.52    0.86
  -5  -2  11    3.72    0.59
   5   2 -10   31.58    1.38
  -5  -2  10   31.87    1.26
   5   2  -9   20.67    1.16
  -5  -2   9   24.03    1.15
   5   2  -8    4.71    0.82
  -5  -2   8    5.15    0.63
   5   2  -7   47.22    1.50
  -5  -2   7   47.54    1.34
   5   2  -6    3.37    0.78
  -5  -2   6    3.24    0.63
   5   2  -5    1.30    0.66
  -5  -2   5    1.63    0.78
   5   2  -4   10.01    0.78
  -5  -2   4    9.55    0.89
   5   2  -3   13.11    0.75
  -5  -2   3   13.62    0.94
  -5  -2   2    0.14    0.44
  -5  -2   2    0.20    0.63
  -5  -2   1    4.76    1.22
   5   2  -1    4.17    0.36
  -5  -2   1    3.40    0.76
  -5  -2   0    7.11    1.46
   5   2   0    5.47    0.38
  -5  -2   0    6.83    1.05
  -5  -2  -1   39.15    1.10
   5   2   1   34.92    1.00
  -5  -2  -1   37.09    1.56
  -5  -2  -2   11.42    0.68
   5   2   2   10.10    0.51
  -5  -2  -2   11.94    1.13
  -5  -2  -3    0.76    0.24
   5   2   3    0.58    0.23
  -5  -2  -3    0.72    0.60
  -5  -2  -4   17.10    0.65
  -5  -2  -4   15.60    0.91
  -5  -2  -5   99.32    2.17
  -5  -2  -5   99.44    2.18
  -5  -2  -6    6.08    0.49
  -5  -2  -6    5.82    0.80
  -5  -2  -7   10.44    0.62
  -5  -2  -7   10.28    0.99
  -5  -2  -8    1.87    0.34
  -5  -2  -8    1.61    0.71
  -5  -2  -9    1.18    0.36
  -5  -2  -9    1.74    0.58
   5   3 -12   -0.08    0.58
  -5  -3  12    0.22    0.40
   5   3 -11    6.83    0.88
  -5  -3  11    7.08    0.74
   5   3 -10    5.74    0.86
  -5  -3  10    6.76    0.82
   5   3  -9   10.03    0.98
  -5  -3   9   10.09    0.84
   5   3  -8    0.31    0.56
  -5  -3   8    0.24    0.42
   5   3  -7   12.47    0.90
  -5  -3   7   11.82    0.89
   5   3  -6    1.10    0.47
  -5  -3   6    0.74    0.32
  -5  -3   5    8.72    0.81
   5   3  -4    4.57    0.66
  -5  -3   4    4.29    0.69
  -5  -3   3    2.71    1.27
  -5  -3   3    2.27    0.67
  -5  -3   2   17.57    1.23
  -5  -3   2   16.16    0.97
  -5  -3   1    1.39    0.48
  -5  -3   1    0.53    0.50
  -5  -3   0    3.60    0.45
  -5  -3   0    3.72    0.92
  -5  -3  -1   94.39    2.24
  -5  -3  -1   89.81    2.45
  -5  -3  -2  112.51    1.50
  -5  -3  -2  110.41    2.32
  -5  -3  -3   12.20    0.69
  -5  -3  -3   11.57    0.95
  -5  -3  -4   18.87    0.84
  -5  -3  -4   17.38    1.07
  -5  -3  -5   26.01    0.96
  -5  -3  -5   25.88    1.27
  -5  -3  -6   28.28    0.88
  -5  -3  -7    9.70    0.62
  -5  -3  -7    8.59    0.91
  -5  -3  -8    0.75    0.42
  -5  -3  -8    0.53    0.58
   5   4 -12   27.29    1.35
  -5  -4  12   26.96    1.24
   5   4 -11    1.38    0.63
  -5  -4  11    1.11    0.55
   5   4 -10    8.81    1.08
  -5  -4  10    7.64    0.79
   5   4  -9    1.22    0.56
  -5  -4   9    1.21    0.49
   5   4  -8   -0.17    0.60
  -5  -4   8    0.28    0.57
   5   4  -7    8.18    0.92
  -5  -4   7    8.01    0.68
   5   4  -6    3.23    0.70
  -5  -4   6    3.73    0.74
   5   4  -5    1.57    0.48
  -5  -4   5    1.47    0.40
  -5  -4   4   24.78    0.99
  -5  -4   4   23.36    1.07
  -5  -4   3   11.05    1.89
  -5  -4   2   10.19    1.80
  -5  -4   1    7.70    0.63
  -5  -4   0   75.73    1.69
  -5  -4   0   72.27    1.78
  -5  -4  -1    0.36    0.39
  -5  -4  -1    0.65    0.52
  -5  -4  -2    3.95    0.63
  -5  -4  -2    2.87    0.58
  -5  -4  -3    5.30    0.54
  -5  -4  -3    5.07    0.76
  -5  -4  -4    8.68    0.72
  -5  -4  -4    8.84    0.96
  -5  -4  -5    2.24    0.54
  -5  -4  -5    1.89    0.60
  -5  -4  -6    0.07    0.27
  -5  -4  -6   -0.01    0.48
  -5  -4  -7    0.77    0.40
  -5  -4  -7    0.51    0.54
   5   5 -12    0.15    0.59
  -5  -5  12    0.02    0.40
   5   5 -11    2.84    0.77
  -5  -5  11    3.25    0.69
   5   5 -10    1.36    0.59
  -5  -5  10    1.53    0.55
   5   5  -9    2.67    0.69
  -5  -5   9    2.82    0.70
   5   5  -8    2.17    0.71
  -5  -5   8    2.60    0.58
   5   5  -7    0.34    0.51
  -5  -5   7    0.49    0.46
   5   5  -6    5.87    0.69
  -5  -5   6    6.26    0.61
  -5  -5   5    5.87    0.78
  -5  -5   5    5.30    0.61
  -5  -5   4    1.92    0.56
  -5  -5   4    1.16    0.43
  -5  -5   3   14.10    2.11
  -5  -5   3   12.17    0.76
  -5  -5   2   34.41    2.09
  -5  -5   2   33.00    1.18
  -5  -5   1   37.73    1.20
  -5  -5   1   35.62    1.19
  -5  -5   0   26.78    1.08
  -5  -5   0   28.20    1.19
  -5  -5  -1    9.09    0.77
  -5  -5  -1    8.32    0.86
  -5  -5  -2    2.91    0.49
  -5  -5  -2    3.23    0.82
  -5  -5  -3    0.36    0.32
  -5  -5  -3    0.05    0.53
  -5  -5  -4    0.35    0.50
  -5  -5  -4    0.50    0.57
  -5  -5  -5    4.02    0.59
  -5  -5  -5    3.81    0.73
  -5  -5  -6    0.37    0.46
  -5  -5  -6    0.14    0.60
   5   6 -11    2.36    0.98
  -5  -6  11    1.11    0.49
   5   6 -10    8.16    1.19
  -5  -6  10    6.44    0.67
   5   6  -9   15.89    1.07
  -5  -6   9   15.60    0.95
   5   6  -8    0.38    0.45
  -5  -6   8    0.21    0.39
   5   6  -7    5.99    0.78
  -5  -6   7    6.45    0.63
  -5  -6   6   15.72    0.96
  -5  -6   6   16.87    0.89
  -5  -6   5    3.03    0.81
  -5  -6   5    3.13    0.65
  -5  -6   4    4.99    1.32
  -5  -6   4    5.00    0.60
  -5  -6   3   11.54    1.67
  -5  -6   3   13.31    0.86
  -5  -6   2   12.25    0.88
  -5  -6   2   12.75    0.85
  -5  -6   1    4.67    0.86
  -5  -6   1    5.38    0.79
  -5  -6   0    4.08    0.73
  -5  -6   0    3.55    0.83
  -5  -6  -1    8.87    0.74
  -5  -6  -1    9.05    0.82
  -5  -6  -2   14.01    1.00
  -5  -6  -2   13.57    1.04
  -5  -6  -3    8.18    0.83
  -5  -6  -3    8.48    0.84
  -5  -6  -4    1.94    0.59
  -5  -6  -4    1.33    0.59
  -5  -6  -5    0.29    0.34
  -5  -6  -5    0.05    0.58
   5   7 -10    0.49    0.53
  -5  -7  10    0.17    0.36
   5   7  -9   11.06    0.91
  -5  -7   9   11.18    0.79
   5   7  -8    0.27    0.62
  -5  -7   8    0.13    0.36
  -5  -7   7    0.12    0.34
  -5  -7   6    7.03    1.58
  -5  -7   6    7.12    0.75
  -5  -7   5    9.05    1.22
  -5  -7   5    8.06    0.79
  -5  -7   4   18.64    3.21
  -5  -7   4   19.19    0.98
  -5  -7   3   -0.09    0.47
  -5  -7   3    0.07    0.34
  -5  -7   2   20.08    1.03
  -5  -7   1   16.35    0.98
  -5  -7   1   15.40    0.93
  -5  -7   0    2.76    0.66
  -5  -7   0    2.93    0.55
  -5  -7  -1    3.80    0.75
  -5  -7  -1    2.87    0.70
  -5  -7  -2    9.58    0.74
  -5  -7  -2    8.79    0.86
  -5  -7  -3    2.90    0.56
  -5  -7  -3    2.97    0.77
   5   8  -9    4.02    1.06
  -5  -8   9    3.86    0.57
   5   8  -8    1.87    0.47
  -5  -8   8    3.38    0.54
  -5  -8   7    0.90    0.42
  -5  -8   7    0.81    0.29
  -5  -8   6    0.24    0.30
  -5  -8   6    0.24    0.45
  -5  -8   5   21.50    1.09
  -5  -8   5   20.75    1.02
  -5  -8   4    0.00    0.46
  -5  -8   4    0.06    0.31
  -5  -8   3   20.00    1.09
  -5  -8   3   19.20    0.94
  -5  -8   2   37.73    1.46
  -5  -8   2   35.44    1.16
  -5  -8   1    1.25    0.65
  -5  -8   1    1.09    0.52
  -5  -8   0    1.12    0.53
  -5  -8   0    1.38    0.55
  -5  -8  -1    0.73    0.61
  -5  -8  -1    0.32    0.49
  -5  -9   6    0.42    0.27
  -5  -9   5    5.23    1.92
  -5  -9   5    6.22    0.62
  -5  -9   4    2.33    0.96
  -5  -9   4    2.37    0.54
  -5  -9   3    5.15    0.79
  -5  -9   3    6.02    0.59
  -5  -9   2    1.72    0.73
  -5  -9   2    2.04    0.48
   6  -9  -1    1.93    0.50
   6  -9   0    0.07    0.25
   6  -9   1    0.25    0.25
   6  -8  -4    0.61    0.58
   6  -8  -3    0.81    0.40
   6  -8  -2    1.40    0.46
   6  -8  -1    4.14    0.56
   6  -8   0    0.07    0.24
   6  -8   1    5.39    0.46
  -6   8  -2   12.10    0.50
  -6   8  -3   19.53    0.63
  -6   8  -4   12.11    0.64
  -6   8  -5   12.02    0.70
  -6   8  -6    0.19    0.30
   6  -7  -6    0.51    0.69
  -6   7   6    0.86    0.32
   6  -7  -5    0.38    0.58
  -6   7   5    0.10    0.26
   6  -7  -4    4.70    0.69
  -6   7   4    4.73    0.44
   6  -7  -3    0.25    0.48
  -6   7   3    0.26    0.25
   6  -7  -2    1.07    0.47
  -6   7   2    1.16    0.27
   6  -7  -1    0.17    0.29
  -6   7   1    0.11    0.17
   6  -7   0    6.80    0.51
   6  -7   1    1.63    0.36
   6  -7   2   15.43    0.47
  -6   7  -2   15.70    0.72
  -6   7  -3    3.89    0.50
  -6   7  -4    0.38    0.45
  -6   7  -5    2.14    0.51
  -6   7  -6    0.30    0.39
  -6   7  -7    2.91    0.74
   6  -6  -7    3.36    0.71
  -6   6   7    3.23    0.50
   6  -6  -6   -0.11    0.53
  -6   6   6    0.03    0.22
   6  -6  -5    0.45    0.49
  -6   6   5    0.23    0.31
   6  -6  -4   61.18    1.58
  -6   6   4   59.95    1.20
   6  -6  -3    9.15    0.86
  -6   6   3    8.49    0.57
   6  -6  -2    1.67    0.48
  -6   6   2    1.65    0.37
   6  -6  -1    9.62    0.68
  -6   6   1    9.26    0.60
   6  -6   0   50.23    1.17
  -6   6   0   48.49    1.15
   6  -6   1   31.44    0.74
  -6   6  -1   31.74    1.00
  -6   6  -2   18.82    0.84
  -6   6  -3    3.86    0.50
  -6   6  -4    4.92    0.64
  -6   6  -5    1.23    0.63
  -6   6  -6    1.68    0.65
  -6   6  -7    5.42    0.70
  -6   6  -8    9.34    0.85
   6  -5  -8    2.27    0.71
  -6   5   8    2.02    0.42
   6  -5  -7    6.88    0.86
  -6   5   7    6.05    0.64
   6  -5  -6    0.68    0.75
  -6   5   6    0.41    0.39
   6  -5  -5    1.21    0.55
  -6   5   5    1.71    0.44
   6  -5  -4    7.62    0.87
  -6   5   4    6.74    0.55
   6  -5  -3    1.22    0.41
  -6   5   3    1.04    0.46
   6  -5  -2   15.68    0.85
  -6   5   2   15.11    0.74
   6  -5  -1    0.11    0.31
  -6   5   1    0.25    0.22
  -6   5   1    0.08    0.31
   6  -5   0    0.71    0.33
  -6   5   0    0.31    0.14
  -6   5   0    0.62    0.36
   6  -5   1   14.58    0.56
  -6   5  -1   12.77    0.43
  -6   5  -1   14.11    0.78
   6  -5   2    0.43    0.12
  -6   5  -2    0.20    0.39
  -6   5  -3    1.60    0.41
  -6   5  -4    6.58    0.67
  -6   5  -5   87.58    2.14
  -6   5  -6    0.17    0.47
  -6   5  -7    0.44    0.46
  -6   5  -8    1.56    0.63
  -6   5  -9    1.69    0.62
  -6   4   9    4.70    0.59
   6  -4  -8    0.14    0.55
  -6   4   8    0.02    0.30
   6  -4  -7   17.64    1.05
  -6   4   7   15.94    0.81
   6  -4  -6    1.19    0.78
   6  -4  -5    2.09    0.68
  -6   4   5    1.67    0.50
   6  -4  -4    5.42    0.65
  -6   4   4    6.33    0.68
   6  -4  -3   33.10    1.06
  -6   4   3   32.28    1.01
   6  -4  -2   65.34    1.43
  -6   4   2   64.64    1.43
   6  -4  -1   20.69    0.72
  -6   4   1   19.05    0.60
  -6   4   1   20.05    0.87
   6  -4   0   26.26    0.74
  -6   4   0   25.62    1.00
   6  -4   1    0.56    0.20
  -6   4  -1    0.13    0.48
  -6   4  -2    6.12    0.69
  -6   4  -3    4.57    0.68
  -6   4  -4   10.19    1.08
  -6   4  -5   66.30    1.78
  -6   4  -6    4.75    0.68
  -6   4  -7   33.58    1.42
  -6   4  -8   15.98    1.08
  -6   4  -9    5.27    0.99
   6  -3 -10    0.45    0.64
  -6   3  10    0.17    0.35
   6  -3  -9    1.08    0.68
  -6   3   9    1.34    0.48
  -6   3   8    1.69    0.43
   6  -3  -7    5.11    0.86
  -6   3   7    4.72    0.65
   6  -3  -6    3.72    0.74
  -6   3   6    3.53    0.68
   6  -3  -5    5.75    0.68
  -6   3   5    6.16    0.74
   6  -3  -4    1.68    0.61
  -6   3   4    1.59    0.58
   6  -3  -3    2.94    0.48
  -6   3   3    3.52    0.65
   6  -3  -2    0.88    0.39
  -6   3   2    0.98    0.21
  -6   3   2    1.07    0.47
   6  -3  -1   19.69    0.82
   6  -3  -1   20.73    0.72
  -6   3   1   20.20    1.11
   6  -3   0   81.92    1.28
   6  -3   0   87.35    1.45
  -6   3   0   83.76    1.80
   6  -3   1    0.09    0.09
   6  -3   1    0.11    0.16
  -6   3  -1    0.06    0.60
   6  -3   2   12.62    0.25
   6  -3   2   13.10    0.27
  -6   3  -2   13.58    0.92
  -6   3  -3   23.55    1.08
  -6   3  -4   17.95    1.11
  -6   3  -5    0.32    0.53
  -6   3  -6    0.15    0.55
  -6   3  -7    1.32    0.62
  -6   3  -8    3.87    0.70
  -6   3  -9    7.42    0.90
   6  -2 -10    1.86    0.80
  -6   2  10    1.07    0.45
   6  -2  -9    2.87    0.77
  -6   2   9    3.38    0.64
   6  -2  -8    0.16    0.58
  -6   2   8    0.35    0.61
  -6   2   7   11.88    0.89
   6  -2  -6    0.08    0.53
  -6   2   6    0.73    0.53
   6  -2  -5   50.81    1.40
  -6   2   5   51.24    1.34
   6  -2  -4   56.64    1.47
  -6   2   4   54.98    1.40
   6  -2  -3   22.88    1.00
  -6   2   3   22.64    1.13
   6  -2  -2    0.57    0.21
   6  -2  -2    0.61    0.47
  -6   2   2    0.62    0.53
   6  -2  -1    0.17    0.15
   6  -2  -1    0.34    0.46
  -6   2   1   -0.19    0.61
   6  -2   0   20.40    0.63
   6  -2   0   20.45    0.73
  -6   2   0   20.36    1.15
   6  -2   1    9.91    0.38
   6  -2   1    9.50    0.42
  -6   2  -1   10.04    0.88
   6  -2   2    0.82    0.13
  -6   2  -2    1.17    0.68
  -6   2  -3    3.89    0.62
  -6   2  -4   25.81    1.20
  -6   2  -5   50.06    1.79
  -6   2  -6   26.72    1.26
  -6   2  -7    0.67    0.84
  -6   2  -8   13.11    1.25
  -6   2  -9    2.99    0.88
   6  -1 -11    4.62    1.05
  -6   1  11    4.48    0.68
   6  -1 -10   23.21    1.31
  -6   1  10   22.95    1.03
   6  -1  -9    4.36    0.82
  -6   1   9    4.32    0.59
   6  -1  -8    0.86    0.77
  -6   1   8    1.11    0.48
   6  -1  -7   -0.06    0.53
  -6   1   7    0.55    0.71
   6  -1  -6   34.48    1.24
  -6   1   6   37.69    1.27
   6  -1  -5    0.32    0.57
  -6   1   5    0.23    0.71
   6  -1  -4   12.72    0.93
  -6   1   4   13.96    1.00
   6  -1  -3   38.10    1.29
  -6   1   3   36.62    1.34
   6  -1  -2    8.16    0.44
   6  -1  -2    9.51    0.77
  -6   1   2    9.25    1.02
   6  -1  -1    0.69    0.26
   6  -1  -1    0.67    0.32
  -6   1   1    0.23    0.64
   6  -1   0    5.06    0.36
   6  -1   0    5.03    0.47
  -6   1   0    4.75    0.83
   6  -1   1   42.77    1.01
   6  -1   1   43.56    1.09
  -6   1  -1   44.40    1.66
   6  -1   2   57.79    0.93
   6  -1   2   57.68    0.97
  -6   1  -2   58.89    1.64
   6  -1   3    2.42    0.18
   6  -1   3    1.99    0.23
  -6   1  -3    2.26    0.68
   6  -1   4    3.96    0.21
   6  -1   4    4.35    0.26
  -6   1  -4    3.94    0.73
   6  -1   5    6.47    0.21
  -6   1  -5    6.21    0.79
  -6   1  -6    3.24    0.71
  -6   1  -7    8.96    0.87
  -6   1  -8    5.36    0.83
  -6   1  -9    0.57    0.61
   6   0 -11    5.83    0.85
  -6   0  11    6.23    0.79
   6   0 -10    1.87    0.66
  -6   0  10    1.38    0.49
   6   0  -9    0.11    0.60
  -6   0   9    0.31    0.40
   6   0  -8    9.35    0.87
  -6   0   8   11.32    0.84
   6   0  -7   29.64    1.25
  -6   0   7   31.03    1.32
  -6   0   6   28.68    1.31
   6   0  -5    2.55    0.47
  -6   0   5    2.67    0.61
   6   0  -4    0.93    0.74
  -6   0   4    0.50    0.53
   6   0  -3    8.87    0.75
  -6   0   3    8.69    0.83
   6   0  -2   23.97    0.94
  -6   0   2   24.04    1.17
   6   0  -1   55.77    1.36
   6   0  -1   60.00    1.56
  -6   0   1   59.31    1.83
   6   0   0    0.15    0.22
   6   0   0    0.00    0.32
  -6   0   0   -0.15    0.68
   6   0   1    4.28    0.31
   6   0   1    4.45    0.44
  -6   0  -1    4.67    0.75
   6   0   2  109.54    1.57
   6   0   2  113.60    1.13
  -6   0  -2  118.04    2.13
  -6   0  -3   11.63    0.71
   6   0   3   11.50    0.43
  -6   0  -3   13.00    1.07
  -6   0  -4   15.37    0.52
   6   0   4   14.61    0.52
  -6   0  -4   15.84    1.26
  -6   0  -5    9.10    0.39
  -6   0  -5   10.45    1.06
  -6   0  -6   10.69    0.40
  -6   0  -6   11.55    1.02
  -6   0  -7    7.41    0.98
  -6   0  -8    0.55    0.58
   6   1 -11    3.19    0.74
  -6  -1  11    4.76    0.71
   6   1 -10    2.48    0.74
  -6  -1  10    2.64    0.63
   6   1  -9    8.12    1.13
  -6  -1   9    8.23    0.85
   6   1  -8    7.27    1.03
  -6  -1   8    7.89    0.79
   6   1  -7    0.95    0.51
  -6  -1   7    1.17    0.58
   6   1  -6    0.32    0.51
  -6  -1   6    0.51    0.46
  -6  -1   5   35.24    1.24
   6   1  -4    3.79    0.52
  -6  -1   4    4.76    0.91
   6   1  -3  110.29    2.66
  -6  -1   3  112.54    2.84
   6   1  -2  142.32    3.16
  -6  -1   2  138.17    3.35
   6   1  -1   44.01    1.27
  -6  -1   1   36.47    1.44
   6   1   0    7.14    0.40
   6   1   0    8.11    0.62
  -6  -1   0    8.05    0.82
  -6  -1  -1   18.19    0.66
   6   1   1   15.73    0.55
  -6  -1  -1   16.06    0.98
  -6  -1  -2    7.86    0.76
   6   1   2    7.16    0.42
  -6  -1  -2    6.75    0.93
  -6  -1  -3   21.15    0.86
   6   1   3   17.88    0.55
  -6  -1  -3   22.28    1.33
  -6  -1  -4    0.54    0.21
  -6  -1  -4    1.01    1.11
  -6  -1  -5    0.46    0.20
  -6  -1  -5    0.55    0.71
  -6  -1  -6    1.19    0.24
  -6  -1  -6    1.56    0.66
  -6  -1  -7    1.93    0.26
  -6  -1  -7    2.09    0.68
  -6  -1  -8    1.60    0.68
   6   2 -11    0.44    0.53
  -6  -2  11    0.74    0.61
  -6  -2  10    1.05    0.45
   6   2  -9   19.92    1.12
  -6  -2   9   21.35    1.09
   6   2  -8    0.21    0.56
  -6  -2   8    1.00    0.65
   6   2  -7    8.40    0.80
  -6  -2   7    8.37    0.84
   6   2  -6   25.48    1.07
  -6  -2   6   24.82    1.13
   6   2  -5    5.41    0.73
  -6  -2   5    5.94    0.94
   6   2  -4   12.75    0.76
  -6  -2   4   13.14    0.86
   6   2  -3  101.08    1.92
  -6  -2   3  100.96    2.12
   6   2  -2   16.83    0.92
  -6  -2   2   16.82    0.96
  -6  -2   1    2.06    0.37
  -6  -2   1    2.02    0.62
  -6  -2   0   62.33    1.53
  -6  -2   0   59.36    1.67
  -6  -2  -1    6.97    1.33
  -6  -2  -1    5.93    0.76
  -6  -2  -2    0.15    0.20
  -6  -2  -2    0.22    0.60
  -6  -2  -3    0.68    0.30
  -6  -2  -3    0.61    0.66
  -6  -2  -4   36.54    1.00
  -6  -2  -4   37.73    1.58
  -6  -2  -5    0.22    0.22
  -6  -2  -5    0.28    0.67
  -6  -2  -6   13.04    0.59
  -6  -2  -6   11.65    0.97
  -6  -2  -7    5.43    0.49
  -6  -2  -7    5.62    0.93
   6   3 -11    4.64    1.14
  -6  -3  11    3.99    0.62
   6   3 -10    5.67    0.78
  -6  -3  10    5.05    0.90
   6   3  -9    1.11    0.57
  -6  -3   9    1.86    0.62
   6   3  -8    0.43    0.56
  -6  -3   8    0.73    0.50
   6   3  -7    6.58    0.71
  -6  -3   7    8.16    0.97
   6   3  -6   11.42    0.95
  -6  -3   6   10.93    0.83
   6   3  -5    1.38    0.62
  -6  -3   5    0.91    0.43
  -6  -3   4   33.78    1.22
   6   3  -3   20.15    0.89
  -6  -3   3   20.26    1.04
  -6  -3   2   23.29    1.36
  -6  -3   2   22.92    1.18
  -6  -3   1   37.20    1.49
  -6  -3   1   35.28    1.31
  -6  -3   0   14.91    0.73
  -6  -3   0   14.66    0.98
  -6  -3  -1    0.09    0.13
  -6  -3  -1    0.05    0.53
  -6  -3  -2    1.89    0.46
  -6  -3  -2    1.76    0.58
  -6  -3  -3    1.05    0.37
  -6  -3  -3    1.64    0.67
  -6  -3  -4   11.66    0.63
  -6  -3  -4   12.48    1.11
  -6  -3  -5    1.14    0.36
  -6  -3  -5    0.64    0.69
  -6  -3  -6    2.18    0.41
  -6  -3  -7    1.82    0.36
  -6  -3  -7    1.56    0.73
   6   4 -11    2.79    0.82
  -6  -4  11    2.66    0.57
   6   4 -10    5.54    0.77
  -6  -4  10    6.43    0.93
   6   4  -9   17.55    1.11
  -6  -4   9   17.83    1.02
   6   4  -8    2.08    0.81
  -6  -4   8    1.10    0.55
   6   4  -7    4.14    0.76
  -6  -4   7    4.21    0.85
   6   4  -6   15.57    0.93
  -6  -4   6   14.85    0.90
   6   4  -5   29.66    1.15
  -6  -4   5   32.81    1.36
  -6  -4   4    0.31    0.49
  -6  -4   3   15.32    0.87
  -6  -4   3   14.24    0.99
  -6  -4   2    7.63    1.63
  -6  -4   1    1.40    0.65
  -6  -4   0    2.52    0.89
  -6  -4   0    2.16    0.58
  -6  -4  -1   20.65    0.93
  -6  -4  -1   20.64    1.38
  -6  -4  -2    0.27    0.42
  -6  -4  -2    0.41    0.60
  -6  -4  -3    3.30    0.52
  -6  -4  -3    2.60    0.65
  -6  -4  -4    1.39    0.36
  -6  -4  -4    1.61    0.67
  -6  -4  -5    1.11    0.38
  -6  -4  -5    1.25    0.63
  -6  -4  -6    4.22    0.54
  -6  -4  -6    5.71    1.06
   6   5 -10    0.65    0.51
   6   5  -9   -0.01    0.45
  -6  -5   9    0.16    0.41
   6   5  -8    2.55    0.65
  -6  -5   8    1.82    0.50
   6   5  -7    3.36    0.71
  -6  -5   7    3.81    0.71
   6   5  -6    0.10    0.50
  -6  -5   6    0.89    0.62
   6   5  -5   45.01    1.41
  -6  -5   5   49.74    1.54
  -6  -5   4   21.80    1.08
  -6  -5   4   20.90    1.13
  -6  -5   3   11.89    2.07
  -6  -5   2    2.46    1.11
  -6  -5   1    1.75    0.61
  -6  -5   0    2.80    0.50
  -6  -5   0    3.06    0.81
  -6  -5  -1    0.67    0.37
  -6  -5  -1    0.74    0.58
  -6  -5  -2    3.70    0.65
  -6  -5  -2    3.28    0.98
  -6  -5  -3    0.14    0.31
  -6  -5  -3    0.31    0.50
  -6  -5  -4    0.18    0.32
  -6  -5  -4    0.41    0.52
  -6  -5  -5    0.31    0.28
  -6  -5  -5    0.98    0.85
   6   6 -10    1.64    0.66
  -6  -6  10    1.60    0.49
   6   6  -9    0.35    0.48
  -6  -6   9    0.23    0.58
   6   6  -8   37.09    1.32
  -6  -6   8   39.47    1.30
   6   6  -7    3.05    0.64
  -6  -6   7    4.24    0.88
   6   6  -6    3.29    0.76
  -6  -6   6    3.09    0.59
  -6  -6   5   14.56    0.93
  -6  -6   5   13.75    0.84
  -6  -6   4    0.92    0.41
  -6  -6   4    0.47    0.42
  -6  -6   3    4.14    1.53
  -6  -6   3    4.33    0.58
  -6  -6   2    0.20    0.28
  -6  -6   2    0.50    0.43
  -6  -6   1   -0.19    0.38
  -6  -6   1    0.49    0.44
  -6  -6   0    0.54    0.44
  -6  -6   0    0.63    0.48
  -6  -6  -1    5.28    0.68
  -6  -6  -1    5.09    0.76
  -6  -6  -2    0.36    0.53
  -6  -6  -2    0.39    0.64
  -6  -6  -3    0.87    0.41
  -6  -6  -3    1.06    0.50
   6   7  -8    5.44    0.81
  -6  -7   8    6.24    0.66
   6   7  -7    9.10    1.01
  -6  -7   7    8.92    0.71
  -6  -7   6   10.21    0.93
  -6  -7   6   10.55    0.76
  -6  -7   5    0.25    0.24
  -6  -7   5    0.44    0.53
  -6  -7   4    2.80    0.74
  -6  -7   4    2.72    0.59
  -6  -7   3    1.01    0.43
  -6  -7   3    0.41    0.40
  -6  -7   2    3.36    1.21
  -6  -7   2    2.71    0.60
  -6  -7   1    5.56    0.68
  -6  -7   1    5.48    0.94
  -6  -7   0    0.63    0.53
  -6  -7   0    0.20    0.44
  -6  -7  -1    0.31    0.51
  -6  -7  -1    0.13    0.48
  -6  -8   6    0.23    0.33
  -6  -8   5    0.77    0.47
  -6  -8   5    0.97    0.51
  -6  -8   4    2.16    0.92
  -6  -8   4    2.11    0.49
  -6  -8   3    1.42    0.54
  -6  -8   3    1.13    0.51
  -6  -8   2   13.14    1.98
  -6  -8   2   12.98    0.87
   7  -8  -1    0.13    0.22
   7  -7  -4    0.39    0.38
  -7   7   4    0.36    0.28
   7  -7  -3    5.37    0.68
  -7   7   3    4.86    0.43
   7  -7  -2    4.28    0.56
  -7   7   2    3.80    0.51
   7  -7  -1    0.04    0.24
  -7   7   1    0.10    0.20
   7  -7   0    0.09    0.18
  -7   7   0   -0.03    0.22
  -7   7  -1    4.62    0.50
  -7   7  -2   15.83    0.74
  -7   7  -3    3.08    0.53
  -7   7  -4    0.44    0.33
  -7   7  -5    3.14    0.59
   7  -6  -6    1.53    0.56
  -7   6   6    1.70    0.35
   7  -6  -5    0.96    0.67
  -7   6   5    0.64    0.31
   7  -6  -4    8.07    0.77
  -7   6   4    7.92    0.58
   7  -6  -3   19.32    1.02
  -7   6   3   19.31    0.87
   7  -6  -2    9.10    0.64
  -7   6   2    8.60    0.62
   7  -6  -1    0.49    0.26
   7  -6   0    2.30    0.39
  -7   6   0    2.02    0.38
   7  -6   1   10.05    0.39
  -7   6  -1   11.51    0.70
  -7   6  -2    9.25    0.77
  -7   6  -3    4.23    0.58
  -7   6  -4    5.69    0.63
  -7   6  -5    1.49    0.45
  -7   6  -6    0.28    0.45
   7  -5  -7    0.77    0.57
  -7   5   7    0.63    0.45
   7  -5  -6    1.08    0.49
  -7   5   6    1.57    0.46
   7  -5  -5   10.38    0.93
  -7   5   5    9.47    0.65
   7  -5  -4    3.54    0.65
  -7   5   4    3.90    0.53
   7  -5  -3    9.16    0.69
  -7   5   3    9.75    0.78
   7  -5  -2   18.71    0.86
  -7   5   2   18.19    0.91
   7  -5  -1    7.87    0.62
  -7   5   1    7.75    0.65
   7  -5   0   23.05    0.77
  -7   5   0   22.64    0.99
   7  -5   1    0.66    0.22
  -7   5  -1    0.27    0.37
  -7   5  -2    4.50    0.61
  -7   5  -3    0.88    0.63
  -7   5  -4   26.97    1.12
  -7   5  -5    0.51    0.58
  -7   5  -6   11.14    0.97
  -7   5  -7    3.67    0.85
   7  -4  -8    0.27    0.52
  -7   4   8    0.26    0.44
   7  -4  -7    0.12    0.56
  -7   4   7    0.06    0.32
   7  -4  -6    0.56    0.46
  -7   4   6    0.02    0.32
   7  -4  -5    0.35    0.50
  -7   4   5    0.12    0.46
   7  -4  -4    6.88    0.72
  -7   4   4    6.82    0.73
   7  -4  -3    0.57    0.59
  -7   4   3    0.61    0.53
   7  -4  -2    5.61    0.51
  -7   4   2    5.59    0.73
   7  -4  -1    3.67    0.47
  -7   4   1    3.87    0.60
   7  -4   0   10.97    0.51
  -7   4   0   11.99    0.97
   7  -4   1   16.55    0.51
  -7   4  -2    8.04    0.98
  -7   4  -3   19.01    1.03
  -7   4  -4   56.65    1.56
  -7   4  -5    5.75    0.81
  -7   4  -6    1.17    0.88
  -7   4  -7    0.20    0.52
   7  -3  -9    0.61    0.80
  -7   3   9    1.12    0.59
   7  -3  -8    4.20    0.84
  -7   3   8    3.59    0.62
   7  -3  -7    2.11    0.61
  -7   3   7    2.45    0.56
   7  -3  -6    2.39    0.94
  -7   3   6    1.76    0.59
   7  -3  -5    0.34    0.51
  -7   3   5    0.33    0.37
   7  -3  -4    2.79    0.57
  -7   3   4    3.11    0.53
  -7   3   3   27.23    1.08
   7  -3  -2    0.75    0.36
  -7   3   2    0.58    0.28
   7  -3  -1    0.17    0.11
   7  -3  -1    0.29    0.40
  -7   3   1   -0.08    0.43
   7  -3   0    1.22    0.18
   7  -3   0    1.05    0.29
  -7   3   0    1.04    0.47
   7  -3   1   19.06    0.44
   7  -3   1   22.75    0.66
  -7   3  -1   21.09    1.06
  -7   3  -2    4.43    0.73
  -7   3  -3    0.88    0.75
  -7   3  -4    5.67    0.80
  -7   3  -5    4.86    0.77
  -7   3  -6    8.58    0.97
  -7   3  -7    8.47    0.95
   7  -2  -9    0.27    0.57
  -7   2   9    0.90    0.52
   7  -2  -8    2.88    0.77
  -7   2   8    2.58    0.56
   7  -2  -7    4.33    0.72
  -7   2   7    4.39    0.62
   7  -2  -6    0.62    0.70
  -7   2   6    0.68    0.76
   7  -2  -5    5.00    0.65
  -7   2   5    3.73    0.68
   7  -2  -4    0.22    0.52
  -7   2   4   -0.07    0.41
   7  -2  -3   18.39    0.85
  -7   2   3   18.48    1.01
   7  -2  -2   20.37    0.89
  -7   2   2   18.92    1.03
   7  -2  -1   31.93    0.85
   7  -2  -1   36.40    1.04
  -7   2   1   34.82    1.33
   7  -2   0   18.70    0.57
   7  -2   0   20.39    0.75
  -7   2   0   20.21    1.05
   7  -2   1    5.72    0.27
   7  -2   1    6.67    0.40
  -7   2  -1    6.53    1.06
  -7   2  -2   28.34    1.27
  -7   2  -3   12.22    1.02
  -7   2  -4    9.85    0.95
  -7   2  -5    1.20    0.69
  -7   2  -6    1.75    0.70
  -7   2  -7    3.61    0.76
   7  -1 -10    2.20    0.85
  -7   1  10    3.59    0.84
  -7   1   9    7.53    0.95
   7  -1  -8    0.25    0.52
  -7   1   8    0.26    0.40
   7  -1  -7    0.00    0.50
  -7   1   7    0.09    0.43
   7  -1  -6    0.22    0.51
  -7   1   6    1.07    0.68
   7  -1  -5   16.56    0.95
  -7   1   5   17.50    1.19
   7  -1  -4    0.11    0.49
  -7   1   4   -0.02    0.58
   7  -1  -3    2.69    0.46
  -7   1   3    2.18    0.50
   7  -1  -2    3.99    0.68
  -7   1   2    2.69    0.61
   7  -1  -1    2.06    0.24
   7  -1  -1    2.66    0.43
  -7   1   1    2.50    0.61
   7  -1   0    0.16    0.17
   7  -1   0   -0.08    0.26
  -7   1   0   -0.05    0.62
   7  -1   1    7.56    0.35
   7  -1   1    8.25    0.51
  -7   1  -1    8.83    1.28
   7  -1   2    3.61    0.35
  -7   1  -2    3.09    0.85
  -7   1  -3   16.01    1.12
  -7   1  -4    7.23    0.85
  -7   1  -5   11.26    1.07
  -7   1  -6   10.98    1.21
  -7   1  -7    3.90    0.84
   7   0 -10    0.88    0.64
  -7   0  10    0.65    0.50
   7   0  -9    2.96    0.77
  -7   0   9    2.91    0.72
   7   0  -8    1.16    0.57
  -7   0   8    0.98    0.49
   7   0  -7    2.23    0.63
  -7   0   7    2.42    0.52
   7   0  -6    1.73    0.67
  -7   0   6    1.64    0.50
   7   0  -5   48.94    1.50
  -7   0   5   48.24    1.41
   7   0  -4   11.78    0.76
  -7   0   4   10.64    0.95
   7   0  -3   14.50    0.96
  -7   0   3   14.60    1.04
   7   0  -2    8.62    0.63
  -7   0   2    9.35    0.92
   7   0  -1   19.35    0.86
  -7   0   1   18.49    1.19
   7   0   0   11.64    0.48
   7   0   0   15.13    0.70
  -7   0   0   14.93    1.11
  -7   0  -1   64.86    2.07
   7   0   2    0.15    0.14
   7   0   2    0.35    0.34
  -7   0  -2   -0.46    0.68
   7   0   3    1.18    0.23
  -7   0  -3    1.81    0.66
   7   0   4    0.38    0.21
  -7   0  -4    0.34    0.60
  -7   0  -5   -0.07    0.61
  -7   0  -6    1.40    0.66
  -7   0  -7    1.19    0.66
   7   1 -10    6.78    1.17
  -7  -1  10    6.86    0.87
  -7  -1   9    0.98    0.67
   7   1  -8    0.21    0.50
  -7  -1   8    0.06    0.44
   7   1  -7    2.57    0.71
  -7  -1   7    1.56    0.54
   7   1  -6    4.77    0.94
  -7  -1   6    4.11    0.73
  -7  -1   5    4.37    0.68
   7   1  -4   10.02    0.86
  -7  -1   4    9.24    0.93
   7   1  -3    0.08    0.45
  -7  -1   3    0.73    0.55
   7   1  -2   40.63    1.28
  -7  -1   2   40.30    1.61
   7   1  -1    0.45    0.49
  -7  -1   1    0.07    0.66
   7   1   0    1.77    0.51
  -7  -1   0    1.92    0.68
   7   1   1    9.64    0.55
  -7  -1  -1    8.89    1.13
  -7  -1  -2    0.99    0.31
  -7  -1  -2    0.92    0.63
  -7  -1  -3   13.69    1.11
  -7  -1  -4    0.55    0.29
  -7  -1  -4    0.83    0.70
  -7  -1  -5    1.79    0.65
  -7  -1  -5    2.51    0.84
  -7  -1  -6   -0.03    0.64
   7   2 -10    0.85    0.57
  -7  -2  10    0.71    0.39
   7   2  -9    0.22    0.54
  -7  -2   9    0.15    0.44
   7   2  -8   19.97    1.12
  -7  -2   8   20.30    1.02
  -7  -2   7    3.40    0.66
   7   2  -6   13.55    1.10
  -7  -2   6   13.95    1.11
   7   2  -5    1.41    0.42
  -7  -2   5    1.07    0.58
   7   2  -4    1.64    0.71
  -7  -2   4    0.77    0.53
   7   2  -3   21.56    0.93
  -7  -2   3   22.59    1.25
   7   2  -2   40.51    1.21
  -7  -2   2   40.71    1.58
   7   2  -1   11.65    0.68
  -7  -2   1   12.52    0.96
  -7  -2   0    0.35    0.37
  -7  -2   0    0.38    0.97
  -7  -2  -1    5.23    1.65
  -7  -2  -1    4.84    0.99
  -7  -2  -2   -0.04    0.21
  -7  -2  -2   -0.04    0.69
  -7  -2  -3    0.19    0.19
  -7  -2  -3    0.19    0.91
  -7  -2  -4   28.45    0.75
  -7  -2  -4   29.13    1.38
  -7  -2  -5    1.69    0.58
  -7  -2  -5    1.77    0.79
  -7  -2  -6    0.43    0.62
   7   3 -10    0.73    0.73
  -7  -3  10    0.65    0.44
   7   3  -9    2.76    0.70
  -7  -3   9    3.20    0.60
   7   3  -8    0.41    0.52
  -7  -3   8   -0.02    0.46
   7   3  -7    9.17    0.85
  -7  -3   7    9.36    0.98
   7   3  -6    0.62    0.48
  -7  -3   6    0.59    0.51
   7   3  -5    5.70    0.85
  -7  -3   5    5.24    0.75
  -7  -3   4    4.95    0.76
   7   3  -3    0.35    0.55
  -7  -3   3    0.65    0.73
   7   3  -2    0.19    0.37
  -7  -3   2    0.68    0.77
  -7  -3   1    0.23    0.28
  -7  -3   1    0.76    0.79
  -7  -3   0    2.08    0.65
  -7  -3   0    2.27    0.86
  -7  -3  -1   11.97    0.66
  -7  -3  -1   11.76    1.01
  -7  -3  -2    0.87    0.48
  -7  -3  -2    0.37    0.61
  -7  -3  -3   16.69    0.76
  -7  -3  -3   15.37    1.13
  -7  -3  -4    6.98    0.58
  -7  -3  -4    6.96    1.00
  -7  -3  -5   20.68    0.79
  -7  -3  -5   21.26    1.38
   7   4  -9    1.27    0.57
  -7  -4   9    1.98    0.80
   7   4  -8    3.12    0.77
  -7  -4   8    3.90    0.93
   7   4  -7    0.46    0.69
  -7  -4   7    0.32    0.47
  -7  -4   6    2.67    0.61
   7   4  -5    6.56    0.70
  -7  -4   5    6.86    0.93
   7   4  -4   14.27    0.94
  -7  -4   4   13.61    0.99
  -7  -4   3    6.18    0.76
  -7  -4   2    0.37    0.26
  -7  -4   1    7.47    1.22
  -7  -4   0    4.16    1.66
  -7  -4  -1    9.79    1.62
  -7  -4  -1   10.14    1.11
  -7  -4  -2    0.06    0.15
  -7  -4  -2    0.28    0.50
  -7  -4  -3    0.56    0.39
  -7  -4  -3   -0.03    0.53
  -7  -4  -4    2.17    0.52
  -7  -4  -4    2.28    0.84
   7   5  -9    1.49    0.62
  -7  -5   9    1.73    0.53
   7   5  -8    0.86    0.58
  -7  -5   8    1.55    0.79
   7   5  -7    0.29    0.48
  -7  -5   7    0.75    0.74
   7   5  -6    5.37    0.90
  -7  -5   6    5.65    0.75
  -7  -5   5    3.99    0.66
  -7  -5   4    0.41    0.45
  -7  -5   3    0.25    0.23
  -7  -5   3    0.20    0.45
  -7  -5   2    1.89    0.67
  -7  -5   2    1.40    0.55
  -7  -5   1    8.59    1.79
  -7  -5   1    9.15    1.11
  -7  -5   0    4.80    1.95
  -7  -5   0    5.36    0.88
  -7  -5  -1    2.58    1.16
  -7  -5  -1    3.08    0.94
  -7  -5  -2    0.42    0.46
  -7  -5  -2    0.24    0.53
   7   6  -7    0.52    0.45
  -7  -6   7    0.67    0.44
   7   6  -6    7.69    0.88
  -7  -6   6    8.08    0.81
   7   6  -5   -0.05    0.42
  -7  -6   5    0.20    0.46
  -7  -6   4    0.09    0.34
  -7  -6   4    0.26    0.46
  -7  -6   3    0.13    0.13
  -7  -6   3    0.36    0.66
  -7  -6   2    1.40    0.48
  -7  -6   2    0.71    0.49
  -7  -6   1    0.67    0.55
  -7  -6   1    0.46    0.74
  -7  -6   0    0.19    0.23
  -7  -6   0    0.62    0.76
   8  -6  -3    6.23    0.67
  -8   6   3    6.24    0.60
   8  -6  -2    0.48    0.36
  -8   6   2    0.17    0.27
   8  -6  -1    0.36    0.38
  -8   6   1    0.16    0.29
  -8   6   0    0.53    0.45
  -8   6  -1    0.32    0.50
  -8   6  -2   10.74    0.82
  -8   6  -3    0.35    0.39
   8  -5  -5    0.73    0.49
  -8   5   5    0.89    0.53
   8  -5  -4   20.43    0.98
  -8   5   4   20.77    0.96
   8  -5  -3   -0.22    0.32
  -8   5   3    0.11    0.31
   8  -5  -2    0.33    0.28
  -8   5   2    0.76    0.46
   8  -5  -1    4.45    0.50
  -8   5   1    3.74    0.57
  -8   5   0    0.29    0.40
  -8   5  -1    1.32    0.53
  -8   5  -2    4.27    0.74
  -8   5  -3    1.05    0.62
  -8   5  -4   10.95    0.87
   8  -4  -6    3.79    0.76
  -8   4   6    4.08    0.71
   8  -4  -5    2.86    0.65
  -8   4   5    3.06    0.54
   8  -4  -4    0.05    0.39
  -8   4   4   -0.12    0.31
   8  -4  -3    0.50    0.43
  -8   4   3    0.47    0.26
   8  -4  -2    1.17    0.44
  -8   4   2    0.66    0.39
   8  -4  -1    9.89    0.55
  -8   4   1   10.34    0.81
   8  -4   0   11.63    0.51
  -8   4   0   11.22    0.79
  -8   4  -1    1.59    0.50
  -8   4  -2    0.32    0.49
  -8   4  -3   12.63    0.97
  -8   4  -4    3.26    0.92
  -8   4  -5   35.51    1.40
   8  -3  -7    1.00    0.56
  -8   3   7    1.49    0.56
   8  -3  -6    0.31    0.50
  -8   3   6    0.22    0.54
   8  -3  -5    0.26    0.41
  -8   3   5    0.07    0.38
   8  -3  -4    2.38    0.69
  -8   3   4    2.38    0.63
   8  -3  -3    5.04    0.62
  -8   3   3    4.43    0.61
   8  -3  -2    1.00    0.36
  -8   3   2    1.18    0.51
   8  -3  -1   21.83    0.74
  -8   3   1   19.74    1.05
   8  -3   0    0.10    0.18
  -8   3   0    0.67    0.71
  -8   3  -1    0.98    0.55
  -8   3  -2    0.41    0.55
  -8   3  -3    1.05    0.60
  -8   3  -4    1.05    0.58
  -8   3  -5    6.56    0.84
   8  -2  -8    0.49    0.54
  -8   2   8    0.51    0.59
   8  -2  -7    7.35    0.84
  -8   2   7    7.54    0.85
   8  -2  -6    0.31    0.52
  -8   2   6    1.05    0.69
   8  -2  -5    5.97    0.89
  -8   2   5    5.25    0.70
   8  -2  -4    5.41    0.66
  -8   2   4    5.80    0.91
   8  -2  -3   11.61    0.84
  -8   2   3   12.07    0.91
   8  -2  -2   15.28    0.85
  -8   2   2   14.67    0.98
   8  -2  -1    2.02    0.48
  -8   2   1    1.55    0.53
   8  -2   0    2.12    0.37
  -8   2   0    2.02    0.66
   8  -2   1    6.78    0.35
  -8   2  -1    7.95    1.06
  -8   2  -2   12.65    1.14
  -8   2  -3    6.68    0.80
  -8   2  -4    1.40    0.82
  -8   2  -5    1.49    0.67
   8  -1  -8    1.35    0.65
  -8   1   8    1.54    0.53
   8  -1  -7    1.08    0.78
  -8   1   7    0.56    0.62
   8  -1  -6   10.45    0.89
  -8   1   6    9.14    0.95
   8  -1  -5    0.69    0.70
  -8   1   5    0.23    0.44
   8  -1  -4    2.15    0.49
  -8   1   4    1.97    0.59
   8  -1  -3    1.00    0.38
  -8   1   3    1.49    0.58
   8  -1  -2    0.62    0.45
  -8   1   2    0.51    0.52
   8  -1  -1    1.92    0.48
  -8   1   1    1.70    0.56
   8  -1   0    1.29    0.36
  -8   1   0    1.79    0.66
   8  -1   1    2.64    0.33
  -8   1  -1    2.46    0.67
   8  -1   2    0.47    0.24
  -8   1  -2   -0.04    0.56
  -8   1  -3   -0.09    0.60
  -8   1  -4    0.82    0.66
  -8   1  -5    0.91    0.71
   8   0  -8    0.24    0.72
  -8   0   8    0.48    0.70
   8   0  -7   12.10    0.97
  -8   0   7   12.26    0.95
   8   0  -6    1.10    0.55
  -8   0   6    1.03    0.62
   8   0  -5   11.73    0.82
  -8   0   5   12.27    0.92
   8   0  -4    4.25    0.71
  -8   0   4    3.56    0.64
   8   0  -3    0.87    0.37
  -8   0   3    0.69    0.68
   8   0  -2   19.81    1.01
  -8   0   2   19.04    1.15
   8   0  -1   12.63    0.69
  -8   0   1   11.95    0.98
   8   0   0    8.68    0.62
  -8   0   0    9.10    0.87
   8   0   1    0.50    0.36
  -8   0  -1   -0.28    0.58
   8   0   2    1.13    0.30
  -8   0  -2    0.99    0.60
  -8   0  -3    7.64    0.97
  -8   0  -4    3.32    0.69
  -8   0  -5    2.50    0.81
   8   1  -8    0.78    0.69
  -8  -1   8    0.47    0.49
   8   1  -7    0.21    0.46
  -8  -1   7    0.38    0.49
   8   1  -6    1.07    0.70
  -8  -1   6    0.40    0.46
   8   1  -5   -0.20    0.40
  -8  -1   5    0.56    0.50
   8   1  -4   40.99    1.27
  -8  -1   4   43.23    1.39
   8   1  -3    3.69    0.67
  -8  -1   3    3.51    0.66
   8   1  -2    2.10    0.52
  -8  -1   2    2.14    0.71
   8   1  -1    1.37    0.37
  -8  -1   1    1.62    0.71
   8   1   0    0.26    0.28
  -8  -1   0    1.08    0.49
   8   1   1    0.54    0.25
  -8  -1  -1    0.95    0.78
   8   1   2    1.15    0.26
  -8  -1  -2    1.07    0.66
   8   1   3    0.95    0.26
  -8  -1  -3    1.03    0.82
  -8  -1  -4    1.99    0.77
   8   2  -8    2.90    0.72
  -8  -2   8    2.10    0.60
   8   2  -7    9.76    0.90
  -8  -2   7    9.52    0.84
   8   2  -6    0.23    0.47
  -8  -2   6    0.35    0.73
   8   2  -5    0.44    0.61
  -8  -2   5    0.22    0.53
   8   2  -4   46.39    1.39
  -8  -2   4   46.86    1.57
   8   2  -3    0.39    0.44
  -8  -2   3    0.25    0.55
   8   2  -2    8.33    0.69
  -8  -2   2    7.19    0.88
   8   2  -1    0.29    0.36
  -8  -2   1    0.49    0.53
   8   2   0    4.83    0.54
  -8  -2   0    4.40    0.75
   8   2   1    7.81    0.54
  -8  -2  -1    7.66    0.91
  -8  -2  -2   12.64    1.24
  -8  -2  -3    1.29    0.35
  -8  -2  -3    1.63    0.93
   8   3  -8    0.64    0.51
  -8  -3   8    0.40    0.49
   8   3  -7   10.81    0.91
  -8  -3   7   10.71    0.93
   8   3  -6    1.04    0.49
  -8  -3   6    2.24    0.58
   8   3  -5   -0.26    0.46
  -8  -3   5    0.53    0.54
   8   3  -4    0.45    0.63
  -8  -3   4    0.74    0.75
   8   3  -3    0.26    0.40
  -8  -3   3    0.83    0.80
   8   3  -2    1.61    0.50
  -8  -3   2    1.12    0.66
   8   3  -1    0.21    0.36
  -8  -3   1    0.07    0.58
  -8  -3   0    0.10    0.61
  -8  -3  -1    0.61    0.33
  -8  -3  -1    1.62    0.74
  -8  -3  -2    0.18    0.14
  -8  -3  -2    0.62    0.65
   8   4  -7    1.98    0.63
  -8  -4   7    1.34    0.64
   8   4  -6    5.22    0.76
  -8  -4   6    5.52    0.83
   8   4  -5    1.04    0.53
  -8  -4   5    1.59    0.61
   8   4  -4    0.02    0.45
  -8  -4   4    0.22    0.53
   8   4  -3    1.99    0.49
  -8  -4   3    1.52    0.75
   8   4  -2    7.66    0.70
  -8  -4   1   12.84    0.77
  -8  -4   0    0.73    0.54
  -8  -4   0    0.64    0.62
  -8  -4  -1    0.25    0.37
  -8  -4  -1    0.45    0.58
   8   5  -5    0.52    0.56
  -8  -5   5    0.35    0.69
   8   5  -4    0.02    0.41
  -8  -5   4    0.46    0.67
   8   5  -3    1.06    0.64
  -8  -5   3    0.87    0.48
  -8  -5   2    0.14    0.34
  -8  -5   2    0.54    0.68
  -9   4   2    0.56    0.58
  -9   4   1    0.37    0.41
  -9   4   0    1.87    0.61
  -9   4  -1    1.35    0.53
   9  -3  -4    2.40    0.56
  -9   3   4    1.94    0.69
   9  -3  -3    0.34    0.32
  -9   3   3    0.25    0.40
   9  -3  -2    2.85    0.49
  -9   3   2    2.92    0.58
  -9   3   1    8.15    0.80
  -9   3   0    2.78    0.60
  -9   3  -1    3.29    0.67
  -9   3  -2    4.39    0.73
   9  -2  -5    0.89    0.55
  -9   2   5    1.03    0.48
   9  -2  -4    0.19    0.37
  -9   2   4    0.08    0.41
   9  -2  -3    0.67    0.46
  -9   2   3    1.04    0.51
   9  -2  -2    1.60    0.46
  -9   2   2    2.16    0.58
   9  -2  -1   15.01    0.63
  -9   2   1   16.16    1.25
  -9   2   0    0.88    0.72
  -9   2  -1    0.19    0.52
  -9   2  -2    0.14    0.55
   9  -1  -5    0.47    0.56
  -9   1   5   -0.07    0.49
   9  -1  -4    2.38    0.49
  -9   1   4    2.09    0.69
   9  -1  -3    0.44    0.49
  -9   1   3    0.42    0.70
   9  -1  -2    1.38    0.43
  -9   1   2    1.52    0.58
   9  -1  -1    1.79    0.43
  -9   1   1    1.61    0.81
  -9   1   0    1.96    0.77
  -9   1  -1   -0.14    0.58
  -9   1  -2    0.96    0.88
   9   0  -6   -0.01    0.46
  -9   0   6    0.35    0.52
   9   0  -5    1.88    0.53
  -9   0   5    2.04    0.73
   9   0  -4    4.92    0.70
  -9   0   4    3.80    0.75
   9   0  -3   15.83    0.91
  -9   0   3   15.57    1.10
   9   0  -2    3.98    0.61
  -9   0   2    3.69    0.79
   9   0  -1    1.24    0.42
  -9   0   1    2.06    0.71
   9   0   0    2.96    0.41
  -9   0   0    4.56    1.05
  -9   0  -1    3.44    0.92
  -9   0  -2    4.92    1.33
   9   1  -5    1.30    0.70
  -9  -1   5    1.68    0.68
  -9  -1   4   -0.14    0.53
   9   1  -3    8.13    0.72
  -9  -1   3    9.36    1.32
   9   1  -2    2.25    0.56
  -9  -1   2    1.85    0.73
   9   1  -1    0.40    0.42
  -9  -1   1    0.25    0.84
   9   1   0    2.31    0.39
  -9  -1   0    1.99    0.76
  -9  -1  -1    2.57    1.03
   9   2  -5   24.22    1.14
  -9  -2   5   24.32    1.32
   9   2  -4    2.12    0.55
  -9  -2   4    1.79    0.58
   9   2  -3    2.19    0.53
  -9  -2   3    1.32    0.56
   9   2  -2    1.25    0.47
  -9  -2   2    0.85    0.71
   9   2  -1    4.38    0.60
  -9  -2   1    3.56    0.77
   0   0   0    0.00    0.00
;
_shelx_hkl_checksum              13238
loop_
_space_group_symop_operation_xyz
'x, y, z'
'-x, -y, -z'
loop_
_atom_site_label
_atom_site_type_symbol
_atom_site_fract_x
_atom_site_fract_y
_atom_site_fract_z
_atom_site_U_iso_or_equiv
_atom_site_adp_type
_atom_site_occupancy
_atom_site_site_symmetry_order
_atom_site_calc_flag
_atom_site_refinement_flags_posn
_atom_site_refinement_flags_adp
C1 C 0.6520(2) 0.25460(18) 0.41552(17) 0.0527(6) Uani 1 1 d . .
H1A H 0.5871 0.3189 0.4769 0.079 Uiso 1 1 calc R U
H1B H 0.5772 0.2263 0.3308 0.079 Uiso 1 1 calc R U
H1C H 0.7676 0.3127 0.4124 0.079 Uiso 1 1 calc R U
C2 C 0.7655(2) 0.13030(19) 0.57911(17) 0.0322(4) Uani 1 1 d . .
C3 C 0.8018(2) -0.02481(17) 0.60407(15) 0.0271(4) Uani 1 1 d . .
C4 C 0.7872(2) -0.15999(18) 0.50154(16) 0.0361(4) Uani 1 1 d . .
H4 H 0.7528 -0.1539 0.4164 0.043 Uiso 1 1 calc R U
C5 C 0.8234(2) -0.30320(18) 0.52505(17) 0.0388(5) Uani 1 1 d . .
H5 H 0.8122 -0.3931 0.4561 0.047 Uiso 1 1 calc R U
C6 C 0.8762(2) -0.31220(19) 0.65084(16) 0.0372(5) Uani 1 1 d . .
H6 H 0.8987 -0.4088 0.6670 0.045 Uiso 1 1 calc R U
C7 C 0.8960(2) -0.17824(18) 0.75332(16) 0.0336(4) Uani 1 1 d . .
H7 H 0.9351 -0.1848 0.8378 0.040 Uiso 1 1 calc R U
C8 C 0.85817(19) -0.03406(17) 0.73145(15) 0.0256(4) Uani 1 1 d . .
C9 C 0.8811(2) 0.10242(17) 0.84968(15) 0.0278(4) Uani 1 1 d . .
C10 C 0.7171(2) 0.15629(17) 0.90208(15) 0.0260(4) Uani 1 1 d . .
C11 C 0.7049(2) 0.28642(17) 1.00865(14) 0.0245(4) Uani 1 1 d . .
C12 C 0.8274(2) 0.41371(17) 1.09131(15) 0.0291(4) Uani 1 1 d . .
H12 H 0.9536 0.4230 1.0858 0.035 Uiso 1 1 calc R U
C13 C 0.7558(2) 0.52401(18) 1.18045(15) 0.0340(4) Uani 1 1 d . .
H13 H 0.8349 0.6091 1.2356 0.041 Uiso 1 1 calc R U
C14 C 0.5655(2) 0.51073(19) 1.18989(16) 0.0365(5) Uani 1 1 d . .
H14 H 0.5217 0.5868 1.2519 0.044 Uiso 1 1 calc R U
C15 C 0.4432(2) 0.38900(18) 1.11042(15) 0.0337(4) Uani 1 1 d . .
H15 H 0.3173 0.3804 1.1169 0.040 Uiso 1 1 calc R U
C16 C 0.5159(2) 0.27810(18) 1.01911(15) 0.0269(4) Uani 1 1 d . .
N1 N 0.54966(17) 0.07541(14) 0.85011(13) 0.0324(4) Uani 1 1 d . .
N2 N 0.43009(18) 0.14972(16) 0.92280(14) 0.0337(4) Uani 1 1 d . .
O1 O 0.80117(16) 0.25548(12) 0.65948(11) 0.0432(3) Uani 1 1 d . .
O2 O 0.68834(16) 0.11233(12) 0.45560(11) 0.0466(4) Uani 1 1 d . .
O3 O 1.03796(14) 0.15877(12) 0.90863(10) 0.0386(3) Uani 1 1 d . .
H2 H 0.307(2) 0.1179(17) 0.9029(14) 0.046 Uiso 1 1 d . U
loop_
_atom_site_aniso_label
_atom_site_aniso_U_11
_atom_site_aniso_U_22
_atom_site_aniso_U_33
_atom_site_aniso_U_23
_atom_site_aniso_U_13
_atom_site_aniso_U_12
C1 0.0537(13) 0.0460(12) 0.0650(15) 0.0332(11) -0.0027(11) 0.0052(9)
C2 0.0269(10) 0.0373(10) 0.0331(11) 0.0108(9) 0.0050(8) 0.0017(8)
C3 0.0251(9) 0.0289(9) 0.0266(10) 0.0062(8) 0.0039(7) 0.0027(7)
C4 0.0442(11) 0.0377(10) 0.0251(11) 0.0076(9) 0.0032(8) 0.0028(8)
C5 0.0512(12) 0.0317(10) 0.0294(11) 0.0005(8) 0.0056(9) 0.0057(8)
C6 0.0467(12) 0.0313(10) 0.0353(12) 0.0091(9) 0.0073(9) 0.0119(8)
C7 0.0338(10) 0.0401(10) 0.0281(11) 0.0101(9) 0.0033(8) 0.0100(8)
C8 0.0187(9) 0.0310(9) 0.0256(10) 0.0035(8) 0.0050(7) 0.0032(7)
C9 0.0253(9) 0.0325(9) 0.0261(10) 0.0087(8) 0.0033(8) 0.0030(8)
C10 0.0199(9) 0.0317(9) 0.0251(10) 0.0056(8) 0.0022(7) 0.0036(7)
C11 0.0214(9) 0.0294(9) 0.0233(10) 0.0081(7) 0.0021(7) 0.0054(7)
C12 0.0257(9) 0.0343(10) 0.0280(10) 0.0104(8) 0.0019(8) 0.0036(7)
C13 0.0387(11) 0.0331(10) 0.0282(11) 0.0060(8) 0.0025(8) 0.0039(8)
C14 0.0444(12) 0.0382(11) 0.0293(11) 0.0077(9) 0.0103(9) 0.0148(9)
C15 0.0291(10) 0.0423(11) 0.0345(11) 0.0134(9) 0.0122(8) 0.0099(8)
C16 0.0254(9) 0.0314(9) 0.0255(10) 0.0093(8) 0.0046(7) 0.0049(7)
N1 0.0227(8) 0.0387(8) 0.0324(9) 0.0027(7) 0.0045(7) 0.0036(6)
N2 0.0178(8) 0.0412(9) 0.0388(10) 0.0050(7) 0.0049(7) 0.0002(7)
O1 0.0560(8) 0.0313(7) 0.0379(8) 0.0026(6) 0.0046(6) 0.0042(6)
O2 0.0605(9) 0.0355(7) 0.0403(8) 0.0155(6) -0.0116(7) 0.0005(6)
O3 0.0212(7) 0.0470(7) 0.0382(8) -0.0035(6) 0.0012(6) 0.0006(5)
loop_
_atom_type_symbol
_atom_type_description
_atom_type_scat_dispersion_real
_atom_type_scat_dispersion_imag
_atom_type_scat_source
C C 0.0033 0.0016 'International Tables Vol C Tables 4.2.6.8 and 6.1.1.4'
H H 0.0000 0.0000 'International Tables Vol C Tables 4.2.6.8 and 6.1.1.4'
N N 0.0061 0.0033 'International Tables Vol C Tables 4.2.6.8 and 6.1.1.4'
O O 0.0106 0.0060 'International Tables Vol C Tables 4.2.6.8 and 6.1.1.4'
loop_
_geom_angle_atom_site_label_1
_geom_angle_atom_site_label_2
_geom_angle_atom_site_label_3
_geom_angle
O1 C2 O2 124.36(14)
O1 C2 C3 124.59(16)
O2 C2 C3 111.05(14)
C4 C3 C8 119.35(13)
C4 C3 C2 120.86(15)
C8 C3 C2 119.74(14)
C5 C4 C3 120.65(15)
C6 C5 C4 119.77(16)
C5 C6 C7 120.25(14)
C6 C7 C8 120.65(15)
C7 C8 C3 119.30(14)
C7 C8 C9 116.10(14)
C3 C8 C9 124.60(13)
O3 C9 C10 120.37(14)
O3 C9 C8 119.94(14)
C10 C9 C8 119.35(14)
N1 C10 C11 111.46(14)
N1 C10 C9 119.50(14)
C11 C10 C9 129.02(14)
C16 C11 C12 118.99(15)
C16 C11 C10 104.42(14)
C12 C11 C10 136.44(15)
C13 C12 C11 118.27(16)
C12 C13 C14 121.31(16)
C15 C14 C13 121.70(16)
C14 C15 C16 116.89(16)
N2 C16 C15 130.92(15)
N2 C16 C11 106.20(14)
C15 C16 C11 122.83(16)
C10 N1 N2 105.14(13)
N1 N2 C16 112.76(13)
C2 O2 C1 117.24(13)
loop_
_geom_bond_atom_site_label_1
_geom_bond_atom_site_label_2
_geom_bond_distance
C1 O2 1.4516(16)
C2 O1 1.2040(17)
C2 O2 1.3348(17)
C2 C3 1.4902(19)
C3 C4 1.3925(19)
C3 C8 1.3975(19)
C4 C5 1.3824(19)
C5 C6 1.376(2)
C6 C7 1.3821(19)
C7 C8 1.3871(18)
C8 C9 1.496(2)
C9 O3 1.2332(17)
C9 C10 1.4554(19)
C10 N1 1.3399(18)
C10 C11 1.4228(19)
C11 C16 1.3988(19)
C11 C12 1.406(2)
C12 C13 1.3743(19)
C13 C14 1.406(2)
C14 C15 1.365(2)
C15 C16 1.3948(19)
C16 N2 1.3687(19)
N1 N2 1.3500(16)
loop_
_geom_hbond_atom_site_label_D
_geom_hbond_atom_site_label_H
_geom_hbond_atom_site_label_A
_geom_hbond_distance_DH
_geom_hbond_distance_HA
_geom_hbond_distance_DA
_geom_hbond_angle_DHA
_geom_hbond_site_symmetry_A
N2 H2 O3 0.901(15) 2.034(15) 2.8587(17) 151.5(13) 1_455
