#------------------------------------------------------------------------------
#$Date: 2019-11-11 18:52:43 +0200 (Mon, 11 Nov 2019) $
#$Revision: 226949 $
#$URL: file:///home/coder/svn-repositories/cod/cif/4/03/55/4035501.cif $
#------------------------------------------------------------------------------
#
# This file is available in the Crystallography Open Database (COD),
# http://www.crystallography.net/
#
# All data on this site have been placed in the public domain by the
# contributors.
#
data_4035501
loop_
_publ_author_name
'Bulut, Safak'
'Queen, Wendy L.'
_publ_section_title
;
 Catalyst-Free Synthesis of Aryl Diamines via a Three-Step Reaction
 Process.
;
_journal_issue                   7
_journal_name_full               'The Journal of organic chemistry'
_journal_page_first              3806
_journal_page_last               3818
_journal_paper_doi               10.1021/acs.joc.8b00151
_journal_volume                  83
_journal_year                    2018
_chemical_formula_moiety         'C16 H16 N2 O4'
_chemical_formula_sum            'C16 H16 N2 O4'
_chemical_formula_weight         300.31
_chemical_name_common            'CCDC 1540292_Compound 6_SB97d_2_0m'
_space_group_crystal_system      monoclinic
_space_group_IT_number           14
_space_group_name_Hall           '-P 2ybc'
_space_group_name_H-M_alt        'P 1 21/c 1'
_atom_sites_solution_hydrogens   geom
_atom_sites_solution_primary     direct
_audit_creation_date             2016-07-26
_audit_creation_method
;
Olex2 1.2
(compiled 2016.02.19 svn.r3266 for OlexSys, GUI svn.r5155)
;
_cell_angle_alpha                90
_cell_angle_beta                 100.552(9)
_cell_angle_gamma                90
_cell_formula_units_Z            2
_cell_length_a                   5.0825(12)
_cell_length_b                   10.495(3)
_cell_length_c                   13.156(3)
_cell_measurement_reflns_used    2542
_cell_measurement_temperature    120(2)
_cell_measurement_theta_max      48.560
_cell_measurement_theta_min      4.999
_cell_volume                     689.9(3)
_computing_molecular_graphics    'Olex2 (Dolomanov et al., 2009)'
_computing_publication_material  'Olex2 (Dolomanov et al., 2009)'
_computing_structure_refinement  'ShelXL (Sheldrick, 2015)'
_computing_structure_solution    'ShelXT (Sheldrick, 2015)'
_diffrn_ambient_temperature      120.0
_diffrn_measured_fraction_theta_full 0.999
_diffrn_measured_fraction_theta_max 0.993
_diffrn_measurement_device_type  Venture
_diffrn_radiation_type           MoK\a
_diffrn_radiation_wavelength     0.71073
_diffrn_reflns_av_R_equivalents  0.1175
_diffrn_reflns_av_unetI/netI     0.0557
_diffrn_reflns_Laue_measured_fraction_full 0.999
_diffrn_reflns_Laue_measured_fraction_max 0.993
_diffrn_reflns_limit_h_max       5
_diffrn_reflns_limit_h_min       -5
_diffrn_reflns_limit_k_max       12
_diffrn_reflns_limit_k_min       -12
_diffrn_reflns_limit_l_max       15
_diffrn_reflns_limit_l_min       -15
_diffrn_reflns_number            10854
_diffrn_reflns_point_group_measured_fraction_full 0.999
_diffrn_reflns_point_group_measured_fraction_max 0.993
_diffrn_reflns_theta_full        24.749
_diffrn_reflns_theta_max         24.749
_diffrn_reflns_theta_min         2.499
_exptl_absorpt_coefficient_mu    0.105
_exptl_crystal_colour            'clear colourless'
_exptl_crystal_density_diffrn    1.446
_exptl_crystal_description       needle
_exptl_crystal_F_000             316
_refine_diff_density_max         0.273
_refine_diff_density_min         -0.510
_refine_diff_density_rms         0.115
_refine_ls_extinction_method     none
_refine_ls_goodness_of_fit_ref   1.101
_refine_ls_hydrogen_treatment    constr
_refine_ls_matrix_type           full
_refine_ls_number_parameters     102
_refine_ls_number_reflns         1211
_refine_ls_number_restraints     0
_refine_ls_restrained_S_all      1.101
_refine_ls_R_factor_all          0.0935
_refine_ls_R_factor_gt           0.0744
_refine_ls_shift/su_max          0.000
_refine_ls_shift/su_mean         0.000
_refine_ls_structure_factor_coef Fsqd
_refine_ls_weighting_details
'w=1/[\s^2^(Fo^2^)+(0.1293P)^2^+0.8606P] where P=(Fo^2^+2Fc^2^)/3'
_refine_ls_weighting_scheme      calc
_refine_ls_wR_factor_gt          0.1963
_refine_ls_wR_factor_ref         0.2159
_reflns_Friedel_coverage         0.000
_reflns_number_gt                984
_reflns_number_total             1211
_reflns_threshold_expression     'I > 2\s(I)'
_cod_data_source_file            jo8b00151_si_002.cif
_cod_data_source_block           sb97d_2_0m
_cod_database_code               4035501
_shelx_space_group_comment
;
The symmetry employed for this shelxl refinement is uniquely defined
by the following loop, which should always be used as a source of
symmetry information in preference to the above space-group names.
They are only intended as comments.
;
_olex2_refinement_description
;
1. Twinned data refinement
 Scales: 0.743(4) 0.257(4)
2. Fixed Uiso
 At 1.2 times of:
  All C(H) groups, All C(H,H) groups, All N(H) groups
 At 1.5 times of:
  All O(H) groups
3.a Secondary CH2 refined with riding coordinates:
 C00A(H00A,H00B)
3.b Aromatic/amide H refined with riding coordinates:
 N003(H003), C005(H005), C006(H006), C008(H008), C00B(H00C)
3.c Idealised tetrahedral OH refined as rotating group:
 O002(H002)
;
_shelx_res_file
;
    sb97d_2_0m.res created by SHELXL-2014/7

TITL sb97d_2_0m_a.res in P2(1)/c
REM Old TITL SB97d_2_0m in P21/c #14
REM SHELXT solution in P2(1)/c
REM R1 0.242, Rweak 0.156, Alpha 0.208, Orientation as input
REM Formula found by SHELXT: C8 N O2
CELL 0.71073 5.0825 10.4948 13.1557 90 100.552 90
ZERR 2 0.0012 0.0025 0.0033 0 0.009 0
LATT 1
SYMM -X,0.5+Y,0.5-Z
SFAC C H N O
UNIT 32 32 4 8

L.S. 4
PLAN  20
TEMP -153.15
BOND $H
LIST 6
fmap 2
ACTA
TWIN 1 0 0 0 -1 0 -1 0 -1 2
REM <olex2.extras>
REM <HklSrc "%.\\SB97d_2_0m.hkl">
REM </olex2.extras>

WGHT    0.129300    0.860600
BASF   0.25733
FVAR       0.92744
O001  4   -0.226256    0.428225    0.050169    11.00000    0.03251    0.01547 =
         0.01507    0.00029    0.00210   -0.00071
O002  4   -0.328185    0.632262    0.075073    11.00000    0.03241    0.01694 =
         0.02316    0.00090   -0.00502    0.00259
AFIX 147
H002  2   -0.471550    0.611701    0.035894    11.00000   -1.50000
AFIX   0
N003  3    0.701449    0.578067    0.425132    11.00000    0.03273    0.01741 =
         0.01304   -0.00370   -0.00221    0.00055
AFIX  43
H003  2    0.717343    0.648912    0.461527    11.00000   -1.20000
AFIX   0
C004  1   -0.174288    0.530304    0.096088    11.00000    0.03179    0.01814 =
         0.01159    0.00269    0.00653   -0.00218
C005  1    0.096479    0.657061    0.239275    11.00000    0.02949    0.01748 =
         0.01559    0.00302    0.00667    0.00146
AFIX  43
H005  2   -0.026625    0.725629    0.224516    11.00000   -1.20000
AFIX   0
C006  1    0.456141    0.455864    0.281831    11.00000    0.02868    0.01759 =
         0.01480    0.00134    0.00675    0.00160
AFIX  43
H006  2    0.578584    0.386990    0.296260    11.00000   -1.20000
AFIX   0
C007  1    0.059145    0.546847    0.178484    11.00000    0.02915    0.01613 =
         0.01405    0.00066    0.00815   -0.00225
C008  1    0.309273    0.667307    0.320139    11.00000    0.03184    0.01594 =
         0.01372   -0.00265    0.00636    0.00032
AFIX  43
H008  2    0.331680    0.742869    0.360565    11.00000   -1.20000
AFIX   0
C009  1    0.493753    0.567203    0.343549    11.00000    0.02787    0.01763 =
         0.01206    0.00226    0.00641   -0.00234
C00A  1    0.897305    0.477589    0.454383    11.00000    0.03307    0.02022 =
         0.01416    0.00045    0.00532    0.00097
AFIX  23
H00A  2    0.986363    0.456997    0.395499    11.00000   -1.20000
H00B  2    0.807418    0.399701    0.473260    11.00000   -1.20000
AFIX   0
C00B  1    0.243140    0.447157    0.201164    11.00000    0.03404    0.01387 =
         0.01173   -0.00089    0.00205   -0.00025
AFIX  43
H00C  2    0.220384    0.372146    0.160068    11.00000   -1.20000
AFIX   0
HKLF 4

REM  sb97d_2_0m_a.res in P2(1)/c
REM R1 =  0.0744 for     984 Fo > 4sig(Fo)  and  0.0935 for all    1211 data
REM    102 parameters refined using      0 restraints

END

WGHT      0.1293      0.8610

REM Highest difference peak  0.273,  deepest hole -0.510,  1-sigma level  0.115
Q1    1   0.5977  0.3904  0.1733  11.00000  0.05    0.27
Q2    1   0.6321  0.4158  0.1905  11.00000  0.05    0.27
Q3    1   0.1921  0.4327  0.0530  11.00000  0.05    0.27
Q4    1  -0.1914  0.3972  0.1670  11.00000  0.05    0.27
Q5    1   0.0062  0.4744  0.0634  11.00000  0.05    0.26
Q6    1  -0.1386  0.4585  0.2351  11.00000  0.05    0.26
Q7    1  -0.0127  0.4459 -0.0050  11.00000  0.05    0.26
Q8    1  -0.3969  0.5412  0.1518  11.00000  0.05    0.25
Q9    1  -0.0426  0.5906  0.3285  11.00000  0.05    0.25
Q10   1   0.0242  0.4124  0.0624  11.00000  0.05    0.25
Q11   1   1.0915  0.3195  0.3759  11.00000  0.05    0.25
Q12   1   0.4009  0.4567  0.4141  11.00000  0.05    0.25
Q13   1   1.2117  0.3820  0.4132  11.00000  0.05    0.24
Q14   1   0.4165  0.5421  0.1702  11.00000  0.05    0.24
Q15   1   1.0364  0.5223  0.3080  11.00000  0.05    0.23
Q16   1   1.0086  0.4347  0.3671  11.00000  0.05    0.23
Q17   1  -0.1782  0.4965  0.2115  11.00000  0.05    0.23
Q18   1   0.2249  0.5507  0.0808  11.00000  0.05    0.23
Q19   1   0.4540  0.5616  0.1861  11.00000  0.05    0.22
Q20   1   0.1925  0.6205  0.1767  11.00000  0.05    0.22
;
_shelx_res_checksum              58238
_shelx_hkl_file
;
  -1   0   0    0.10    1.20
   1   0   0    0.50    2.10
  -1   0   0    1.70    1.40
   2   0   0  629.64   44.90
  -2   0   0  646.54   44.00
   3   0   0   -4.50    3.70
   3   0   0   -4.30    6.40
   4   0   0   79.69    8.10
   4   0   0   97.19   15.00
   4   0   0   78.29    9.50
   5   0   0  171.38   30.40
   5   0   0  238.38   21.70
   1  -1   0   89.19    6.40
   1   1   0   97.19    6.50
   1   1   0   80.39    6.40
   1   1   0   79.59    6.30
   2  -1   0  294.37   20.10
   2  -1   0  270.37   22.20
   2   1   0  314.77   19.90
  -2   1   0  295.27   20.30
  -2   1   0  250.87   20.70
   2   1   0  277.37   20.40
   2   1   0  278.27   20.50
   3  -1   0   34.70   11.00
   3  -1   0   57.59    5.20
   3   1   0   40.40    7.80
   3   1   0   44.40    6.10
  -3   1   0   48.50    5.70
  -3   1   0   36.80    5.50
   3   1   0   44.00    4.80
   4  -1   0    4.60   14.70
   4  -1   0    8.40    4.40
   4   1   0   10.60   12.00
   4   1   0   -3.70    6.60
   5  -1   0   14.90   10.10
   5  -1   0    6.10    5.40
   5  -1   0   20.80   23.30
   5   1   0    9.40   10.40
   5   1   0    3.30   19.30
   0   2   0 8835.12  605.14
   1  -2   0   57.49    7.80
   1  -2   0   40.70    4.20
  -1  -2   0   40.50    3.80
  -1  -2   0   34.50    3.80
   1   2   0   43.50    3.80
   1   2   0   40.80    4.00
  -1   2   0   38.30    4.00
  -1   2   0   49.80    6.60
  -1   2   0   39.20    4.90
   1   2   0   44.60    3.70
   2  -2   0  206.08   17.00
  -2  -2   0  190.68   13.10
   2   2   0  175.68   12.90
  -2   2   0  161.78   13.60
   2   2   0  152.88   12.40
   3  -2   0  548.85   41.20
   3  -2   0  615.14   45.10
  -3   2   0  599.34   41.70
   3   2   0  612.24   42.10
   3   2   0  531.15   40.70
  -3   2   0  655.03   42.30
   3   2   0  578.04   41.50
   4  -2   0   83.59   19.50
   4  -2   0   98.59   10.80
  -4   2   0   97.89   10.30
   4   2   0   81.39   13.90
   4   2   0  101.49   10.50
  -4   2   0   91.09   10.00
   5  -2   0    7.00    7.00
   5  -2   0   29.30   26.90
   5   2   0   12.30   21.20
   5   2   0    5.90   10.10
   0  -3   0    2.20    2.10
   0  -3   0   -0.80    2.00
   0   3   0    5.20    5.70
   0   3   0    3.10    1.70
   0   3   0    1.70    2.00
   0   3   0    2.90    3.20
  -1  -3   0  255.57   17.50
  -1  -3   0  259.57   17.70
   1  -3   0  228.38   21.20
   1  -3   0  244.58   17.90
   1  -3   0  228.18   17.30
   1   3   0  254.17   17.70
   1   3   0  266.17   17.60
  -1   3   0  247.88   18.60
   1   3   0  230.28   17.90
  -1   3   0  238.78   17.90
  -1   3   0  244.28   20.80
   1   3   0  259.47   17.00
  -2  -3   0  696.13   46.40
   2  -3   0  623.34   49.80
  -2  -3   0  675.33   46.60
   2  -3   0  682.03   46.70
   2   3   0  679.43   46.30
  -2   3   0  658.63   47.20
   2   3   0  633.64   46.60
   2   3   0  680.63   46.40
   3  -3   0  105.59    9.60
   3  -3   0   86.99   16.80
   3   3   0   95.29    9.40
  -3   3   0   88.29   12.30
   3   3   0   92.99   11.50
  -3   3   0   93.79   11.10
   3   3   0   96.79    8.10
   4  -3   0   12.70    6.30
   4  -3   0   23.60   19.00
   4   3   0   11.80    6.60
  -4   3   0   16.40    9.30
   4   3   0   11.20   10.50
  -4   3   0   13.30    8.10
   5  -3   0  -41.30   26.70
   5  -3   0   17.80    8.80
   5   3   0   24.10    9.60
   5   3   0    0.30   17.70
   0  -4   0  293.77   21.70
   0   4   0  317.57   25.30
   0   4   0  299.87   21.40
   0   4   0  295.07   22.50
   0   4   0  304.37   21.70
   1  -4   0  413.36   28.50
   1  -4   0  397.36   29.10
   1  -4   0  414.46   33.60
  -1  -4   0  398.06   28.80
  -1  -4   0  423.66   28.60
  -1   4   0  402.56   29.10
  -1   4   0  403.56   29.90
   1   4   0  412.26   29.20
   1   4   0  403.26   29.30
  -1   4   0  417.06   33.20
   1   4   0  412.16   29.00
   2  -4   0  223.48   25.20
  -2  -4   0  289.67   18.80
   2  -4   0  248.78   19.30
  -2  -4   0  247.08   18.70
   2   4   0  251.97   18.60
   2   4   0  243.58   19.40
   2   4   0  253.47   18.60
  -2   4   0  259.07   20.50
  -3  -4   0  270.27   20.80
   3  -4   0  277.77   20.90
   3  -4   0  269.07   31.70
  -3   4   0  262.77   22.30
  -3   4   0  269.17   25.00
   3   4   0  258.77   21.20
   3   4   0  261.17   19.70
   3   4   0  278.87   20.20
   4  -4   0   45.90   24.50
   4  -4   0   13.30    7.60
   4   4   0    7.10   12.70
   4   4   0   -1.80    4.60
   4   4   0    8.50    6.60
  -4   4   0    1.20    9.50
  -4   4   0   17.70   11.80
   5  -4   0   66.49   35.80
   5  -4   0   27.00   10.60
   5   4   0   30.10   18.20
  -5   4   0   44.20   13.10
   5   4   0   43.40   11.40
   5   4   0   19.20   21.20
  -5   4   0   21.40   11.40
   0  -5   0   67.39    7.50
   0   5   0   65.79    6.60
   0   5   0   64.99    7.30
  -1  -5   0   50.39    5.50
   1  -5   0   44.60    5.60
   1  -5   0   51.39   12.00
   1  -5   0   55.29    6.40
  -1  -5   0   52.59    6.30
   1   5   0   41.80    6.40
   1   5   0   58.39    6.60
   1   5   0   52.59    5.90
  -1   5   0   61.99   14.50
  -1   5   0   56.59    8.60
  -1   5   0   47.40    6.50
  -2  -5   0   53.79    5.90
   2  -5   0   22.00   13.40
   2  -5   0   55.29    6.70
  -2   5   0   61.39    8.90
   2   5   0   48.30    7.20
   2   5   0   43.20    3.70
   2   5   0   49.20    5.70
   2   5   0   39.80    7.20
   2   5   0   32.80    5.20
  -3  -5   0    8.80    6.00
   3  -5   0   15.00   18.40
  -3  -5   0    5.40    5.00
   3  -5   0    8.70    6.30
   3   5   0    3.00    7.50
  -3   5   0   16.90    9.10
  -3   5   0    6.20   13.10
   3   5   0    0.30    6.40
   3   5   0    4.60    5.10
   4  -5   0   36.10    9.80
   4  -5   0   52.49   28.70
   4   5   0   32.50   12.80
  -4   5   0   43.90   18.50
   4   5   0   43.50   13.00
  -4   5   0   43.70   13.80
   4   5   0   42.80    7.10
   4   5   0   51.79    8.10
   5  -5   0  122.89   43.70
   5  -5   0   -1.90   12.00
   5   5   0  -23.00   20.90
   5   5   0   -8.70    9.60
   5   5   0    8.90   20.40
  -5   5   0   17.70   19.30
  -5   5   0   13.60   14.20
   0  -6   0  256.17   20.60
   0   6   0  269.67   20.10
   0   6   0  286.67   20.80
   1  -6   0  139.39   13.50
   1  -6   0  159.78   12.20
  -1  -6   0  154.78   11.70
  -1  -6   0  152.08   12.90
  -1   6   0  140.29   15.30
   1   6   0  147.99   12.90
  -1   6   0  160.48   22.20
  -1   6   0  148.59   13.50
   1   6   0  151.18   12.90
   1   6   0  128.99   14.50
   2  -6   0  155.28   24.00
   2  -6   0  193.18   14.20
  -2  -6   0  186.48   15.00
  -2  -6   0  169.58   15.70
   2  -6   0  195.68   16.70
  -2   6   0  173.88   18.40
  -2   6   0  199.98   16.60
   2   6   0  172.88   15.50
   2   6   0  195.58   17.40
  -2   6   0  264.47   27.10
   2   6   0  194.68   17.00
   3  -6   0  -38.80   19.00
   3  -6   0   17.80    4.70
  -3  -6   0   24.70    5.80
   3  -6   0   26.90    8.10
   3   6   0   14.90    9.40
   3   6   0   10.10    2.80
   3   6   0   12.00    9.90
  -3   6   0   18.80   18.20
   3   6   0    6.00    5.80
   3   6   0   22.20    6.60
  -3   6   0   -7.60   10.90
   4  -6   0  276.47   37.60
  -4  -6   0  203.68   22.00
  -4   6   0  213.58   27.00
   4   6   0  238.78   19.90
   4   6   0  232.68   25.20
   4   6   0  226.38   20.40
   4   6   0  200.88   24.70
   4   6   0  248.78   17.80
   5  -6   0   29.60   14.70
   5  -6   0  -31.00   41.90
   5   6   0   74.69   18.00
  -5   6   0   22.90   19.40
   5   6   0   39.30   13.80
  -5   6   0  -40.60   20.70
   5   6   0  -21.70   22.20
   5   6   0   29.60   22.90
   5   6   0   19.40    8.30
   0  -7   0   91.39   10.50
   0   7   0   85.99    9.30
   0   7   0   98.19   11.40
  -1  -7   0   66.89    8.60
  -1  -7   0   64.79    7.40
   1  -7   0   85.29    9.60
   1   7   0   77.39   11.00
  -1   7   0  129.59   22.30
   1   7   0   76.29    8.60
   1   7   0   69.09    8.80
  -1   7   0  110.39   12.70
  -1   7   0   92.89    9.70
   2  -7   0   58.29    9.20
   2  -7   0   59.69    6.80
   2  -7   0   80.29   22.60
  -2  -7   0   51.39    7.40
  -2   7   0   83.79   12.50
  -2   7   0   84.59   22.40
   2   7   0   57.99   10.20
  -2   7   0   78.19    9.80
   2   7   0   40.00    7.90
   2   7   0   52.09   10.80
  -3  -7   0   41.00    8.10
   3  -7   0   52.19    6.60
  -3  -7   0   47.50    9.10
   3  -7   0   17.40   29.00
   3  -7   0   33.10   11.30
   3   7   0   39.20   12.30
   3   7   0   48.80   11.40
  -3   7   0   57.49   15.50
   3   7   0   52.19    8.30
  -3   7   0   45.90   23.00
  -4  -7   0  375.56   29.60
   4  -7   0  350.26   30.80
   4  -7   0  235.78   45.60
   4   7   0  355.36   24.50
   4   7   0  354.16   27.00
  -4   7   0  339.27   36.00
   4   7   0  334.27   28.20
  -4   7   0  325.27   43.00
   4   7   0  326.37   32.80
   4   7   0  335.27   28.20
   4   7   0  342.57   33.10
   0  -8   0  517.75   36.20
   0  -8   0  510.05   37.60
   0   8   0  513.85   39.50
   0   8   0  514.85   37.90
   0   8   0  541.85   48.70
   0   8   0  483.95   36.80
   1  -8   0  304.37   24.40
  -1  -8   0  265.37   23.30
  -1  -8   0  255.27   21.70
   1  -8   0  296.57   23.70
  -1   8   0  394.46   39.90
   1   8   0  302.07   25.40
   1   8   0  291.47   22.90
   1   8   0  270.07   36.60
  -1   8   0  278.37   23.50
  -1   8   0  298.97   25.80
   1   8   0  285.07   23.60
  -2  -8   0   29.60    7.00
   2  -8   0   54.49    9.90
  -2  -8   0   26.90    8.10
   2  -8   0   48.20   27.50
   2   8   0   46.50   10.10
  -2   8   0   84.19   23.80
   2   8   0   31.00    8.10
   2   8   0   38.00   12.10
  -2   8   0   49.60   11.30
  -2   8   0   48.30   13.80
  -3  -8   0   35.10    9.00
   3  -8   0   34.00   12.20
   3  -8   0   51.19   31.20
  -3  -8   0   48.30   10.40
  -3   8   0   64.99   31.10
   3   8   0   18.50   12.70
   3   8   0   62.29   10.40
   3   8   0   34.00   13.40
  -3   8   0   42.00   17.50
   4  -8   0  224.88   51.19
   4  -8   0  246.28   27.70
  -4  -8   0  208.28   24.20
  -4  -8   0  209.38   23.90
   4   8   0  188.48   24.80
  -4   8   0  232.98   28.00
  -4   8   0  161.48   35.60
   4   8   0  163.08   24.40
   4   8   0  200.58   22.20
   0  -9   0    7.30    5.20
   0  -9   0   15.10    7.80
   0   9   0   -0.90    8.10
   0   9   0   -2.10   13.30
   0   9   0    1.80    6.70
   0   9   0    8.50   23.20
   1  -9   0  217.38   20.70
  -1  -9   0  176.38   16.90
  -1  -9   0  210.08   19.80
   1  -9   0  208.78   19.60
  -1   9   0  229.28   24.30
   1   9   0  154.38   20.70
   1   9   0  182.68   31.50
   1   9   0  219.48   23.10
  -1   9   0  194.68   20.10
  -2  -9   0   25.10   10.20
   2  -9   0   41.10   11.60
  -2  -9   0   20.30    8.10
   2   9   0   55.39   14.90
   2   9   0   36.70   10.30
  -2   9   0   53.99   16.90
   2   9   0   20.70   10.40
  -2   9   0   23.40   11.50
  -2   9   0   47.90   27.90
   3  -9   0   67.99   14.80
   3  -9   0    2.40   37.20
  -3  -9   0   47.70   12.40
  -3  -9   0   42.50   12.70
  -3   9   0   83.49   35.50
   3   9   0   35.80   12.40
  -3   9   0   68.29   21.50
   3   9   0   62.89   14.80
  -4  -9   0   93.99   17.80
  -4  -9   0  129.09   20.90
   4  -9   0  116.79   20.40
   4   9   0   70.89   15.60
   0 -10   0  667.53   47.00
   0 -10   0  680.03   50.29
   0  10   0  695.23   52.89
   0  10   0  677.23   67.69
   0  10   0  639.14   49.99
   0  10   0  662.93   48.80
   1 -10   0  193.88   18.70
   1 -10   0  145.79   17.20
  -1 -10   0  137.99   17.40
  -1 -10   0  128.19   16.50
   1  10   0  177.48   20.20
  -1  10   0  181.18   20.60
   1  10   0  167.68   20.00
   1  10   0  197.48   22.60
   1  10   0  175.58   37.10
  -1  10   0  193.88   23.40
  -2 -10   0   -9.60    8.40
   2 -10   0    3.90   12.20
  -2 -10   0  -19.10   13.20
   2 -10   0   14.70   17.10
  -2  10   0   38.60   33.30
   2  10   0  -12.40   10.20
   2  10   0    6.20   16.00
   2  10   0   -6.70   13.20
  -2  10   0  -14.90   19.20
   2  10   0  -17.30   35.20
  -3 -10   0  -10.00   13.90
   3 -10   0   28.30   23.80
  -3 -10   0   39.40   14.70
   3 -10   0  -10.50   15.50
   3  10   0    1.60   14.00
  -3  10   0    8.10   24.50
   3  10   0    0.00   21.50
   3  10   0   15.60   17.60
  -3  10   0   30.30   37.70
   0 -11   0   -5.80    5.40
   0 -11   0    0.40   14.40
   0  11   0  -10.40   10.60
   0  11   0   -8.60   19.70
   0  11   0   -6.10   12.30
   0  11   0  -31.70   40.10
   1 -11   0   46.10   14.40
  -1 -11   0   47.80   15.30
  -1 -11   0   32.40   11.10
   1  11   0   68.79   14.60
  -1  11   0   15.60   22.20
   1  11   0   30.60   14.00
  -1  11   0   52.19   15.70
  -1  11   0   33.20   43.10
   1  11   0   72.79   20.60
   1  11   0   66.19   40.00
   2 -11   0   -0.40   15.70
  -2 -11   0  -12.10   16.50
  -2 -11   0   -6.30   11.10
   2 -11   0   60.89   20.00
   2  11   0   36.90   44.80
   2  11   0   38.10   15.50
   2  11   0   88.39   23.90
  -2  11   0   30.40   46.10
   2  11   0   19.10   16.00
  -2  11   0   30.60   26.20
   0 -12   0   -4.30    5.00
   0 -12   0   -5.50   17.60
   0  12   0   -2.30   15.00
   0  12   0   12.50   25.40
   0  12   0   31.20   51.39
   0  12   0   12.40   16.40
   1 -12   0    6.90   19.20
  -1 -12   0   23.00   13.60
   1 -12   0   18.30   13.40
  -1 -12   0   -7.00   17.90
   1  12   0   39.10   25.70
  -1  12   0   14.30   52.19
  -1  12   0   -5.50   26.80
  -1  12   0  -26.60   17.30
   1  12   0   22.10   15.80
   1  12   0   27.50   51.89
   1  12   0    8.70   17.10
   5   0  -1   -7.90   21.90
   5   0  -1    9.30    9.70
   5   0  -1   -0.10    6.10
   5   0  -1   -1.50    6.40
   4   0  -1    1.50   10.90
   4   0  -1    1.50    5.80
   2   0  -1   -1.10    3.50
   2   0  -1   -0.50    2.30
  -1   0  -1   79.49    6.90
   1   0   1   81.19    7.10
  -2   0  -1    2.20    3.60
   2   0   1    1.10    5.20
   3   0   1   -1.10    4.20
  -3   0  -1    3.70    3.30
  -3   0  -1    4.00    3.10
   3   0   1   -7.90    8.60
   4   0   1    0.40   13.20
   4   0   1   -6.90    6.80
   5   0   1   15.80   22.50
   5   0   1   18.00   10.30
   5  -1  -1  436.46   50.99
   5  -1  -1  592.64   39.10
   5  -1  -1  548.65   41.30
   5   1  -1  570.44   41.40
   5   1  -1  461.55   46.00
   4  -1  -1   14.10    5.50
   4  -1  -1   14.30   13.70
   4   1  -1   25.50    7.20
   4   1  -1   30.10    5.00
   4   1  -1   28.00   11.60
   3  -1  -1   59.49   10.60
   3   1  -1   56.49    7.30
   3   1  -1   58.39    6.50
   3   1  -1   76.29    7.90
   2  -1  -1  407.56   32.10
   2  -1  -1  447.46   31.30
   2   1  -1  464.45   31.10
  -2   1   1  428.06   30.90
   2   1  -1  433.86   31.00
  -2   1   1  476.65   31.30
   1  -1  -1  190.28   14.50
   1  -1  -1  187.78   13.40
  -1  -1   1  175.78   13.10
  -1   1   1  164.98   13.90
   1   1  -1  193.88   13.20
  -1   1   1  179.38   13.30
   1   1  -1  192.78   13.30
   1   1  -1  193.18   13.10
   0  -1   1  123.19    8.70
   0  -1   1  120.39    8.50
   0  -1   1  121.59    8.70
   0  -1  -1  127.39    9.00
   0   1   1  116.29    8.90
   0   1  -1  135.19    9.40
   0   1   1  118.09    8.60
   0   1  -1  120.99    8.70
   0   1  -1  120.39    8.70
  -1  -1  -1  351.56   23.60
  -1  -1  -1  336.77   23.40
  -1   1  -1  301.87   23.20
   1   1   1  335.27   23.40
   1   1   1  354.86   23.80
  -2  -1  -1  498.55   34.00
   2  -1   1  516.15   33.90
   2   1   1  494.15   34.40
  -2   1  -1  447.76   35.10
   2   1   1  482.15   34.90
   3  -1   1  122.09   15.00
   3  -1   1  141.29   10.20
  -3   1  -1  120.49   12.70
   3   1   1  127.59   14.80
  -3   1  -1  140.79   11.60
   3   1   1  133.59   11.80
   4  -1   1    2.00   16.20
   4  -1   1    5.70    3.60
   4   1   1   -5.10   13.40
   4   1   1  -16.10    6.50
   5  -1   1  -26.40   28.40
   5  -1   1   10.40   11.10
   5   1   1   -4.20   22.30
   5   1   1    9.30   11.50
   5  -2  -1  346.77   27.10
   5  -2  -1  338.47   44.90
   5   2  -1  371.46   31.60
   5   2  -1  330.07   35.50
   5   2  -1  334.67   28.60
   4  -2  -1    8.50    6.60
   4  -2  -1   -0.30   15.10
   4   2  -1    9.20    7.20
   4   2  -1   -4.40    9.30
   4   2  -1    6.80    4.50
   3  -2  -1  270.17   26.00
   3  -2  -1  300.57   21.10
   3   2  -1  291.67   21.40
  -3   2   1  276.77   21.10
   2  -2  -1   24.20    4.70
   2  -2  -1   16.00    6.80
   2  -2  -1   24.00    3.70
  -2  -2   1   20.20    3.50
   2   2  -1   20.50    3.00
   2   2  -1   19.40    3.40
  -2   2   1   19.80    3.80
  -2   2   1   13.90    5.10
  -1  -2   1   53.69    4.90
   1  -2  -1   56.79    7.60
   1  -2  -1   46.50    6.00
   1  -2  -1   55.49    5.40
  -1  -2   1   57.89    4.60
   1   2  -1   53.69    5.40
  -1   2   1   56.89    5.40
  -1   2   1   54.49    7.50
   1   2  -1   59.69    4.90
   1   2  -1   52.39    4.40
   0  -2   1 1655.23  113.19
   0  -2   1 1627.44  113.19
   0  -2  -1 1580.84  113.19
   0  -2   1 1792.12  114.19
   0  -2  -1 1632.94  113.09
   0  -2  -1 1645.94  113.49
   0   2   1 1596.74  113.09
   0   2  -1 1608.94  113.19
   0   2  -1 1811.22  114.29
   0   2  -1 1634.24  113.19
   0   2   1 1595.54  113.19
   0   2   1 1637.04  113.49
  -1  -2  -1  388.46   28.80
  -1  -2  -1  395.86   28.50
  -1  -2  -1  439.46   28.70
   1  -2   1  421.86   28.70
   1   2   1  424.06   28.60
   1   2   1  412.96   29.00
   1   2   1  394.26   28.50
  -1   2  -1  421.26   28.70
   2  -2   1   98.79   12.20
  -2  -2  -1  104.59    8.70
  -2  -2  -1  100.09    7.50
   2  -2   1  108.99    8.30
  -2   2  -1   90.59   11.80
   2   2   1  108.39    8.70
   2   2   1  101.69    7.60
   2   2   1   98.89    9.50
   3  -2   1  122.79   15.90
   3   2   1   96.39    9.90
  -3   2  -1   93.09   10.90
   4  -2   1  104.39   20.30
   4  -2   1   92.79    9.80
   4   2   1   92.89   10.70
  -4   2  -1   86.69   11.60
   4   2   1   68.79   13.70
  -4   2  -1   84.59   10.70
   5  -2   1   18.90   12.20
   5  -2   1   24.20    6.50
   5  -2   1  -10.50   28.20
   5   2   1   24.20   11.70
   5   2   1   31.60   22.40
   5  -3  -1  201.68   20.60
   5   3  -1  181.48   21.10
   5   3  -1  257.87   24.90
   4  -3  -1  -12.20   17.10
   4   3  -1   28.20   10.40
  -4   3   1   39.50    7.80
   3  -3  -1  124.99   11.10
   3  -3  -1   78.39   17.20
   3   3  -1  114.09    9.90
   3   3  -1   95.19    9.30
   3   3  -1   85.49    9.80
  -3   3   1  111.89   11.60
  -3   3   1  127.59   13.60
   2  -3  -1  637.04   45.40
  -2  -3   1  577.14   41.40
   2  -3  -1  588.14   41.60
  -2  -3   1  647.64   41.60
   2   3  -1  623.64   41.30
  -2   3   1  598.64   42.00
   2   3  -1  519.75   41.10
   2   3  -1  605.04   41.30
  -2   3   1  561.34   43.30
   2   3  -1  585.94   41.80
   1  -3  -1  144.39   14.40
   1  -3  -1  122.69   10.50
  -1  -3   1  121.19    9.10
   1  -3  -1  128.29    9.90
   1  -3  -1  115.59    8.80
   1   3  -1  127.29    9.90
  -1   3   1  132.49   10.60
   1   3  -1  114.09    9.20
   1   3  -1  125.59    9.50
  -1   3   1  151.18   14.20
   0  -3   1   75.19    6.30
   0  -3   1   75.39    6.40
   0  -3   1   84.99   10.10
   0  -3  -1   77.09    5.90
   0  -3  -1   67.99    6.40
   0  -3  -1   74.69    7.50
   0   3   1   70.39    6.30
   0   3   1   75.59    6.40
   0   3  -1   77.49    6.50
   0   3  -1   72.69    6.20
   0   3  -1   85.59    9.70
   0   3   1   69.79    7.30
  -1  -3  -1  191.28   13.40
  -1  -3  -1  187.58   13.90
   1  -3   1  192.08   13.80
  -1  -3  -1  181.28   13.50
   1  -3   1  175.28   18.10
   1   3   1  181.58   14.30
  -1   3  -1  177.78   13.80
   1   3   1  184.98   13.60
  -1   3  -1  168.38   17.10
   1   3   1  191.88   13.50
   1   3   1  198.68   13.00
  -2  -3  -1   15.00    3.40
   2  -3   1   12.30    9.00
  -2  -3  -1   13.90    2.70
   2  -3   1    7.50    3.50
  -2   3  -1   13.70    3.40
   2   3   1   13.00    3.10
  -2   3  -1   23.70    5.90
  -2   3  -1   18.00    7.50
   2   3   1   12.40    4.30
   2   3   1   15.20    2.70
   3  -3   1   35.10    5.70
   3   3   1   37.30    5.30
   3   3   1   24.20    8.00
  -3   3  -1   39.70    8.50
  -3   3  -1   25.60   10.20
   4  -3   1   63.19    8.20
   4  -3   1   41.00   20.60
   4   3   1   88.99    9.40
  -4   3  -1   82.69   11.40
   4   3   1   68.49   15.10
  -4   3  -1   53.29   12.10
   5  -3   1    6.60    8.20
   5  -3   1   29.50   29.00
  -5   3  -1    5.30    9.80
  -5   3  -1    8.60    8.80
   5   3   1    8.40   19.70
   5   3   1   -2.80    9.50
   5  -4  -1   13.20   11.20
   5  -4  -1   31.50   36.60
   5   4  -1   44.00   11.00
   5   4  -1   21.00   17.60
   5   4  -1   14.80   17.60
  -5   4   1   13.80    8.00
   4  -4  -1   66.49   24.00
   4  -4  -1   58.49    9.20
  -4   4   1   57.19   12.20
   4   4  -1   49.10   10.20
  -4   4   1   61.99   10.60
   4   4  -1   58.59    8.80
   4   4  -1   67.09   13.10
   4   4  -1   45.10    6.90
  -3  -4   1   85.99    8.90
   3  -4  -1   82.69    9.90
   3   4  -1   80.29   10.30
   3   4  -1   67.69    8.10
  -3   4   1   77.89   10.10
   3   4  -1   77.39    8.30
  -3   4   1   57.39   11.40
   3   4  -1   68.39    9.10
   2  -4  -1  786.12   59.39
  -2  -4   1  753.82   54.89
   2  -4  -1  801.62   55.19
  -2  -4   1  796.42   54.89
   2   4  -1  815.02   54.79
   2   4  -1  803.32   54.89
  -2   4   1  820.12   58.09
   2   4  -1  714.83   54.89
  -2   4   1  801.12   55.89
   2   4  -1  809.12   55.59
   1  -4  -1  396.56   28.50
   1  -4  -1  442.96   33.00
   1  -4  -1  388.46   29.20
  -1  -4   1  385.66   28.40
  -1  -4   1  403.86   27.90
  -1   4   1  396.76   32.50
  -1   4   1  392.16   29.10
   1   4  -1  392.06   28.60
  -1   4   1  400.26   28.50
   1   4  -1  387.16   28.50
   1   4  -1  414.76   28.40
  -1   4   1  402.66   27.70
   0  -4  -1  461.25   32.30
   0  -4  -1  467.85   33.30
   0  -4   1  462.85   32.80
   0  -4  -1  458.95   32.80
   0  -4   1  470.95   32.70
   0   4   1  466.75   32.60
   0   4   1  435.76   33.30
   0   4   1  464.85   32.80
   0   4  -1  481.15   32.70
   0   4  -1  501.15   35.80
   0   4  -1  459.05   32.80
   1  -4   1  652.33   45.10
  -1  -4  -1  664.93   44.70
  -1  -4  -1  617.54   45.10
  -1  -4  -1  634.64   44.90
   1  -4   1  676.33   48.50
   1  -4   1  644.24   44.70
   1   4   1  637.84   45.50
  -1   4  -1  634.84   45.10
   1   4   1  613.04   44.30
  -1   4  -1  652.83   45.80
  -1   4  -1  653.13   48.30
   1   4   1  663.13   44.90
   2  -4   1    3.40    4.10
   2  -4   1    6.40   11.50
  -2  -4  -1    4.90    2.70
  -2  -4  -1    3.00    3.40
   2   4   1    6.10    1.80
   2   4   1    1.20    3.00
   2   4   1    4.00    3.30
   2   4   1    2.80    5.50
  -2   4  -1    6.40    6.60
  -2   4  -1    5.50    3.80
  -2   4  -1    7.00   10.20
   3  -4   1  166.78   14.60
  -3  -4  -1  173.28   14.60
   3  -4   1  141.09   22.70
  -3  -4  -1  148.09   12.90
  -3   4  -1  198.28   17.90
   3   4   1  158.78   13.40
   3   4   1  151.68   15.90
  -3   4  -1  164.98   19.90
   3   4   1  170.68   12.80
   4  -4   1   25.20    7.50
   4  -4   1    1.10   21.90
  -4   4  -1   -3.00   12.50
  -4   4  -1   32.40   11.00
   4   4   1   29.40   13.50
   4   4   1   31.80    7.70
   5  -4   1   -8.90   33.90
   5  -4   1   26.80   10.20
  -5   4  -1   38.80   16.90
   5   4   1   -3.40   22.50
  -5   4  -1   13.20   12.40
   5   4   1   27.30   11.40
   5  -5  -1  -29.50   39.70
  -5   5   1    5.10   12.20
   5   5  -1   -7.10    9.60
   5   5  -1   13.80   17.20
   5   5  -1   16.30   18.90
  -5   5   1    7.60   17.30
   5   5  -1   -7.10   18.60
   5   5  -1    5.10    7.50
   4  -5  -1   62.99   11.00
   4  -5  -1   72.59   34.00
   4   5  -1   57.29    9.30
  -4   5   1   40.60   16.60
   4   5  -1   40.70   11.10
   4   5  -1   51.09    7.60
   4   5  -1   58.69   13.60
  -4   5   1   37.00   12.10
   4   5  -1   57.19   11.70
  -3  -5   1   22.90    6.10
  -3  -5   1   21.00    6.20
   3  -5  -1   27.50    7.00
   3  -5  -1    1.70   17.60
   3   5  -1   30.90    6.40
  -3   5   1    5.50   14.10
   3   5  -1   19.50   10.70
   3   5  -1   14.20    5.70
  -3   5   1   13.30    8.90
   3   5  -1   14.00    6.90
   3   5  -1   16.10    5.30
   2  -5  -1   16.00   14.70
   2  -5  -1   29.20    6.10
  -2  -5   1   36.60    5.30
  -2  -5   1   35.60    5.50
  -2   5   1   42.00    8.30
  -2   5   1   45.30   12.40
   2   5  -1   42.70    7.10
   2   5  -1   31.20    5.40
   2   5  -1   36.10    6.00
   2   5  -1   39.80    5.20
  -1  -5   1   51.79    6.30
   1  -5  -1   61.19    6.50
  -1  -5   1   55.19    5.60
   1   5  -1   57.99    6.40
  -1   5   1   62.69    6.90
   1   5  -1   50.49    7.00
   1   5  -1   57.09    6.30
  -1   5   1   45.80    5.30
  -1   5   1   80.69   14.10
  -1   5   1   57.79    8.00
   0  -5  -1  108.59    8.80
   0  -5   1  117.69    9.70
   0  -5  -1  110.79   11.30
   0  -5  -1  111.89   10.00
   0  -5   1  107.69   10.10
   0   5   1  109.79    9.40
   0   5   1  112.69   11.70
   0   5  -1  111.89    9.50
   0   5  -1  149.88   16.90
   0   5  -1  117.49   11.30
   0   5   1  105.09   10.30
   0   5  -1  125.19   10.20
  -1  -5  -1  183.38   13.80
   1  -5   1  193.38   14.90
   1  -5   1  196.38   14.00
   1  -5   1  186.28   22.50
  -1  -5  -1  183.48   14.40
   1   5   1  184.08   14.60
  -1   5  -1  193.48   16.10
  -1   5  -1  180.58   21.40
   1   5   1  178.08   13.30
  -1   5  -1  181.98   14.80
   1   5   1  185.98   15.60
  -2  -5  -1  216.28   17.10
  -2  -5  -1  234.78   17.30
   2  -5   1  239.68   18.00
   2  -5   1  244.88   17.10
   2  -5   1  304.67   29.50
   2   5   1  208.48   16.00
  -2   5  -1  231.98   20.00
  -2   5  -1  221.08   18.00
   2   5   1  224.48   17.50
  -2   5  -1  225.38   25.00
   2   5   1  240.98   19.10
   2   5   1  219.38   17.20
  -3  -5  -1   14.60    5.50
   3  -5   1   11.00    6.40
   3  -5   1  -24.90   17.20
  -3  -5  -1    3.50    4.00
  -3   5  -1   16.90   13.10
   3   5   1    5.40    3.20
  -3   5  -1   30.60   11.40
   3   5   1    9.30    5.10
   3   5   1    8.00    8.00
   4  -5   1   43.50   26.60
   4  -5   1   20.70    9.00
   4   5   1   21.00    8.10
   4   5   1   28.00   13.30
  -4   5  -1   16.00   13.30
  -4   5  -1   55.39   19.20
   4   5   1   12.10    5.90
   5  -5   1   43.90   42.40
   5  -5   1   11.40   11.80
   5   5   1   32.50   11.90
  -5   5  -1   31.70   21.60
  -5   5  -1   15.00   16.20
   5   5   1   11.60   25.40
   5  -6  -1   26.60   45.40
   5  -6  -1   25.10   15.20
   5   6  -1   37.10   14.40
  -5   6   1    9.40   21.90
   5   6  -1    3.50    9.70
  -5   6   1   -0.80   18.30
   5   6  -1   15.30   22.90
   5   6  -1   20.20   19.50
   5   6  -1   -6.60   12.80
  -4  -6   1   12.70    9.30
   4  -6  -1   76.29   12.30
   4  -6  -1   28.30   28.30
   4   6  -1   50.09    8.80
   4   6  -1   47.00   10.00
   4   6  -1   49.90    9.40
  -4   6   1   41.00   20.50
   4   6  -1   34.50   12.00
   4   6  -1   67.69   14.00
  -4   6   1   45.80   14.70
   3  -6  -1   -2.50    7.90
   3  -6  -1   14.80   20.30
  -3  -6   1   11.30    6.70
  -3  -6   1   -2.00    5.80
  -3   6   1    3.60   11.10
   3   6  -1    3.20    5.50
   3   6  -1    2.30    2.30
   3   6  -1    3.60    8.30
   3   6  -1    1.90    8.20
  -3   6   1   -2.90   18.80
   3   6  -1    2.20    4.00
   3   6  -1    6.60    5.80
  -2  -6   1  491.05   34.80
   2  -6  -1  463.05   44.00
   2  -6  -1  505.05   35.90
  -2  -6   1  509.15   35.30
   2   6  -1  472.55   35.80
   2   6  -1  477.75   35.90
  -2   6   1  484.65   37.10
  -2   6   1  470.35   42.40
   2   6  -1  493.25   35.20
  -1  -6   1   65.49    7.10
   1  -6  -1   70.29    9.10
   1  -6  -1   69.49    8.30
  -1   6   1   82.09    7.00
   1   6  -1   62.49    7.70
   1   6  -1   74.69    9.90
   1   6  -1   48.00   14.90
   1   6  -1   77.19    8.90
  -1   6   1   72.39    8.20
  -1   6   1   90.99   10.80
  -1   6   1  106.29   18.00
   0  -6  -1   92.49    8.90
   0  -6  -1   79.19    7.60
   0  -6   1   79.39    9.20
   0  -6   1   73.59    9.30
   0   6  -1  100.39    9.30
   0   6  -1   96.89   10.60
   0   6   1   79.19   10.10
   0   6  -1   90.59    8.60
   0   6   1   76.49    9.60
   0   6   1   81.29    8.10
   0   6   1  102.49   17.00
   0   6  -1  110.39   17.40
  -1  -6  -1  263.87   19.60
   1  -6   1  270.97   20.80
  -1  -6  -1  264.37   20.20
   1  -6   1  272.07   29.30
   1  -6   1  271.67   19.90
  -1   6  -1  278.57   20.90
  -1   6  -1  242.08   28.50
   1   6   1  271.87   20.60
   1   6   1  266.67   20.70
   1   6   1  278.27   22.10
  -1   6  -1  262.87   22.20
  -2  -6  -1   48.40    6.70
   2  -6   1   56.59    6.20
   2  -6   1   46.10    7.60
   2  -6   1   37.10   16.30
  -2  -6  -1   47.10    6.20
  -2   6  -1   63.39   11.20
  -2   6  -1   41.50   16.00
   2   6   1   45.90    4.70
  -2   6  -1   56.19    8.00
   2   6   1   46.20    7.00
   2   6   1   46.60    9.70
   3  -6   1   13.90    5.90
  -3  -6  -1   20.90    5.60
   3  -6   1   17.40    8.00
  -3  -6  -1   21.10    7.00
   3   6   1   17.10   10.10
   3   6   1   15.60    3.60
  -3   6  -1    5.40   14.90
   3   6   1   20.50    6.60
   3   6   1   20.60    6.00
  -3   6  -1   27.30   12.90
   4  -6   1   30.40   11.60
   4  -6   1   28.10   31.90
  -4  -6  -1   19.60   10.50
  -4   6  -1   -9.80   22.70
   4   6   1   31.30    7.70
   4   6   1   13.00    8.90
   4   6   1   24.70   15.50
   4   6   1   23.40    5.60
  -4   6  -1   30.80   17.40
   5  -6   1   18.60   15.20
   5  -6   1   60.29   48.40
   5   6   1   90.29   26.00
   5   6   1    5.20   23.00
   5   6   1  -14.70   13.80
  -5   6  -1   30.00   23.80
   5   6   1    5.90    8.40
   4  -7  -1   26.50   12.50
  -4  -7   1   26.70   11.30
   4  -7  -1   -0.70   37.30
  -4   7   1   32.40   19.60
   4   7  -1   -1.50    3.90
   4   7  -1   -5.40    9.20
   4   7  -1    5.00    9.00
  -4   7   1   31.10   23.80
   4   7  -1   -4.90    6.60
   4   7  -1   28.10   14.10
   4   7  -1    9.30   14.50
   3  -7  -1   67.19   11.50
   3  -7  -1   47.90   25.20
  -3  -7   1   25.30    8.60
  -3  -7   1   47.50    9.00
  -3   7   1   57.49   14.50
   3   7  -1   49.99    8.50
   3   7  -1   55.89   11.10
   3   7  -1   54.09   11.40
  -3   7   1   55.79   21.60
  -2  -7   1   28.50    7.30
   2  -7  -1   47.00    8.60
  -2  -7   1   39.30    6.50
   2   7  -1   49.10    7.60
  -2   7   1   23.80   17.80
   2   7  -1   20.80    9.10
   2   7  -1   37.00    9.40
  -2   7   1   38.90   11.20
  -1  -7   1   99.29   12.00
  -1  -7   1  110.79   10.40
   1  -7  -1  126.69   13.20
   1  -7  -1  110.89   12.70
  -1   7   1  114.99   10.10
   1   7  -1  112.99   15.00
  -1   7   1  120.19   12.80
   1   7  -1  113.89   12.30
  -1   7   1  131.09   21.90
   1   7  -1  107.09   11.70
  -1   7   1  138.49   15.10
   1   7  -1  116.39   21.40
   0  -7  -1   16.00    4.20
   0  -7  -1   21.90    6.00
   0  -7   1   10.60    5.60
   0   7   1   15.80    6.40
   0   7  -1    9.40    8.20
   0   7  -1    1.60   14.40
   0   7  -1   13.60    6.00
   0   7   1   27.80   17.00
   0   7   1   13.90    8.40
   0   7   1    7.70    4.60
   0   7  -1   15.60    5.20
   1  -7   1  220.28   18.40
   1  -7   1  215.88   17.00
   1  -7   1  222.88   27.80
  -1  -7  -1  211.48   17.50
  -1  -7  -1  208.88   16.30
  -1   7  -1  249.88   29.00
   1   7   1  226.48   17.70
  -1   7  -1  197.98   20.20
  -1   7  -1  220.68   18.40
   1   7   1  199.08   19.70
   1   7   1  188.68   17.50
  -2  -7  -1   27.80    6.00
   2  -7   1   24.30   20.60
   2  -7   1   28.70    7.80
   2  -7   1   16.50    5.20
  -2  -7  -1    8.50    5.80
   2   7   1    8.90   10.20
  -2   7  -1   37.00    8.20
  -2   7  -1   68.09   29.70
  -2   7  -1   25.00   11.60
   2   7   1   28.80    6.90
   3  -7   1   28.80   26.00
  -3  -7  -1   56.89    8.70
   3  -7   1   70.89   11.30
   3  -7   1   66.39    8.10
  -3  -7  -1   47.70    9.20
  -3   7  -1   61.89   23.90
   3   7   1   62.79    9.40
   3   7   1   85.89   13.20
  -3   7  -1   45.50   28.40
   3   7   1   62.79    6.00
   3   7   1   54.19   13.00
   4  -7   1    9.80   12.70
  -4  -7  -1   18.20   11.00
   4  -7   1    0.80   35.50
   4  -7   1   23.80    8.60
   4   7   1   40.10   17.40
   4   7   1   15.80    9.40
   4   7   1   24.60    5.50
   4   7   1   15.70   10.20
  -4   7  -1   26.10   18.60
   4   7   1   32.10   15.80
  -4   7  -1   18.00   27.10
  -4  -8   1   -2.60   13.20
  -4  -8   1   24.30   15.30
   4  -8  -1   38.40   15.20
   4  -8  -1   -1.20   40.40
  -4   8   1   -2.30   29.80
   4   8  -1   -0.50   16.10
   4   8  -1   18.70   16.80
   4   8  -1    9.80   10.90
  -4   8   1    9.70   20.40
  -3  -8   1    7.40    8.50
   3  -8  -1    3.10   10.80
  -3  -8   1   -5.10    8.30
   3  -8  -1    6.00   30.20
   3   8  -1   14.10   12.70
   3   8  -1    4.40    8.60
  -3   8   1  -12.70   25.20
  -3   8   1  -20.30   16.50
   3   8  -1    3.00   11.30
   2  -8  -1    0.30   13.10
   2  -8  -1    8.50    8.90
  -2  -8   1    5.30    7.20
  -2   8   1  -27.70   19.30
  -2   8   1  -15.50   15.50
   2   8  -1   25.50    8.80
   2   8  -1    2.10    7.20
   2   8  -1   13.80   10.10
   1  -8  -1  578.84   42.30
  -1  -8   1  595.64   42.00
   1  -8  -1  608.84   41.90
  -1  -8   1  607.74   40.80
  -1   8   1  585.34   42.10
   1   8  -1  544.15   42.90
  -1   8   1  532.35   40.50
   1   8  -1  536.35   52.39
   1   8  -1  545.35   41.70
  -1   8   1  582.04   44.10
  -1   8   1  491.45   52.39
   1   8  -1  603.54   41.90
   0  -8   1   66.79    8.30
   0  -8   1   39.50   13.80
   0  -8  -1   71.49    9.50
   0  -8  -1   63.59    7.10
   0   8   1   55.69    9.60
   0   8   1   73.69   23.80
   0   8   1   78.59   13.00
   0   8  -1   83.79    8.90
   0   8  -1   88.19   13.80
   0   8  -1   74.79   10.00
   0   8  -1   80.39   22.90
   0   8   1   85.69    9.00
   1  -8   1   57.29    9.80
  -1  -8  -1   62.99    8.00
  -1  -8  -1   48.00    8.70
   1  -8   1   75.19    8.70
   1   8   1   61.29   12.60
   1   8   1   57.09    9.30
  -1   8  -1   49.00   22.50
   1   8   1   56.29    9.00
  -1   8  -1   65.49   10.00
  -2  -8  -1   26.00    8.40
   2  -8   1   30.70   26.50
   2  -8   1   29.00    6.90
   2  -8   1   25.80    9.90
  -2  -8  -1   38.10    7.50
  -2   8  -1   26.60   10.40
  -2   8  -1   45.70   13.50
   2   8   1   27.30    8.60
   2   8   1   44.50   10.30
   2   8   1   29.60   12.20
  -2   8  -1   34.00   24.20
  -3  -8  -1   48.30    9.60
   3  -8   1   61.49    8.70
  -3  -8  -1   49.60   10.20
   3  -8   1   41.90   34.30
   3  -8   1   48.20   12.40
  -3   8  -1   51.79   29.10
   3   8   1   26.00   14.20
   3   8   1   38.60   10.00
   3   8   1   39.90   15.20
  -3   8  -1   53.09   17.80
   4  -8   1   21.80   44.70
   4  -8   1   41.20   15.30
  -4  -8  -1   26.60   13.40
  -4  -8  -1   33.30   12.40
   4   8   1   47.70   20.40
  -4   8  -1   62.39   23.00
   4   8   1   41.20   12.10
  -4   8  -1   82.99   36.10
  -4  -9   1   30.00   16.30
   4  -9  -1   50.49   30.60
   4  -9  -1   91.89   55.39
  -4  -9   1   62.49   16.30
   4  -9  -1   29.30   18.90
  -4   9   1  -19.00   38.80
  -4   9   1   24.70   25.50
   4   9  -1   32.10   20.80
  -3  -9   1   -4.80   10.00
   3  -9  -1   -4.90   14.00
   3  -9  -1  -16.60   20.10
  -3  -9   1    8.20   11.80
  -3   9   1   27.20   33.20
   3   9  -1   19.90   16.00
  -3   9   1  -16.90   19.10
   3   9  -1   -3.20   13.10
  -2  -9   1   -5.00    6.90
  -2  -9   1    1.90    9.00
   2  -9  -1   -3.40   11.40
   2  -9  -1   -0.50   13.70
   2   9  -1   16.40   37.90
   2   9  -1   12.60   12.20
   2   9  -1    2.60   10.10
  -2   9   1   37.10   17.40
  -2   9   1   25.80   29.30
   1  -9  -1  406.46   30.00
   1  -9  -1  387.26   30.90
  -1  -9   1  388.16   30.60
  -1  -9   1  411.66   28.40
  -1   9   1  374.96   43.30
   1   9  -1  353.96   29.90
   1   9  -1  366.26   47.50
  -1   9   1  374.66   33.80
   1   9  -1  389.96   30.60
  -1   9   1  367.06   30.50
  -1   9   1  337.67   27.90
   1   9  -1  380.36   32.40
   0  -9   1    5.90    5.60
   0  -9  -1   -5.90    8.50
   0  -9  -1    7.10    5.00
   0  -9   1   13.90    9.30
   0   9   1   -5.80    7.60
   0   9  -1   -4.70    8.60
   0   9  -1   18.50   12.40
   0   9  -1   -2.00    7.10
   0   9   1   22.20   13.00
   0   9   1    0.00    6.10
   0   9   1   -5.10   26.20
   0   9  -1  -19.20   22.20
  -1  -9  -1   16.60    9.00
   1  -9   1   15.30    9.30
  -1  -9  -1   15.20    6.00
   1   9   1   16.20   15.00
  -1   9  -1   16.20   12.80
  -1   9  -1    6.50   10.60
   1   9   1   -0.60   26.10
  -1   9  -1    8.60   24.20
   1   9   1   14.20   12.70
  -2  -9  -1    8.00    7.80
   2  -9   1   14.90    9.20
  -2  -9  -1   20.20    9.90
   2  -9   1   19.90   11.50
  -2   9  -1  -42.30   28.50
   2   9   1   50.19   26.70
  -2   9  -1    9.10   10.40
   2   9   1   14.70    9.20
   2   9   1   21.70   10.80
  -2   9  -1    5.70   14.90
   3  -9   1   76.59   43.60
   3  -9   1   65.99   14.70
  -3  -9  -1   73.69   14.00
   3  -9   1   79.79   10.40
   3   9   1   45.70   16.50
   3   9   1   48.00   18.60
  -3   9  -1   26.60   21.20
   3   9   1   43.40   12.10
  -3   9  -1  -18.70   35.30
  -3 -10   1    8.80   13.50
   3 -10  -1    4.10   23.70
   3 -10  -1   44.00   17.30
  -3 -10   1    5.40   14.50
   3  10  -1   16.40   14.00
  -3  10   1   25.80   25.30
   3  10  -1   -3.10   16.80
  -3  10   1   18.00   39.30
   3  10  -1   22.00   20.10
  -2 -10   1   26.70    9.10
   2 -10  -1   21.30   13.20
  -2 -10   1   -3.50   12.30
   2 -10  -1    7.60   14.70
   2  10  -1   26.40   13.60
   2  10  -1  -38.40   33.70
  -2  10   1    0.00   33.50
   2  10  -1   19.70   16.30
   2  10  -1    6.20   11.80
  -2  10   1   23.50   19.90
  -1 -10   1  378.96   27.80
  -1 -10   1  408.36   31.00
   1 -10  -1  343.57   29.20
   1 -10  -1  375.46   31.10
  -1  10   1  311.47   46.30
   1  10  -1  388.26   34.00
  -1  10   1  352.76   35.30
   1  10  -1  358.16   30.40
  -1  10   1  312.77   27.40
  -1  10   1  348.47   30.80
   1  10  -1  334.27   42.90
   1  10  -1  314.17   29.60
   0 -10  -1   28.80    5.70
   0 -10   1   18.30   11.90
   0 -10  -1   37.00   11.20
   0 -10   1   36.30    6.80
   0  10   1   31.70    9.70
   0  10  -1   41.90   11.80
   0  10   1   53.89   11.90
   0  10   1   42.90   15.30
   0  10   1   49.30   31.80
   0  10  -1   54.39   15.40
   0  10  -1   36.30   12.30
   0  10  -1   29.90   32.30
   1 -10   1  114.59   15.60
   1 -10   1  125.99   16.90
  -1 -10  -1  122.59   15.60
  -1 -10  -1  116.89   12.60
   1  10   1  100.69   14.90
  -1  10  -1  137.29   15.70
   1  10   1  101.19   19.60
   1  10   1  130.79   14.90
  -1  10  -1  133.99   19.50
  -1  10  -1   57.69   32.10
   1  10   1  101.89   36.10
  -2 -10  -1   61.39   10.60
   2 -10   1   28.30   14.50
  -2  10  -1   74.39   14.30
  -2  10  -1   40.00   37.10
   2  10   1   27.20   17.90
   2  10   1   55.89   14.70
  -2  10  -1   45.30   19.30
   2  10   1   60.09   12.10
   3 -10   1   60.59   48.80
   3 -10   1    8.00   16.40
  -3 -10  -1    1.80   14.00
  -3 -10  -1    2.80   14.70
  -3  10  -1   -1.00   46.20
   3  10   1    6.20   14.20
   3  10   1   34.70   17.20
   3  10   1  -21.40   21.40
  -3  10  -1   20.60   24.80
  -2 -11   1    7.10   11.30
   2 -11  -1   35.70   16.50
  -2 -11   1    2.00   15.00
   2 -11  -1   -0.50   16.70
   2  11  -1   17.30   17.20
   2  11  -1   13.60   15.30
   2  11  -1  -53.29   46.20
  -2  11   1    2.50   40.20
   2  11  -1    6.80   20.20
  -2  11   1   29.40   25.40
  -1 -11   1   13.10   10.00
   1 -11  -1   43.60   15.00
   1 -11  -1   44.80   11.00
  -1 -11   1   22.30   14.80
  -1  11   1   29.30   21.30
   1  11  -1   27.40   13.80
   1  11  -1   26.70   38.40
   1  11  -1   12.50   14.00
   1  11  -1   39.20   19.60
   0 -11  -1  134.89   17.80
   0 -11   1  104.89   12.20
   0 -11   1  120.09   17.60
   0 -11  -1  106.29   11.70
   0  11   1  105.29   39.90
   0  11   1  128.29   16.90
   0  11  -1  158.88   44.90
   0  11  -1  155.88   19.00
   0  11  -1  147.59   17.00
   0  11   1  138.89   15.70
   0  11   1  107.79   24.40
   0  11  -1  125.79   24.00
   1 -11   1   33.20   12.40
   1 -11   1   11.20   15.50
  -1 -11  -1    0.60   15.10
  -1 -11  -1   17.10    9.80
  -1  11  -1   -3.50   21.00
  -1  11  -1   43.30   39.50
  -1  11  -1  -15.10   13.20
   1  11   1   25.50   20.80
   1  11   1   10.70   13.40
   1  11   1    5.20   13.20
   1  11   1    9.70   41.50
   2 -11   1   37.90   18.70
  -2 -11  -1   52.29   17.20
   2 -11   1   73.29   23.40
  -2 -11  -1   50.19   13.00
   2  11   1   35.40   15.10
  -2  11  -1   78.49   18.80
  -2  11  -1   71.69   27.70
   2  11   1   85.39   46.90
  -2  11  -1   31.40   43.90
   2  11   1   45.90   24.30
   2  11   1   66.89   17.80
   1 -12  -1   28.20   18.80
  -1 -12   1   28.80   14.00
  -1 -12   1   10.20   18.40
   1 -12  -1   32.70   12.80
   1  12  -1   32.90   17.90
   1  12  -1   18.70   24.40
  -1  12   1   11.60   56.39
  -1  12   1    7.70   29.80
   1  12  -1   15.00   17.00
   1  12  -1   42.40   52.09
   0 -12   1    9.60    4.30
   0 -12   1    5.60   17.90
   0 -12  -1   10.00    5.00
   0 -12  -1   -4.60   17.80
   0  12  -1   47.20   24.90
   0  12   1   12.60   25.40
   0  12   1   12.20   17.80
   0  12  -1   -3.10   50.79
   0  12  -1    1.80   18.50
   0  12   1    6.70   14.40
   0  12  -1   17.30   15.90
   0  12   1  -51.99   48.50
  -1 -12  -1   30.80   13.90
  -1 -12  -1   28.80   18.70
   1 -12   1   45.20   14.40
   1 -12   1   22.20   20.30
   1  12   1   46.30   17.00
   1  12   1   34.20   18.50
  -1  12  -1   29.60   17.80
   1  12   1    5.00   51.09
  -1  12  -1   34.20   27.80
  -1  12  -1   12.50   46.00
   1  12   1   12.80   28.20
   5   0  -2  130.39   14.80
   5   0  -2   96.79   23.00
   5   0  -2  126.59   13.40
   5   0  -2  170.08   16.90
   4   0  -2   37.60    8.10
   4   0  -2   22.60    8.40
   4   0  -2   23.70   12.00
   3   0  -2  110.99   12.80
   3   0  -2  139.29   11.00
   3   0  -2  143.89   11.60
   2   0  -2  483.15   33.10
   2   0  -2  463.55   32.80
  -1   0   2  132.29    9.70
   1   0  -2  123.19    9.00
   1   0  -2  121.89    9.70
  -1   0   2  126.49    9.00
   1   0  -2  139.89    9.50
   1   0  -2  108.09    9.00
   0   0  -2   65.69    5.00
   0   0   2   68.09    5.00
   0   0  -2   67.09    4.80
   0   0  -2   75.99    6.20
   0   0   2   69.19    5.90
   1   0   2  339.97   26.10
  -1   0  -2  366.46   26.20
   1   0   2  378.36   25.20
   2   0   2 1852.31  127.29
   2   0   2 1882.51  128.69
  -2   0  -2 1820.72  127.79
  -3   0  -2    7.60    5.30
   3   0   2    4.90   10.10
   3   0   2   10.30    4.50
   4   0   2  239.68   27.10
   4   0   2  194.08   18.30
   5   0   2   -0.30   11.40
   5   0   2   16.30   24.20
   5  -1  -2   -4.00   20.80
   5  -1  -2    0.70    8.30
   5  -1  -2   24.20   12.70
   5  -1  -2   -7.30   10.00
   5   1  -2  -12.60   10.30
   5   1  -2    3.80   19.30
   5   1  -2   22.50    7.20
   5   1  -2   11.10   13.60
   4  -1  -2   31.70   15.10
   4   1  -2   15.50    9.20
   4   1  -2   26.10    6.20
   4   1  -2   39.70    8.50
   4   1  -2   52.39    9.60
   3  -1  -2   61.59   10.40
   3  -1  -2   77.49    8.80
   3   1  -2   75.69    8.40
   3   1  -2   68.39    7.80
   3   1  -2   68.39    8.00
   2  -1  -2  125.39   10.80
   2  -1  -2  127.19   11.30
  -2   1   2  159.58   10.60
   2   1  -2  165.38   11.10
   1  -1  -2  591.44   41.20
  -1  -1   2  605.44   40.30
   1  -1  -2  539.65   39.90
   1  -1  -2  560.54   40.40
   1  -1  -2  612.94   40.50
  -1  -1   2  576.34   40.20
   1   1  -2  601.34   40.30
  -1   1   2  518.85   40.20
   1   1  -2  570.34   40.00
  -1   1   2  588.64   40.60
   1   1  -2  623.84   40.20
   1   1  -2  582.84   40.20
  -1   1   2  583.94   39.90
  -1   1   2  577.24   40.90
   0  -1   2  127.59    8.90
   0  -1  -2  126.79    8.90
   0  -1  -2  128.79    9.70
   0  -1   2  129.99   10.40
   0  -1   2  121.79    9.20
   0   1   2  125.89    9.70
   0   1  -2  120.39    9.90
   0   1   2  129.79    9.00
   0   1  -2  121.69    9.10
   0   1  -2  122.09    8.90
  -1  -1  -2 6790.62  440.56
  -1  -1  -2 5949.20  439.96
   1   1   2 6557.84  440.66
   2  -1   2  356.36   24.60
   2  -1   2  367.66   27.70
  -2  -1  -2  359.26   25.60
  -2   1  -2  356.16   24.60
  -2   1  -2  323.67   26.40
   2   1   2  355.16   26.50
   2   1   2  350.06   25.10
  -3  -1  -2  184.38   13.80
   3   1   2  139.09   14.40
  -3   1  -2  208.18   16.80
   3   1   2  175.68   17.40
   4  -1   2  339.87   26.70
   4  -1   2  323.77   33.90
   4   1   2  300.97   31.60
   4   1   2  319.47   26.50
  -4   1  -2  378.86   25.70
  -4   1  -2  342.47   25.90
   5  -1   2   49.80   12.60
   5  -1   2    8.30   27.70
   5   1   2   43.80   11.90
   5   1   2    4.80   23.30
   5  -2  -2   -5.20   11.20
   5  -2  -2   -1.20    9.40
   5  -2  -2  -14.80   24.20
   5   2  -2    4.20    6.70
   5   2  -2   10.30   10.50
   5   2  -2   22.20   16.30
   5   2  -2  -19.00   14.30
   4  -2  -2   70.99   18.50
   4  -2  -2   96.79   11.70
   4   2  -2   99.89   12.90
   4   2  -2   90.19   10.20
   4   2  -2  107.29   11.10
   4   2  -2   89.89   12.60
   3   2  -2  143.89   13.20
  -3   2   2  176.88   13.10
  -3   2   2  152.18   12.70
   2  -2  -2  386.06   25.60
   2  -2  -2  349.07   26.60
   2  -2  -2  336.67   29.20
  -2   2   2  334.47   26.20
   2   2  -2  363.16   26.40
   2   2  -2  397.16   26.50
   2   2  -2  364.06   26.00
   2   2  -2  401.16   26.20
  -1  -2   2  867.41   61.49
   1  -2  -2  917.21   61.69
  -1  -2   2  919.41   61.19
  -1  -2   2  875.71   61.09
   1  -2  -2  838.52   61.69
  -1  -2   2  937.81   61.49
   1   2  -2  933.51   61.49
   1   2  -2  982.60   61.09
  -1   2   2  836.92   62.69
   1   2  -2  863.91   61.09
   1   2  -2  866.51   61.49
  -1   2   2  821.42   61.59
   0  -2   2  232.78   17.80
   0  -2   2  227.58   16.20
   0  -2  -2  224.18   15.90
   0  -2  -2  222.28   16.70
   0  -2   2  224.78   15.70
   0  -2   2  232.68   16.30
   0   2   2  225.28   16.70
   0   2   2  223.98   16.00
   0   2  -2  223.88   17.70
   0   2  -2  226.28   16.10
  -1  -2  -2 1423.16   96.19
   1  -2   2 1300.87   96.19
  -1  -2  -2 1358.86   95.99
  -1  -2  -2 1481.05   96.59
   1   2   2 1391.76   96.09
   1   2   2 1463.95   96.89
  -1   2  -2 1381.26   96.19
   2  -2   2  185.78   17.80
   2  -2   2  158.38   12.40
  -2  -2  -2  164.98   13.00
  -2  -2  -2  175.38   13.00
  -2   2  -2  158.88   15.60
   2   2   2  165.08   12.60
   2   2   2  184.38   15.10
  -2   2  -2  156.08   12.40
   3  -2   2   -2.10    3.70
  -3  -2  -2    0.70    2.60
   3  -2   2    1.90   13.10
   3   2   2   -1.70    4.60
  -3   2  -2    2.40    8.40
   3   2   2   -1.60    9.30
   4  -2   2  474.95   43.90
   4  -2   2  509.15   32.90
   4   2   2  465.55   34.40
  -4   2  -2  419.56   35.40
   4   2   2  407.26   37.70
  -4   2  -2  467.25   34.60
   5  -2   2   26.40   12.40
   5  -2   2    1.80   30.20
   5   2   2   14.20   11.60
   5   2   2   29.20   25.60
   5  -3  -2   -2.60   29.80
   5  -3  -2   40.30   11.50
   5  -3  -2   18.60   10.20
   5   3  -2   20.00    7.60
   5   3  -2    7.20   10.00
   5   3  -2   14.30   14.70
   5   3  -2    6.60   16.70
   5   3  -2   11.20   16.30
   4  -3  -2   -0.60   19.80
   4  -3  -2   -0.80    7.20
  -4   3   2    1.90    6.20
   4   3  -2   -4.40    6.40
   4   3  -2   12.10   16.90
   4   3  -2   -2.70    5.00
   4   3  -2    7.60    8.60
  -4   3   2   -3.70    5.40
   4   3  -2   13.30    9.20
   3  -3  -2  195.98   15.90
   3  -3  -2  186.18   24.90
  -3   3   2  175.88   16.00
  -3   3   2  161.68   17.20
   3   3  -2  204.38   16.40
   3   3  -2  195.68   15.10
   3   3  -2  206.78   16.70
   3   3  -2  193.08   14.90
  -2  -3   2  337.37   24.20
   2  -3  -2  328.57   24.70
   2  -3  -2  342.07   25.50
  -2   3   2  390.76   27.30
  -2   3   2  338.67   25.00
   2   3  -2  345.07   24.90
   2   3  -2  312.87   24.40
   1  -3  -2  101.89    9.80
  -1  -3   2  110.89    8.40
  -1  -3   2   99.39    9.20
   1  -3  -2  125.99   10.30
  -1  -3   2  115.79    9.30
   1  -3  -2  119.29    9.40
   1   3  -2  122.19    9.40
   1   3  -2  109.69    9.10
  -1   3   2  119.59   13.90
  -1   3   2  126.99   10.10
   1   3  -2  107.29    8.00
   1   3  -2  111.69    8.40
   0  -3   2   86.49   10.00
   0  -3  -2   71.69    7.90
   0  -3  -2   72.49    6.80
   0  -3   2   79.99    6.50
   0  -3   2   75.79    7.00
   0  -3  -2   77.29    6.00
   0   3  -2   77.49    9.90
   0   3   2   78.69    6.40
   0   3  -2   76.89    6.70
   0   3   2   74.09    7.60
   0   3  -2   73.89    6.70
  -1  -3  -2  467.65   33.00
   1  -3   2  427.36   36.00
  -1  -3  -2  450.95   33.60
   1  -3   2  503.95   33.30
  -1  -3  -2  475.75   33.00
  -1   3  -2  450.75   35.90
   1   3   2  496.35   33.00
  -1   3  -2  469.35   33.20
   1   3   2  467.45   34.00
   1   3   2  497.75   32.70
  -2  -3  -2  317.57   23.20
  -2  -3  -2  298.47   23.00
   2  -3   2  264.17   27.80
   2  -3   2  334.27   23.10
  -2  -3  -2  332.77   22.50
   2   3   2  349.57   22.60
  -2   3  -2  313.77   23.00
   2   3   2  300.47   24.70
   2   3   2  333.37   22.90
   3  -3   2   12.40   13.90
   3  -3   2   26.90    5.00
   3   3   2   29.90    9.70
  -3   3  -2   27.60   10.20
  -3   3  -2   22.30    7.50
   3   3   2   13.30    4.80
   4  -3   2  633.34   40.50
   4  -3   2  467.15   50.99
  -4   3  -2  561.64   43.80
  -4   3  -2  592.44   42.40
   4   3   2  480.85   44.60
   4   3   2  573.34   41.00
   5  -3   2   49.80    9.30
   5  -3   2   55.69   33.30
   5   3   2   27.80   23.30
  -5   3  -2   85.89   15.70
   5   3   2   79.49   12.10
  -5   3  -2   68.29   12.40
   5  -4  -2   25.30   11.50
   5  -4  -2   22.00   31.40
   5  -4  -2    9.40    9.30
   5   4  -2   -2.30   15.80
   5   4  -2   11.60   15.50
   5   4  -2   34.50   16.10
   5   4  -2   34.10   10.20
   5   4  -2    5.10    7.60
   4  -4  -2    4.00    8.50
   4  -4  -2    2.00    6.00
   4  -4  -2  -11.80   21.10
   4   4  -2   -4.00    9.60
   4   4  -2    4.50    5.90
   4   4  -2    8.70    7.40
  -4   4   2   -5.50    8.30
  -4   4   2   17.90   10.40
   4   4  -2    4.80    7.00
   4   4  -2    9.80    9.90
   3  -4  -2   40.10    7.00
   3  -4  -2    8.80   15.00
  -3  -4   2   23.60    5.70
   3   4  -2   17.70    4.90
   3   4  -2   32.50    7.20
   3   4  -2   31.80    5.30
   3   4  -2   26.20    4.80
  -3   4   2   42.00   10.80
   3   4  -2   24.00    6.40
  -3   4   2   47.50    8.40
  -2  -4   2  121.09   10.00
   2  -4  -2  115.69   11.30
   2  -4  -2  115.69   12.50
   2   4  -2  115.79   10.40
  -2   4   2  137.79   17.10
  -2   4   2  139.59   12.20
   2   4  -2  103.39    9.70
   2   4  -2  130.59   11.50
  -1  -4   2  682.43   46.60
  -1  -4   2  636.64   45.60
  -1  -4   2  696.13   46.00
   1  -4  -2  655.63   47.20
  -1  -4   2  669.13   46.50
   1  -4  -2  670.03   46.80
   1  -4  -2  675.63   46.60
   1   4  -2  669.83   46.60
   1   4  -2  611.64   48.20
  -1   4   2  646.04   45.70
   1   4  -2  663.53   46.40
  -1   4   2  658.13   47.20
  -1   4   2  703.13   49.90
   0  -4  -2   57.89    5.20
   0  -4  -2   58.29    6.40
   0  -4   2   53.49    6.30
   0  -4   2   66.39   10.20
   0  -4   2   54.09    6.00
   0  -4  -2   54.59    7.20
   0   4  -2   55.49    6.30
   0   4   2   53.09    6.10
   0   4   2   66.19    7.70
   0   4  -2   82.99   11.80
   0   4  -2   58.89    6.20
   1  -4   2  162.48   11.90
  -1  -4  -2  152.98   11.60
   1  -4   2  162.98   18.60
  -1  -4  -2  150.68   11.70
   1  -4   2  161.18   12.20
  -1  -4  -2  151.58   12.80
  -1  -4  -2  147.29   10.80
   1   4   2  170.28   13.60
  -1   4  -2  151.78   12.20
   1   4   2  132.29   10.90
  -1   4  -2  174.28   17.50
   1   4   2  143.69   11.80
  -2  -4  -2  129.69   11.50
  -2  -4  -2  130.99   10.50
   2  -4   2  125.69   11.70
   2  -4   2  158.38   19.40
  -2  -4  -2  159.28   11.40
  -2   4  -2  131.09   11.80
   2   4   2  117.49   13.40
   2   4   2  124.79   10.70
  -2   4  -2  114.99   16.40
   2   4   2  149.49   10.10
   2   4   2  139.09   11.00
   3  -4   2   44.80   17.50
  -3  -4  -2   72.79    6.80
  -3  -4  -2   50.69    8.00
   3  -4   2   89.29    9.70
   3   4   2   45.80   11.60
  -3   4  -2   83.19   11.90
   3   4   2   76.39    7.50
   3   4   2   78.69    8.90
  -3   4  -2   62.59   15.10
   4  -4   2  191.78   31.10
   4  -4   2  233.58   19.30
  -4   4  -2  218.58   22.90
   4   4   2  207.78   18.50
   4   4   2  207.48   26.80
   5  -4   2   64.69   37.40
   5  -4   2    2.20    9.90
  -5   4  -2   26.40   14.00
   5   4   2  -11.90   22.40
   5   4   2    3.30   10.80
  -5   4  -2   21.50   18.60
   5  -5  -2  -22.60   33.00
   5  -5  -2   -5.80   13.20
  -5   5   2  -15.20   13.90
  -5   5   2   12.30   10.90
   5   5  -2    5.70    8.70
   5   5  -2  -26.90   15.50
   5   5  -2   -8.60   13.70
   5   5  -2   -2.60    9.10
   5   5  -2   29.90   18.10
   4  -5  -2   53.49   10.80
   4  -5  -2   58.89   31.10
   4   5  -2   55.89   13.20
  -4   5   2   45.90   12.50
  -4   5   2   34.50   13.60
   4   5  -2   43.80    7.80
   4   5  -2   40.30    9.50
   4   5  -2   47.40    9.40
   4   5  -2   64.09    8.50
   3  -5  -2   10.40   18.30
  -3  -5   2    7.20    5.80
  -3  -5   2    5.00    6.40
   3  -5  -2    7.20    7.40
   3   5  -2    4.10    4.40
   3   5  -2    7.00    8.00
   3   5  -2    2.70    5.80
  -3   5   2    4.30   13.50
   3   5  -2    1.00    4.90
  -3   5   2   14.90    9.30
   3   5  -2    9.00    5.00
   2  -5  -2  134.89   15.40
   2  -5  -2  140.89   15.90
   2  -5  -2  134.19   13.40
  -2  -5   2  142.29   12.30
   2  -5  -2  154.58   20.90
  -2  -5   2  141.69   11.60
  -2   5   2  132.59   14.70
   2   5  -2  142.09   12.40
  -2   5   2  116.89   19.00
   2   5  -2  126.69   13.00
   2   5  -2  146.79   12.20
   2   5  -2  145.09   11.40
   1  -5  -2  127.99   13.80
  -1  -5   2  125.99   12.00
   1  -5  -2  121.39   12.30
   1  -5  -2  140.89   12.20
  -1  -5   2  134.29   10.60
  -1  -5   2  138.29   12.00
  -1   5   2  142.09   10.20
   1   5  -2  144.69   11.70
  -1   5   2  143.69   13.60
  -1   5   2  160.48   18.70
   1   5  -2  146.79   12.00
   1   5  -2  124.29   15.70
   0  -5  -2   84.29    7.00
   0  -5   2   79.69   14.40
   0  -5  -2   63.69    8.30
   0  -5   2   82.19    8.60
   0  -5  -2   94.09   10.40
   0  -5   2   80.69    8.00
   0   5   2   78.39    8.30
   0   5  -2   70.29    7.90
   0   5  -2   89.69    8.50
   0   5  -2  114.29   15.60
   0   5   2   82.99   10.40
  -1  -5  -2 1767.32  120.69
   1  -5   2 1636.44  124.09
  -1  -5  -2 1870.51  120.59
   1  -5   2 1733.13  120.69
  -1  -5  -2 1780.82  121.29
   1  -5   2 1767.72  120.89
  -1  -5  -2 1792.62  119.99
   1   5   2 1798.12  120.19
   1   5   2 1648.64  121.49
  -1   5  -2 1712.63  120.89
   1   5   2 1735.23  120.69
   2  -5   2  104.89   10.60
  -2  -5  -2  103.89   10.00
  -2  -5  -2   93.79    9.80
  -2  -5  -2   98.19    9.20
   2  -5   2   88.79   18.30
   2   5   2  103.29    7.90
  -2   5  -2  123.39   18.10
  -2   5  -2  101.99   13.40
  -2   5  -2  105.59   11.30
   2   5   2  109.89    9.70
   2   5   2   90.99    9.60
   2   5   2  101.59   12.90
  -3  -5  -2   11.00    6.00
   3  -5   2   22.80   20.70
   3  -5   2   18.10    7.10
  -3  -5  -2   14.90    3.90
  -3   5  -2   17.00   10.20
   3   5   2   20.30    6.00
   3   5   2   17.20    4.10
  -3   5  -2   24.40   15.60
   3   5   2   17.40   11.40
   4  -5   2   57.89   10.30
   4  -5   2   47.30   26.90
  -4   5  -2   40.30   13.80
   4   5   2   51.49   10.50
  -4   5  -2   50.59   20.10
   4   5   2   46.40    7.10
   4   5   2   20.70   16.00
   5  -5   2   67.29   45.00
   5  -5   2   64.09   13.60
   5   5   2   44.70   10.10
   5   5   2   66.89   36.70
   5   5   2   45.50   13.50
  -5   5  -2   21.30   23.30
  -5   5  -2   30.20   17.90
   5  -6  -2   37.60   31.00
   5  -6  -2   42.60   16.30
   5  -6  -2   41.30   47.20
   5   6  -2   21.40   17.60
  -5   6   2   19.80   21.20
  -5   6   2   13.80   16.60
   5   6  -2   33.30   10.70
   5   6  -2   21.30   12.80
   5   6  -2    8.10   19.00
   5   6  -2   32.00   13.30
   4  -6  -2   79.79   30.20
  -4  -6   2   64.39   11.70
   4  -6  -2   99.29   13.10
   4   6  -2   57.89   13.70
   4   6  -2   58.89    9.70
   4   6  -2   80.99   10.10
   4   6  -2   91.69   11.10
   4   6  -2   55.29   13.00
  -4   6   2   45.10   19.30
  -4   6   2   80.09   15.50
  -3  -6   2    7.40    6.40
  -3  -6   2    1.40    6.70
   3  -6  -2   11.10   22.50
   3  -6  -2    0.40    8.10
   3   6  -2    2.40    7.70
   3   6  -2    5.70    6.40
   3   6  -2    4.90    6.40
  -3   6   2    6.40   17.10
   3   6  -2    2.60    3.30
  -3   6   2  -12.70   10.90
   3   6  -2   -3.50    8.40
   2  -6  -2  365.76   27.80
  -2  -6   2  364.16   26.50
   2  -6  -2  399.46   29.90
  -2  -6   2  373.36   27.40
  -2   6   2  350.96   29.20
   2   6  -2  361.86   27.50
  -2   6   2  314.57   35.70
   2   6  -2  348.27   27.70
   2   6  -2  374.26   27.20
   1  -6  -2  201.18   18.50
  -1  -6   2  192.08   16.50
   1  -6  -2  199.48   16.70
   1  -6  -2  187.68   16.60
  -1  -6   2  195.18   15.00
   1   6  -2  216.88   16.40
  -1   6   2  198.88   18.40
  -1   6   2  211.28   14.80
  -1   6   2  214.48   26.20
   1   6  -2  189.58   16.40
   1   6  -2  209.78   17.50
   1   6  -2  176.98   24.00
   0  -6  -2  180.68   16.30
   0  -6  -2  175.68   13.20
   0  -6   2  183.48   14.40
   0  -6   2  183.38   15.00
   0  -6  -2  173.68   14.80
   0   6  -2  166.08   14.80
   0   6   2  165.28   16.70
   0   6  -2  174.08   14.30
   0   6   2  188.28   14.80
   0   6  -2  200.78   22.90
   0   6   2  162.48   13.90
  -1  -6  -2   71.99    8.40
   1  -6   2   86.49   17.10
   1  -6   2   74.99    7.90
   1  -6   2   70.79    8.50
  -1  -6  -2   60.29    7.40
  -1  -6  -2   62.09    5.40
  -1  -6  -2   81.59    9.20
   1   6   2   87.49   11.10
   1   6   2   66.39    7.60
  -1   6  -2   77.79    9.10
  -1   6  -2   80.39   16.60
   1   6   2   53.89    6.70
  -1   6  -2   79.59   11.10
   2  -6   2   74.39   20.50
  -2  -6  -2   48.00    6.60
  -2  -6  -2   75.69    8.10
   2   6   2   58.19    7.40
  -2   6  -2  109.89   18.60
   2   6   2   56.59    9.80
   2   6   2   46.60    5.70
  -2   6  -2   67.09   11.20
   3  -6   2   52.69   10.00
   3  -6   2   89.49   24.70
  -3  -6  -2   63.49    7.10
  -3  -6  -2   61.09    8.60
   3   6   2   67.09    6.80
  -3   6  -2   74.19   14.10
   3   6   2   72.89    8.70
  -3   6  -2   50.09   17.90
   3   6   2   40.00   11.90
  -3   6  -2   60.39    9.70
   4  -6   2   10.80   34.70
   4  -6   2   69.79   12.20
  -4  -6  -2   20.60   11.20
   4   6   2   36.40    7.00
  -4   6  -2   29.20   25.40
   4   6   2   53.69   11.10
   4   6   2   27.20   17.00
  -4  -7   2    7.70   10.50
   4  -7  -2   32.30   34.70
   4  -7  -2  -16.70   20.90
   4  -7  -2    3.50   13.30
   4   7  -2   12.50    9.10
   4   7  -2   -0.20    3.50
   4   7  -2   -4.20    9.30
   4   7  -2   14.70   14.70
   4   7  -2   13.90   13.00
  -4   7   2    3.10   16.90
  -4   7   2   -6.30   23.30
  -3  -7   2   33.60    9.30
   3  -7  -2   57.79   26.80
   3  -7  -2   52.59   10.90
   3  -7  -2   42.60   17.50
  -3  -7   2   34.90    8.70
  -3   7   2   39.90   13.70
  -3   7   2   43.40   22.90
   3   7  -2   26.70    9.90
   3   7  -2   35.60    8.20
   3   7  -2   45.40   10.40
   2  -7  -2  171.98   16.90
  -2  -7   2  151.68   14.40
  -2  -7   2  144.29   12.90
   2  -7  -2  109.29   17.60
  -2   7   2  147.89   25.70
  -2   7   2  148.49   18.90
   2   7  -2  144.89   16.70
   2   7  -2  132.99   14.40
   1  -7  -2  156.68   15.00
  -1  -7   2  150.08   12.50
  -1  -7   2  115.19   14.40
   1  -7  -2  141.89   14.40
   1   7  -2  147.19   15.60
  -1   7   2  159.38   23.20
  -1   7   2  150.18   17.50
  -1   7   2  163.08   11.80
   1   7  -2  138.79   14.20
   1   7  -2  115.19   21.60
   1   7  -2  170.08   14.60
   0  -7  -2   72.59   10.60
   0  -7  -2   69.39    6.70
   0  -7  -2   66.49    8.10
   0  -7   2   55.29    8.50
   0  -7   2   66.19    8.90
   0   7  -2   79.89   19.30
   0   7   2   53.79    7.40
   0   7  -2   69.59    8.90
   0   7  -2   72.39    8.80
   0   7   2   62.69    8.50
   0   7  -2   61.29   10.40
   0   7   2   63.89   11.20
   0   7   2   52.39   18.60
  -1  -7  -2  158.48   13.10
  -1  -7  -2  159.28   14.40
   1  -7   2  176.18   26.20
  -1  -7  -2  165.88   11.40
   1  -7   2  148.69   13.80
   1  -7   2  162.28   15.60
  -1   7  -2  142.49   17.30
   1   7   2  146.59   14.80
   1   7   2  149.69   14.50
  -1   7  -2  171.58   22.70
   1   7   2  160.98   18.00
  -1   7  -2  166.38   15.30
  -2  -7  -2  167.28   16.50
   2  -7   2  198.48   28.50
  -2  -7  -2  185.28   16.00
   2  -7   2  200.58   15.90
   2  -7   2  176.58   17.90
  -2   7  -2  188.58   21.00
   2   7   2  183.88   17.00
  -2   7  -2  187.88   18.20
  -2   7  -2  205.88   25.90
   2   7   2  234.78   21.20
  -3  -7  -2   59.79    9.10
   3  -7   2   65.19   26.50
   3  -7   2   96.89   11.40
  -3  -7  -2   58.69   10.10
   3  -7   2   88.29   11.80
   3   7   2   69.09   14.60
  -3   7  -2   99.69   23.00
   3   7   2   73.19    7.50
  -3   7  -2   86.59   11.90
  -4  -7  -2   49.10   12.60
   4  -7   2   43.30   11.80
   4  -7   2   53.59   41.70
   4  -7   2   60.89   14.80
   4   7   2   58.09    7.20
   4   7   2   46.80   11.90
   4   7   2   25.80   23.70
  -4   7  -2   36.60   19.40
  -4   7  -2   39.70   28.60
   4  -8  -2   86.49   26.70
   4  -8  -2  102.59   42.20
  -4  -8   2   36.90   13.30
   4  -8  -2   54.29   15.80
   4   8  -2   38.40   12.10
  -4   8   2   34.00   33.00
  -4   8   2   48.60   21.50
   4   8  -2   34.70   17.20
   4   8  -2   30.40   16.80
  -3  -8   2   11.70    8.60
   3  -8  -2    5.10   18.90
   3  -8  -2   28.00   11.90
   3   8  -2   -3.00   11.90
   3   8  -2    8.10    9.00
  -3   8   2   20.30   28.40
   3   8  -2  -16.20   11.20
  -3   8   2    1.90   17.00
   2  -8  -2  113.79   13.40
  -2  -8   2  105.69   11.60
   2  -8  -2   85.29   14.60
  -2   8   2  144.79   25.80
   2   8  -2  102.39   13.20
   2   8  -2  119.19   25.10
   2   8  -2   71.19   11.30
   2   8  -2  115.89   11.70
  -2   8   2  111.49   27.90
   1  -8  -2   76.99   10.60
  -1  -8   2   80.29    8.40
   1  -8  -2   66.99    9.80
  -1   8   2   69.39    7.60
   1   8  -2   68.09   21.80
   1   8  -2   70.29   12.70
  -1   8   2   67.39   23.60
   1   8  -2   72.89   10.10
   1   8  -2   89.69   10.10
  -1   8   2   65.99   13.20
   0  -8   2  146.29   16.20
   0  -8   2  129.19   14.30
   0  -8  -2  136.99   12.00
   0  -8  -2  139.99   15.40
   0   8   2  128.99   15.30
   0   8  -2  158.18   17.10
   0   8  -2  148.49   14.70
   0   8   2  162.88   17.50
   0   8   2  136.09   13.20
   0   8  -2  202.08   27.60
   0   8  -2  151.48   14.90
  -1  -8  -2   18.60    7.10
  -1  -8  -2   18.20    2.70
   1  -8   2   39.90    8.70
  -1  -8  -2   27.90    6.30
   1  -8   2   30.20    7.00
   1  -8   2   -7.10   21.90
   1   8   2   14.80    7.70
  -1   8  -2   29.80   11.90
   1   8   2   25.10    7.60
   1   8   2    8.30   10.90
  -1   8  -2   10.20   17.60
  -1   8  -2   24.30    8.80
   2  -8   2  150.38   19.30
  -2  -8  -2  165.08   16.00
   2  -8   2  175.98   16.10
   2  -8   2  190.68   33.70
  -2   8  -2  186.08   24.10
  -2   8  -2  181.68   27.60
  -2   8  -2  170.98   18.90
   2   8   2  222.68   22.40
   2   8   2  174.78   17.10
   2   8   2  157.88   19.70
  -3  -8  -2   26.70    9.40
   3  -8   2   12.50    8.40
   3  -8   2   30.10   12.00
   3  -8   2   19.90   31.40
  -3  -8  -2   17.10    9.30
  -3   8  -2    7.80   12.10
  -3   8  -2    0.60   16.30
  -3   8  -2   48.10   30.00
   3   8   2  -19.30   14.20
   3   8   2   17.80   14.50
   4  -8   2  102.49   18.20
  -4  -8  -2   32.60   11.80
  -4  -8  -2   27.80   14.90
   4  -8   2   27.00   45.50
   4  -8   2   45.00   11.40
  -4   8  -2   21.00   22.50
   4   8   2   44.50    7.00
   4   8   2   56.69   21.20
   4   8   2   32.90   24.40
  -4   8  -2   28.30   34.40
  -4  -9   2   16.60   17.60
   4  -9  -2   -4.30   28.90
   4  -9  -2   24.20   18.20
  -4  -9   2   12.00   16.80
   4   9  -2  -17.10   19.80
   4   9  -2    0.70   19.60
  -4   9   2   -1.10   26.10
   4   9  -2    6.50   13.90
  -4   9   2   50.29   41.90
   3  -9  -2   18.30   13.20
   3  -9  -2   42.30   18.30
  -3  -9   2  -11.30   10.20
  -3  -9   2   31.00   12.00
  -3   9   2   16.20   34.50
   3   9  -2    8.20   10.50
   3   9  -2    3.90   13.30
  -3   9   2   -9.40   19.50
   3   9  -2   12.70   14.90
   3   9  -2   14.70   34.50
  -2  -9   2   22.40    7.70
   2  -9  -2   36.80   10.90
  -2  -9   2   24.20    9.90
   2  -9  -2  -11.30   12.00
  -2   9   2   -5.40   27.00
   2   9  -2   12.10   11.00
   2   9  -2    5.90   12.30
   2   9  -2    6.30    9.00
  -2   9   2   25.40   16.10
  -1  -9   2   11.90    9.90
   1  -9  -2   31.30   10.40
   1  -9  -2   13.30    8.80
  -1   9   2   17.60   14.30
  -1   9   2   40.50   27.10
   1   9  -2   11.30   13.60
   1   9  -2   23.70    8.70
   1   9  -2   19.00    9.00
   1   9  -2   31.00   24.30
  -1   9   2   29.30    6.10
   0  -9  -2  674.73   48.90
   0  -9   2  678.43   51.39
   0  -9   2  690.93   49.80
   0  -9  -2  721.63   51.29
   0   9  -2  764.62   65.59
   0   9   2  714.03   51.09
   0   9   2  670.13   64.19
   0   9  -2  693.53   51.29
   0   9   2  701.33   53.49
   0   9  -2  725.73   50.69
   0   9  -2  705.63   53.59
   0   9   2  684.33   49.90
  -1  -9  -2  179.18   18.30
   1  -9   2  202.88   18.30
   1  -9   2  167.08   17.60
  -1  -9  -2  157.28   15.80
   1   9   2  150.68   18.00
   1   9   2  176.88   21.30
  -1   9  -2  205.88   22.30
  -1   9  -2  211.18   30.90
  -1   9  -2  188.98   20.00
   1   9   2  148.89   18.80
   2  -9   2  196.28   23.70
  -2  -9  -2  199.88   19.00
   2  -9   2  216.48   19.50
   2  -9   2  184.68   38.00
  -2  -9  -2  183.48   20.70
  -2   9  -2  226.38   28.40
  -2   9  -2  262.47   35.50
   2   9   2  194.58   20.80
   2   9   2  216.58   26.70
  -2   9  -2  240.08   22.70
   2   9   2  199.88   22.20
   3  -9   2   32.70   42.60
  -3  -9  -2   26.30   11.80
   3  -9   2   22.10   10.30
   3  -9   2   21.10   16.00
   3   9   2   28.10   18.10
   3   9   2   22.60   18.20
  -3   9  -2   79.89   21.50
  -3   9  -2   12.40   14.20
  -3   9  -2   32.50   36.00
   3 -10  -2   27.70   17.60
   3 -10  -2   24.60   20.30
  -3 -10   2   19.20   13.90
  -3 -10   2   32.90   16.30
  -3  10   2   51.89   44.90
   3  10  -2   10.60   18.70
  -3  10   2  -34.10   23.80
   3  10  -2   -4.00   16.10
   3  10  -2   54.39   40.20
   2 -10  -2    7.90   15.10
   2 -10  -2   12.70   12.80
  -2 -10   2  -11.00    8.50
  -2 -10   2    8.60   12.40
   2  10  -2  -15.30   11.00
  -2  10   2  -24.00   35.10
   2  10  -2    5.80   13.60
   2  10  -2   49.40   35.70
  -2  10   2  -19.80   20.20
   2  10  -2   19.40   13.80
  -1 -10   2   52.59    9.60
   1 -10  -2   58.79   11.20
   1 -10  -2   73.79   13.90
  -1 -10   2   30.80   13.10
  -1  10   2   89.09   19.00
   1  10  -2   57.59   11.50
   1  10  -2   66.49   15.60
   1  10  -2   62.99   33.40
  -1  10   2   87.09   33.30
  -1  10   2   79.89   10.10
   1  10  -2   70.09   13.30
   0 -10   2  228.78   18.90
   0 -10  -2  238.48   23.90
   0 -10  -2  216.58   17.60
   0 -10   2  222.78   16.40
   0 -10   2  189.28   23.50
   0  10   2  264.47   41.70
   0  10   2  235.48   20.70
   0  10  -2  223.58   26.20
   0  10  -2  192.58   24.00
   0  10   2  231.78   27.40
   0  10  -2  223.28   22.00
   0  10   2  226.68   22.20
   0  10  -2  242.68   40.80
  -1 -10  -2   26.80    8.90
  -1 -10  -2   27.20   11.00
   1 -10   2   34.20   13.20
   1  10   2  -39.60   35.70
   1  10   2   21.70   11.30
  -1  10  -2   29.70   13.00
  -1  10  -2   39.60   17.90
   1  10   2   28.50   11.00
   1  10   2   34.80   16.70
  -1  10  -2   91.69   33.50
   2 -10   2  101.19   14.60
   2 -10   2   95.39   18.00
  -2 -10  -2   75.39   12.40
  -2 -10  -2   71.79   14.80
   2  10   2   82.09   21.00
  -2  10  -2  106.89   16.30
  -2  10  -2   77.99   22.00
   2  10   2   76.89   16.20
   2  10   2   82.99   14.60
  -2  10  -2   79.39   34.40
   3 -10   2  -34.90   17.40
   3 -10   2  -18.50   11.90
  -3 -10  -2   19.50   14.40
   3 -10   2   97.39   53.79
  -3 -10  -2    9.40   14.30
  -3  10  -2   13.40   45.20
   3  10   2   39.50   22.10
  -3  10  -2   -1.50   24.80
   3  10   2    4.30   19.60
  -2 -11   2   62.59   13.00
   2 -11  -2   38.30   17.60
   2 -11  -2   35.30   17.70
  -2 -11   2   49.80   16.80
  -2  11   2   -7.30   43.80
   2  11  -2   47.10   15.80
  -2  11   2   76.09   27.00
   2  11  -2   40.80   17.10
   2  11  -2   44.40   45.80
   2  11  -2   61.19   21.10
   1 -11  -2   12.90   14.60
  -1 -11   2    7.90   10.10
   1 -11  -2   17.70   10.70
  -1 -11   2   -4.50   15.10
  -1  11   2   25.50   10.60
  -1  11   2  -12.70   40.70
   1  11  -2   13.20   19.30
   1  11  -2   59.39   43.50
   1  11  -2   13.50   13.50
  -1  11   2  -11.90   20.60
   1  11  -2   15.40   13.10
   0 -11   2  378.66   35.40
   0 -11   2  378.36   26.80
   0 -11   2  363.96   28.20
   0 -11  -2  384.16   34.90
   0 -11  -2  375.06   27.40
   0  11  -2  408.66   33.50
   0  11   2  369.06   52.19
   0  11   2  382.16   40.50
   0  11  -2  387.26   39.50
   0  11   2  345.07   31.10
   0  11  -2  399.96   35.30
   0  11  -2  445.76   55.39
  -1 -11  -2   52.29   15.90
   1 -11   2   46.30   16.30
  -1 -11  -2   52.29   11.20
   1 -11   2   66.69   17.10
  -1  11  -2   26.50   16.50
   1  11   2   17.10   21.40
   1  11   2   47.90   43.80
   1  11   2   42.40   13.90
  -1  11  -2  103.09   40.70
  -1  11  -2   73.09   22.00
   2 -11   2   -3.30   17.60
  -2 -11  -2   19.40   12.60
  -2 -11  -2   18.50   15.60
   2  11   2    3.40   16.60
   2  11   2   10.80   24.30
  -2  11  -2   12.40   42.10
  -2  11  -2  -13.50   17.00
  -2  11  -2   33.10   25.10
  -1 -12   2  -13.90   18.80
   1 -12  -2   24.10   12.70
   1 -12  -2   11.50   18.50
  -1 -12   2   18.60   13.10
   1  12  -2  -24.60   18.60
   1  12  -2   -0.50   16.50
  -1  12   2  -41.20   56.19
   1  12  -2   21.50   54.89
  -1  12   2    6.60   27.80
   1  12  -2   -4.20   24.70
   0 -12   2   16.70    6.40
   0 -12   2   20.30   19.50
   0 -12  -2   35.00   17.70
   0 -12  -2   15.50    5.80
   0 -12   2    8.30    4.40
   0  12   2  -50.99   46.40
   0  12  -2   30.50   46.30
   0  12   2   16.40   13.60
   0  12  -2   20.30   18.00
   0  12   2   20.70   29.70
   0  12  -2    4.90   18.80
   0  12  -2  -44.40   24.70
  -1 -12  -2  -19.10   18.90
  -1 -12  -2   56.69   14.10
   1 -12   2   23.70   20.00
  -1  12  -2   21.00   18.80
   5   0  -3  -23.40   16.30
   5   0  -3  -18.50   20.30
   5   0  -3   11.90   12.10
   5   0  -3  -10.30   10.60
   4   0  -3   -4.10   10.90
   4   0  -3    5.30   11.60
   4   0  -3  -13.30    7.40
   3   0  -3   -1.80    4.10
   3   0  -3    4.40    3.60
   3   0  -3    1.10    6.50
   3   0  -3   -7.70    5.90
   2   0  -3    1.20    2.40
   2   0  -3   10.20    3.10
   2   0  -3   -1.00    3.80
   2   0  -3    2.40    4.50
  -1   0   3  269.47   17.60
   1   0  -3  223.58   17.50
   0   0  -3   -0.60    0.70
   0   0  -3    0.20    1.10
   0   0   3    0.20    1.30
   0   0  -3    1.50    3.10
   0   0   3   -0.40    2.90
   1   0   3   49.99    4.40
   1   0   3   62.79    7.90
  -1   0  -3   61.69    7.50
  -1   0  -3   40.50    4.10
   1   0   3   45.50    4.30
   2   0   3    1.90    3.30
  -2   0  -3   -0.90    5.50
   2   0   3   -9.90    6.90
   3   0   3    4.30   11.50
  -3   0  -3    7.10    6.80
   3   0   3    4.60    4.50
   4   0   3   -2.60    7.70
  -4   0  -3    0.90    6.70
   4   0   3  -22.30   15.70
  -4   0  -3    8.10    6.60
   5   0   3   18.00   25.50
   5   0   3   16.30   12.30
   5  -1  -3   22.30   11.20
   5  -1  -3   12.30   17.50
   5  -1  -3    6.90   11.20
   5  -1  -3    8.90   21.90
   5   1  -3   31.70   15.90
   5   1  -3   19.40    8.20
   5   1  -3   15.70   12.60
   5   1  -3   46.90   10.80
   5   1  -3   65.29   20.00
   4  -1  -3   24.90   11.60
   4  -1  -3   19.40   13.90
   4  -1  -3   33.40    7.60
   4   1  -3   19.80    8.90
   4   1  -3   24.00    7.00
   4   1  -3   41.50    9.10
   4   1  -3   40.50   11.10
   3  -1  -3   15.30    5.20
   3  -1  -3    5.90    8.90
   3  -1  -3    7.90    4.10
   3  -1  -3    1.40    7.70
   3   1  -3   12.50    4.80
   3   1  -3    6.60    7.20
   3   1  -3    5.70    4.00
   1  -1  -3 9999.00  666.03
   1   1  -3 9466.85  665.83
   0  -1  -3    2.30    1.30
   0  -1   3    1.00    1.20
   0  -1  -3    1.00    3.40
   0  -1   3    5.20    3.70
   0  -1   3    1.40    2.50
   0   1  -3    0.80    1.50
   0   1  -3    1.10    3.30
   0   1   3    1.20    1.30
   0   1  -3    0.70    1.20
   0   1   3    0.80    3.00
   1  -1   3  955.00   68.19
  -1  -1  -3  971.40   67.49
   1  -1   3  954.40   66.59
  -1  -1  -3  980.40   66.59
  -1   1  -3  943.61   67.99
   1   1   3  954.90   67.69
  -1   1  -3 1002.00   66.59
   1   1   3  978.80   66.59
   1   1   3  958.40   66.49
   2  -1   3  107.69    8.30
  -2  -1  -3  100.69   10.90
   2  -1   3  116.69   14.10
  -2   1  -3  111.79    8.10
   2   1   3  110.29   12.70
   2   1   3   94.49    8.90
  -2   1  -3  107.79   13.20
  -3  -1  -3   72.79   10.10
   3  -1   3  101.59    7.40
   3  -1   3  102.29   16.60
   3   1   3   80.29    9.60
  -3   1  -3   97.79   12.10
   3   1   3   63.39   12.00
  -4  -1  -3  102.79   10.20
   4  -1   3   95.79   11.70
   4  -1   3   77.09   21.40
  -4  -1  -3  112.09   10.10
  -4   1  -3  126.19   13.80
   4   1   3  131.89   12.20
  -4   1  -3  115.59   12.70
   4   1   3   95.89   18.80
   5  -1   3  -13.90   30.20
   5  -1   3    0.80   12.10
   5   1   3   -0.90   10.80
   5   1   3   -1.70   23.50
   5  -2  -3   -2.50    9.30
   5  -2  -3   18.20   10.10
   5  -2  -3   19.80   17.00
   5  -2  -3  -20.90   25.40
   5   2  -3   18.80   10.60
   5   2  -3   -2.30   13.30
   5   2  -3   26.20   14.20
   5   2  -3    3.20    7.30
   5   2  -3   11.40   29.70
   4  -2  -3   15.10   13.50
   4  -2  -3   19.80   17.10
   4  -2  -3   21.20    6.70
   4   2  -3   11.80    8.00
   4   2  -3   22.20   10.30
   4   2  -3   17.00    9.00
   4   2  -3   16.60    5.80
   3  -2  -3  892.41   61.89
   3  -2  -3  752.52   63.19
   3  -2  -3  892.11   59.39
   3  -2  -3  908.31   60.59
   3   2  -3  891.21   60.39
  -3   2   3  828.92   59.29
  -3   2   3  829.62   59.39
   3   2  -3  812.42   60.49
   3   2  -3  854.11   59.89
   3   2  -3  904.61   59.89
   2  -2  -3    8.40    8.20
   2  -2  -3   31.30    5.20
   2   2  -3   28.80    4.60
  -2   2   3   42.00    7.00
   2   2  -3   46.20    4.60
   1  -2  -3 2604.24  180.58
  -1  -2   3 2699.33  179.98
  -1  -2   3 2521.95  180.28
   1  -2  -3 2817.12  180.38
  -1  -2   3 2534.35  179.88
  -1  -2   3 2806.12  180.48
   1   2  -3 2643.64  179.88
   1   2  -3 2614.84  179.78
  -1   2   3 2582.54  181.48
   1   2  -3 2549.04  180.28
  -1   2   3 2402.96  180.48
  -1   2   3 2676.63  180.48
   1   2  -3 2765.92  180.38
   1   2  -3 2558.04  180.58
   0  -2   3  446.56   32.10
   0  -2   3  457.95   32.10
   0  -2  -3  460.45   31.70
   0  -2   3  454.65   31.60
   0  -2   3  461.25   33.20
   0  -2  -3  472.75   32.70
   0   2  -3  465.25   31.60
   0   2  -3  461.55   33.50
   0   2   3  469.85   32.70
   0   2  -3  445.96   32.00
   0   2   3  434.96   31.80
  -1  -2  -3  453.85   30.70
   1  -2   3  483.95   32.50
  -1  -2  -3  397.16   29.50
   1  -2   3  405.56   29.80
  -1  -2  -3  439.16   29.70
   1   2   3  445.16   30.90
   1   2   3  399.16   29.60
  -1   2  -3  407.06   29.70
   2  -2   3  310.27   21.20
  -2  -2  -3  304.27   21.40
  -2  -2  -3  280.97   22.10
   2  -2   3  249.78   25.60
   2   2   3  303.27   21.20
  -2   2  -3  303.87   21.00
  -2   2  -3  268.67   24.40
   2   2   3  281.87   23.80
   2   2   3  305.87   21.00
   3  -2   3   12.10   13.80
   3  -2   3    0.90    3.40
  -3  -2  -3    5.80    5.20
  -3   2  -3   10.80   10.60
   3   2   3    5.80    9.80
   3   2   3    9.40    4.50
   4  -2   3    2.30    4.30
   4  -2   3   11.20   20.30
  -4   2  -3   29.90   11.70
   4   2   3   -7.70    6.90
   4   2   3  -15.00   13.90
  -4   2  -3    3.30    8.80
   5  -2   3  -35.20   31.20
   5  -2   3    2.70   12.60
  -5   2  -3  -18.80   12.40
  -5   2  -3   12.30   10.60
   5   2   3   14.90   26.20
   5   2   3   12.60   11.80
   5  -3  -3    5.70    9.60
   5  -3  -3   23.80   19.50
   5  -3  -3   23.40   30.00
   5  -3  -3   15.10   11.30
   5   3  -3   10.90   10.90
   5   3  -3    4.60   13.90
   5   3  -3    9.50    8.20
   5   3  -3    9.50   13.30
   5   3  -3    6.40   14.60
   4  -3  -3  270.07   26.60
   4  -3  -3  245.48   18.70
   4  -3  -3  232.58   21.00
   4  -3  -3  259.47   30.00
   4   3  -3  231.88   19.40
   4   3  -3  230.38   20.10
   4   3  -3  245.28   21.80
   3  -3  -3  115.09   13.30
   3  -3  -3   94.49   11.50
   3  -3  -3   91.89   17.40
   3  -3  -3  100.49    7.80
  -3   3   3  104.29   10.50
  -3   3   3   74.49   10.40
   3   3  -3   90.59   11.20
   3   3  -3   89.39   10.50
   3   3  -3   95.39    9.90
   3   3  -3  100.79    9.40
   2  -3  -3   15.30    5.40
  -2  -3   3   16.80    3.60
   2  -3  -3   18.50   10.30
   2  -3  -3   13.20    6.20
   2   3  -3    9.50    3.20
   2   3  -3   19.00    4.80
  -2   3   3   15.30    8.10
   2   3  -3   15.90    3.10
   2   3  -3   10.80    3.40
  -2   3   3   16.20    5.00
   1  -3  -3  306.57   23.10
  -1  -3   3  328.47   22.30
  -1  -3   3  330.17   23.00
  -1  -3   3  285.07   23.00
   1  -3  -3  340.77   23.80
  -1  -3   3  293.57   22.30
  -1   3   3  320.47   23.60
   1   3  -3  297.97   22.90
  -1   3   3  337.47   26.40
   1   3  -3  347.77   23.10
  -1   3   3  340.37   23.60
   1   3  -3  300.47   22.10
   1   3  -3  340.77   24.70
   0  -3   3  557.64   38.80
   0  -3   3  544.15   38.10
   0  -3   3  524.95   38.70
   0  -3  -3  579.74   38.30
   0  -3   3  546.95   40.80
   0  -3  -3  549.45   39.40
   0   3  -3  558.54   38.70
   0   3   3  529.95   38.40
   0   3   3  567.04   39.40
   0   3  -3  568.64   40.70
   1  -3   3  239.28   16.60
  -1  -3  -3  219.88   16.10
   1  -3   3  263.67   20.60
  -1  -3  -3  205.28   15.70
  -1  -3  -3  222.08   15.90
  -1  -3  -3  227.38   17.50
   1   3   3  205.88   16.00
   1   3   3  194.38   15.70
  -1   3  -3  246.78   20.00
  -1   3  -3  230.38   16.40
   1   3   3  241.48   17.90
   2  -3   3  839.52   60.19
   2  -3   3  957.50   63.89
  -2  -3  -3  830.72   59.59
  -2  -3  -3  848.02   60.29
  -2  -3  -3  890.11   60.79
   2   3   3  852.51   60.09
   2   3   3  778.32   59.79
   2   3   3  908.61   61.49
  -2   3  -3  959.70   63.09
  -2   3  -3  853.11   60.19
   3  -3   3   63.49   17.30
  -3  -3  -3   92.79    8.90
   3  -3   3   85.39    9.60
  -3   3  -3   60.79   12.90
   3   3   3  108.59   14.10
  -3   3  -3   73.79    9.20
   3   3   3  101.39    9.70
   3   3   3   92.39    8.90
   4  -3   3   42.20   31.00
   4  -3   3   59.99    8.20
   4   3   3   80.49   17.80
   4   3   3   96.39   10.30
  -4   3  -3   74.89   17.00
  -4   3  -3   96.59   13.80
   5  -3   3   64.89    8.80
   5  -3   3  117.39   36.70
   5   3   3   37.30   25.30
  -5   3  -3   86.69   20.50
   5   3   3   73.79   13.30
  -5   3  -3   62.29   14.60
   5  -4  -3   74.59   24.30
   5  -4  -3   64.49    8.80
   5  -4  -3   23.90   33.20
   5   4  -3   30.50   11.10
   5   4  -3   50.89   15.20
   5   4  -3   44.80   10.10
   5   4  -3   67.59   14.60
   5   4  -3   27.50   13.60
   4  -4  -3   98.39   18.30
   4  -4  -3   65.59   23.10
   4  -4  -3  100.69   12.10
   4   4  -3  110.59   13.40
   4   4  -3   96.49   11.70
   4   4  -3   87.59   10.80
  -4   4   3  101.29   13.20
   4   4  -3   98.19   11.90
  -4   4   3   66.29   13.10
   4   4  -3   98.59   10.60
   3  -4  -3  226.28   20.90
   3  -4  -3  163.78   20.60
  -3  -4   3  228.28   17.70
   3  -4  -3  226.38   18.70
   3  -4  -3  178.78   25.50
   3   4  -3  233.98   19.20
   3   4  -3  217.08   17.00
  -3   4   3  220.98   18.90
   3   4  -3  230.58   17.60
  -3   4   3  246.48   22.90
  -2  -4   3    4.80    3.50
  -2  -4   3    0.40    4.00
   2  -4  -3    5.90    6.70
   2  -4  -3    1.20    4.40
  -2   4   3    2.80    6.10
  -2   4   3    8.10   10.40
   2   4  -3    1.90    2.90
   2   4  -3   -0.10    3.90
   2   4  -3    0.00    2.10
   2   4  -3   -3.30    3.90
  -1  -4   3  232.38   17.70
  -1  -4   3  229.68   16.60
   1  -4  -3  219.88   18.80
  -1  -4   3  243.58   16.40
   1  -4  -3  261.67   17.80
  -1  -4   3  228.98   17.70
   1  -4  -3  231.58   17.90
   1   4  -3  250.27   17.60
   1   4  -3  230.28   20.80
   1   4  -3  201.38   17.50
  -1   4   3  225.08   23.10
  -1   4   3  229.98   18.90
   1   4  -3  235.38   16.30
   0  -4  -3  550.14   37.50
   0  -4  -3  526.05   37.00
   0  -4  -3  543.45   38.30
   0  -4   3  539.25   40.50
   0  -4   3  525.95   36.80
   0  -4   3  519.25   37.40
   0  -4   3  522.55   37.60
   0   4   3  535.75   38.60
   0   4  -3  533.85   40.20
   0   4   3  507.95   37.20
   0   4  -3  546.75   37.70
   0   4  -3  534.75   37.50
  -1  -4  -3   25.20    3.10
  -1  -4  -3   33.20    4.00
  -1  -4  -3   25.30    4.00
   1  -4   3   23.40    4.80
   1  -4   3   30.20   10.60
   1  -4   3   26.60    4.90
  -1  -4  -3   26.60    5.70
   1   4   3   28.60    3.40
  -1   4  -3   23.40    4.20
  -1   4  -3   28.10   10.90
   1   4   3   26.50    6.10
  -2  -4  -3   88.29    8.80
  -2  -4  -3   88.09   10.20
   2  -4   3   94.59    9.80
   2  -4   3   64.19   14.20
  -2  -4  -3   86.09    7.70
  -2   4  -3  126.79   15.50
   2   4   3  122.19   14.00
  -2   4  -3  103.89    9.60
   2   4   3   81.89    8.40
  -3  -4  -3  206.58   16.00
   3  -4   3  222.88   17.60
  -3  -4  -3  217.38   17.60
   3  -4   3  178.68   24.80
  -3   4  -3  188.38   23.70
   3   4   3  210.18   15.80
  -3   4  -3  210.88   17.20
   3   4   3  194.28   22.40
   4  -4   3   53.79    9.50
   4  -4   3   47.40   25.10
  -4   4  -3   73.29   19.70
   4   4   3   48.70   17.90
   4   4   3   58.19    8.20
  -4   4  -3   59.19   15.50
   4   4   3   60.09    9.30
   5  -4   3   43.50   39.50
   5  -4   3   22.00   10.50
  -5   4  -3   36.70   22.50
  -5   4  -3   40.80   16.40
   5   4   3   23.70   10.80
   5   4   3   34.40   27.30
   5   4   3   20.00   10.40
   5  -5  -3   -6.60   13.70
   5  -5  -3  -42.70   35.20
   5  -5  -3   12.80   24.60
   5   5  -3   -0.20    9.70
   5   5  -3    9.80    9.50
  -5   5   3   -3.60    9.80
   5   5  -3    7.80   13.70
   5   5  -3    6.10   12.60
   5   5  -3  -17.30   15.50
   4  -5  -3  -14.90   15.80
   4  -5  -3   -4.40   27.70
  -4   5   3   16.40   10.60
   4   5  -3   29.20   11.70
   4   5  -3    8.90    7.80
   4   5  -3   30.20    7.70
   4   5  -3   27.90    8.40
  -4   5   3    2.80   13.70
   4   5  -3   26.90    7.60
   3  -5  -3   21.80    8.10
   3  -5  -3   25.50   11.60
  -3  -5   3   17.80    6.70
   3  -5  -3    3.20   11.20
   3  -5  -3   33.80   19.50
   3   5  -3   24.70    5.40
   3   5  -3   13.60    6.30
   3   5  -3   23.60    4.70
  -3   5   3   25.50   10.20
   3   5  -3   16.80    5.80
   3   5  -3    6.30   10.40
  -3   5   3   19.80   13.00
  -2  -5   3  311.67   23.00
   2  -5  -3  330.47   25.50
  -2  -5   3  324.07   24.00
   2  -5  -3  314.07   24.30
   2  -5  -3  284.27   25.90
   2   5  -3  337.27   23.60
   2   5  -3  318.27   21.80
   2   5  -3  321.97   24.10
  -2   5   3  289.77   25.10
  -2   5   3  264.97   31.00
   2   5  -3  327.37   22.80
  -1  -5   3  914.71   62.19
   1  -5  -3  907.71   62.29
  -1  -5   3  783.12   61.09
   1  -5  -3  901.31   63.19
  -1  -5   3  839.22   61.39
   1  -5  -3  799.42   62.19
  -1  -5   3  776.02   62.29
  -1   5   3  904.11   61.29
   1   5  -3  920.51   65.09
  -1   5   3 1002.40   66.79
  -1   5   3 1001.80   63.49
   1   5  -3  974.60   62.39
   1   5  -3  907.61   62.19
   0  -5   3  124.29    9.40
   0  -5   3  133.79   11.70
   0  -5  -3  112.49   12.50
   0  -5   3  153.58   17.90
   0  -5   3  126.99   11.00
   0  -5  -3  139.39   11.50
   0  -5  -3  122.79    9.90
   0   5  -3  117.99   11.10
   0   5   3  118.99   11.00
   0   5  -3  129.29   16.70
   0   5   3  138.29   14.00
   0   5  -3  132.69   11.10
  -1  -5  -3  185.28   12.90
  -1  -5  -3  172.38   12.10
   1  -5   3  174.38   20.00
  -1  -5  -3  152.08   14.60
   1  -5   3  170.48   13.60
   1  -5   3  163.48   14.30
  -1  -5  -3  161.98   13.50
  -1   5  -3  145.79   20.30
   1   5   3  163.98   12.60
  -1   5  -3  174.88   14.00
   1   5   3  159.88   16.00
  -2  -5  -3   56.19    7.30
   2  -5   3   47.60    7.20
  -2  -5  -3   55.29    5.80
   2  -5   3   27.10   17.50
  -2  -5  -3   50.69    7.40
   2   5   3   58.59    6.70
   2   5   3   50.19   10.50
   2   5   3   56.99    5.60
  -2   5  -3   47.50    7.10
  -2   5  -3   47.10   13.20
   3  -5   3  294.47   23.50
  -3  -5  -3  278.87   21.00
   3  -5   3  241.98   37.20
  -3  -5  -3  295.97   21.30
   3   5   3  267.57   27.20
  -3   5  -3  277.97   30.90
  -3   5  -3  310.57   27.40
  -3   5  -3  306.27   23.30
   3   5   3  288.67   21.30
   3   5   3  295.07   22.30
   4  -5   3   -3.90   28.30
   4  -5   3   26.10    9.40
   4   5   3   18.90   17.90
  -4   5  -3   41.70   17.20
   4   5   3   33.10    7.00
  -4   5  -3   13.90   19.80
   4   5   3   34.10    9.20
   5  -5   3  -19.50   46.20
   5  -5   3   -4.80   12.20
  -5   5  -3   57.09   25.90
   5   5   3  -31.70   28.90
  -5   5  -3   11.40   20.50
   5   5   3   15.80    9.80
   5   5   3   -8.90   14.30
   5  -6  -3   13.20   29.40
   5  -6  -3   14.60   15.50
   5  -6  -3  -90.79   41.00
   5   6  -3   26.10   14.10
   5   6  -3   46.10   11.70
  -5   6   3   11.70   13.80
  -5   6   3   -7.80   19.30
   5   6  -3   36.40   18.10
   5   6  -3    2.00   12.70
   5   6  -3   26.20   12.10
   4  -6  -3   60.39   11.90
   4  -6  -3   54.69   18.70
   4  -6  -3   67.79   30.30
   4   6  -3   80.99    9.90
   4   6  -3   48.10    9.50
   4   6  -3   59.09   11.40
   4   6  -3   48.40    8.40
   4   6  -3   48.10   13.40
  -4   6   3   14.20   18.30
  -4   6   3   49.80   14.10
  -3  -6   3    3.60    6.90
   3  -6  -3   18.50   22.40
  -3  -6   3   10.50    6.70
   3  -6  -3   -1.10   12.90
   3   6  -3    7.60    7.40
   3   6  -3    9.90    8.70
   3   6  -3    4.00    3.00
  -3   6   3   22.90   18.30
   3   6  -3    6.20    7.00
  -3   6   3   -4.40   11.00
   2  -6  -3   43.60    8.80
   2  -6  -3   47.50    9.50
  -2  -6   3   46.50    7.10
   2  -6  -3   46.80   11.70
  -2  -6   3   36.60    5.70
   2   6  -3   47.50    6.80
  -2   6   3   43.10   11.00
  -2   6   3   41.00   19.10
   2   6  -3   47.10    8.00
   2   6  -3   43.80   14.60
   1  -6  -3   79.49   11.50
   1  -6  -3   57.89    8.20
  -1  -6   3   77.19    9.30
  -1  -6   3   63.59    5.60
   1  -6  -3   82.99    8.40
  -1  -6   3   67.09    7.10
  -1  -6   3   77.79    8.50
   1   6  -3   88.69   16.20
  -1   6   3   86.49   11.70
  -1   6   3   69.09   18.50
   1   6  -3   80.99    8.20
  -1   6   3   58.89    6.40
   1   6  -3   68.09    8.10
   0  -6  -3   35.70    8.60
   0  -6   3   28.20    6.20
   0  -6   3   31.60    3.70
   0  -6   3   23.90    5.50
   0  -6  -3   23.90    5.90
   0  -6   3   61.09   15.10
   0   6  -3   39.90    6.10
   0   6  -3   56.59   14.80
   0   6  -3   16.60    5.90
   0   6   3   47.50    8.40
  -1  -6  -3   46.50    5.40
   1  -6   3   58.09   15.70
  -1  -6  -3   35.60    4.20
   1  -6   3   55.59    7.60
  -1  -6  -3   45.80    8.60
   1  -6   3   40.30    5.90
  -1  -6  -3   44.00    6.30
  -1   6  -3   40.30    6.90
  -1   6  -3   45.30   17.00
   1   6   3   65.69   10.30
   1   6   3   27.30    5.10
  -2  -6  -3   45.10    6.30
   2  -6   3   57.39    7.40
   2  -6   3   55.39    9.20
  -2  -6  -3   36.20    7.80
  -2  -6  -3   45.30    7.00
   2  -6   3   58.39   20.90
  -2   6  -3   63.39    8.90
   2   6   3   44.20   11.00
  -2   6  -3   74.79   17.20
  -3  -6  -3  612.64   43.90
   3  -6   3  605.54   44.40
  -3  -6  -3  620.44   42.60
   3  -6   3  500.15   56.69
  -3   6  -3  603.04   44.10
  -3   6  -3  624.24   47.20
   3   6   3  617.74   43.40
   3   6   3  627.34   42.20
  -3   6  -3  519.05   52.29
   3   6   3  569.64   46.70
   4  -6   3   10.30   11.50
  -4  -6  -3  -10.20   10.90
   4  -6   3   36.50   36.90
  -4   6  -3   29.20   27.50
   4   6   3    4.00   10.20
   4   6   3    2.30    6.10
  -4   6  -3   -7.80   19.10
   4   6   3  -25.70   25.00
   4  -7  -3   50.39   13.90
   4  -7  -3   69.19   21.20
  -4  -7   3   67.19   12.10
   4  -7  -3   29.80   37.40
   4   7  -3   31.60   14.70
   4   7  -3   82.89   14.90
   4   7  -3   50.79   11.20
  -4   7   3   68.19   26.60
   4   7  -3   53.99    6.30
   4   7  -3   59.29   11.10
  -4   7   3   42.10   18.50
  -3  -7   3   10.60   10.40
   3  -7  -3    2.10   13.60
   3  -7  -3    5.00    9.80
  -3  -7   3    5.30    9.00
  -3   7   3   26.50   13.90
   3   7  -3   11.80    7.90
  -3   7   3   58.39   24.90
   3   7  -3   13.80   10.00
   3   7  -3   23.90    9.10
   2  -7  -3   72.49   14.20
  -2  -7   3   73.39    9.80
  -2  -7   3   84.99    9.30
   2  -7  -3   69.99   11.80
   2  -7  -3   59.99   11.40
   2   7  -3   84.89    9.80
   2   7  -3   78.29   20.00
   2   7  -3   57.59   10.50
   2   7  -3   76.29   10.40
  -2   7   3   77.69   22.50
  -2   7   3   43.30   13.80
   1  -7  -3  123.49   12.40
  -1  -7   3   93.49   11.00
   1  -7  -3   99.19   10.90
   1  -7  -3  110.29   14.20
  -1  -7   3  108.29   12.70
  -1  -7   3  112.19    9.80
   1   7  -3   85.49   10.70
  -1   7   3  135.19   22.00
  -1   7   3  103.09    9.10
   1   7  -3  133.79   21.50
  -1   7   3  128.79   16.30
   1   7  -3  108.99   12.10
   0  -7  -3   40.90    5.30
   0  -7   3   33.00    7.70
   0  -7   3   40.10    7.20
   0  -7   3   41.50    4.50
   0  -7  -3   45.00   10.00
   0  -7  -3   36.80    7.50
   0   7   3   42.60    6.80
   0   7  -3   37.60    7.20
   0   7   3   50.79   11.40
   0   7  -3   46.80   18.70
   0   7  -3   38.80    7.30
  -1  -7  -3    9.90    8.10
  -1  -7  -3   -2.40    3.90
   1  -7   3   -7.10   18.20
  -1  -7  -3    3.70    2.30
  -1  -7  -3    1.50    5.80
   1  -7   3   -4.10    7.10
   1  -7   3    9.80    5.70
  -1   7  -3    0.10    5.70
   1   7   3    6.70   10.50
  -1   7  -3   10.10   18.00
   1   7   3    3.40    5.10
  -2  -7  -3  121.09   12.90
  -2  -7  -3  108.09   14.70
  -2  -7  -3  151.08   16.10
   2  -7   3  135.69   17.90
   2  -7   3  134.69   13.10
   2  -7   3  104.79   28.80
   2   7   3  162.38   19.30
  -2   7  -3  120.39   23.40
  -2   7  -3  142.29   15.80
  -2   7  -3  141.89   24.80
   3  -7   3  432.16   48.80
  -3  -7  -3  436.06   32.90
   3  -7   3  408.66   34.20
   3  -7   3  398.06   32.30
  -3  -7  -3  451.65   31.60
   3   7   3  395.16   37.20
  -3   7  -3  462.25   38.00
  -3   7  -3  330.17   45.10
  -3   7  -3  400.96   33.50
   3   7   3  456.95   30.30
   4  -7   3   66.49   43.40
   4  -7   3   15.90   14.20
  -4  -7  -3   42.10   13.90
   4  -7   3   17.90   12.00
   4   7   3   15.90   12.00
  -4   7  -3   22.60   21.20
   4   7   3   33.70   22.30
  -4   7  -3   30.70   32.80
   4   7   3    8.40    6.60
  -4  -8   3   25.50   12.30
   4  -8  -3   28.70   16.20
   4  -8  -3    3.40   23.90
   4   8  -3   34.30   16.20
   4   8  -3   31.60   14.70
  -4   8   3   71.79   33.00
  -4   8   3   10.50   22.60
   3  -8  -3    3.10   15.70
  -3  -8   3    7.70    8.40
   3  -8  -3   24.80   12.00
  -3  -8   3    6.50   10.30
   3   8  -3   19.80   24.60
   3   8  -3   15.80    8.90
  -3   8   3   33.20   28.60
   3   8  -3   18.90   11.80
  -3   8   3   33.00   17.50
   3   8  -3    3.40   11.10
  -2  -8   3    3.50    7.90
   2  -8  -3    1.30   10.20
  -2  -8   3    7.70    6.40
   2  -8  -3   10.60    9.10
   2   8  -3    3.10   10.00
   2   8  -3   -2.20    8.90
   2   8  -3   13.50    8.00
   2   8  -3  -10.30   21.50
  -2   8   3   -0.20   25.10
  -2   8   3    8.20   16.80
  -1  -8   3   56.39    7.10
  -1  -8   3   33.20    8.50
   1  -8  -3   63.39   13.90
   1  -8  -3   52.19    8.60
   1  -8  -3   50.89    9.50
   1   8  -3   45.00   10.20
  -1   8   3   48.10    6.00
   1   8  -3   53.19   11.60
  -1   8   3   45.10   13.20
  -1   8   3   40.80   20.10
   1   8  -3   64.69   23.10
   0  -8   3   -0.60    2.60
   0  -8  -3    0.20   10.30
   0  -8   3   10.10    6.90
   0  -8   3   -1.80    7.80
   0  -8  -3   -5.90    4.10
   0   8  -3   12.50    7.00
   0   8   3   -0.70    5.80
   0   8  -3    9.50   10.80
   0   8  -3   -9.50    6.70
   0   8   3  -14.80   20.70
   0   8   3    5.10   11.90
  -1  -8  -3   40.40    4.10
   1  -8   3   37.40   23.80
  -1  -8  -3   44.20   11.70
  -1  -8  -3   30.00    9.40
   1  -8   3   31.50    7.80
  -1  -8  -3   47.20    8.80
   1  -8   3   23.70    9.00
   1   8   3   45.60   12.80
  -1   8  -3   28.90   12.30
   1   8   3   45.40    8.80
  -1   8  -3   48.10   23.20
  -1   8  -3   19.60   13.40
   2  -8   3   96.69   14.10
  -2  -8  -3   85.39   10.70
  -2  -8  -3  111.79   12.00
   2  -8   3  116.99   11.80
   2  -8   3  102.39   29.60
   2   8   3   88.79   18.00
   2   8   3   79.59   10.00
  -2   8  -3  111.29   13.70
  -2   8  -3  108.99   28.70
  -2   8  -3  126.59   17.80
   3  -8   3  157.28   19.00
  -3  -8  -3  176.48   18.60
   3  -8   3  101.19   37.30
  -3  -8  -3  160.78   18.50
   3  -8   3  186.58   17.80
   3   8   3  167.88   14.40
  -3   8  -3  198.68   21.90
   3   8   3  147.19   21.70
  -3   8  -3  231.38   26.70
  -3   8  -3  187.38   34.20
   4  -8   3   23.30   12.40
   4  -8   3   38.90   50.59
  -4  -8  -3    6.80   14.10
  -4  -8  -3   -3.90   11.10
   4  -8   3   48.70   17.40
  -4   8  -3   17.20   36.20
   4   8   3    6.00    7.50
   4   8   3   26.40   27.50
  -4   8  -3   23.50   23.90
  -4  -9   3   12.60   15.90
  -4  -9   3   33.40   21.80
   4  -9  -3    3.40   18.30
   4  -9  -3   21.90   26.20
   4   9  -3   15.40   14.30
   4   9  -3   15.00   19.40
  -4   9   3   21.30   24.90
   4   9  -3   17.80   37.00
   4   9  -3   22.30   20.10
  -4   9   3   10.40   39.00
   3  -9  -3   22.60   17.10
  -3  -9   3   12.00   10.80
  -3  -9   3    9.70   12.70
   3  -9  -3   15.50   14.10
   3   9  -3   15.50   31.20
   3   9  -3   23.60   10.60
  -3   9   3   44.30   35.20
   3   9  -3   -2.70   14.60
  -3   9   3   38.60   20.30
   3   9  -3    8.00   14.00
   2  -9  -3    8.40   11.80
   2  -9  -3   18.60   11.30
  -2  -9   3    8.80    7.80
  -2  -9   3    2.00   10.30
  -2   9   3    3.00   16.70
   2   9  -3    4.50    9.70
   2   9  -3    2.40   10.30
   2   9  -3   17.10   13.80
  -2   9   3    1.10   30.80
  -1  -9   3  325.67   26.40
   1  -9  -3  285.47   26.40
  -1  -9   3  322.37   23.90
   1  -9  -3  332.57   24.90
  -1   9   3  283.57   30.90
  -1   9   3  289.77   23.00
   1   9  -3  289.27   28.10
   1   9  -3  271.87   25.60
   1   9  -3  313.67   26.10
  -1   9   3  311.17   37.70
   1   9  -3  349.57   41.00
   0  -9  -3   27.40    5.70
   0  -9   3   14.30   10.30
   0  -9   3   26.20    3.90
   0  -9   3   32.60   10.80
   0  -9  -3   22.40    9.80
   0   9   3   23.70    8.10
   0   9   3   -3.40   26.40
   0   9  -3   23.80    8.90
   0   9  -3   19.90    8.40
   0   9  -3    5.30   25.50
   0   9  -3   18.70   11.00
   0   9   3    0.60   14.10
   1  -9   3   -6.20   10.00
   1  -9   3    6.00    7.80
  -1  -9  -3    9.90    9.50
  -1  -9  -3    3.20    6.30
  -1  -9  -3    1.80    2.90
   1   9   3    1.70    9.80
  -1   9  -3   -3.80   13.50
  -1   9  -3   17.20   10.00
   1   9   3    8.70   14.50
  -1   9  -3   -0.80   24.50
  -2  -9  -3    2.70    8.10
   2  -9   3   26.60    9.30
   2  -9   3   -2.00   31.30
   2  -9   3    3.50   13.20
  -2  -9  -3   -6.60    9.80
   2   9   3   -3.50   15.20
  -2   9  -3    5.20   11.70
  -2   9  -3  -10.50   29.80
   2   9   3    6.10   13.30
  -2   9  -3   32.80   17.20
  -3  -9  -3   14.00   12.60
  -3  -9  -3   20.30   12.30
   3  -9   3   33.40   43.50
   3  -9   3   18.00   15.70
   3  -9   3   45.90   11.60
   3   9   3    5.60   19.90
  -3   9  -3    9.70   14.80
  -3   9  -3   -8.30   32.80
  -3   9  -3   28.50   23.00
   3   9   3    9.60   16.20
   3 -10  -3   17.70   17.30
   3 -10  -3   31.90   20.80
  -3 -10   3   -2.80   12.50
  -3 -10   3   20.10   16.20
  -3  10   3   21.40   42.20
   3  10  -3   11.80   19.30
   3  10  -3   43.80   13.20
  -3  10   3    7.00   26.00
   3  10  -3   14.50   18.20
   3  10  -3  -25.20   39.50
   2 -10  -3   49.99   14.00
  -2 -10   3   61.19   11.40
   2 -10  -3   35.00   23.90
  -2 -10   3   51.69   14.30
  -2  10   3   72.59   39.60
  -2  10   3   40.40   22.50
   2  10  -3   24.60   32.00
   2  10  -3   76.69   16.80
   2  10  -3   48.10   12.90
   2  10  -3   42.60   13.60
  -1 -10   3   73.79   10.50
   1 -10  -3   66.59   11.20
   1 -10  -3   74.19   14.00
  -1 -10   3   61.19   14.20
   1  10  -3   61.09   13.60
  -1  10   3   69.29    9.10
   1  10  -3   49.60   11.40
   1  10  -3    9.10   33.20
   1  10  -3   64.89   18.20
  -1  10   3   18.00   34.00
  -1  10   3   57.09   19.80
   0 -10  -3  116.49   15.10
   0 -10   3   80.79    8.70
   0 -10  -3   95.29    9.30
   0 -10   3   99.69   15.50
   0  10  -3   67.79   33.00
   0  10   3  105.29   12.40
   0  10  -3  116.89   19.10
   0  10  -3   88.19   14.00
   0  10  -3  133.39   15.70
   0  10   3  129.29   35.70
   0  10   3   84.29   19.70
   1 -10   3  110.69   15.10
  -1 -10  -3  106.69   12.30
  -1 -10  -3   96.09   14.60
   1 -10   3  122.69   16.80
   1  10   3   93.69   14.30
  -1  10  -3  136.69   22.10
  -1  10  -3  105.99   33.90
   1  10   3  106.29   21.00
  -1  10  -3  109.59   16.00
  -2 -10  -3   12.60   13.70
   2 -10   3   21.10   12.30
   2 -10   3    7.10   15.60
  -2 -10  -3   12.30   10.80
   2 -10   3   36.70   41.50
  -2  10  -3   21.80   13.90
  -2  10  -3   -5.40   35.80
  -2  10  -3   36.70   22.60
   2  10   3   -8.00   20.30
   2  10   3    6.00   14.30
   3 -10   3   28.80   54.49
   3 -10   3   18.20   13.70
   3 -10   3   -6.10   19.60
  -3 -10  -3    7.50   15.30
  -3 -10  -3  -10.60   14.90
  -3  10  -3    1.20   18.90
   3  10   3    3.80   24.40
   3  10   3   -7.30   21.10
  -3  10  -3  -40.80   41.80
  -3  10  -3    7.50   27.20
  -2 -11   3   13.90   12.10
   2 -11  -3   39.60   16.70
  -2 -11   3   23.60   16.00
   2 -11  -3   41.00   17.80
   2  11  -3  -42.10   44.70
   2  11  -3   38.70   15.80
  -2  11   3   31.90   26.40
  -2  11   3   19.80   48.50
   2  11  -3   50.29   15.60
   2  11  -3   17.20   18.90
  -1 -11   3   84.19   16.90
   1 -11  -3  111.79   18.60
   1 -11  -3  114.59   13.90
  -1 -11   3   96.59   13.20
   1  11  -3  155.78   46.30
  -1  11   3   55.59   24.60
   1  11  -3  110.09   21.50
  -1  11   3  111.69   13.30
   1  11  -3   99.39   17.30
   1  11  -3   94.49   17.50
  -1  11   3  126.09   47.00
   0 -11  -3   54.39    7.00
   0 -11   3   58.59    6.10
   0 -11   3   32.50   10.10
   0 -11   3   57.59   16.30
   0 -11  -3   59.19   15.80
   0  11   3   52.79   13.00
   0  11  -3   68.39   40.60
   0  11   3   22.70   21.50
   0  11   3   21.90   42.00
   0  11  -3   34.90   15.20
   0  11  -3   51.39   22.00
  -1 -11  -3   25.30   15.20
  -1 -11  -3    7.00   10.80
   1 -11   3   -8.60   15.20
   1  11   3   -0.50   44.10
   1  11   3   -2.50   13.30
  -1  11  -3  -22.30   38.10
  -1  11  -3   17.20   17.60
  -1  11  -3   39.70   24.10
   1  11   3   22.80   22.20
   2 -11   3    5.10   16.10
   2 -11   3   12.80   17.50
  -2 -11  -3   19.40   13.50
  -2 -11  -3    5.50   16.10
   2  11   3  -17.00   23.50
  -2  11  -3  -42.40   45.30
   2  11   3  -17.40   16.60
  -2  11  -3   23.00   26.60
  -2  11  -3    6.10   18.60
  -1 -12   3   76.89   14.90
  -1 -12   3   65.09   19.90
   1 -12  -3   33.50   20.40
   1  12  -3   66.49   20.80
   0 -12   3   34.40   20.60
   0 -12  -3    6.10    6.10
   0 -12   3    9.30    4.90
   0 -12   3    2.10    8.10
   0 -12  -3    2.70   14.70
   0 -12  -3  -22.20   18.40
   0  12   3  -12.90   47.80
   0  12  -3  -53.79   45.40
   0  12   3   34.20   28.70
   0  12  -3   43.00   26.40
   0  12  -3   -4.40   19.90
   0  12   3  -16.60   13.20
   5   0  -4   21.50   15.60
   5   0  -4   29.70   20.80
   5   0  -4   17.10   10.80
   5   0  -4   15.40   12.00
   4   0  -4   16.00    9.70
   4   0  -4   -3.20   12.40
   4   0  -4   12.70    7.80
   4   0  -4   10.80    8.70
   4   0  -4   17.00    7.00
   3   0  -4   22.10    6.20
   3   0  -4   12.40    8.40
   3   0  -4   18.00    4.70
   3   0  -4   19.90    4.50
  -2   0   4  862.71   59.69
  -1   0   4   94.89    7.90
   1   0  -4  110.39    8.00
  -1   0   4  103.49    8.20
   1   0  -4   85.69    9.10
   0   0  -4   21.50    4.70
   0   0   4   25.90    2.80
   0   0   4   20.70    4.60
   0   0  -4   18.10    2.40
   0   0  -4   17.40    2.00
   1   0   4  763.72   59.89
  -1   0  -4  766.32   59.59
   1   0   4  840.52   58.19
   1   0   4  913.41   58.39
  -1   0  -4  921.21   58.39
  -2   0  -4  960.00   63.99
   2   0   4  853.11   62.39
   2   0   4  985.00   64.99
  -2   0  -4  832.52   61.89
   3   0   4  165.08   13.80
   3   0   4  170.88   19.50
  -3   0  -4  136.49   15.70
  -4   0  -4   57.59   10.60
   4   0   4   59.39   19.50
   4   0   4   64.59   10.40
   5   0   4  -15.90   13.00
   5   0   4   -0.40   28.10
   5  -1  -4   -2.20   15.10
   5  -1  -4    3.90   24.20
   5   1  -4   12.50   10.60
   5   1  -4    1.30   16.20
   5   1  -4    4.70   13.60
   5   1  -4   32.50    9.30
   4  -1  -4   52.09   15.40
   4  -1  -4   24.80    9.00
   4  -1  -4   35.10   11.40
   4  -1  -4   26.10    7.00
   4   1  -4   15.20    8.10
   4   1  -4   27.20    9.40
   4   1  -4   36.80    8.40
   4   1  -4   12.70    5.40
   4   1  -4   21.60    9.60
   4   1  -4   28.20    7.90
   3  -1  -4   11.70    7.60
   3  -1  -4    7.50    9.80
   3   1  -4   44.10    5.50
   3   1  -4   24.10    5.20
   3   1  -4   29.70    6.50
  -2  -1   4  305.87   22.20
   2  -1  -4  289.37   22.90
   2  -1  -4  333.87   22.60
   2  -1  -4  331.57   21.80
  -2   1   4  325.67   21.70
  -2   1   4  285.57   21.80
   2   1  -4  307.57   22.30
   2   1  -4  282.07   22.30
   2   1  -4  312.17   21.80
  -2   1   4  326.07   21.80
   2   1  -4  270.57   21.70
  -1  -1   4  833.02   58.49
   1  -1  -4  863.21   59.09
   1  -1  -4  805.82   58.59
  -1  -1   4  877.61   58.69
  -1  -1   4  852.01   58.69
   1   1  -4  811.22   58.39
   1   1  -4  847.72   58.99
  -1   1   4  784.72   58.69
  -1   1   4  896.51   58.99
   1   1  -4  869.81   58.69
   1   1  -4  864.71   58.09
   0  -1   4  123.19   12.10
   0  -1   4  142.79   10.00
   0  -1  -4  135.69   10.00
   0  -1  -4  138.09   11.90
   0  -1  -4  140.89    9.70
   0   1   4  154.38   12.10
   0   1  -4  138.79   12.00
   0   1  -4  141.89   10.00
   0   1  -4  129.09   10.60
   0   1   4  124.29   10.10
   1  -1   4  182.58   13.30
  -1   1  -4  169.88   13.20
   1   1   4  169.58   13.10
   1   1   4  202.68   13.00
   2  -1   4  570.64   40.80
  -2  -1  -4  539.65   38.90
   2   1   4  558.64   39.90
   2   1   4  484.05   37.40
   3  -1   4   49.90   14.10
   3  -1   4   70.79    7.90
   3   1   4   78.09    8.00
  -3   1  -4   65.89   11.70
   3   1   4   40.60   12.50
   4  -1   4   -8.80    7.90
  -4  -1  -4    5.10    7.40
   4  -1   4  -14.60   19.40
  -4   1  -4    2.60   11.00
   4   1   4    0.10   16.10
   4   1   4    0.70    7.40
   5  -1   4   63.59   15.30
   5  -1   4   29.20   34.60
   5   1   4  -14.60   27.70
   5   1   4   50.39   14.40
  -5   1  -4   51.89   11.00
   5  -2  -4    8.00   25.10
   5  -2  -4   37.80   18.30
   5  -2  -4   32.20    9.80
   5   2  -4   16.80   15.40
   5   2  -4   18.10   11.20
   5   2  -4   49.10   13.50
   5   2  -4   20.50    8.20
   5   2  -4   13.00   16.10
   4  -2  -4   18.50    9.60
   4  -2  -4   20.10    6.20
   4  -2  -4   17.20   11.60
   4  -2  -4   25.50   18.20
   4   2  -4   16.30    8.40
   4   2  -4    4.90    9.60
   4   2  -4   13.60    5.70
   3  -2  -4  277.97   20.80
   3  -2  -4  216.88   16.50
   3  -2  -4  210.48   18.60
   3  -2  -4  220.08   24.60
   3   2  -4  225.28   18.20
   3   2  -4  219.98   18.00
   3   2  -4  235.48   18.20
   3   2  -4  224.88   17.40
   2  -2  -4  161.38   14.30
   2  -2  -4  186.38   14.40
  -2  -2   4  158.58   14.00
  -2  -2   4  178.68   13.40
   2   2  -4  167.78   13.10
  -2   2   4  145.29   13.30
   2   2  -4  179.08   12.50
  -2   2   4  158.48   15.90
   2   2  -4  175.48   13.60
   2   2  -4  169.78   13.80
   1  -2  -4  682.83   44.20
  -1  -2   4  615.24   43.50
  -1  -2   4  624.84   44.40
  -1  -2   4  668.43   43.90
  -1  -2   4  616.44   44.10
   1  -2  -4  624.04   44.80
   1   2  -4  659.73   44.40
  -1   2   4  597.54   44.60
   1   2  -4  569.24   44.80
   1   2  -4  662.23   43.60
   1   2  -4  634.74   43.40
   1   2  -4  593.14   44.20
  -1   2   4  660.63   44.40
   0  -2  -4   16.50    2.40
   0  -2   4    9.20    3.70
   0  -2   4   21.30    6.20
   0  -2  -4   12.70    4.70
   0  -2   4   14.10    2.10
   0   2   4   11.70    2.70
   0   2  -4   18.90    3.20
   0   2  -4   17.00    6.10
   0   2   4   14.50    5.00
   0   2  -4   15.80    2.30
   1  -2   4   54.49    5.70
  -1  -2  -4   79.29    9.20
  -1  -2  -4   59.19    5.60
   1  -2   4   79.29   10.70
   1  -2   4   64.09    6.60
  -1  -2  -4   65.99    5.80
   1   2   4   81.29    9.30
  -1   2  -4   73.39   10.60
   1   2   4   62.59    5.50
  -1   2  -4   63.99    6.10
   1   2   4   59.39    5.40
  -2  -2  -4  339.37   25.40
   2  -2   4  422.76   30.20
  -2  -2  -4  328.67   24.50
  -2  -2  -4  399.06   26.90
   2   2   4  411.36   28.40
  -2   2  -4  326.97   25.00
   2   2   4  311.57   25.10
   3  -2   4  101.19   19.90
  -3  -2  -4  123.29   12.60
   3  -2   4  107.79   10.00
   3   2   4  111.89   10.50
  -3   2  -4   91.99   14.40
  -3   2  -4  117.19    9.90
   3   2   4   84.69   15.00
   3   2   4  119.19   10.90
   4  -2   4   -3.70    8.10
  -4  -2  -4    2.30    6.70
   4  -2   4  -27.90   22.10
   4   2   4   -4.20    7.20
  -4   2  -4   -8.10   13.90
   4   2   4   -4.60    7.40
   4   2   4   12.80   16.90
   5  -2   4   26.50   13.20
   5  -2   4   55.09   39.40
  -5   2  -4   18.30   16.80
   5   2   4   15.60   11.20
   5   2   4   52.99   12.70
   5   2   4  -22.00   30.20
  -5   2  -4   -2.20   13.40
   5  -3  -4  -19.50   27.80
   5  -3  -4   20.50   13.20
   5  -3  -4   18.60   19.00
   5  -3  -4   20.30    8.90
   5   3  -4   10.50   12.40
   5   3  -4   17.80   10.40
   5   3  -4   31.80   13.90
   5   3  -4    3.00    8.60
   5   3  -4    2.40   11.90
   4  -3  -4   38.70   12.20
   4  -3  -4   59.09   14.30
   4  -3  -4   27.10   20.20
   4  -3  -4   43.90    6.00
   4   3  -4   32.50    8.10
   4   3  -4   42.70    7.40
   4   3  -4   41.00    8.90
   3  -3  -4   14.70    7.50
   3  -3  -4    3.80    8.30
   3  -3  -4   -2.30   14.30
   3   3  -4    5.00    4.20
   3   3  -4   -1.10    4.50
   3   3  -4    6.10    4.80
   3   3  -4    3.40    5.80
  -3   3   4   12.70    8.00
  -3   3   4   14.40    6.00
  -2  -3   4  145.09   13.10
   2  -3  -4  166.68   14.30
  -2  -3   4  150.88   11.90
  -2   3   4  148.79   17.60
   2   3  -4  152.48   13.20
   1  -3  -4  356.76   24.50
  -1  -3   4  354.46   23.80
  -1  -3   4  343.27   25.20
   1  -3  -4  334.87   25.40
  -1  -3   4  337.97   24.90
  -1  -3   4  334.67   23.60
  -1  -3   4  340.37   24.50
   1   3  -4  342.27   23.60
   1   3  -4  326.37   24.60
  -1   3   4  336.37   25.50
   1   3  -4  341.57   24.60
   1   3  -4  294.07   26.20
  -1   3   4  345.37   24.80
   0  -3   4   94.19    7.10
   0  -3   4  107.49   12.50
   0  -3   4   81.59    8.50
   0  -3   4   85.69    8.40
   0  -3  -4  107.09   10.70
   0  -3  -4   90.29    7.30
   0   3   4   82.99    7.80
   0   3  -4  106.89   13.10
   0   3   4   89.79   10.00
   0   3  -4   89.39    8.40
   1  -3   4   66.39    7.30
  -1  -3  -4   64.79    6.20
   1  -3   4   75.79   11.90
  -1  -3  -4   70.99    6.60
  -1  -3  -4   74.39    9.00
  -1  -3  -4   63.09    5.70
   1   3   4   66.59    5.90
  -1   3  -4   56.29   10.60
   1   3   4   68.49    9.10
  -1   3  -4   69.89    7.00
  -2  -3  -4  566.94   38.90
   2  -3   4  605.24   43.10
  -2  -3  -4  515.05   37.00
  -2  -3  -4  531.35   37.80
   2   3   4  489.65   37.50
  -2   3  -4  530.65   37.60
   3  -3   4  122.69   19.70
   3  -3   4   80.99    9.20
  -3  -3  -4   98.09   11.50
  -3   3  -4   98.59    9.80
   3   3   4   89.99    9.40
   3   3   4   79.29    9.70
  -3   3  -4  111.49   14.50
   3   3   4   95.29   14.30
   4  -3   4   62.09   23.10
   4  -3   4   15.70    6.70
  -4   3  -4    4.90   13.50
  -4   3  -4   15.40   18.10
   4   3   4   -5.10    7.80
   4   3   4    9.10    6.90
   4   3   4  -13.90   16.40
   5  -3   4   36.90   14.90
   5  -3   4   82.59   43.30
   5   3   4   31.70   13.10
  -5   3  -4  -14.20   15.80
   5   3   4   25.90   11.10
  -5   3  -4   17.90   23.30
   5   3   4   28.20   30.40
   5  -4  -4   39.70   20.70
   5  -4  -4   24.60   13.70
   5  -4  -4    0.20   33.80
   5   4  -4   28.10   10.50
   5   4  -4    6.90    9.20
   5   4  -4    1.20   14.70
   5   4  -4   10.00   12.60
   4  -4  -4   17.60    9.70
   4  -4  -4   15.90   13.50
   4  -4  -4   21.00   13.60
   4  -4  -4   15.20   22.80
   4   4  -4   11.50   10.20
   4   4  -4   14.90    7.80
   4   4  -4   10.90    6.90
   4   4  -4   10.10    6.90
  -4   4   4   23.70    9.50
  -4   4   4   25.70    8.50
   3  -4  -4  169.28   19.00
   3  -4  -4  166.68   23.60
   3  -4  -4  189.48   16.30
   3  -4  -4  189.88   19.00
   3   4  -4  177.08   16.30
  -3   4   4  181.38   16.60
   3   4  -4  161.78   14.00
   3   4  -4  164.88   13.80
  -3   4   4  170.08   19.90
   3   4  -4  150.58   14.60
  -2  -4   4   65.09    7.00
  -2  -4   4   72.39    8.60
   2  -4  -4   64.99    9.70
   2   4  -4   65.89    6.50
  -2   4   4   62.79   12.70
  -2   4   4   84.59   10.70
   2   4  -4   52.59    7.10
  -1  -4   4   28.60    4.90
   1  -4  -4   22.10    7.10
  -1  -4   4   28.40    3.20
  -1  -4   4   23.20    2.80
   1  -4  -4   22.50    4.80
  -1  -4   4   30.50    5.20
   1   4  -4   28.20    5.00
  -1   4   4   24.10    6.50
   1   4  -4   27.10    5.30
   1   4  -4   11.70    9.20
  -1   4   4   18.10    6.40
   1   4  -4   23.90    2.90
   0  -4  -4    5.40    6.50
   0  -4  -4    0.30    3.70
   0  -4  -4    4.00    2.40
   0  -4   4    7.50    9.00
   0  -4   4    5.20    3.90
   0  -4   4    0.80    3.40
   0  -4   4    1.30    2.00
   0   4  -4   17.30    9.70
   0   4   4    7.10    5.90
   0   4  -4    0.60    3.80
   0   4   4    2.50    3.40
  -1  -4  -4  172.78   16.10
  -1  -4  -4  183.58   13.50
   1  -4   4  196.28   20.40
  -1  -4  -4  185.28   13.20
   1  -4   4  180.48   14.70
  -1  -4  -4  174.88   14.00
  -1   4  -4  178.18   19.00
   1   4   4  187.08   13.40
   1   4   4  167.08   16.50
  -1   4  -4  181.08   14.50
   2  -4   4   29.60   14.10
  -2  -4  -4   13.60    7.30
  -2  -4  -4   22.70    3.70
   2  -4   4   15.90    5.20
  -2  -4  -4   18.00    4.60
  -2   4  -4   14.30   10.70
   2   4   4   20.80    3.60
   2   4   4   12.10    9.70
   2   4   4   22.10    4.70
  -2   4  -4   17.00    5.00
   3  -4   4   -6.20   19.20
   3  -4   4   -7.00    5.80
  -3  -4  -4   18.40    6.50
  -3  -4  -4    8.70    6.40
   3   4   4    0.20    4.70
  -3   4  -4   -0.90    5.90
  -3   4  -4   19.60   15.00
   3   4   4    3.40    5.90
   3   4   4    4.20   12.60
   4  -4   4    5.30    8.20
   4  -4   4   16.70   26.30
   4   4   4    6.90   17.80
   4   4   4   13.80    8.60
  -4   4  -4  -20.20   22.50
  -4   4  -4    9.70   13.90
   5  -4   4    9.50   43.00
   5  -4   4   -7.80   10.00
   5   4   4   15.50   27.50
  -5   4  -4  -27.10   30.50
  -5   4  -4    5.50   18.40
   5   4   4   12.80   10.90
   5   4   4  -12.80   10.90
   5  -5  -4   51.99   39.50
   5  -5  -4   63.39   16.70
   5  -5  -4   73.99   23.00
   5   5  -4   54.59   10.60
   5   5  -4   66.69   13.60
   5   5  -4   50.69   11.70
   5   5  -4   38.40   17.70
   5   5  -4   32.20   13.10
   4  -5  -4    4.00   10.80
   4  -5  -4   10.00   14.50
   4  -5  -4  -19.80   25.80
   4   5  -4    4.90   10.90
   4   5  -4    0.30    7.40
   4   5  -4    7.30    7.30
  -4   5   4   11.20   13.70
   4   5  -4    2.80    7.20
  -4   5   4   15.50   10.20
   4   5  -4   -1.40    7.80
   3  -5  -4   94.69   13.80
   3  -5  -4   72.89   13.40
   3  -5  -4   70.09    9.80
  -3  -5   4   72.49    8.70
   3   5  -4   93.49    8.40
  -3   5   4   66.29   11.60
   3   5  -4   96.19   16.20
   3   5  -4   64.19    7.60
   3   5  -4   47.40    8.60
  -3   5   4   60.09   16.60
   2  -5  -4   45.70    8.60
  -2  -5   4   61.39    8.60
   2  -5  -4   75.49    8.60
  -2  -5   4   65.79    8.90
   2  -5  -4   77.69   10.50
  -2  -5   4   67.29    7.30
   2   5  -4   52.39    8.10
   2   5  -4   39.50   12.00
  -2   5   4   90.99   10.60
  -2   5   4   67.89   14.80
   2   5  -4   82.59    9.30
   2   5  -4   63.09    5.30
  -1  -5   4  107.89   12.30
   1  -5  -4  127.49   14.60
  -1  -5   4  145.79   10.10
   1  -5  -4  124.29   12.60
   1  -5  -4  136.79   12.20
  -1  -5   4  139.29   12.30
  -1  -5   4  132.99   10.40
   1   5  -4  131.49   12.30
  -1   5   4  128.29   19.00
   1   5  -4  151.08   19.60
  -1   5   4  135.59   14.00
   1   5  -4  145.39   12.20
   0  -5  -4  578.94   43.10
   0  -5   4  582.94   46.00
   0  -5   4  606.64   41.10
   0  -5   4  613.34   42.00
   0  -5  -4  567.24   41.30
   0  -5   4  605.84   42.30
   0  -5  -4  584.24   42.10
   0   5   4  574.64   41.80
   0   5  -4  602.84   46.20
   0   5  -4  594.04   42.10
   0   5   4  609.24   43.60
   1  -5   4   90.29   17.50
   1  -5   4   72.89    9.20
  -1  -5  -4   70.59    6.60
  -1  -5  -4   71.49    7.80
  -1  -5  -4   82.19   10.20
   1  -5   4   82.09    9.10
  -1  -5  -4   88.49    8.60
  -1   5  -4  115.39   16.60
  -1   5  -4   84.69    9.60
   1   5   4  100.99   11.70
   1   5   4   60.39    7.30
  -2  -5  -4   84.19    9.20
   2  -5   4   77.39    9.80
  -2  -5  -4   94.29   10.20
   2  -5   4   92.59   20.40
  -2  -5  -4   91.39   11.90
  -2   5  -4   73.59   16.00
   2   5   4  119.89   14.50
   2   5   4   99.39    8.40
  -2   5  -4   95.09   10.40
   3  -5   4  445.96   49.60
  -3  -5  -4  492.55   37.60
  -3  -5  -4  527.85   36.40
   3  -5   4  578.14   38.70
  -3  -5  -4  479.75   37.90
  -3   5  -4  423.86   45.70
   3   5   4  565.34   36.80
  -3   5  -4  539.85   38.40
   3   5   4  487.75   42.50
   3   5   4  538.25   37.50
   4  -5   4   30.20   10.50
   4  -5   4   21.00   30.10
  -4   5  -4   18.60   20.50
  -4   5  -4    4.30   17.20
   4   5   4   19.30   10.20
   4   5   4   32.10    7.60
   4   5   4   45.00   34.20
   5  -6  -4  114.89   48.20
   5  -6  -4   17.30   26.90
   5  -6  -4   -4.50   16.40
  -5   6   4    9.10   16.30
   5   6  -4    5.40   13.10
   5   6  -4    5.40   12.70
   5   6  -4   15.20   12.20
   5   6  -4   23.00   17.70
  -5   6   4    9.70   14.80
   5   6  -4    4.90   11.10
   4  -6  -4   71.99   13.80
   4  -6  -4   19.50   16.80
  -4   6   4   77.29   21.60
   4   6  -4   13.70    9.50
   4   6  -4   44.20   13.20
   4   6  -4   37.40    8.90
  -3  -6   4   33.80   10.60
  -3  -6   4   21.70    7.20
   3  -6  -4    7.50   15.40
   3  -6  -4   27.60   14.10
   3  -6  -4   40.80    9.90
   3   6  -4   15.10    8.80
   3   6  -4   24.50    3.60
   3   6  -4   22.60    7.50
  -3   6   4   45.80   17.80
   3   6  -4   27.70   15.00
   3   6  -4   26.80    7.00
  -3   6   4   27.80   11.40
   2  -6  -4  169.18   19.40
  -2  -6   4  151.08   13.40
   2  -6  -4  161.48   16.30
  -2  -6   4  173.58   15.50
   2  -6  -4  167.28   16.40
  -2   6   4  140.59   18.40
   2   6  -4  197.38   21.60
   2   6  -4  154.68   15.10
   2   6  -4  151.38   15.70
  -2   6   4  166.28   23.40
  -1  -6   4   70.99    8.50
  -1  -6   4   69.19    7.00
  -1  -6   4   73.69    9.00
   1  -6  -4   78.59    9.40
   1  -6  -4   68.99   10.60
   1  -6  -4   75.59    8.20
  -1  -6   4   68.89    6.00
  -1   6   4   62.69    6.80
  -1   6   4   73.99   10.90
   1   6  -4   55.69   16.60
   1   6  -4   76.19    8.60
  -1   6   4   70.89   18.80
   1   6  -4   58.29    8.70
   0  -6  -4   54.19    5.60
   0  -6   4   40.80    5.10
   0  -6   4   22.60   15.50
   0  -6   4   56.39    7.50
   0  -6   4   66.39    8.10
   0  -6  -4   57.69    7.80
   0  -6  -4   66.09   10.20
   0   6   4   56.89   10.20
   0   6  -4   58.59   14.90
   0   6  -4   45.50    7.20
   0   6   4   53.99    7.60
   1  -6   4   41.70    7.00
   1  -6   4   44.50   18.10
  -1  -6  -4   50.69    5.20
  -1  -6  -4   40.20    6.80
   1  -6   4   43.10    8.10
  -1  -6  -4   47.10    6.00
  -1  -6  -4   42.90    9.00
   1   6   4   33.80    9.80
  -1   6  -4   54.89   17.20
   1   6   4   47.60    6.20
  -1   6  -4   51.09    7.30
   2  -6   4    0.10    7.30
  -2  -6  -4    5.40    5.50
   2  -6   4    2.90    6.90
  -2  -6  -4   12.40    5.30
   2  -6   4    5.80   19.90
  -2  -6  -4    0.10    7.00
   2   6   4    4.20    4.40
   2   6   4    2.90   10.10
  -2   6  -4   12.90   16.60
  -2   6  -4   11.80    7.00
  -3  -6  -4   20.80    8.20
  -3  -6  -4    5.90    5.00
  -3  -6  -4   14.50    7.50
   3  -6   4   35.10   28.40
  -3   6  -4   17.80    8.70
  -3   6  -4   33.10   14.60
   3   6   4   16.50    8.00
  -3   6  -4   93.49   23.90
   3   6   4   17.50    5.20
   3   6   4   43.40   16.90
   4  -6   4  -24.40   12.40
  -4  -6  -4  -19.40   11.10
   4  -6   4   -1.70   38.00
   4   6   4  -15.40   20.60
  -4   6  -4   25.70   28.10
   4   6   4   12.30    7.30
   4   6   4   -3.60   10.20
  -4   6  -4    6.90   18.50
  -4  -7   4   36.50   12.40
   4  -7  -4    5.20   18.80
  -4   7   4  128.19   39.20
   4   7  -4   18.10   11.90
   4   7  -4   26.90   10.20
   4   7  -4   36.80   10.30
   4   7  -4   46.80   15.00
   3  -7  -4   42.70   12.00
  -3  -7   4   32.70    9.80
   3  -7  -4   45.90   17.30
   3  -7  -4   60.19   13.50
  -3   7   4   57.59   22.80
   3   7  -4   27.20    9.90
   3   7  -4   26.90    8.80
   3   7  -4   35.40   10.80
   3   7  -4    4.60   19.10
  -3   7   4   28.30   14.70
   2  -7  -4  400.26   31.00
  -2  -7   4  381.16   28.40
   2  -7  -4  423.96   31.20
  -2  -7   4  428.36   30.30
   2  -7  -4  382.46   33.20
   2   7  -4  363.96   30.00
  -2   7   4  350.76   32.60
   2   7  -4  392.96   29.60
   2   7  -4  335.67   37.90
   1  -7  -4    5.60    6.10
  -1  -7   4    4.70    2.30
   1  -7  -4    0.70   11.20
  -1  -7   4    7.30    7.60
  -1  -7   4    4.30    4.50
  -1  -7   4   -0.20    6.40
   1  -7  -4    6.60    7.40
  -1   7   4    1.50   18.70
  -1   7   4    6.30    3.60
   1   7  -4   25.40   18.40
   1   7  -4    7.70    6.60
   1   7  -4   -5.50    5.70
  -1   7   4   11.60   10.60
   0  -7  -4   54.39   12.40
   0  -7  -4   51.59    6.10
   0  -7   4   32.60    8.80
   0  -7   4   63.29   18.70
   0  -7  -4   68.39    9.20
   0  -7   4   45.50    5.40
   0  -7   4   65.59    8.40
   0   7   4   56.09   12.20
   0   7  -4   50.29   17.00
   0   7  -4   58.89    8.30
  -1  -7  -4   32.90    5.70
   1  -7   4   31.30    8.80
  -1  -7  -4   24.00    9.60
   1  -7   4   24.10   19.20
   1  -7   4   25.40    7.00
  -1  -7  -4   31.00    7.60
  -1  -7  -4   28.50    4.20
  -1   7  -4    9.40   18.00
   1   7   4   28.90   11.70
   1   7   4   23.00    5.90
  -1   7  -4   30.40    7.80
  -2  -7  -4   31.30    6.80
  -2  -7  -4   25.10    7.10
  -2  -7  -4   13.50    9.90
   2  -7   4   27.30    7.10
   2  -7   4   57.49   23.10
   2  -7   4   41.70   10.80
   2   7   4   21.90   13.00
  -2   7  -4   58.19   23.00
   2   7   4   27.60    5.90
  -2   7  -4   57.39    9.20
   3  -7   4  164.68   17.20
   3  -7   4  157.58   16.80
   3  -7   4  146.09   34.10
  -3   7  -4  126.19   29.30
  -3   7  -4   97.69   20.60
  -3   7  -4  122.29   19.50
   4  -7   4   51.89   15.50
  -4  -7  -4   14.40   13.30
   4  -7   4  -31.10   45.70
   4   7   4   18.30   26.80
  -4   7  -4  -13.10   22.80
   4   7   4    2.60   12.70
  -4   7  -4   57.79   34.60
   4   7   4    5.30    7.40
  -4  -8   4   26.80   12.60
   4  -8  -4   20.60   16.00
   4  -8  -4   14.70   22.40
  -4   8   4   81.69   35.70
   4   8  -4   26.10   16.10
   4   8  -4   33.70   12.40
   4   8  -4    3.30   29.90
   4   8  -4    8.00   15.10
   3  -8  -4    9.80   12.60
  -3  -8   4   15.40    9.50
  -3  -8   4   22.70   12.20
   3  -8  -4   -3.60   14.60
  -3   8   4    5.70   27.70
  -3   8   4   53.39   18.60
   3   8  -4  -24.90   26.00
   3   8  -4   22.40   11.80
   3   8  -4    9.70    9.20
   3   8  -4   23.30   12.30
   2  -8  -4  386.16   30.00
  -2  -8   4  380.26   29.60
  -2  -8   4  381.66   27.00
   2  -8  -4  357.96   30.20
   2  -8  -4  366.76   33.90
   2   8  -4  321.47   43.10
  -2   8   4  302.47   33.60
   2   8  -4  332.67   29.20
   2   8  -4  362.36   30.00
  -2   8   4  346.07   41.80
   1  -8  -4   14.10   12.20
   1  -8  -4   22.10    7.60
  -1  -8   4    7.80    9.20
  -1  -8   4   11.90    3.00
  -1  -8   4    6.20    7.30
   1  -8  -4   19.80    8.00
  -1  -8   4   21.00    5.60
  -1   8   4   21.60    5.10
  -1   8   4    5.50   23.50
   1   8  -4   11.10   22.50
  -1   8   4   24.10   22.50
   1   8  -4   16.20    7.70
   1   8  -4    1.50   10.90
   0  -8   4    0.00    7.90
   0  -8   4   11.00    7.70
   0  -8   4    5.00    2.90
   0  -8  -4    3.70    8.30
   0  -8  -4    9.60   10.40
   0  -8  -4    5.00    4.40
   0   8   4   30.50   24.00
   0   8  -4    3.90   20.20
   0   8   4    4.10    6.60
  -1  -8  -4    9.80    3.60
  -1  -8  -4   10.10    5.70
  -1  -8  -4   17.60    7.80
  -1  -8  -4    9.70   11.00
   1  -8   4   15.00    9.80
   1  -8   4   17.00   28.10
   1  -8   4    8.60    7.00
   1   8   4   14.60    7.80
  -1   8  -4   24.60    8.80
  -1   8  -4   12.20   19.30
   2  -8   4   92.59   10.90
   2  -8   4   60.59   13.60
  -2  -8  -4   67.99   10.80
  -2  -8  -4   90.69   13.60
  -2  -8  -4   62.09    9.30
   2  -8   4   12.80   28.00
  -2   8  -4  122.39   18.80
   2   8   4   69.19   17.70
  -2   8  -4   86.19   29.00
  -2   8  -4   65.59   13.00
   2   8   4   80.39    8.80
   3  -8   4   90.09   16.30
   3  -8   4   60.89   38.80
   3   8   4  134.39   23.20
  -3   8  -4   60.89   14.60
  -3   8  -4   94.79   20.60
  -3   8  -4  134.89   32.80
  -4  -9   4   14.90   14.80
   4  -9  -4   28.30   20.40
   4   9  -4    4.90   14.30
  -3  -9   4   -6.50   14.40
   3  -9  -4   15.80   16.10
  -3  -9   4    2.60   10.50
   3  -9  -4    0.20   14.50
   3   9  -4   38.70   15.20
  -3   9   4    0.00   33.10
   3   9  -4   15.70   15.60
   3   9  -4   -6.80   11.00
   3   9  -4   37.60   29.80
  -3   9   4   26.90   21.70
  -2  -9   4  389.86   28.80
  -2  -9   4  393.16   32.10
   2  -9  -4  388.46   32.20
   2  -9  -4  384.36   32.10
  -2   9   4  359.06   37.70
   2   9  -4  361.06   32.20
   2   9  -4  385.56   30.90
  -2   9   4  340.07   46.70
   2   9  -4  315.37   31.50
  -1  -9   4    6.40    6.50
   1  -9  -4    5.40   15.10
  -1  -9   4   -2.20    9.70
  -1  -9   4   -4.50   10.10
   1  -9  -4   -2.80    8.10
   1  -9  -4   14.10   10.40
  -1   9   4    0.90    5.90
   1   9  -4  -31.40   29.30
   1   9  -4    2.30   10.00
  -1   9   4    5.50   15.90
  -1   9   4  -39.10   26.00
   1   9  -4   -1.60    8.40
   0  -9  -4  282.37   22.70
   0  -9  -4  308.37   29.80
   0  -9   4  308.87   27.20
   0  -9   4  323.07   21.90
   0  -9   4  331.77   25.30
   0  -9  -4  307.37   26.80
   0   9   4  278.07   40.80
   0   9  -4  269.47   28.80
   0   9   4  280.37   24.40
   0   9  -4  334.07   26.70
   0   9   4  281.77   30.70
   0   9  -4  313.27   38.50
   1  -9   4   19.60   12.10
  -1  -9  -4   45.90   15.20
   1  -9   4   51.89   30.40
  -1  -9  -4   31.50    4.50
  -1  -9  -4   38.10    8.40
  -1  -9  -4   35.20   10.80
   1  -9   4   17.80    8.80
   1   9   4   18.40   14.50
  -1   9  -4   25.70   15.40
  -1   9  -4   20.80   25.40
   1   9   4   12.50   11.10
  -1   9  -4   26.10   11.20
  -2  -9  -4  103.89   13.60
   2  -9   4   67.29   37.20
   2  -9   4   82.29   16.20
   2  -9   4   90.19   12.40
  -2  -9  -4   93.69   11.50
  -2   9  -4   75.49   15.80
   2   9   4   82.99   20.30
  -2   9  -4  105.69   21.20
  -2   9  -4   12.80   33.60
   2   9   4   94.39   10.80
   3  -9   4   58.59   13.10
  -3  -9  -4   66.39   13.80
   3  -9   4   54.29   46.80
  -3  -9  -4   42.70   13.30
   3  -9   4   55.09   17.90
   3   9   4   40.90    8.60
  -3   9  -4    7.40   37.70
   3   9   4   11.20   20.40
  -3   9  -4   56.39   15.60
  -3   9  -4   60.99   25.10
   3 -10  -4   31.60   19.20
   3 -10  -4    5.80   17.60
  -3 -10   4    9.10   17.00
  -3 -10   4   -0.50   12.80
   3  10  -4  -34.20   38.60
  -3  10   4  -29.30   43.90
   3  10  -4   -5.00   17.10
   3  10  -4  -13.00   13.60
   3  10  -4   10.00   17.10
  -3  10   4  -21.60   27.60
   2 -10  -4   40.90   15.40
   2 -10  -4   27.80   14.40
  -2 -10   4   41.40   10.30
  -2 -10   4   45.20   15.30
  -2  10   4   40.90   23.20
   2  10  -4   87.39   19.20
   2  10  -4   44.70   13.00
  -2  10   4   59.59   42.50
   2  10  -4   30.90   13.90
   2  10  -4   19.60   37.50
  -1 -10   4  110.69   11.80
   1 -10  -4   84.99   15.40
   1 -10  -4   82.59   12.70
  -1 -10   4   86.79   15.10
   1  10  -4   97.19   17.90
   1  10  -4   69.29   13.50
   1  10  -4   84.49   15.90
  -1  10   4   82.79   34.60
   1  10  -4   70.89   38.40
  -1  10   4   79.39   21.60
  -1  10   4   85.89   10.00
   0 -10   4   49.50   12.80
   0 -10  -4   10.00    5.30
   0 -10  -4    8.30   12.30
   0 -10   4   -2.30   11.30
   0 -10   4   -0.20    4.00
   0  10   4    2.70   18.80
   0  10  -4    6.70   15.10
   0  10   4  -13.10   35.30
   0  10  -4   19.90    9.90
   0  10  -4   20.00   32.20
   0  10   4   17.40    9.30
   1 -10   4  185.28   22.30
   1 -10   4  181.38   22.80
  -1 -10  -4  238.88   25.60
  -1 -10  -4  223.58   20.10
   1 -10   4  203.68   17.20
  -1 -10  -4  180.28   15.20
  -1  10  -4  222.78   24.10
  -1  10  -4  238.08   37.80
  -1  10  -4  261.57   27.70
   1  10   4  169.88   22.00
   1  10   4  242.08   26.20
  -2 -10  -4   37.30   14.30
   2 -10   4   36.00   12.70
   2 -10   4   45.40   17.20
  -2 -10  -4   44.90   12.60
   2 -10   4    2.90   45.20
  -2  10  -4   96.79   17.60
  -2  10  -4  105.59   25.60
   2  10   4   56.79   21.30
   2  10   4   22.80   18.30
  -2  10  -4   25.90   38.70
   2 -11  -4   16.90   18.10
   2 -11  -4   38.00   17.90
  -2 -11   4  -10.10   16.30
  -2 -11   4   32.30   12.50
   2  11  -4   11.20   18.30
  -2  11   4   -0.80   51.39
   2  11  -4   34.90   20.40
   2  11  -4   30.90   47.40
  -2  11   4    0.30   28.20
   2  11  -4   23.30   16.40
  -1 -11   4   39.30   16.30
  -1 -11   4   48.00   11.40
   1 -11  -4   52.29   16.60
   1 -11  -4   56.49   11.60
  -1  11   4   70.69   25.60
   1  11  -4   94.59   42.00
   1  11  -4   45.90   17.30
   1  11  -4   30.50   13.60
   1  11  -4   18.80   22.10
  -1  11   4   47.50   10.20
  -1  11   4  -32.30   37.80
   0 -11   4   54.49   16.50
   0 -11   4   74.99    8.70
   0 -11  -4   78.89    9.00
   0 -11  -4   95.29   18.10
   0  11   4   69.49   13.40
   0  11  -4   86.69   23.40
   0  11  -4   84.39   16.70
   0  11   4   88.49   46.20
   0  11  -4  116.99   40.20
   0  11   4   90.49   24.50
   1 -11   4   76.09   20.60
  -1 -11  -4   69.89   17.20
   1 -11   4   63.29   17.40
  -1 -11  -4   55.89   13.90
   1 -11   4   78.49    9.90
  -1  11  -4   49.60   25.40
   1  11   4   74.39   45.50
  -1  11  -4   79.99   18.00
   1  11   4   52.09   16.50
  -1  11  -4   21.20   40.50
   1  11   4   44.90   24.00
   5   0  -5   22.10   13.10
   5   0  -5   15.80   12.10
   5   0  -5   -7.30   11.40
   5   0  -5  -18.60   20.80
   4   0  -5   -4.50    7.00
   4   0  -5   -3.20    6.80
   4   0  -5    4.90   12.20
   4   0  -5  -10.60    8.90
   3   0  -5    4.70    4.50
   3   0  -5   -0.30    5.70
   3   0  -5   -1.80    4.40
   2   0  -5    1.90    3.60
   2   0  -5   -3.80    4.30
  -2   0   5   -7.10    4.70
  -2   0   5   -3.20    2.90
   2   0  -5   -6.80    4.90
   1   0  -5  344.17   24.90
  -1   0   5  357.26   25.10
   0   0  -5   -4.00    5.90
   0   0   5   -0.50    5.40
   0   0   5    1.70    2.10
   0   0  -5    1.40    1.20
   0   0  -5   -1.40    1.70
   1   0   5    0.90    2.00
  -1   0  -5    2.50    2.90
   1   0   5    2.00    2.40
   1   0   5    4.90    6.50
  -1   0  -5   -1.00    6.50
   2   0   5   -5.80    7.00
  -2   0  -5   -4.50    8.00
   2   0   5    4.20    3.70
   2   0   5    0.00    3.20
  -2   0  -5    3.80    2.30
   3   0   5    0.30    5.00
  -3   0  -5   26.10   10.60
   3   0   5    3.60    5.20
   3   0   5    8.40   14.60
   4   0   5    2.20   19.60
   4   0   5    4.90    8.60
  -4   0  -5   -3.70   10.60
   5   0   5    4.20   12.70
  -5   0  -5   19.80   11.60
  -5   0  -5  -12.30   11.90
   5   0   5   27.70   31.10
   5  -1  -5   15.80   10.90
   5  -1  -5   -5.80   25.10
   5  -1  -5    5.60   15.10
   5   1  -5   -1.30   11.20
   5   1  -5    7.40   12.60
   5   1  -5   -1.20   12.60
   5   1  -5   29.90   10.90
   5   1  -5    5.10   18.40
   4  -1  -5    4.20    7.80
   4  -1  -5    3.40    9.70
   4  -1  -5    3.80    6.50
   4  -1  -5   17.30   15.20
   4   1  -5    2.70    5.70
   4   1  -5   10.00    8.60
   4   1  -5   11.00    8.30
   4   1  -5   -4.20    8.30
   4   1  -5   -2.20    6.80
   4   1  -5    4.30   10.20
   3  -1  -5  299.07   22.20
   3  -1  -5  300.47   23.30
   3  -1  -5  294.57   23.80
   3   1  -5  282.87   22.10
   3   1  -5  342.57   23.60
   3   1  -5  310.17   22.90
   3   1  -5  291.47   22.30
   2  -1  -5   79.29    9.20
  -2  -1   5   73.79    8.00
   2  -1  -5   71.89    8.90
   2   1  -5   72.89    6.90
   2   1  -5   96.99    8.60
  -2   1   5   95.49    8.10
  -2   1   5   83.09    7.00
  -2   1   5   58.59    8.80
   2   1  -5   92.09    9.00
   2   1  -5   76.59    8.10
  -2   1   5   67.09    9.40
   1  -1  -5  416.16   27.70
  -1  -1   5  382.86   27.80
   1  -1  -5  365.36   28.60
  -1  -1   5  426.86   27.70
   1   1  -5  389.86   26.90
   1   1  -5  363.36   28.90
  -1   1   5  426.66   28.00
  -1   1   5  341.87   28.40
   0  -1  -5   46.30    7.60
   0  -1   5   38.10    4.10
   0  -1  -5   41.10    4.20
   0  -1   5   42.80    7.80
   0  -1  -5   38.60    3.40
   0   1   5   41.20    4.50
   0   1  -5   35.80    7.60
   0   1  -5   37.30    4.60
   0   1  -5   34.80    4.10
   0   1   5   52.09    7.30
  -1  -1  -5 2652.63  173.18
  -1  -1  -5 2423.46  174.48
  -1  -1  -5 2451.65  172.98
   1  -1   5 2428.26  172.88
   1  -1   5 2697.63  173.18
   1   1   5 2681.03  173.18
   1   1   5 2631.84  172.88
  -1   1  -5 2223.78  174.58
  -1   1  -5 2675.73  173.28
   1   1   5 2344.57  174.68
   2  -1   5   16.00   10.10
  -2  -1  -5    8.60    2.60
   2  -1   5   12.80    3.50
  -2  -1  -5   16.40    7.80
   2  -1   5   14.80    3.90
   2   1   5   17.60    3.70
  -2   1  -5   21.00    3.10
   2   1   5   10.70    3.40
   2   1   5   32.80   10.10
  -2   1  -5   37.60   10.10
  -3  -1  -5    2.20    8.10
   3  -1   5    6.50    5.10
   3  -1   5    9.10   16.00
   3   1   5    3.70    5.50
  -3   1  -5    8.90   11.20
  -3   1  -5    3.50    3.10
   3   1   5    6.70    5.00
   3   1   5   14.50   13.60
   4  -1   5  142.19   14.80
   4  -1   5  119.29   26.20
   4   1   5  137.99   15.60
   4   1   5   57.19   27.60
   4   1   5  133.49   14.90
  -4   1  -5  133.29   18.20
   5  -1   5   32.70   37.30
   5  -1   5   -3.60   14.10
   5   1   5    3.40   12.00
  -5   1  -5   -2.30   12.80
   5   1   5  -19.40   29.30
   5   1   5    6.50   13.60
  -5   1  -5    3.10   15.80
   5  -2  -5    3.00    8.90
   5  -2  -5   21.50   16.40
   5  -2  -5   14.30   27.60
   5   2  -5    5.60   12.90
   5   2  -5   -5.30   11.00
   5   2  -5   -2.00    9.00
   5   2  -5   18.10   13.40
   4  -2  -5  103.19   11.10
   4  -2  -5   68.09   20.70
   4  -2  -5   92.49   13.30
   4   2  -5  105.09   12.90
   4   2  -5  108.19   11.40
   4   2  -5   82.99   12.20
   4   2  -5  118.69   12.30
   3  -2  -5   -1.90    7.00
   3  -2  -5    0.20    4.10
   3  -2  -5    3.80    8.00
   3   2  -5    1.40    5.40
   3   2  -5   -2.10    4.60
   3   2  -5    0.40    5.90
   3   2  -5    7.80    5.60
  -2  -2   5  212.88   15.40
   2  -2  -5  227.58   17.00
   2  -2  -5  173.78   15.90
  -2  -2   5  162.48   15.60
  -2   2   5  183.48   17.10
   2   2  -5  170.38   15.70
  -2   2   5  200.18   14.10
   2   2  -5  209.78   14.40
   2   2  -5  177.18   14.80
  -2   2   5  207.78   18.50
   2   2  -5  213.88   15.80
  -1  -2   5   79.39    9.30
  -1  -2   5   72.39    7.60
   1  -2  -5   76.09    7.40
  -1  -2   5   74.29    6.80
   1  -2  -5   73.59    9.60
   1   2  -5   76.59    6.20
  -1   2   5   79.09    9.70
  -1   2   5   64.29    8.00
   1   2  -5   74.49    5.50
   1   2  -5   75.39    9.90
   1   2  -5   74.29    7.90
   0  -2  -5   25.00    6.30
   0  -2  -5   35.40    3.40
   0  -2  -5   27.70    3.60
   0  -2   5   41.60    8.60
   0  -2   5   29.00    5.50
   0   2  -5   24.20    4.30
   0   2  -5   28.00    3.40
   0   2  -5   20.30    6.90
   0   2   5   51.29    7.80
   0   2   5   35.10    4.30
  -1  -2  -5   93.49   10.60
   1  -2   5   61.19    6.20
  -1  -2  -5   80.39    6.30
  -1  -2  -5   58.19    6.00
   1  -2   5   63.59    7.20
   1   2   5   54.39    6.20
  -1   2  -5   73.39    6.90
   1   2   5   71.09    5.90
   2  -2   5  180.48   19.70
  -2  -2  -5  158.38   14.50
  -2  -2  -5  132.39   11.20
   2   2   5  148.59   17.60
  -2   2  -5  146.09   16.80
  -2   2  -5  122.19   10.70
   2   2   5  105.39   10.70
   3  -2   5  552.04   37.50
   3  -2   5  490.65   45.20
  -3  -2  -5  486.75   39.40
   3   2   5  499.65   42.90
  -3   2  -5  520.75   42.30
  -3   2  -5  545.85   37.30
   3   2   5  564.34   37.70
   3   2   5  516.15   37.70
   4  -2   5   47.70   26.90
   4  -2   5  108.59   12.20
  -4  -2  -5   71.59   12.80
  -4   2  -5   63.69   18.20
   4   2   5   13.30   23.50
   5  -2   5   47.50   15.50
   5  -2   5   -1.70   43.60
  -5   2  -5   40.50   16.90
   5   2   5   77.39   13.80
  -5   2  -5   37.50   19.50
   5   2   5   42.60   12.40
   5   2   5  -21.00   32.90
   5  -3  -5   84.69   33.00
   5  -3  -5  106.69   20.30
   5  -3  -5   47.50   13.50
   5  -3  -5   36.00    8.70
   5   3  -5   54.79   10.60
   5   3  -5   50.49   11.90
   5   3  -5   43.90   13.70
   5   3  -5   40.10   14.80
   4  -3  -5   -8.80   12.80
   4  -3  -5  -10.70   19.20
   4  -3  -5   11.60   12.90
   4   3  -5    0.70    7.60
   4   3  -5    1.50    6.40
   4   3  -5    5.40    9.50
   4   3  -5    1.30    8.00
   3  -3  -5   34.70    8.60
   3  -3  -5   52.29    9.90
   3   3  -5   45.20    8.50
   3   3  -5   64.49    6.70
  -3   3   5   50.69    8.40
   3   3  -5   63.49    7.40
   3   3  -5   64.29    7.70
  -3   3   5   49.40    9.40
  -2  -3   5 1262.47   86.59
   2  -3  -5 1254.57   87.29
   2  -3  -5 1257.37   86.89
  -2  -3   5 1267.27   86.39
   2   3  -5 1270.97   85.69
  -2   3   5 1171.88   88.59
  -2   3   5 1251.87   85.49
   2   3  -5 1308.67   85.89
   2   3  -5 1246.38   86.69
   2   3  -5 1240.38   86.59
  -2   3   5 1159.28   86.89
  -1  -3   5   37.40    4.40
  -1  -3   5   46.60    5.70
   1  -3  -5   43.30    5.60
  -1  -3   5   40.80    7.20
   1  -3  -5   65.09    8.50
  -1  -3   5   38.50    4.00
  -1  -3   5   33.90    6.70
  -1   3   5   51.19    7.50
   1   3  -5   37.70    5.50
   1   3  -5   48.70    6.50
  -1   3   5   37.30    5.70
   1   3  -5   48.10    9.60
   1   3  -5   35.60    4.30
   0  -3   5  127.29    9.30
   0  -3   5  119.09   10.80
   0  -3  -5  133.59   13.10
   0  -3  -5  116.89    9.50
   0  -3   5  117.79   11.20
   0  -3   5  112.89   14.80
   0   3  -5  125.39   10.60
   0   3   5  122.09   13.20
   0   3  -5  111.39   14.70
   0   3   5  125.09   10.30
   1  -3   5  193.88   13.60
  -1  -3  -5  204.78   13.40
  -1  -3  -5  172.28   13.30
   1  -3   5  168.08   14.60
   1   3   5  154.18   13.50
  -1   3  -5  184.58   14.30
  -2  -3  -5  212.78   20.10
  -2  -3  -5  243.28   17.40
  -2  -3  -5  251.87   18.30
   2  -3   5  245.68   27.60
   2  -3   5  220.38   18.40
  -2   3  -5  248.18   18.40
   2   3   5  242.48   23.20
  -2   3  -5  276.07   24.40
   2   3   5  231.08   17.50
   2   3   5  233.08   17.90
  -3  -3  -5  671.23   47.80
   3  -3   5  650.53   56.49
   3  -3   5  647.04   46.40
  -3   3  -5  654.93   46.10
  -3   3  -5  609.64   51.89
   3   3   5  672.13   46.10
   3   3   5  641.44   51.09
   4  -3   5   36.60   26.40
  -4   3  -5   46.10   40.10
   4   3   5    8.80    8.40
   4   3   5   94.79   20.00
   5  -3   5   28.50   15.70
   5   3   5    1.40   12.20
   5   3   5   -1.20   11.20
   5  -4  -5   32.00   33.30
   5  -4  -5    0.60   13.80
   5  -4  -5   -8.00   19.90
   5   4  -5   21.00   11.50
   5   4  -5   20.90   11.90
   5   4  -5    4.70   10.00
   5   4  -5   10.60   16.30
   4  -4  -5   11.60   14.00
   4  -4  -5    0.40   13.40
   4   4  -5    5.30    7.20
   4   4  -5   14.30    7.10
  -4   4   5   13.90    8.50
   4   4  -5   -6.80   10.90
  -4   4   5   16.40    9.10
   4   4  -5    3.30    7.20
   3  -4  -5   39.70    9.90
   3  -4  -5   25.40    8.80
   3   4  -5   26.00    4.70
   3   4  -5   26.40    5.70
  -3   4   5   22.70   12.40
   3   4  -5   21.60    5.70
  -3   4   5   38.70    9.50
   3   4  -5   11.50    8.80
   3   4  -5   23.60    7.80
  -2  -4   5  180.18   14.40
  -2  -4   5  160.58   15.40
  -2  -4   5  172.08   13.60
   2  -4  -5  185.88   17.40
   2  -4  -5  181.48   15.80
  -2   4   5  163.88   16.50
  -2   4   5  162.98   21.60
   2   4  -5  191.68   13.40
   2   4  -5  194.48   13.10
   2   4  -5  166.18   15.70
   2   4  -5  150.98   18.60
   2   4  -5  185.08   15.10
  -1  -4   5   76.39    7.20
   1  -4  -5   76.09    8.80
  -1  -4   5   88.29    6.80
  -1  -4   5   88.09    9.20
   1  -4  -5   93.39   10.90
  -1  -4   5   83.39   11.00
   1   4  -5   76.49    9.30
  -1   4   5   73.59    9.10
  -1   4   5  109.69   12.00
   1   4  -5   65.09   12.20
   1   4  -5  105.69    9.30
   1   4  -5   81.69    6.80
   0  -4  -5 1223.48   83.79
   0  -4   5 1262.47   85.69
   0  -4   5 1177.28   82.79
   0  -4  -5 1165.18   82.09
   0  -4   5 1178.08   81.99
   0  -4   5 1164.28   82.89
   0   4  -5 1232.38   85.29
   0   4   5 1130.99   82.39
   0   4   5 1212.88   83.99
   0   4  -5 1182.48   82.69
   1  -4   5  127.39   16.40
   1  -4   5  104.69    9.10
  -1  -4  -5  125.99   13.20
   1  -4   5  106.09   11.30
  -1  -4  -5  105.09    8.70
  -1  -4  -5  107.79    9.80
  -1  -4  -5  107.29    9.10
  -1   4  -5  120.89   15.80
   1   4   5  126.19   14.40
  -1   4  -5  113.69   10.50
   1   4   5   98.59    9.20
  -2  -4  -5  131.19   14.80
   2  -4   5  149.59   21.90
   2  -4   5  108.69   12.30
  -2  -4  -5  100.69   11.00
  -2  -4  -5  118.89    9.80
   2   4   5  111.49   10.70
   2   4   5  154.28   19.00
   2   4   5  107.09   10.20
  -2   4  -5  170.38   19.70
  -2   4  -5  129.59   11.70
   3  -4   5  475.55   49.10
  -3  -4  -5  456.85   40.80
  -3  -4  -5  539.75   39.00
   3  -4   5  525.65   38.10
   3   4   5  546.35   37.60
   3   4   5  496.25   43.80
  -3   4  -5  514.65   37.80
   3   4   5  534.95   37.10
   4  -4   5   65.49   10.20
  -4  -4  -5   57.59    9.40
   4  -4   5   36.40   31.50
   4   4   5   53.09   11.10
  -4   4  -5  133.89   26.30
   4   4   5   71.69   10.10
   4   4   5   36.10   20.30
   5  -5  -5  -14.50   21.70
   5  -5  -5    1.00   15.90
   5   5  -5   -7.40   12.00
   5   5  -5   19.30   16.90
   5   5  -5   10.10   10.20
   5   5  -5    3.70   11.30
   4  -5  -5   15.30   14.10
   4  -5  -5   16.80   11.20
   4  -5  -5   16.80   16.80
   4   5  -5    9.00    7.50
   4   5  -5    3.30    8.20
  -4   5   5   -3.20   11.70
   4   5  -5   19.30    7.30
   4   5  -5   19.50   12.00
   3  -5  -5   33.10   11.50
  -3  -5   5   41.70    7.10
   3  -5  -5   46.90   13.20
   3   5  -5   29.40   12.10
   3   5  -5   50.89    6.70
  -3   5   5   33.70   10.50
   3   5  -5   51.09    5.80
  -3   5   5   22.80   16.10
   3   5  -5   42.10   10.00
   3   5  -5   30.20    7.80
   2  -5  -5   24.60    6.90
   2  -5  -5   14.60    7.20
  -2  -5   5   26.40    7.80
   2  -5  -5   30.10   10.00
  -2  -5   5   20.80    4.50
  -2  -5   5    6.10    7.10
  -2  -5   5    1.00    4.60
  -2   5   5   37.30    8.80
   2   5  -5   19.50    6.20
   2   5  -5   -5.30   11.50
   2   5  -5   15.00    6.10
   2   5  -5   13.60    2.70
  -2   5   5   34.60   14.00
   1  -5  -5  135.89   14.10
  -1  -5   5  118.49   11.40
   1  -5  -5  105.49   11.90
  -1  -5   5  110.79    9.00
  -1  -5   5  106.89   12.40
   1  -5  -5  118.39   11.10
  -1  -5   5  120.19    9.20
  -1   5   5  112.29   13.90
   1   5  -5  105.09   12.10
   1   5  -5  116.29   11.20
  -1   5   5  107.89   12.90
   1   5  -5  118.79   16.00
   0  -5   5   62.09    7.60
   0  -5   5   91.19   16.30
   0  -5  -5   60.29    6.80
   0  -5   5   64.39    6.10
   0  -5   5   57.39    8.40
   0  -5  -5   75.59   11.10
   0  -5  -5   75.39    8.00
   0   5  -5   91.39   15.50
   0   5   5   71.59    7.70
   0   5   5   63.89   10.50
   0   5  -5   73.39    7.90
  -1  -5  -5  114.49    9.20
  -1  -5  -5  111.69   14.90
   1  -5   5  116.29    9.50
   1  -5   5   94.99   17.30
  -1  -5  -5  104.79   11.10
   1  -5   5  110.89   12.20
  -1  -5  -5  114.59    9.80
   1  -5   5   84.49   11.60
  -1   5  -5  106.19   17.80
  -1   5  -5  118.29   11.60
   1   5   5  131.49   14.60
   1   5   5  114.59    9.80
  -2  -5  -5  112.09   10.80
   2  -5   5  132.89   13.50
  -2  -5  -5  108.49   11.50
   2  -5   5  118.69   21.30
  -2  -5  -5  119.79   13.80
   2   5   5   87.49   15.20
  -2   5  -5   88.29   20.30
   2   5   5  128.49   10.40
  -2   5  -5  118.99   12.90
  -3  -5  -5  306.37   24.70
  -3  -5  -5  353.76   25.80
   3  -5   5  272.67   25.80
  -3   5  -5  328.27   25.40
   3   5   5  289.87   24.30
   4  -5   5   66.09   34.60
   4  -5   5   14.40   10.70
  -4   5  -5   15.30   19.20
   4   5   5   17.60   23.80
  -4   5  -5   37.60   26.90
   4   5   5    9.20    8.00
   4   5   5   21.40   10.60
   5  -6  -5   53.69   19.60
   5  -6  -5   34.10   25.90
  -5   6   5   35.90   14.80
   5   6  -5   24.00   20.40
   5   6  -5   14.80   11.70
   5   6  -5   14.10   13.50
   5   6  -5   20.80   25.30
   5   6  -5    5.20   13.20
  -5   6   5   -1.70   16.20
   4  -6  -5   31.60   16.70
   4  -6  -5   56.89   20.50
   4  -6  -5   33.10   15.00
   4   6  -5   56.59   14.80
  -4   6   5   22.80   20.60
   4   6  -5   30.00    7.10
   4   6  -5   19.20    9.40
   4   6  -5   46.30   17.80
   4   6  -5   34.90    9.50
   4   6  -5   27.70    9.10
  -4   6   5   11.60   13.80
  -3  -6   5   53.49    8.60
   3  -6  -5   60.69   13.40
   3  -6  -5   49.50   10.90
   3  -6  -5   86.19   16.70
   3   6  -5   63.99   12.10
  -3   6   5   50.69   20.10
   3   6  -5   60.49    8.30
   3   6  -5   47.70    8.50
   3   6  -5   67.99    6.40
   3   6  -5   57.29   17.50
  -3   6   5   52.69   13.60
   2  -6  -5  153.98   14.50
   2  -6  -5   97.09   14.20
  -2  -6   5  123.69   11.40
  -2  -6   5  131.49   15.00
  -2  -6   5  110.09   13.10
   2  -6  -5  139.39   16.50
  -2  -6   5  122.69   11.10
   2   6  -5  128.19    9.20
   2   6  -5   97.39   17.50
   2   6  -5  133.39   21.80
   2   6  -5  117.49   13.40
  -2   6   5   96.09   15.00
  -2   6   5  100.19   20.80
   1  -6  -5   65.09   11.40
  -1  -6   5   38.90    7.70
   1  -6  -5   39.10    7.40
  -1  -6   5   38.30    4.50
  -1  -6   5   45.30    5.20
  -1  -6   5   37.60    7.70
   1  -6  -5   43.80    7.30
   1   6  -5   54.79    8.60
   1   6  -5   34.20   15.80
   1   6  -5   37.10    6.90
  -1   6   5   47.40   10.00
   0  -6  -5  934.21   64.99
   0  -6  -5  908.21   62.59
   0  -6   5  893.21   63.89
   0  -6   5  923.91   62.39
   0  -6   5  889.71   63.49
   0  -6  -5  907.71   63.49
   0  -6   5  896.91   68.79
   0   6   5  920.71   65.29
   0   6  -5  928.91   63.59
   0   6   5  871.01   63.29
   0   6  -5  818.72   67.79
  -1  -6  -5   12.60    3.50
  -1  -6  -5   14.50    9.40
   1  -6   5    3.80    5.30
   1  -6   5   19.20    6.50
   1  -6   5   33.70   18.90
   1  -6   5    8.00    4.00
  -1  -6  -5   -0.10    5.50
  -1  -6  -5    9.10    4.60
   1   6   5    4.10    9.80
  -1   6  -5   20.80   15.40
   1   6   5   13.40    5.10
  -1   6  -5   17.40    6.40
   2  -6   5   19.40    8.30
  -2  -6  -5   19.20    6.20
   2  -6   5   19.50   25.90
   2  -6   5   16.60    8.20
  -2  -6  -5    3.00    5.50
  -2  -6  -5    7.30   10.40
   2   6   5   17.50   12.90
  -2   6  -5    8.60    7.50
  -2   6  -5   -5.00   17.60
   2   6   5   19.70    5.50
  -3  -6  -5   98.49   12.10
  -3  -6  -5  116.69   14.00
   3  -6   5  114.79   14.00
   3  -6   5   62.49   30.30
  -3  -6  -5  101.69   11.00
  -3   6  -5  125.69   13.90
   3   6   5   89.59   22.60
  -3   6  -5   99.59   26.70
   3   6   5  107.39   11.30
   4  -6   5   82.19   41.50
   4  -6   5    5.10   17.10
  -4  -6  -5   42.20   14.20
  -4   6  -5   87.59   32.00
  -4   6  -5   60.59   21.80
   4   6   5   86.19   26.90
   4   6   5   56.49   12.80
   4  -7  -5   33.20   15.40
   4  -7  -5   41.60   18.10
   4   7  -5   11.80   10.10
   4   7  -5   14.30   10.20
   4   7  -5   -5.30   15.50
   4   7  -5    0.40   23.30
   4   7  -5   -4.20   12.30
  -4   7   5   12.80   17.00
   4   7  -5    9.40    4.60
   3  -7  -5  200.68   19.10
   3  -7  -5  190.68   23.10
   3  -7  -5  174.28   20.10
  -3  -7   5  141.39   16.40
   3   7  -5  156.68   24.30
  -3   7   5  150.48   19.10
   3   7  -5  142.09   16.10
  -3   7   5  113.99   28.30
  -2  -7   5  234.78   24.70
  -2  -7   5  274.27   22.40
   2  -7  -5  253.77   27.90
   2  -7  -5  266.37   23.60
   2  -7  -5  255.67   23.20
  -2  -7   5  262.27   20.10
  -2   7   5  236.88   26.00
  -2   7   5  237.68   31.10
   2   7  -5  270.47   21.80
   2   7  -5  279.87   30.70
   2   7  -5  235.88   22.20
   1  -7  -5   50.49   13.20
  -1  -7   5   43.10    5.00
  -1  -7   5   51.49    9.00
  -1  -7   5   45.30    6.10
   1  -7  -5   47.80    8.30
   1   7  -5   35.40   18.50
  -1   7   5   50.89   12.40
   1   7  -5   57.29   10.00
   1   7  -5   50.49    8.60
  -1   7   5   56.59    6.30
   0  -7   5  251.57   35.30
   0  -7   5  300.47   21.30
   0  -7  -5  297.17   21.80
   0  -7  -5  294.67   26.50
   0  -7  -5  321.47   24.00
   0  -7   5  309.97   23.50
   0   7  -5  291.17   35.40
   0   7   5  252.27   27.00
   0   7   5  277.77   23.90
   0   7  -5  310.07   24.10
   1  -7   5   33.20    7.60
   1  -7   5   28.90    5.10
  -1  -7  -5   30.70    4.70
   1  -7   5   49.90   23.10
  -1  -7  -5   21.10   10.30
   1  -7   5   30.90   10.40
  -1  -7  -5   36.30    7.20
  -1   7  -5   -8.70   19.80
   1   7   5   26.20    6.70
  -1   7  -5   34.00    7.90
   1   7   5   71.19   12.70
   2  -7   5   10.50    9.50
   2  -7   5   46.30   26.80
  -2  -7  -5   37.30    7.60
  -2  -7  -5   13.20    7.20
  -2  -7  -5   22.80   11.80
   2  -7   5   27.00    8.80
  -2   7  -5   22.10   20.90
  -2   7  -5   22.40    9.20
   2   7   5   16.60   18.80
   2   7   5   20.90    6.70
   3  -7   5   26.90   12.60
  -3  -7  -5   25.20   11.50
   3  -7   5   27.00   11.40
  -3  -7  -5   42.30   10.60
   3  -7   5   40.30   35.30
  -3  -7  -5   32.30    7.50
  -3   7  -5   47.90   13.00
   3   7   5   81.89   20.40
   3   7   5   22.60    7.10
  -3   7  -5   49.50   28.70
  -4  -7  -5    4.80   14.50
   4  -7   5   24.00   51.89
   4  -7   5   11.50   15.30
  -4   7  -5    5.80   36.30
  -4   7  -5   -3.60   23.70
   4   7   5   17.00   29.40
   4   7   5   -2.20    8.90
   4  -8  -5   22.40   19.80
   4  -8  -5   12.50   17.10
  -4  -8   5   30.90   13.10
  -4   8   5   -6.00   31.50
  -4   8   5    5.00   21.30
   4   8  -5  -10.60   14.40
   4   8  -5   17.00   17.20
   4   8  -5  -10.70   28.60
   4   8  -5    6.40   12.60
   3  -8  -5   71.79   21.30
   3  -8  -5  117.49   18.50
   3  -8  -5   89.59   15.60
  -3  -8   5  105.39   16.70
  -3  -8   5   91.49   12.00
   3   8  -5   75.79   12.40
  -3   8   5   27.40   31.80
   3   8  -5   60.19   14.10
   3   8  -5   53.29   27.30
  -3   8   5   92.99   19.70
   3   8  -5   92.39   14.90
   2  -8  -5   89.79   17.90
  -2  -8   5   43.80   11.80
   2  -8  -5   66.89   12.20
  -2  -8   5   71.39    8.90
   2  -8  -5   68.49   13.40
   2   8  -5   66.69   10.90
   2   8  -5   47.30   26.50
  -2   8   5  132.99   29.90
  -2   8   5   87.09   16.70
   2   8  -5   62.89   12.20
   1  -8  -5    9.30    9.30
  -1  -8   5   18.70    5.90
   1  -8  -5   37.90   15.20
  -1  -8   5   35.60    4.30
  -1  -8   5   19.90    9.10
   1  -8  -5   10.90    8.00
  -1   8   5   27.30    5.30
   1   8  -5   33.10   21.50
   1   8  -5   23.20    9.40
  -1   8   5   26.50   25.50
  -1   8   5   26.60   13.30
   1   8  -5   17.60    8.90
   0  -8   5   14.20   23.60
   0  -8   5    4.00    8.10
   0  -8  -5    9.10    4.80
   0  -8  -5   17.60   13.10
   0  -8   5    4.00    8.90
   0  -8   5    5.50    3.60
   0  -8  -5    6.70    8.10
   0   8  -5   16.20   22.80
   0   8  -5   15.10    8.80
   0   8   5   29.90   13.60
  -1  -8  -5   51.19    5.80
  -1  -8  -5   39.80    9.90
   1  -8   5   45.20   28.90
  -1  -8  -5   43.30    7.40
   1  -8   5   52.89    6.50
   1  -8   5   56.59    9.80
  -1  -8  -5   30.30   15.40
   1  -8   5   42.50   10.40
   1   8   5   25.70   14.90
  -1   8  -5    7.00   26.80
  -1   8  -5   33.10   10.80
   1   8   5   28.50    8.80
   2  -8   5   30.40   27.40
  -2  -8  -5   10.50    9.00
   2  -8   5   -4.00   11.30
  -2  -8  -5   -0.90    7.70
   2  -8   5    2.00    8.80
  -2  -8  -5    4.20   12.90
   2   8   5    6.60    7.20
  -2   8  -5    5.90   12.10
   2   8   5   21.20   17.30
  -2   8  -5  -33.00   24.80
   3  -8   5    6.10   13.60
   3  -8   5    8.10   38.30
   3  -8   5    4.40   10.60
  -3  -8  -5    8.80    9.80
  -3  -8  -5   -1.70   11.50
   3   8   5   23.50   23.10
  -3   8  -5    1.70   13.90
   3   8   5    2.50    8.30
  -3   8  -5   11.90   35.10
  -3   8  -5   24.70   20.80
  -3  -9   5   69.29   16.80
   3  -9  -5   70.69   18.10
   3  -9  -5   49.99   17.40
  -3  -9   5   92.99   13.90
  -3   9   5   62.39   21.60
   3   9  -5   64.69   15.60
  -3   9   5   32.50   36.60
   3   9  -5   73.89   36.60
   3   9  -5   58.59   16.60
   3   9  -5   78.79   14.30
  -2  -9   5    1.60    7.80
   2  -9  -5    9.30   12.10
  -2  -9   5  -12.60   11.70
   2  -9  -5   16.40   14.10
   2  -9  -5    6.60   17.30
   2   9  -5    1.80   11.90
   2   9  -5   -2.00   29.70
   2   9  -5   18.70   13.00
   2   9  -5   -9.10   10.40
  -2   9   5    8.40   32.60
  -2   9   5   29.70   17.10
  -1  -9   5   26.90    4.70
  -1  -9   5   32.80   11.30
   1  -9  -5   37.30   11.40
  -1  -9   5   32.50   11.90
   1  -9  -5   21.90   16.20
  -1  -9   5   37.80    7.20
   1  -9  -5   16.00    9.50
  -1   9   5   23.50   15.40
   1   9  -5   24.00   10.00
   1   9  -5   35.80   11.40
  -1   9   5   -5.60   31.80
  -1   9   5   16.70    6.60
   1   9  -5  -14.80   25.20
   0  -9  -5   11.20   10.20
   0  -9   5   12.30    9.70
   0  -9  -5   24.70   14.20
   0  -9   5   22.40   11.00
   0  -9   5    7.10    4.20
   0  -9  -5   12.90    5.70
   0   9   5   19.60    9.50
   0   9  -5    8.30   28.50
   0   9   5    9.90   15.00
   0   9  -5   32.90   10.30
   1  -9   5   73.69    8.90
   1  -9   5    5.60   30.80
   1  -9   5   58.09   14.30
  -1  -9  -5   76.19   13.40
  -1  -9  -5   92.89   18.30
  -1  -9  -5   70.59   10.00
  -1  -9  -5   83.99    8.50
   1  -9   5   85.69   12.30
  -1   9  -5   54.19   31.70
   1   9   5   76.29   17.90
  -1   9  -5   87.29   13.60
   1   9   5   87.29   12.30
   2  -9   5   25.20   14.00
  -2  -9  -5    3.40    9.10
  -2  -9  -5   23.40   11.50
   2  -9   5   14.90   10.60
   2  -9   5   31.50   39.40
  -2  -9  -5   -1.90   16.10
   2   9   5   25.10   20.40
  -2   9  -5   25.00   14.00
  -2   9  -5  -15.80   33.40
   2   9   5   13.00    8.70
   3  -9   5   21.10   23.60
   3  -9   5   -4.70   46.40
   3  -9   5   -8.80   15.70
  -3  -9  -5   15.70   14.20
  -3  -9  -5    2.30   11.90
   3   9   5  -24.20   26.20
  -3   9  -5    7.10   26.40
  -3   9  -5  -10.40   16.00
  -3   9  -5  -48.00   40.80
   3   9   5   -5.30   10.00
  -3 -10   5   19.20   13.80
   3 -10  -5   -8.80   19.00
  -3 -10   5    3.20   19.80
   3 -10  -5  -15.10   18.30
   3  10  -5   26.70   19.20
  -3  10   5    3.70   24.80
   3  10  -5  -19.40   20.40
   3  10  -5   33.50   43.20
   3  10  -5   11.70   13.80
  -3  10   5  -51.69   42.10
  -2 -10   5    6.90   14.30
   2 -10  -5   46.80   15.80
  -2 -10   5    5.80    9.00
   2 -10  -5  -18.50   13.00
  -2  10   5  -48.60   38.60
   2  10  -5   -0.40   15.30
  -2  10   5   31.00   20.90
   2  10  -5   14.70   38.10
   2  10  -5  -15.50   15.60
   2  10  -5   -2.30   11.90
  -1 -10   5  304.67   31.70
  -1 -10   5  293.47   30.20
   1 -10  -5  355.86   36.40
  -1 -10   5  321.47   25.90
   1 -10  -5  294.67   31.60
   1 -10  -5  337.57   26.90
  -1  10   5  279.77   47.40
  -1  10   5  322.87   25.30
   1  10  -5  358.16   47.70
   1  10  -5  339.57   29.20
   1  10  -5  305.97   32.20
   1  10  -5  280.37   31.80
  -1  10   5  381.36   35.70
   0 -10   5   12.90   13.00
   0 -10  -5   34.40   14.50
   0 -10  -5   33.50   19.90
   0 -10   5   28.90   12.00
   0 -10   5   39.50    5.90
   0 -10  -5   45.80    7.40
   0  10  -5   49.90   35.60
   0  10   5   49.10   11.30
   0  10  -5   26.00   12.40
   0  10   5   27.20   34.60
   0  10  -5   73.39   16.80
   0  10   5   34.60   19.30
   1 -10   5   48.00   40.50
   1 -10   5    4.30   13.40
  -1 -10  -5   18.10    5.10
   1 -10   5   21.40    6.70
   1 -10   5   39.60   11.60
  -1 -10  -5   -2.30   19.80
  -1 -10  -5    3.90   10.10
  -1 -10  -5   29.30   14.10
   1  10   5   21.10   20.90
  -1  10  -5   29.10   19.40
  -1  10  -5  -18.60   13.10
  -1  10  -5   26.60   35.10
   1  10   5    5.20   14.50
   2 -10   5    7.70   46.00
  -2 -10  -5   56.09   15.30
   2 -10   5   88.29   15.50
   2 -10   5   45.70   17.90
  -2 -10  -5   54.19   13.30
  -2  10  -5   69.19   18.90
   2  10   5   60.09   25.10
  -2  10  -5   74.29   25.40
  -2  10  -5   92.09   43.00
   2  10   5   65.39   18.80
  -2 -11   5   22.50   18.40
   2 -11  -5    7.70   15.90
   2 -11  -5   -5.10   20.30
  -2 -11   5  -11.20   11.60
  -2  11   5  -54.09   50.59
   2  11  -5   -7.80   19.20
  -2  11   5    7.80   25.80
   2  11  -5   16.70   17.10
   2  11  -5  -16.90   22.50
   2  11  -5   13.40   44.20
   1 -11  -5   64.89   18.30
   1 -11  -5   69.79   13.20
  -1 -11   5   80.29   18.20
  -1 -11   5   71.39   12.70
   1  11  -5   65.89   19.70
  -1  11   5  110.69   46.00
  -1  11   5   90.79   11.30
   1  11  -5   28.90   42.00
   1  11  -5   50.39   21.70
  -1  11   5   47.00   24.50
   1  11  -5   72.39   17.00
   0 -11   5   -2.90    5.90
   0 -11  -5  -11.10   16.30
   0 -11  -5   11.10    6.90
   0 -11   5   10.40   15.70
   0 -11  -5  -19.80   12.20
   0 -11   5   21.10   16.30
   0  11  -5   18.00   44.40
   0  11   5   17.90   24.10
   0  11  -5   -9.60   20.60
   0  11   5   -7.40   12.00
   0  11   5   50.99   47.40
   0  11  -5    6.20   14.20
  -1 -11  -5   37.30   13.40
   1 -11   5    2.30   17.60
   1 -11   5   30.60   15.80
  -1 -11  -5   31.80   17.10
   1 -11   5   36.80    9.70
   1  11   5   25.40   16.90
  -1  11  -5   74.69   45.10
   1  11   5    9.40   26.10
  -1  11  -5   69.19   18.80
  -1  11  -5   51.99   24.40
   5   0  -6    8.40   13.20
   5   0  -6   -0.70   21.80
   5   0  -6   10.10   12.60
   5   0  -6    0.90   11.60
   5   0  -6    7.20   11.60
   4   0  -6  294.37   25.90
   4   0  -6  303.67   24.30
   4   0  -6  304.07   24.50
   3   0  -6   21.60    7.90
   3   0  -6   23.00    6.50
   3   0  -6   24.70    6.00
   2   0  -6 1211.98   90.29
  -2   0   6 1289.77   89.69
  -2   0   6 1349.86   90.39
   2   0  -6 1341.57   89.89
  -1   0   6   -6.10    5.90
   1   0  -6    2.50    6.20
   1   0  -6    3.50    2.80
  -1   0   6    2.20    3.80
   0   0  -6  565.54   40.10
   0   0  -6  623.64   42.50
   0   0  -6  573.84   39.60
   0   0   6  574.74   42.20
   0   0   6  551.74   40.10
  -1   0  -6   51.69   10.10
   1   0   6   51.19    5.00
   1   0   6   41.70   10.00
  -1   0  -6   62.49    6.20
   1   0   6   57.99    5.80
  -2   0  -6  392.76   30.10
   2   0   6  322.87   25.60
   2   0   6  392.86   31.50
   3   0   6  113.39   19.80
   3   0   6  101.59   11.10
   3   0   6   91.09   11.00
   4   0   6  -31.10   19.60
  -4   0  -6   10.20   16.70
   4   0   6    6.50    8.70
   4   0   6   27.80    9.40
   5  -1  -6  -20.30   14.30
   5  -1  -6    7.50   14.00
   5  -1  -6    6.70   24.00
   5  -1  -6   -0.80   10.30
   5   1  -6   -0.50   13.00
   5   1  -6   -7.70   10.90
   5   1  -6    3.60   19.20
   5   1  -6   20.70   12.60
   5   1  -6  -13.90    9.60
   5   1  -6   -2.80   11.80
   4  -1  -6  239.68   20.80
   4   1  -6  185.08   18.60
   4   1  -6  245.78   20.00
   4   1  -6  214.78   22.10
   4   1  -6  215.38   18.20
   3  -1  -6   26.50    7.50
   3  -1  -6   34.70    5.70
  -3  -1   6   45.40    7.10
   3  -1  -6   28.70    7.30
   3   1  -6   21.30    5.10
   3   1  -6   34.40    6.70
   3   1  -6   19.60    6.80
   3   1  -6   32.00    6.90
  -2  -1   6  894.11   62.49
   2  -1  -6  869.51   63.19
   2  -1  -6  951.40   62.69
  -2  -1   6  966.00   62.99
   2   1  -6  783.52   62.89
  -2   1   6  923.61   63.29
   2   1  -6  999.00   62.39
   2   1  -6  848.82   62.69
  -2   1   6  850.91   63.29
   2   1  -6  872.61   61.79
  -2   1   6  897.71   62.09
   1  -1  -6 1664.93  110.09
  -1  -1   6 1581.04  109.29
   1   1  -6 1510.85  108.29
   0  -1  -6    1.10    1.40
   0  -1  -6    6.40    7.20
   0  -1   6    3.50    2.50
   0  -1   6   -7.40    6.90
   0  -1  -6    1.80    2.10
   0   1  -6   -2.20    2.50
   0   1   6    1.90    6.90
   0   1  -6    1.40    7.00
   0   1   6   -1.40    2.60
   0   1  -6    0.40    3.80
   1  -1   6  182.68   12.70
   1  -1   6  128.59   17.50
   1  -1   6  171.48   12.00
  -1  -1  -6  168.28   12.50
  -1  -1  -6  147.99   12.30
  -1  -1  -6  126.69   16.80
  -1   1  -6  175.28   13.00
   1   1   6  178.38   12.60
  -1   1  -6  134.89   17.50
   1   1   6  171.98   12.10
   1   1   6  150.28   17.50
   2  -1   6    8.00    3.90
  -2  -1  -6    8.80    3.30
   2  -1   6   -0.90   10.30
   2  -1   6    4.30    3.80
  -2  -1  -6   10.20    8.80
   2   1   6   -3.10    8.90
  -2   1  -6    9.20    3.80
  -2   1  -6    3.50   10.20
   2   1   6   10.80    4.00
   2   1   6   17.10    3.80
  -3  -1  -6   22.70   11.70
   3  -1   6   31.20    7.00
   3  -1   6   46.40    7.60
   3  -1   6   24.10   16.10
  -3   1  -6   18.30   13.90
   3   1   6   29.80    6.20
  -3   1  -6   29.10    4.30
   3   1   6   19.80    6.60
   3   1   6   35.80   17.40
   4  -1   6    4.00   25.90
   4  -1   6   18.10    9.70
  -4  -1  -6  -10.60   12.50
   4  -1   6   11.20    9.20
   4   1   6   32.70   25.40
  -4   1  -6   -8.40   17.20
   4   1   6    6.20    8.40
   4   1   6    4.30    8.40
   5  -2  -6   24.40   17.30
   5  -2  -6   45.80   17.40
   5  -2  -6   36.90   10.50
   5   2  -6   26.70   14.20
   5   2  -6   18.80   11.70
   5   2  -6   30.80   15.90
   5   2  -6   13.20    8.00
   5   2  -6   14.30   12.50
   5   2  -6   45.90   11.30
   4  -2  -6  262.47   19.90
   4  -2  -6  229.88   23.10
   4   2  -6  257.97   22.20
   4   2  -6  222.28   20.40
   3  -2  -6   -0.60    7.80
   3  -2  -6   17.40    7.90
  -3  -2   6    0.00    6.20
   3   2  -6    3.20    6.40
   3   2  -6    4.00    4.60
   3   2  -6   12.10    6.90
   3   2  -6    0.50    6.90
   3   2  -6    1.60    5.50
   2  -2  -6  686.73   45.90
  -2  -2   6  680.03   45.60
   2  -2  -6  629.64   46.50
  -2  -2   6  644.34   45.50
  -2   2   6  650.73   47.80
   2   2  -6  593.44   45.60
   2   2  -6  693.23   46.10
  -2   2   6  557.34   45.90
  -2   2   6  631.44   44.70
   2   2  -6  647.34   44.50
   2   2  -6  563.44   46.00
   2   2  -6  725.23   45.10
  -2   2   6  653.63   46.50
   1  -2  -6  141.49   15.50
  -1  -2   6  176.68   13.10
  -1  -2   6  190.68   13.90
   1  -2  -6  167.18   13.40
  -1  -2   6  193.08   16.00
  -1   2   6  146.99   16.30
   1   2  -6  172.18   12.70
   1   2  -6  182.98   14.20
   1   2  -6  200.68   16.50
  -1   2   6  141.79   13.90
   0  -2   6   39.50   10.50
   0  -2   6   49.10    4.90
   0  -2  -6   40.40    4.20
   0  -2  -6   56.49    9.40
   0  -2  -6   48.20    4.90
   0   2  -6   38.70    5.50
   0   2  -6   50.29   10.60
   0   2   6   53.39    5.70
   0   2   6   46.30    8.90
   0   2  -6   37.90    4.80
  -1  -2  -6   58.59    5.90
  -1  -2  -6   87.69   11.00
   1  -2   6   63.49    6.40
  -1  -2  -6   44.60    5.80
   1  -2   6   84.29   11.90
   1   2   6   55.79    5.70
  -1   2  -6   53.29    6.30
   1   2   6   50.89    6.00
   2  -2   6   97.69   15.40
  -2  -2  -6  114.49   14.10
  -2  -2  -6  100.29    9.60
   2  -2   6   86.09    9.20
   2   2   6   89.49    8.70
   2   2   6  112.89   15.40
  -2   2  -6  126.69   15.10
   2   2   6   72.79    8.90
  -2   2  -6  104.09    9.30
  -3  -2  -6  177.28   20.30
   3  -2   6  146.49   31.90
  -3   2  -6  232.28   26.30
   3   2   6  223.28   25.40
  -3   2  -6  176.38   15.20
  -4  -2  -6   50.29   14.30
   4  -2   6   34.30   11.70
   4  -2   6   23.90   27.20
   4   2   6   28.30    8.80
  -4   2  -6   25.00   20.50
   4   2   6   23.10   22.90
   4   2   6   33.70    9.70
   5  -3  -6   47.70   21.60
   5  -3  -6   35.20   16.60
   5   3  -6   44.80   12.20
   5   3  -6   35.40   11.70
   5   3  -6   49.80   18.70
   5   3  -6   49.20   16.40
   4  -3  -6  311.47   26.50
   4   3  -6  256.07   21.80
   4   3  -6  238.98   21.70
   3  -3  -6   50.59   10.40
   3  -3  -6   53.29   11.20
  -3  -3   6   44.00    8.80
   3   3  -6   45.50    8.90
   3   3  -6   45.80    6.80
   3   3  -6   37.60    8.90
  -3   3   6   59.69    9.20
   3   3  -6   37.00    7.40
  -3   3   6   69.39   10.60
   3   3  -6   42.90    6.00
  -2  -3   6  990.20   67.59
   2  -3  -6  958.40   68.89
   2  -3  -6 1062.99   67.99
  -2  -3   6  957.00   67.79
  -2   3   6  886.01   68.49
  -2   3   6  969.90   68.89
   2   3  -6 1007.20   66.89
  -2   3   6  926.21   70.49
   2   3  -6  926.81   67.99
   2   3  -6  976.10   66.69
  -2   3   6  971.50   66.69
   2   3  -6  963.60   67.89
  -1  -3   6  363.86   32.00
  -1  -3   6  459.35   29.50
   1  -3  -6  448.86   29.80
  -1  -3   6  395.46   30.10
   1  -3  -6  383.26   31.50
  -1  -3   6  402.46   28.80
   1   3  -6  426.96   29.10
  -1   3   6  419.46   30.50
   1   3  -6  419.46   30.30
  -1   3   6  410.06   32.10
   0  -3   6   74.19    8.40
   0  -3   6   88.49   13.20
   0  -3  -6   60.09    6.00
   0  -3  -6   70.99    6.30
   0  -3   6   62.39    8.20
   0  -3   6   56.19    6.00
   0  -3  -6   55.89    8.70
   0   3  -6   64.39    6.20
   0   3  -6   76.79    7.40
   0   3   6   68.89   10.40
   0   3   6   56.69    7.20
   0   3  -6   55.39   12.10
   1  -3   6   48.50    5.50
  -1  -3  -6   45.20    5.40
  -1  -3  -6   48.20    5.60
   1  -3   6   47.50    7.50
   1  -3   6   29.20   12.60
  -1  -3  -6   32.00    8.80
  -1   3  -6   68.59   13.20
   1   3   6   50.79    5.40
  -1   3  -6   51.99    6.20
   1   3   6   40.20   10.90
   2  -3   6  205.88   17.10
  -2  -3  -6  178.48   15.80
   2  -3   6  189.18   24.00
  -2  -3  -6  182.88   20.00
   2  -3   6  209.38   15.90
  -2  -3  -6  206.78   15.00
  -2   3  -6  175.38   23.50
   2   3   6  204.38   15.30
   2   3   6  169.08   22.50
   2   3   6  216.48   15.50
  -2   3  -6  199.88   16.10
  -3  -3  -6  108.69   15.80
  -3   3  -6  176.08   21.60
  -3   3  -6  121.59   12.60
   4  -3   6   10.10   10.70
  -4  -3  -6  -11.60   13.00
   4  -3   6   -7.00   30.70
   4   3   6    5.20   20.10
  -4   3  -6   42.70   21.70
   4   3   6  -14.20    7.80
   4   3   6    4.10    8.80
   5  -4  -6   51.49   18.10
   5  -4  -6   74.19   23.70
   5  -4  -6   44.80   16.80
   5   4  -6   70.59   18.70
   5   4  -6   61.69   12.00
   5   4  -6   39.40   12.10
   5   4  -6   49.90   13.10
   4  -4  -6   19.60   11.40
   4  -4  -6   25.70   15.90
   4   4  -6   23.80    7.50
   4   4  -6   -2.60    7.80
   4   4  -6   11.00    8.20
  -4   4   6   37.60    8.60
   4   4  -6   48.60   12.10
   3  -4  -6  106.19   13.70
   3  -4  -6  168.08   18.20
   3   4  -6  113.39   11.10
  -3   4   6  135.19   15.30
  -3   4   6  122.49   17.40
   3   4  -6  124.09   13.50
   3   4  -6  137.69   14.80
   3   4  -6  112.69   10.90
  -2  -4   6    8.00    5.60
  -2  -4   6   11.20    4.80
   2  -4  -6    4.50    9.00
  -2  -4   6   13.30    3.80
   2  -4  -6   19.30    7.00
  -2   4   6    1.40    7.90
   2   4  -6   14.00    3.20
  -2   4   6   17.70   12.80
  -2   4   6   14.20    8.30
   2   4  -6   10.10    9.90
  -2   4   6   12.30    2.80
   2   4  -6   12.10    7.00
   2   4  -6    5.90    3.50
   2   4  -6    8.10    5.30
  -1  -4   6  134.49   14.20
  -1  -4   6  141.59   11.20
  -1  -4   6  137.19   12.90
  -1  -4   6  150.78   10.50
   1  -4  -6  151.88   16.20
  -1  -4   6  142.09   15.80
   1  -4  -6  133.79   12.00
   1   4  -6  138.29   13.20
  -1   4   6  144.29   15.20
   1   4  -6  156.98   17.30
  -1   4   6  123.19   13.50
   1   4  -6  138.69   10.70
   0  -4   6  110.79   11.60
   0  -4  -6  121.69   15.00
   0  -4   6  107.19   12.20
   0  -4   6  115.69    9.40
   0  -4   6  143.99   17.90
   0  -4  -6  119.89    9.70
   0   4  -6  135.49   16.10
   0   4  -6  115.39   11.40
   0   4   6  113.39   14.60
   0   4   6  115.69   11.10
   1  -4   6  121.89   13.60
  -1  -4  -6  131.79   10.90
   1  -4   6  163.38   19.60
  -1  -4  -6  151.48   15.90
   1  -4   6  139.39   11.00
  -1  -4  -6  139.89   11.20
   1   4   6  133.29   17.70
  -1   4  -6  135.09   17.80
   1   4   6  134.09   11.40
  -1   4  -6  126.79   12.60
  -2  -4  -6   44.40    7.40
   2  -4   6   52.59    7.20
   2  -4   6   54.39    7.90
  -2  -4  -6   34.70   11.80
  -2  -4  -6   35.20    5.80
   2  -4   6   38.00   17.90
  -2   4  -6   41.80    7.60
  -2   4  -6   46.80   15.90
   2   4   6   46.60    6.20
   2   4   6   69.59   14.10
   2   4   6   47.00    6.00
   3  -4   6  117.99   25.80
  -3  -4  -6  124.39   14.40
  -3  -4  -6  126.69   17.20
   3  -4   6  145.59   16.00
   3   4   6  145.29   13.30
  -3   4  -6  157.48   14.50
  -3   4  -6  127.29   22.10
   3   4   6  135.79   13.80
   4  -4   6   29.20   11.40
  -4  -4  -6   39.70   12.40
   4  -4   6   67.19   33.10
   4   4   6  -24.10   23.40
   4   4   6   24.00   10.50
  -4   4  -6   45.80   25.30
   4   4   6   22.50    9.20
   5  -5  -6  167.28   26.40
   5  -5  -6   65.99   18.90
   5   5  -6   90.79   20.50
   5   5  -6  106.69   15.70
   5   5  -6   86.69   13.50
   5   5  -6  109.39   14.90
   4  -5  -6   -4.90   14.20
   4  -5  -6   -4.70   17.40
   4  -5  -6    5.60   12.60
   4   5  -6   12.10    9.30
   4   5  -6    2.80   14.20
  -4   5   6   32.90   16.80
   4   5  -6   -1.10    6.70
  -4   5   6   10.50   13.60
   4   5  -6    6.90   11.90
   4   5  -6   19.60    8.10
   3  -5  -6  235.48   23.20
  -3   5   6  222.68   21.80
  -3   5   6  238.38   29.00
   3   5  -6  171.88   15.30
   3   5  -6  204.98   19.80
   3   5  -6  203.48   16.00
   3   5  -6  196.78   18.60
   2  -5  -6   82.09   12.60
   2  -5  -6   61.29   10.10
  -2  -5   6   36.10   11.10
  -2  -5   6   65.69    9.60
  -2  -5   6   73.99    7.80
   2   5  -6   56.89    9.00
   2   5  -6   63.69    6.30
  -2   5   6   88.09   12.20
   2   5  -6   70.89    9.70
  -2   5   6   70.99   17.10
   2   5  -6   50.09   13.80
   1  -5  -6   94.49   12.40
  -1  -5   6   84.29   10.50
  -1  -5   6   64.29   14.10
  -1  -5   6   65.19   10.20
  -1  -5   6   89.69    7.00
  -1  -5   6   70.69    7.70
   1  -5  -6   74.59    8.50
   1   5  -6  103.79   15.40
   1   5  -6   90.09    9.50
  -1   5   6   83.89   11.50
  -1   5   6  105.49   11.10
   1   5  -6   72.79    7.20
   1   5  -6  104.19   10.90
   0  -5   6   43.10    7.90
   0  -5  -6   52.89    7.80
   0  -5  -6   52.49   10.70
   0  -5   6   43.40    6.90
   0  -5   6   43.90    5.00
   0  -5   6   36.30   15.10
   0  -5  -6   47.70    5.50
   0   5   6   52.69    7.10
   0   5  -6   47.90   16.80
   0   5  -6   46.40    6.90
   0   5   6   51.29   11.50
  -1  -5  -6   36.40    5.10
   1  -5   6   14.80   16.70
  -1  -5  -6   46.50    6.70
  -1  -5  -6   25.20   11.00
  -1  -5  -6   30.10    4.60
   1  -5   6   33.50    4.60
   1  -5   6   27.60    7.50
   1  -5   6   30.20    7.40
   1   5   6   36.70    5.90
  -1   5  -6   17.50   14.70
   1   5   6   34.50   11.60
  -1   5  -6   24.80    6.90
  -2  -5  -6  846.12   57.99
   2  -5   6  761.62   59.19
  -2  -5  -6  844.32   58.39
  -2  -5  -6  816.12   60.29
   2  -5   6  912.31   59.49
   2  -5   6  824.32   83.39
   2   5   6  763.32   62.59
   2   5   6  914.11   58.09
  -2   5  -6  846.62   58.89
  -2   5  -6  696.43   64.49
  -3  -5  -6   75.39   14.40
  -3  -5  -6   79.89   10.90
   3  -5   6  106.49   11.90
  -3  -5  -6   76.19    8.50
   3  -5   6   25.20   27.40
   3   5   6   83.19   10.50
  -3   5  -6   82.99   11.60
   3   5   6   65.89   20.90
   3   5   6  101.79    9.70
  -3   5  -6   48.60   23.00
  -4  -5  -6   24.40   11.80
   4  -5   6   53.99   12.80
   4  -5   6   -2.50   36.10
   4   5   6   47.20    9.90
   4   5   6   34.30   11.40
  -4   5  -6   49.40   28.90
   4   5   6   18.70   25.90
   5  -6  -6    4.10   24.70
   5  -6  -6   17.90   20.20
   5   6  -6    1.00   20.60
   5   6  -6    1.40   14.70
   5   6  -6   -4.00    9.90
  -5   6   6  -15.70   13.30
   5   6  -6  -12.50   13.40
   4  -6  -6   41.10   14.20
   4  -6  -6   -6.90   19.60
   4  -6  -6   -5.20   15.50
   4   6  -6    0.50   10.30
  -4   6   6    3.20   13.90
   4   6  -6    2.70    8.60
   4   6  -6   -1.60   13.70
   4   6  -6    5.40   18.80
  -4   6   6   66.99   23.80
   4   6  -6    0.20    6.00
   3  -6  -6  394.46   31.40
   3  -6  -6  322.27   31.70
   3  -6  -6  418.86   34.90
  -3  -6   6  374.76   28.20
   3   6  -6  316.37   26.30
   3   6  -6  366.16   30.60
  -3   6   6  430.96   32.30
  -3   6   6  481.65   42.10
   3   6  -6  366.76   29.50
  -2  -6   6   17.70    7.80
   2  -6  -6    4.20   13.90
  -2  -6   6    3.60    4.50
  -2  -6   6   -1.70    4.70
   2  -6  -6    4.20    8.00
   2  -6  -6   -2.60    8.00
   2   6  -6   12.00    7.70
   2   6  -6    5.20    3.20
  -2   6   6   16.30   17.60
  -2   6   6    8.10   11.70
   2   6  -6   12.30    6.50
   2   6  -6    8.90   15.20
  -1  -6   6    7.80    3.50
   1  -6  -6   -0.10    7.30
   1  -6  -6   -0.10   13.00
  -1  -6   6    8.60    7.50
   1  -6  -6    5.20    5.20
  -1  -6   6    6.70    6.00
  -1  -6   6    6.90    3.60
   1   6  -6   -0.50    6.00
  -1   6   6   12.90   10.00
   1   6  -6   13.10    8.40
  -1   6   6   12.50    8.60
   1   6  -6   19.20   16.00
   0  -6   6   11.90    7.00
   0  -6   6    8.50    3.30
   0  -6  -6    9.00    4.20
   0  -6   6   26.10   16.30
   0  -6  -6   10.70    6.50
   0  -6  -6   13.70   10.60
   0  -6   6    1.10    6.00
   0   6  -6   -6.00   16.40
   0   6   6    6.60    6.80
   0   6   6    7.70    9.90
   0   6  -6   10.00    6.10
  -1  -6  -6   67.29    6.70
   1  -6   6   56.69   21.80
   1  -6   6   66.49    9.90
  -1  -6  -6   67.79    7.50
  -1  -6  -6   36.50    8.00
   1  -6   6   51.99    8.80
  -1  -6  -6   56.49   12.00
   1  -6   6   65.99    7.00
  -1   6  -6   61.19    9.10
   1   6   6   36.40   13.70
   1   6   6   58.59    8.20
  -1   6  -6   21.60   18.30
   2  -6   6  344.47   30.20
   2  -6   6  416.16   28.70
   2  -6   6  437.36   30.80
  -2  -6  -6  395.26   28.60
   2  -6   6  307.67   40.50
  -2  -6  -6  353.46   32.20
  -2   6  -6  365.16   29.60
  -2   6  -6  282.37   39.50
   2   6   6  418.36   28.50
  -3  -6  -6   37.50   13.50
  -3  -6  -6   67.59    7.60
  -3  -6  -6   46.90   11.00
   3  -6   6   67.49   30.70
   3   6   6   55.79   21.00
  -3   6  -6   37.90   11.40
  -3   6  -6   63.49   29.40
   3   6   6   59.99    8.90
  -4  -6  -6   54.59   12.10
   4  -6   6   84.49   49.30
   4  -6   6   90.29   25.20
   4   6   6   56.59   10.20
   4   6   6   50.19   14.20
  -4   6  -6   61.19   24.80
  -4   6  -6   70.99   32.40
  -4   6  -6   88.89   14.90
   4   6   6   66.49   32.00
   4  -7  -6  -13.70   14.90
   4  -7  -6   20.70   22.80
   4  -7  -6   -8.60   16.90
   4   7  -6   42.00   25.10
   4   7  -6  -10.30   11.10
   4   7  -6    3.70    4.90
  -4   7   6   42.00   17.60
   4   7  -6    8.50   15.30
   3  -7  -6  161.78   24.70
   3   7  -6  203.48   22.00
  -3   7   6  197.28   32.70
  -2  -7   6   94.19   14.00
   2  -7  -6   80.79   12.20
   2  -7  -6  106.19   17.00
  -2  -7   6   82.49   10.40
  -2  -7   6  122.59   14.60
  -2  -7   6  106.59   10.20
   2  -7  -6   98.59   13.50
   2   7  -6   84.79   22.10
  -2   7   6   99.29   24.60
   2   7  -6   98.19   14.20
  -2   7   6   75.29   15.30
   2   7  -6  108.49   14.90
  -1  -7   6    8.60    4.50
  -1  -7   6   10.60    8.30
   1  -7  -6   25.50    8.50
  -1  -7   6    1.40    7.80
   1  -7  -6    2.90    6.40
   1  -7  -6    7.70   11.50
  -1  -7   6   11.50    3.90
   1   7  -6    3.70   19.80
   1   7  -6   34.70    9.40
   1   7  -6   16.30    8.80
  -1   7   6   17.90   12.80
   0  -7  -6   -2.70    4.50
   0  -7   6   -1.90    3.10
   0  -7   6   -7.20    8.00
   0  -7  -6    4.70   12.30
   0  -7   6   -7.60    7.10
   0  -7   6    1.50   19.00
   0  -7  -6    7.80    8.00
   0   7  -6    6.20   38.20
   0   7  -6    4.40    7.00
   0   7   6  -15.10    7.80
   0   7   6   11.60   13.40
   1  -7   6   18.40    8.70
   1  -7   6    7.00    9.00
   1  -7   6   23.80    5.10
  -1  -7  -6   20.60    7.90
   1  -7   6   11.10   22.30
  -1  -7  -6   13.30    6.90
  -1  -7  -6   19.70    5.10
  -1  -7  -6   17.90   21.20
  -1   7  -6   -3.70   21.50
   1   7   6    2.90   13.10
   1   7   6   19.70    7.40
  -1   7  -6   20.70   10.30
   2  -7   6  184.28   20.70
   2  -7   6  178.38   18.20
   2  -7   6  184.48   16.20
  -2  -7  -6  157.08   16.70
  -2  -7  -6  179.28   16.30
   2  -7   6  160.08   33.50
  -2  -7  -6  187.88   22.70
   2   7   6  114.79   20.50
   2   7   6  175.78   15.90
  -2   7  -6  115.39   28.40
  -2   7  -6  162.28   18.60
  -3  -7  -6   -3.70   14.90
   3  -7   6    0.00   11.90
  -3  -7  -6   -9.30    8.10
   3  -7   6  -11.00   38.40
  -3  -7  -6    8.40   10.90
   3  -7   6    1.70   12.70
  -3   7  -6    4.40   12.50
   3   7   6   24.20    8.50
  -3   7  -6  -29.50   31.50
   3   7   6  -25.10   23.20
   4  -8  -6   15.80   20.20
   4  -8  -6   21.30   23.20
   4   8  -6    9.70   15.50
   4   8  -6    4.40   13.30
   4   8  -6    1.10   32.80
  -4   8   6   51.59   34.90
  -4   8   6   54.99   22.60
   4   8  -6   36.20   17.80
   3  -8  -6   28.80   15.40
   3  -8  -6   60.89   20.70
   3  -8  -6   43.90   15.00
  -3  -8   6   30.00   15.60
  -3  -8   6   30.90   10.00
   3   8  -6   48.70   29.20
   3   8  -6   29.90   10.90
  -3   8   6   80.59   36.30
   3   8  -6   36.80   15.10
  -2  -8   6   29.30   12.10
   2  -8  -6   14.40   12.50
   2  -8  -6   45.50   18.70
  -2  -8   6   16.90   11.70
  -2  -8   6   20.60    7.10
   2   8  -6   28.20   23.40
   2   8  -6   25.40    9.30
  -2   8   6   30.50   15.90
   2   8  -6   29.00   12.20
  -2   8   6   25.40   26.70
   1  -8  -6   22.00    7.90
   1  -8  -6   19.90   10.10
  -1  -8   6   31.30    5.20
   1  -8  -6   44.90   14.40
  -1  -8   6   43.10    9.30
  -1  -8   6   31.80    6.30
  -1  -8   6   30.40   10.70
  -1   8   6   39.20   14.90
   1   8  -6   29.60   11.90
   1   8  -6   53.69   26.20
  -1   8   6   52.89   28.10
   1   8  -6   38.90    9.60
  -1   8   6   26.50    6.80
   0  -8  -6  108.69   17.80
   0  -8  -6   92.09   10.70
   0  -8  -6  103.19   12.80
   0  -8   6  102.39   25.80
   0  -8   6   82.59   13.50
   0  -8   6   98.09    9.30
   0   8   6  103.59   14.50
   0   8  -6  111.79   13.20
   0   8   6   93.49   17.30
   0   8  -6   94.69   26.00
   1  -8   6   86.19   10.60
   1  -8   6  142.99   31.00
  -1  -8  -6   86.89   10.00
   1  -8   6  104.39   12.30
  -1  -8  -6   88.89   10.90
   1  -8   6  103.59   14.50
  -1  -8  -6  110.39   17.30
  -1  -8  -6  110.69   14.20
  -1   8  -6  115.59   13.40
  -1   8  -6  187.98   29.70
  -2  -8  -6   56.79   11.70
   2  -8   6   47.40   14.00
   2  -8   6   32.50   33.80
  -2  -8  -6   46.90    9.70
  -2  -8  -6   43.20   16.90
   2  -8   6   43.70    9.20
  -2   8  -6   38.80   11.90
   2   8   6   46.10    9.30
   2   8   6   50.99   20.60
  -2   8  -6   52.09   28.10
  -3  -8  -6   32.70   13.40
  -3  -8  -6  -17.80   15.40
  -3  -8  -6   17.90   10.00
   3  -8   6   81.89   47.10
   3  -8   6   20.80   13.40
   3  -8   6   16.30   14.90
  -3   8  -6   61.39   37.50
   3   8   6   -9.60   27.00
  -3   8  -6    8.00   15.40
   3   8   6   18.10    9.40
   3  -9  -6    3.80   24.00
  -3  -9   6    8.70   11.60
   3  -9  -6   17.60   16.30
   3  -9  -6   -7.30   15.80
  -3  -9   6   -3.70   17.70
   3   9  -6    6.30   14.60
   3   9  -6   14.40   16.10
  -3   9   6   18.10   21.60
   3   9  -6  -20.80   12.00
  -3   9   6  -11.30   39.10
   2  -9  -6   55.49   20.00
   2  -9  -6   17.10   12.80
  -2  -9   6   25.70   14.10
   2  -9  -6   15.40   13.20
  -2   9   6   45.50   19.50
  -2   9   6   56.09   32.70
   2   9  -6    4.80   10.40
   2   9  -6   29.70   14.70
   2   9  -6    6.00   29.30
  -1  -9   6   35.10   11.50
   1  -9  -6   36.40    9.90
  -1  -9   6   60.69   13.20
  -1  -9   6   28.00    5.60
   1  -9  -6   42.00   18.20
  -1  -9   6   37.40    8.00
   1  -9  -6   37.10   13.10
  -1   9   6   63.39   32.60
   1   9  -6   59.89   14.50
  -1   9   6   65.09   18.40
  -1   9   6   43.40    7.90
   1   9  -6   31.80   11.20
   1   9  -6   34.80   30.60
   0  -9   6  158.08   17.80
   0  -9   6  153.68   13.50
   0  -9   6  186.98   17.90
   0  -9  -6  183.38   18.10
   0  -9  -6  143.69   14.40
   0  -9  -6  171.38   24.50
   0   9  -6  185.88   19.80
   0   9   6  148.79   22.70
   0   9  -6  129.49   33.00
  -1  -9  -6   29.40   19.80
   1  -9   6   30.00    6.70
  -1  -9  -6   19.20    8.40
   1  -9   6   -6.00   33.80
  -1  -9  -6    9.60   11.70
   1  -9   6    0.10    9.80
  -1  -9  -6   27.90    5.90
   1  -9   6   33.10   13.90
   1   9   6   38.90   11.80
   1   9   6   43.80   19.10
  -1   9  -6   24.50   11.90
  -1   9  -6   16.40   31.70
   2  -9   6    9.40    8.90
  -2  -9  -6  -22.90   17.10
   2  -9   6   11.90   40.00
  -2  -9  -6   -1.40   12.40
   2  -9   6   -0.30   11.20
  -2  -9  -6    0.70    9.50
   2  -9   6   -5.40   14.60
   2   9   6   10.00   25.10
  -2   9  -6   61.29   32.60
  -2   9  -6   -0.70   14.80
   2   9   6    6.40   10.30
   3 -10  -6  -20.30   20.00
  -3 -10   6    8.20   13.60
  -3 -10   6    8.80   22.20
   3  10  -6  -10.90   16.00
   2 -10  -6   38.60   14.50
   2 -10  -6   25.00   25.70
  -2 -10   6   42.20   17.00
   2 -10  -6   50.19   16.30
  -2 -10   6   47.50   11.00
   2  10  -6   39.00   14.20
   2  10  -6   28.60   17.50
   2  10  -6   41.60   38.10
   2  10  -6   45.20   19.20
  -2  10   6   19.90   43.40
  -2  10   6   74.29   24.40
   1 -10  -6   19.90   13.90
  -1 -10   6   -0.10   14.40
   1 -10  -6   21.10   10.90
  -1 -10   6   15.90   15.80
  -1 -10   6    1.50    5.90
   1 -10  -6   19.80   21.80
  -1 -10   6   16.10    8.90
   1  10  -6   15.00   13.10
  -1  10   6   48.70   21.70
  -1  10   6   19.50    8.80
  -1  10   6   26.50   40.50
   1  10  -6  -34.50   36.10
   0 -10   6   -2.00   13.70
   0 -10  -6    0.60   10.30
   0 -10   6   -5.90    5.70
   0 -10  -6   -5.70   20.60
   0 -10  -6   -2.50    6.60
   0 -10   6  -19.50   12.00
   0 -10  -6    6.30   14.80
   0  10  -6   -8.30   34.70
   0  10  -6  -24.30   11.80
   0  10   6    0.80   23.70
   0  10   6    2.80   21.70
   1 -10   6   77.49   44.10
   1 -10   6   49.99   16.80
   1 -10   6   38.50    9.50
  -1 -10  -6   18.90   11.20
  -1 -10  -6   33.90   15.30
   1 -10   6   44.10   13.70
  -1 -10  -6    1.60   20.60
  -1 -10  -6   27.10    6.30
  -1  10  -6   75.29   41.00
  -1  10  -6   41.50   15.40
   1  10   6   30.50   15.20
   1  10   6    8.00   22.70
   2 -10   6    1.60   10.30
  -2 -10  -6   -3.90   12.90
  -2 -10  -6   -5.20   22.80
   2 -10   6  -10.90   13.50
   2 -10   6    1.50   52.79
  -2 -10  -6  -13.60   16.00
   2 -10   6   12.90   18.90
  -2  10  -6  -57.59   40.60
   2  10   6    9.20   13.70
  -2  10  -6    2.20   26.60
  -2  10  -6   22.10   17.70
   2  10   6   25.10   26.30
   1 -11  -6   40.60   19.10
  -1 -11   6    9.90   18.20
  -1 -11   6    4.20   11.60
  -1 -11   6  -17.60   17.40
   1 -11  -6    7.40   27.70
  -1  11   6   29.00   26.40
   1  11  -6   51.59   21.50
   1  11  -6    9.80   15.60
  -1  11   6    7.80   10.30
   1  11  -6   13.10   43.20
  -1  11   6   34.60   53.79
   0 -11  -6   76.99   10.40
   0 -11   6   79.49   20.30
   0 -11  -6  107.49   19.10
   0 -11  -6   67.09   14.90
   0 -11   6   93.79   18.70
   0 -11  -6   38.40   27.40
   0 -11   6   89.59    9.60
   0  11  -6   83.49   23.90
   0  11  -6   84.99   19.00
   0  11  -6  140.19   44.40
   0  11   6   53.89   52.39
   0  11   6   58.19   29.00
   0  11   6   72.49   15.70
  -1 -11  -6   12.30   17.70
  -1  11  -6   22.20   19.50
   5   0  -7   10.50   12.60
   5   0  -7   12.00   14.00
   5   0  -7   25.90   13.00
   5   0  -7    0.60   11.70
   4   0  -7    3.50    9.80
   4   0  -7    3.10    9.10
   4   0  -7    5.30    9.40
   3   0  -7   48.10    9.30
   2   0  -7   -6.60    3.60
  -2   0   7    1.00    4.20
  -2   0   7    2.00    5.40
   2   0  -7    3.30    7.80
  -2   0   7    4.30    5.80
  -2   0   7    5.10    6.30
  -1   0   7   30.30    8.30
  -1   0   7   33.10    5.50
   1   0  -7   46.50    9.60
   0   0   7    2.10    8.40
   0   0   7    2.80    3.40
   0   0  -7   10.60    8.50
   0   0  -7   13.60    3.30
   1   0   7   -0.60    3.20
   1   0   7   17.80   11.00
  -1   0  -7    7.00    4.10
  -1   0  -7   -1.20    9.70
  -1   0  -7    0.90    3.30
   1   0   7    3.80    1.80
  -2   0  -7    1.20    3.70
   2   0   7   20.40   14.30
   2   0   7    1.80    4.50
  -2   0  -7   10.60   11.30
   2   0   7    3.40    3.60
  -3   0  -7   16.90   14.70
   3   0   7    6.50    6.20
   3   0   7    4.60   18.20
   3   0   7  -10.80    5.90
   4   0   7   -3.20    9.20
   4   0   7   28.70   27.20
   4   0   7   -5.20   10.50
  -4   0  -7   16.70   28.50
   5  -1  -7   18.60   12.50
   5  -1  -7   31.70   16.40
   5  -1  -7   21.40   14.30
   5   1  -7   19.10   11.90
   5   1  -7   26.40   12.70
   5   1  -7   24.00   13.80
   4  -1  -7    4.60    8.60
   4  -1  -7   24.00   11.50
   4  -1  -7   18.70    8.30
   4   1  -7    9.60    7.50
   4   1  -7   18.20    8.60
   4   1  -7   15.60    8.70
   4   1  -7   12.00   11.00
   4   1  -7    3.60    7.30
  -3  -1   7   35.40    7.60
   3  -1  -7   23.30    8.70
   3  -1  -7   14.20    6.60
   3   1  -7   16.50    7.10
  -3   1   7   34.40    6.00
   3   1  -7   20.00    8.90
   3   1  -7   15.60    5.10
   3   1  -7   11.50    6.50
   2  -1  -7   41.70    6.60
   2  -1  -7   42.30    8.90
  -2  -1   7   36.90    6.30
  -2  -1   7   60.19    7.60
   2   1  -7   38.90    5.50
  -2   1   7   47.50    9.80
  -2   1   7   32.90    7.10
   2   1  -7   43.80    4.70
  -2   1   7   51.69    8.40
   2   1  -7   40.70    9.60
  -2   1   7   42.20    5.60
  -1  -1   7   81.69    8.70
   1  -1  -7   65.29    7.10
  -1  -1   7   69.49    7.70
  -1   1   7   73.89    8.10
   1   1  -7   52.59    6.40
   1   1  -7   50.69    8.10
   0  -1  -7  192.58   18.90
   0  -1  -7  161.78   13.60
   0  -1   7  189.28   13.90
   0  -1  -7  180.28   12.90
   0  -1   7  172.88   18.70
   0   1  -7  179.58   15.20
   0   1   7  196.88   18.50
   0   1  -7  182.48   13.60
   0   1   7  187.88   14.00
   0   1  -7  173.58   19.00
  -1  -1  -7   20.90    3.60
  -1  -1  -7   16.40   10.80
  -1  -1  -7   15.20    3.40
   1  -1   7   17.50    3.10
   1  -1   7   26.50    4.70
   1  -1   7   15.60    9.80
   1   1   7   19.90    4.40
  -1   1  -7   20.10    4.70
  -1   1  -7   15.90    9.90
   1   1   7   14.20   10.00
   1   1   7   19.30    3.20
  -2  -1  -7  157.58   18.40
   2  -1   7  180.18   14.10
   2  -1   7  135.99   20.60
  -2  -1  -7  182.28   13.70
   2  -1   7  179.28   13.60
   2   1   7  126.79   19.50
  -2   1  -7  166.78   13.80
   2   1   7  162.78   13.20
   2   1   7  183.98   14.10
  -2   1  -7  183.68   19.90
  -3  -1  -7   33.90   14.40
   3  -1   7   29.40    7.30
   3  -1   7   36.50    7.70
   3  -1   7   24.90   18.60
   3   1   7   29.90    7.40
   3   1   7   36.60    7.00
   3   1   7   15.40   16.80
  -3   1  -7    3.10   24.20
  -3   1  -7   30.60    5.30
   4  -1   7   36.40   28.10
  -4  -1  -7   19.50   15.90
   4  -1   7   38.40   11.30
   4  -1   7   32.80   10.10
   4   1   7   62.39   27.30
   4   1   7   32.50    9.20
   4   1   7   40.20   10.40
  -4   1  -7   37.50   20.40
   5  -2  -7  -19.20   14.90
   5  -2  -7  -10.40   17.70
   5   2  -7  -11.10   14.90
   5   2  -7   11.40   12.10
   5   2  -7    4.50   12.90
   5   2  -7   -0.60   12.80
   4  -2  -7    4.00   10.30
   4  -2  -7   -8.00   11.80
   4   2  -7    8.50    8.70
   4   2  -7  -10.20    9.10
   4   2  -7    4.50    7.40
   4   2  -7    0.80    9.60
   4   2  -7    8.80    8.40
   3  -2  -7   91.29   12.70
   3  -2  -7   73.99   10.30
  -3  -2   7   99.09   11.30
  -3   2   7   98.19    9.30
   3   2  -7   94.19    9.20
   3   2  -7   91.49    9.70
   3   2  -7   89.09   11.20
   3   2  -7   79.19   10.90
   3   2  -7   62.99   10.40
   2  -2  -7  282.97   20.20
  -2  -2   7  232.58   19.70
   2  -2  -7  252.47   21.90
  -2  -2   7  287.17   20.10
   2   2  -7  248.88   17.90
  -2   2   7  256.97   21.40
   2   2  -7  258.77   20.60
  -2   2   7  227.98   23.90
   2   2  -7  211.38   22.10
  -2   2   7  242.88   18.60
  -2   2   7  215.58   21.70
   2   2  -7  276.37   18.70
   1  -2  -7   62.19   10.40
   1  -2  -7   81.79    8.40
  -1  -2   7  102.19    8.60
  -1  -2   7   98.79   12.00
  -1  -2   7   96.49    9.70
   1   2  -7   89.69    7.60
  -1   2   7   96.79   11.60
  -1   2   7   83.29    9.70
   1   2  -7   87.99   10.50
   1   2  -7   76.09   11.80
   0  -2  -7  102.19    8.60
   0  -2  -7  102.49    7.90
   0  -2   7  120.09   15.40
   0  -2   7   98.19    8.60
   0   2  -7   98.39    8.60
   0   2  -7   94.89   13.30
   0   2   7   95.99    9.60
   0   2  -7  104.19   10.50
   0   2   7  109.79   13.20
   1  -2   7  113.69    9.70
  -1  -2  -7  106.39    9.60
  -1  -2  -7  143.49   15.10
   1  -2   7  127.99   16.70
   1  -2   7  106.49    8.70
  -1  -2  -7  110.69    9.50
  -1   2  -7  119.19   15.10
   1   2   7  133.89   15.90
  -1   2  -7  110.19   10.70
   1   2   7   97.69    9.70
   2  -2   7  172.98   13.50
   2  -2   7  208.38   25.60
  -2   2  -7  169.68   14.10
   2   2   7  139.09   14.00
  -2   2  -7  222.38   24.50
   2   2   7  214.58   23.10
   2   2   7  157.78   13.40
  -3  -2  -7    8.80   11.80
   3  -2   7   43.00    7.70
   3  -2   7   28.50    6.90
   3  -2   7   50.69   21.70
   3   2   7   37.80    8.40
   3   2   7   63.89    8.30
  -3   2  -7   31.60   17.00
  -3   2  -7   35.80    6.20
   3   2   7    7.20   16.60
   4  -2   7   -6.70   33.60
   4  -2   7   23.60   10.20
   4  -2   7   36.00   11.50
  -4  -2  -7   16.70   15.80
   4   2   7   29.40   23.70
  -4   2  -7   26.50   23.80
   4   2   7   18.50    9.80
   4   2   7   34.10   10.30
   5  -3  -7    9.10   17.40
   5   3  -7   24.20   11.10
   5   3  -7   -7.30   12.10
   5   3  -7   19.50   16.50
   5   3  -7   18.70   11.40
   4  -3  -7   79.79   15.70
   4  -3  -7   69.69   15.90
   4   3  -7   83.79   10.40
   4   3  -7  119.69   14.50
   4   3  -7   94.39   11.70
   4   3  -7  101.99   11.10
   4   3  -7   72.29   11.10
   3  -3  -7  136.59   15.00
  -3  -3   7  117.29   13.80
   3  -3  -7  129.09   16.10
   3   3  -7  119.09   10.90
   3   3  -7  110.19   14.00
  -3   3   7  145.89   17.50
   3   3  -7   94.59   13.10
   3   3  -7  125.69   11.60
   3   3  -7  141.69   14.40
  -3   3   7  122.79   14.90
   2  -3  -7  282.77   26.00
  -2  -3   7  287.67   23.10
  -2  -3   7  312.77   22.90
   2  -3  -7  301.17   23.30
   2   3  -7  308.37   21.20
  -2   3   7  271.17   28.70
   2   3  -7  293.37   23.50
   2   3  -7  311.27   21.70
   2   3  -7  308.47   24.00
  -2   3   7  295.27   25.00
  -2   3   7  306.97   21.70
   2   3  -7  289.67   25.70
  -2   3   7  286.77   25.30
   1  -3  -7   34.10    5.40
   1  -3  -7   32.10    9.40
  -1  -3   7   39.70   10.60
  -1  -3   7   23.40    4.50
  -1  -3   7   30.90    6.00
  -1   3   7   38.40    9.70
   1   3  -7   29.40    9.80
   1   3  -7   19.00    5.30
  -1   3   7   25.00    6.00
   1   3  -7   28.90    4.00
   0  -3   7  137.69   16.70
   0  -3  -7  117.39    9.70
   0  -3  -7  121.39   10.30
   0  -3  -7  118.39   15.40
   0  -3   7  117.39   12.90
   0  -3   7  125.39   10.10
   0   3  -7  157.08   17.10
   0   3  -7  126.89   11.80
   0   3   7  127.29   11.20
   0   3  -7  123.99   10.10
   0   3   7  128.79   15.80
  -1  -3  -7   41.90    5.00
   1  -3   7   21.70    4.40
  -1  -3  -7   31.50    9.50
   1  -3   7   38.10    8.10
  -1  -3  -7   29.80    4.80
   1  -3   7   60.69   15.50
   1   3   7   15.80    4.60
  -1   3  -7   41.60   11.90
   1   3   7   43.40   11.80
  -1   3  -7   26.30    6.10
   2  -3   7   37.50    9.60
  -2  -3  -7   49.10   11.30
  -2  -3  -7   52.29    7.10
   2  -3   7   60.09    8.60
   2   3   7   43.40    6.70
   2   3   7   54.49    6.70
   2   3   7   43.50   15.10
  -2   3  -7   59.29    7.40
   3  -3   7   28.30    7.70
   3  -3   7   32.90    7.90
  -3  -3  -7   46.70   12.90
   3  -3   7   15.60   24.60
   3   3   7   27.20   17.30
  -3   3  -7   40.10    7.20
   3   3   7   36.60    7.40
   3   3   7   16.80    7.10
   4  -3   7   -6.00   12.40
   4  -3   7   15.80    9.90
  -4  -3  -7   12.80   17.20
   4  -3   7   -3.50   37.00
   4   3   7    3.90   10.00
  -4   3  -7   40.30   28.00
   4   3   7   -3.80    9.50
   4   3   7   -7.10   24.70
   5  -4  -7   13.50   22.20
   5  -4  -7   30.10   21.00
   5   4  -7  -31.90   21.80
   5   4  -7   13.10   16.50
   5   4  -7    1.20   11.00
   5   4  -7   15.00   11.80
   4  -4  -7   12.30   12.70
   4   4  -7   10.80    7.80
   4   4  -7   -0.10    8.30
   4   4  -7  -16.70   11.10
  -4   4   7   -6.00    8.00
   4   4  -7   -3.20    8.30
   4   4  -7   24.10   13.10
   3  -4  -7   -1.50   11.80
  -3  -4   7   -0.30    8.90
   3   4  -7    5.80    5.20
   3   4  -7  -10.30   11.60
   3   4  -7    0.00    8.70
  -3   4   7    1.60   10.70
   3   4  -7    9.30    6.60
  -3   4   7   15.50   15.40
   3   4  -7    3.60    4.40
   2  -4  -7  190.88   21.50
  -2  -4   7  221.68   18.00
   2  -4  -7  224.08   18.10
  -2  -4   7  205.58   16.90
   2   4  -7  175.08   22.40
  -2   4   7  184.58   21.30
  -2   4   7  207.58   21.10
  -2   4   7  193.88   15.30
   2   4  -7  193.28   18.80
   2   4  -7  224.38   15.40
   2   4  -7  201.78   18.00
  -2   4   7  198.98   23.90
  -1  -4   7  107.19    8.20
   1  -4  -7  126.99   15.60
  -1  -4   7   99.19   11.10
  -1  -4   7   95.69   14.60
   1  -4  -7   85.99   10.40
  -1  -4   7  103.09    9.50
  -1   4   7  105.69   12.50
   1   4  -7  130.09   15.80
   1   4  -7  103.39   11.30
   1   4  -7  109.29    8.90
  -1   4   7  144.79   15.40
   0  -4   7  118.39   10.10
   0  -4  -7  110.99   10.10
   0  -4  -7  123.19   16.10
   0  -4  -7  118.09   10.50
   0  -4   7  170.38   20.10
   0  -4   7  118.59   13.10
   0  -4   7  129.69   13.00
   0   4  -7  147.89   18.40
   0   4   7  114.79   15.60
   0   4   7  122.99   12.00
   0   4  -7  124.19   12.70
   1  -4   7   68.29   18.10
  -1  -4  -7   47.60    5.70
   1  -4   7   51.09    9.30
  -1  -4  -7   51.99   11.60
   1  -4   7   53.49    6.40
  -1  -4  -7   43.90    5.50
   1   4   7   44.20    6.70
  -1   4  -7   62.29   15.80
  -1   4  -7   43.10    7.20
   1   4   7   46.90   13.10
  -2  -4  -7  823.52   64.69
  -2  -4  -7  893.41   61.49
   2  -4   7  944.41   62.99
  -2  -4  -7  882.01   61.99
   2  -4   7  922.41   61.89
   2   4   7  776.52   66.39
  -2   4  -7  784.42   67.79
   2   4   7  956.50   61.69
  -2   4  -7  880.01   62.19
   3  -4   7   11.30   10.00
   3  -4   7   45.50   24.80
  -3  -4  -7   14.40   14.00
  -3  -4  -7   13.60    8.60
   3  -4   7   16.10    8.30
   3   4   7   49.00   18.10
  -3   4  -7   19.20   21.30
  -3   4  -7   25.40    7.40
   3   4   7    3.80    6.60
   3   4   7   20.90    8.10
  -4   4  -7  248.78   36.20
   4   4   7  178.28   32.80
   5  -5  -7   13.60   22.50
   5  -5  -7  -13.00   18.90
   5  -5  -7  -25.40   25.10
   5   5  -7   22.60   18.00
   5   5  -7   24.80   13.70
   5   5  -7  -15.60   11.20
   5   5  -7   -3.70   11.60
   4  -5  -7    7.20   15.80
   4  -5  -7    5.20   18.60
  -4   5   7   20.30   13.60
   4   5  -7    9.00   14.40
   4   5  -7    3.60    7.10
   4   5  -7  -14.40   13.80
   4   5  -7   -3.50    8.10
  -4   5   7    1.20   16.50
   4   5  -7   -4.20    8.40
   3  -5  -7  222.98   26.70
   3  -5  -7  240.98   23.10
  -3   5   7  346.17   34.50
   3   5  -7  206.98   18.00
   3   5  -7  233.68   18.40
   3   5  -7  260.77   20.90
  -2  -5   7   40.10    5.30
   2  -5  -7   59.89   13.90
  -2  -5   7   22.20    6.10
   2  -5  -7   30.30    8.70
  -2  -5   7   49.90    8.00
  -2   5   7   63.19   18.00
   2   5  -7   54.49   16.60
  -2   5   7   42.20   11.90
   2   5  -7   26.60    4.20
  -2   5   7   49.40   12.40
   2   5  -7   22.80    7.50
  -1  -5   7   16.40    7.00
  -1  -5   7    4.00   12.60
  -1  -5   7   12.60    7.80
   1  -5  -7   20.50   11.50
   1  -5  -7   13.50    5.80
  -1  -5   7   20.50    4.30
  -1  -5   7   26.20    3.60
  -1   5   7   23.00   10.30
   1   5  -7   30.20   15.30
   1   5  -7   14.40    6.70
  -1   5   7   17.90    7.70
   1   5  -7   14.30    3.70
   0  -5   7   47.20    5.40
   0  -5   7   43.20    7.40
   0  -5   7   28.70   16.60
   0  -5  -7   37.80    5.80
   0  -5  -7   40.60   11.20
   0  -5  -7   57.89    6.10
   0  -5   7   39.50    9.20
   0   5  -7   35.80    7.80
   0   5  -7   39.10   15.30
   0   5   7   46.60   12.90
   0   5   7   53.29    8.30
   1  -5   7  139.69   15.50
   1  -5   7  122.49   11.50
  -1  -5  -7  135.59   11.70
  -1  -5  -7  127.69   13.40
  -1  -5  -7  162.78   17.60
   1  -5   7  184.48   24.60
  -1  -5  -7  123.39   11.60
   1  -5   7  134.09   15.10
   1   5   7  183.48   22.30
  -1   5  -7  149.29   14.30
   1   5   7  113.79   12.60
  -2  -5  -7   29.40    6.50
   2  -5   7   14.40    6.30
   2  -5   7   40.00   24.20
   2  -5   7    3.40    9.10
  -2  -5  -7    5.50   13.60
  -2  -5  -7   14.90    6.90
   2   5   7   14.20   16.70
  -2   5  -7   -7.00   19.40
   2   5   7   24.80    6.50
  -2   5  -7   16.50    8.00
   3  -5   7   26.90   11.40
   3  -5   7   11.40   25.90
  -3  -5  -7   35.20    5.60
   3  -5   7   45.00    8.70
  -3  -5  -7   35.80   15.90
  -3  -5  -7   29.90   10.00
   3   5   7   32.00   10.00
   3   5   7   18.40    7.60
  -3   5  -7   46.30   23.20
  -3   5  -7   45.00   10.00
   3   5   7   60.89   21.80
   4  -5   7   34.30   13.40
  -4  -5  -7   27.50   16.00
   4  -5   7  -17.00   15.20
   4  -5   7   25.30   42.70
   4   5   7    4.40    9.90
   4   5   7  -19.80   31.40
  -4   5  -7  121.39   36.70
  -4   5  -7   15.60   12.40
   4   5   7   14.30   12.30
   4  -6  -7  -22.90   14.80
   4  -6  -7    2.40   14.20
   4  -6  -7  -22.00   22.90
   4   6  -7    4.90    8.80
   4   6  -7   -9.90   18.20
   4   6  -7   -7.30   14.70
   4   6  -7    6.90    6.40
  -4   6   7   11.20   22.50
   4   6  -7    0.00   10.50
  -4   6   7  -17.30   16.60
   3  -6  -7   84.29   13.80
   3  -6  -7   73.79   17.60
   3  -6  -7   68.79   13.00
  -3  -6   7   78.39   13.90
  -3   6   7   78.69   16.30
   3   6  -7   65.19    7.90
  -3   6   7   61.09   25.50
   3   6  -7   95.99   19.50
   3   6  -7   69.89   10.90
   3   6  -7   74.39   13.50
  -2  -6   7   12.80    5.10
  -2  -6   7    8.70    8.70
   2  -6  -7   -1.40    8.20
  -2  -6   7  -10.60   11.70
   2  -6  -7    4.30    8.90
   2  -6  -7    8.00   12.60
  -2  -6   7    2.60    5.60
  -2   6   7   -7.50   14.70
  -2   6   7   16.30   21.20
   2   6  -7   13.80   17.10
   2   6  -7   18.00    7.80
   2   6  -7    0.10    3.40
   2   6  -7    0.80    8.70
   1  -6  -7   20.70    6.90
  -1  -6   7    7.50   15.70
  -1  -6   7   29.50    8.30
  -1  -6   7   30.10    4.20
   1  -6  -7   25.30   12.40
  -1  -6   7   23.50    5.00
  -1  -6   7   10.70    9.10
   1   6  -7   37.10    7.70
  -1   6   7   30.90   13.50
  -1   6   7   20.80   10.60
   1   6  -7   56.29   19.90
   0  -6   7    0.30    7.30
   0  -6   7   18.90   14.00
   0  -6   7   -1.00   19.50
   0  -6  -7   19.10    7.20
   0  -6  -7   -3.20   13.80
   0  -6  -7   10.50    4.70
   0  -6  -7    5.60    5.00
   0  -6   7    4.10    3.60
   0   6   7   -1.10    7.10
   0   6  -7   -3.30   18.50
   0   6   7   -0.30   12.50
   0   6  -7   25.60    7.70
   1  -6   7   80.29    9.00
  -1  -6  -7   95.29    9.80
  -1  -6  -7  132.79   18.90
  -1  -6  -7   95.89   10.00
  -1  -6  -7  101.19   10.90
   1  -6   7   92.69   12.00
   1  -6   7  168.28   27.40
   1   6   7  112.49   21.10
  -1   6  -7  155.78   22.70
   1   6   7   68.89   10.20
  -1   6  -7  122.49   12.40
   2  -6   7  397.56   35.00
  -2  -6  -7  443.76   32.40
   2  -6   7  331.57   44.30
   2  -6   7  475.05   32.30
   2  -6   7  408.16   35.30
  -2  -6  -7  440.86   32.20
  -2   6  -7  422.36   33.40
   2   6   7  409.26   41.00
   2   6   7  489.05   32.40
  -2   6  -7  346.87   45.90
  -3  -6  -7   19.40   11.00
  -3  -6  -7   18.50   15.70
   3  -6   7   38.70    9.70
   3  -6   7   10.80   12.70
   3  -6   7  -28.40   33.00
  -3  -6  -7   20.40    7.10
   3   6   7   45.30   23.80
   3   6   7    0.50    9.60
  -3   6  -7    4.40   11.10
  -3   6  -7   49.40   29.20
   4  -7  -7   -0.80   18.10
   4  -7  -7   21.50   17.50
   4  -7  -7    1.40   24.90
   4   7  -7    5.40   12.20
   4   7  -7   14.40   22.90
   4   7  -7    2.30   15.40
   4   7  -7    6.00    5.80
  -4   7   7   10.60   20.80
   3  -7  -7  353.86   37.70
  -3  -7   7  295.07   26.70
   3  -7  -7  345.57   31.10
   3  -7  -7  369.86   30.90
  -3   7   7  339.57   41.70
   3   7  -7  342.57   24.00
  -3   7   7  306.27   36.30
   3   7  -7  306.87   30.30
   3   7  -7  296.87   35.70
   3   7  -7  358.56   28.70
  -2  -7   7    7.80    5.80
   2  -7  -7    7.80   10.10
  -2  -7   7   24.10   11.40
   2  -7  -7    3.20   15.10
  -2  -7   7   17.80    6.20
  -2  -7   7   25.80   10.10
  -2   7   7   42.80   26.80
   2   7  -7   16.70   21.70
   2   7  -7   17.00    9.30
   2   7  -7   34.50   11.80
   1  -7  -7   32.20   14.10
   1  -7  -7   24.30   10.20
  -1  -7   7   28.90    9.50
  -1  -7   7   30.00    5.60
  -1  -7   7   30.60    4.80
  -1  -7   7    6.60    9.80
   1  -7  -7   23.60    7.60
   1   7  -7   28.40    9.40
   1   7  -7  -12.10   20.30
  -1   7   7   12.90   13.00
  -1   7   7   24.80   12.50
   0  -7   7    8.30    4.10
   0  -7   7  -10.00   22.30
   0  -7  -7    8.70    8.00
   0  -7  -7   14.00   13.10
   0  -7   7   21.00    9.40
   0  -7  -7    6.40    5.40
   0  -7   7   15.50    8.90
   0  -7  -7    1.60    5.70
   0   7   7   12.40    9.20
   0   7  -7    7.20   24.00
   0   7   7   17.40   16.10
   0   7  -7    6.70    7.90
   1  -7   7   79.29   27.90
  -1  -7  -7   38.00    6.60
  -1  -7  -7   47.60    7.80
  -1  -7  -7   69.89   15.20
  -1  -7  -7   43.30   10.10
   1  -7   7   70.99   13.50
   1  -7   7   49.00   11.30
   1  -7   7   40.50    7.00
  -1   7  -7  101.29   24.20
  -1   7  -7   72.59   11.30
   1   7   7   37.80   10.30
   1   7   7   68.19   17.60
  -2  -7  -7   68.49   16.90
  -2  -7  -7   65.69   10.20
   2  -7   7   42.40   11.80
   2  -7   7   84.19   10.30
   2  -7   7   84.19   13.70
  -2  -7  -7   68.39   11.20
   2  -7   7    4.50   31.30
  -2   7  -7   56.09   12.50
   2   7   7   70.89   10.60
   2   7   7   42.50   20.30
  -2   7  -7   63.19   24.70
   3  -7   7   16.50   10.30
   3  -7   7  -12.50   14.20
  -3  -7  -7    0.60    8.50
  -3  -7  -7   -1.50   11.90
   3  -7   7   65.39   41.70
   3  -7   7   -7.00   14.00
  -3   7  -7   -6.20   14.10
   3   7   7   13.00   28.50
  -3   7  -7  -37.40   35.20
   4  -8  -7   18.60   21.10
   4  -8  -7   24.50   30.40
   4  -8  -7   26.70   20.60
  -4   8   7   25.20   24.50
   4   8  -7   -7.50   14.30
  -4   8   7   43.10   37.70
   4   8  -7   28.70   21.10
   4   8  -7   -1.50   29.80
   3  -8  -7  213.68   23.60
   3  -8  -7  206.28   29.70
  -3  -8   7  173.68   20.30
   3  -8  -7  248.58   28.00
   3   8  -7  188.48   20.10
  -3   8   7  202.28   42.90
   3   8  -7  198.98   34.20
   3   8  -7  230.18   27.50
  -2  -8   7  -21.20   12.90
  -2  -8   7    6.50    6.70
  -2  -8   7  -12.30   12.30
   2  -8  -7   11.50   18.20
   2  -8  -7   17.60   11.30
  -2  -8   7   -2.70    7.20
   2  -8  -7   16.20   13.30
   2   8  -7  -14.70   12.90
   2   8  -7   18.50   28.90
  -2   8   7   33.30   27.80
  -2   8   7   18.70   16.90
   2   8  -7   13.10    9.80
  -1  -8   7  206.68   16.00
  -1  -8   7  161.08   20.20
  -1  -8   7  199.98   16.20
   1  -8  -7  218.68   18.40
   1  -8  -7  198.08   25.80
   1  -8  -7  201.98   22.50
  -1  -8   7  225.98   21.20
   1   8  -7  177.78   20.20
  -1   8   7  166.68   36.20
   1   8  -7  180.88   30.80
  -1   8   7  170.28   24.30
   0  -8   7    2.90    8.40
   0  -8  -7    2.90   10.80
   0  -8   7   -5.70   10.30
   0  -8  -7   -6.30    7.00
   0  -8  -7   13.90    6.60
   0  -8   7   -5.20   25.60
   0  -8   7    4.50    4.50
   0  -8  -7   22.00   16.10
   0   8  -7   37.90   29.40
   0   8   7   18.30   14.20
   0   8   7   13.10   12.20
   0   8  -7   -6.00    9.40
   1  -8   7   96.59   32.30
  -1  -8  -7   73.29   10.20
   1  -8   7   98.19   13.80
  -1  -8  -7   76.89   12.30
   1  -8   7  102.69   14.90
  -1  -8  -7   89.79   19.00
  -1  -8  -7   63.69    8.60
   1  -8   7   87.29   12.50
  -1   8  -7  110.69   14.20
   1   8   7   83.99   21.40
  -1   8  -7   82.99   27.50
   2  -8   7   12.60    8.50
   2  -8   7    0.60   10.90
  -2  -8  -7  -23.20   17.50
  -2  -8  -7   -9.00    8.40
  -2  -8  -7   -2.50   10.30
   2  -8   7   16.10   13.90
   2  -8   7   17.70   36.00
   2   8   7   14.60   22.80
  -2   8  -7   11.30   12.50
   2   8   7   15.00   10.60
  -2   8  -7  -37.80   32.40
  -3  -8  -7  -17.50   11.10
   3  -8   7    0.40   11.70
  -3  -8  -7  -22.90   13.90
   3  -8   7    4.20   16.30
  -3  -8  -7   25.50   20.20
   3  -8   7   34.40   17.90
   3  -8   7  -12.40   51.59
   3   8   7   42.10   32.30
   3   8   7   21.30   11.40
  -3   8  -7   -2.60   16.60
  -3   8  -7  -27.70   42.20
   3  -9  -7   32.40   19.30
   3  -9  -7   46.60   20.00
   3  -9  -7   27.50   26.30
  -3  -9   7   29.00   22.10
  -3  -9   7   27.80   12.50
  -3   9   7   26.50   25.10
   3   9  -7   15.90   18.00
   3   9  -7   19.10   13.70
   3   9  -7   11.80   34.00
  -3   9   7   31.20   44.60
   2  -9  -7    6.10   13.50
  -2  -9   7   -3.90    8.70
   2  -9  -7   12.50   15.60
   2  -9  -7   13.50   22.80
  -2  -9   7   -2.10   14.90
  -2  -9   7  -23.10   14.10
   2   9  -7   -6.90   14.80
   2   9  -7   20.40   31.60
   2   9  -7    6.20   11.50
  -2   9   7   26.00   36.40
  -2   9   7   53.99   21.30
  -1  -9   7   12.10    7.70
   1  -9  -7   -5.50   20.20
   1  -9  -7   18.00   14.40
  -1  -9   7   10.50   13.40
   1  -9  -7   20.50   10.20
  -1  -9   7    8.10    6.20
  -1  -9   7   21.90   11.60
   1   9  -7  -12.10   11.60
  -1   9   7   26.40   18.20
   1   9  -7   22.10   31.50
  -1   9   7   10.40    8.80
  -1   9   7    1.00   36.70
   0  -9  -7   -9.90   19.00
   0  -9  -7   11.30    9.10
   0  -9  -7   22.00   12.70
   0  -9  -7    4.90    6.70
   0  -9   7   22.90    6.10
   0  -9   7   25.30   12.40
   0  -9   7   17.20   11.70
   0   9  -7   30.20   34.60
   0   9   7   18.10   15.10
   0   9  -7   -6.70   11.10
   0   9   7   19.50   17.50
   1  -9   7   56.39   39.70
   1  -9   7   45.40   13.10
   1  -9   7   63.39    9.10
  -1  -9  -7   47.20   22.00
  -1  -9  -7   51.49    8.00
   1  -9   7   67.79   15.90
  -1  -9  -7   61.39   14.10
  -1  -9  -7   29.10    9.60
  -1   9  -7    5.40   32.30
   1   9   7   36.20   24.60
  -1   9  -7   36.50   14.10
   1   9   7   52.09   14.00
   2  -9   7   35.40   17.50
   2  -9   7   30.30    9.70
  -2  -9  -7   27.30   14.20
   2  -9   7  -25.20   42.10
  -2  -9  -7   24.10   23.80
   2  -9   7   15.40   13.30
  -2  -9  -7   10.60   11.20
  -2   9  -7   -0.70   15.70
   2   9   7   18.50   12.30
   2   9   7   10.70   25.20
  -2   9  -7    1.90   37.30
   2 -10  -7   36.20   17.70
  -2 -10   7   33.50   11.40
   2 -10  -7   11.40   14.20
  -2 -10   7    5.60   18.90
   2 -10  -7   23.10   27.80
   2  10  -7   13.40   15.30
  -2  10   7   45.10   46.30
   2  10  -7   20.20   19.50
  -2  10   7   33.40   25.60
   2  10  -7  -10.40   38.70
   1 -10  -7  102.49   13.20
   1 -10  -7   80.99   17.70
  -1 -10   7   91.29   12.10
  -1 -10   7   72.29   17.70
  -1 -10   7   81.19   10.10
   1 -10  -7  112.79   27.70
  -1 -10   7   73.69   18.20
  -1  10   7   93.99   25.90
  -1  10   7   50.29   45.90
   1  10  -7  104.59   38.40
   1  10  -7   78.39   16.90
  -1  10   7  109.89   12.00
   0 -10   7   53.69   14.10
   0 -10   7   26.30   15.50
   0 -10  -7   14.60   15.70
   0 -10  -7    9.90   23.40
   0 -10  -7   33.10    8.50
   0 -10  -7   28.80   11.50
   0 -10   7    9.40    7.30
   0  10  -7   32.40   42.50
   0  10   7   -3.10   23.70
   0  10   7   19.90   13.00
   0  10  -7  -14.90   14.20
  -1 -10  -7  146.19   16.20
  -1 -10  -7  145.29   14.20
  -1 -10  -7  134.29   19.50
   1 -10   7  132.89   15.70
   1 -10   7  114.39   21.80
   1 -10   7  119.69   18.20
   1 -10   7  152.98   48.90
  -1 -10  -7  156.98   27.80
  -1  10  -7   34.60   42.60
   1  10   7  102.09   28.90
  -1  10  -7  132.19   20.30
   1  10   7  136.89   20.10
   5   0  -8    9.20   15.00
   5   0  -8   20.60   13.90
   5   0  -8    6.40   15.20
   5   0  -8  -10.80   12.80
   4   0  -8  156.48   17.80
   4   0  -8  152.48   18.80
   4   0  -8  131.39   15.90
   3   0  -8   10.60   10.10
  -3   0   8    4.70    6.30
   3   0  -8   -1.30    6.50
  -3   0   8    5.90   10.00
  -2   0   8  685.83   46.90
   2   0  -8  701.23   46.00
  -2   0   8  638.64   46.10
   2   0  -8  564.04   47.80
   1   0  -8   19.00   10.40
  -1   0   8    5.00    4.70
  -1   0   8    4.00    8.60
   1   0  -8    4.60    3.30
   0   0   8 2088.89  149.09
   0   0  -8 2205.58  148.99
   0   0   8 2126.79  151.28
   0   0  -8 2245.48  151.58
  -1   0  -8   15.60   11.30
  -1   0  -8   23.90    5.00
   1   0   8   26.70    3.40
   1   0   8   25.20   11.80
   1   0   8   27.10    5.20
  -1   0  -8   16.20    5.80
   2   0   8  198.78   16.70
   2   0   8  194.68   15.60
  -2   0  -8  224.28   16.50
   2   0   8  189.18   24.70
  -2   0  -8  220.08   27.40
   3   0   8  409.76   29.80
  -3   0  -8  406.96   28.50
  -3   0  -8  347.57   36.70
   3   0   8  404.46   30.40
  -4   0  -8   17.70   23.00
   4   0   8   31.30   31.90
   4   0   8   28.80   10.40
   4   0   8   21.90   10.70
   5  -1  -8    1.70   15.20
   5  -1  -8   20.90   16.30
   5   1  -8   21.50   14.00
   5   1  -8   21.60   12.70
   5   1  -8   13.10   11.90
   5   1  -8   23.30   14.00
   5   1  -8   14.80   16.10
   4  -1  -8   17.40   11.60
   4  -1  -8   -6.50   13.50
   4   1  -8   13.50   11.40
   4   1  -8    8.60   16.20
   4   1  -8   24.80    8.00
  -3  -1   8    0.20    6.50
   3  -1  -8    2.70    6.90
  -3  -1   8   21.20    9.50
   3  -1  -8   13.00    9.70
   3   1  -8    3.20    5.50
   3   1  -8   -3.80   10.50
   3   1  -8   -1.10    5.90
  -3   1   8   -1.30    4.90
  -2  -1   8    8.80    5.30
  -2  -1   8    3.40    6.30
  -2  -1   8    5.70    5.90
   2  -1  -8   -4.30    9.10
   2  -1  -8   -4.50    4.90
  -2   1   8    7.20    4.90
   2   1  -8    1.90    3.20
   2   1  -8    2.10    4.10
  -2   1   8    4.40    6.80
  -2   1   8   -1.30    8.40
   2   1  -8   -4.40    9.40
  -1  -1   8    6.70    4.50
   1  -1  -8   23.20    9.10
  -1  -1   8   -6.40    5.00
   1  -1  -8    7.40    4.10
  -1  -1   8   21.80    8.40
  -1   1   8    9.60    8.60
  -1   1   8   18.60    6.00
   1   1  -8    5.90    3.60
   1   1  -8   11.60   10.60
   1   1  -8    6.50    7.00
   0  -1  -8  310.57   21.90
   0  -1  -8  311.87   21.20
   0  -1  -8  305.77   27.10
   0  -1   8  287.17   22.00
   0  -1   8  296.87   27.60
   0   1  -8  297.77   21.90
   0   1  -8  278.57   23.30
   0   1  -8  313.67   27.30
   0   1   8  297.37   22.40
   0   1   8  309.97   25.90
   1  -1   8   60.89   14.40
  -1  -1  -8   44.70    5.90
  -1  -1  -8   50.49   13.50
   1  -1   8   54.99    5.30
   1  -1   8   64.99    6.60
   1   1   8   46.10   12.70
  -1   1  -8   52.99    7.10
   1   1   8   69.49    6.90
  -1   1  -8   74.69   14.90
   2  -1   8   28.20   16.30
  -2  -1  -8   10.30    4.80
   2  -1   8   14.10    5.40
   2  -1   8   14.70    4.80
  -2  -1  -8   12.60   12.70
  -2   1  -8   11.50    5.30
  -2   1  -8   57.69   23.70
   2   1   8   14.30   15.10
   2   1   8   14.60    6.80
   2   1   8   18.10    4.50
  -3  -1  -8   94.49   18.90
   3  -1   8   79.49   21.30
   3  -1   8   54.79    8.50
   3  -1   8   61.09    8.50
   3   1   8   83.49   21.60
   3   1   8   37.40    8.40
  -3   1  -8   90.59   21.50
   4  -1   8    2.00   11.60
  -4  -1  -8   25.40   20.50
   4  -1   8   18.50   30.70
   4  -1   8    1.60    9.90
  -4   1  -8  -33.10   22.90
   4   1   8   28.90   31.90
   4   1   8   -1.50    9.60
   4   1   8   20.20   11.00
   5  -2  -8   24.70   16.50
   5  -2  -8   20.80   17.50
   5   2  -8    7.00   11.80
   5   2  -8    4.70   11.40
   5   2  -8   10.40   16.30
   5   2  -8   18.90   12.40
   5   2  -8    0.00   13.10
   4  -2  -8   27.10   14.20
   4  -2  -8   35.00   10.60
   4   2  -8   47.50    8.90
   4   2  -8   30.90   11.70
   4   2  -8   13.90   12.60
   4   2  -8   25.60    8.00
  -3  -2   8  325.87   31.40
   3  -2  -8  389.56   30.20
  -3  -2   8  392.36   29.70
   3  -2  -8  416.16   31.80
  -3   2   8  380.26   28.70
  -3   2   8  412.26   28.10
  -3   2   8  411.06   28.70
   3   2  -8  353.46   27.80
   3   2  -8  400.26   31.40
   3   2  -8  416.66   30.40
   3   2  -8  341.77   28.60
  -2  -2   8  137.59   13.60
   2  -2  -8  129.49   15.70
   2  -2  -8  139.39   13.30
  -2  -2   8  138.29   13.60
  -2   2   8  123.99   15.10
   2   2  -8  147.39   10.50
   2   2  -8  143.09   14.80
   2   2  -8  140.29   16.20
  -2   2   8  133.59   12.30
  -2   2   8  131.79   16.50
   2   2  -8  144.89   11.80
  -1  -2   8   85.79   10.80
  -1  -2   8  121.89   13.70
  -1  -2   8   79.69    9.20
   1  -2  -8   79.19    8.80
   1   2  -8   68.29    9.60
  -1   2   8  107.59   13.20
  -1   2   8  102.69   10.50
   1   2  -8   86.69    8.10
   1   2  -8   80.89   13.60
   0  -2   8  535.45   43.70
   0  -2  -8  533.25   42.20
   0  -2  -8  551.94   39.00
   0  -2  -8  557.94   38.40
   0  -2   8  568.74   39.10
   0   2  -8  545.45   43.30
   0   2  -8  563.24   39.00
   0   2   8  580.44   42.80
   0   2  -8  530.75   40.00
   0   2   8  558.14   39.50
  -1  -2  -8  129.79   16.50
  -1  -2  -8  114.59   10.50
  -1  -2  -8  115.49   10.50
   1  -2   8  122.99   18.10
   1  -2   8  108.79    9.20
   1  -2   8  137.49   10.70
  -1   2  -8  139.09   12.30
   1   2   8  108.79   17.50
   1   2   8  111.69   11.20
  -1   2  -8  147.39   18.90
  -2  -2  -8   15.20    6.50
  -2  -2  -8   11.70   12.10
   2  -2   8   21.50    5.10
   2  -2   8   30.70    6.90
   2   2   8   21.70    5.10
   2   2   8    6.00   16.80
  -2   2  -8   19.40   14.50
  -2   2  -8   33.60    6.30
   3  -2   8  114.79   12.10
  -3  -2  -8   54.19   16.70
   3  -2   8   89.79   24.70
   3  -2   8  106.19   11.40
   3   2   8   92.39   10.90
   3   2   8  111.59   11.10
  -3   2  -8   93.09   11.60
   3   2   8   76.99   20.60
  -3   2  -8   99.49   23.30
   4  -2   8   22.50   38.70
  -4  -2  -8  -37.60   19.20
   4  -2   8   15.80    9.70
   4  -2   8   16.00   12.90
   4   2   8    4.80    9.30
   4   2   8   -7.70   10.40
  -4   2  -8   31.10   29.50
   4   2   8  -39.20   27.90
   5  -3  -8   -1.50   20.90
   5  -3  -8    5.00   16.90
   5   3  -8   -0.60   12.60
   5   3  -8   -8.20   11.90
   5   3  -8   24.60   11.40
   5   3  -8   31.60   18.70
   4  -3  -8   77.99   13.50
   4  -3  -8   77.99   17.60
   4   3  -8   77.79   12.40
   4   3  -8   67.49   14.90
   4   3  -8   88.09   10.20
   4   3  -8   36.10   13.70
   4   3  -8   72.89   10.30
   3  -3  -8  350.36   41.40
   3  -3  -8  514.95   37.70
  -3  -3   8  467.45   35.90
  -3  -3   8  459.05   34.90
  -3   3   8  490.65   35.50
   3   3  -8  522.75   37.40
   3   3  -8  424.76   33.40
   3   3  -8  451.15   32.70
  -3   3   8  448.16   32.60
   3   3  -8  437.56   36.70
   2  -3  -8  101.19   11.80
   2  -3  -8  135.49   16.90
  -2  -3   8  101.99   12.00
  -2  -3   8  102.49   12.50
   2   3  -8  103.59    8.30
   2   3  -8   90.39   15.70
  -2   3   8   90.99   12.00
  -2   3   8  129.79   10.50
   2   3  -8   91.29    9.60
   1  -3  -8   71.49   12.20
  -1  -3   8   71.89   12.80
   1  -3  -8   76.59    7.90
  -1  -3   8   74.39    8.80
  -1  -3   8   67.59    7.50
   1   3  -8   70.69    7.30
   1   3  -8   61.59   14.50
   1   3  -8   53.59    8.40
  -1   3   8   75.29   10.00
  -1   3   8   93.89   13.60
   0  -3   8  194.88   20.50
   0  -3  -8  162.38   12.90
   0  -3  -8  153.48   19.10
   0  -3  -8  155.98   12.30
   0  -3   8  172.08   12.90
   0   3  -8  154.38   12.80
   0   3  -8  158.28   14.80
   0   3   8  161.88   14.00
   0   3  -8  144.39   18.80
   0   3   8  159.18   19.60
  -1  -3  -8  184.78   14.20
   1  -3   8  178.68   14.40
   1  -3   8  173.58   23.20
  -1  -3  -8  169.68   20.60
  -1  -3  -8  176.88   14.30
  -1   3  -8  143.99   26.30
   1   3   8  169.08   15.00
   1   3   8  170.18   22.90
  -1   3  -8  197.48   16.00
  -2  -3  -8  189.48   16.70
   2  -3   8  219.08   16.80
   2  -3   8  184.98   15.70
   2  -3   8  195.98   28.80
  -2   3  -8  208.08   17.50
   2   3   8  185.38   16.00
  -2   3  -8  223.08   26.20
   3  -3   8   30.60    8.70
   3  -3   8   39.30   25.60
   3  -3   8   29.20    9.10
  -3  -3  -8    5.90   16.10
   3   3   8   32.30    8.50
   3   3   8   56.49   20.30
  -3   3  -8   28.70    8.20
  -3   3  -8   39.50   23.90
   3   3   8   38.70    8.60
   4  -3   8   37.80   44.40
   4  -3   8    5.10   11.60
  -4  -3  -8  -13.10   24.00
   4  -3   8   11.30   13.00
  -4   3  -8  -16.30   29.70
   4   3   8   18.40   11.80
   4   3   8  -29.10   32.00
   4   3   8   -1.80   10.60
   5  -4  -8   18.00   18.90
   5  -4  -8   23.80   27.10
   5   4  -8   11.50   11.80
   5   4  -8   11.20   12.10
   5   4  -8    9.80   19.50
   5   4  -8  -21.90   12.60
   4  -4  -8   -2.60   11.70
   4  -4  -8    0.60   16.00
   4   4  -8   -8.40   12.90
   4   4  -8    8.30    8.00
   4   4  -8   -1.40   13.50
   4   4  -8    0.90    9.20
   4   4  -8   -2.40    7.50
   3  -4  -8  310.97   27.50
  -3  -4   8  297.27   27.80
   3  -4  -8  388.86   31.00
   3   4  -8  319.27   24.30
  -3   4   8  383.06   29.70
   3   4  -8  308.27   28.00
  -3   4   8  345.97   34.60
   3   4  -8  375.86   28.30
   3   4  -8  313.37   23.90
   3   4  -8  251.97   29.40
  -2  -4   8    1.10    7.20
   2  -4  -8    9.20    7.50
   2  -4  -8   27.00   13.10
  -2  -4   8    8.10    6.30
   2   4  -8    3.90    6.50
  -2   4   8   16.60    5.40
   2   4  -8   11.70   13.80
  -2   4   8   23.20   12.10
  -2   4   8   23.30   15.80
   2   4  -8    7.10    3.90
  -1  -4   8   42.60    6.20
  -1  -4   8   42.30   14.50
   1  -4  -8   65.19   13.20
  -1  -4   8   53.19    8.00
   1  -4  -8   56.39    7.20
  -1  -4   8   44.80    4.70
  -1   4   8   43.80   12.70
   1   4  -8   40.00    7.70
   1   4  -8   46.60    5.60
  -1   4   8   38.30    8.20
   1   4  -8   40.40   15.80
   0  -4   8   28.30   14.80
   0  -4  -8   32.90    5.30
   0  -4   8   31.10    4.90
   0  -4  -8   41.80    5.10
   0  -4  -8   30.70   12.00
   0  -4   8   34.30   10.70
   0  -4   8   42.40    8.40
   0   4   8   35.00    7.00
   0   4  -8   25.20   15.70
   0   4   8   47.60   13.10
   0   4  -8   42.80    7.60
   1  -4   8  243.98   23.40
  -1  -4  -8  239.48   18.40
  -1  -4  -8  250.17   18.70
   1  -4   8  279.37   30.30
  -1  -4  -8  255.37   29.80
   1  -4   8  249.58   18.70
  -1   4  -8  227.78   20.30
  -1   4  -8  229.58   28.30
   1   4   8  213.08   27.70
   1   4   8  244.18   19.90
   2  -4   8  286.47   25.20
  -2  -4  -8  233.88   26.90
  -2  -4  -8  262.27   21.30
   2  -4   8  266.97   20.60
  -2  -4  -8  275.67   20.40
   2  -4   8  264.37   34.10
   2   4   8  203.18   27.80
   2   4   8  314.47   23.90
  -2   4  -8  194.08   27.60
  -2   4  -8  269.57   21.80
   3  -4   8    1.90   30.00
   3  -4   8   20.20    8.30
  -3  -4  -8   28.60   18.80
   3   4   8   35.80   24.20
   3   4   8   25.20    9.00
   3   4   8   21.20    8.60
  -3   4  -8   12.40   24.40
  -3   4  -8   13.40    9.10
   4  -4   8   35.50   14.20
  -4  -4  -8    0.00   33.80
   4  -4   8   39.10   12.80
   4  -4   8   24.40   42.90
  -4   4  -8   46.20   33.90
   4   4   8   -7.80   28.90
  -4   4  -8   20.70   10.60
   4   4   8   17.20   11.80
   4   4   8   26.20   12.50
   5  -5  -8  -12.30   20.40
   5   5  -8  -29.20   14.60
   4  -5  -8   31.30   19.10
   4  -5  -8   27.60   14.70
   4   5  -8    6.50   15.70
   4   5  -8   31.40   15.00
   4   5  -8   26.30    8.90
   4   5  -8   25.10   10.60
  -4   5   8    7.50   14.10
   4   5  -8   14.50    7.20
  -4   5   8   13.20   17.50
   3  -5  -8  653.03   50.29
  -3  -5   8  652.63   47.00
  -3  -5   8  635.34   46.60
   3  -5  -8  696.03   47.40
   3   5  -8  656.93   46.10
   3   5  -8  599.14   47.20
   3   5  -8  667.23   43.90
   3   5  -8  607.14   43.90
  -3   5   8  548.85   48.90
   3   5  -8  543.95   50.19
  -3   5   8  519.05   54.39
   2  -5  -8  332.07   33.60
   2  -5  -8  358.76   29.70
  -2   5   8  375.16   32.50
   2   5  -8  429.46   36.10
  -2   5   8  445.86   41.70
   1  -5  -8  206.58   26.50
   1  -5  -8  208.38   16.60
  -1  -5   8  223.88   21.40
  -1  -5   8  215.98   18.20
  -1  -5   8  198.38   14.50
  -1  -5   8  193.18   15.90
  -1  -5   8  192.28   25.70
   1   5  -8  160.68   22.70
   1   5  -8  196.28   15.30
  -1   5   8  188.38   23.70
  -1   5   8  193.28   19.10
   1   5  -8  183.88   18.30
   0  -5   8   13.60   11.20
   0  -5   8   -4.90   19.20
   0  -5   8    3.90    4.30
   0  -5  -8    1.30    4.40
   0  -5  -8   -0.80    4.80
   0  -5  -8  -10.70   13.00
   0  -5   8   22.90    7.70
   0   5   8   -0.40    6.60
   0   5  -8   -1.70    6.40
   0   5   8  -11.10   13.20
   0   5  -8   19.10   18.80
   1  -5   8   29.30    6.20
   1  -5   8   36.80   11.00
  -1  -5  -8   15.80   13.10
   1  -5   8   36.90   20.30
   1  -5   8   28.10    9.40
  -1  -5  -8   32.20    5.60
  -1  -5  -8   33.10    5.80
  -1  -5  -8   26.80    7.50
   1   5   8   22.30   19.70
  -1   5  -8   23.40    8.10
   1   5   8   44.20    7.90
  -1   5  -8   29.80   20.00
   2  -5   8  275.87   25.00
  -2  -5  -8  239.68   20.80
  -2  -5  -8  246.58   20.90
  -2  -5  -8  232.28   27.90
   2  -5   8  254.67   20.00
   2   5   8  193.28   28.80
  -2   5  -8  255.37   22.20
   2   5   8  267.27   24.40
   3  -5   8    1.80   32.90
  -3  -5  -8   21.10    9.70
  -3  -5  -8   17.60    6.50
   3  -5   8   22.10   10.00
  -3  -5  -8   -4.30   18.40
   3  -5   8    2.80   13.70
   3   5   8   26.10    8.50
  -3   5  -8   15.70   25.50
   3   5   8   54.09   25.50
  -3   5  -8   29.30   10.70
   4  -6  -8  -19.50   16.20
   4  -6  -8  -20.20   22.80
   4  -6  -8   -7.60   15.80
  -4   6   8  -11.60   24.20
   4   6  -8   -6.50   15.60
  -4   6   8   -4.00   18.10
   4   6  -8   -5.60   23.10
   4   6  -8   -4.50   12.20
   4   6  -8    2.00    7.10
   4   6  -8   -2.10    9.10
  -3  -6   8  119.69   15.70
   3  -6  -8  114.19   21.30
   3  -6  -8   67.39   13.60
   3   6  -8   94.39    9.80
   3   6  -8   94.29   12.80
   3   6  -8   81.09   24.10
  -3   6   8   74.69   18.50
  -3   6   8   65.69   28.00
   3   6  -8   81.89   16.40
  -2  -6   8  195.58   15.10
   2  -6  -8  210.38   25.90
  -2  -6   8  161.58   18.90
  -2   6   8  182.88   20.50
   2   6  -8  159.58   14.20
   2   6  -8  187.98   18.80
  -2   6   8  163.68   30.20
  -2   6   8  244.98   25.80
   2   6  -8  239.38   21.60
   2   6  -8  143.09   25.40
  -1  -6   8  178.78   18.30
  -1  -6   8  201.68   15.20
   1  -6  -8  187.68   16.50
  -1  -6   8  161.88   13.90
  -1  -6   8  163.18   24.80
  -1  -6   8  153.98   20.10
   1  -6  -8  207.98   22.30
  -1   6   8  185.68   22.50
   1   6  -8  193.58   18.50
   1   6  -8  196.28   26.70
  -1   6   8  201.88   19.70
   0  -6  -8   82.59   11.40
   0  -6  -8   92.29   16.00
   0  -6  -8   68.09    8.20
   0  -6   8   84.29   23.30
   0  -6  -8   71.69    8.00
   0  -6   8   39.30   14.20
   0  -6   8   65.59    7.10
   0  -6   8   47.30   12.10
   0   6   8   56.39   16.40
   0   6   8   57.09   10.20
   0   6  -8   43.60   20.00
   1  -6   8   38.20   10.90
   1  -6   8   23.10   10.30
   1  -6   8   43.00   25.10
  -1  -6  -8   49.10   15.10
   1  -6   8   30.30    7.60
  -1  -6  -8   25.40    8.60
  -1  -6  -8   32.00    6.40
  -1  -6  -8   38.20    6.20
   1   6   8   28.60    9.00
   1   6   8   30.20   18.70
  -1   6  -8   38.90   20.80
   2  -6   8   22.90   12.80
  -2  -6  -8   34.80    8.50
   2  -6   8   21.20    7.40
   2  -6   8   55.39   28.00
  -2  -6  -8   37.80   17.40
  -2  -6  -8   32.00    8.60
   2   6   8   31.00   19.30
  -2   6  -8   16.50   25.60
  -3  -6  -8    7.20   11.20
  -3  -6  -8   -6.40    7.30
   3  -6   8    4.00    9.90
   3  -6   8   49.60   40.30
  -3  -6  -8  -11.40   20.00
   3  -6   8   21.80   15.50
   3   6   8   44.40   27.90
  -3   6  -8  -16.70   30.40
  -3   6  -8   13.70   12.90
   3   6   8    7.30    9.80
   4  -7  -8   38.20   19.00
   4  -7  -8   23.10   19.20
   4  -7  -8  -13.40   29.30
  -4   7   8   33.00   49.30
   4   7  -8   31.80   27.70
  -4   7   8   44.20   26.00
   4   7  -8   42.60   20.60
   4   7  -8   40.30    7.60
   4   7  -8   21.70   13.70
  -3  -7   8  129.09   16.90
   3  -7  -8   81.39   17.40
  -3  -7   8   91.19   11.80
   3  -7  -8   64.79   15.50
   3  -7  -8  125.79   24.30
  -3   7   8  104.79   34.60
   3   7  -8  111.59   25.70
   3   7  -8   86.09    9.50
   3   7  -8   60.09   13.40
  -3   7   8   64.99   33.50
   3   7  -8   76.59   17.10
  -2  -7   8   55.59   16.60
   2  -7  -8   63.49   13.30
  -2  -7   8   57.09    8.10
   2  -7  -8  108.19   19.00
  -2  -7   8   43.50   11.30
   2  -7  -8   47.80   11.90
  -2   7   8  111.29   30.40
   2   7  -8   61.79   10.50
   2   7  -8   87.79   25.80
  -2   7   8   89.69   19.10
   1  -7  -8  110.99   14.70
  -1  -7   8  106.59   13.60
  -1  -7   8  101.29   15.30
   1  -7  -8  139.29   20.20
  -1  -7   8  103.29   10.60
   1  -7  -8  115.19   13.50
  -1  -7   8  119.49   11.60
   1   7  -8  101.79   27.10
  -1   7   8  126.09   20.40
   1   7  -8  120.59   14.30
  -1   7   8  133.29   17.10
   0  -7   8   45.30   11.20
   0  -7   8   32.50    9.50
   0  -7  -8   28.20   10.20
   0  -7  -8   31.90    6.90
   0  -7  -8   34.30   15.90
   0  -7  -8   25.10    9.80
   0  -7   8   21.90   22.90
   0  -7   8   22.70    5.80
   0   7  -8   12.50   24.00
   0   7  -8   26.60    9.80
   0   7   8   32.40   16.20
   0   7   8   22.70   10.50
  -1  -7  -8   68.79   19.00
   1  -7   8   85.09    9.40
  -1  -7  -8   67.09    8.80
   1  -7   8   89.69   12.10
  -1  -7  -8   73.99    9.60
   1  -7   8  131.99   33.60
   1  -7   8   46.90   13.10
   1   7   8   37.80   11.60
  -1   7  -8  108.29   13.50
  -1   7  -8   76.89   26.80
   1   7   8  100.49   20.40
  -2  -7  -8   14.30    9.50
   2  -7   8   27.40   12.40
  -2  -7  -8   21.80   10.70
   2  -7   8  -54.79   35.60
  -2  -7  -8   84.49   19.90
   2  -7   8   23.80    8.00
   2  -7   8   13.70   14.00
  -2   7  -8    1.10   31.50
   2   7   8   44.80   24.00
   2   7   8   -6.40   18.20
  -2   7  -8   18.60   11.90
  -3  -7  -8   -6.60   20.40
  -3  -7  -8   -2.50   12.70
  -3  -7  -8   -6.10    9.40
   3  -7   8    4.60   16.30
   3  -7   8  -17.00   50.69
   3  -7   8    2.60   11.70
   3  -7   8    5.80   16.90
  -3   7  -8   30.40   36.30
   3   7   8   21.50   32.70
  -3   7  -8   13.20   15.10
   3   7   8   10.90   11.70
   3  -8  -8   31.10   17.50
   3  -8  -8   37.20   16.10
  -3  -8   8   27.40   11.40
   3  -8  -8   23.30   26.80
   3   8  -8   49.50   30.30
  -3   8   8   57.99   24.30
   3   8  -8   19.90   17.60
   3   8  -8   22.60   15.10
  -3   8   8   36.10   40.70
  -2  -8   8   59.39    8.80
   2  -8  -8   59.29   15.60
   2  -8  -8   64.59   20.10
  -2  -8   8   47.10   15.50
  -2  -8   8   33.80   15.40
   2  -8  -8   48.00   12.40
  -2  -8   8   49.30    9.40
   2   8  -8   47.50   28.40
   2   8  -8   88.99   16.20
  -2   8   8   47.20   35.20
   2   8  -8   44.90   12.80
  -2   8   8   64.29   22.70
  -1  -8   8  169.18   17.60
  -1  -8   8  117.49   12.70
  -1  -8   8  129.19   13.90
   1  -8  -8  154.08   23.70
  -1  -8   8  145.99   20.20
   1  -8  -8  171.38   18.30
   1   8  -8   74.39   31.40
  -1   8   8  141.49   20.80
  -1   8   8  132.19   24.90
   1   8  -8  154.28   16.30
   0  -8  -8  103.29   10.80
   0  -8   8   92.89    9.50
   0  -8   8   96.39   13.50
   0  -8  -8   86.49   11.00
   0  -8  -8   78.99   15.20
   0  -8   8   81.49   15.80
   0  -8   8   59.49   33.10
   0  -8  -8   94.39   20.00
   0   8  -8  102.69   32.20
   0   8   8   90.09   21.40
   0   8  -8   96.69   13.70
   1  -8   8   84.59   34.80
   1  -8   8   79.49   10.20
  -1  -8  -8   52.79   20.30
  -1  -8  -8   87.79    9.50
   1  -8   8   73.39   12.70
   1  -8   8   83.89   15.90
  -1  -8  -8   72.69    9.70
  -1  -8  -8   78.89   14.00
   1   8   8   67.09   13.20
   1   8   8   58.59   23.20
  -1   8  -8   72.79   14.50
  -1   8  -8   35.30   29.00
   2  -8   8   -2.50   15.40
   2  -8   8   31.80   12.70
  -2  -8  -8   26.20   13.00
   2  -8   8   -0.10   43.40
   2  -8   8   12.00    9.40
  -2  -8  -8   24.90   11.70
  -2  -8  -8    9.10   21.70
  -2   8  -8   -4.70   36.40
  -2   8  -8   33.70   15.00
   2   8   8   65.99   30.30
   2   8   8   42.30   23.80
   3  -9  -8   20.90   32.10
   3  -9  -8   43.60   18.00
  -3  -9   8    7.60   13.10
   3  -9  -8   -0.70   21.90
   3   9  -8   21.40   22.90
   3   9  -8    9.70   36.60
  -3   9   8   75.39   47.80
   3   9  -8   12.00   14.90
  -2  -9   8   46.80   19.00
  -2  -9   8   53.29   10.70
   2  -9  -8   37.20   24.70
  -2  -9   8   33.80   10.30
   2  -9  -8   60.49   13.90
  -2  -9   8    4.20   17.30
   2  -9  -8   49.40   17.90
   2   9  -8   26.10   18.90
   2   9  -8   45.30   33.20
  -2   9   8    8.40   23.50
   2   9  -8   40.70   13.90
  -2   9   8   54.09   39.70
   1  -9  -8   26.30   20.50
  -1  -9   8   19.60    6.90
  -1  -9   8    7.80   15.40
  -1  -9   8   17.00   13.10
   1  -9  -8   18.60   16.30
  -1  -9   8   26.50    8.00
   1  -9  -8   19.20    9.80
  -1   9   8   76.19   40.20
   1   9  -8   76.09   36.70
   1   9  -8   -5.40   12.20
  -1   9   8   33.70   21.30
   0  -9  -8   38.90    9.80
   0  -9   8   14.90    7.10
   0  -9  -8   14.30   13.90
   0  -9   8    6.10   15.40
   0  -9   8  -29.40   34.40
   0  -9  -8   33.40    8.40
   0  -9  -8   -7.50   21.40
   0  -9   8   20.90   12.50
   0   9  -8   32.20   13.60
   0   9  -8   15.70   35.70
   0   9   8   40.00   16.50
   0   9   8   20.30   24.60
   1  -9   8   49.70   17.30
  -1  -9  -8   74.39   23.20
  -1  -9  -8   47.90   15.60
  -1  -9  -8   52.99    9.40
   1  -9   8   71.09   15.10
  -1  -9  -8   52.69   11.30
   1  -9   8   67.89   42.40
   1  -9   8   74.99   10.10
  -1   9  -8   60.99   15.80
   1   9   8   22.40   16.00
  -1   9  -8  -14.00   32.70
   1   9   8   15.50   26.00
   2  -9   8   37.80   20.20
  -2  -9  -8   25.60   14.20
   2  -9   8   48.20   12.00
   2  -9   8   51.99   49.10
  -2  -9  -8   17.30   25.30
   2  -9   8   49.50   16.50
  -2  -9  -8   39.20   15.20
  -2   9  -8   64.49   17.90
   2   9   8  134.59   32.90
  -2   9  -8   47.30   39.10
   2   9   8   10.20   25.40
  -2 -10   8  -28.30   22.80
  -2 -10   8   -5.60   12.10
  -2 -10   8   16.50   20.40
   2 -10  -8   15.60   14.30
   2 -10  -8   13.30   20.30
   2 -10  -8   20.20   30.60
  -2  10   8  -16.50   26.00
   2  10  -8  -11.60   17.30
   2  10  -8   37.70   42.90
  -2  10   8  -19.50   46.30
  -1 -10   8   65.59   19.30
  -1 -10   8   42.80   18.60
  -1 -10   8   56.99   17.90
   1 -10  -8   69.69   31.10
   1 -10  -8   49.70   18.60
   1 -10  -8   18.20   12.20
   1  10  -8   56.69   16.20
   1  10  -8   66.59   45.30
  -1  10   8  100.99   28.50
  -1  10   8   36.00   47.70
  -1  10   8   62.99   11.40
   0 -10   8   53.29   18.10
   0 -10  -8   31.90   16.90
   0 -10  -8   58.39   19.30
   0 -10   8   45.00   16.00
   0 -10  -8   31.40   29.20
   0 -10  -8   36.60   12.10
   0 -10   8   41.60    8.50
   0 -10   8   51.69   18.30
   0  10  -8   64.29   44.00
   0  10  -8   58.79   16.70
   0  10   8   41.90   31.80
   1 -10   8   38.30    9.80
  -1 -10  -8   13.10   12.20
   1 -10   8    2.10   15.20
  -1 -10  -8    2.20   17.40
  -1 -10  -8   14.40   30.40
   1 -10   8    7.80   20.40
  -1 -10  -8   24.00    9.30
  -1  10  -8   32.10   18.70
   5   0  -9   -2.60   13.50
   5   0  -9   -4.90   14.70
   5   0  -9    7.20   16.10
   4   0  -9    6.30    9.00
   4   0  -9    6.30    9.90
   4   0  -9  -20.90   12.20
   3   0  -9   38.90   12.40
  -3   0   9   -0.30   10.10
  -3   0   9   17.30    6.80
   3   0  -9   14.90    6.50
   2   0  -9   -1.60    5.10
   2   0  -9  -10.10   12.00
  -2   0   9    1.70    7.30
  -2   0   9   15.70    8.70
  -2   0   9   -6.10    5.50
  -1   0   9   -6.90    9.20
   1   0  -9   21.50   12.20
  -1   0   9   11.90    6.00
   1   0  -9   -0.30    3.70
   0   0  -9   -4.30    3.90
   0   0   9  -10.20   13.60
   0   0  -9   11.80   12.60
   0   0   9    0.80    4.80
   1   0   9   11.30   14.60
  -1   0  -9    9.10    6.40
   1   0   9    0.20    5.10
  -1   0  -9    9.80    4.90
  -1   0  -9    3.10   18.40
  -2   0  -9   -9.80   16.90
   2   0   9  -12.10   19.80
  -2   0  -9   -0.20    6.00
   2   0   9   -3.10    6.40
   2   0   9    2.40    4.10
  -3   0  -9   28.20   20.90
   3   0   9   37.60   23.60
   3   0   9   12.80    7.50
  -3   0  -9   20.50    5.70
   3   0   9   23.40   12.50
   4   0   9    1.70   11.30
  -4   0  -9  112.19   30.50
   4   0   9   31.80   13.30
   4   0   9  -15.20   34.20
   5  -1  -9  240.38   27.60
   5  -1  -9  247.18   27.40
   5  -1  -9  269.57   31.00
   5   1  -9  229.38   26.50
   5   1  -9  251.77   26.20
   5   1  -9  231.28   26.40
   5   1  -9  319.97   28.60
   4  -1  -9   37.10   14.40
   4  -1  -9   17.90   11.40
   4   1  -9   21.40   13.70
   4   1  -9   20.00    8.70
   4   1  -9   29.10   13.40
   4   1  -9   16.90   10.40
   3  -1  -9    6.70   11.80
   3  -1  -9   21.40   10.40
  -3  -1   9   19.80    8.20
   3   1  -9   25.00   12.50
  -3   1   9   23.40   12.00
   3   1  -9    8.70    6.70
   3   1  -9   17.50    5.40
  -3   1   9   20.90    6.70
   2  -1  -9  105.49   11.60
  -2  -1   9  115.19   12.20
  -2  -1   9  123.49   14.60
   2  -1  -9   91.69   14.80
  -2  -1   9   99.49   11.70
   2   1  -9  104.89    8.40
  -2   1   9  103.69   11.30
  -2   1   9   70.29   11.20
   2   1  -9  118.89   16.20
  -2   1   9  136.39   16.30
   2   1  -9   91.29   10.40
  -1  -1   9   33.50    6.40
  -1  -1   9   31.70    7.70
   1  -1  -9   59.19   12.90
   1  -1  -9   31.80    5.40
  -1  -1   9   57.99   11.60
   1   1  -9   23.90   12.60
  -1   1   9   53.79   12.50
   1   1  -9   27.30    5.00
   1   1  -9   21.50    7.60
  -1   1   9   47.10    7.60
   0  -1  -9    5.60    4.10
   0  -1   9   -5.40    4.40
   0  -1  -9  -25.30   13.20
   0  -1   9   -7.10   13.60
   0  -1  -9    1.50    2.90
   0   1  -9    5.30    3.60
   0   1  -9  -13.80   12.00
   0   1   9   11.90   11.50
   0   1  -9    0.30    6.80
   0   1   9    2.80    5.00
   1  -1   9   22.40   15.00
  -1  -1  -9   14.20    4.90
  -1  -1  -9    5.80   18.50
   1   1   9   28.50   15.60
  -1   1  -9   10.10    5.70
   1   1   9    6.00    5.40
   2  -1   9   24.20   18.50
  -2  -1  -9   10.10   16.50
   2  -1   9   26.90    5.10
   2  -1   9   14.80    6.00
  -2  -1  -9   21.60    6.30
  -2   1  -9   10.90   17.80
   2   1   9   26.60   15.10
   2   1   9   38.80    7.00
  -2   1  -9   20.10    7.40
   2   1   9   28.50    5.50
  -3  -1  -9    7.10    5.20
  -3  -1  -9   44.00   21.00
   3  -1   9   28.60   26.60
   3  -1   9   35.30    8.00
   3  -1   9   19.30    8.50
  -3   1  -9   -4.60   21.00
   3   1   9   61.59   25.30
   3   1   9   13.50    8.80
  -3   1  -9   26.40    6.60
   3   1   9   10.40    6.30
  -4  -1  -9    6.30   25.40
   4  -1   9   36.80   12.90
   4  -1   9  110.89   38.70
   4  -1   9   56.59   12.50
   4   1   9   40.30   11.40
  -4   1  -9   12.30   30.10
   4   1   9   48.20   13.10
   4   1   9  -54.79   36.80
   5  -2  -9   38.90   23.10
   5  -2  -9   26.30   20.40
   5   2  -9   17.70   12.80
   5   2  -9   13.90   12.60
   5   2  -9   12.70   18.80
   5   2  -9    6.40   13.20
   5   2  -9    2.00   13.00
   4  -2  -9   13.50   10.80
   4  -2  -9   31.90   14.70
   4   2  -9   27.80   13.40
   4   2  -9   16.70   13.90
   4   2  -9   15.90    7.90
   4   2  -9    1.10    8.30
   4   2  -9   10.40   11.10
  -3  -2   9  372.66   31.10
  -3  -2   9  365.66   29.20
   3  -2  -9  414.26   29.30
   3  -2  -9  311.47   32.90
  -3   2   9  361.46   33.10
   3   2  -9  319.67   32.80
   3   2  -9  406.16   28.10
   3   2  -9  368.26   26.70
  -3   2   9  344.97   30.10
  -3   2   9  380.66   27.60
  -2  -2   9  322.57   24.90
  -2  -2   9  283.27   25.00
   2  -2  -9  318.77   24.30
  -2  -2   9  307.97   24.90
   2  -2  -9  312.97   28.80
  -2   2   9  309.77   24.00
   2   2  -9  330.37   23.30
   2   2  -9  290.57   29.20
   2   2  -9  327.57   25.90
   2   2  -9  311.57   21.90
  -1  -2   9   72.59    9.10
   1  -2  -9   44.40    6.50
  -1  -2   9   63.89    7.50
   1   2  -9   48.10    5.90
  -1   2   9   74.19    8.40
   1   2  -9   42.70    8.30
   1   2  -9   75.69   14.10
   0  -2  -9  166.88   12.50
   0  -2   9  157.48   13.60
   0  -2  -9  157.48   21.10
   0  -2  -9  166.08   13.60
   0  -2   9  192.58   22.30
   0   2   9  201.08   20.00
   0   2   9  159.28   14.90
   0   2  -9  137.29   15.40
   0   2  -9  220.78   21.70
   0   2  -9  165.88   13.30
   1  -2   9    9.20    2.60
  -1  -2  -9   16.80    4.80
   1  -2   9   24.30   15.40
  -1  -2  -9   23.10   18.40
  -1  -2  -9    7.70    5.00
  -1   2  -9   32.30   17.10
  -1   2  -9    0.90    6.30
   1   2   9   18.20   16.10
   1   2   9   -2.80    5.60
  -2  -2  -9   12.50   13.20
  -2  -2  -9   43.80    8.10
   2  -2   9   57.59   20.40
   2  -2   9   51.29    8.40
   2  -2   9   37.70    6.00
   2   2   9   37.30   16.30
  -2   2  -9   43.70    8.10
   2   2   9   45.80    7.60
   2   2   9   48.30    6.60
  -2   2  -9   48.50   20.40
  -3  -2  -9   34.00   17.10
   3  -2   9   15.50    9.40
   3  -2   9   -4.50    8.20
   3  -2   9   24.10   27.10
   3   2   9   12.20    8.40
  -3   2  -9    7.80    7.30
   3   2   9    3.00   22.10
   3   2   9   14.80    9.00
  -3   2  -9    3.00   24.60
  -4  -2  -9   -3.90   24.10
   4  -2   9    8.90   12.80
   4  -2   9   -4.80   47.10
   4  -2   9   43.70   13.50
  -4   2  -9   26.80   34.60
   4   2   9  -23.30   37.40
   4   2   9   40.40   13.20
   4   2   9   44.90   13.20
   5  -3  -9   19.80   19.90
   5  -3  -9   14.40   21.10
   5   3  -9   -2.30   11.00
   5   3  -9   11.30   12.90
   5   3  -9    8.90   19.90
   5   3  -9   -0.20   12.90
   5   3  -9  -18.40   14.50
   4  -3  -9   84.99   15.60
   4   3  -9   90.89   17.40
   4   3  -9   64.39   10.70
   4   3  -9   90.99   13.90
   4   3  -9   89.39   10.20
   4   3  -9   65.29   15.80
  -3  -3   9  217.48   24.00
  -3  -3   9  330.77   26.30
   3  -3  -9  285.57   30.10
   3   3  -9  259.97   20.60
   3   3  -9  277.77   24.30
   3   3  -9  304.17   21.90
  -3   3   9  311.87   25.00
  -2  -3   9   55.59    8.90
   2  -3  -9   54.39    8.30
   2  -3  -9   56.09   14.20
  -2  -3   9   64.69    9.60
  -2   3   9   53.09   10.60
   2   3  -9   31.20   14.20
  -2   3   9   60.39   12.90
   2   3  -9   60.89    7.10
  -2   3   9   69.89    8.40
   2   3  -9   74.09   10.00
  -1  -3   9  118.59   17.10
  -1  -3   9  113.89   12.50
   1  -3  -9   98.59   14.90
  -1  -3   9   86.29   10.30
   1  -3  -9   97.29   10.00
   1   3  -9   93.49    9.20
  -1   3   9   94.39   11.40
   1   3  -9   77.79   10.60
   1   3  -9   90.89   16.30
   0  -3  -9    4.70    4.30
   0  -3  -9    7.90    3.30
   0  -3  -9   10.60   13.20
   0  -3   9    5.40    4.50
   0  -3   9  -10.80   13.80
   0   3   9   17.60   13.80
   0   3  -9    1.00    4.40
   0   3  -9    2.80    6.00
   0   3  -9    7.10   14.10
   0   3   9   12.10    6.60
   1  -3   9   52.29    7.00
   1  -3   9   63.79   21.50
  -1  -3  -9   80.29   14.30
   1  -3   9   59.19    5.90
  -1  -3  -9   63.99    7.10
  -1  -3  -9   47.00    6.90
  -1   3  -9   56.69    9.30
   1   3   9   42.50    9.70
  -1   3  -9   71.29   17.00
   1   3   9   76.39   18.40
  -2  -3  -9    7.60   15.20
  -2  -3  -9   12.50    6.70
   2  -3   9   16.50    6.90
   2  -3   9   21.80    5.50
   2  -3   9   34.80   24.00
   2   3   9   12.60    6.90
  -2   3  -9   21.60   20.70
  -2   3  -9   28.80    8.10
   2   3   9   31.80   19.60
   3  -3   9   71.09   32.80
   3  -3   9   18.10    9.30
   3  -3   9   26.70   10.00
  -3  -3  -9   33.20   20.00
   3   3   9   23.10   10.00
   3   3   9   45.80    9.80
   3   3   9   38.60   22.40
  -3   3  -9   64.19   28.40
  -3   3  -9   24.60    9.00
   5  -4  -9  -13.70   20.10
   5  -4  -9    2.60   24.60
   5   4  -9   18.50   23.60
   5   4  -9   -3.20   12.10
   5   4  -9    6.30   14.90
   5   4  -9   16.00   11.90
   4  -4  -9  166.08   24.80
   4  -4  -9  115.69   18.40
   4   4  -9  156.18   17.30
   4   4  -9  151.28   21.30
   4   4  -9  142.19   14.90
   4   4  -9  155.58   16.10
   4   4  -9  150.18   21.70
  -3  -4   9  121.49   15.70
   3  -4  -9  143.09   20.50
   3  -4  -9   76.49   13.20
  -3  -4   9  168.88   17.50
  -3   4   9  122.69   10.60
  -3   4   9  120.89   16.50
   3   4  -9  118.69   20.40
  -3   4   9   91.69   20.80
   3   4  -9   86.59   13.10
   3   4  -9  115.49   10.80
   3   4  -9   99.49   16.00
   3   4  -9  123.19   11.70
  -2  -4   9  362.56   27.90
  -2   4   9  369.86   31.20
   2   4  -9  355.46   26.30
  -1  -4   9   99.69   11.70
   1  -4  -9   65.29   16.80
  -1  -4   9  143.59   13.70
   1  -4  -9  119.29   11.60
   1   4  -9  105.89   10.00
   1   4  -9  112.99   12.40
  -1   4   9  118.99   16.00
   1   4  -9  166.38   21.70
   0  -4   9   38.90   17.20
   0  -4   9   31.80    5.60
   0  -4  -9   37.50    5.40
   0  -4  -9   29.70    5.60
   0  -4   9   44.40    8.90
   0  -4  -9   37.70   14.10
   0   4   9   39.40    8.50
   0   4  -9   14.60   35.50
   0   4  -9   29.60    8.60
   0   4   9   60.09   16.40
  -1  -4  -9  620.94   50.29
   1  -4   9  656.93   45.00
  -1  -4  -9  632.44   44.80
  -1  -4  -9  682.43   45.10
  -1   4  -9  653.93   46.20
   1   4   9  568.34   50.99
  -1   4  -9  543.55   53.69
  -2  -4  -9   48.90   16.70
   2  -4   9   34.80   23.10
   2  -4   9   12.40    6.80
  -2  -4  -9   15.70    7.40
  -2  -4  -9    6.20    7.20
   2  -4   9    9.50    5.90
  -2   4  -9   11.00   19.70
   2   4   9    6.60   17.70
   2   4   9    8.20    8.00
  -2   4  -9   11.40    8.60
   3  -4   9   53.59   35.10
   3  -4   9   83.99   17.70
  -3  -4  -9   68.69   22.60
   3  -4   9   76.59   11.70
  -3  -4  -9   66.19    7.80
  -3  -4  -9   49.20    7.90
   3   4   9   60.59   10.70
   3   4   9   17.90   24.50
   3   4   9   82.39   12.20
  -3   4  -9   60.39   31.70
  -3   4  -9   59.69   11.30
   4  -5  -9  150.88   25.90
   4  -5  -9   68.49   17.80
  -4   5   9   52.39   20.30
  -4   5   9   73.19   18.00
   4   5  -9   99.89   21.80
   4   5  -9  105.09   11.50
   4   5  -9  138.19   15.90
   4   5  -9  117.29   20.40
   4   5  -9  109.79   13.80
  -3  -5   9   26.10   12.40
  -3  -5   9   20.80   11.20
   3  -5  -9    0.20   10.90
   3  -5  -9   14.60   17.40
  -3   5   9    3.50   21.70
   3   5  -9   -1.40    9.10
  -3   5   9   34.30   17.70
   3   5  -9   20.10   18.10
   3   5  -9    6.30    5.80
   3   5  -9   35.50   14.20
   2  -5  -9    9.60    7.80
  -2  -5   9    0.30    9.00
   2  -5  -9   14.90   17.00
  -2  -5   9    6.20    7.80
  -2   5   9   -4.80   13.90
  -2   5   9    1.70   12.80
   2   5  -9    8.20    4.50
   2   5  -9   28.30   18.50
  -2   5   9   23.20   23.30
   2   5  -9   -2.50    7.40
  -1  -5   9   34.60   18.00
  -1  -5   9   16.70    5.60
   1  -5  -9    4.50    6.50
   1  -5  -9    1.70   14.40
  -1  -5   9   15.60    3.50
  -1  -5   9   13.00    7.70
   1   5  -9   12.00    4.60
   1   5  -9   11.80    8.50
   1   5  -9    7.00   18.10
  -1   5   9   10.60    8.90
  -1   5   9   -5.60   15.30
   0  -5  -9  111.49   17.70
   0  -5   9   73.09   15.70
   0  -5   9   83.89    7.50
   0  -5   9   88.59    9.90
   0  -5   9  105.79   22.60
   0  -5   9  130.99   13.70
   0  -5  -9   84.09   10.50
   0  -5  -9   95.69    9.70
   0   5   9  116.19   22.50
   0   5  -9   92.69   12.70
   0   5  -9  139.19   23.60
  -1  -5  -9  116.99   11.40
   1  -5   9   60.39   25.80
   1  -5   9   94.39   11.20
   1  -5   9  105.39   13.80
  -1  -5  -9  109.09   10.50
  -1  -5  -9   77.99   18.80
   1  -5   9  107.99   17.00
  -1   5  -9  122.69   25.70
  -1   5  -9  123.19   13.50
   1   5   9   91.19   20.90
   1   5   9   98.29   13.40
   2  -5   9  132.19   29.80
  -2  -5  -9  133.19   23.40
  -2  -5  -9  132.49   16.30
   2  -5   9  133.49   15.80
   2  -5   9  176.28   19.70
  -2  -5  -9  121.39   15.00
  -2   5  -9  157.88   15.80
   2   5   9  154.98   16.00
  -2   5  -9  107.69   28.60
   2   5   9  108.99   24.20
  -3  -5  -9   -8.00   22.10
   3  -5   9    5.40   10.30
   3  -5   9   16.90   38.20
  -3  -5  -9   13.70    7.20
  -3  -5  -9   15.90   10.90
  -3   5  -9   30.70   11.90
   3   5   9  -18.70   24.20
  -3   5  -9  -64.49   29.00
   3   5   9    4.00   10.70
   4  -6  -9   81.19   19.00
   4  -6  -9   77.89   26.40
   4   6  -9   47.30   21.30
   4   6  -9   59.99   22.50
   4   6  -9   85.79    9.70
  -4   6   9   23.10   28.00
  -4   6   9   62.69   19.50
   4   6  -9   69.69   16.40
   3  -6  -9   37.40   12.90
   3  -6  -9   49.20   21.60
  -3  -6   9   61.09   13.70
  -3  -6   9   20.90   13.80
   3   6  -9   21.20   15.60
  -3   6   9   65.99   20.60
   3   6  -9   35.90   12.30
   3   6  -9   29.00    6.80
   3   6  -9   37.40   21.20
  -3   6   9   13.60   32.50
  -2  -6   9  209.48   14.90
   2  -6  -9  148.99   22.50
  -2  -6   9  202.48   19.50
  -2  -6   9  185.78   17.70
   2  -6  -9  167.78   18.50
   2   6  -9  148.69   24.60
   2   6  -9  151.48   14.20
  -2   6   9  154.68   32.10
   1  -6  -9   -3.00   15.80
  -1  -6   9   11.70   19.60
  -1  -6   9    6.00   13.40
  -1  -6   9   11.30    4.10
  -1  -6   9    5.50    9.00
  -1  -6   9    2.00    6.70
   1   6  -9   11.30   20.70
  -1   6   9   10.10   10.90
   1   6  -9    8.00    8.50
  -1   6   9   18.10   18.90
   0  -6   9   -3.50   21.70
   0  -6   9    5.90   10.60
   0  -6  -9   25.20   16.10
   0  -6   9   11.30    9.40
   0  -6  -9    8.00    5.80
   0  -6  -9   18.90    6.10
   0  -6   9   11.40    3.90
   0  -6   9    4.80    5.30
   0   6  -9    9.00   23.60
   0   6   9  -10.70   18.30
   0   6   9    8.30   10.00
   0   6  -9   10.10    9.50
  -1  -6  -9  269.27   24.70
   1  -6   9  241.98   25.50
  -1  -6  -9  232.68   31.50
   1  -6   9  285.77   22.40
  -1  -6  -9  304.77   22.10
   1  -6   9  276.37   28.40
   1  -6   9  328.27   41.00
  -1  -6  -9  309.27   22.50
   1   6   9  275.67   34.20
  -1   6  -9  290.77   38.60
   1   6   9  277.17   24.80
  -1   6  -9  284.27   25.80
  -2  -6  -9   66.29   10.40
   2  -6   9   64.09   11.20
   2  -6   9   42.30   16.30
  -2  -6  -9   35.20   20.70
   2  -6   9   42.60   32.10
  -2  -6  -9   80.29   11.90
  -2   6  -9   78.79   27.90
   2   6   9   47.10   11.90
  -2   6  -9   62.49   13.20
   2   6   9   19.20   26.40
  -3  -6  -9   76.99   25.70
  -3  -6  -9   87.09   14.60
  -3  -6  -9   80.09   10.60
   3  -6   9   60.09   45.50
   3  -6   9   67.99   12.60
   3  -6   9   73.49   21.50
   3   6   9   83.59   13.70
  -3   6  -9   27.30   35.50
  -3   6  -9   64.59   15.30
   3   6   9   49.80   33.30
   4  -7  -9   27.00   20.90
   4  -7  -9   11.80   31.10
   4  -7  -9  -15.50   19.50
  -4   7   9   10.90   24.20
  -4   7   9   48.70   33.40
   4   7  -9   15.20   15.20
   4   7  -9    7.70    7.60
   4   7  -9    9.60   22.20
   4   7  -9   28.00   30.90
  -3  -7   9  -14.10   17.50
   3  -7  -9   16.80   14.50
   3  -7  -9  -11.90   21.90
   3  -7  -9    0.60   14.80
  -3   7   9  -13.60   34.20
   3   7  -9   -3.10   16.10
   3   7  -9  -19.20   27.40
   3   7  -9   -6.10   11.40
   3   7  -9   -8.50    5.60
  -3   7   9   -0.20   23.20
   2  -7  -9   15.10   13.70
  -2  -7   9   23.70   11.20
  -2  -7   9   17.50    7.10
   2  -7  -9   13.00   10.70
  -2  -7   9   -2.00    8.80
   2  -7  -9    4.50   19.00
  -2   7   9   23.20   20.00
   2   7  -9   20.30   10.50
   2   7  -9  -83.09   48.40
  -2   7   9   -4.70   31.10
   1  -7  -9  161.08   18.50
   1  -7  -9  160.48   16.60
   1  -7  -9  207.28   25.10
  -1  -7   9  158.98   18.90
  -1  -7   9  167.28   15.50
  -1  -7   9  183.28   21.60
  -1  -7   9   88.59   27.10
  -1  -7   9  147.79   13.20
   1   7  -9  116.39   28.60
   1   7  -9  187.68   19.00
  -1   7   9  137.69   19.00
  -1   7   9  170.18   23.70
   0  -7   9   38.60   14.70
   0  -7   9   16.70   27.80
   0  -7  -9   33.20    7.50
   0  -7  -9   37.00    7.80
   0  -7  -9   51.59   11.70
   0  -7   9   33.80   11.00
   0  -7   9   31.40    6.10
   0  -7   9   31.30    7.30
   0  -7  -9   54.29   21.20
   0   7   9   26.70   12.50
   0   7  -9   41.00   10.90
   0   7  -9   36.90   28.00
   0   7   9   56.69   20.30
   1  -7   9   19.90    7.70
  -1  -7  -9    3.80   19.60
  -1  -7  -9    6.90    7.30
  -1  -7  -9    7.90   12.10
   1  -7   9   -1.10   34.10
  -1  -7  -9   23.60    7.10
   1  -7   9    4.30   15.00
   1  -7   9    3.30   10.00
   1   7   9   -1.90   10.70
   1   7   9   -1.40   21.30
  -1   7  -9  -22.60   27.90
  -1   7  -9   -1.30   11.60
   2  -7   9   65.29   12.00
   2  -7   9   74.49   18.60
   2  -7   9   67.09   15.30
   2  -7   9   24.00   42.50
  -2  -7  -9   55.79   23.60
  -2  -7  -9   56.09   12.80
   2   7   9   37.60   13.10
  -2   7  -9   49.50   14.20
  -2   7  -9   66.29   34.40
   2   7   9  123.99   29.10
   3  -8  -9   20.60   24.90
   3  -8  -9   -3.50   18.20
   3  -8  -9   26.60   18.30
  -3  -8   9    9.90   18.70
   3   8  -9   70.39   36.90
   3   8  -9  -10.20   19.50
  -3   8   9   26.10   24.40
  -3   8   9    7.70   43.40
   3   8  -9   20.30   15.60
   2  -8  -9    3.70   20.50
  -2  -8   9  -20.60   21.10
  -2  -8   9    5.10   10.10
   2  -8  -9   -5.90   13.70
  -2  -8   9   27.00    7.80
  -2  -8   9    7.10   14.40
   2  -8  -9   20.60   12.10
   2   8  -9   25.70   32.70
   2   8  -9   -0.90   12.80
  -2   8   9  -10.20   22.90
  -2   8   9   29.20   40.90
   1  -8  -9  103.29   21.80
  -1  -8   9   61.19   15.20
   1  -8  -9   51.39   10.90
  -1  -8   9   50.79   16.30
   1  -8  -9   65.09   15.40
  -1  -8   9   74.79    8.20
  -1  -8   9   71.69   10.10
   1   8  -9   25.90   32.00
  -1   8   9   90.99   20.10
   1   8  -9   75.79   13.10
  -1   8   9   25.60   23.10
   0  -8   9    8.00   11.90
   0  -8  -9    0.30    8.80
   0  -8   9  -19.70   14.30
   0  -8  -9   12.60    7.90
   0  -8   9   12.00    6.30
   0  -8  -9   -6.40   20.20
   0  -8   9   21.60   34.70
   0  -8  -9    2.60   12.20
   0   8   9   -8.60   21.70
   0   8  -9   -9.30   11.50
   0   8   9    3.10   14.40
   0   8  -9    0.60   29.80
  -1  -8  -9   17.20   14.00
   1  -8   9   27.90   13.00
   1  -8   9   37.70    9.30
  -1  -8  -9   21.50    8.80
   1  -8   9   38.70   17.30
   1  -8   9   -4.30   37.00
  -1  -8  -9   11.40   21.80
  -1   8  -9   54.99   14.80
   1   8   9   39.20   28.50
  -1   8  -9    6.20   36.80
   1   8   9   45.00   13.90
   2  -8   9   -8.30   18.70
   2  -8   9  -10.50   50.49
   2  -8   9   14.80   14.10
   2  -8   9   23.80   11.40
  -2  -8  -9   13.20   23.80
  -2  -8  -9   52.39   13.40
  -2  -8  -9   -1.90   14.50
  -2   8  -9   53.59   45.00
   2   8   9    8.80   32.60
  -2   8  -9   18.50   15.60
   2   8   9   27.30   13.80
   2  -9  -9    7.20   17.20
   2  -9  -9    3.50   13.30
  -2  -9   9  -18.60   22.90
   2  -9  -9  -28.10   24.90
  -2  -9   9   -8.00   10.40
  -2  -9   9   16.00   17.20
  -2  -9   9   12.90    9.80
   2   9  -9   28.10   14.40
  -2   9   9    3.30   45.50
   2   9  -9  -11.30   39.60
  -2   9   9   23.90   26.50
  -1  -9   9   72.99   16.70
  -1  -9   9  104.79   10.70
   1  -9  -9   76.69   24.40
  -1  -9   9   59.09   20.40
   1  -9  -9   93.49   12.70
   1  -9  -9  103.49   19.50
  -1  -9   9   58.99   11.90
   1   9  -9   89.59   17.30
  -1   9   9  121.19   28.70
   1   9  -9   29.10   40.00
  -1   9   9   42.20   47.30
   0  -9   9    2.70    7.70
   0  -9  -9   -1.20    9.60
   0  -9   9  -37.70   40.30
   0  -9  -9   -1.10    9.20
   0  -9  -9   -1.30   16.90
   0  -9   9    7.60    8.30
   0  -9  -9   33.70   24.10
   0  -9   9  -16.50   13.90
   0  -9   9  -10.00   17.60
   0   9  -9   28.70   15.10
   0   9  -9  -16.20   36.00
   0   9   9    9.70   26.30
   0   9   9   30.20   18.10
  -1  -9  -9    8.40    9.70
   1  -9   9   17.60   43.50
  -1  -9  -9   13.30   15.90
  -1  -9  -9    2.80    9.90
   1  -9   9   11.40   14.70
  -1  -9  -9   11.00   24.30
   1  -9   9   46.40   19.30
   1  -9   9    7.80    9.50
  -1   9  -9   28.00   42.80
  -1   9  -9   37.50   17.30
   1   9   9   -9.20   30.00
   1   9   9   44.10   15.80
   1 -10  -9   69.89   20.30
  -1 -10   9   36.30   19.40
  -1 -10   9   56.49   11.00
  -1 -10   9   42.60   23.40
   1  10  -9   42.00   19.00
  -1  10   9   44.40   13.00
   5   0 -10    9.30   14.30
   5   0 -10   -4.80   18.40
   5   0 -10   10.70   15.00
   4   0 -10   21.70   14.70
  -4   0  10    9.60   11.70
   4   0 -10   20.90    9.30
   4   0 -10   12.20   10.60
  -3   0  10    9.70    8.10
   3   0 -10    2.10   15.20
  -3   0  10   -4.10   12.80
   3   0 -10    3.80    7.20
   2   0 -10  112.49   19.10
  -2   0  10  160.88   17.90
   2   0 -10  132.99   12.90
  -2   0  10  134.39   14.60
  -1   0  10   31.80    8.20
   1   0 -10   22.60    4.90
   1   0 -10   -2.20   12.90
  -1   0  10   11.30   11.70
   0   0  10  103.19   17.70
   0   0 -10   75.89   12.30
   0   0  10   83.39   14.30
   0   0 -10   81.19    9.10
  -1   0 -10   88.49   11.50
  -1   0 -10   52.49   17.80
  -1   0 -10   63.29   10.20
   1   0  10   56.19    7.60
   2   0  10  -24.40   19.20
  -2   0 -10   19.50    7.50
   2   0  10   18.20    5.30
  -2   0 -10    7.70   22.40
   2   0  10   10.00    6.30
   3   0  10   22.70   28.90
  -3   0 -10   32.30    7.20
  -3   0 -10   -9.90   24.50
   3   0  10   24.90    8.40
   3   0  10   53.19   10.70
   5  -1 -10   15.80   21.30
   5  -1 -10   10.00   14.70
   5  -1 -10   12.80   18.40
   5   1 -10    7.30   18.00
   5   1 -10  -13.20   17.50
   5   1 -10    1.60   15.60
   5   1 -10  -16.30   14.10
  -4  -1  10   10.10   12.60
   4  -1 -10   -4.30   11.70
   4  -1 -10    4.10   15.00
   4   1 -10   -0.50   14.20
   4   1 -10    9.20   16.10
   4   1 -10    2.60    8.60
   4   1 -10    6.60    9.80
   3  -1 -10    2.80    8.10
   3  -1 -10    1.30   13.30
  -3  -1  10   17.10    8.00
  -3  -1  10   20.10   11.80
   3   1 -10   10.10   11.60
   3   1 -10    8.50    5.70
  -3   1  10   13.50    7.60
  -3   1  10   22.10   14.30
   3   1 -10   24.60   14.90
   2  -1 -10   48.80   14.30
  -2  -1  10   41.90   12.00
  -2  -1  10   36.60    8.90
   2  -1 -10   38.90    7.00
   2   1 -10   38.40   11.10
   2   1 -10   34.80    6.20
  -2   1  10   27.30    7.90
   2   1 -10   37.80    3.90
  -2   1  10   23.80   11.50
  -2   1  10   32.40    9.00
   2   1 -10   33.80   15.30
  -1  -1  10   44.70    9.40
   1  -1 -10   31.20   14.50
  -1  -1  10   50.29    8.50
  -1  -1  10   31.30   13.50
   1  -1 -10   36.70    4.30
   1  -1 -10   46.90    6.50
   1   1 -10   28.30    9.40
  -1   1  10   32.60   13.60
   1   1 -10   38.20   16.50
   1   1 -10   44.30    6.20
   0  -1 -10   25.80   20.20
   0  -1 -10   51.99    5.70
   0  -1  10   54.19   16.40
   0  -1 -10   53.49    7.20
   0   1 -10   49.40    9.50
   0   1  10   63.19    9.50
   0   1  10   27.20   13.90
   0   1 -10   60.69    7.10
  -1  -1 -10  108.19   13.40
   1  -1  10  107.99   11.90
   1   1  10  110.99   12.20
  -1   1 -10  116.09   12.40
  -2  -1 -10   27.30   19.40
   2  -1  10   23.40    7.60
  -2  -1 -10   26.70    7.60
   2  -1  10   58.29   23.10
   2  -1  10   24.80    5.10
   2   1  10   19.10    7.70
  -2   1 -10   -6.90   20.60
   2   1  10   29.00    6.10
   2   1  10   42.70   22.10
  -2   1 -10   28.00    8.90
  -3  -1 -10   15.60    6.50
   3  -1  10   -2.10   13.80
   3  -1  10   35.40   31.10
  -3  -1 -10   32.30   24.20
   3  -1  10   -1.40    9.20
   3   1  10    3.60    9.00
   3   1  10   20.50    8.90
  -3   1 -10   45.90   28.90
   3   1  10   11.00   30.90
  -3   1 -10   11.80    7.30
   5  -2 -10   22.60   17.20
   5  -2 -10  -15.80   23.70
   5   2 -10   19.10   13.80
   5   2 -10    0.50   16.60
   5   2 -10    9.90   12.90
   5   2 -10   13.10   15.40
   4  -2 -10   44.80   13.80
  -4  -2  10   18.60   14.60
   4  -2 -10   29.50   20.10
   4   2 -10   30.70   13.80
   4   2 -10   39.30   10.30
   4   2 -10   47.40   17.60
   4   2 -10   26.20    9.00
  -3  -2  10   12.70    9.30
   3  -2 -10   19.00    8.40
   3  -2 -10  -11.60   14.40
  -3  -2  10    8.80   11.90
  -3   2  10   15.90   14.20
  -3   2  10   10.30   11.30
  -3   2  10   17.30   10.80
  -3   2  10   26.50    7.60
   3   2 -10   22.80   17.70
   3   2 -10   12.00    4.60
   3   2 -10    0.50   10.60
   3   2 -10   20.40    6.20
  -2  -2  10    9.40   10.80
  -2  -2  10   14.10    7.30
  -2  -2  10   16.00    7.80
   2  -2 -10   -7.50   13.00
  -2   2  10    8.00   13.10
   2   2 -10   22.60   16.80
  -2   2  10    7.20    9.30
   2   2 -10    4.30    5.00
  -2   2  10   21.10    7.50
  -1  -2  10    6.50   15.30
   1  -2 -10   33.50   15.70
  -1  -2  10   12.70    8.20
   1  -2 -10   35.50    6.50
  -1  -2  10   11.00    6.00
   1   2 -10   20.30    4.80
  -1   2  10   18.80   12.50
   1   2 -10   27.10    8.40
   1   2 -10   41.50   17.40
  -1   2  10   27.50    8.50
   0  -2 -10    4.70    4.70
   0  -2 -10   -0.50    3.70
   0  -2 -10  -12.90   13.10
   0  -2  10    5.10   17.80
   0   2 -10    1.80   20.00
   0   2 -10    4.70    6.90
   0   2 -10    4.50    4.70
   0   2  10    0.90    5.80
   0   2  10   -3.60   13.50
  -1  -2 -10  218.88   27.20
  -1  -2 -10  234.28   19.10
  -1  -2 -10  228.08   16.00
   1  -2  10  194.08   14.30
   1  -2  10  163.68   16.50
  -1   2 -10  177.68   18.50
   1   2  10  168.28   17.10
  -1   2 -10  256.67   31.10
   1   2  10  231.58   27.80
   2  -2  10   43.20    6.20
  -2  -2 -10   43.80    9.00
  -2  -2 -10   19.60   15.90
   2  -2  10   50.49   21.60
   2  -2  10   42.30    8.30
   2   2  10   24.00   21.50
  -2   2 -10   34.30    9.70
  -2   2 -10   27.00   21.70
   2   2  10   48.70    7.90
  -3  -2 -10   11.20    6.40
   3  -2  10   -0.90    9.90
   3  -2  10   -8.50   34.10
   3  -2  10    2.50    9.80
  -3  -2 -10    6.40   22.10
   3   2  10    7.40    9.10
  -3   2 -10  -15.20   28.30
  -3   2 -10   15.10    9.20
   3   2  10    3.30   25.00
   3   2  10   15.70    9.40
   4  -3 -10   11.20   13.30
  -4  -3  10   16.80   14.90
   4  -3 -10   30.90   19.50
   4   3 -10    6.80   12.50
   4   3 -10   16.40    9.40
   4   3 -10    1.20    7.70
   4   3 -10  -14.20   18.70
   3  -3 -10  109.69   13.50
   3  -3 -10  123.79   21.10
  -3  -3  10  105.89   14.60
  -3  -3  10  148.79   19.20
   3   3 -10  104.49   10.40
  -3   3  10  121.79   20.00
  -3   3  10  114.19   11.10
   3   3 -10  106.49   11.70
  -3   3  10   84.29   16.00
  -3   3  10   86.09   19.10
   3   3 -10   89.49   19.80
   3   3 -10  106.89   14.30
  -2  -3  10  146.89   15.90
   2  -3 -10   89.09   11.90
  -2  -3  10  140.49   15.50
  -2  -3  10  104.09   12.30
   2   3 -10   91.99   18.10
  -2   3  10  135.09   17.10
  -2   3  10  121.19   13.60
  -2   3  10   69.69   14.10
   2   3 -10  103.99   10.80
   1  -3 -10   35.40   13.60
  -1  -3  10   69.99    8.50
  -1  -3  10   69.99   10.70
  -1  -3  10   68.59   16.30
   1  -3 -10   37.90    6.90
   1   3 -10   56.49    7.00
  -1   3  10   63.89   17.50
   1   3 -10   40.30   17.70
  -1   3  10   47.50   10.10
   1   3 -10   57.99    9.30
   0  -3 -10   30.40    5.90
   0  -3  10   29.70   18.90
   0  -3 -10   26.50    4.80
   0  -3  10   16.60    6.00
   0  -3 -10   18.00   13.40
   0   3 -10   11.70    8.40
   0   3  10   67.59   17.90
   0   3 -10   25.00   16.30
   0   3  10   29.20    7.60
   0   3 -10   23.30    5.60
  -1  -3 -10  413.06   30.10
  -1  -3 -10  454.85   31.00
   1  -3  10  431.36   30.60
  -1  -3 -10  382.06   37.80
   1  -3  10  413.96   28.80
   1  -3  10  306.57   44.60
  -1   3 -10  471.85   32.10
   1   3  10  417.76   31.30
   1   3  10  321.27   39.70
  -1   3 -10  345.57   40.10
   2  -3  10   30.80    7.20
  -2  -3 -10   10.10   17.90
   2  -3  10   -5.10   27.60
   2  -3  10   19.90    6.10
   2   3  10   27.30    8.60
  -2   3 -10   -1.50   23.10
  -2   3 -10   36.80    9.40
   2   3  10    1.90   21.30
  -3  -3 -10   -3.30    6.40
  -3  -3 -10    1.60    7.30
   3  -3  10   25.90   39.50
   3  -3  10    4.50   10.40
  -3  -3 -10   -8.70   22.00
   3   3  10   -3.00    9.80
   3   3  10  -12.90   29.60
  -3   3 -10    4.40   10.10
   3   3  10   11.00   10.70
  -3   3 -10   10.10   29.20
   4  -4 -10   12.60   16.50
  -4  -4  10   29.70   16.00
   4  -4 -10   -4.00   22.50
   4   4 -10    5.70    8.90
   4   4 -10   -4.50    9.10
   4   4 -10   -2.10   12.00
   4   4 -10   -1.20   18.30
   4   4 -10   -5.70   18.30
   3  -4 -10   69.99   12.50
  -3  -4  10   42.60   16.30
   3  -4 -10   67.89   20.10
  -3  -4  10   57.39   12.70
  -3   4  10   29.80   20.80
   3   4 -10   62.09    8.20
   3   4 -10   52.39   19.90
   3   4 -10   58.39   11.40
  -3   4  10   58.89   17.10
  -3   4  10   75.09    8.20
  -3   4  10   48.80   17.60
   2  -4 -10   77.69   10.60
  -2  -4  10   62.69   11.10
   2  -4 -10   97.49   18.60
  -2  -4  10   90.89   11.50
  -2   4  10   93.59   15.80
   2   4 -10  137.89   21.90
   2   4 -10   97.69    9.90
  -1  -4  10  285.17   23.40
  -1  -4  10  343.97   25.60
   1  -4 -10  348.07   31.20
  -1   4  10  284.27   25.70
   1   4 -10  261.87   25.20
   1   4 -10  294.47   22.40
   0  -4  10   51.79   11.30
   0  -4 -10   64.39    6.60
   0  -4  10   54.29    7.30
   0  -4 -10   54.49    9.70
   0  -4 -10   36.70   15.60
   0  -4  10   74.09   22.80
   0   4 -10   53.49   20.20
   0   4  10   48.80   10.80
   0   4  10   36.00   17.90
   0   4 -10   55.69   11.00
  -1  -4 -10   87.19    9.30
  -1  -4 -10   84.19    9.80
   1  -4  10   84.89    9.90
   1  -4  10   77.79    7.70
  -1  -4 -10   76.49   18.80
   1  -4  10   95.79   25.80
  -1   4 -10   83.09   21.30
   1   4  10  132.19   22.70
  -1   4 -10   72.59   11.80
   1   4  10   74.69   11.00
  -2  -4 -10   23.60    9.00
   2  -4  10   47.40    7.90
  -2  -4 -10   30.50   20.60
   2  -4  10   50.19    9.30
   2  -4  10   55.19   28.90
   2   4  10   50.69   10.20
  -2   4 -10   55.89   25.30
  -2   4 -10   46.70   10.80
   2   4  10    6.80   24.80
   3  -4  10    6.20   12.20
  -3  -4 -10   25.80   26.90
   3  -4  10   84.69   38.90
  -3  -4 -10   12.90    7.10
   3  -4  10   29.80   11.40
  -3  -4 -10    3.60    7.50
  -3   4 -10    8.90   11.00
  -3   4 -10   44.20   33.60
   3   4  10    9.20   30.20
   3   4  10    6.80   11.40
   4  -5 -10    4.90   25.30
   4  -5 -10   39.90   17.50
  -4   5  10   36.40   15.50
   4   5 -10   23.40   14.40
   4   5 -10   13.30    9.20
  -4   5  10   -2.30   21.30
   4   5 -10   16.80   25.00
   4   5 -10   21.60    9.20
   4   5 -10   31.20   20.20
   3  -5 -10   71.99   23.60
  -3  -5  10   97.69   15.40
   3  -5 -10   75.09   13.90
  -3  -5  10   84.09   16.60
   3   5 -10   83.29   25.50
  -3   5  10   74.39    9.30
  -3   5  10  110.39   21.60
   3   5 -10   94.29   13.30
   3   5 -10   98.19   10.90
  -3   5  10   28.70   24.50
  -2  -5  10   92.89   12.80
  -2  -5  10   73.59   12.80
   2  -5 -10   76.49   19.60
   2   5 -10  108.19   23.00
  -2   5  10  150.98   20.60
  -2   5  10  124.89   17.50
   2   5 -10  102.89   10.70
  -1  -5  10   51.49   10.50
  -1  -5  10   45.10    8.50
   1  -5 -10   24.00    8.10
   1  -5 -10   51.99   17.90
  -1  -5  10   35.10   20.80
   1   5 -10   34.50   23.20
   1   5 -10   44.90    6.60
  -1   5  10   60.79   19.90
   1   5 -10   28.30    9.80
  -1   5  10   36.60   12.50
   0  -5 -10   15.60    5.50
   0  -5 -10   14.30    7.30
   0  -5 -10   26.30   16.60
   0  -5  10    9.70   21.50
   0  -5  10   -2.80   10.00
   0  -5  10   13.50    6.50
   0   5  10   15.80    9.40
   0   5  10  -16.30   17.60
   0   5 -10   22.40    9.70
   0   5 -10  -10.50   22.20
  -1  -5 -10  565.34   39.90
  -1  -5 -10  600.64   40.20
  -1  -5 -10  524.25   48.00
   1  -5  10  583.04   40.00
   1  -5  10  490.55   56.29
   1  -5  10  501.35   43.00
  -1   5 -10  575.94   42.30
   1   5  10  464.05   48.70
  -1   5 -10  459.35   52.79
   1   5  10  587.84   41.40
  -2  -5 -10    1.70    9.10
   2  -5  10    2.10    8.50
  -2  -5 -10   13.30   10.40
  -2  -5 -10    4.40   22.60
   2  -5  10   21.40   34.80
   2   5  10   -0.70   10.90
   2   5  10  -23.20   22.90
  -2   5 -10    6.80   11.70
  -2   5 -10   23.60   27.20
  -3  -5 -10   26.20   27.10
  -3  -5 -10   34.10   10.50
   3  -5  10   47.90   47.50
   3  -5  10   62.39   14.60
  -3  -5 -10   50.09   10.10
   3  -5  10   57.59   12.80
   3   5  10   39.70   14.00
  -3   5 -10   69.49   15.90
   3   5  10   64.99   35.60
  -3   5 -10   26.10   38.80
   4   6 -10  214.98   32.80
   4   6 -10  240.38   18.90
   4   6 -10  157.58   22.00
   4   6 -10  194.38   28.20
  -4   6  10  167.58   26.60
  -4   6  10  171.78   33.30
   3  -6 -10   25.20   24.10
  -3  -6  10   26.70   15.30
   3  -6 -10   22.00   13.20
  -3  -6  10  -18.20   14.20
  -3   6  10   13.60   31.40
  -3   6  10  -25.10   22.80
   3   6 -10   16.20   27.60
   3   6 -10   17.00   12.30
   3   6 -10   23.40    7.30
  -2  -6  10   53.69   11.00
   2  -6 -10   49.30   21.70
  -2  -6  10   52.69   12.40
   2  -6 -10   56.19   11.70
   2   6 -10   46.60    7.00
   2   6 -10   88.49   55.19
  -2   6  10   45.70   31.80
  -2   6  10   16.60   18.00
   2   6 -10   60.59   13.30
  -2   6  10   15.80   19.80
  -1  -6  10  144.99   25.10
  -1  -6  10  164.98   12.00
  -1  -6  10  129.89   15.90
   1  -6 -10  144.19   23.30
  -1  -6  10  162.68   19.20
  -1   6  10  136.29   18.00
   1   6 -10  139.09   16.60
   1   6 -10  147.89   28.30
  -1   6  10  183.88   25.30
   0  -6  10   19.50    7.10
   0  -6  10   11.60   10.20
   0  -6  10   20.80    4.00
   0  -6 -10   27.90    6.80
   0  -6  10   -8.30   27.70
   0  -6 -10   20.30    7.60
   0  -6 -10   16.80   19.10
   0   6  10   12.20   11.70
   0   6  10   36.10   19.40
   0   6 -10   42.70   28.50
   0   6 -10   34.70   10.60
  -1  -6 -10  276.67   27.00
   1  -6  10  221.78   40.70
   1  -6  10  262.17   27.50
  -1  -6 -10  245.78   32.00
  -1  -6 -10  274.97   23.80
   1  -6  10  340.87   35.20
   1  -6  10  313.97   23.70
  -1  -6 -10  299.47   23.70
   1   6  10  353.76   35.30
  -1   6 -10  293.57   27.60
   1   6  10  289.27   26.90
  -1   6 -10  348.57   39.50
  -2  -6 -10   26.90   11.00
   2  -6  10   66.59   17.50
   2  -6  10   75.99   21.90
   2  -6  10   32.40   10.10
  -2  -6 -10   61.09   13.90
  -2  -6 -10   37.80   24.70
   2  -6  10   47.50   40.50
  -2   6 -10   64.59   31.70
  -2   6 -10   53.99   13.50
   2   6  10   52.49   28.70
   3  -7 -10  -20.30   15.00
  -3  -7  10   -6.80   18.10
   3  -7 -10   -7.60   26.20
   3  -7 -10    6.20   16.70
  -3  -7  10   18.80   17.40
  -3   7  10    7.60   25.90
   3   7 -10    4.60    7.10
   3   7 -10   16.60   13.90
  -3   7  10   -6.60   35.70
   2  -7 -10   60.79   25.00
   2  -7 -10   35.90   15.50
  -2  -7  10   44.50   13.30
   2  -7 -10   43.40   12.30
  -2  -7  10   19.90   11.60
  -2   7  10   24.20   38.40
   2   7 -10   43.70   29.50
  -2   7  10   43.60   24.90
  -2   7  10   28.90   20.40
   2   7 -10   28.80   12.00
  -1  -7  10    4.90   25.40
   1  -7 -10   -4.00    8.10
  -1  -7  10   -1.20    5.10
   1  -7 -10  -30.60   19.90
   1  -7 -10   10.10   13.60
  -1  -7  10   13.80    9.10
  -1  -7  10   14.90   11.00
   1   7 -10    0.40   12.10
  -1   7  10   19.90   16.60
  -1   7  10   48.60   22.90
   1   7 -10   27.30   31.60
   0  -7 -10   44.00    9.40
   0  -7 -10   43.90    8.30
   0  -7  10   15.40   17.80
   0  -7 -10   33.00   14.20
   0  -7  10   67.19   32.40
   0  -7 -10   58.99   23.00
   0  -7  10   43.60    6.00
   0  -7  10   41.80   12.50
   0  -7  10   45.20    9.00
   0   7  10   29.40   14.50
   0   7 -10   49.20   12.50
   0   7 -10    1.60   30.60
   0   7  10   27.60   23.60
   1  -7  10  181.68   21.00
  -1  -7 -10  188.18   18.40
  -1  -7 -10  217.68   21.30
   1  -7  10  183.88   18.80
  -1  -7 -10  208.28   19.00
   1  -7  10  198.18   24.30
   1  -7  10  112.59   41.30
  -1  -7 -10  147.59   28.70
   1   7  10  202.18   33.40
   1   7  10  187.88   20.80
  -1   7 -10  181.08   43.20
  -1   7 -10  226.28   20.90
  -2  -7 -10   63.49   16.90
   2  -7  10   76.99   18.40
  -2  -7 -10   71.19   14.10
   2  -7  10   21.90   49.30
  -2  -7 -10  105.29   28.60
   2  -7  10   54.39   12.90
   2  -7  10   53.59   21.40
  -2   7 -10  117.29   37.60
   2   7  10   95.99   34.80
  -2   7 -10   48.40   15.90
   2   7  10   55.09   15.80
   3  -8 -10   24.90   28.90
   3  -8 -10    2.90   17.70
  -3  -8  10  -35.40   20.90
   3  -8 -10   -4.80   19.50
  -3   8  10  -45.10   42.60
   3   8 -10  -13.00   16.20
  -3   8  10   20.10   32.20
   3   8 -10  -15.20   36.40
  -2  -8  10    5.60   15.70
   2  -8 -10    8.80   16.30
  -2  -8  10    8.90   12.50
   2  -8 -10    5.10   14.10
   2  -8 -10   20.80   23.90
  -2  -8  10    5.00    8.10
  -2   8  10    3.80   27.20
   2   8 -10   13.30   14.40
   2   8 -10    0.90   33.50
  -2   8  10   26.40   44.80
  -1  -8  10   23.50   14.80
  -1  -8  10   33.00   20.70
   1  -8 -10   18.80   22.80
   1  -8 -10   27.10   16.30
  -1  -8  10    3.50    9.80
   1  -8 -10   24.30    9.80
  -1  -8  10   24.90    6.90
  -1   8  10   31.30   19.20
   1   8 -10  -11.40   33.30
   1   8 -10    3.30   14.50
  -1   8  10    0.30   24.80
   0  -8 -10   -2.10   23.00
   0  -8 -10   -3.20    8.60
   0  -8  10   49.30   34.90
   0  -8  10    2.90   12.70
   0  -8  10    2.70   17.90
   0  -8  10    9.90    8.80
   0  -8 -10   -2.60    8.80
   0  -8  10    2.00    5.90
   0  -8 -10  -23.10   14.60
   0   8  10   -7.60   30.10
   0   8  10   -9.70   15.10
   0   8 -10   16.30   13.60
   0   8 -10   36.00   36.50
  -1  -8 -10   93.79   12.30
   1  -8  10   84.19   18.40
   1  -8  10   86.69   12.50
   1  -8  10   42.50   46.10
  -1  -8 -10   86.99   18.70
   1  -8  10   90.59   22.40
  -1  -8 -10   77.39   12.80
  -1  -8 -10   85.29   27.70
   1   8  10   74.29   18.20
  -1   8 -10   89.59   40.10
  -1   8 -10   93.69   17.50
   1   8  10   18.70   32.00
  -2  -9  10   94.49   13.30
   2  -9 -10   62.69   22.80
  -2  -9  10   85.49   21.30
   2   9 -10  105.79   19.70
  -1  -9  10   19.20   10.70
   1  -9 -10   23.60   26.30
  -1  -9  10   55.19   25.40
  -1  -9  10    2.20   17.10
  -1  -9  10   24.50    8.60
   1  -9 -10   34.90   18.50
   1  -9 -10   12.60   11.60
   1   9 -10   -1.90   40.80
  -1   9  10  -19.10   30.00
  -1   9  10   28.60   25.20
   1   9 -10   -9.10   15.90
   0  -9  10   61.19   11.80
   0  -9 -10   68.39   20.80
   0  -9  10   27.10   45.00
   0  -9 -10   61.49   12.70
   0  -9  10   84.09   10.20
   0  -9  10   67.19   23.70
   0  -9  10   96.49   18.80
   0  -9 -10   73.59   12.50
   0  -9 -10   81.79   31.00
   0   9 -10   69.19   44.30
   0   9  10   64.99   21.90
   0   9 -10   98.19   19.00
   0   9  10   67.69   34.00
   4   0 -11    3.40   10.10
  -4   0  11    7.20   13.90
   4   0 -11   -6.30   10.80
   4   0 -11   -4.40   18.20
   3   0 -11  122.79   21.30
   2   0 -11    4.80   18.10
   2   0 -11    1.40    3.30
  -2   0  11    1.60   13.10
  -2   0  11    7.30    8.50
  -2   0  11   -5.00    7.40
   2   0 -11    2.90    5.80
  -1   0  11    8.60    8.10
   1   0 -11   39.80   18.10
  -1   0  11   13.20   16.40
   1   0 -11    3.80    8.90
   0   0  11    3.30    7.40
   0   0 -11    3.50    5.70
   0   0 -11    7.60   10.40
   0   0  11   15.10   16.70
   0   0 -11   -3.70   17.20
   1   0  11    7.30   19.10
  -1   0 -11  -20.50   18.10
  -1   0 -11    2.30    8.00
   1   0  11    4.70    6.40
   2   0  11  -25.30   24.50
  -2   0 -11  -29.30   27.20
   2   0  11   -3.30    7.10
   2   0  11   -1.40    6.00
  -2   0 -11    4.20    8.90
  -3   0 -11   -8.90    7.90
   3   0  11    2.00    9.70
   3   0  11    3.70   10.10
  -3   0 -11   -2.40   30.10
   3   0  11  -30.70   34.90
   4  -1 -11   -1.40   11.50
  -4  -1  11   30.00   14.90
   4  -1 -11   26.20   22.50
   4   1 -11   21.70   10.20
  -4   1  11   21.60   12.20
   4   1 -11   -3.30   10.30
   4   1 -11   25.60   15.50
   4   1 -11   30.70   19.90
  -3  -1  11  194.68   19.90
   3  -1 -11  222.68   19.80
  -3  -1  11  235.98   25.10
   3  -1 -11  139.49   22.40
   3   1 -11  184.08   15.40
   3   1 -11  190.48   17.70
   3   1 -11  203.28   22.40
  -3   1  11  203.08   23.20
   3   1 -11  195.28   25.20
  -3   1  11  181.88   19.40
  -2  -1  11    7.40    8.50
  -2  -1  11   29.80   10.60
   2  -1 -11    1.50    6.10
  -2  -1  11   19.00   13.30
   2   1 -11   10.70    7.70
   2   1 -11   12.50   18.40
  -2   1  11   -0.10   11.20
  -2   1  11   13.70    8.80
  -2   1  11   16.00   13.90
   2   1 -11   24.50   11.80
   1  -1 -11  204.48   14.70
  -1  -1  11  214.58   24.40
   1  -1 -11  206.18   16.90
  -1  -1  11  186.38   20.70
  -1  -1  11  200.28   19.00
   1  -1 -11  206.68   24.50
  -1   1  11  204.08   19.90
   1   1 -11  237.18   30.50
  -1   1  11  211.88   25.80
   0  -1  11  129.69   12.10
   0  -1  11   99.69   21.00
   0  -1 -11   91.29   10.50
   0  -1 -11   97.39   19.70
   0   1 -11  141.49   14.10
   0   1 -11  125.69   22.10
   0   1  11  109.49   21.70
   0   1 -11   87.59   11.00
   1  -1  11   99.89   24.00
   1  -1  11   35.20    6.90
  -1  -1 -11   48.30   19.10
  -1  -1 -11   54.09   10.90
  -1  -1 -11   37.40    7.40
  -1   1 -11   34.00    9.80
  -1   1 -11   42.30   21.50
   1   1  11   57.89   21.40
   1   1  11   45.50    8.60
   2  -1  11  249.28   19.00
  -2  -1 -11  228.68   30.90
  -2  -1 -11  246.38   22.20
   2  -1  11  242.58   21.60
  -2   1 -11  249.28   23.00
  -2   1 -11  254.07   33.20
   2   1  11  255.97   21.70
   2   1  11  227.68   33.50
   3  -1  11    4.80   34.80
  -3  -1 -11    0.70    7.70
  -3  -1 -11   21.60   29.70
   3  -1  11  -13.20   10.20
   3  -1  11   16.90   10.30
   3   1  11    1.90   35.50
   3   1  11    2.40    9.90
  -3   1 -11    8.70   34.60
   3   1  11   12.10   10.30
  -3   1 -11   18.90    9.40
  -4  -2  11   27.40   16.70
   4  -2 -11   13.70   12.80
   4  -2 -11   17.60   22.00
  -4   2  11   16.50   11.20
   4   2 -11   39.10   14.30
   4   2 -11   17.20   10.40
   4   2 -11   26.50   22.10
   4   2 -11   14.10    8.60
   3  -2 -11   60.39   10.60
   3  -2 -11   68.79   19.80
  -3  -2  11   61.79   13.00
  -3  -2  11   62.19   16.10
   3   2 -11   75.59    9.10
   3   2 -11   76.69   15.10
  -3   2  11   37.60   17.30
   3   2 -11   90.69   20.30
  -3   2  11   72.79   16.20
  -3   2  11   48.90   13.30
   3   2 -11   77.39    8.30
  -3   2  11   75.89   10.60
   2  -2 -11    1.90    6.30
  -2  -2  11   15.70   12.90
   2  -2 -11   -9.30   13.40
  -2  -2  11    0.10    8.90
   2   2 -11    9.30   10.30
  -2   2  11   18.10    8.70
  -2   2  11   15.80   15.20
  -2   2  11  -18.20   11.00
   2   2 -11   -9.00   19.10
   1  -2 -11  288.07   32.20
  -1  -2  11  233.98   33.40
  -1  -2  11  282.97   32.50
   1  -2 -11  333.17   23.30
   1  -2 -11  310.57   21.20
  -1  -2  11  305.07   24.00
   1   2 -11  263.67   23.20
   1   2 -11  286.87   31.80
  -1   2  11  308.77   25.70
  -1   2  11  270.37   32.10
   1   2 -11  292.67   25.80
   0  -2 -11  443.96   42.30
   0  -2 -11  470.05   34.20
   0  -2  11  474.05   45.60
   0  -2 -11  492.15   33.00
   0  -2  11  443.66   34.50
   0   2 -11  479.45   45.30
   0   2 -11  454.75   36.00
   0   2  11  451.25   35.20
   0   2 -11  498.05   34.10
   0   2  11  424.26   48.20
  -1  -2 -11   13.10   19.70
  -1  -2 -11   29.70    7.60
   1  -2  11   18.80   23.10
   1  -2  11   32.70    8.00
   1   2  11   -6.90   19.90
  -1   2 -11   40.80   24.40
   1   2  11   22.40    7.50
  -1   2 -11   30.20    9.10
   2  -2  11   17.90    5.10
   2  -2  11   73.29   27.40
  -2  -2 -11   19.40   20.30
   2  -2  11   23.90    9.00
  -2  -2 -11   16.20    9.30
   2   2  11   27.10    9.90
  -2   2 -11   56.69   26.60
   2   2  11    0.60   25.40
  -2   2 -11    9.60   10.30
  -3  -2 -11   -2.50    7.80
   3  -2  11    6.50   44.80
  -3  -2 -11   13.80   26.50
   3  -2  11   -7.80   10.90
  -3   2 -11  -31.80   31.60
   3   2  11   15.20   10.60
   3   2  11   -0.80   10.90
  -3   2 -11    4.90   11.00
   3   2  11   20.60   36.60
   4  -3 -11   15.50   14.50
   4  -3 -11   12.20   23.30
  -4  -3  11   36.50   16.50
   4   3 -11   19.70   15.30
   4   3 -11   11.30   22.80
   4   3 -11   24.20    9.30
   4   3 -11   10.90    7.70
  -3  -3  11   19.10   11.60
   3  -3 -11   -0.70    9.50
  -3  -3  11   -1.50   14.60
   3  -3 -11   -3.00   17.80
  -3   3  11    7.60    8.00
   3   3 -11   16.60    5.20
   3   3 -11   17.00    7.10
  -3   3  11   27.70   15.20
  -3   3  11  -16.70   18.50
  -3   3  11    2.30   18.80
   3   3 -11   20.80   22.30
   3   3 -11    8.00   10.90
  -2  -3  11   23.00   13.60
  -2  -3  11   39.40   11.00
  -2  -3  11   51.89   10.70
   2  -3 -11   30.60   17.10
   2  -3 -11   34.10    8.30
   2   3 -11   35.20   10.20
  -2   3  11   16.00   16.00
  -2   3  11   25.90   11.60
  -2   3  11   38.90    9.50
   2   3 -11   36.30   21.70
   2   3 -11   34.30    6.60
   1  -3 -11  226.08   17.50
   1  -3 -11  218.58   19.10
   1  -3 -11  285.17   29.60
  -1  -3  11  291.27   22.80
  -1  -3  11  208.68   20.10
   1   3 -11  248.28   18.80
   1   3 -11  194.48   22.20
   1   3 -11  289.97   29.80
  -1   3  11  190.18   22.30
   0  -3 -11  418.86   38.50
   0  -3  11  386.06   42.10
   0  -3 -11  412.06   29.30
   0  -3 -11  404.06   30.40
   0  -3  11  420.36   30.90
   0   3 -11  367.16   33.60
   0   3  11  411.16   32.30
   0   3 -11  417.26   30.30
   0   3  11  421.56   41.40
   0   3 -11  410.16   41.60
   1  -3  11  147.09   30.60
  -1  -3 -11   77.69    8.90
   1  -3  11   56.99    9.30
  -1  -3 -11   33.90   20.00
  -1  -3 -11   81.09    9.70
   1   3  11  102.29   22.00
   1   3  11   55.79   11.40
  -1   3 -11  106.19   27.70
  -1   3 -11   64.99   11.70
   2  -3  11   -2.80   31.80
  -2  -3 -11   -7.90   21.60
  -2  -3 -11    8.90   11.00
   2  -3  11    4.70    5.50
   2  -3  11   -5.30    8.60
  -2   3 -11   19.90   11.10
   2   3  11   20.80   24.10
   2   3  11   -0.30    9.40
  -2   3 -11   31.30   29.20
  -3  -3 -11   10.50    9.40
  -3  -3 -11   -7.00   26.40
   3  -3  11   -4.50   11.50
   3  -3  11   -1.20   48.70
  -3  -3 -11    6.80    8.10
  -3   3 -11   35.10   13.10
  -3   3 -11   73.19   36.60
   3   3  11    4.60   11.80
   3   3  11   66.89   37.40
  -4  -4  11  546.95   48.50
   4  -4 -11  491.35   52.89
   4  -4 -11  560.04   46.90
   4   4 -11  556.14   53.79
   4   4 -11  635.14   42.40
   4   4 -11  563.74   46.70
   4   4 -11  543.55   40.90
   3  -4 -11   48.00   11.20
  -3  -4  11   37.50   15.90
   3  -4 -11   54.99   22.00
  -3  -4  11   34.70   13.30
  -3   4  11   48.70    8.40
  -3   4  11   43.00   20.00
   3   4 -11   27.10   12.20
   3   4 -11   67.89   21.70
  -3   4  11   10.50   15.90
   3   4 -11   47.10   13.10
  -3   4  11    7.20   22.90
  -2  -4  11   12.20   10.80
  -2  -4  11    9.10   12.70
   2  -4 -11    0.10    8.10
   2  -4 -11   27.30   18.70
  -2  -4  11   17.10   10.40
  -2   4  11    0.60   14.00
   2   4 -11   -4.80    9.40
   2   4 -11   -0.30   25.10
  -2   4  11   26.80   20.40
   2   4 -11    5.00    5.60
   1  -4 -11   95.79   20.90
   1  -4 -11   99.89   11.20
  -1  -4  11   86.49   23.10
  -1  -4  11   89.09   13.40
   1   4 -11   98.99   24.50
  -1   4  11  125.89   15.90
  -1   4  11   91.79   21.10
   1   4 -11   84.89   12.60
   1   4 -11   96.39   10.70
   0  -4  11  155.48   14.30
   0  -4 -11  117.69   11.80
   0  -4 -11  121.99   21.40
   0  -4  11  139.59   16.20
   0  -4 -11  125.29   13.30
   0  -4  11  133.79   27.50
   0   4  11   95.69   14.60
   0   4  11  136.29   23.10
   0   4 -11  134.29   15.20
   0   4 -11  123.59   25.00
  -1  -4 -11   72.09    9.00
  -1  -4 -11   56.69    9.30
   1  -4  11   57.59   28.20
   1  -4  11   53.79    9.50
  -1  -4 -11   37.00   19.90
   1   4  11   74.99   12.10
  -1   4 -11   64.89   12.20
  -1   4 -11   82.69   27.80
   1   4  11   64.19   24.40
   2  -4  11   14.30    7.40
   2  -4  11   -8.60    8.70
  -2  -4 -11   53.09   24.50
   2  -4  11  -21.90   36.70
   2   4  11   11.60   29.40
  -2   4 -11   14.00   13.30
   2   4  11   -1.30   10.60
  -2   4 -11  -26.50   32.00
  -4  -5  11   -4.10   21.20
   4  -5 -11  -21.70   19.10
   4  -5 -11   18.60   28.00
   4   5 -11   20.00    9.80
   4   5 -11   22.10   27.50
  -4   5  11  -16.20   23.90
   4   5 -11   10.10   16.20
  -4   5  11   27.80   18.80
   3  -5 -11    7.00   22.70
  -3  -5  11   15.20   15.80
  -3  -5  11    1.30   14.10
   3  -5 -11   21.10   13.30
  -3   5  11   15.40   21.30
   3   5 -11   17.70   12.90
  -3   5  11   40.70   21.10
  -3   5  11   -0.90   30.20
   3   5 -11   -8.60   22.80
   3   5 -11   24.00    7.90
  -3   5  11    5.00    6.50
  -2  -5  11   30.50   11.20
   2  -5 -11   71.49   20.50
   2  -5 -11   30.30   10.10
  -2  -5  11   49.50   12.40
   2   5 -11   38.10   25.70
  -2   5  11    5.00   32.90
  -2   5  11   52.79   15.90
   2   5 -11   10.30   10.70
   2   5 -11   34.50    6.90
  -1  -5  11  202.48   20.40
  -1  -5  11  347.87   39.10
   1  -5 -11  231.48   19.80
   1   5 -11  196.38   22.50
  -1   5  11  237.18   25.10
   0  -5 -11   84.79   21.60
   0  -5  11   63.19   14.80
   0  -5 -11   76.59   10.10
   0  -5 -11   73.69    8.50
   0  -5  11   80.39   10.40
   0   5 -11   73.59   13.30
   0   5  11   63.19   23.80
   0   5 -11   89.49   28.40
   0   5  11   65.99   13.60
  -1  -5 -11  100.89   26.50
   1  -5  11  143.59   16.40
   1  -5  11  133.09   11.40
  -1  -5 -11  129.29   15.30
  -1  -5 -11  141.09   13.80
   1  -5  11  152.48   19.60
   1   5  11  145.19   27.50
  -1   5 -11   64.19   28.40
   1   5  11  135.89   16.50
   2  -5  11   19.80   10.90
  -2  -5 -11   18.50   12.60
   2  -5  11   41.00   41.50
  -2  -5 -11   42.30   11.50
   2  -5  11   26.80    8.20
  -2  -5 -11   -1.80   26.60
   2   5  11   -8.60   12.90
   2   5  11  -35.00   30.90
  -2   5 -11   36.90   34.90
  -2   5 -11   28.20   13.60
  -3  -6  11   44.70   16.70
  -3  -6  11   -6.00   16.60
   3  -6 -11   -6.80   27.90
   3  -6 -11   20.80   15.40
  -3   6  11  -12.20   32.60
  -3   6  11  -30.00   37.00
   3   6 -11  -37.70   41.60
   3   6 -11    3.70    7.80
   3   6 -11    9.30   14.30
  -2  -6  11   52.69   15.30
  -2  -6  11   43.90   13.60
   2  -6 -11   73.69   24.80
   2  -6 -11   61.39   11.90
  -2   6  11   78.39   25.20
   2   6 -11   43.90   14.40
   2   6 -11   85.99   31.20
  -2   6  11   33.10   19.70
   2   6 -11   50.09    8.20
  -2   6  11  -11.00   36.20
   1  -6 -11  175.08   16.80
  -1  -6  11  152.98   29.50
  -1  -6  11  161.48   15.60
   1  -6 -11  119.19   23.80
  -1  -6  11  165.98   19.90
  -1   6  11  125.69   19.70
   1   6 -11  177.98   35.80
   1   6 -11  109.59   17.30
   0  -6  11   19.90    8.10
   0  -6 -11   24.40    8.10
   0  -6 -11   18.00    7.30
   0  -6 -11    3.40   21.30
   0  -6  11    3.50   12.40
   0  -6  11   11.50   30.80
   0   6  11   16.90   24.60
   0   6 -11   34.00   30.20
   0   6  11   18.20   13.00
   0   6 -11   31.80   12.00
   1  -6  11   33.10   35.00
  -1  -6 -11    9.40    8.80
   1  -6  11    5.60    9.20
  -1  -6 -11  -11.30   13.30
  -1  -6 -11    9.90    8.80
  -1  -6 -11   -7.70   23.30
   1  -6  11   32.20   15.00
  -1   6 -11   14.90   34.00
  -1   6 -11   39.10   13.30
   1   6  11  -12.40   24.70
   1   6  11   24.30   14.20
   2  -6  11   51.69   47.10
   2  -6  11    6.20   10.50
  -2  -6 -11    2.10   28.70
   2  -6  11    8.00    9.10
   2  -6  11    1.70   18.60
  -2  -6 -11    3.80   11.90
  -2   6 -11   20.00   14.30
  -2   6 -11   22.60   35.20
   2   6  11   39.90   32.20
   2   6  11    4.00   14.10
  -3  -7  11   -9.30   20.10
   3  -7 -11    4.60   16.80
   3  -7 -11   -4.20   27.80
  -3  -7  11   -0.20   21.20
   3   7 -11  -29.40   35.00
   3   7 -11    8.40    7.90
  -3   7  11   -3.20   30.10
   3   7 -11   -1.70   16.70
   2  -7 -11  127.99   16.10
  -2  -7  11  123.89   18.60
   2  -7 -11  109.79   29.30
   2   7 -11  117.19   35.40
   2   7 -11  105.49   17.30
  -2   7  11   41.40   27.60
  -2   7  11   75.19   42.40
  -2   7  11   89.69   25.00
  -1  -7  11  120.19   10.30
   1  -7 -11   80.39   17.50
   1  -7 -11  170.78   27.70
  -1  -7  11  119.69   17.90
  -1  -7  11  105.09   13.80
  -1  -7  11   92.29   31.40
   1  -7 -11   81.39   12.90
   1   7 -11  162.78   35.70
   1   7 -11   98.99   16.30
  -1   7  11  114.49   21.40
   0  -7  11   13.10    4.10
   0  -7  11   15.00   34.40
   0  -7 -11   -2.20   14.80
   0  -7 -11    9.80    8.60
   0  -7 -11    6.00    9.00
   0  -7 -11   25.10   25.00
   0  -7  11    2.80   13.50
   0  -7  11   26.60    9.30
   0   7  11   16.30   27.40
   0   7 -11  -12.40   36.00
   0   7  11   16.50   16.10
   0   7 -11    5.10   14.20
  -1  -7 -11   43.10   16.30
   1  -7  11   28.80   16.50
  -1  -7 -11   57.69   10.90
   1  -7  11   28.20   44.60
   1  -7  11   39.70   11.30
  -1  -7 -11   16.40   28.30
  -1  -7 -11   44.30   10.80
   1   7  11   26.60   32.50
  -1   7 -11   52.09   38.90
   1   7  11   34.00   16.70
  -1   7 -11   30.60   16.10
   2  -8 -11   21.10   30.00
  -2  -8  11   26.70   15.00
  -2  -8  11   11.40   18.40
   2  -8 -11   18.70   13.80
   2  -8 -11   14.30   19.90
   2   8 -11   62.99   44.20
   2   8 -11   12.20   16.20
  -2   8  11   44.50   48.10
  -2   8  11   30.80   33.40
   1  -8 -11   48.40   12.10
  -1  -8  11   59.89   34.10
   1  -8 -11   69.79   18.40
  -1  -8  11   62.69    7.60
  -1  -8  11   -0.40   16.80
   1  -8 -11    6.80   28.00
  -1  -8  11   29.80   12.40
   1   8 -11   71.69   41.60
  -1   8  11   38.70   22.60
  -1   8  11   63.79   31.50
   1   8 -11   37.70   17.40
   0  -8  11    8.80   40.30
   0  -8 -11   23.60   11.30
   0  -8 -11   49.20   17.90
   0  -8  11   19.00    5.50
   0  -8  11   36.30   16.90
   0  -8 -11   38.60   29.30
   0  -8 -11   30.90   10.80
   0  -8  11   42.10   11.40
   0  -8  11   13.30   26.40
   0   8 -11   44.70   40.00
   0   8  11    8.70   18.70
   0   8  11   52.79   32.60
   0   8 -11   34.90   16.50
   4   0 -12   36.50   13.10
   4   0 -12   32.30   10.80
  -4   0  12   48.80   14.20
   4   0 -12  -20.40   22.50
   3   0 -12   73.49   23.60
   3   0 -12   72.09    8.40
  -3   0  12   64.99   17.60
  -3   0  12   59.59   13.90
   3   0 -12   68.29   10.20
  -2   0  12    9.30   10.20
  -2   0  12   -2.90   16.30
   2   0 -12  -17.80   22.30
   2   0 -12    0.80    6.60
  -2   0  12   32.60   10.90
   1   0 -12   -3.90    5.40
   1   0 -12   14.10   21.30
  -1   0  12    6.20    9.10
  -1   0  12   -5.40   17.80
   1   0 -12   -2.90   13.10
   0   0 -12   24.60   16.60
   0   0  12   47.80   20.00
   0   0 -12   51.99   22.70
   0   0  12   43.70   10.00
   0   0 -12   52.69    8.40
  -1   0 -12   18.20   25.60
   1   0  12   -5.00    8.10
   1   0  12   18.80   23.60
  -1   0 -12    3.80   10.30
   2   0  12   16.90   10.50
  -2   0 -12   15.50   10.60
  -2   0 -12   -1.50   27.80
   2   0  12   11.70   28.60
   4  -1 -12  -10.50   12.80
   4  -1 -12  -16.90   23.70
  -4  -1  12    6.90   14.50
   4   1 -12   10.80    9.70
  -4   1  12    1.90   13.00
   4   1 -12   18.40   23.90
   4   1 -12   14.90   10.80
   4   1 -12   24.30   16.80
  -3  -1  12   64.79   17.90
  -3  -1  12   72.79   13.40
   3  -1 -12   68.39   11.10
   3  -1 -12   30.80   20.20
  -3   1  12   33.30   13.30
   3   1 -12   74.99    7.50
   3   1 -12   74.29   10.60
  -3   1  12   73.09   12.60
  -3   1  12   44.40   17.10
   3   1 -12   79.19   16.90
  -2  -1  12    6.40   16.70
   2  -1 -12    5.60   20.30
   2  -1 -12    6.20    6.60
  -2  -1  12    4.50   10.70
  -2  -1  12   -5.30   10.20
   2   1 -12    7.50    6.60
  -2   1  12   18.00   10.40
   2   1 -12    2.30   10.50
   2   1 -12   29.50   21.80
  -2   1  12   26.80   17.70
  -2   1  12   -0.60   11.40
  -1  -1  12   27.70    9.60
   1  -1 -12   49.40   21.30
   1  -1 -12   29.00    6.90
  -1  -1  12   17.20   11.60
  -1  -1  12   19.90   19.30
   1   1 -12   15.50    6.00
   1   1 -12   31.50   11.20
   1   1 -12   32.10   21.90
  -1   1  12   35.10   20.00
  -1   1  12   23.80    9.70
   0  -1 -12   18.00    7.30
   0  -1 -12   24.00   19.50
   0  -1  12   -2.50   20.90
   0  -1  12   27.60    9.10
   0   1  12   -4.90   22.80
   0   1 -12   15.70   10.70
   0   1 -12   22.50    6.70
   0   1 -12   57.39   23.10
   0   1  12   17.00    8.70
   1  -1  12   38.70   10.20
  -1  -1 -12   50.89   13.20
  -1  -1 -12   49.10    9.20
   1  -1  12   73.59   26.90
  -1  -1 -12   68.59   24.50
   1   1  12  109.59   28.70
  -1   1 -12   47.90   11.40
  -1   1 -12   72.99   25.10
   1   1  12   41.60   10.00
   2  -1  12   34.70    6.80
  -2  -1 -12   25.90   27.40
   2  -1  12   31.20    9.20
  -2  -1 -12   29.40   10.60
   2  -1  12   13.70   32.20
   2   1  12   25.20   31.20
  -2   1 -12   25.40   11.60
   2   1  12   14.70    9.30
  -2   1 -12   41.10   29.90
   4  -2 -12   17.50   14.30
  -4  -2  12  -26.20   17.70
   4  -2 -12   11.80   26.50
  -4  -2  12   16.10   23.90
   4   2 -12   11.60   28.00
  -4   2  12    0.70   12.80
   4   2 -12    2.10    7.90
   4   2 -12   11.10   10.80
   4   2 -12    1.60   16.90
  -3  -2  12    1.70   14.40
   3  -2 -12   -3.70    9.40
   3  -2 -12   14.70   20.70
  -3  -2  12    4.90   11.90
   3   2 -12   16.20    4.50
  -3   2  12   12.80   14.40
   3   2 -12   12.60    7.60
  -3   2  12   25.00   18.20
  -3   2  12   13.80   17.00
  -3   2  12   17.30   10.50
   3   2 -12   54.49   30.30
   3   2 -12    8.60   14.10
   2  -2 -12    2.30   18.00
   2  -2 -12   15.40    8.10
  -2  -2  12   -2.40   11.40
  -2  -2  12   21.20   10.40
  -2  -2  12   23.70   16.30
   2   2 -12   16.90   11.60
   2   2 -12   17.30   23.00
  -2   2  12   13.70   10.00
  -2   2  12   15.40   19.90
   2   2 -12   24.00    6.30
  -2   2  12    2.30   13.30
  -1  -2  12    2.00   11.50
   1  -2 -12   10.70    3.80
   1  -2 -12   16.70   21.10
  -1  -2  12    2.50    8.80
  -1  -2  12   12.60   22.20
   1  -2 -12   -0.20    6.30
  -1   2  12   21.00   18.70
   1   2 -12   45.60   23.90
   1   2 -12    6.60    6.90
   1   2 -12    9.20   10.70
  -1   2  12   25.20   10.80
   0  -2  12   62.79    9.90
   0  -2 -12   33.20   21.30
   0  -2  12   55.29   25.90
   0  -2 -12   35.30    7.90
   0   2  12   35.70   10.10
   0   2 -12   94.59   25.80
   0   2  12   66.59   23.20
   0   2 -12   43.90   11.30
   0   2 -12   34.90    7.60
   1  -2  12  -16.80   27.80
   1  -2  12   16.20    7.70
  -1  -2 -12    8.00    7.40
  -1  -2 -12   15.30   14.50
  -1  -2 -12    1.20   23.60
  -1   2 -12   14.50   13.40
  -1   2 -12  -20.40   23.00
   1   2  12   16.10   24.10
   1   2  12    6.30   10.20
   2  -2  12   34.30    6.60
  -2  -2 -12   28.40   11.40
   2  -2  12    6.30   10.30
   2  -2  12   32.50   37.60
  -2  -2 -12   46.20   25.30
  -2   2 -12   19.30   30.80
   2   2  12   15.50   10.70
   2   2  12   50.89   31.60
  -2   2 -12   22.30   11.50
  -4  -3  12    5.70   19.70
   4  -3 -12    7.40   15.50
   4  -3 -12   45.60   27.20
   4   3 -12   37.00    9.10
   4   3 -12   51.09   18.00
  -4   3  12   23.80   12.30
   4   3 -12   24.40   10.20
   4   3 -12   61.59   27.90
  -3  -3  12   52.19   16.80
   3  -3 -12   62.59   13.40
   3  -3 -12   84.99   22.60
  -3  -3  12   61.29   15.50
   3   3 -12   80.59   36.90
  -3   3  12   78.89   20.70
   3   3 -12   57.29    9.60
  -3   3  12   32.70   20.80
  -3   3  12   57.29   24.60
  -3   3  12   59.69   11.40
   3   3 -12   69.19   16.00
   2  -3 -12    2.30    8.40
  -2  -3  12    8.30   16.20
  -2  -3  12    0.60   10.60
  -2  -3  12   -5.10   12.30
   2  -3 -12   -1.60   19.30
   2   3 -12   -6.30   10.50
  -2   3  12    3.40    9.90
   2   3 -12    1.50    6.00
  -2   3  12   13.90   19.10
  -2   3  12   16.10   13.10
   2   3 -12    9.10   25.60
  -1  -3  12   74.09   25.30
   1  -3 -12   79.79    9.50
   1  -3 -12  106.89   10.90
   1  -3 -12   94.19   21.20
  -1  -3  12  115.59   15.20
  -1  -3  12   98.99   12.20
   1   3 -12   93.99   11.00
   1   3 -12   80.49   13.90
  -1   3  12   55.49   12.90
   1   3 -12  138.79   26.90
  -1   3  12   77.79   21.00
   0  -3 -12   64.89   10.20
   0  -3 -12   59.89   20.80
   0  -3  12   95.99   11.90
   0  -3  12   94.59   15.50
   0  -3  12   53.99   27.70
   0  -3 -12   98.29    9.40
   0   3  12   67.19   13.60
   0   3 -12   83.49   10.60
   0   3 -12  101.69   13.30
   0   3 -12  131.29   30.00
   0   3  12   86.59   23.30
  -1  -3 -12   26.30    8.40
  -1  -3 -12   -7.20   21.20
   1  -3  12   38.80   34.60
   1  -3  12   31.30    8.60
  -1  -3 -12   40.90    9.00
  -1   3 -12   50.09   28.40
   1   3  12   23.70   11.50
  -1   3 -12   35.00   12.70
   1   3  12   53.29   23.30
   2  -3  12   26.70    6.00
   2  -3  12   19.60    9.70
  -2  -3 -12   53.59   13.90
   2  -3  12   99.29   43.00
  -2  -3 -12   44.90   25.70
   2   3  12   13.30   11.20
  -2   3 -12   67.69   32.60
   2   3  12  101.79   32.50
  -2   3 -12   47.40   13.60
   4  -4 -12   82.09   31.00
   4  -4 -12   45.60   17.50
  -4  -4  12   62.29   24.60
   4   4 -12   44.20    9.80
   4   4 -12   70.89   18.60
   4   4 -12   40.80   11.60
   3  -4 -12   14.40   12.30
  -3  -4  12   22.40   16.60
  -3  -4  12    3.40   14.30
   3  -4 -12   15.80   25.80
  -3   4  12   20.00    9.90
   3   4 -12    0.00   37.60
  -3   4  12    9.00   28.40
   3   4 -12   -4.60    7.20
  -3   4  12    9.50   22.50
  -3   4  12   29.60   20.50
   3   4 -12    8.50   13.00
  -2  -4  12   -4.30   12.40
  -2  -4  12   -8.70   15.20
  -2  -4  12    1.70   11.50
   2  -4 -12   19.10    8.80
   2  -4 -12   -8.20   20.60
   2   4 -12   -1.80   11.30
   2   4 -12    8.10    6.80
   2   4 -12    5.70   24.00
  -2   4  12    9.40   10.70
  -2   4  12   14.50   15.70
  -2   4  12   10.70   23.80
  -1  -4  12    6.70    9.90
   1  -4 -12   13.10    8.40
  -1  -4  12   49.70   12.90
   1  -4 -12   25.80    6.10
   1  -4 -12   18.70   20.80
  -1  -4  12   46.50   24.30
   1   4 -12   28.10    6.50
  -1   4  12   24.60   12.40
   1   4 -12    6.50   24.30
   1   4 -12   -0.90   10.90
   0  -4 -12   70.89   23.10
   0  -4  12  154.98   17.80
   0  -4  12  125.39   32.60
   0  -4 -12  150.38   15.30
   0  -4 -12  134.39   13.20
   0  -4  12  111.69   14.20
   0   4 -12  147.69   16.10
   0   4  12  121.79   17.20
   0   4  12  146.29   26.90
   0   4 -12  185.48   33.90
   1  -4  12  -12.10   31.30
  -1  -4 -12    9.80    9.10
   1  -4  12   11.60    9.20
  -1  -4 -12   -0.90    8.60
  -1  -4 -12    8.70   22.00
  -1   4 -12   -1.20   10.90
   1   4  12   30.90   12.60
  -1   4 -12  -16.60   29.20
   1   4  12   48.90   27.30
  -2  -4 -12   -6.20   27.10
   2  -4  12   38.30   41.70
   2  -4  12   11.10   11.80
   2  -4  12   15.10    6.40
   2   4  12   -7.10   13.70
  -2   4 -12    6.40   14.00
  -2   4 -12   16.70   38.10
   2   4  12    2.00   33.30
   3  -5 -12    1.30   28.20
  -3  -5  12   -1.40   18.40
   3  -5 -12  -10.20   14.70
  -3  -5  12   -2.80   16.00
  -3   5  12    0.90   24.70
   3   5 -12  -11.50    8.30
  -3   5  12   -7.30   33.00
  -3   5  12   -2.20    8.90
   3   5 -12  -15.10   30.00
  -3   5  12   27.90   25.70
   3   5 -12   23.40   15.20
  -2  -5  12    1.60   14.40
   2  -5 -12   15.50   26.20
   2  -5 -12   -6.70   10.30
  -2  -5  12    7.40   14.10
  -2   5  12   -7.00   22.70
   2   5 -12   18.80   29.90
   2   5 -12   19.50    7.10
   2   5 -12    1.00   12.50
  -2   5  12   19.10   17.60
  -1  -5  12  112.29   14.10
   1  -5 -12  102.59   12.70
  -1  -5  12  106.69   17.30
  -1  -5  12   65.39   29.50
   1  -5 -12  101.29   11.70
   1  -5 -12  107.49   25.90
  -1   5  12  122.69   25.50
  -1   5  12   87.19   18.70
   1   5 -12   77.39   10.80
   1   5 -12   96.49   33.00
   1   5 -12   95.49   14.90
   0  -5  12  263.07   29.20
   0  -5  12  270.87   24.50
   0  -5 -12  316.47   33.70
   0  -5 -12  273.87   23.60
   0  -5 -12  270.77   22.20
   0  -5  12  355.46   41.90
   0   5  12  311.17   36.90
   0   5 -12  283.87   28.30
   0   5 -12  255.37   37.70
   0   5  12  234.78   28.40
  -1  -5 -12   15.20    9.30
  -1  -5 -12   -4.60    9.40
   1  -5  12    0.30    9.10
  -1  -5 -12   12.30   24.40
   1  -5  12   -6.60   35.20
   1  -5  12   46.20   17.40
   1   5  12  -29.00   13.70
  -1   5 -12  -13.00   12.50
  -1   5 -12   -4.90   31.70
   1   5  12  -33.10   31.40
   2  -5  12   95.49   14.80
   2   5  12   63.29   16.70
   3  -6 -12   18.00   16.40
  -3  -6  12   34.50   19.80
  -3  -6  12   31.70   19.10
   3  -6 -12   18.10   32.80
   3   6 -12  -15.00   16.30
   3   6 -12   33.80   29.90
  -3   6  12   -1.40   37.30
   3   6 -12   -2.30    9.20
  -3   6  12   11.00   25.70
  -3   6  12   10.90    7.80
  -2  -6  12   86.69   16.40
  -2  -6  12   78.99   18.50
   2  -6 -12  173.18   32.70
   2  -6 -12   80.79   14.10
   2   6 -12   67.49   36.80
  -2   6  12  114.69   30.00
   2   6 -12   78.59   17.70
  -2   6  12   65.09   23.80
   2   6 -12  102.89   11.20
  -1  -6  12   34.00   14.40
  -1  -6  12   10.40   11.40
   1  -6 -12   19.90    8.20
   1  -6 -12   12.30   26.10
  -1  -6  12   33.90   28.00
   1   6 -12    8.80   14.80
   1   6 -12   16.80   37.40
  -1   6  12  -19.70   27.20
  -1   6  12   17.80   17.50
   0  -6  12   -2.10   13.70
   0  -6  12    1.90   35.80
   0  -6  12   13.80   10.70
   0  -6 -12   20.60    9.60
   0  -6 -12    1.30   24.10
   0   6  12   59.99   31.80
   0   6 -12   29.80   13.70
   0   6  12   23.70   15.30
   0   6 -12   23.70   37.00
  -1  -6 -12   72.39   28.50
   1  -6  12   19.80   42.40
   1  -6  12  100.59   20.20
  -1  -6 -12   56.89   13.00
  -1  -6 -12   73.39   17.10
  -1  -6 -12   89.89   13.80
   1  -6  12   90.59   13.00
   1   6  12   57.39   18.20
   1   6  12   58.79   34.60
  -1   6 -12   49.60   37.20
  -1   6 -12   74.69   17.50
  -2  -7  12   56.39   16.20
   2  -7 -12   55.09   32.10
  -2  -7  12   30.80   18.30
   2  -7 -12   54.89   14.70
   2   7 -12   56.89   17.00
  -2   7  12   34.40   48.30
   2   7 -12   94.99   43.80
  -2   7  12   59.99   28.70
  -2   7  12   21.90   31.50
   1  -7 -12   27.70   11.20
   1  -7 -12   28.90   29.20
   1  -7 -12   16.60    9.90
  -1  -7  12    5.70   14.30
  -1  -7  12   -0.10   12.70
  -1  -7  12   58.99   33.80
  -1   7  12   52.79   32.30
   1   7 -12   35.50   42.50
   1   7 -12   34.10   16.20
  -1   7  12    6.60   21.40
   0  -7 -12   13.10   17.60
   0  -7 -12   16.70    9.20
   0  -7 -12   -8.10   29.10
   0  -7  12   34.00   41.60
   0  -7 -12   12.90   10.80
   0  -7  12   11.40   18.00
   0  -7  12   18.20   11.80
   0   7  12  -25.50   31.90
   0   7 -12   84.09   44.00
   0   7 -12  -12.60   15.70
   0   7  12   39.50   19.10
   4   0 -13   -9.40   10.90
  -4   0  13  -18.90   27.10
   4   0 -13  -21.90   12.60
   4   0 -13  -28.10   24.90
  -4   0  13   -4.40   16.40
   4   0 -13  -32.40   24.60
  -3   0  13   -9.70   17.60
   3   0 -13   34.80   26.80
  -3   0  13  -13.20   12.30
   3   0 -13  -12.70    9.50
   3   0 -13   15.80    6.50
  -2   0  13   -4.00   20.00
  -2   0  13   18.80   13.90
   2   0 -13   29.80   25.60
   2   0 -13   -5.50    7.60
  -2   0  13   -0.50   11.90
   1   0 -13    4.90   14.60
   1   0 -13  -19.10   27.70
  -1   0  13   -9.40   22.20
   1   0 -13    2.80    7.00
  -1   0  13   -7.60   10.90
   0   0 -13  -24.70   12.70
   0   0 -13   13.30    7.60
   0   0  13    6.00    9.70
   0   0 -13  -16.30   28.20
   0   0  13   -3.70   27.20
   1   0  13   97.29   14.80
  -1   0 -13   99.19   16.00
  -1   0 -13  160.78   32.90
  -2   0 -13    2.60   31.50
   2   0  13    5.70   36.80
  -2   0 -13    5.30   12.40
   2   0  13   -4.00   12.10
   4  -1 -13   35.20   15.20
   4  -1 -13   24.20   11.90
  -4  -1  13   26.90   27.40
   4  -1 -13   43.30   26.70
  -4  -1  13   -7.80   17.40
   4   1 -13   16.30   22.10
  -4   1  13   17.60   16.30
   4   1 -13   11.80    9.20
  -4   1  13   30.40   28.90
   4   1 -13   54.99   30.80
   4   1 -13    2.80   12.20
  -3  -1  13   32.00   20.50
   3  -1 -13   43.80   24.00
   3  -1 -13   50.79   10.90
  -3  -1  13   25.20   13.80
  -3   1  13   75.89   16.60
  -3   1  13    8.30   20.50
  -3   1  13   47.20   15.60
   3   1 -13   34.50   30.50
   3   1 -13   81.79   18.80
  -3   1  13   43.50   15.50
   3   1 -13   56.09   10.70
  -2  -1  13   86.49   15.10
  -2  -1  13   93.89   14.10
  -2  -1  13  122.09   22.00
   2  -1 -13   52.29    9.90
   2   1 -13  115.09   27.10
   2   1 -13   69.09   16.20
  -2   1  13   82.09   16.40
  -2   1  13   80.59   22.10
  -2   1  13  111.99   15.60
   2   1 -13   70.59   10.50
  -1  -1  13   84.19   28.40
  -1  -1  13  125.69   16.00
  -1  -1  13   67.49   15.80
   1  -1 -13   89.39   27.30
   1  -1 -13  104.49   11.80
   1   1 -13   85.59   28.90
   1   1 -13  124.19   16.20
  -1   1  13   78.79   34.70
  -1   1  13  126.49   16.30
   1   1 -13  113.09   13.10
   0  -1 -13   88.59   10.70
   0  -1 -13   74.99   26.10
   0  -1  13   89.49   13.20
   0  -1  13  149.69   27.50
   0  -1 -13   60.09   17.90
   0   1 -13   69.89   14.00
   0   1 -13   68.69    9.90
   0   1  13   65.69   28.50
   0   1  13   64.59   12.20
   0   1 -13  109.09   28.10
   1  -1  13   62.89   12.70
  -1  -1 -13   98.79   13.20
  -1  -1 -13   62.79   16.00
   1  -1  13  103.89   31.80
  -1  -1 -13  105.59   28.80
   1   1  13   73.69   13.70
  -1   1 -13   95.49   14.60
   1   1  13  101.99   34.70
  -1   1 -13  182.48   34.10
   2  -1  13    6.10   12.00
  -2  -1 -13    0.20   12.70
   2  -1  13    9.70   39.60
  -2  -1 -13   39.10   33.90
   2   1  13  -14.40   12.10
   2   1  13  -18.00   36.80
  -2   1 -13   -3.00   37.20
   3  -2 -13   20.20   25.00
  -3  -2  13    8.70   14.80
   3  -2 -13   17.90   11.20
  -3  -2  13   10.60   19.50
   3   2 -13   14.80   28.50
  -3   2  13   13.90   12.00
   3   2 -13    7.20    9.00
  -3   2  13   34.90   22.40
  -3   2  13   16.70   16.10
  -3   2  13   -9.50   20.60
   3   2 -13    3.50   15.30
  -2  -2  13   67.69   14.50
   2  -2 -13   30.00    9.40
  -2  -2  13   28.00   14.90
   2  -2 -13   31.80   23.60
  -2  -2  13   27.40   20.30
   2   2 -13   30.20    8.50
  -2   2  13   40.20   22.60
  -2   2  13   14.20   13.40
   2   2 -13   25.10   27.20
  -2   2  13  -15.10   22.80
   2   2 -13   20.50   12.10
   1  -2 -13  -24.50   24.80
  -1  -2  13  -35.50   23.10
   1  -2 -13   -4.60    4.60
  -1  -2  13   -1.60   12.30
   1  -2 -13  -10.20    7.60
  -1  -2  13   12.00   11.20
   1   2 -13  -11.60    6.80
   1   2 -13   -6.80   27.30
  -1   2  13   32.30   12.90
  -1   2  13   -8.90   23.80
   1   2 -13    5.60   11.30
   0  -2  13  315.17   40.90
   0  -2  13  238.68   26.30
   0  -2 -13  364.36   37.40
   0  -2 -13  297.17   23.70
   0   2  13  349.27   42.90
   0   2 -13  350.16   38.30
   0   2 -13  263.47   27.90
   0   2 -13  269.17   23.20
   0   2  13  242.08   26.30
   1  -2  13   93.89   13.80
  -1  -2 -13   90.69   17.80
  -1  -2 -13  139.69   32.10
   1  -2  13  204.98   39.50
  -1   2 -13  108.09   16.60
  -1   2 -13  176.88   34.30
   1   2  13   80.99   15.10
  -2  -2 -13   15.50   13.60
   2  -2  13   13.60   13.10
  -2  -2 -13   11.20   29.70
   2  -2  13  -11.10   45.70
   2   2  13   33.20   39.10
   2   2  13   13.40   13.30
  -2   2 -13   -6.50   36.50
  -2   2 -13    7.00   13.80
   3  -3 -13   11.60   11.60
  -3  -3  13   -8.70   14.80
   3  -3 -13  -16.30   24.80
  -3  -3  13   10.30   18.90
  -3   3  13   -3.60   27.80
  -3   3  13  -14.60   21.70
  -3   3  13    7.20   11.20
   3   3 -13  -25.20   30.60
   3   3 -13   -6.00   16.30
  -3   3  13   14.50   20.20
   3   3 -13   11.40    8.50
   2  -3 -13   23.80    9.20
  -2  -3  13   32.50   15.20
  -2  -3  13    4.60   21.00
  -2  -3  13   42.30   14.10
   2  -3 -13   26.40   23.20
   2   3 -13   12.70   13.10
   2   3 -13   19.00    8.30
  -2   3  13   20.80   22.00
   2   3 -13  -14.30   29.10
  -2   3  13   27.20   15.30
  -2   3  13   19.50   13.10
  -1  -3  13   41.50   27.00
   1  -3 -13   16.30    5.50
  -1  -3  13   39.80   14.80
   1  -3 -13   10.20   22.60
   1  -3 -13   33.30    8.50
  -1  -3  13   16.80   11.70
   1   3 -13   -6.30   28.30
   1   3 -13   13.00    8.00
  -1   3  13   32.00   24.90
  -1   3  13    5.60   13.40
   1   3 -13   38.20   12.90
   0  -3  13  203.28   19.50
   0  -3  13  158.08   35.90
   0  -3 -13  188.08   19.30
   0  -3 -13  173.18   29.90
   0  -3 -13  190.38   17.00
   0  -3  13  225.08   23.60
   0   3 -13  203.78   21.30
   0   3  13  215.48   31.90
   0   3 -13  195.88   35.60
   0   3  13  168.38   21.20
  -1  -3 -13  155.38   17.00
   1  -3  13  258.37   43.50
   1  -3  13  163.38   18.00
  -1  -3 -13  146.19   31.20
   1   3  13  181.38   35.00
  -1   3 -13  186.58   20.50
  -1   3 -13  238.18   39.10
   1   3  13  119.19   18.30
   3  -4 -13  -41.60   30.80
  -3  -4  13    3.80   19.80
   3  -4 -13   32.30   12.50
  -3  -4  13   46.40   17.10
  -3   4  13   12.80   21.80
   3   4 -13    6.00   16.00
  -3   4  13   -1.20   25.50
  -3   4  13   32.40   35.50
   3   4 -13   40.10   10.60
   3   4 -13   40.60   36.00
  -3   4  13   18.30   11.00
   2  -4 -13   18.00   12.00
  -2  -4  13    7.50   14.20
  -2  -4  13   24.50   15.80
   2  -4 -13    9.10   24.10
  -2  -4  13   10.70   18.80
  -2   4  13   19.50   22.70
   2   4 -13    2.80    8.40
   2   4 -13   52.79   30.40
   2   4 -13   12.70   14.20
  -2   4  13    9.20   13.30
  -2   4  13    9.40   19.50
  -1  -4  13   17.00   14.80
  -1  -4  13    0.00   11.70
   1  -4 -13    7.70    7.00
   1  -4 -13    5.30    9.50
   1  -4 -13   19.70   25.70
  -1  -4  13   24.10   28.80
  -1   4  13   12.30   23.20
  -1   4  13   20.40   14.70
   1   4 -13    5.10   12.90
   1   4 -13   -0.70    8.20
   1   4 -13   56.39   29.60
   0  -4 -13  145.89   28.70
   0  -4  13  168.28   18.70
   0  -4  13  250.47   41.40
   0  -4 -13  201.18   20.20
   0  -4  13  233.38   23.20
   0  -4 -13  174.18   17.80
   0   4  13  200.48   22.60
   0   4 -13  195.98   21.40
   0   4  13  224.18   33.40
   0   4 -13  217.08   39.30
  -1  -4 -13   49.20   27.70
   1  -4  13  100.49   40.00
  -1  -4 -13   53.49   12.50
  -1  -4 -13   56.89   11.20
   1  -4  13   28.10   12.60
   1   4  13   55.69   32.10
  -1   4 -13   59.69   15.40
  -1   4 -13   53.89   36.90
   1   4  13   51.79   15.50
  -3  -5  13   -6.70   18.80
   3  -5 -13  -29.10   32.40
  -3  -5  13   17.90   20.30
   3  -5 -13    3.30   14.70
   3   5 -13   21.70   17.30
  -3   5  13    2.00   10.80
   3   5 -13    3.90   10.00
  -3   5  13  104.99   30.20
   2  -5 -13    4.90   12.30
   2  -5 -13   67.89   30.40
  -2  -5  13    0.40   17.50
  -2  -5  13   20.80   18.00
  -2   5  13   -4.90   25.40
  -2   5  13  -17.70   19.80
   2   5 -13   10.80   32.40
   2   5 -13    2.00    8.20
   2   5 -13  -11.70   14.30
  -1  -5  13  -17.00   12.00
   1  -5 -13   37.50   27.80
   1  -5 -13    0.10   11.20
  -1  -5  13   -7.50   14.70
   1  -5 -13   -9.20    7.50
  -1  -5  13    9.10   32.00
   1   5 -13   -7.30   14.20
   1   5 -13   -1.50   32.50
   1   5 -13  -15.70    8.70
  -1   5  13   32.50   29.30
  -1   5  13  -14.20   16.70
   0  -5  13   86.39   14.50
   0  -5  13  134.29   20.70
   0  -5  13  104.99   37.70
   0  -5 -13   94.89   14.10
   0  -5 -13   73.59   27.90
   0  -5 -13  120.79   12.10
   0   5 -13   96.99   36.30
   0   5  13  110.79   33.80
   0   5  13   51.09   17.10
   0   5 -13  111.29   18.50
   1  -5  13   46.30   45.90
  -1  -5 -13   48.00   30.90
   1  -5  13    8.60   20.30
   1  -5  13    4.90   12.10
  -1  -5 -13    4.30   10.90
   1   5  13  -15.40   37.40
  -1   5 -13   12.00   16.60
   1   5  13    3.00   17.30
  -1   5 -13  -39.30   37.70
   2  -6 -13   14.20   14.60
  -2  -6  13   11.00   19.20
  -2  -6  13   78.59   18.30
   2  -6 -13  -26.40   31.30
   2   6 -13   21.90    9.90
  -2   6  13   61.89   29.80
  -2   6  13   33.40   24.40
   2   6 -13   13.90   17.60
   2   6 -13   -1.70   38.70
  -1  -6  13   35.80   34.40
  -1  -6  13   47.80   18.30
   1  -6 -13   55.59   31.20
   1  -6 -13   36.30   12.10
  -1  -6  13   32.10   14.20
   1  -6 -13   28.40   16.70
  -1   6  13   42.30   20.10
   1   6 -13   44.40   18.40
  -1   6  13   55.59   30.40
   1   6 -13    0.40   40.90
   0  -6 -13  231.58   41.40
   0  -6  13  208.38   25.90
   0  -6  13  275.07   51.29
   0  -6 -13  246.48   22.40
   0  -6 -13  253.27   24.70
   0  -6  13  248.58   27.00
   0   6 -13  270.07   44.30
   0   6 -13  317.27   27.80
   0   6  13  261.77   41.90
   0   6  13  191.68   26.50
  -3   0  14   16.30   14.50
  -3   0  14   10.40   20.40
   3   0 -14   21.70   32.60
   3   0 -14   -1.70   10.70
   3   0 -14   11.20   23.70
  -2   0  14   -4.30   25.90
  -2   0  14   17.20   13.00
  -2   0  14   28.20   15.80
   2   0 -14   12.60   28.40
   2   0 -14   -6.60   19.40
   2   0 -14    2.90    8.70
  -1   0  14  248.98   30.10
  -1   0  14  229.38   27.90
   1   0 -14  260.97   30.00
   1   0 -14  299.97   40.20
   1   0 -14  269.07   23.00
  -1   0  14  240.18   35.00
   0   0 -14   -1.30   15.10
   0   0 -14   11.30    9.20
   0   0 -14  -36.80   31.60
   0   0  14   16.90   11.60
   0   0  14   29.80   30.90
  -1   0 -14  152.58   19.30
   1   0  14   41.20   37.80
   1   0  14  133.29   17.60
  -1   0 -14  125.99   34.20
   3  -1 -14   -6.70   26.60
   3  -1 -14    6.90    7.60
   3  -1 -14  -12.60   12.90
  -3  -1  14   -8.80   15.60
  -3  -1  14    1.40   21.80
   3   1 -14   -4.20   30.50
  -3   1  14   -9.20   14.80
   3   1 -14   -3.90   19.80
  -3   1  14   -8.10   23.00
   3   1 -14    4.70   11.50
  -3   1  14   -9.90   19.20
  -3   1  14   18.10   17.50
   2  -1 -14   72.39   31.10
  -2  -1  14   48.60   24.30
   2  -1 -14   41.70   10.80
  -2  -1  14   31.50   17.10
  -2  -1  14   40.40   14.90
  -2   1  14   36.00   24.10
  -2   1  14   87.49   16.30
  -2   1  14   31.10   17.10
   2   1 -14   57.59   10.70
   2   1 -14   28.30   30.40
   2   1 -14   60.09   19.30
  -1  -1  14  165.28   20.90
  -1  -1  14   74.59   31.70
  -1  -1  14  156.28   20.10
   1  -1 -14  166.08   31.10
   1  -1 -14  136.39   17.00
  -1   1  14  102.69   29.90
   1   1 -14  187.68   21.50
  -1   1  14  179.38   20.60
   1   1 -14  155.88   16.20
   1   1 -14  167.38   35.20
   0  -1  14   51.49   31.20
   0  -1  14   37.00   14.60
   0  -1 -14   37.90   16.10
   0  -1 -14   55.19   28.40
   0  -1 -14   36.20    9.50
   0   1 -14   46.90   15.20
   0   1 -14   44.80   30.10
   0   1  14   26.00   13.00
   0   1  14   39.50   30.40
   0   1 -14   38.00   10.30
   1  -1  14   37.60   13.90
  -1  -1 -14   81.49   33.60
  -1  -1 -14   37.90   16.10
   1  -1  14   68.39   38.10
  -1   1 -14   58.49   16.20
   1   1  14   54.49   15.50
  -1   1 -14   34.40   39.10
   1   1  14   39.40   35.30
  -3  -2  14    2.20   21.10
   3  -2 -14   29.70   13.10
   3  -2 -14  -24.80   29.10
  -3  -2  14  -12.40   15.50
   3   2 -14   19.50   10.60
   3   2 -14  -19.90   17.60
  -3   2  14   -3.00   27.50
  -3   2  14   11.00   21.70
   3   2 -14   55.09   34.70
  -3   2  14    0.70   23.50
  -3   2  14    3.80   13.30
  -2  -2  14   34.80   16.70
   2  -2 -14   40.20   11.40
  -2  -2  14   46.30   24.20
   2  -2 -14   43.50    6.10
   2  -2 -14   21.50   26.30
  -2  -2  14   41.00   16.20
   2   2 -14   42.90   33.90
   2   2 -14   26.50   10.20
  -2   2  14   44.50   26.30
  -2   2  14   44.10   15.70
  -2   2  14   29.40   16.80
   2   2 -14   49.20   17.30
   1  -2 -14  168.88   32.90
   1  -2 -14  248.08   21.80
  -1  -2  14  196.68   23.60
  -1  -2  14  234.98   28.40
   1   2 -14  257.17   25.70
  -1   2  14  199.68   36.80
   1   2 -14  219.08   39.90
   1   2 -14  214.48   20.60
  -1   2  14  280.47   28.60
   0  -2 -14   -8.50   28.90
   0  -2  14   68.59   34.90
   0  -2  14  -15.10   13.50
   0  -2 -14    5.40    9.60
   0   2 -14    3.80   14.00
   0   2 -14    2.40    9.50
   0   2 -14  -20.00   32.60
   0   2  14   -6.80   31.80
   0   2  14   10.10   13.20
  -1  -2 -14   16.00   12.50
  -1  -2 -14   16.90   18.00
   1  -2  14    4.00   44.10
   1  -2  14   14.20   14.00
  -1  -2 -14   54.39   30.10
  -1   2 -14    4.60   14.20
   1   2  14    5.70   15.70
   1   2  14   12.00   40.30
  -1   2 -14   18.00   38.90
  -3  -3  14   -1.40   20.80
  -3  -3  14   -2.80   18.30
   3  -3 -14   -2.60   13.50
   3  -3 -14    9.30   31.60
   3   3 -14    6.90   11.10
  -3   3  14    3.80   26.90
   3   3 -14  -28.70   18.00
  -2  -3  14  140.29   20.70
  -2  -3  14  123.69   27.60
  -2  -3  14  117.79   20.50
   2  -3 -14  130.89   11.80
   2  -3 -14   86.79   30.90
   2  -3 -14   97.39   14.70
   2   3 -14  151.88   19.70
  -2   3  14  114.79   22.10
   2   3 -14  154.08   40.10
   2   3 -14  138.29   14.80
  -2   3  14  114.59   32.70
  -2   3  14  130.99   19.60
  -1  -3  14  189.78   24.30
  -1  -3  14  202.68   22.00
   1  -3 -14  202.58   32.30
   1  -3 -14  179.98   20.90
   1  -3 -14  201.38   16.20
  -1  -3  14  136.19   44.80
  -1   3  14  219.98   31.50
   1   3 -14  259.17   41.90
  -1   3  14  169.58   23.00
   1   3 -14  179.38   19.60
   1   3 -14  205.48   23.50
   0  -3 -14   29.60   28.10
   0  -3  14   43.90   14.60
   0  -3  14    9.80   35.30
   0  -3  14   39.40   19.50
   0  -3 -14   39.50   11.10
   0  -3 -14   37.40    8.50
   0   3 -14   71.49   39.40
   0   3 -14   28.00   16.00
   0   3  14   26.10   16.20
   0   3  14   59.49   34.80
  -1  -3 -14   79.49   22.50
   1  -3  14   43.20   14.60
   1  -3  14   84.39   47.70
  -1  -3 -14   82.59   15.20
   1   3  14   49.90   16.80
  -1   3 -14   94.19   18.30
  -2  -4  14   21.50   23.00
   2  -4 -14   47.10   30.10
  -2  -4  14   32.30   17.20
   2  -4 -14   12.40   12.60
  -2  -4  14   30.80   18.20
   2   4 -14   29.50    9.70
   2   4 -14   79.79   38.40
  -2   4  14   17.40   20.00
  -2   4  14   20.90   14.90
  -2   4  14   -5.60   30.20
   2   4 -14    3.30   17.20
   1  -4 -14   37.40   30.60
  -1  -4  14  114.59   20.10
  -1  -4  14   61.59   16.80
   1  -4 -14   58.49   12.90
   1  -4 -14   75.49    9.30
  -1  -4  14   63.19   36.10
  -1   4  14   54.99   30.30
   1   4 -14   61.69   18.30
   1   4 -14   80.49   12.20
   1   4 -14   59.09   42.40
  -1   4  14   79.19   20.60
   0  -4  14   14.20   19.90
   0  -4  14   92.29   39.70
   0  -4 -14   27.30   11.80
   0  -4 -14    7.90   31.70
   0  -4  14    8.30   15.10
   0  -4 -14   36.10   10.20
   0   4  14   36.00   33.80
   0   4 -14   -9.90   36.20
   0   4 -14   44.70   16.40
   0   4  14   61.19   18.80
   1  -5 -14   -7.00   11.80
  -1  -5  14  -17.20   40.10
  -1  -5  14   13.10   19.30
   1  -5 -14  100.79   36.30
  -1  -5  14  -10.00   15.80
   1  -5 -14   15.00    8.60
  -1   5  14   49.60   21.30
  -1   5  14    3.80   36.90
   1   5 -14   26.40   17.50
   1   5 -14   40.60   39.30
  -2   0  15   43.00   21.90
  -2   0  15    6.30   15.90
   2   0 -15   -7.40   19.60
  -2   0  15    6.00   29.30
   2   0 -15    2.00   37.10
   2   0 -15    2.00   12.80
  -1   0  15   88.29   20.60
  -1   0  15  150.58   33.90
  -1   0  15   24.20   17.60
   1   0 -15   89.09   34.50
   1   0 -15   49.60   20.70
   1   0 -15   47.70   12.90
   0   0 -15   29.80   35.00
   0   0 -15   -6.20   17.20
   0   0  15   17.50   39.80
   0   0  15   16.40   15.30
   0   0 -15  -12.70   10.80
  -2  -1  15   41.40   30.50
   2  -1 -15   -7.70   11.40
   2  -1 -15  -12.20   34.80
  -2  -1  15  -13.70   16.50
  -2  -1  15   23.70   21.00
  -2   1  15  -13.90   16.40
   2   1 -15   -0.10   20.40
   2   1 -15   40.40   41.00
  -2   1  15  -21.90   21.80
   2   1 -15   26.80   11.80
  -2   1  15   58.49   28.90
  -1  -1  15   53.79   20.40
  -1  -1  15  104.19   37.60
   1  -1 -15   59.99   12.90
   1  -1 -15   93.39   34.90
   1  -1 -15   55.19   24.10
  -1  -1  15   21.80   17.60
  -1   1  15   -1.60   32.80
   1   1 -15   39.40   17.70
   1   1 -15   76.49   38.10
  -1   1  15   43.70   20.00
   1   1 -15   44.70   12.20
   0  -1 -15  -21.50   34.90
   0  -1  15  -25.00   41.40
   0  -1 -15   38.10   20.30
   0  -1 -15   -7.70   11.10
   0  -1  15  -16.60   15.30
   0   1  15   29.80   17.60
   0   1 -15  -10.40   12.10
   0   1 -15   15.50   41.60
   0   1 -15   12.60   17.90
   0   1  15   14.00   35.40
   2  -2 -15   22.10   12.40
  -2  -2  15   20.10   20.20
   2  -2 -15  -14.20   30.90
  -2  -2  15   25.90   20.20
   2   2 -15  132.69   41.20
  -2   2  15  -16.80   19.60
  -2   2  15    4.30   17.50
   2   2 -15    7.50   12.00
   2   2 -15   16.70   20.30
  -1  -2  15   15.60   36.50
  -1  -2  15   16.30   20.10
   1  -2 -15   34.00   29.20
  -1  -2  15   16.70   18.70
   1  -2 -15   16.10   12.30
  -1   2  15   14.50   19.70
   1   2 -15   26.60   10.30
   1   2 -15   15.10   39.20
   1   2 -15   12.80   18.20
  -1   2  15   42.90   32.10
   0  -2  15    5.60   16.30
   0  -2 -15   23.40   12.90
   0   2  15    7.60   19.70
   0   2 -15   15.80   12.90
  -1  -3  15   89.79   21.40
   1  -3 -15   88.89   15.90
  -1  -3  15   67.49   19.10
   1   3 -15   63.59   12.60
  -1   3  15   82.89   24.10
   1   3 -15   90.29   21.00

_computing_structure_solution     'SHELXT 2014/4 (Sheldrick, 2014)'
_computing_structure_solution     'SHELXT 2014/4 (Sheldrick, 2014)'
_computing_structure_solution     'SHELXT 2014/4 (Sheldrick, 2014)'
;
_shelx_hkl_checksum              59684
_shelx_shelxl_version_number     2014/7
_olex2_submission_special_instructions 'No special instructions were received'
loop_
_space_group_symop_operation_xyz
'x, y, z'
'-x, y+1/2, -z+1/2'
'-x, -y, -z'
'x, -y-1/2, z-1/2'
loop_
_atom_site_label
_atom_site_type_symbol
_atom_site_fract_x
_atom_site_fract_y
_atom_site_fract_z
_atom_site_U_iso_or_equiv
_atom_site_adp_type
_atom_site_occupancy
_atom_site_site_symmetry_order
_atom_site_calc_flag
_atom_site_refinement_flags_posn
O001 O -0.2263(7) 0.4282(3) 0.0502(2) 0.0213(8) Uani 1 1 d .
O002 O -0.3282(7) 0.6323(3) 0.0751(2) 0.0254(9) Uani 1 1 d .
H002 H -0.4715 0.6117 0.0359 0.038 Uiso 1 1 calc GR
N003 N 0.7014(8) 0.5781(4) 0.4251(2) 0.0219(9) Uani 1 1 d .
H003 H 0.7173 0.6489 0.4615 0.026 Uiso 1 1 calc R
C004 C -0.1743(10) 0.5303(4) 0.0961(3) 0.0202(11) Uani 1 1 d .
C005 C 0.0965(10) 0.6571(4) 0.2393(3) 0.0205(10) Uani 1 1 d .
H005 H -0.0266 0.7256 0.2245 0.025 Uiso 1 1 calc R
C006 C 0.4561(9) 0.4559(4) 0.2818(3) 0.0200(11) Uani 1 1 d .
H006 H 0.5786 0.3870 0.2963 0.024 Uiso 1 1 calc R
C007 C 0.0591(10) 0.5468(4) 0.1785(3) 0.0192(10) Uani 1 1 d .
C008 C 0.3093(9) 0.6673(4) 0.3201(3) 0.0202(10) Uani 1 1 d .
H008 H 0.3317 0.7429 0.3606 0.024 Uiso 1 1 calc R
C009 C 0.4938(9) 0.5672(4) 0.3435(3) 0.0188(10) Uani 1 1 d .
C00A C 0.8973(10) 0.4776(4) 0.4544(3) 0.0224(11) Uani 1 1 d .
H00A H 0.9864 0.4570 0.3955 0.027 Uiso 1 1 calc R
H00B H 0.8074 0.3997 0.4733 0.027 Uiso 1 1 calc R
C00B C 0.2431(10) 0.4472(4) 0.2012(3) 0.0201(10) Uani 1 1 d .
H00C H 0.2204 0.3721 0.1601 0.024 Uiso 1 1 calc R
loop_
_atom_site_aniso_label
_atom_site_aniso_U_11
_atom_site_aniso_U_22
_atom_site_aniso_U_33
_atom_site_aniso_U_23
_atom_site_aniso_U_13
_atom_site_aniso_U_12
O001 0.0325(19) 0.0155(15) 0.0151(14) 0.0003(12) 0.0021(14) -0.0007(15)
O002 0.032(2) 0.0169(16) 0.0232(17) 0.0009(12) -0.0050(15) 0.0026(14)
N003 0.033(2) 0.0174(18) 0.0130(17) -0.0037(15) -0.0022(18) 0.0005(18)
C004 0.032(3) 0.018(2) 0.012(2) 0.0027(16) 0.0065(19) -0.002(2)
C005 0.029(3) 0.017(2) 0.016(2) 0.0030(16) 0.0067(19) 0.001(2)
C006 0.029(3) 0.018(2) 0.015(2) 0.0013(16) 0.0067(19) 0.0016(18)
C007 0.029(3) 0.016(2) 0.014(2) 0.0007(16) 0.0082(19) -0.0023(19)
C008 0.032(3) 0.016(2) 0.014(2) -0.0026(17) 0.006(2) 0.000(2)
C009 0.028(3) 0.018(2) 0.012(2) 0.0023(16) 0.0064(19) -0.0023(19)
C00A 0.033(3) 0.020(2) 0.014(2) 0.0005(18) 0.005(2) 0.001(2)
C00B 0.034(3) 0.014(2) 0.012(2) -0.0009(16) 0.0020(19) -0.0003(19)
loop_
_atom_type_symbol
_atom_type_description
_atom_type_scat_dispersion_real
_atom_type_scat_dispersion_imag
_atom_type_scat_source
C C 0.0033 0.0016 'International Tables Vol C Tables 4.2.6.8 and 6.1.1.4'
H H 0.0000 0.0000 'International Tables Vol C Tables 4.2.6.8 and 6.1.1.4'
N N 0.0061 0.0033 'International Tables Vol C Tables 4.2.6.8 and 6.1.1.4'
O O 0.0106 0.0060 'International Tables Vol C Tables 4.2.6.8 and 6.1.1.4'
loop_
_geom_angle_atom_site_label_1
_geom_angle_atom_site_label_2
_geom_angle_atom_site_label_3
_geom_angle
_geom_angle_site_symmetry_1
_geom_angle_site_symmetry_3
C004 O002 H002 109.5 . .
C009 N003 H003 118.6 . .
C009 N003 C00A 122.8(4) . .
C00A N003 H003 118.6 . .
O001 C004 O002 122.3(4) . .
O001 C004 C007 122.5(4) . .
O002 C004 C007 115.2(4) . .
C007 C005 H005 119.6 . .
C008 C005 H005 119.6 . .
C008 C005 C007 120.8(4) . .
C009 C006 H006 119.9 . .
C00B C006 H006 119.9 . .
C00B C006 C009 120.2(4) . .
C005 C007 C004 121.9(4) . .
C00B C007 C004 119.3(4) . .
C00B C007 C005 118.8(4) . .
C005 C008 H008 119.7 . .
C005 C008 C009 120.7(4) . .
C009 C008 H008 119.7 . .
N003 C009 C006 121.6(4) . .
N003 C009 C008 119.9(4) . .
C008 C009 C006 118.5(4) . .
N003 C00A C00A 108.9(4) . 3_766
N003 C00A H00A 109.9 . .
N003 C00A H00B 109.9 . .
C00A C00A H00A 109.9 3_766 .
C00A C00A H00B 109.9 3_766 .
H00A C00A H00B 108.3 . .
C006 C00B C007 121.1(4) . .
C006 C00B H00C 119.4 . .
C007 C00B H00C 119.4 . .
loop_
_geom_bond_atom_site_label_1
_geom_bond_atom_site_label_2
_geom_bond_distance
_geom_bond_site_symmetry_2
O001 C004 1.234(5) .
O002 H002 0.8400 .
O002 C004 1.324(6) .
N003 H003 0.8800 .
N003 C009 1.365(6) .
N003 C00A 1.453(6) .
C004 C007 1.463(7) .
C005 H005 0.9500 .
C005 C007 1.399(6) .
C005 C008 1.375(6) .
C006 H006 0.9500 .
C006 C009 1.416(6) .
C006 C00B 1.373(7) .
C007 C00B 1.399(6) .
C008 H008 0.9500 .
C008 C009 1.404(6) .
C00A C00A 1.514(9) 3_766
C00A H00A 0.9900 .
C00A H00B 0.9900 .
C00B H00C 0.9500 .
loop_
_twin_individual_id
_twin_individual_mass_fraction_refined
1 0.743(4)
2 0.257(4)
