#------------------------------------------------------------------------------
#$Date: 2019-11-11 18:26:33 +0200 (Mon, 11 Nov 2019) $
#$Revision: 226898 $
#$URL: file:///home/coder/svn-repositories/cod/cif/4/03/54/4035440.cif $
#------------------------------------------------------------------------------
#
# This file is available in the Crystallography Open Database (COD),
# http://www.crystallography.net/
#
# All data on this site have been placed in the public domain by the
# contributors.
#
data_4035440
loop_
_publ_author_name
'Atienza, Bren Jordan P.'
'Jensen, Lionel D.'
'Noton, Sarah L.'
'Ansalem, Anil Kumar Victoria'
'Hobman, Tom'
'Fearns, Rachel'
'Marchant, David J.'
'West, F. G.'
_publ_section_title
;
 Dual Catalytic Synthesis of Antiviral Compounds Based on
 Metallocarbene-Azide Cascade Chemistry.
;
_journal_issue                   13
_journal_name_full               'The Journal of organic chemistry'
_journal_page_first              6829
_journal_page_last               6842
_journal_paper_doi               10.1021/acs.joc.8b00222
_journal_volume                  83
_journal_year                    2018
_chemical_formula_moiety         'C11 H9 N5 O3'
_chemical_formula_sum            'C11 H9 N5 O3'
_chemical_formula_weight         259.23
_chemical_name_systematic
'methyl 2-diazo-3-(2-azido-3-methylphenyl)-3-oxopropanoate'
_space_group_crystal_system      triclinic
_space_group_IT_number           2
_space_group_name_Hall           '-P 1'
_space_group_name_H-M_alt        'P -1'
_atom_sites_solution_hydrogens   geom
_audit_creation_method           SHELXL-2014/7
_cell_angle_alpha                96.711(2)
_cell_angle_beta                 104.962(2)
_cell_angle_gamma                105.019(2)
_cell_formula_units_Z            2
_cell_length_a                   7.3874(3)
_cell_length_b                   8.0591(4)
_cell_length_c                   10.8556(5)
_cell_measurement_reflns_used    8057
_cell_measurement_temperature    173(2)
_cell_measurement_theta_max      73.63
_cell_measurement_theta_min      4.30
_cell_volume                     591.25(5)
_computing_cell_refinement       'Bruker SAINT'
_computing_data_collection       'Bruker APEX2'
_computing_data_reduction        'Bruker SAINT'
_computing_molecular_graphics    'Bruker SHELXTL'
_computing_publication_material  'Bruker SHELXTL'
_computing_structure_refinement  'SHELXL-2014/7 (Sheldrick, 2014)'
_computing_structure_solution    'SHELXD (Schneider & Sheldrick, 2002)'
_diffrn_ambient_temperature      173(2)
_diffrn_measured_fraction_theta_full 0.969
_diffrn_measured_fraction_theta_max 0.958
_diffrn_measurement_device_type  'Bruker APEX-II CCD'
_diffrn_measurement_method       '\f and \w scans'
_diffrn_radiation_type           CuK\a
_diffrn_radiation_wavelength     1.54178
_diffrn_reflns_av_R_equivalents  0.0177
_diffrn_reflns_av_unetI/netI     0.0266
_diffrn_reflns_Laue_measured_fraction_full 0.969
_diffrn_reflns_Laue_measured_fraction_max 0.958
_diffrn_reflns_limit_h_max       9
_diffrn_reflns_limit_h_min       -9
_diffrn_reflns_limit_k_max       10
_diffrn_reflns_limit_k_min       -10
_diffrn_reflns_limit_l_max       10
_diffrn_reflns_limit_l_min       -12
_diffrn_reflns_number            4241
_diffrn_reflns_point_group_measured_fraction_full 0.969
_diffrn_reflns_point_group_measured_fraction_max 0.958
_diffrn_reflns_theta_full        67.679
_diffrn_reflns_theta_max         74.056
_diffrn_reflns_theta_min         4.300
_exptl_absorpt_coefficient_mu    0.938
_exptl_absorpt_correction_T_max  1.0000
_exptl_absorpt_correction_T_min  0.7941
_exptl_absorpt_correction_type   numerical
_exptl_absorpt_process_details   'SADABS 2014/5'
_exptl_crystal_colour            yellow
_exptl_crystal_density_diffrn    1.456
_exptl_crystal_description       fragment
_exptl_crystal_F_000             268
_exptl_crystal_size_max          0.263
_exptl_crystal_size_mid          0.180
_exptl_crystal_size_min          0.056
_refine_diff_density_max         0.205
_refine_diff_density_min         -0.202
_refine_diff_density_rms         0.037
_refine_ls_extinction_method     none
_refine_ls_goodness_of_fit_ref   1.056
_refine_ls_hydrogen_treatment    constr
_refine_ls_matrix_type           full
_refine_ls_number_parameters     173
_refine_ls_number_reflns         2302
_refine_ls_number_restraints     0
_refine_ls_restrained_S_all      1.056
_refine_ls_R_factor_all          0.0369
_refine_ls_R_factor_gt           0.0328
_refine_ls_shift/su_max          0.000
_refine_ls_shift/su_mean         0.000
_refine_ls_structure_factor_coef Fsqd
_refine_ls_weighting_details
'w=1/[\s^2^(Fo^2^)+(0.0478P)^2^+0.1063P] where P=(Fo^2^+2Fc^2^)/3'
_refine_ls_weighting_scheme      calc
_refine_ls_wR_factor_gt          0.0890
_refine_ls_wR_factor_ref         0.0919
_reflns_Friedel_coverage         0.000
_reflns_number_gt                2041
_reflns_number_total             2302
_reflns_threshold_expression     'I > 2\s(I)'
_cod_data_source_file            jo8b00222_si_002.cif
_cod_data_source_block           1b
_cod_database_code               4035440
_shelx_shelxl_version_number     2014/7
_shelx_space_group_comment
; 
The symmetry employed for this shelxl refinement is uniquely defined 
by the following loop, which should always be used as a source of 
symmetry information in preference to the above space-group names. 
They are only intended as comments. 
;
_shelx_estimated_absorpt_t_min   0.791
_shelx_estimated_absorpt_t_max   0.949
_shelx_res_file
; 
  
    fgw1501.res created by SHELXL-2014/7 
  
  
TITL fgw1501 in P-1 
CELL 1.54178 7.3874 8.0591 10.8556 96.7109 104.9618 105.0191 
ZERR    2.00 0.0003 0.0004  0.0005  0.0023   0.0023   0.0020 
LATT 1 
SFAC C  H  N  O 
UNIT 22 18 10 6 
SIZE 0.056 0.18 0.263 
TEMP -100 
L.S. 4 
ACTA 
CONF 
WGHT    0.047800    0.106300 
FVAR       0.33744 
O1    4   -0.076020    0.158494    0.280470    11.00000    0.03983    0.03807 = 
         0.03117    0.00798    0.00976    0.00729 
O2    4   -0.254830   -0.021037    0.087725    11.00000    0.04262    0.02895 = 
         0.03435    0.00574    0.01293   -0.00129 
O3    4    0.205024    0.454967    0.040299    11.00000    0.02923    0.03875 = 
         0.03414    0.01112    0.01129    0.00745 
N1    3   -0.105566    0.176074   -0.045010    11.00000    0.02998    0.02674 = 
         0.03473    0.00802    0.00927    0.00690 
N2    3   -0.160648    0.127108   -0.152330    11.00000    0.04921    0.03844 = 
         0.03360    0.00621    0.01023    0.00616 
N3    3    0.539841    0.540609    0.296938    11.00000    0.02558    0.02723 = 
         0.03896    0.00381    0.01071    0.00581 
N4    3    0.508447    0.393186    0.233273    11.00000    0.02414    0.03584 = 
         0.03636    0.00481    0.00738    0.01076 
N5    3    0.503980    0.263521    0.178281    11.00000    0.04026    0.04463 = 
         0.05297   -0.00604    0.00683    0.02061 
C1    1   -0.121950    0.126079    0.163756    11.00000    0.02574    0.02758 = 
         0.03287    0.00637    0.00902    0.00916 
C2    1   -0.038052    0.239575    0.083445    11.00000    0.02758    0.02659 = 
         0.02836    0.00456    0.00697    0.00777 
C3    1    0.124186    0.402443    0.120107    11.00000    0.02300    0.02776 = 
         0.03469    0.00961    0.00824    0.01058 
C4    1   -0.343134   -0.147116    0.156113    11.00000    0.05162    0.03410 = 
         0.04708    0.00987    0.02227   -0.00319 
AFIX  33 
H4A   2   -0.437648   -0.249626    0.093086    11.00000   -1.20000 
H4B   2   -0.240527   -0.183498    0.213273    11.00000   -1.20000 
H4C   2   -0.411057   -0.093652    0.208317    11.00000   -1.20000 
AFIX   0 
C5    1    0.181782    0.507427    0.254272    11.00000    0.02611    0.02288 = 
         0.03274    0.00845    0.00954    0.00767 
C6    1    0.379615    0.583508    0.329226    11.00000    0.02604    0.02188 = 
         0.03169    0.00969    0.01083    0.00742 
C7    1    0.432670    0.707576    0.443601    11.00000    0.03469    0.02366 = 
         0.03121    0.00889    0.00913    0.00852 
C8    1    0.282982    0.748416    0.484453    11.00000    0.04727    0.02907 = 
         0.03358    0.00549    0.01491    0.01526 
AFIX  43 
H8    2    0.316084    0.831726    0.562442    11.00000   -1.20000 
AFIX   0 
C9    1    0.086333    0.670485    0.414115    11.00000    0.04037    0.03822 = 
         0.04720    0.01054    0.02231    0.01901 
AFIX  43 
H9    2   -0.013389    0.698976    0.444764    11.00000   -1.20000 
AFIX   0 
C10   1    0.036631    0.551745    0.299760    11.00000    0.02792    0.03306 = 
         0.04388    0.00920    0.01347    0.01087 
AFIX  43 
H10   2   -0.097818    0.499401    0.251276    11.00000   -1.20000 
AFIX   0 
C11   1    0.645696    0.790963    0.521181    11.00000    0.03783    0.03041 = 
         0.03486    0.00318    0.00380    0.00505 
AFIX 137 
H11A  2    0.655403    0.874946    0.597352    11.00000   -1.20000 
H11B  2    0.716865    0.852078    0.466865    11.00000   -1.20000 
H11C  2    0.703301    0.700070    0.549756    11.00000   -1.20000 
  
AFIX   0 
HKLF 4 
  
REM  fgw1501 in P-1 
REM R1 =  0.0328 for    2041 Fo > 4sig(Fo)  and  0.0369 for all    2302 data 
REM    173 parameters refined using      0 restraints 
  
END 
  
WGHT      0.0478      0.1063 
  
REM Highest difference peak  0.205,  deepest hole -0.202,  1-sigma level  0.037 
Q1    1   0.0231  0.3189  0.1087  11.00000  0.05    0.21 
Q2    1   0.2742  0.5566  0.2864  11.00000  0.05    0.17 
Q3    1   0.1223  0.5348  0.2796  11.00000  0.05    0.15 
Q4    1  -0.0609  0.1820  0.1218  11.00000  0.05    0.15 
Q5    1   0.4118  0.6365  0.3963  11.00000  0.05    0.15 
Q6    1   0.3215  0.3840  0.1582  11.00000  0.05    0.14 
Q7    1   0.1598  0.4177  0.2087  11.00000  0.05    0.13 
Q8    1   0.5292  0.7415  0.4765  11.00000  0.05    0.12 
Q9    1   0.3543  0.7394  0.4440  11.00000  0.05    0.12 
Q10   1  -0.3546 -0.2665  0.1020  11.00000  0.05    0.12 
Q11   1   0.3650  0.7041  0.4796  11.00000  0.05    0.12 
Q12   1  -0.0639  0.0434  0.3173  11.00000  0.05    0.11 
Q13   1   0.0608  0.5671  0.3820  11.00000  0.05    0.11 
Q14   1  -0.5055 -0.1982  0.0677  11.00000  0.05    0.11 
Q15   1   0.5315  0.1608  0.1322  11.00000  0.05    0.10 
Q16   1   0.0711  0.6559  0.3367  11.00000  0.05    0.10 
Q17   1   0.1783  0.7098  0.4441  11.00000  0.05    0.10 
Q18   1   0.2000  0.3394 -0.0058  11.00000  0.05    0.10 
Q19   1   0.1353  0.3443 -0.0180  11.00000  0.05    0.10 
Q20   1   0.2531  0.5859  0.0752  11.00000  0.05    0.09 
;
_shelx_res_checksum              2543
_shelx_hkl_file
; 
   5  -2 -12    0.07    0.11 
  -1   0 -12    0.17    0.10 
  -1   1 -12    1.72    0.14 
   5   1 -12    1.30    0.07 
  -1   2 -12   -0.03    0.07 
   4   2 -12    0.62    0.08 
   5   2 -12    0.66    0.04 
  -1   3 -12    0.27    0.07 
   0   3 -12    2.69    0.25 
   3   3 -12    6.03    0.20 
   4   3 -12    4.32    0.11 
   5   3 -12    0.61    0.07 
  -1   4 -12    1.96    0.11 
   0   4 -12    0.40    0.07 
   1   4 -12    0.05    0.05 
   2   4 -12    1.22    0.07 
   3   4 -12    3.50    0.10 
   4   4 -12    5.19    0.12 
   0   5 -12    0.65    0.06 
   1   5 -12    4.51    0.12 
   2   5 -12    0.66    0.05 
   1  -4 -11    0.01    0.03 
   2  -4 -11    0.09    0.03 
   3  -4 -11    2.61    0.08 
   4  -4 -11    0.59    0.04 
   5  -4 -11    0.95    0.05 
   0  -3 -11    0.02    0.02 
   1  -3 -11    1.61    0.07 
   2  -3 -11    0.05    0.04 
   3  -3 -11    0.01    0.04 
   4  -3 -11    0.08    0.04 
   5  -3 -11    2.33    0.08 
   6  -3 -11    0.06    0.03 
  -1  -2 -11    1.48    0.06 
   0  -2 -11    1.15    0.07 
   1  -2 -11    0.15    0.06 
   4  -2 -11    7.59    0.24 
   5  -2 -11    0.53    0.05 
   6  -2 -11    5.91    0.11 
  -2  -1 -11    0.85    0.05 
  -1  -1 -11    0.11    0.04 
   0  -1 -11    1.24    0.09 
   5  -1 -11    3.45    0.12 
   6  -1 -11    3.29    0.08 
   7  -1 -11    1.22    0.05 
  -2   0 -11    0.17    0.04 
  -1   0 -11    0.16    0.05 
   5   0 -11    0.05    0.04 
   6   0 -11    0.50    0.04 
   7   0 -11    0.10    0.03 
  -3   1 -11    0.19    0.08 
  -2   1 -11    0.39    0.05 
  -1   1 -11    0.35    0.07 
   4   1 -11    3.98    0.16 
   5   1 -11    0.87    0.05 
   6   1 -11    0.08    0.03 
  -3   2 -11    0.01    0.03 
  -2   2 -11    2.08    0.09 
  -1   2 -11    0.86    0.09 
   0   2 -11    0.46    0.27 
   4   2 -11    5.75    0.14 
   5   2 -11    0.07    0.03 
   6   2 -11    0.87    0.04 
  -3   3 -11    0.49    0.05 
  -2   3 -11   15.35    0.25 
  -1   3 -11    0.00    0.06 
   0   3 -11    2.12    0.16 
   1   3 -11    0.01    0.08 
   2   3 -11    0.61    0.09 
   3   3 -11    2.66    0.10 
   4   3 -11    1.52    0.07 
   5   3 -11    0.64    0.04 
   6   3 -11    1.22    0.15 
  -3   4 -11    0.81    0.06 
  -2   4 -11   10.60    0.20 
  -1   4 -11    0.03    0.05 
   0   4 -11    2.20    0.12 
   1   4 -11    2.15    0.11 
   2   4 -11    0.24    0.05 
   3   4 -11    0.33    0.04 
   4   4 -11    7.64    0.13 
   5   4 -11    0.01    0.02 
  -2   5 -11    7.88    0.16 
  -1   5 -11    0.39    0.06 
   0   5 -11    5.11    0.14 
   1   5 -11    3.63    0.12 
   2   5 -11    0.16    0.04 
   3   5 -11    0.22    0.03 
   4   5 -11    1.46    0.05 
  -1   6 -11    1.40    0.06 
   0   6 -11    0.84    0.06 
   1   6 -11    5.88    0.11 
   2   6 -11    3.99    0.08 
   3   6 -11    0.01    0.06 
   1  -5 -10    0.63    0.04 
   2  -5 -10    0.53    0.04 
   3  -5 -10   -0.02    0.02 
   4  -5 -10    0.03    0.02 
   5  -5 -10    3.98    0.08 
   6  -5 -10    1.81    0.07 
   0  -4 -10    1.64    0.06 
   1  -4 -10    1.12    0.05 
   2  -4 -10    0.15    0.03 
   3  -4 -10    9.42    0.17 
   4  -4 -10    0.04    0.03 
   5  -4 -10    0.20    0.03 
   6  -4 -10    9.37    0.14 
   7  -4 -10    7.24    0.24 
  -1  -3 -10    0.51    0.04 
   0  -3 -10    0.01    0.03 
   1  -3 -10    6.49    0.14 
   2  -3 -10   15.97    0.26 
   3  -3 -10    0.17    0.04 
   4  -3 -10    8.90    0.18 
   5  -3 -10   -0.01    0.03 
   6  -3 -10    5.63    0.11 
   7  -3 -10    0.01    0.02 
  -2  -2 -10    0.58    0.04 
  -1  -2 -10    2.62    0.09 
   0  -2 -10    2.49    0.09 
   1  -2 -10    6.20    0.16 
   2  -2 -10    8.16    0.30 
   3  -2 -10    9.98    0.30 
   4  -2 -10    0.04    0.04 
   5  -2 -10   11.34    0.20 
   6  -2 -10    0.66    0.04 
   7  -2 -10    0.20    0.03 
  -3  -1 -10   -0.01    0.02 
  -2  -1 -10    0.40    0.04 
  -1  -1 -10    0.02    0.04 
   0  -1 -10    3.24    0.12 
   4  -1 -10    1.34    0.09 
   5  -1 -10    2.39    0.09 
   6  -1 -10   10.56    0.16 
   7  -1 -10    6.91    0.11 
  -3   0 -10   -0.01    0.03 
  -2   0 -10    0.51    0.06 
  -1   0 -10    2.66    0.12 
   0   0 -10    1.13    0.17 
   4   0 -10   12.08    0.25 
   5   0 -10    0.08    0.04 
   6   0 -10    1.49    0.06 
   7   0 -10    1.09    0.04 
  -4   1 -10   -0.06    0.14 
  -3   1 -10    0.11    0.04 
  -2   1 -10   11.71    0.22 
  -1   1 -10    0.47    0.06 
   4   1 -10   34.99    0.49 
   5   1 -10   11.10    0.19 
   6   1 -10    1.97    0.07 
   7   1 -10    0.97    0.04 
  -4   2 -10    0.24    0.04 
  -3   2 -10    5.58    0.14 
  -2   2 -10   13.11    0.25 
  -1   2 -10    5.28    0.17 
   0   2 -10    2.75    0.20 
   3   2 -10    0.11    0.05 
   4   2 -10    0.10    0.04 
   5   2 -10    0.15    0.04 
   6   2 -10    1.95    0.06 
   7   2 -10    0.60    0.04 
  -4   3 -10    0.05    0.03 
  -3   3 -10    2.06    0.09 
  -2   3 -10    0.08    0.05 
  -1   3 -10    4.82    0.15 
   0   3 -10   18.31    0.33 
   1   3 -10    2.58    0.14 
   2   3 -10   11.09    0.21 
   3   3 -10   12.96    0.20 
   4   3 -10    0.41    0.05 
   5   3 -10    0.07    0.03 
   6   3 -10    5.62    0.10 
  -4   4 -10   -0.01    0.03 
  -3   4 -10    4.05    0.11 
  -2   4 -10    0.03    0.05 
  -1   4 -10    1.93    0.11 
   0   4 -10    5.13    0.16 
   1   4 -10    3.92    0.12 
   2   4 -10    0.03    0.04 
   3   4 -10    3.75    0.11 
   4   4 -10    1.39    0.06 
   5   4 -10    0.00    0.03 
  -3   5 -10    0.91    0.05 
  -2   5 -10   19.57    0.29 
  -1   5 -10    0.28    0.06 
   0   5 -10    8.30    0.18 
   1   5 -10   11.00    0.20 
   2   5 -10    0.15    0.04 
   3   5 -10    3.72    0.10 
   4   5 -10    0.03    0.03 
   5   5 -10   -0.01    0.03 
  -3   6 -10    1.27    0.06 
  -2   6 -10    0.42    0.05 
  -1   6 -10    0.48    0.05 
   0   6 -10    0.55    0.06 
   1   6 -10    0.46    0.05 
   2   6 -10    1.11    0.05 
   3   6 -10    0.07    0.03 
   4   6 -10    0.07    0.04 
  -2   7 -10    0.62    0.06 
  -1   7 -10    1.23    0.05 
   0   7 -10    0.73    0.04 
   1   7 -10    4.14    0.09 
   2   7 -10    0.03    0.03 
   1  -6  -9    0.08    0.02 
   2  -6  -9    0.10    0.02 
   3  -6  -9    0.12    0.03 
   4  -6  -9    0.10    0.03 
   5  -6  -9    1.07    0.04 
   6  -6  -9    0.00    0.07 
   0  -5  -9    0.08    0.02 
   1  -5  -9    0.03    0.03 
   2  -5  -9    1.01    0.05 
   3  -5  -9    3.77    0.10 
   4  -5  -9    6.84    0.13 
   5  -5  -9    1.29    0.06 
   6  -5  -9    0.40    0.03 
   7  -5  -9    1.00    0.05 
  -2  -4  -9    4.27    0.52 
  -1  -4  -9    1.89    0.06 
   0  -4  -9    0.36    0.04 
   1  -4  -9    6.39    0.13 
   2  -4  -9    4.98    0.12 
   3  -4  -9    3.84    0.10 
   4  -4  -9    2.14    0.08 
   5  -4  -9    3.22    0.09 
   6  -4  -9    3.57    0.09 
   7  -4  -9    2.90    0.07 
  -2  -3  -9    1.02    0.05 
  -1  -3  -9    2.48    0.09 
   0  -3  -9    1.86    0.07 
   1  -3  -9    0.01    0.03 
   2  -3  -9    0.27    0.04 
   3  -3  -9    1.49    0.07 
   4  -3  -9    7.07    0.14 
   5  -3  -9    0.03    0.03 
   6  -3  -9    2.07    0.07 
   7  -3  -9    1.60    0.06 
   8  -3  -9    1.10    0.06 
  -3  -2  -9    0.27    0.03 
  -2  -2  -9    0.43    0.04 
  -1  -2  -9    1.80    0.07 
   0  -2  -9   14.70    0.21 
   1  -2  -9   12.03    0.20 
   2  -2  -9   11.20    0.22 
   3  -2  -9    0.03    0.04 
   4  -2  -9   25.12    0.31 
   5  -2  -9    5.88    0.12 
   6  -2  -9    0.52    0.05 
   7  -2  -9    4.77    0.10 
   8  -2  -9    0.11    0.02 
  -4  -1  -9    0.03    0.03 
  -3  -1  -9    0.10    0.03 
  -2  -1  -9   14.02    0.23 
  -1  -1  -9    0.09    0.04 
   0  -1  -9    2.68    0.10 
   1  -1  -9    2.76    0.28 
   3  -1  -9    2.86    0.26 
   4  -1  -9   66.37    0.78 
   5  -1  -9    7.02    0.13 
   6  -1  -9    0.53    0.05 
   7  -1  -9    2.47    0.07 
   8  -1  -9    0.36    0.03 
  -4   0  -9    1.17    0.05 
  -3   0  -9    1.22    0.07 
  -2   0  -9    0.07    0.04 
  -1   0  -9   38.17    0.49 
   0   0  -9    9.46    0.52 
   3   0  -9    0.79    0.17 
   4   0  -9    1.99    0.08 
   5   0  -9    5.39    0.12 
   6   0  -9    0.57    0.05 
   7   0  -9    2.42    0.07 
   8   0  -9    1.01    0.06 
  -4   1  -9    0.77    0.05 
  -3   1  -9    0.10    0.04 
  -2   1  -9    5.14    0.13 
  -1   1  -9    0.04    0.05 
   0   1  -9    7.23    0.33 
   3   1  -9    0.67    0.10 
   4   1  -9    9.22    0.15 
   5   1  -9    9.89    0.15 
   6   1  -9    1.29    0.06 
   7   1  -9    0.98    0.04 
  -4   2  -9    1.46    0.07 
  -3   2  -9   20.22    0.30 
  -2   2  -9    0.26    0.05 
  -1   2  -9    0.00    0.05 
   0   2  -9    6.14    0.40 
   1   2  -9    2.63    0.31 
   2   2  -9    4.61    0.29 
   3   2  -9    3.63    0.19 
   4   2  -9    5.51    0.13 
   5   2  -9    3.08    0.09 
   6   2  -9    0.63    0.05 
   7   2  -9    0.34    0.03 
  -5   3  -9    3.10    0.11 
  -4   3  -9    0.02    0.03 
  -3   3  -9    0.46    0.06 
  -2   3  -9   24.42    0.34 
  -1   3  -9    7.88    0.19 
   0   3  -9   88.18    1.45 
   1   3  -9    0.28    0.09 
   2   3  -9    5.24    0.16 
   3   3  -9   21.97    0.27 
   4   3  -9    5.97    0.12 
   5   3  -9    0.11    0.04 
   6   3  -9    0.21    0.03 
   7   3  -9    0.95    0.13 
  -4   4  -9    5.24    0.12 
  -3   4  -9    0.17    0.05 
  -2   4  -9    3.60    0.12 
  -1   4  -9    1.07    0.07 
   0   4  -9    0.52    0.06 
   1   4  -9   31.73    0.38 
   2   4  -9    0.31    0.05 
   3   4  -9    2.56    0.08 
   4   4  -9    1.56    0.07 
   5   4  -9    0.38    0.04 
   6   4  -9    5.33    0.09 
  -4   5  -9    2.04    0.07 
  -3   5  -9   15.76    0.25 
  -2   5  -9    7.82    0.19 
  -1   5  -9    4.79    0.15 
   0   5  -9   10.90    0.19 
   1   5  -9    2.43    0.09 
   2   5  -9    0.47    0.05 
   3   5  -9    0.35    0.04 
   4   5  -9    0.23    0.04 
   5   5  -9    1.23    0.05 
  -4   6  -9    1.71    0.07 
  -3   6  -9    0.37    0.04 
  -2   6  -9    9.02    0.17 
  -1   6  -9    2.71    0.11 
   0   6  -9    4.49    0.13 
   1   6  -9    2.65    0.10 
   2   6  -9    0.63    0.05 
   3   6  -9    0.07    0.03 
   4   6  -9    0.96    0.04 
  -3   7  -9    3.23    0.09 
  -2   7  -9    0.62    0.05 
  -1   7  -9    2.10    0.07 
   0   7  -9    3.23    0.10 
   1   7  -9    0.24    0.04 
   2   7  -9    0.48    0.04 
   3   7  -9    0.19    0.03 
  -1   8  -9    0.13    0.04 
   0   8  -9    1.15    0.06 
   1   8  -9    0.85    0.07 
   2  -7  -8    0.00    0.02 
   3  -7  -8    0.52    0.03 
   4  -7  -8    0.26    0.02 
   5  -7  -8    2.11    0.07 
   0  -6  -8    0.39    0.03 
   1  -6  -8    1.02    0.05 
   2  -6  -8    1.83    0.06 
   3  -6  -8    1.63    0.06 
   4  -6  -8    0.61    0.04 
   5  -6  -8    0.04    0.03 
   6  -6  -8    0.06    0.02 
  -1  -5  -8    0.74    0.04 
   0  -5  -8    0.02    0.03 
   1  -5  -8    0.92    0.05 
   2  -5  -8   14.36    0.20 
   3  -5  -8    0.09    0.03 
   4  -5  -8    0.34    0.04 
   5  -5  -8    0.01    0.03 
   6  -5  -8    0.05    0.03 
   7  -5  -8    1.32    0.04 
  -2  -4  -8    5.52    0.10 
  -1  -4  -8    1.49    0.06 
   0  -4  -8    4.39    0.10 
   1  -4  -8    6.85    0.12 
   2  -4  -8    6.14    0.12 
   3  -4  -8    1.33    0.06 
   4  -4  -8   11.05    0.16 
   5  -4  -8   10.64    0.15 
   6  -4  -8    0.73    0.05 
   7  -4  -8    0.06    0.03 
   8  -4  -8    4.00    0.09 
  -3  -3  -8    2.61    0.07 
  -2  -3  -8    3.63    0.10 
  -1  -3  -8    3.58    0.09 
   0  -3  -8    0.08    0.03 
   1  -3  -8   -0.01    0.03 
   2  -3  -8    3.28    0.17 
   3  -3  -8    0.86    0.09 
   4  -3  -8   35.52    0.38 
   5  -3  -8    9.75    0.15 
   6  -3  -8    0.05    0.03 
   7  -3  -8    1.95    0.06 
   8  -3  -8    0.11    0.02 
  -4  -2  -8    0.88    0.04 
  -3  -2  -8    1.53    0.07 
  -2  -2  -8    0.03    0.03 
  -1  -2  -8    6.79    0.12 
   0  -2  -8   -0.01    0.04 
   1  -2  -8    2.97    0.16 
   2  -2  -8    2.53    0.14 
   3  -2  -8   28.60    0.81 
   4  -2  -8    6.92    0.23 
   5  -2  -8    8.42    0.13 
   6  -2  -8    6.20    0.11 
   7  -2  -8    0.34    0.04 
   8  -2  -8    1.40    0.05 
  -4  -1  -8    0.07    0.03 
  -3  -1  -8    0.00    0.03 
  -2  -1  -8    4.91    0.12 
  -1  -1  -8    2.16    0.19 
   0  -1  -8    1.25    0.10 
   1  -1  -8    0.31    0.07 
   2  -1  -8    1.06    0.14 
   3  -1  -8   23.02    0.54 
   4  -1  -8    1.72    0.12 
   5  -1  -8    2.58    0.08 
   6  -1  -8    0.11    0.03 
   7  -1  -8    7.85    0.13 
   8  -1  -8    0.01    0.02 
  -5   0  -8    1.91    0.07 
  -4   0  -8    0.00    0.03 
  -3   0  -8    2.12    0.08 
  -2   0  -8   29.45    0.37 
  -1   0  -8    0.05    0.06 
   0   0  -8    7.30    0.27 
   3   0  -8   13.18    0.38 
   4   0  -8    6.42    0.23 
   5   0  -8    1.83    0.07 
   6   0  -8   10.94    0.15 
   7   0  -8    0.97    0.05 
   8   0  -8    0.90    0.04 
  -5   1  -8    0.37    0.04 
  -4   1  -8    3.14    0.10 
  -3   1  -8   14.59    0.22 
  -2   1  -8    3.74    0.17 
  -1   1  -8    0.67    0.10 
   0   1  -8    1.17    0.14 
   2   1  -8    6.10    0.38 
   3   1  -8   10.39    0.30 
   4   1  -8    0.01    0.05 
   5   1  -8    5.98    0.13 
   6   1  -8   13.20    0.18 
   7   1  -8    0.02    0.03 
   8   1  -8    0.07    0.03 
  -5   2  -8    3.56    0.10 
  -4   2  -8    0.43    0.05 
  -3   2  -8    1.23    0.07 
  -2   2  -8   19.60    0.48 
  -1   2  -8    1.82    0.16 
   0   2  -8    1.49    0.13 
   1   2  -8   36.18    0.88 
   2   2  -8   17.54    0.46 
   3   2  -8   30.17    0.73 
   4   2  -8    1.03    0.10 
   5   2  -8    7.75    0.14 
   6   2  -8    0.01    0.03 
   7   2  -8    0.13    0.03 
  -5   3  -8    1.46    0.07 
  -4   3  -8    2.13    0.09 
  -3   3  -8    0.10    0.04 
  -2   3  -8    2.03    0.09 
  -1   3  -8    3.13    0.20 
   0   3  -8    0.18    0.08 
   1   3  -8   12.98    0.42 
   2   3  -8    4.81    0.22 
   3   3  -8    6.95    0.27 
   4   3  -8    0.13    0.04 
   5   3  -8    6.22    0.12 
   6   3  -8    2.28    0.07 
   7   3  -8    0.13    0.03 
  -5   4  -8    0.21    0.04 
  -4   4  -8   11.88    0.20 
  -3   4  -8    0.04    0.04 
  -2   4  -8   10.42    0.18 
  -1   4  -8    6.54    0.25 
   0   4  -8    0.12    0.08 
   1   4  -8    1.83    0.13 
   2   4  -8    0.00    0.05 
   3   4  -8    5.52    0.13 
   4   4  -8    5.75    0.11 
   5   4  -8    0.85    0.05 
   6   4  -8    7.09    0.13 
  -5   5  -8    4.20    0.11 
  -4   5  -8    0.34    0.05 
  -3   5  -8    0.21    0.04 
  -2   5  -8    4.83    0.13 
  -1   5  -8   13.16    0.19 
   0   5  -8    6.45    0.15 
   1   5  -8    2.82    0.10 
   2   5  -8    0.49    0.05 
   3   5  -8    8.97    0.15 
   4   5  -8    0.59    0.05 
   5   5  -8    0.44    0.04 
   6   5  -8    5.15    0.25 
  -5   6  -8    3.33    0.12 
  -4   6  -8    1.51    0.07 
  -3   6  -8    0.81    0.06 
  -2   6  -8    0.45    0.06 
  -1   6  -8    1.81    0.08 
   0   6  -8    0.98    0.06 
   1   6  -8    0.02    0.03 
   2   6  -8    0.44    0.05 
   3   6  -8    0.33    0.04 
   4   6  -8    0.35    0.04 
   5   6  -8    5.57    0.17 
  -4   7  -8    6.50    0.13 
  -3   7  -8    1.47    0.07 
  -2   7  -8    0.83    0.06 
  -1   7  -8    1.08    0.06 
   0   7  -8    4.61    0.13 
   1   7  -8    2.77    0.09 
   2   7  -8    0.04    0.03 
   3   7  -8    3.61    0.09 
  -3   8  -8    1.47    0.08 
  -2   8  -8    2.24    0.09 
  -1   8  -8    1.59    0.07 
   0   8  -8   11.03    0.19 
   1   8  -8    0.89    0.05 
   2   8  -8    0.12    0.04 
   0  -7  -7    0.48    0.12 
   1  -7  -7    0.03    0.03 
   2  -7  -7    5.09    0.10 
   3  -7  -7    0.05    0.03 
   4  -7  -7   14.77    0.18 
   5  -7  -7    2.48    0.07 
   6  -7  -7    0.13    0.03 
  -1  -6  -7    1.73    0.06 
   0  -6  -7    3.29    0.08 
   1  -6  -7    1.12    0.05 
   2  -6  -7   16.42    0.21 
   3  -6  -7    0.06    0.03 
   4  -6  -7   -0.03    0.03 
   5  -6  -7    2.09    0.07 
   6  -6  -7    1.10    0.05 
   7  -6  -7    7.20    0.12 
  -2  -5  -7    0.07    0.03 
  -1  -5  -7    0.69    0.05 
   0  -5  -7   13.38    0.19 
   1  -5  -7   12.99    0.17 
   2  -5  -7    4.68    0.10 
   3  -5  -7   23.46    0.26 
   4  -5  -7    0.12    0.03 
   5  -5  -7    0.51    0.04 
   6  -5  -7    1.79    0.07 
   7  -5  -7    2.79    0.07 
   8  -5  -7    1.15    0.06 
  -3  -4  -7    0.01    0.03 
  -2  -4  -7    0.37    0.04 
  -1  -4  -7   12.67    0.17 
   0  -4  -7   24.97    0.28 
   1  -4  -7    5.92    0.12 
   2  -4  -7    0.65    0.08 
   3  -4  -7    7.56    0.27 
   4  -4  -7   26.71    0.28 
   5  -4  -7   14.08    0.18 
   6  -4  -7    6.31    0.11 
   7  -4  -7    0.37    0.04 
   8  -4  -7    0.32    0.03 
  -4  -3  -7    0.65    0.04 
  -3  -3  -7    0.11    0.03 
  -2  -3  -7   26.46    0.29 
  -1  -3  -7    3.36    0.09 
   0  -3  -7    1.93    0.14 
   1  -3  -7   17.44    0.39 
   2  -3  -7    2.83    0.16 
   3  -3  -7    0.31    0.06 
   4  -3  -7   31.47    0.64 
   5  -3  -7    2.11    0.08 
   6  -3  -7    0.60    0.04 
   7  -3  -7    0.61    0.04 
   8  -3  -7    0.36    0.04 
  -4  -2  -7    0.01    0.03 
  -3  -2  -7    6.76    0.12 
  -2  -2  -7    1.35    0.06 
  -1  -2  -7   16.24    0.43 
   0  -2  -7    0.16    0.06 
   1  -2  -7    0.60    0.06 
   2  -2  -7    4.34    0.18 
   3  -2  -7    5.18    0.16 
   4  -2  -7    2.63    0.15 
   5  -2  -7    2.15    0.12 
   6  -2  -7   15.06    0.19 
   7  -2  -7    0.35    0.04 
   8  -2  -7    5.37    0.11 
  -5  -1  -7    0.10    0.03 
  -4  -1  -7    2.87    0.08 
  -3  -1  -7    1.69    0.06 
  -2  -1  -7    0.05    0.04 
  -1  -1  -7    2.33    0.13 
   0  -1  -7    2.63    0.13 
   1  -1  -7    0.66    0.05 
   2  -1  -7    0.27    0.04 
   3  -1  -7    3.57    0.16 
   4  -1  -7    4.14    0.16 
   5  -1  -7    0.07    0.05 
   6  -1  -7    2.44    0.08 
   7  -1  -7    0.21    0.04 
   8  -1  -7    0.53    0.04 
  -5   0  -7    2.35    0.08 
  -4   0  -7    6.64    0.13 
  -3   0  -7    2.03    0.08 
  -2   0  -7   14.06    0.43 
  -1   0  -7    0.99    0.11 
   0   0  -7    9.69    0.26 
   2   0  -7    4.70    0.16 
   3   0  -7    7.74    0.21 
   4   0  -7   12.46    0.35 
   5   0  -7    2.23    0.15 
   6   0  -7    5.43    0.11 
   7   0  -7    0.01    0.03 
   8   0  -7    1.20    0.06 
  -6   1  -7    4.70    0.13 
  -5   1  -7    0.06    0.03 
  -4   1  -7    0.00    0.03 
  -3   1  -7    5.21    0.15 
  -2   1  -7   18.10    0.51 
  -1   1  -7    6.19    0.21 
   0   1  -7   14.43    0.35 
   1   1  -7    0.87    0.10 
   2   1  -7   10.17    0.26 
   3   1  -7    0.47    0.06 
   4   1  -7    4.48    0.18 
   5   1  -7    0.60    0.08 
   6   1  -7   -0.01    0.03 
   7   1  -7    7.04    0.13 
   8   1  -7    0.03    0.03 
  -6   2  -7    0.99    0.05 
  -5   2  -7    0.08    0.03 
  -4   2  -7    0.24    0.04 
  -3   2  -7    3.06    0.17 
  -2   2  -7    1.31    0.11 
  -1   2  -7   12.02    0.38 
   0   2  -7    2.41    0.11 
   1   2  -7    0.02    0.04 
   2   2  -7   34.65    0.70 
   3   2  -7    0.37    0.06 
   4   2  -7    0.31    0.06 
   5   2  -7    0.03    0.03 
   6   2  -7    4.64    0.10 
   7   2  -7    0.04    0.03 
   8   2  -7    1.41    0.27 
  -6   3  -7    2.31    0.08 
  -5   3  -7    0.31    0.04 
  -4   3  -7    0.02    0.03 
  -3   3  -7   11.73    0.31 
  -2   3  -7   11.53    0.39 
  -1   3  -7    1.28    0.10 
   0   3  -7   27.28    0.59 
   1   3  -7   16.96    0.40 
   2   3  -7    6.25    0.22 
   3   3  -7   10.08    0.32 
   4   3  -7    0.27    0.08 
   5   3  -7    7.02    0.12 
   6   3  -7    3.50    0.10 
   7   3  -7    4.26    0.12 
  -6   4  -7    2.60    0.09 
  -5   4  -7    3.72    0.11 
  -4   4  -7   -0.01    0.03 
  -3   4  -7    2.66    0.10 
  -2   4  -7   24.88    0.67 
  -1   4  -7   30.26    0.66 
   0   4  -7    3.26    0.22 
   1   4  -7    0.28    0.06 
   2   4  -7   12.27    0.33 
   3   4  -7    0.07    0.06 
   4   4  -7    0.46    0.04 
   5   4  -7    0.16    0.04 
   6   4  -7    5.19    0.13 
  -6   5  -7    0.80    0.06 
  -5   5  -7    1.25    0.07 
  -4   5  -7    0.21    0.04 
  -3   5  -7    0.01    0.03 
  -2   5  -7    0.04    0.04 
  -1   5  -7    0.15    0.06 
   0   5  -7    8.77    0.35 
   1   5  -7    6.31    0.32 
   2   5  -7   16.21    0.22 
   3   5  -7    4.57    0.11 
   4   5  -7    0.06    0.04 
   5   5  -7    0.87    0.06 
   6   5  -7    4.48    0.13 
  -5   6  -7    0.15    0.04 
  -4   6  -7    0.07    0.04 
  -3   6  -7   18.80    0.23 
  -2   6  -7    5.25    0.12 
  -1   6  -7    0.14    0.04 
   0   6  -7    4.42    0.11 
   1   6  -7    6.97    0.13 
   2   6  -7    0.18    0.04 
   3   6  -7    2.35    0.08 
   4   6  -7    0.31    0.05 
   5   6  -7    0.07    0.04 
  -5   7  -7    0.98    0.06 
  -4   7  -7    0.31    0.05 
  -3   7  -7    0.01    0.04 
  -2   7  -7    1.08    0.07 
  -1   7  -7    3.90    0.12 
   0   7  -7   17.04    0.24 
   1   7  -7    7.85    0.15 
   2   7  -7    0.05    0.04 
   3   7  -7   -0.02    0.03 
   4   7  -7    0.02    0.04 
  -4   8  -7    0.04    0.04 
  -3   8  -7    0.19    0.05 
  -2   8  -7   -0.01    0.04 
  -1   8  -7    2.99    0.11 
   0   8  -7   10.53    0.19 
   1   8  -7    1.14    0.07 
   2   8  -7    1.85    0.08 
  -2   9  -7    1.15    0.13 
  -1   9  -7    1.06    0.09 
   0   9  -7    1.61    0.21 
   2  -8  -6    0.92    0.05 
   3  -8  -6    1.48    0.06 
   4  -8  -6    0.51    0.04 
   5  -8  -6    3.78    0.11 
  -1  -7  -6    0.63    0.15 
   0  -7  -6    1.84    0.08 
   1  -7  -6    4.60    0.11 
   2  -7  -6    0.86    0.05 
   3  -7  -6    0.09    0.03 
   4  -7  -6    0.44    0.04 
   5  -7  -6    9.04    0.16 
   6  -7  -6    0.22    0.03 
   7  -7  -6    3.96    0.12 
  -2  -6  -6    0.25    0.04 
  -1  -6  -6    2.14    0.08 
   0  -6  -6    1.03    0.06 
   1  -6  -6    2.49    0.07 
   2  -6  -6   13.92    0.18 
   3  -6  -6    6.62    0.11 
   4  -6  -6    3.78    0.08 
   5  -6  -6    0.52    0.04 
   6  -6  -6    0.10    0.04 
   7  -6  -6    0.06    0.03 
   8  -6  -6    0.69    0.12 
  -3  -5  -6    0.83    0.05 
  -2  -5  -6    7.33    0.14 
  -1  -5  -6    0.09    0.03 
   0  -5  -6   19.35    0.22 
   1  -5  -6    5.77    0.11 
   2  -5  -6    0.20    0.05 
   3  -5  -6   12.76    0.22 
   4  -5  -6   32.26    0.31 
   5  -5  -6    9.23    0.13 
   6  -5  -6    0.55    0.04 
   7  -5  -6    1.68    0.07 
   8  -5  -6    0.04    0.03 
  -4  -4  -6   17.21    0.27 
  -3  -4  -6    0.68    0.05 
  -2  -4  -6    0.62    0.04 
  -1  -4  -6    4.88    0.10 
   0  -4  -6    6.79    0.22 
   1  -4  -6   25.77    0.54 
   2  -4  -6   10.61    0.31 
   3  -4  -6    0.04    0.04 
   4  -4  -6    6.37    0.21 
   5  -4  -6    2.46    0.10 
   6  -4  -6    2.08    0.06 
   7  -4  -6    7.24    0.13 
   8  -4  -6    0.10    0.03 
  -4  -3  -6    0.19    0.04 
  -3  -3  -6    8.92    0.13 
  -2  -3  -6    4.84    0.10 
  -1  -3  -6   19.86    0.51 
   0  -3  -6   30.63    0.62 
   1  -3  -6    9.66    0.25 
   2  -3  -6    3.24    0.16 
   3  -3  -6   33.60    0.66 
   4  -3  -6    0.79    0.08 
   5  -3  -6    0.65    0.08 
   6  -3  -6    0.50    0.04 
   7  -3  -6    7.68    0.13 
   8  -3  -6    0.12    0.03 
  -5  -2  -6    0.05    0.03 
  -4  -2  -6    0.08    0.03 
  -3  -2  -6    3.72    0.09 
  -2  -2  -6  109.71    2.29 
  -1  -2  -6    1.01    0.09 
   0  -2  -6    5.71    0.17 
   1  -2  -6   16.45    0.31 
   2  -2  -6    0.38    0.04 
   3  -2  -6    0.71    0.05 
   4  -2  -6    6.69    0.19 
   5  -2  -6    2.21    0.12 
   6  -2  -6    0.23    0.04 
   7  -2  -6    0.35    0.04 
   8  -2  -6    4.71    0.11 
   9  -2  -6    0.36    0.15 
  -6  -1  -6   -0.01    0.05 
  -5  -1  -6    5.70    0.14 
  -4  -1  -6   45.53    0.45 
  -3  -1  -6   26.61    0.59 
  -2  -1  -6    0.14    0.05 
  -1  -1  -6   25.61    0.48 
   0  -1  -6    0.43    0.04 
   1  -1  -6   40.68    0.67 
   2  -1  -6    6.02    0.13 
   3  -1  -6   15.20    0.27 
   4  -1  -6    0.03    0.03 
   5  -1  -6    2.78    0.14 
   6  -1  -6    3.94    0.13 
   7  -1  -6    0.64    0.05 
   8  -1  -6    0.07    0.04 
  -6   0  -6    0.95    0.06 
  -5   0  -6    1.40    0.07 
  -4   0  -6    6.30    0.13 
  -3   0  -6    0.76    0.11 
  -2   0  -6   13.42    0.40 
  -1   0  -6   22.09    0.48 
   0   0  -6    0.85    0.07 
   1   0  -6   11.55    0.33 
   2   0  -6    2.09    0.10 
   3   0  -6    2.98    0.11 
   4   0  -6   16.01    0.35 
   5   0  -6    3.67    0.19 
   6   0  -6    8.33    0.13 
   7   0  -6    0.06    0.04 
   8   0  -6    1.11    0.07 
  -6   1  -6   13.88    0.24 
  -5   1  -6    2.79    0.10 
  -4   1  -6    0.01    0.03 
  -3   1  -6   16.49    0.48 
  -2   1  -6    1.75    0.12 
  -1   1  -6   17.53    0.32 
   0   1  -6    4.38    0.13 
   1   1  -6   13.08    0.30 
   2   1  -6   13.96    0.28 
   3   1  -6   31.03    0.56 
   4   1  -6   14.07    0.33 
   5   1  -6    0.40    0.07 
   6   1  -6    4.05    0.09 
   7   1  -6    2.69    0.10 
   8   1  -6    0.44    0.05 
  -6   2  -6    1.42    0.08 
  -5   2  -6    0.14    0.04 
  -4   2  -6    2.23    0.08 
  -3   2  -6   18.38    0.52 
  -2   2  -6    0.99    0.07 
  -1   2  -6    0.40    0.07 
   0   2  -6   75.99    1.40 
   1   2  -6   40.60    0.70 
   2   2  -6    7.07    0.18 
   3   2  -6    0.02    0.03 
   4   2  -6   88.98    1.64 
   5   2  -6   11.02    0.35 
   6   2  -6    7.47    0.15 
   7   2  -6    5.33    0.14 
   8   2  -6    0.46    0.07 
  -6   3  -6    0.70    0.06 
  -5   3  -6   14.74    0.22 
  -4   3  -6    1.06    0.06 
  -3   3  -6    0.13    0.06 
  -2   3  -6    2.45    0.16 
  -1   3  -6    1.34    0.08 
   0   3  -6    5.08    0.15 
   1   3  -6    0.13    0.04 
   2   3  -6    0.16    0.04 
   3   3  -6    2.00    0.14 
   4   3  -6    5.04    0.24 
   5   3  -6    0.90    0.05 
   6   3  -6   18.73    0.28 
   7   3  -6    4.15    0.15 
  -6   4  -6    0.23    0.04 
  -5   4  -6   13.57    0.23 
  -4   4  -6    0.36    0.04 
  -3   4  -6    6.35    0.27 
  -2   4  -6    5.25    0.25 
  -1   4  -6    6.59    0.22 
   0   4  -6    8.33    0.24 
   1   4  -6    0.24    0.06 
   2   4  -6   18.96    0.44 
   3   4  -6    5.43    0.23 
   4   4  -6    9.09    0.14 
   5   4  -6   18.67    0.27 
   6   4  -6    5.01    0.14 
   7   4  -6    0.50    0.10 
  -6   5  -6    0.86    0.06 
  -5   5  -6    0.00    0.04 
  -4   5  -6    4.45    0.13 
  -3   5  -6    0.94    0.06 
  -2   5  -6    4.62    0.24 
  -1   5  -6    0.67    0.08 
   0   5  -6   24.09    0.65 
   1   5  -6    6.38    0.29 
   2   5  -6    0.04    0.07 
   3   5  -6    0.02    0.04 
   4   5  -6    0.64    0.06 
   5   5  -6    9.03    0.20 
   6   5  -6    0.95    0.08 
  -6   6  -6    1.67    0.08 
  -5   6  -6    4.33    0.12 
  -4   6  -6    0.06    0.04 
  -3   6  -6    0.11    0.04 
  -2   6  -6    0.76    0.06 
  -1   6  -6    4.10    0.19 
   0   6  -6   58.30    1.37 
   1   6  -6    5.27    0.13 
   2   6  -6    1.84    0.08 
   3   6  -6    4.85    0.13 
   4   6  -6    3.19    0.12 
   5   6  -6    0.00    0.04 
  -5   7  -6    0.81    0.06 
  -4   7  -6    1.80    0.09 
  -3   7  -6    0.10    0.04 
  -2   7  -6    0.05    0.04 
  -1   7  -6    2.63    0.09 
   0   7  -6    5.85    0.14 
   1   7  -6    0.16    0.04 
   2   7  -6    0.43    0.06 
   3   7  -6    6.91    0.16 
   4   7  -6    0.03    0.04 
  -5   8  -6    0.84    0.09 
  -4   8  -6    0.79    0.06 
  -3   8  -6    0.01    0.04 
  -2   8  -6    0.45    0.06 
  -1   8  -6    5.88    0.16 
   0   8  -6    1.70    0.09 
   1   8  -6    2.71    0.12 
   2   8  -6    2.30    0.11 
   3   8  -6    0.22    0.08 
  -3   9  -6    0.10    0.05 
  -2   9  -6    0.39    0.06 
  -1   9  -6    0.33    0.07 
   0   9  -6    7.14    0.20 
   1   9  -6    0.90    0.14 
   0  -8  -5    0.23    0.06 
   1  -8  -5    0.93    0.06 
   2  -8  -5    0.21    0.04 
   3  -8  -5    0.39    0.05 
   4  -8  -5    0.11    0.04 
   5  -8  -5    0.55    0.05 
   6  -8  -5    0.42    0.05 
  -1  -7  -5    0.47    0.05 
   0  -7  -5    0.04    0.04 
   1  -7  -5    5.37    0.13 
   2  -7  -5    3.10    0.10 
   3  -7  -5    0.03    0.04 
   4  -7  -5    0.26    0.04 
   5  -7  -5    0.04    0.04 
   6  -7  -5    0.30    0.04 
   7  -7  -5    0.09    0.03 
  -3  -6  -5    0.52    0.08 
  -2  -6  -5    4.19    0.12 
  -1  -6  -5    5.91    0.14 
   0  -6  -5    0.43    0.04 
   1  -6  -5    8.68    0.14 
   2  -6  -5    4.29    0.10 
   3  -6  -5   20.27    0.23 
   4  -6  -5   13.33    0.19 
   5  -6  -5    0.03    0.03 
   6  -6  -5    3.43    0.11 
   7  -6  -5    0.76    0.05 
   8  -6  -5    1.71    0.07 
  -4  -5  -5    0.04    0.04 
  -3  -5  -5    0.03    0.03 
  -2  -5  -5    0.09    0.04 
  -1  -5  -5    1.15    0.06 
   0  -5  -5    6.46    0.14 
   1  -5  -5   17.47    0.46 
   2  -5  -5    5.81    0.22 
   3  -5  -5    3.05    0.15 
   4  -5  -5   38.23    0.86 
   5  -5  -5    2.58    0.08 
   6  -5  -5   14.00    0.20 
   7  -5  -5    0.32    0.05 
   8  -5  -5    0.05    0.03 
  -4  -4  -5    3.54    0.10 
  -3  -4  -5    0.07    0.04 
  -2  -4  -5    2.68    0.08 
  -1  -4  -5    6.57    0.21 
   0  -4  -5    0.40    0.06 
   1  -4  -5    1.87    0.11 
   2  -4  -5    0.01    0.04 
   3  -4  -5    4.02    0.16 
   4  -4  -5   43.06    0.95 
   5  -4  -5    0.14    0.05 
   6  -4  -5    1.80    0.07 
   7  -4  -5    0.61    0.05 
   8  -4  -5    0.60    0.05 
  -5  -3  -5    1.08    0.06 
  -4  -3  -5    1.27    0.07 
  -3  -3  -5    0.17    0.04 
  -2  -3  -5   25.57    0.63 
  -1  -3  -5   45.99    0.88 
   0  -3  -5    2.54    0.11 
   1  -3  -5    0.02    0.02 
   2  -3  -5    6.02    0.13 
   3  -3  -5   28.42    0.50 
   4  -3  -5    3.57    0.16 
   5  -3  -5    1.36    0.10 
   6  -3  -5    2.77    0.17 
   7  -3  -5    0.08    0.04 
   8  -3  -5    0.11    0.04 
   9  -3  -5    0.02    0.05 
  -6  -2  -5    0.09    0.04 
  -5  -2  -5    0.36    0.05 
  -4  -2  -5    0.36    0.05 
  -3  -2  -5    0.56    0.08 
  -2  -2  -5   26.95    0.59 
  -1  -2  -5    2.96    0.12 
   0  -2  -5   11.74    0.20 
   1  -2  -5    0.02    0.02 
   2  -2  -5   23.54    0.41 
   3  -2  -5    3.42    0.10 
   4  -2  -5    2.51    0.10 
   5  -2  -5    3.09    0.14 
   6  -2  -5    1.59    0.13 
   7  -2  -5    1.61    0.07 
   8  -2  -5    0.03    0.04 
   9  -2  -5    3.36    0.17 
  -6  -1  -5    0.49    0.05 
  -5  -1  -5    1.81    0.08 
  -4  -1  -5   25.49    0.32 
  -3  -1  -5   19.25    0.46 
  -2  -1  -5   34.49    0.71 
  -1  -1  -5    4.96    0.14 
   0  -1  -5    0.06    0.02 
   1  -1  -5   14.09    0.38 
   2  -1  -5    5.37    0.14 
   3  -1  -5    0.22    0.03 
   4  -1  -5   12.63    0.24 
   5  -1  -5    2.62    0.15 
   6  -1  -5    1.55    0.13 
   7  -1  -5    7.34    0.16 
   8  -1  -5    3.17    0.12 
   9  -1  -5    9.91    0.41 
  -6   0  -5    1.13    0.06 
  -5   0  -5    0.08    0.04 
  -4   0  -5    0.48    0.07 
  -3   0  -5   12.85    0.33 
  -2   0  -5    0.32    0.04 
  -1   0  -5   47.42    0.73 
   0   0  -5   84.92    2.10 
   1   0  -5    2.53    0.08 
   2   0  -5    0.49    0.05 
   3   0  -5   39.00    0.67 
   4   0  -5   10.07    0.21 
   5   0  -5    4.93    0.19 
   6   0  -5    1.81    0.15 
   7   0  -5    0.66    0.06 
   8   0  -5    2.87    0.12 
  -7   1  -5    1.56    0.10 
  -6   1  -5   23.72    0.34 
  -5   1  -5   19.84    0.28 
  -4   1  -5    3.62    0.21 
  -3   1  -5    4.45    0.22 
  -2   1  -5   26.67    0.45 
  -1   1  -5    5.63    0.13 
   0   1  -5    0.44    0.06 
   1   1  -5   30.51    0.83 
   2   1  -5    3.99    0.15 
   3   1  -5   87.31    1.42 
   4   1  -5    1.49    0.09 
   5   1  -5    0.15    0.05 
   6   1  -5    0.06    0.04 
   7   1  -5   12.57    0.23 
   8   1  -5    4.91    0.16 
  -7   2  -5    0.57    0.05 
  -6   2  -5    6.50    0.16 
  -5   2  -5    4.43    0.13 
  -4   2  -5    0.10    0.06 
  -3   2  -5   85.95    1.65 
  -2   2  -5   11.82    0.24 
  -1   2  -5   21.23    0.36 
   0   2  -5    7.26    0.19 
   1   2  -5    7.31    0.17 
   2   2  -5    0.13    0.03 
   3   2  -5    0.95    0.07 
   4   2  -5   35.68    0.72 
   5   2  -5    0.14    0.06 
   6   2  -5   26.79    0.36 
   7   2  -5    4.12    0.14 
   8   2  -5    0.58    0.08 
  -7   3  -5    5.08    0.14 
  -6   3  -5    9.51    0.18 
  -5   3  -5    8.78    0.19 
  -4   3  -5    0.48    0.09 
  -3   3  -5    6.57    0.22 
  -2   3  -5   31.96    0.53 
  -1   3  -5    1.43    0.08 
   0   3  -5   76.10    1.13 
   1   3  -5   45.64    0.71 
   2   3  -5   59.35    1.01 
   3   3  -5    2.20    0.13 
   4   3  -5    1.08    0.11 
   5   3  -5   10.15    0.20 
   6   3  -5    4.74    0.15 
   7   3  -5    4.09    0.15 
  -7   4  -5   -0.01    0.03 
  -6   4  -5    6.37    0.16 
  -5   4  -5    5.38    0.14 
  -4   4  -5    3.28    0.19 
  -3   4  -5    4.88    0.22 
  -2   4  -5    3.25    0.16 
  -1   4  -5    2.42    0.12 
   0   4  -5   97.85    1.45 
   1   4  -5   63.40    1.08 
   2   4  -5   17.21    0.40 
   3   4  -5    3.73    0.18 
   4   4  -5   13.65    0.48 
   5   4  -5    0.02    0.05 
   6   4  -5    5.98    0.17 
   7   4  -5    2.18    0.14 
  -7   5  -5    0.01    0.04 
  -6   5  -5    0.91    0.07 
  -5   5  -5    2.57    0.09 
  -4   5  -5    0.21    0.04 
  -3   5  -5   -0.05    0.05 
  -2   5  -5    2.06    0.15 
  -1   5  -5   18.22    0.43 
   0   5  -5   22.61    0.51 
   1   5  -5    3.19    0.20 
   2   5  -5    0.06    0.07 
   3   5  -5    5.77    0.30 
   4   5  -5    0.58    0.06 
   5   5  -5    0.16    0.05 
   6   5  -5    1.26    0.10 
  -6   6  -5    2.77    0.10 
  -5   6  -5    0.95    0.07 
  -4   6  -5    3.91    0.12 
  -3   6  -5    0.17    0.05 
  -2   6  -5    3.52    0.25 
  -1   6  -5   18.81    0.52 
   0   6  -5    1.18    0.17 
   1   6  -5    5.58    0.59 
   2   6  -5   14.23    0.24 
   3   6  -5    5.86    0.16 
   4   6  -5    0.09    0.05 
   5   6  -5    3.64    0.16 
  -6   7  -5    4.38    0.12 
  -5   7  -5    3.40    0.12 
  -4   7  -5    0.19    0.05 
  -3   7  -5   -0.02    0.04 
  -2   7  -5    0.72    0.06 
  -1   7  -5    0.72    0.06 
   0   7  -5    3.22    0.12 
   1   7  -5    0.09    0.05 
   2   7  -5   13.94    0.28 
   3   7  -5    0.03    0.05 
   4   7  -5    0.02    0.06 
  -5   8  -5    0.19    0.04 
  -4   8  -5    0.01    0.04 
  -3   8  -5    4.27    0.14 
  -2   8  -5    1.72    0.09 
  -1   8  -5    2.19    0.11 
   0   8  -5    0.30    0.06 
   1   8  -5    2.19    0.13 
   2   8  -5    4.36    0.17 
   3   8  -5    1.31    0.10 
  -4   9  -5    1.23    0.08 
  -3   9  -5    0.24    0.06 
  -2   9  -5   -0.01    0.05 
  -1   9  -5    6.96    0.19 
   0   9  -5    0.05    0.06 
   1   9  -5    2.22    0.13 
   2  -9  -4    2.42    0.15 
   3  -9  -4    0.08    0.05 
   4  -9  -4    0.05    0.04 
   0  -8  -4    0.22    0.05 
   1  -8  -4    6.02    0.15 
   2  -8  -4    5.84    0.15 
   3  -8  -4    0.73    0.06 
   4  -8  -4    0.14    0.04 
   5  -8  -4    1.42    0.08 
   6  -8  -4    0.35    0.04 
  -2  -7  -4    3.33    0.12 
  -1  -7  -4    0.78    0.06 
   0  -7  -4    1.63    0.08 
   1  -7  -4    4.07    0.13 
   2  -7  -4    0.13    0.04 
   3  -7  -4    4.04    0.11 
   4  -7  -4   10.18    0.18 
   5  -7  -4    1.55    0.09 
   6  -7  -4    2.67    0.10 
   7  -7  -4    1.77    0.08 
  -3  -6  -4    0.63    0.05 
  -2  -6  -4    0.02    0.04 
  -1  -6  -4    5.86    0.15 
   0  -6  -4    4.75    0.14 
   1  -6  -4   -0.02    0.04 
   2  -6  -4   12.47    0.46 
   3  -6  -4    3.43    0.22 
   4  -6  -4    0.90    0.06 
   5  -6  -4    1.95    0.08 
   6  -6  -4    0.21    0.04 
   7  -6  -4    0.57    0.06 
   8  -6  -4    0.04    0.04 
  -4  -5  -4    0.83    0.06 
  -3  -5  -4    5.25    0.15 
  -2  -5  -4   13.76    0.22 
  -1  -5  -4    5.47    0.14 
   0  -5  -4    7.34    0.24 
   1  -5  -4   10.96    0.31 
   2  -5  -4   10.65    0.27 
   3  -5  -4   26.65    0.55 
   4  -5  -4    0.09    0.05 
   5  -5  -4    8.98    0.34 
   6  -5  -4    3.70    0.11 
   7  -5  -4    4.79    0.14 
   8  -5  -4    0.92    0.07 
  -5  -4  -4    1.57    0.08 
  -4  -4  -4    2.08    0.09 
  -3  -4  -4    2.42    0.09 
  -2  -4  -4   92.49    1.96 
  -1  -4  -4   21.39    0.46 
   0  -4  -4    0.14    0.04 
   1  -4  -4    0.09    0.03 
   2  -4  -4    4.03    0.12 
   3  -4  -4    0.06    0.03 
   4  -4  -4    0.03    0.04 
   5  -4  -4    0.64    0.07 
   6  -4  -4    3.85    0.11 
   7  -4  -4    1.02    0.07 
   8  -4  -4    1.13    0.07 
   9  -4  -4    1.66    0.14 
  -5  -3  -4    0.11    0.04 
  -4  -3  -4    3.17    0.11 
  -3  -3  -4    6.90    0.31 
  -2  -3  -4   18.69    0.48 
  -1  -3  -4    0.66    0.05 
   0  -3  -4    3.56    0.10 
   1  -3  -4   52.66    0.78 
   2  -3  -4    3.99    0.10 
   3  -3  -4    8.98    0.19 
   4  -3  -4    5.14    0.13 
   5  -3  -4    0.08    0.04 
   6  -3  -4    0.17    0.08 
   7  -3  -4   17.46    0.25 
   8  -3  -4    3.16    0.12 
   9  -3  -4    0.63    0.07 
  -6  -2  -4    0.89    0.06 
  -5  -2  -4    3.13    0.11 
  -4  -2  -4    0.44    0.05 
  -3  -2  -4   29.68    0.70 
  -2  -2  -4    3.16    0.13 
  -1  -2  -4    2.42    0.09 
   0  -2  -4    2.56    0.08 
   1  -2  -4   53.80    1.35 
   2  -2  -4   12.62    0.48 
   3  -2  -4   13.31    0.23 
   4  -2  -4    3.76    0.11 
   5  -2  -4    0.06    0.04 
   6  -2  -4    3.28    0.23 
   7  -2  -4    1.97    0.09 
   8  -2  -4    0.76    0.07 
   9  -2  -4    5.05    0.17 
  -6  -1  -4    0.66    0.06 
  -5  -1  -4    1.21    0.07 
  -4  -1  -4    3.00    0.20 
  -3  -1  -4    1.73    0.11 
  -2  -1  -4   22.05    0.42 
  -1  -1  -4    4.57    0.12 
   0  -1  -4   72.31    1.77 
   1  -1  -4   97.21    2.37 
   2  -1  -4    5.64    0.19 
   3  -1  -4   40.38    0.68 
   4  -1  -4   43.94    0.69 
   5  -1  -4   39.47    0.77 
   6  -1  -4    8.86    0.37 
   7  -1  -4    0.05    0.05 
   8  -1  -4    4.72    0.17 
   9  -1  -4    0.35    0.10 
  -7   0  -4    0.19    0.03 
  -6   0  -4    0.13    0.04 
  -5   0  -4    8.93    0.17 
  -4   0  -4    7.11    0.26 
  -3   0  -4    0.10    0.03 
  -2   0  -4    0.24    0.04 
  -1   0  -4    5.67    0.19 
   0   0  -4   15.38    0.30 
   1   0  -4   14.51    0.28 
   2   0  -4   10.94    0.33 
   3   0  -4    7.30    0.16 
   4   0  -4   13.57    0.29 
   5   0  -4   23.22    0.50 
   6   0  -4    6.86    0.28 
   7   0  -4    8.14    0.18 
   8   0  -4    5.35    0.17 
  -7   1  -4    2.09    0.09 
  -6   1  -4    1.98    0.09 
  -5   1  -4    0.06    0.04 
  -4   1  -4   16.70    0.48 
  -3   1  -4    9.62    0.21 
  -2   1  -4    8.23    0.17 
  -1   1  -4  136.95    3.40 
   0   1  -4   40.76    0.88 
   1   1  -4   12.24    0.28 
   2   1  -4    0.05    0.06 
   3   1  -4  135.69    2.16 
   4   1  -4    4.11    0.15 
   5   1  -4    0.81    0.10 
   6   1  -4   83.25    0.94 
   7   1  -4    0.16    0.05 
   8   1  -4    8.74    0.25 
  -7   2  -4    4.16    0.11 
  -6   2  -4    1.29    0.08 
  -5   2  -4    0.08    0.10 
  -4   2  -4    0.02    0.05 
  -3   2  -4   22.19    0.39 
  -2   2  -4   49.03    0.76 
  -1   2  -4   22.25    0.87 
   0   2  -4    4.12    0.17 
   1   2  -4    0.09    0.04 
   2   2  -4   30.29    0.59 
   3   2  -4    3.32    0.13 
   4   2  -4   28.31    0.61 
   5   2  -4   23.92    0.79 
   6   2  -4   72.21    0.79 
   7   2  -4    1.01    0.09 
   8   2  -4    2.05    0.13 
  -7   3  -4    2.90    0.13 
  -6   3  -4    3.26    0.11 
  -5   3  -4    0.05    0.07 
  -4   3  -4    2.02    0.16 
  -3   3  -4   21.82    0.42 
  -2   3  -4    1.56    0.07 
  -1   3  -4    8.28    0.19 
   0   3  -4  119.17    1.90 
   1   3  -4  124.49    1.82 
   2   3  -4   13.69    0.29 
   3   3  -4    0.25    0.05 
   4   3  -4    0.04    0.06 
   5   3  -4    0.43    0.08 
   6   3  -4    8.68    0.20 
   7   3  -4    2.11    0.13 
  -7   4  -4    0.76    0.06 
  -6   4  -4    3.43    0.11 
  -5   4  -4    1.36    0.07 
  -4   4  -4   11.78    0.36 
  -3   4  -4   11.61    0.30 
  -2   4  -4    2.27    0.11 
  -1   4  -4    5.89    0.16 
   0   4  -4   64.41    0.97 
   1   4  -4    8.31    0.19 
   2   4  -4    1.11    0.09 
   3   4  -4   15.84    0.45 
   4   4  -4   61.79    1.79 
   5   4  -4    0.01    0.05 
   6   4  -4    6.54    0.22 
   7   4  -4    4.52    0.18 
  -7   5  -4    0.16    0.04 
  -6   5  -4    4.75    0.14 
  -5   5  -4    0.28    0.05 
  -4   5  -4    0.38    0.07 
  -3   5  -4    1.39    0.14 
  -2   5  -4    0.13    0.06 
  -1   5  -4    0.03    0.04 
   0   5  -4   10.61    0.23 
   1   5  -4    3.33    0.21 
   2   5  -4    0.11    0.09 
   3   5  -4    0.24    0.12 
   4   5  -4    3.88    0.13 
   5   5  -4    0.64    0.08 
   6   5  -4    1.68    0.12 
  -7   6  -4    0.07    0.04 
  -6   6  -4    7.62    0.19 
  -5   6  -4    0.02    0.04 
  -4   6  -4    0.11    0.04 
  -3   6  -4    0.13    0.10 
  -2   6  -4    1.57    0.17 
  -1   6  -4    7.55    0.27 
   0   6  -4    1.13    0.12 
   1   6  -4   13.40    0.84 
   2   6  -4   35.80    0.50 
   3   6  -4    2.75    0.13 
   4   6  -4    5.56    0.19 
   5   6  -4    0.16    0.07 
  -6   7  -4   10.72    0.25 
  -5   7  -4    0.67    0.06 
  -4   7  -4    0.74    0.06 
  -3   7  -4    3.25    0.12 
  -2   7  -4    1.28    0.08 
  -1   7  -4    0.93    0.07 
   0   7  -4    7.29    0.18 
   1   7  -4    0.06    0.05 
   2   7  -4    3.48    0.14 
   3   7  -4    0.58    0.08 
   4   7  -4    4.08    0.21 
  -6   8  -4    4.70    0.15 
  -5   8  -4    0.00    0.04 
  -4   8  -4    0.32    0.05 
  -3   8  -4    1.90    0.10 
  -2   8  -4    0.50    0.07 
  -1   8  -4    6.95    0.21 
   0   8  -4    1.55    0.10 
   1   8  -4    0.40    0.07 
   2   8  -4    0.19    0.08 
   3   8  -4    2.35    0.15 
  -5   9  -4    0.34    0.10 
  -4   9  -4    2.38    0.11 
  -3   9  -4   12.85    0.32 
  -2   9  -4    0.36    0.07 
  -1   9  -4    0.22    0.08 
   0   9  -4    0.49    0.09 
   1   9  -4    0.11    0.07 
   1  -9  -3    0.27    0.06 
   2  -9  -3    0.22    0.05 
   3  -9  -3    0.13    0.05 
   4  -9  -3    0.01    0.04 
   5  -9  -3    3.97    0.13 
  -1  -8  -3    1.29    0.08 
   0  -8  -3    0.12    0.04 
   1  -8  -3   13.89    0.26 
   2  -8  -3    0.73    0.07 
   3  -8  -3    0.73    0.07 
   4  -8  -3    5.43    0.17 
   5  -8  -3    1.97    0.10 
   6  -8  -3    0.26    0.05 
   7  -8  -3    0.08    0.05 
  -2  -7  -3    0.01    0.04 
  -1  -7  -3    5.57    0.17 
   0  -7  -3    0.34    0.05 
   1  -7  -3    7.17    0.18 
   2  -7  -3    0.02    0.04 
   3  -7  -3   18.61    0.27 
   4  -7  -3   34.61    0.45 
   5  -7  -3    0.13    0.04 
   6  -7  -3    7.11    0.21 
   7  -7  -3    0.20    0.05 
  -4  -6  -3    0.72    0.07 
  -3  -6  -3   13.82    0.26 
  -2  -6  -3    0.08    0.05 
  -1  -6  -3   12.25    0.24 
   0  -6  -3    7.46    0.21 
   1  -6  -3   11.86    0.57 
   2  -6  -3    0.35    0.08 
   3  -6  -3    1.10    0.12 
   4  -6  -3   89.88    3.28 
   5  -6  -3    0.89    0.07 
   6  -6  -3    8.37    0.18 
   7  -6  -3    0.68    0.06 
   8  -6  -3    1.26    0.09 
  -4  -5  -3    0.10    0.04 
  -3  -5  -3    0.04    0.04 
  -2  -5  -3    5.98    0.15 
  -1  -5  -3   12.97    0.42 
   0  -5  -3    9.12    0.32 
   1  -5  -3    3.45    0.17 
   2  -5  -3    2.31    0.12 
   3  -5  -3    0.10    0.06 
   4  -5  -3    0.48    0.13 
   5  -5  -3    0.17    0.08 
   6  -5  -3    3.17    0.10 
   7  -5  -3    7.93    0.19 
   8  -5  -3    0.23    0.06 
  -5  -4  -3    7.77    0.19 
  -4  -4  -3    2.07    0.09 
  -3  -4  -3   15.68    0.25 
  -2  -4  -3    6.84    0.23 
  -1  -4  -3    7.81    0.22 
   0  -4  -3   30.92    0.55 
   1  -4  -3    1.43    0.06 
   2  -4  -3   59.06    0.96 
   3  -4  -3    0.35    0.04 
   4  -4  -3    0.72    0.05 
   5  -4  -3    0.25    0.06 
   6  -4  -3    0.64    0.11 
   7  -4  -3    0.06    0.05 
   8  -4  -3    0.54    0.07 
   9  -4  -3    4.48    0.19 
  -6  -3  -3    2.34    0.09 
  -5  -3  -3    1.08    0.08 
  -4  -3  -3    3.11    0.12 
  -3  -3  -3    6.21    0.35 
  -2  -3  -3   11.76    0.28 
  -1  -3  -3    4.12    0.13 
   0  -3  -3   17.80    0.29 
   1  -3  -3   13.10    0.25 
   2  -3  -3    1.91    0.07 
   3  -3  -3   28.05    0.44 
   4  -3  -3   32.98    0.56 
   5  -3  -3    8.90    0.28 
   6  -3  -3    7.17    0.55 
   7  -3  -3    3.15    0.12 
   8  -3  -3    0.57    0.08 
   9  -3  -3    4.30    0.18 
  -6  -2  -3    0.04    0.04 
  -5  -2  -3    4.60    0.14 
  -4  -2  -3    2.74    0.25 
  -3  -2  -3    1.67    0.11 
  -2  -2  -3   15.90    0.32 
  -1  -2  -3   20.86    0.39 
   0  -2  -3  250.31    5.97 
   1  -2  -3   40.07    1.01 
   2  -2  -3    1.00    0.08 
   3  -2  -3    1.05    0.09 
   4  -2  -3    1.17    0.06 
   5  -2  -3    4.12    0.15 
   6  -2  -3    0.66    0.19 
   7  -2  -3    0.07    0.05 
   8  -2  -3    1.74    0.10 
   9  -2  -3    4.47    0.18 
  -7  -1  -3    1.45    0.07 
  -6  -1  -3    3.33    0.13 
  -5  -1  -3   12.10    0.23 
  -4  -1  -3    2.64    0.18 
  -3  -1  -3    3.68    0.14 
  -2  -1  -3    1.11    0.06 
  -1  -1  -3   22.90    0.88 
   0  -1  -3   18.93    0.40 
   1  -1  -3   22.74    0.48 
   2  -1  -3  135.84    3.38 
   3  -1  -3   29.91    0.80 
   4  -1  -3    8.96    0.18 
   5  -1  -3   70.79    1.15 
   6  -1  -3   13.29    0.53 
   7  -1  -3    2.90    0.13 
   8  -1  -3    5.49    0.20 
   9  -1  -3    1.21    0.13 
  -7   0  -3    0.02    0.04 
  -6   0  -3    0.07    0.04 
  -5   0  -3    9.34    0.34 
  -4   0  -3    2.86    0.17 
  -3   0  -3   34.55    0.55 
  -2   0  -3    0.03    0.03 
  -1   0  -3    2.57    0.10 
   0   0  -3   56.50    1.00 
   1   0  -3  148.62    2.57 
   2   0  -3   71.49    1.80 
   3   0  -3  151.09    3.75 
   4   0  -3    0.00    0.02 
   5   0  -3   15.27    0.42 
   6   0  -3   42.18    1.26 
   7   0  -3    9.25    0.23 
   8   0  -3   22.24    0.54 
  -7   1  -3    0.54    0.05 
  -6   1  -3    7.04    0.16 
  -5   1  -3   11.44    0.40 
  -4   1  -3   16.24    0.38 
  -3   1  -3    4.96    0.12 
  -2   1  -3    2.56    0.12 
  -1   1  -3   37.10    0.95 
   0   1  -3  381.25    7.78 
   1   1  -3    0.75    0.04 
   2   1  -3    2.02    0.08 
   3   1  -3  116.52    2.42 
   4   1  -3   58.01    0.97 
   5   1  -3   12.71    0.49 
   6   1  -3   22.54    1.13 
   7   1  -3    1.59    0.10 
   8   1  -3    0.29    0.08 
  -8   2  -3    2.48    0.11 
  -7   2  -3    9.26    0.21 
  -6   2  -3    2.02    0.09 
  -5   2  -3    1.97    0.24 
  -4   2  -3   20.93    0.51 
  -3   2  -3    1.03    0.06 
  -2   2  -3   70.99    1.82 
  -1   2  -3   80.51    2.83 
   0   2  -3   81.10    2.06 
   1   2  -3  454.98   11.18 
   2   2  -3    3.98    0.37 
   3   2  -3    0.54    0.05 
   4   2  -3   18.23    0.51 
   5   2  -3    7.10    0.61 
   6   2  -3    9.80    0.23 
   7   2  -3    1.30    0.12 
   8   2  -3    4.72    0.20 
  -8   3  -3    3.49    0.12 
  -7   3  -3    1.15    0.08 
  -6   3  -3    0.04    0.04 
  -5   3  -3    1.82    0.23 
  -4   3  -3   37.74    1.02 
  -3   3  -3    2.99    0.12 
  -2   3  -3    0.08    0.03 
  -1   3  -3    2.64    0.16 
   0   3  -3    0.81    0.08 
   1   3  -3   22.78    0.66 
   2   3  -3   85.87    1.40 
   3   3  -3    6.58    0.21 
   4   3  -3    8.55    0.42 
   5   3  -3    0.29    0.14 
   6   3  -3    3.62    0.18 
   7   3  -3    3.50    0.19 
  -8   4  -3    2.35    0.11 
  -7   4  -3    0.03    0.04 
  -6   4  -3    6.50    0.16 
  -5   4  -3    3.30    0.32 
  -4   4  -3    1.80    0.13 
  -3   4  -3    9.23    0.23 
  -2   4  -3   21.00    0.39 
  -1   4  -3  120.57    1.92 
   0   4  -3   15.71    0.29 
   1   4  -3    9.57    0.20 
   2   4  -3   14.58    0.37 
   3   4  -3   45.95    1.07 
   4   4  -3   43.10    1.34 
   5   4  -3    1.57    0.12 
   6   4  -3    0.06    0.08 
   7   4  -3    0.85    0.11 
  -7   5  -3    0.45    0.06 
  -6   5  -3    2.01    0.09 
  -5   5  -3   17.10    0.29 
  -4   5  -3    3.80    0.23 
  -3   5  -3   11.42    0.54 
  -2   5  -3    0.40    0.06 
  -1   5  -3   56.00    1.21 
   0   5  -3   69.38    1.34 
   1   5  -3    6.28    0.51 
   2   5  -3   51.39    2.18 
   3   5  -3    0.24    0.19 
   4   5  -3    4.51    0.18 
   5   5  -3    9.80    0.36 
   6   5  -3    0.00    0.06 
  -7   6  -3    2.84    0.12 
  -6   6  -3    0.07    0.05 
  -5   6  -3   10.30    0.20 
  -4   6  -3    4.04    0.22 
  -3   6  -3   32.90    1.31 
  -2   6  -3    1.70    0.20 
  -1   6  -3    0.35    0.09 
   0   6  -3    0.17    0.07 
   1   6  -3   11.73    0.78 
   2   6  -3   17.78    0.42 
   3   6  -3   12.83    0.30 
   4   6  -3    1.07    0.12 
   5   6  -3    1.61    0.13 
  -7   7  -3    4.96    0.16 
  -6   7  -3    6.71    0.18 
  -5   7  -3    3.63    0.16 
  -4   7  -3    2.42    0.11 
  -3   7  -3    1.04    0.08 
  -2   7  -3    6.68    0.20 
  -1   7  -3   29.72    0.54 
   0   7  -3    2.36    0.11 
   1   7  -3    2.32    0.14 
   2   7  -3    8.76    0.25 
   3   7  -3    2.36    0.23 
   4   7  -3    3.25    0.19 
  -6   8  -3    0.00    0.04 
  -5   8  -3    2.45    0.13 
  -4   8  -3    3.45    0.15 
  -3   8  -3    2.96    0.13 
  -2   8  -3    0.05    0.05 
  -1   8  -3    0.17    0.06 
   0   8  -3   54.81    0.98 
   1   8  -3    0.26    0.09 
   2   8  -3    1.31    0.16 
   3   8  -3    1.15    0.11 
  -5   9  -3    1.29    0.08 
  -4   9  -3    7.19    0.21 
  -3   9  -3    1.06    0.09 
  -2   9  -3    7.22    0.25 
  -1   9  -3    0.75    0.11 
   0   9  -3    0.65    0.10 
   1   9  -3    5.64    0.23 
   0  -9  -2    2.58    0.14 
   1  -9  -2    1.09    0.08 
   2  -9  -2    2.04    0.12 
   3  -9  -2    1.41    0.09 
   4  -9  -2    9.96    0.24 
   5  -9  -2    0.32    0.05 
  -2  -8  -2    0.03    0.04 
  -1  -8  -2    3.95    0.16 
   0  -8  -2    0.21    0.06 
   1  -8  -2    0.13    0.06 
   2  -8  -2    0.51    0.07 
   3  -8  -2   20.12    0.36 
   4  -8  -2    7.20    0.20 
   5  -8  -2    0.58    0.07 
   6  -8  -2    2.57    0.13 
   7  -8  -2    0.06    0.04 
  -3  -7  -2    0.32    0.05 
  -2  -7  -2   10.48    0.24 
  -1  -7  -2    0.09    0.06 
   0  -7  -2    0.43    0.06 
   1  -7  -2    0.34    0.06 
   2  -7  -2    0.53    0.06 
   3  -7  -2   17.62    0.31 
   4  -7  -2    4.13    0.14 
   5  -7  -2    0.07    0.05 
   6  -7  -2    4.31    0.15 
   7  -7  -2    6.42    0.20 
   8  -7  -2    3.74    0.32 
  -4  -6  -2    0.97    0.08 
  -3  -6  -2    6.02    0.19 
  -2  -6  -2   28.10    0.46 
  -1  -6  -2    2.05    0.11 
   0  -6  -2    4.15    0.35 
   1  -6  -2   16.86    0.54 
   2  -6  -2    6.13    0.27 
   3  -6  -2    0.10    0.10 
   4  -6  -2    1.39    0.22 
   5  -6  -2    0.06    0.05 
   6  -6  -2    1.61    0.09 
   7  -6  -2   -0.02    0.05 
   8  -6  -2    3.63    0.17 
  -5  -5  -2    0.65    0.06 
  -4  -5  -2    0.84    0.09 
  -3  -5  -2    1.18    0.09 
  -2  -5  -2   32.79    1.35 
  -1  -5  -2    3.48    0.31 
   0  -5  -2   12.69    0.59 
   1  -5  -2   11.62    0.29 
   2  -5  -2    3.41    0.17 
   3  -5  -2    2.57    0.12 
   4  -5  -2    7.91    0.43 
   5  -5  -2    7.69    0.35 
   6  -5  -2    1.34    0.09 
   7  -5  -2    0.03    0.05 
   8  -5  -2    0.88    0.10 
  -6  -4  -2    2.06    0.10 
  -5  -4  -2    1.94    0.11 
  -4  -4  -2    2.02    0.11 
  -3  -4  -2    2.80    0.19 
  -2  -4  -2    0.13    0.05 
  -1  -4  -2   15.50    0.34 
   0  -4  -2   42.76    0.70 
   1  -4  -2   40.84    0.62 
   2  -4  -2   39.49    0.65 
   3  -4  -2    1.73    0.08 
   4  -4  -2    3.69    0.14 
   5  -4  -2    0.73    0.11 
   6  -4  -2    9.69    0.71 
   7  -4  -2    0.75    0.08 
   8  -4  -2   -0.05    0.07 
   9  -4  -2    0.62    0.10 
  -6  -3  -2    2.25    0.09 
  -5  -3  -2    0.92    0.07 
  -4  -3  -2    1.28    0.18 
  -3  -3  -2    0.11    0.06 
  -2  -3  -2    0.85    0.07 
  -1  -3  -2    0.65    0.05 
   0  -3  -2   31.06    0.81 
   1  -3  -2   14.50    0.40 
   2  -3  -2    7.57    0.22 
   3  -3  -2    0.21    0.04 
   4  -3  -2   38.77    0.71 
   5  -3  -2    1.79    0.15 
   6  -3  -2    0.95    0.22 
   7  -3  -2    2.54    0.11 
   8  -3  -2    0.68    0.10 
   9  -3  -2    0.13    0.08 
  -7  -2  -2    5.38    0.13 
  -6  -2  -2    0.41    0.06 
  -5  -2  -2    0.63    0.06 
  -4  -2  -2    0.06    0.07 
  -3  -2  -2   44.84    1.16 
  -2  -2  -2    8.78    0.18 
  -1  -2  -2    0.74    0.10 
   0  -2  -2   49.46    1.21 
   1  -2  -2    5.32    0.16 
   2  -2  -2    4.23    0.13 
   3  -2  -2    5.87    0.25 
   4  -2  -2    2.87    0.10 
   5  -2  -2    0.60    0.08 
   6  -2  -2    4.69    0.44 
   7  -2  -2    1.31    0.10 
   8  -2  -2    0.04    0.08 
   9  -2  -2    0.13    0.07 
  -7  -1  -2    0.77    0.07 
  -6  -1  -2    2.07    0.10 
  -5  -1  -2    1.95    0.21 
  -4  -1  -2    0.30    0.07 
  -3  -1  -2    6.69    0.19 
  -2  -1  -2   18.27    0.50 
  -1  -1  -2    1.98    0.08 
   0  -1  -2    0.09    0.01 
   1  -1  -2  128.87    2.60 
   2  -1  -2    4.01    0.14 
   3  -1  -2   49.07    1.26 
   4  -1  -2    3.72    0.11 
   5  -1  -2    7.65    0.25 
   6  -1  -2   40.09    1.22 
   7  -1  -2    0.59    0.08 
   8  -1  -2    0.20    0.10 
  -7   0  -2    0.56    0.06 
  -6   0  -2    0.53    0.06 
  -5   0  -2   12.99    0.44 
  -4   0  -2    7.68    0.22 
  -3   0  -2   46.57    0.78 
  -2   0  -2  402.44    9.74 
  -1   0  -2   65.59    1.58 
   0   0  -2   10.42    0.19 
   1   0  -2    7.75    0.15 
   2   0  -2   14.98    0.41 
   3   0  -2   31.40    0.83 
   4   0  -2   32.91    0.58 
   5   0  -2    0.58    0.06 
   6   0  -2   25.96    1.28 
   7   0  -2    3.05    0.15 
   8   0  -2    1.47    0.16 
  -8   1  -2    0.04    0.03 
  -7   1  -2   -0.04    0.05 
  -6   1  -2    0.91    0.07 
  -5   1  -2    6.80    0.28 
  -4   1  -2    8.49    0.24 
  -3   1  -2   40.70    0.87 
  -2   1  -2  166.77    4.05 
  -1   1  -2    0.56    0.03 
   0   1  -2  226.95    4.65 
   1   1  -2  134.19    2.66 
   2   1  -2  150.82    3.66 
   3   1  -2    0.57    0.06 
   4   1  -2   37.86    0.88 
   5   1  -2    0.72    0.21 
   6   1  -2    0.66    0.09 
   7   1  -2    0.33    0.09 
   8   1  -2    6.89    0.27 
  -8   2  -2    0.51    0.06 
  -7   2  -2    3.30    0.13 
  -6   2  -2    1.32    0.08 
  -5   2  -2    0.86    0.17 
  -4   2  -2   43.72    1.19 
  -3   2  -2    4.13    0.14 
  -2   2  -2   10.76    0.42 
  -1   2  -2    0.08    0.03 
   0   2  -2  964.19   23.73 
   1   2  -2    1.10    0.08 
   2   2  -2   44.54    1.71 
   3   2  -2    0.02    0.05 
   4   2  -2    3.84    0.40 
   5   2  -2   -0.02    0.12 
   6   2  -2    0.07    0.07 
   7   2  -2    2.78    0.21 
   8   2  -2   -0.01    0.06 
  -8   3  -2    0.03    0.03 
  -7   3  -2    0.37    0.06 
  -6   3  -2    2.32    0.11 
  -5   3  -2   21.54    0.93 
  -4   3  -2   23.19    0.54 
  -3   3  -2    1.25    0.08 
  -2   3  -2   69.51    2.41 
  -1   3  -2  265.20    6.51 
   0   3  -2   59.91    1.56 
   1   3  -2   48.86    1.94 
   2   3  -2   27.71    0.58 
   3   3  -2    0.61    0.10 
   4   3  -2    2.17    0.24 
   5   3  -2   13.87    0.33 
   6   3  -2    1.24    0.12 
   7   3  -2    1.48    0.15 
  -8   4  -2    0.92    0.07 
  -7   4  -2    0.42    0.08 
  -6   4  -2   17.49    0.32 
  -5   4  -2    3.68    0.35 
  -4   4  -2    0.91    0.10 
  -3   4  -2    0.04    0.04 
  -2   4  -2   13.67    0.33 
  -1   4  -2    0.29    0.04 
   0   4  -2   27.37    0.56 
   1   4  -2    0.02    0.05 
   2   4  -2    4.60    0.26 
   3   4  -2   17.89    0.66 
   4   4  -2    1.99    0.25 
   5   4  -2   12.02    0.30 
   6   4  -2    2.30    0.19 
   7   4  -2    0.09    0.08 
  -8   5  -2    0.15    0.04 
  -7   5  -2    0.02    0.05 
  -6   5  -2   45.65    0.68 
  -5   5  -2    0.04    0.10 
  -4   5  -2    5.82    0.25 
  -3   5  -2   26.39    0.75 
  -2   5  -2    6.99    0.37 
  -1   5  -2   13.41    0.34 
   0   5  -2   56.64    1.30 
   1   5  -2    0.11    0.13 
   2   5  -2    2.46    0.41 
   3   5  -2   13.01    0.86 
   4   5  -2    0.08    0.07 
   5   5  -2    1.62    0.16 
   6   5  -2    2.35    0.17 
  -7   6  -2    1.97    0.11 
  -6   6  -2    4.12    0.19 
  -5   6  -2    1.56    0.09 
  -4   6  -2    6.90    0.29 
  -3   6  -2    0.61    0.13 
  -2   6  -2    5.93    0.36 
  -1   6  -2    1.19    0.14 
   0   6  -2    7.59    0.33 
   1   6  -2    1.12    0.28 
   2   6  -2   21.68    0.57 
   3   6  -2    0.84    0.11 
   4   6  -2    0.27    0.10 
   5   6  -2    0.23    0.08 
  -7   7  -2    1.11    0.07 
  -6   7  -2    3.52    0.14 
  -5   7  -2   14.00    0.32 
  -4   7  -2    7.11    0.20 
  -3   7  -2   20.42    0.34 
  -2   7  -2   14.65    0.70 
  -1   7  -2    1.00    0.17 
   0   7  -2   10.45    0.23 
   1   7  -2    7.35    0.24 
   2   7  -2    0.23    0.10 
   3   7  -2    0.05    0.10 
   4   7  -2    0.14    0.08 
  -6   8  -2    2.01    0.11 
  -5   8  -2    3.50    0.15 
  -4   8  -2    1.58    0.12 
  -3   8  -2    6.77    0.24 
  -2   8  -2    1.67    0.12 
  -1   8  -2    1.93    0.12 
   0   8  -2    6.74    0.30 
   1   8  -2    1.82    0.17 
   2   8  -2    0.01    0.08 
   3   8  -2    0.99    0.13 
  -5   9  -2    0.11    0.04 
  -4   9  -2    7.30    0.23 
  -3   9  -2    0.22    0.07 
  -2   9  -2   17.05    0.46 
  -1   9  -2    2.02    0.18 
   0   9  -2    0.07    0.07 
   1   9  -2    0.01    0.05 
  -3  10  -2    2.88    0.39 
  -2  10  -2    0.35    0.10 
   0  -9  -1    0.01    0.04 
   1  -9  -1    0.02    0.05 
   2  -9  -1    4.99    0.20 
   3  -9  -1    5.98    0.20 
   4  -9  -1   15.43    0.34 
   5  -9  -1    4.76    0.17 
   6  -9  -1    1.79    0.18 
  -2  -8  -1    0.30    0.07 
  -1  -8  -1    1.95    0.14 
   0  -8  -1    0.18    0.06 
   1  -8  -1    0.00    0.06 
   2  -8  -1    5.65    0.19 
   3  -8  -1    2.93    0.13 
   4  -8  -1    9.64    0.28 
   5  -8  -1    2.08    0.14 
   6  -8  -1    0.60    0.08 
   7  -8  -1    0.99    0.08 
  -3  -7  -1    2.07    0.12 
  -2  -7  -1    0.06    0.06 
  -1  -7  -1    0.01    0.05 
   0  -7  -1   23.59    0.42 
   1  -7  -1    0.19    0.05 
   2  -7  -1    0.64    0.08 
   3  -7  -1    8.99    0.21 
   4  -7  -1    0.10    0.05 
   5  -7  -1    3.24    0.14 
   6  -7  -1   20.81    0.51 
   7  -7  -1    0.00    0.05 
   8  -7  -1    7.26    0.60 
  -4  -6  -1    0.51    0.07 
  -3  -6  -1    7.11    0.23 
  -2  -6  -1   34.65    0.56 
  -1  -6  -1    4.52    0.37 
   0  -6  -1    4.53    0.36 
   1  -6  -1    4.84    0.27 
   2  -6  -1    7.88    0.54 
   3  -6  -1    0.35    0.12 
   4  -6  -1    7.72    0.53 
   5  -6  -1    1.06    0.08 
   6  -6  -1   19.21    0.38 
   7  -6  -1    1.32    0.11 
   8  -6  -1    2.23    0.13 
  -5  -5  -1    0.02    0.04 
  -4  -5  -1    2.32    0.13 
  -3  -5  -1    0.24    0.06 
  -2  -5  -1    3.86    0.37 
  -1  -5  -1    0.30    0.12 
   0  -5  -1   24.12    0.59 
   1  -5  -1   30.46    0.70 
   2  -5  -1   10.27    0.29 
   3  -5  -1    2.17    0.24 
   4  -5  -1    0.23    0.08 
   5  -5  -1   11.42    0.44 
   6  -5  -1   28.89    0.48 
   7  -5  -1    1.19    0.10 
   8  -5  -1    0.12    0.07 
  -6  -4  -1    0.50    0.05 
  -5  -4  -1   -0.02    0.05 
  -4  -4  -1    1.26    0.08 
  -3  -4  -1    8.18    0.31 
  -2  -4  -1    0.39    0.07 
  -1  -4  -1    4.75    0.17 
   0  -4  -1    2.88    0.14 
   1  -4  -1   29.75    0.56 
   2  -4  -1    0.03    0.02 
   3  -4  -1   13.08    0.32 
   4  -4  -1   31.91    0.72 
   5  -4  -1    0.61    0.18 
   6  -4  -1   14.24    0.80 
   7  -4  -1    5.91    0.21 
   8  -4  -1    2.42    0.18 
  -7  -3  -1   -0.04    0.06 
  -6  -3  -1    0.03    0.05 
  -5  -3  -1    1.66    0.11 
  -4  -3  -1    0.05    0.06 
  -3  -3  -1    0.36    0.06 
  -2  -3  -1    0.21    0.04 
  -1  -3  -1   63.13    1.61 
   0  -3  -1    0.22    0.03 
   1  -3  -1   21.96    0.58 
   2  -3  -1    1.72    0.09 
   3  -3  -1  220.75    7.03 
   4  -3  -1  101.28    1.78 
   5  -3  -1   10.97    0.63 
   6  -3  -1   10.39    0.64 
   7  -3  -1    2.37    0.14 
   8  -3  -1    2.85    0.20 
   9  -3  -1    1.47    0.24 
  -7  -2  -1    1.76    0.09 
  -6  -2  -1    2.04    0.10 
  -5  -2  -1    0.01    0.06 
  -4  -2  -1    0.75    0.13 
  -3  -2  -1    0.01    0.03 
  -2  -2  -1  106.67    3.58 
  -1  -2  -1    3.28    0.19 
   0  -2  -1   53.69    1.31 
   1  -2  -1  229.85    5.59 
   2  -2  -1  365.02    8.93 
   3  -2  -1   97.16    3.23 
   4  -2  -1   34.45    0.79 
   5  -2  -1    0.00    0.04 
   6  -2  -1   32.66    1.02 
   7  -2  -1    8.36    0.24 
   8  -2  -1    4.85    0.25 
  -7  -1  -1    1.34    0.09 
  -6  -1  -1    1.07    0.08 
  -5  -1  -1    0.16    0.10 
  -4  -1  -1    1.66    0.18 
  -3  -1  -1   50.25    1.04 
  -2  -1  -1   10.34    0.30 
  -1  -1  -1   44.30    1.10 
   0  -1  -1   20.12    0.50 
   1  -1  -1  106.23    2.14 
   2  -1  -1  192.42    4.01 
   3  -1  -1    7.38    0.23 
   4  -1  -1   64.10    1.35 
   5  -1  -1   22.19    0.56 
   6  -1  -1   33.46    1.05 
   7  -1  -1    7.13    0.27 
   8  -1  -1    1.65    0.15 
  -8   0  -1    0.15    0.04 
  -7   0  -1   -0.02    0.05 
  -6   0  -1    2.42    0.11 
  -5   0  -1   11.52    0.56 
  -4   0  -1   14.21    0.36 
  -3   0  -1   52.18    1.33 
  -2   0  -1   66.07    1.68 
  -1   0  -1   75.50    1.82 
   0   0  -1   48.77    0.84 
   1   0  -1  212.53    5.03 
   2   0  -1    0.10    0.02 
   3   0  -1  122.15    2.99 
   4   0  -1    3.32    0.13 
   5   0  -1   21.13    0.73 
   6   0  -1   12.04    0.76 
   7   0  -1    0.39    0.11 
   8   0  -1   10.26    0.36 
  -8   1  -1    6.16    0.17 
  -7   1  -1    3.35    0.15 
  -6   1  -1    1.44    0.17 
  -5   1  -1   13.53    0.44 
  -4   1  -1   14.36    0.36 
  -3   1  -1    5.26    0.19 
  -2   1  -1   92.46    1.86 
  -1   1  -1  226.54    4.67 
   0   1  -1   95.00    2.37 
   1   1  -1  148.86    3.59 
   2   1  -1   56.63    1.43 
   3   1  -1    0.71    0.07 
   4   1  -1    0.28    0.05 
   5   1  -1   32.53    1.48 
   6   1  -1    7.24    0.24 
   7   1  -1    1.57    0.16 
   8   1  -1    0.07    0.06 
  -8   2  -1    4.17    0.15 
  -7   2  -1    0.06    0.06 
  -6   2  -1   50.17    1.35 
  -5   2  -1   21.24    0.63 
  -4   2  -1    3.11    0.14 
  -3   2  -1    1.51    0.15 
  -2   2  -1  321.38    8.07 
  -1   2  -1   70.30    1.75 
   0   2  -1  102.42    2.53 
   1   2  -1  174.39    4.25 
   2   2  -1   23.17    0.65 
   3   2  -1   95.66    2.04 
   4   2  -1    0.05    0.09 
   5   2  -1    2.37    0.36 
   6   2  -1    1.58    0.14 
   7   2  -1   -0.01    0.07 
  -8   3  -1    4.50    0.15 
  -7   3  -1    2.35    0.12 
  -6   3  -1   23.51    1.01 
  -5   3  -1   16.21    0.74 
  -4   3  -1    0.18    0.05 
  -3   3  -1   25.19    0.69 
  -2   3  -1    0.63    0.07 
  -1   3  -1    1.21    0.09 
   0   3  -1   97.38    2.46 
   1   3  -1   37.29    1.54 
   2   3  -1   33.99    0.82 
   3   3  -1   21.86    0.62 
   4   3  -1   11.22    0.51 
   5   3  -1    0.34    0.08 
   6   3  -1   13.53    0.47 
   7   3  -1   -0.05    0.06 
  -8   4  -1    0.09    0.04 
  -7   4  -1    8.07    0.23 
  -6   4  -1    3.03    0.13 
  -5   4  -1   24.77    1.05 
  -4   4  -1   24.15    0.57 
  -3   4  -1   28.03    0.63 
  -2   4  -1    0.19    0.04 
  -1   4  -1    3.56    0.21 
   0   4  -1    1.08    0.10 
   1   4  -1    5.66    0.22 
   2   4  -1    6.22    0.39 
   3   4  -1    0.15    0.19 
   4   4  -1    6.32    0.68 
   5   4  -1    0.38    0.11 
   6   4  -1    3.18    0.25 
  -8   5  -1    0.32    0.05 
  -7   5  -1    2.37    0.12 
  -6   5  -1    0.31    0.07 
  -5   5  -1    0.07    0.11 
  -4   5  -1    5.73    0.25 
  -3   5  -1   53.59    1.40 
  -2   5  -1    4.13    0.25 
  -1   5  -1   43.55    1.01 
   0   5  -1    0.29    0.08 
   1   5  -1   16.25    0.56 
   2   5  -1   14.41    0.89 
   3   5  -1    7.28    0.74 
   4   5  -1    7.33    0.37 
   5   5  -1    3.22    0.22 
   6   5  -1    0.10    0.07 
  -8   6  -1    0.09    0.04 
  -7   6  -1    2.21    0.12 
  -6   6  -1    0.85    0.08 
  -5   6  -1    0.05    0.05 
  -4   6  -1    7.47    0.30 
  -3   6  -1    0.29    0.11 
  -2   6  -1    0.01    0.08 
  -1   6  -1    5.01    0.36 
   0   6  -1   13.57    0.50 
   1   6  -1    9.09    0.68 
   2   6  -1    0.26    0.09 
   3   6  -1    0.58    0.13 
   4   6  -1    0.72    0.12 
   5   6  -1    0.17    0.07 
  -7   7  -1    0.45    0.06 
  -6   7  -1    1.48    0.11 
  -5   7  -1    6.12    0.22 
  -4   7  -1    8.21    0.23 
  -3   7  -1    0.26    0.07 
  -2   7  -1    6.99    0.42 
  -1   7  -1    8.24    0.46 
   0   7  -1    5.37    0.21 
   1   7  -1    0.27    0.10 
   2   7  -1   26.46    0.67 
   3   7  -1    4.00    0.25 
   4   7  -1    2.36    0.17 
  -7   8  -1    2.13    0.13 
  -6   8  -1    0.72    0.07 
  -5   8  -1    0.91    0.09 
  -4   8  -1    5.11    0.23 
  -3   8  -1    0.12    0.06 
  -2   8  -1    2.83    0.15 
  -1   8  -1    4.25    0.20 
   0   8  -1    7.88    0.31 
   1   8  -1    1.02    0.15 
   2   8  -1   23.16    0.62 
   3   8  -1    7.72    0.36 
  -5   9  -1    0.81    0.07 
  -4   9  -1    0.02    0.05 
  -3   9  -1    4.34    0.21 
  -2   9  -1   -0.03    0.07 
  -1   9  -1    1.79    0.14 
   0   9  -1    0.20    0.08 
   1   9  -1    0.97    0.10 
  -3  10  -1    2.14    0.34 
  -2  10  -1    0.00    0.14 
  -1  -9   0    0.27    0.06 
   0  -9   0    0.03    0.05 
   1  -9   0    0.86    0.10 
   2  -9   0    7.30    0.24 
   3  -9   0    2.79    0.14 
   4  -9   0    1.21    0.10 
   5  -9   0    4.21    0.16 
   6  -9   0   -0.05    0.05 
  -2  -8   0    5.65    0.20 
  -1  -8   0    0.25    0.07 
   0  -8   0    1.45    0.13 
   1  -8   0    0.05    0.06 
   2  -8   0    0.11    0.06 
   3  -8   0   10.83    0.27 
   4  -8   0    8.92    0.28 
   5  -8   0    2.49    0.14 
   6  -8   0    4.01    0.18 
   7  -8   0    0.12    0.05 
  -4  -7   0    0.37    0.06 
  -3  -7   0    2.19    0.14 
  -2  -7   0    6.43    0.23 
  -1  -7   0    4.98    0.20 
   0  -7   0   20.25    0.38 
   1  -7   0    2.33    0.22 
   2  -7   0    4.10    0.39 
   3  -7   0   15.22    0.32 
   4  -7   0    7.34    0.25 
   5  -7   0    0.07    0.06 
   6  -7   0    0.67    0.09 
   7  -7   0    3.60    0.19 
  -5  -6   0    0.03    0.05 
  -4  -6   0    2.66    0.15 
  -3  -6   0    2.09    0.13 
  -2  -6   0    8.77    0.24 
  -1  -6   0    1.01    0.18 
   0  -6   0    0.31    0.09 
   1  -6   0   38.62    1.07 
   2  -6   0    0.21    0.12 
   3  -6   0    1.73    0.24 
   4  -6   0    2.23    0.21 
   5  -6   0    2.43    0.13 
   6  -6   0    8.14    0.27 
   7  -6   0    2.74    0.19 
   8  -6   0    0.25    0.08 
  -5  -5   0    2.47    0.12 
  -4  -5   0    2.81    0.15 
  -3  -5   0    1.41    0.11 
  -2  -5   0   21.37    0.95 
  -1  -5   0   11.83    0.58 
   0  -5   0    3.18    0.17 
   1  -5   0    9.50    0.28 
   2  -5   0   38.20    1.06 
   3  -5   0   27.66    0.82 
   4  -5   0    9.06    0.37 
   5  -5   0    3.58    0.42 
   6  -5   0    6.74    0.26 
   7  -5   0    9.49    0.32 
   8  -5   0   -0.01    0.07 
  -6  -4   0    1.26    0.10 
  -5  -4   0    2.01    0.16 
  -4  -4   0    4.43    0.18 
  -3  -4   0    0.12    0.12 
  -2  -4   0   19.91    0.62 
  -1  -4   0    5.40    0.20 
   0  -4   0    2.07    0.12 
   1  -4   0   24.80    0.70 
   2  -4   0    1.04    0.06 
   3  -4   0    6.61    0.20 
   4  -4   0  166.96    3.45 
   5  -4   0   16.19    0.84 
   6  -4   0    3.26    0.41 
   7  -4   0    0.59    0.11 
   8  -4   0    0.02    0.08 
  -7  -3   0    0.29    0.04 
  -6  -3   0    0.06    0.06 
  -5  -3   0    9.19    0.24 
  -4  -3   0   21.74    0.65 
  -3  -3   0    9.45    0.27 
  -2  -3   0    0.06    0.03 
  -1  -3   0   95.81    3.45 
   0  -3   0  171.70    4.13 
   1  -3   0   13.37    0.36 
   2  -3   0    1.59    0.08 
   3  -3   0    1.47    0.10 
   4  -3   0   18.04    0.53 
   5  -3   0    9.15    0.57 
   6  -3   0   15.77    0.85 
   7  -3   0    2.40    0.18 
   8  -3   0    0.71    0.12 
  -7  -2   0    0.39    0.05 
  -6  -2   0    3.93    0.15 
  -5  -2   0    6.55    0.40 
  -4  -2   0    1.36    0.13 
  -3  -2   0    6.87    0.20 
  -2  -2   0   56.11    1.43 
  -1  -2   0   16.09    0.44 
   0  -2   0    6.45    0.18 
   1  -2   0    4.09    0.12 
   2  -2   0  674.55   16.48 
   3  -2   0   79.50    2.75 
   4  -2   0   15.74    0.39 
   5  -2   0   37.77    1.12 
   6  -2   0   13.85    0.55 
   7  -2   0    0.83    0.12 
   8  -2   0    0.13    0.09 
  -8  -1   0    2.63    0.12 
  -7  -1   0    0.58    0.08 
  -6  -1   0    8.09    0.23 
  -5  -1   0    0.47    0.13 
  -4  -1   0   -0.01    0.04 
  -3  -1   0  205.76    4.10 
  -2  -1   0    9.84    0.29 
  -1  -1   0  126.51    3.07 
   0  -1   0   81.66    2.00 
   1  -1   0    3.15    0.09 
   2  -1   0  437.35    8.80 
   3  -1   0   11.23    0.44 
   4  -1   0   31.89    0.73 
   5  -1   0   42.89    1.26 
   6  -1   0    1.88    0.34 
   7  -1   0    2.92    0.20 
   8  -1   0    0.09    0.09 
  -8   0   0    0.75    0.07 
  -7   0   0    3.54    0.14 
  -6   0   0    0.22    0.11 
  -5   0   0   15.77    0.71 
  -4   0   0    0.52    0.06 
  -3   0   0   51.07    1.29 
  -2   0   0   31.52    0.81 
  -1   0   0   14.83    0.38 
   1   0   0   14.95    0.38 
   2   0   0   31.96    0.81 
   3   0   0   50.44    1.79 
   4   0   0    0.54    0.07 
   5   0   0   16.85    0.89 
   6   0   0    0.30    0.17 
   7   0   0    3.91    0.22 
   8   0   0    0.74    0.14 
  -8   1   0    0.01    0.05 
  -7   1   0    2.96    0.13 
  -6   1   0    1.13    0.18 
  -5   1   0   44.12    1.17 
  -4   1   0   32.19    0.71 
  -3   1   0   11.53    0.49 
  -2   1   0  443.52    8.82 
  -1   1   0    3.39    0.11 
   0   1   0   82.43    2.01 
   1   1   0  124.77    3.08 
   2   1   0   10.07    0.30 
   3   1   0  203.48    5.05 
   4   1   0    0.03    0.04 
   5   1   0    0.61    0.22 
   6   1   0    8.46    0.36 
   7   1   0    0.83    0.14 
   8   1   0    2.18    0.17 
  -8   2   0    0.03    0.05 
  -7   2   0    0.77    0.08 
  -6   2   0   13.30    0.45 
  -5   2   0   37.60    1.03 
  -4   2   0   14.49    0.37 
  -3   2   0   78.08    2.80 
  -2   2   0  678.86   16.69 
  -1   2   0    4.10    0.14 
   0   2   0    6.11    0.20 
   1   2   0   16.94    0.47 
   2   2   0   57.06    1.47 
   3   2   0    6.63    0.22 
   4   2   0    1.52    0.20 
   5   2   0    7.77    0.68 
   6   2   0    3.75    0.24 
   7   2   0    0.45    0.11 
  -8   3   0    0.73    0.07 
  -7   3   0    2.49    0.12 
  -6   3   0   16.00    0.76 
  -5   3   0    9.28    0.50 
  -4   3   0   16.91    0.53 
  -3   3   0    1.47    0.11 
  -2   3   0    1.51    0.10 
  -1   3   0   13.10    0.39 
   0   3   0  166.22    4.17 
   1   3   0   98.05    3.62 
   2   3   0    0.11    0.06 
   3   3   0    9.23    0.43 
   4   3   0   21.86    0.80 
   5   3   0    9.12    0.35 
   6   3   0    0.05    0.09 
   7   3   0    0.27    0.09 
  -8   4   0    0.02    0.05 
  -7   4   0    0.61    0.07 
  -6   4   0    2.77    0.31 
  -5   4   0   15.58    0.75 
  -4   4   0  174.00    4.23 
  -3   4   0    6.36    0.19 
  -2   4   0    1.07    0.09 
  -1   4   0   24.31    0.73 
   0   4   0    2.08    0.14 
   1   4   0    5.17    0.22 
   2   4   0   19.81    0.76 
   3   4   0    0.24    0.20 
   4   4   0    4.77    0.33 
   5   4   0    2.03    0.22 
   6   4   0    1.22    0.14 
  -8   5   0    0.07    0.05 
  -7   5   0    9.39    0.29 
  -6   5   0    6.35    0.21 
  -5   5   0    3.59    0.35 
  -4   5   0    8.94    0.33 
  -3   5   0   27.18    0.78 
  -2   5   0   38.09    0.88 
  -1   5   0    9.29    0.38 
   0   5   0    3.14    0.19 
   1   5   0   11.71    0.45 
   2   5   0   21.37    1.19 
   3   5   0    1.39    0.20 
   4   5   0    2.82    0.21 
   5   5   0    2.15    0.20 
  -8   6   0    0.36    0.06 
  -7   6   0    2.29    0.13 
  -6   6   0    7.56    0.21 
  -5   6   0    2.57    0.15 
  -4   6   0    1.83    0.16 
  -3   6   0    1.59    0.15 
  -2   6   0    0.32    0.12 
  -1   6   0   38.24    1.50 
   0   6   0    0.23    0.10 
   1   6   0    0.83    0.13 
   2   6   0    9.10    0.38 
   3   6   0    2.22    0.20 
   4   6   0    2.29    0.23 
   5   6   0    0.05    0.09 
  -7   7   0    3.69    0.15 
  -6   7   0    0.65    0.08 
  -5   7   0    0.00    0.05 
  -4   7   0    6.63    0.23 
  -3   7   0   14.69    0.39 
  -2   7   0    4.30    0.37 
  -1   7   0    2.29    0.24 
   0   7   0   20.14    0.49 
   1   7   0    4.77    0.28 
   2   7   0    6.09    0.37 
   3   7   0    2.20    0.20 
   4   7   0    0.32    0.12 
  -7   8   0    0.23    0.06 
  -6   8   0    3.56    0.15 
  -5   8   0    2.41    0.15 
  -4   8   0    9.13    0.30 
  -3   8   0   10.87    0.27 
  -2   8   0    0.23    0.07 
  -1   8   0    0.03    0.06 
   0   8   0    1.77    0.20 
   1   8   0    0.25    0.10 
   2   8   0    5.54    0.30 
  -6   9   0    0.02    0.05 
  -5   9   0    4.36    0.17 
  -4   9   0    1.28    0.10 
  -3   9   0    2.81    0.17 
  -2   9   0    7.04    0.23 
  -1   9   0    0.93    0.11 
   0   9   0    0.03    0.06 
   1   9   0    0.31    0.10 
   3 -10   1    1.65    0.20 
  -1  -9   1    1.12    0.08 
   0  -9   1    0.19    0.06 
   1  -9   1    1.90    0.13 
   2  -9   1    0.05    0.06 
   3  -9   1    3.98    0.19 
   4  -9   1    0.02    0.06 
   5  -9   1    0.78    0.09 
  -3  -8   1    7.51    0.29 
  -2  -8   1   23.57    0.54 
  -1  -8   1    1.07    0.13 
   0  -8   1    8.27    0.28 
   1  -8   1    4.57    0.21 
   2  -8   1    3.10    0.16 
   3  -8   1    0.07    0.06 
   4  -8   1    4.86    0.24 
   5  -8   1    0.86    0.11 
   6  -8   1    0.65    0.08 
   7  -8   1    2.37    0.18 
  -4  -7   1    2.53    0.13 
  -3  -7   1    4.26    0.20 
  -2  -7   1   25.50    0.52 
  -1  -7   1    0.34    0.08 
   0  -7   1    5.91    0.22 
   1  -7   1    7.51    0.56 
   2  -7   1    7.04    0.55 
   3  -7   1    0.25    0.09 
   4  -7   1    9.24    0.28 
   5  -7   1    6.61    0.24 
   6  -7   1    1.32    0.13 
   7  -7   1    0.49    0.09 
  -5  -6   1    0.07    0.04 
  -4  -6   1    0.92    0.12 
  -3  -6   1    0.61    0.09 
  -2  -6   1    0.31    0.09 
  -1  -6   1    9.28    0.39 
   0  -6   1   13.56    0.47 
   1  -6   1    5.88    0.48 
   2  -6   1   -0.10    0.09 
   3  -6   1    0.29    0.10 
   4  -6   1    7.19    0.38 
   5  -6   1    0.13    0.09 
   6  -6   1    0.90    0.11 
   7  -6   1    2.14    0.17 
   8  -6   1    0.13    0.07 
  -6  -5   1    0.08    0.05 
  -5  -5   1    3.39    0.18 
  -4  -5   1    6.59    0.24 
  -3  -5   1    6.47    0.52 
  -2  -5   1   13.93    0.70 
  -1  -5   1   16.27    0.54 
   0  -5   1    0.45    0.07 
   1  -5   1   43.44    1.20 
   2  -5   1    4.04    0.21 
   3  -5   1   52.35    1.45 
   4  -5   1    6.17    0.54 
   5  -5   1    0.08    0.13 
   6  -5   1    0.42    0.10 
   7  -5   1    2.44    0.20 
   8  -5   1    0.25    0.09 
  -6  -4   1    3.09    0.16 
  -5  -4   1    0.26    0.07 
  -4  -4   1    5.07    0.44 
  -3  -4   1    0.29    0.13 
  -2  -4   1    6.10    0.27 
  -1  -4   1    5.97    0.21 
   0  -4   1    1.13    0.11 
   1  -4   1    3.89    0.21 
   2  -4   1    0.19    0.05 
   3  -4   1   28.41    0.65 
   4  -4   1   24.89    0.72 
   5  -4   1   23.97    1.16 
   6  -4   1    3.00    0.19 
   7  -4   1    8.22    0.35 
   8  -4   1    0.04    0.08 
  -7  -3   1    0.04    0.04 
  -6  -3   1   13.30    0.34 
  -5  -3   1    0.36    0.06 
  -4  -3   1   10.97    0.39 
  -3  -3   1   22.85    0.65 
  -2  -3   1   33.49    0.92 
  -1  -3   1   36.80    0.96 
   0  -3   1   98.75    3.46 
   1  -3   1    1.19    0.06 
   2  -3   1    0.73    0.05 
   3  -3   1   24.68    0.69 
   4  -3   1    0.14    0.04 
   5  -3   1   15.66    0.60 
   6  -3   1   22.75    0.81 
   7  -3   1    2.16    0.19 
   8  -3   1    4.58    0.26 
  -7  -2   1   -0.01    0.05 
  -6  -2   1    1.47    0.11 
  -5  -2   1    1.66    0.16 
  -4  -2   1    0.05    0.05 
  -3  -2   1   95.78    1.96 
  -2  -2   1   23.57    0.63 
  -1  -2   1  171.01    4.22 
   0  -2   1  101.62    2.50 
   1  -2   1   70.11    1.72 
   2  -2   1  343.06    8.10 
   3  -2   1    1.54    0.09 
   4  -2   1    2.89    0.15 
   5  -2   1   21.11    0.73 
   6  -2   1   49.59    2.14 
   7  -2   1    0.17    0.09 
   8  -2   1    4.14    0.22 
  -8  -1   1    0.05    0.04 
  -7  -1   1    1.53    0.11 
  -6  -1   1    7.43    0.22 
  -5  -1   1   33.00    1.29 
  -4  -1   1    0.24    0.05 
  -3  -1   1    0.74    0.11 
  -2  -1   1   55.78    1.40 
  -1  -1   1  143.72    3.56 
   0  -1   1   98.84    2.36 
   1  -1   1  241.92    5.71 
   2  -1   1   93.38    3.20 
   3  -1   1    4.95    0.23 
   4  -1   1   15.13    0.39 
   5  -1   1   13.84    0.81 
   6  -1   1    2.05    0.32 
   7  -1   1    3.61    0.25 
   8  -1   1    5.99    0.26 
  -8   0   1   10.41    0.27 
  -7   0   1    0.25    0.06 
  -6   0   1   12.23    0.60 
  -5   0   1   21.19    0.88 
  -4   0   1    3.49    0.19 
  -3   0   1  117.69    4.23 
  -2   0   1    0.14    0.02 
  -1   0   1  193.98    4.94 
   1   0   1   73.10    1.81 
   2   0   1   68.98    1.67 
   3   0   1   52.20    1.85 
   4   0   1   14.09    0.46 
   5   0   1   12.47    0.76 
   6   0   1    2.62    0.20 
   7   0   1    0.03    0.10 
   8   0   1    0.21    0.07 
  -8   1   1    1.45    0.10 
  -7   1   1    8.38    0.24 
  -6   1   1   34.40    1.35 
  -5   1   1   23.02    0.67 
  -4   1   1   62.94    1.33 
  -3   1   1    7.35    0.35 
  -2   1   1  212.95    4.94 
  -1   1   1  108.38    2.63 
   0   1   1   19.56    0.77 
   1   1   1   44.24    1.12 
   2   1   1   10.35    0.31 
   3   1   1   48.63    1.09 
   4   1   1    2.00    0.14 
   5   1   1    0.46    0.21 
   6   1   1    1.14    0.15 
   7   1   1    1.36    0.15 
  -9   2   1   -0.02    0.09 
  -8   2   1    4.83    0.16 
  -7   2   1    8.17    0.22 
  -6   2   1   32.92    0.93 
  -5   2   1    0.02    0.05 
  -4   2   1   34.83    0.76 
  -3   2   1   91.10    2.35 
  -2   2   1  369.16    9.03 
  -1   2   1  227.95    5.60 
   0   2   1   50.55    1.98 
   1   2   1    3.33    0.13 
   2   2   1   99.36    2.11 
   3   2   1    0.00    0.04 
   4   2   1    0.63    0.16 
   5   2   1    0.07    0.10 
   6   2   1    2.08    0.21 
   7   2   1    2.00    0.17 
  -9   3   1    0.92    0.08 
  -8   3   1    2.87    0.14 
  -7   3   1    2.40    0.12 
  -6   3   1   10.27    0.38 
  -5   3   1   11.09    0.39 
  -4   3   1   99.16    2.06 
  -3   3   1  198.67    4.12 
  -2   3   1    1.60    0.11 
  -1   3   1   21.83    0.99 
   0   3   1    0.20    0.03 
   1   3   1   62.99    1.36 
   2   3   1    0.32    0.12 
   3   3   1    0.24    0.19 
   4   3   1    0.16    0.21 
   5   3   1    1.53    0.18 
   6   3   1    0.09    0.10 
   7   3   1   -0.03    0.09 
  -8   4   1    2.41    0.13 
  -7   4   1    6.24    0.22 
  -6   4   1   14.08    0.72 
  -5   4   1    0.67    0.17 
  -4   4   1   31.33    1.28 
  -3   4   1   12.43    0.35 
  -2   4   1   -0.01    0.04 
  -1   4   1   29.42    0.87 
   0   4   1    2.53    0.16 
   1   4   1    4.71    0.24 
   2   4   1    0.32    0.20 
   3   4   1    8.31    0.82 
   4   4   1    1.36    0.17 
   5   4   1   -0.04    0.10 
   6   4   1    0.37    0.11 
  -8   5   1    0.09    0.04 
  -7   5   1    1.28    0.10 
  -6   5   1   29.25    0.53 
  -5   5   1   12.34    0.65 
  -4   5   1    0.07    0.11 
  -3   5   1    1.74    0.13 
  -2   5   1   10.66    0.32 
  -1   5   1   30.85    0.94 
   0   5   1   24.52    0.77 
   1   5   1    0.39    0.10 
   2   5   1    4.32    0.60 
   3   5   1    0.22    0.12 
   4   5   1    1.81    0.19 
   5   5   1   -0.04    0.08 
  -8   6   1    2.11    0.11 
  -7   6   1    1.47    0.10 
  -6   6   1   19.92    0.43 
  -5   6   1    1.33    0.11 
  -4   6   1    6.76    0.30 
  -3   6   1    0.14    0.08 
  -2   6   1    7.82    0.45 
  -1   6   1    4.71    0.38 
   0   6   1    3.56    0.26 
   1   6   1    3.76    0.28 
   2   6   1   34.64    0.76 
   3   6   1    7.66    0.45 
   4   6   1    0.42    0.13 
  -8   7   1    6.37    0.38 
  -7   7   1    0.03    0.05 
  -6   7   1   20.49    0.43 
  -5   7   1    3.09    0.15 
  -4   7   1    0.12    0.05 
  -3   7   1    8.44    0.26 
  -2   7   1    0.55    0.10 
  -1   7   1    0.17    0.07 
   0   7   1   23.28    0.70 
   1   7   1    0.02    0.08 
   2   7   1    0.14    0.10 
   3   7   1    1.89    0.18 
  -7   8   1    0.97    0.08 
  -6   8   1    0.64    0.07 
  -5   8   1    2.56    0.15 
  -4   8   1    9.67    0.28 
  -3   8   1    2.53    0.13 
  -2   8   1    5.64    0.21 
  -1   8   1    0.08    0.10 
   0   8   1    0.08    0.10 
   1   8   1    2.10    0.16 
   2   8   1    0.20    0.07 
  -6   9   1    2.08    0.17 
  -5   9   1    4.83    0.16 
  -4   9   1   15.47    0.37 
  -3   9   1    6.32    0.23 
  -2   9   1    4.80    0.21 
  -1   9   1    0.01    0.07 
   0   9   1    0.01    0.06 
   2 -10   2    0.28    0.09 
  -1  -9   2   -0.01    0.06 
   0  -9   2    0.03    0.06 
   1  -9   2    2.01    0.15 
   2  -9   2   17.12    0.43 
   3  -9   2    0.21    0.07 
   4  -9   2    7.02    0.23 
   5  -9   2    0.13    0.05 
  -3  -8   2    1.30    0.11 
  -2  -8   2    0.00    0.06 
  -1  -8   2    1.78    0.14 
   0  -8   2    7.15    0.30 
   1  -8   2    1.81    0.13 
   2  -8   2    1.87    0.14 
   3  -8   2    6.01    0.24 
   4  -8   2    1.45    0.13 
   5  -8   2    4.02    0.19 
   6  -8   2    2.12    0.12 
  -4  -7   2    0.20    0.07 
  -3  -7   2   -0.03    0.07 
  -2  -7   2    0.21    0.07 
  -1  -7   2    7.09    0.22 
   0  -7   2   10.95    0.33 
   1  -7   2    1.49    0.26 
   2  -7   2   15.42    0.79 
   3  -7   2   20.67    0.45 
   4  -7   2    7.46    0.27 
   5  -7   2   14.13    0.38 
   6  -7   2    3.40    0.17 
   7  -7   2    1.02    0.10 
  -5  -6   2    0.33    0.07 
  -4  -6   2    0.23    0.09 
  -3  -6   2    0.84    0.10 
  -2  -6   2   20.67    0.56 
  -1  -6   2    0.92    0.14 
   0  -6   2    8.31    0.61 
   1  -6   2    1.20    0.22 
   2  -6   2    6.67    0.38 
   3  -6   2    0.53    0.12 
   4  -6   2    7.49    0.64 
   5  -6   2    1.63    0.14 
   6  -6   2    3.73    0.20 
   7  -6   2    1.99    0.16 
  -6  -5   2    2.13    0.11 
  -5  -5   2    1.61    0.13 
  -4  -5   2    0.06    0.07 
  -3  -5   2   12.16    0.68 
  -2  -5   2    2.40    0.21 
  -1  -5   2    0.14    0.06 
   0  -5   2   57.58    1.55 
   1  -5   2   13.47    0.39 
   2  -5   2    7.43    0.29 
   3  -5   2   25.92    0.81 
   4  -5   2    5.80    0.55 
   5  -5   2   -0.04    0.15 
   6  -5   2   46.65    0.93 
   7  -5   2    0.03    0.08 
   8  -5   2    0.17    0.07 
  -7  -4   2    0.11    0.05 
  -6  -4   2    2.32    0.14 
  -5  -4   2   12.75    0.34 
  -4  -4   2    1.86    0.29 
  -3  -4   2   18.35    0.86 
  -2  -4   2    4.87    0.22 
  -1  -4   2    0.07    0.04 
   0  -4   2   28.68    0.80 
   1  -4   2    0.33    0.06 
   2  -4   2   13.51    0.37 
   3  -4   2    0.07    0.06 
   4  -4   2    0.80    0.21 
   5  -4   2    3.61    0.44 
   6  -4   2   16.94    0.44 
   7  -4   2    0.44    0.11 
   8  -4   2    1.24    0.15 
  -7  -3   2    1.41    0.12 
  -6  -3   2    1.25    0.14 
  -5  -3   2   13.79    0.39 
  -4  -3   2    2.09    0.28 
  -3  -3   2    0.94    0.18 
  -2  -3   2   28.67    0.56 
  -1  -3   2   48.79    1.26 
   0  -3   2   60.62    2.18 
   1  -3   2  266.88    9.19 
   2  -3   2   66.83    1.70 
   3  -3   2    1.35    0.08 
   4  -3   2   23.52    0.58 
   5  -3   2   21.17    0.76 
   6  -3   2    2.68    0.18 
   7  -3   2    0.52    0.14 
   8  -3   2    0.00    0.07 
  -8  -2   2   -0.02    0.04 
  -7  -2   2    3.10    0.18 
  -6  -2   2    0.08    0.06 
  -5  -2   2    0.04    0.07 
  -4  -2   2    3.99    0.19 
  -3  -2   2    0.08    0.04 
  -2  -2   2   42.00    1.10 
  -1  -2   2    1.11    0.08 
   0  -2   2  971.14   33.44 
   1  -2   2    0.05    0.02 
   2  -2   2    9.50    0.29 
   3  -2   2    4.43    0.14 
   4  -2   2   45.62    1.01 
   5  -2   2    0.80    0.26 
   6  -2   2    1.49    0.17 
   7  -2   2    3.55    0.25 
   8  -2   2    0.50    0.10 
  -8  -1   2    7.19    0.24 
  -7  -1   2    0.29    0.07 
  -6  -1   2    0.58    0.10 
  -5  -1   2    0.61    0.10 
  -4  -1   2   37.24    0.83 
  -3  -1   2    0.80    0.11 
  -2  -1   2  146.64    3.64 
  -1  -1   2  130.96    3.24 
   0  -1   2  239.34    5.67 
   1  -1   2    0.56    0.04 
   2  -1   2  162.57    5.70 
   3  -1   2   40.64    1.09 
   4  -1   2    8.84    0.32 
   5  -1   2    7.25    0.66 
   6  -1   2    0.88    0.14 
   7  -1   2    0.00    0.08 
   8  -1   2    0.10    0.08 
  -8   0   2    1.36    0.10 
  -7   0   2    2.76    0.14 
  -6   0   2   27.02    1.11 
  -5   0   2    0.48    0.11 
  -4   0   2   33.54    0.74 
  -3   0   2   30.44    1.17 
  -2   0   2   14.89    0.58 
  -1   0   2    7.91    0.21 
   0   0   2   10.26    0.37 
   1   0   2   62.58    1.57 
   2   0   2  397.22   13.74 
   3   0   2   46.63    1.04 
   4   0   2    7.28    0.27 
   5   0   2   13.03    0.82 
   6   0   2    0.51    0.11 
   7   0   2    0.62    0.13 
  -8   1   2    0.19    0.06 
  -7   1   2    0.55    0.08 
  -6   1   2   42.68    1.61 
  -5   1   2    7.92    0.32 
  -4   1   2    3.75    0.16 
  -3   1   2   48.48    1.78 
  -2   1   2    4.25    0.16 
  -1   1   2  131.14    3.19 
   0   1   2    0.11    0.07 
   1   1   2    2.16    0.10 
   2   1   2   17.72    0.68 
   3   1   2    6.62    0.24 
   4   1   2    0.25    0.13 
   5   1   2    2.13    0.28 
   6   1   2    2.33    0.21 
   7   1   2    0.73    0.12 
  -9   2   2    0.09    0.05 
  -8   2   2    0.06    0.05 
  -7   2   2    1.02    0.09 
  -6   2   2    6.12    0.42 
  -5   2   2    0.59    0.08 
  -4   2   2    2.73    0.12 
  -3   2   2    6.01    0.24 
  -2   2   2    4.08    0.16 
  -1   2   2    4.90    0.33 
   0   2   2   46.65    1.86 
   1   2   2    0.84    0.07 
   2   2   2    8.78    0.31 
   3   2   2   42.75    1.01 
   4   2   2    0.10    0.12 
   5   2   2    0.53    0.12 
   6   2   2    0.42    0.12 
   7   2   2    5.62    0.25 
  -9   3   2    0.17    0.05 
  -8   3   2    0.69    0.08 
  -7   3   2    2.42    0.13 
  -6   3   2    1.08    0.14 
  -5   3   2    1.76    0.13 
  -4   3   2   36.55    0.73 
  -3   3   2    0.19    0.06 
  -2   3   2    7.09    0.48 
  -1   3   2   14.58    0.76 
   0   3   2   31.51    0.86 
   1   3   2    0.61    0.05 
   2   3   2    0.94    0.08 
   3   3   2   -0.03    0.16 
   4   3   2    1.56    0.41 
   5   3   2    0.67    0.13 
   6   3   2    2.31    0.21 
  -9   4   2    0.54    0.08 
  -8   4   2    0.00    0.05 
  -7   4   2    0.63    0.08 
  -6   4   2   11.04    0.44 
  -5   4   2    0.64    0.11 
  -4   4   2    3.48    0.19 
  -3   4   2    1.82    0.13 
  -2   4   2   39.10    0.90 
  -1   4   2   41.98    1.18 
   0   4   2   41.77    0.84 
   1   4   2   15.33    0.47 
   2   4   2    0.10    0.08 
   3   4   2    3.38    0.56 
   4   4   2    1.82    0.18 
   5   4   2    1.49    0.21 
   6   4   2    2.19    0.21 
  -8   5   2    0.82    0.08 
  -7   5   2    0.03    0.06 
  -6   5   2    1.29    0.10 
  -5   5   2    7.78    0.50 
  -4   5   2    7.09    0.46 
  -3   5   2    2.60    0.17 
  -2   5   2    3.31    0.19 
  -1   5   2   12.01    0.36 
   0   5   2   12.66    0.48 
   1   5   2    3.29    0.26 
   2   5   2   34.29    1.69 
   3   5   2    1.01    0.17 
   4   5   2    0.73    0.17 
   5   5   2    0.44    0.13 
  -8   6   2    3.50    0.14 
  -7   6   2    0.01    0.05 
  -6   6   2    1.73    0.11 
  -5   6   2    0.03    0.06 
  -4   6   2    1.25    0.24 
  -3   6   2    0.07    0.08 
  -2   6   2    5.70    0.29 
  -1   6   2   17.26    0.80 
   0   6   2    3.64    0.33 
   1   6   2    1.73    0.15 
   2   6   2   27.86    0.66 
   3   6   2    5.95    0.39 
   4   6   2    0.87    0.13 
  -8   7   2    4.51    0.25 
  -7   7   2    6.48    0.20 
  -6   7   2    4.33    0.18 
  -5   7   2    0.01    0.06 
  -4   7   2    3.80    0.16 
  -3   7   2   18.38    0.48 
  -2   7   2    0.59    0.11 
  -1   7   2    0.24    0.09 
   0   7   2    0.51    0.09 
   1   7   2   -0.03    0.09 
   2   7   2   11.06    0.49 
   3   7   2    0.29    0.10 
  -7   8   2    0.13    0.05 
  -6   8   2    2.91    0.14 
  -5   8   2    0.50    0.07 
  -4   8   2    6.86    0.24 
  -3   8   2   20.21    0.46 
  -2   8   2    0.46    0.10 
  -1   8   2    0.10    0.08 
   0   8   2    0.23    0.09 
   1   8   2    4.16    0.29 
   2   8   2    0.03    0.08 
  -5   9   2    0.29    0.05 
  -4   9   2    9.91    0.27 
  -3   9   2    1.44    0.10 
  -2   9   2    2.05    0.13 
  -1   9   2    1.09    0.11 
   0   9   2    2.33    0.17 
  -1  -9   3    5.73    0.19 
   0  -9   3    0.64    0.09 
   1  -9   3    0.69    0.08 
   2  -9   3    7.71    0.27 
   3  -9   3    1.18    0.11 
   4  -9   3    7.42    0.23 
   5  -9   3    1.31    0.10 
  -3  -8   3    1.36    0.12 
  -2  -8   3    1.16    0.12 
  -1  -8   3    0.28    0.10 
   0  -8   3   56.73    1.19 
   1  -8   3    0.16    0.07 
   2  -8   3    0.01    0.07 
   3  -8   3    2.88    0.18 
   4  -8   3    3.10    0.18 
   5  -8   3    2.83    0.17 
   6  -8   3    0.00    0.07 
  -4  -7   3    3.52    0.18 
  -3  -7   3    1.87    0.15 
  -2  -7   3    8.29    0.27 
  -1  -7   3    2.28    0.16 
   0  -7   3    2.24    0.18 
   1  -7   3   28.90    0.87 
   2  -7   3    7.02    0.29 
   3  -7   3    1.05    0.11 
   4  -7   3    2.13    0.15 
   5  -7   3    4.16    0.21 
   6  -7   3    6.42    0.28 
   7  -7   3    5.52    0.21 
  -5  -6   3    1.82    0.13 
  -4  -6   3    1.14    0.12 
  -3  -6   3   12.55    0.35 
  -2  -6   3   18.53    0.48 
  -1  -6   3   12.27    0.70 
   0  -6   3    0.75    0.20 
   1  -6   3    0.37    0.12 
   2  -6   3    1.89    0.21 
   3  -6   3   32.75    1.02 
   4  -6   3    3.89    0.40 
   5  -6   3   10.88    0.39 
   6  -6   3    0.12    0.09 
   7  -6   3    3.03    0.18 
  -6  -5   3   -0.01    0.04 
  -5  -5   3   10.04    0.36 
  -4  -5   3    4.88    0.23 
  -3  -5   3    0.17    0.14 
  -2  -5   3   50.15    1.99 
  -1  -5   3    6.99    0.32 
   0  -5   3   72.84    1.56 
   1  -5   3   53.37    1.23 
   2  -5   3    0.48    0.09 
   3  -5   3   11.34    0.71 
   4  -5   3    3.83    0.47 
   5  -5   3   16.42    0.52 
   6  -5   3    2.13    0.16 
   7  -5   3    0.47    0.12 
  -7  -4   3    0.76    0.08 
  -6  -4   3    0.14    0.07 
  -5  -4   3    1.38    0.12 
  -4  -4   3   46.20    1.82 
  -3  -4   3   46.07    1.30 
  -2  -4   3   14.40    0.41 
  -1  -4   3    9.40    0.24 
   0  -4   3   15.54    0.51 
   1  -4   3  121.47    2.51 
   2  -4   3   20.12    0.53 
   3  -4   3    8.76    0.33 
   4  -4   3    2.19    0.24 
   5  -4   3    2.96    0.30 
   6  -4   3    6.13    0.26 
   7  -4   3    0.04    0.08 
   8  -4   3    2.35    0.22 
  -7  -3   3    2.98    0.16 
  -6  -3   3    3.55    0.17 
  -5  -3   3    0.37    0.16 
  -4  -3   3    8.84    0.54 
  -3  -3   3    6.89    0.26 
  -2  -3   3   85.52    1.55 
  -1  -3   3   22.89    0.64 
   0  -3   3    0.89    0.13 
   1  -3   3    2.41    0.22 
   2  -3   3    0.08    0.06 
   3  -3   3    2.86    0.13 
   4  -3   3   37.08    0.88 
   5  -3   3    1.92    0.23 
   6  -3   3    0.10    0.11 
   7  -3   3    0.98    0.14 
   8  -3   3    3.69    0.22 
  -8  -2   3    4.71    0.17 
  -7  -2   3    1.36    0.12 
  -6  -2   3    9.71    0.26 
  -5  -2   3    5.28    0.29 
  -4  -2   3   17.67    0.46 
  -3  -2   3    0.52    0.08 
  -2  -2   3    3.25    0.15 
  -1  -2   3  454.43   11.07 
   0  -2   3   85.09    2.92 
   1  -2   3   80.66    2.00 
   2  -2   3   72.94    1.81 
   3  -2   3    1.05    0.08 
   4  -2   3   21.49    0.56 
   5  -2   3    2.38    0.39 
   6  -2   3    2.30    0.21 
   7  -2   3    8.89    0.33 
   8  -2   3    2.28    0.22 
  -8  -1   3    0.21    0.06 
  -7  -1   3    1.61    0.11 
  -6  -1   3   21.86    0.69 
  -5  -1   3   12.26    0.44 
  -4  -1   3   57.12    1.24 
  -3  -1   3  117.14    2.92 
  -2  -1   3    1.82    0.09 
  -1  -1   3    0.67    0.06 
   0  -1   3  397.14    9.48 
   1  -1   3   37.82    1.31 
   2  -1   3    2.38    0.15 
   3  -1   3    5.15    0.22 
   4  -1   3   16.24    0.65 
   5  -1   3   12.97    0.96 
   6  -1   3    7.34    0.33 
   7  -1   3    0.62    0.13 
  -8   0   3   22.24    0.44 
  -7   0   3    9.09    0.24 
  -6   0   3   43.52    1.67 
  -5   0   3   15.23    0.51 
  -4   0   3    0.05    0.05 
  -3   0   3  151.87    5.29 
  -2   0   3   71.80    2.52 
  -1   0   3  147.28    5.12 
   0   0   3   58.80    1.43 
   1   0   3    2.58    0.13 
   2   0   3    0.01    0.03 
   3   0   3   34.98    0.97 
   4   0   3    3.79    0.35 
   5   0   3    8.55    0.58 
   6   0   3    0.11    0.09 
   7   0   3    0.11    0.08 
  -9   1   3    0.99    0.11 
  -8   1   3    5.45    0.21 
  -7   1   3    2.67    0.15 
  -6   1   3   14.52    0.68 
  -5   1   3   66.18    1.81 
  -4   1   3    9.74    0.28 
  -3   1   3   28.86    1.12 
  -2   1   3  138.34    3.41 
  -1   1   3   22.28    0.61 
   0   1   3   18.88    0.52 
   1   1   3   23.16    0.84 
   2   1   3    1.10    0.10 
   3   1   3    3.51    0.19 
   4   1   3    2.63    0.30 
   5   1   3   11.84    0.41 
   6   1   3    3.49    0.28 
   7   1   3    1.55    0.13 
  -9   2   3    4.06    0.15 
  -8   2   3    1.75    0.13 
  -7   2   3    0.00    0.06 
  -6   2   3    0.53    0.16 
  -5   2   3    3.96    0.19 
  -4   2   3    1.14    0.08 
  -3   2   3    1.09    0.10 
  -2   2   3    1.12    0.10 
  -1   2   3   40.93    1.63 
   0   2   3  240.60    6.02 
   1   2   3   21.62    0.62 
   2   2   3   15.90    0.52 
   3   2   3    1.48    0.37 
   4   2   3    2.02    0.44 
   5   2   3    4.32    0.30 
   6   2   3    0.02    0.09 
  -9   3   3    4.11    0.15 
  -8   3   3    0.72    0.08 
  -7   3   3    3.24    0.17 
  -6   3   3    5.97    0.31 
  -5   3   3    8.79    0.34 
  -4   3   3   32.61    0.77 
  -3   3   3   28.07    0.84 
  -2   3   3    2.20    0.32 
  -1   3   3   13.23    0.45 
   0   3   3   17.26    0.43 
   1   3   3    4.14    0.20 
   2   3   3   12.00    0.34 
   3   3   3    7.14    0.77 
   4   3   3    3.02    0.29 
   5   3   3    0.65    0.16 
   6   3   3    2.67    0.25 
  -9   4   3    4.13    0.23 
  -8   4   3    0.60    0.07 
  -7   4   3    0.02    0.05 
  -6   4   3    0.86    0.13 
  -5   4   3    0.31    0.09 
  -4   4   3    0.60    0.13 
  -3   4   3    0.29    0.07 
  -2   4   3   58.70    1.30 
  -1   4   3    1.48    0.15 
   0   4   3   31.25    0.65 
   1   4   3    8.14    0.36 
   2   4   3    5.96    0.36 
   3   4   3   15.52    0.62 
   4   4   3    1.68    0.18 
   5   4   3    7.27    0.30 
  -8   5   3    0.27    0.06 
  -7   5   3    8.05    0.24 
  -6   5   3    3.48    0.20 
  -5   5   3    0.12    0.15 
  -4   5   3    0.25    0.14 
  -3   5   3    0.07    0.07 
  -2   5   3    2.38    0.18 
  -1   5   3    3.50    0.31 
   0   5   3    9.32    0.51 
   1   5   3   13.17    0.53 
   2   5   3    5.30    0.29 
   3   5   3    0.09    0.12 
   4   5   3    0.08    0.10 
   5   5   3    0.29    0.24 
  -8   6   3    1.24    0.09 
  -7   6   3    0.72    0.10 
  -6   6   3    8.48    0.25 
  -5   6   3    0.91    0.11 
  -4   6   3   88.77    3.34 
  -3   6   3    0.86    0.13 
  -2   6   3    0.23    0.09 
  -1   6   3   11.47    0.62 
   0   6   3    7.77    0.45 
   1   6   3   12.00    0.43 
   2   6   3    0.07    0.12 
   3   6   3   14.28    0.57 
   4   6   3    0.53    0.13 
  -7   7   3    0.26    0.05 
  -6   7   3    7.01    0.22 
  -5   7   3    0.12    0.07 
  -4   7   3   35.06    0.75 
  -3   7   3   18.56    0.43 
  -2   7   3    0.13    0.09 
  -1   7   3    5.72    0.31 
   0   7   3    0.31    0.09 
   1   7   3    5.44    0.29 
   2   7   3   -0.01    0.08 
   3   7   3    1.69    0.33 
  -7   8   3    0.07    0.06 
  -6   8   3    0.29    0.06 
  -5   8   3    1.97    0.12 
  -4   8   3    5.05    0.22 
  -3   8   3    0.60    0.09 
  -2   8   3    0.80    0.10 
  -1   8   3   13.84    0.37 
   0   8   3    0.06    0.07 
   1   8   3    1.34    0.13 
  -5   9   3    4.11    0.15 
  -4   9   3   -0.03    0.05 
  -3   9   3    0.18    0.05 
  -2   9   3    0.17    0.06 
  -1   9   3    0.29    0.07 
  -1  -9   4    0.10    0.06 
   0  -9   4    0.47    0.08 
   1  -9   4    0.27    0.07 
   2  -9   4    0.26    0.08 
   3  -9   4   13.13    0.31 
   4  -9   4    2.12    0.12 
   5  -9   4    0.83    0.23 
  -3  -8   4    2.09    0.12 
  -2  -8   4    0.20    0.08 
  -1  -8   4    0.42    0.10 
   0  -8   4    1.56    0.14 
   1  -8   4    6.77    0.25 
   2  -8   4    0.46    0.11 
   3  -8   4    2.39    0.19 
   4  -8   4    0.26    0.08 
   5  -8   4    0.06    0.06 
   6  -8   4    4.67    0.24 
  -4  -7   4    3.69    0.19 
  -3  -7   4    0.48    0.11 
  -2  -7   4    3.40    0.18 
  -1  -7   4    0.11    0.08 
   0  -7   4    7.37    0.35 
   1  -7   4    0.80    0.14 
   2  -7   4    1.34    0.14 
   3  -7   4    3.93    0.24 
   4  -7   4    0.85    0.12 
   5  -7   4    0.75    0.14 
   6  -7   4   11.09    0.31 
  -5  -6   4    0.23    0.07 
  -4  -6   4    5.28    0.26 
  -3  -6   4    2.69    0.20 
  -2  -6   4   34.49    0.85 
  -1  -6   4   14.23    0.79 
   0  -6   4    0.99    0.24 
   1  -6   4    8.65    0.47 
   2  -6   4    1.39    0.19 
   3  -6   4    0.13    0.18 
   4  -6   4    0.11    0.13 
   5  -6   4    0.06    0.09 
   6  -6   4    8.03    0.33 
   7  -6   4    0.14    0.07 
  -6  -5   4    1.53    0.12 
  -5  -5   4    0.67    0.11 
  -4  -5   4    3.41    0.21 
  -3  -5   4    0.17    0.11 
  -2  -5   4    0.04    0.09 
  -1  -5   4    2.60    0.34 
   0  -5   4   11.72    0.63 
   1  -5   4    0.10    0.08 
   2  -5   4    0.51    0.10 
   3  -5   4    1.60    0.22 
   4  -5   4    0.26    0.20 
   5  -5   4    0.22    0.11 
   6  -5   4    4.12    0.25 
   7  -5   4    0.21    0.09 
  -7  -4   4    4.92    0.19 
  -6  -4   4    6.12    0.26 
  -5  -4   4    0.20    0.08 
  -4  -4   4   63.64    2.45 
  -3  -4   4   14.61    0.55 
  -2  -4   4    1.21    0.11 
  -1  -4   4    8.14    0.27 
   0  -4   4   62.69    1.70 
   1  -4   4    5.91    0.25 
   2  -4   4    2.10    0.19 
   3  -4   4   11.76    0.50 
   4  -4   4   12.67    0.59 
   5  -4   4    1.26    0.16 
   6  -4   4    3.50    0.24 
   7  -4   4    0.84    0.13 
  -7  -3   4    2.13    0.13 
  -6  -3   4    9.22    0.28 
  -5  -3   4    0.38    0.14 
  -4  -3   4    0.00    0.08 
  -3  -3   4    0.19    0.08 
  -2  -3   4   13.18    0.35 
  -1  -3   4  126.78    2.56 
   0  -3   4  119.80    4.24 
   1  -3   4    7.75    0.43 
   2  -3   4    1.34    0.14 
   3  -3   4   21.66    0.59 
   4  -3   4    1.90    0.23 
   5  -3   4   -0.07    0.15 
   6  -3   4    3.05    0.23 
   7  -3   4    2.79    0.22 
  -8  -2   4    1.61    0.10 
  -7  -2   4    0.92    0.11 
  -6  -2   4   72.50    1.43 
  -5  -2   4   24.04    1.11 
  -4  -2   4   29.28    0.86 
  -3  -2   4    3.40    0.21 
  -2  -2   4   27.94    0.82 
  -1  -2   4    0.09    0.06 
   0  -2   4    4.41    0.25 
   1  -2   4   23.09    0.62 
   2  -2   4   49.94    1.06 
   3  -2   4   21.74    0.48 
   4  -2   4   -0.05    0.13 
   5  -2   4    0.14    0.19 
   6  -2   4    1.26    0.16 
   7  -2   4    4.13    0.22 
  -8  -1   4    9.11    0.26 
  -7  -1   4    0.18    0.07 
  -6  -1   4   85.73    2.20 
  -5  -1   4    0.55    0.11 
  -4  -1   4    4.01    0.19 
  -3  -1   4  139.97    4.81 
  -2  -1   4    0.11    0.05 
  -1  -1   4   12.65    0.51 
   0  -1   4   43.52    1.06 
   1  -1   4  139.91    4.76 
   2  -1   4    8.35    0.29 
   3  -1   4    9.75    0.29 
   4  -1   4   18.00    0.72 
   5  -1   4    0.12    0.15 
   6  -1   4    2.10    0.21 
   7  -1   4    2.10    0.17 
  -8   0   4    5.31    0.18 
  -7   0   4    8.15    0.25 
  -6   0   4    7.75    0.35 
  -5   0   4   24.39    0.73 
  -4   0   4   14.55    0.45 
  -3   0   4    7.27    0.37 
  -2   0   4   11.53    0.47 
  -1   0   4   14.15    0.56 
   0   0   4   16.02    0.44 
   1   0   4    5.70    0.25 
   2   0   4    0.33    0.06 
   3   0   4    0.11    0.06 
   4   0   4    7.03    0.50 
   5   0   4    9.24    0.46 
   6   0   4    0.18    0.12 
   7   0   4    0.15    0.07 
  -9   1   4    0.37    0.07 
  -8   1   4    4.49    0.18 
  -7   1   4    0.19    0.09 
  -6   1   4    9.60    0.39 
  -5   1   4   42.44    1.19 
  -4   1   4   47.40    1.02 
  -3   1   4   43.64    1.15 
  -2   1   4    5.75    0.22 
  -1   1   4   95.62    2.42 
   0   1   4   70.83    1.81 
   1   1   4    4.74    0.22 
   2   1   4   21.48    0.57 
   3   1   4    1.44    0.22 
   4   1   4    2.82    0.32 
   5   1   4    1.15    0.15 
   6   1   4    0.67    0.13 
  -9   2   4    4.73    0.17 
  -8   2   4    0.68    0.09 
  -7   2   4    1.71    0.15 
  -6   2   4    3.87    0.36 
  -5   2   4    0.14    0.09 
  -4   2   4    3.59    0.15 
  -3   2   4   13.72    0.47 
  -2   2   4   12.95    0.70 
  -1   2   4   53.89    2.14 
   0   2   4    2.69    0.15 
   1   2   4    2.54    0.16 
   2   2   4    3.00    0.20 
   3   2   4   31.56    1.61 
   4   2   4    0.41    0.19 
   5   2   4    3.29    0.30 
   6   2   4    0.91    0.13 
  -9   3   4    0.64    0.07 
  -8   3   4    3.09    0.15 
  -7   3   4   17.27    0.43 
  -6   3   4    0.12    0.13 
  -5   3   4    0.02    0.07 
  -4   3   4    5.54    0.34 
  -3   3   4    9.02    0.37 
  -2   3   4    4.21    0.24 
  -1   3   4   51.80    1.45 
   0   3   4    3.43    0.17 
   1   3   4    0.68    0.09 
   2   3   4   19.41    0.68 
   3   3   4    8.07    0.87 
   4   3   4    2.86    0.27 
   5   3   4    0.05    0.09 
  -9   4   4    1.57    0.10 
  -8   4   4    1.10    0.10 
  -7   4   4    0.93    0.11 
  -6   4   4    4.17    0.23 
  -5   4   4    0.70    0.12 
  -4   4   4    0.07    0.10 
  -3   4   4    0.06    0.08 
  -2   4   4    4.56    0.29 
  -1   4   4    0.14    0.04 
   0   4   4    0.10    0.10 
   1   4   4   21.56    0.74 
   2   4   4   95.02    3.82 
   3   4   4    2.19    0.27 
   4   4   4    2.07    0.24 
   5   4   4    1.30    0.16 
  -8   5   4    0.86    0.07 
  -7   5   4    4.54    0.22 
  -6   5   4    3.80    0.24 
  -5   5   4    9.44    0.38 
  -4   5   4   -0.05    0.11 
  -3   5   4   26.57    0.80 
  -2   5   4   10.37    0.40 
  -1   5   4   10.73    0.57 
   0   5   4    7.18    0.51 
   1   5   4    4.95    0.32 
   2   5   4   13.91    0.47 
   3   5   4    4.41    0.37 
   4   5   4    0.66    0.13 
  -8   6   4    0.05    0.04 
  -7   6   4    0.50    0.07 
  -6   6   4    0.21    0.08 
  -5   6   4    1.54    0.15 
  -4   6   4    0.76    0.15 
  -3   6   4    3.21    0.23 
  -2   6   4   12.08    0.46 
  -1   6   4    0.05    0.11 
   0   6   4    5.12    0.34 
   1   6   4    5.22    0.29 
   2   6   4    0.12    0.12 
   3   6   4    0.53    0.10 
  -7   7   4    1.73    0.11 
  -6   7   4    2.92    0.16 
  -5   7   4    1.36    0.14 
  -4   7   4   10.32    0.32 
  -3   7   4    3.88    0.21 
  -2   7   4    0.02    0.08 
  -1   7   4    3.74    0.23 
   0   7   4    1.72    0.20 
   1   7   4    0.59    0.10 
   2   7   4    3.26    0.23 
  -6   8   4    0.46    0.05 
  -5   8   4    1.37    0.10 
  -4   8   4    0.16    0.07 
  -3   8   4    0.70    0.10 
  -2   8   4    5.55    0.20 
  -1   8   4    6.18    0.24 
   0   8   4    0.13    0.07 
  -4   9   4    0.08    0.04 
  -3   9   4    0.06    0.05 
  -2   9   4    2.26    0.17 
  -1  -9   5    2.00    0.12 
   0  -9   5   -0.04    0.05 
   1  -9   5    7.18    0.22 
   2  -9   5   -0.03    0.06 
   3  -9   5    0.25    0.07 
   4  -9   5    1.14    0.10 
  -3  -8   5    1.30    0.12 
  -2  -8   5    4.55    0.24 
  -1  -8   5    2.18    0.15 
   0  -8   5    0.32    0.10 
   1  -8   5    1.95    0.17 
   2  -8   5    1.82    0.17 
   3  -8   5    3.87    0.20 
   4  -8   5    0.03    0.07 
   5  -8   5    0.21    0.07 
  -4  -7   5   -0.03    0.06 
  -3  -7   5    0.05    0.07 
  -2  -7   5   13.40    0.46 
  -1  -7   5    0.15    0.11 
   0  -7   5    2.97    0.25 
   1  -7   5    0.75    0.13 
   2  -7   5    0.71    0.12 
   3  -7   5    0.06    0.11 
   4  -7   5    0.06    0.10 
   5  -7   5    3.88    0.21 
   6  -7   5    4.65    0.21 
  -5  -6   5    3.23    0.19 
  -4  -6   5    0.13    0.09 
  -3  -6   5    5.68    0.26 
  -2  -6   5   13.79    0.54 
  -1  -6   5    6.57    0.58 
   0  -6   5    1.26    0.19 
   1  -6   5   18.17    0.69 
   2  -6   5    3.96    0.51 
   3  -6   5    0.25    0.13 
   4  -6   5    4.03    0.30 
   5  -6   5    1.15    0.19 
   6  -6   5    2.97    0.21 
  -6  -5   5    0.91    0.10 
  -5  -5   5    0.15    0.08 
  -4  -5   5    0.39    0.13 
  -3  -5   5    4.97    0.34 
  -2  -5   5   -0.05    0.13 
  -1  -5   5    2.72    0.35 
   0  -5   5   23.12    1.07 
   1  -5   5   18.09    0.66 
   2  -5   5    1.66    0.31 
   3  -5   5    0.09    0.12 
   4  -5   5    0.22    0.12 
   5  -5   5    2.55    0.21 
   6  -5   5    0.95    0.14 
   7  -5   5    0.06    0.07 
  -7  -4   5    2.15    0.14 
  -6  -4   5    5.71    0.32 
  -5  -4   5    0.00    0.10 
  -4  -4   5   12.44    0.54 
  -3  -4   5    3.77    0.29 
  -2  -4   5   16.93    0.59 
  -1  -4   5   62.23    1.38 
   0  -4   5   98.18    2.55 
   1  -4   5    2.84    0.20 
   2  -4   5    3.47    0.42 
   3  -4   5    5.54    0.39 
   4  -4   5    3.82    0.35 
   5  -4   5    5.67    0.37 
   6  -4   5    6.02    0.36 
   7  -4   5   -0.05    0.07 
  -7  -3   5    4.05    0.22 
  -6  -3   5    3.54    0.21 
  -5  -3   5   10.22    0.39 
  -4  -3   5    1.59    0.29 
  -3  -3   5    2.30    0.30 
  -2  -3   5   60.09    1.57 
  -1  -3   5   45.73    1.22 
   0  -3   5   78.08    2.00 
   1  -3   5    1.44    0.20 
   2  -3   5   33.37    0.97 
   3  -3   5    7.14    0.43 
   4  -3   5    0.34    0.20 
   5  -3   5    9.13    0.51 
   6  -3   5   10.26    0.55 
   7  -3   5    5.04    0.24 
  -8  -2   5    0.58    0.06 
  -7  -2   5    3.60    0.21 
  -6  -2   5   27.00    0.73 
  -5  -2   5   -0.01    0.15 
  -4  -2   5   38.50    1.53 
  -3  -2   5    0.77    0.11 
  -2  -2   5    0.15    0.05 
  -1  -2   5    7.31    0.38 
   0  -2   5    8.32    0.41 
   1  -2   5   22.89    0.92 
   2  -2   5   12.01    0.44 
   3  -2   5   94.52    2.38 
   4  -2   5    0.26    0.21 
   5  -2   5    4.66    0.38 
   6  -2   5    6.49    0.39 
   7  -2   5    0.51    0.09 
  -8  -1   5    5.10    0.23 
  -7  -1   5   12.67    0.44 
  -6  -1   5   -0.02    0.08 
  -5  -1   5    0.17    0.09 
  -4  -1   5    1.34    0.11 
  -3  -1   5   90.72    3.17 
  -2  -1   5    4.35    0.28 
  -1  -1   5   30.86    1.17 
   0  -1   5    0.48    0.05 
   1  -1   5    5.78    0.21 
   2  -1   5   26.73    0.64 
   3  -1   5    3.84    0.45 
   4  -1   5    4.96    0.44 
   5  -1   5   19.80    0.62 
   6  -1   5   23.90    0.66 
   7  -1   5    1.83    0.15 
  -8   0   5    2.83    0.17 
  -7   0   5    0.58    0.10 
  -6   0   5    1.90    0.18 
  -5   0   5    4.82    0.28 
  -4   0   5   10.51    0.36 
  -3   0   5   41.34    1.50 
  -2   0   5    0.57    0.09 
  -1   0   5    2.53    0.15 
   0   0   5   82.61    2.93 
   1   0   5   49.00    1.70 
   2   0   5    0.29    0.07 
   3   0   5   12.99    0.60 
   4   0   5    0.61    0.20 
   5   0   5    0.14    0.11 
   6   0   5    1.31    0.16 
  -9   1   5    9.01    0.47 
  -8   1   5    3.04    0.16 
  -7   1   5    7.27    0.29 
  -6   1   5    1.44    0.18 
  -5   1   5    2.47    0.26 
  -4   1   5   12.89    0.37 
  -3   1   5    0.24    0.06 
  -2   1   5    6.27    0.43 
  -1   1   5   13.57    0.71 
   0   1   5    0.09    0.04 
   1   1   5    4.89    0.25 
   2   1   5   34.20    1.06 
   3   1   5   19.99    1.20 
   4   1   5   25.32    1.05 
   5   1   5    1.70    0.26 
   6   1   5    0.51    0.11 
  -9   2   5    3.19    0.13 
  -8   2   5    0.02    0.07 
  -7   2   5    1.40    0.14 
  -6   2   5    2.08    0.27 
  -5   2   5    3.19    0.30 
  -4   2   5    2.25    0.20 
  -3   2   5    3.48    0.23 
  -2   2   5   24.44    1.16 
  -1   2   5   -0.04    0.08 
   0   2   5   11.87    0.40 
   1   2   5    3.19    0.20 
   2   2   5   26.91    1.44 
   3   2   5    0.90    0.34 
   4   2   5    0.35    0.16 
   5   2   5    0.37    0.15 
   6   2   5    0.11    0.09 
  -9   3   5    0.02    0.05 
  -8   3   5    0.06    0.07 
  -7   3   5    0.09    0.09 
  -6   3   5    2.98    0.32 
  -5   3   5    1.33    0.15 
  -4   3   5    3.54    0.33 
  -3   3   5   29.16    0.91 
  -2   3   5    5.44    0.28 
  -1   3   5    0.01    0.03 
   0   3   5    2.70    0.20 
   1   3   5   45.77    2.08 
   2   3   5   26.25    0.88 
   3   3   5    0.12    0.10 
   4   3   5    1.00    0.33 
   5   3   5    0.96    0.13 
  -8   4   5    0.50    0.08 
  -7   4   5    0.63    0.10 
  -6   4   5    1.96    0.16 
  -5   4   5    0.05    0.09 
  -4   4   5   43.47    1.73 
  -3   4   5    3.48    0.34 
  -2   4   5    0.05    0.08 
  -1   4   5    1.84    0.23 
   0   4   5    0.43    0.14 
   1   4   5    7.06    0.42 
   2   4   5    2.95    0.25 
   3   4   5    0.07    0.26 
   4   4   5    3.66    0.31 
  -8   5   5    0.08    0.05 
  -7   5   5    0.25    0.10 
  -6   5   5   14.02    0.43 
  -5   5   5    2.69    0.18 
  -4   5   5   38.43    1.60 
  -3   5   5    3.25    0.36 
  -2   5   5    6.06    0.32 
  -1   5   5   17.69    0.83 
   0   5   5    7.39    0.54 
   1   5   5    0.72    0.17 
   2   5   5    0.28    0.21 
   3   5   5   -0.01    0.11 
   4   5   5    0.03    0.12 
  -8   6   5    1.70    0.09 
  -7   6   5    0.79    0.09 
  -6   6   5    3.15    0.21 
  -5   6   5   -0.09    0.09 
  -4   6   5   14.00    0.73 
  -3   6   5   20.79    0.67 
  -2   6   5    3.91    0.26 
  -1   6   5    8.63    0.38 
   0   6   5    0.38    0.14 
   1   6   5    5.49    0.50 
   2   6   5    4.01    0.31 
   3   6   5    0.68    0.15 
  -7   7   5    0.12    0.05 
  -6   7   5    0.30    0.07 
  -5   7   5    0.05    0.08 
  -4   7   5    0.22    0.12 
  -3   7   5   -0.03    0.14 
  -2   7   5    2.02    0.28 
  -1   7   5    4.27    0.39 
   0   7   5    0.05    0.12 
   1   7   5    0.28    0.08 
  -6   8   5    0.43    0.06 
  -5   8   5    0.49    0.06 
  -4   8   5    0.11    0.07 
  -3   8   5    0.33    0.08 
  -2   8   5    0.10    0.06 
  -1   8   5    0.79    0.09 
   0   8   5    0.24    0.10 
  -1  -9   6    0.71    0.12 
   0  -9   6    7.15    0.21 
   1  -9   6    0.27    0.07 
   2  -9   6    0.46    0.08 
   3  -9   6    0.13    0.06 
  -3  -8   6    0.24    0.08 
  -2  -8   6    1.92    0.15 
  -1  -8   6    2.31    0.15 
   0  -8   6    1.82    0.16 
   1  -8   6    5.72    0.32 
   2  -8   6    0.38    0.12 
   3  -8   6   -0.01    0.08 
   4  -8   6    0.84    0.11 
   5  -8   6    1.16    0.14 
  -4  -7   6    0.00    0.06 
  -3  -7   6    5.98    0.29 
  -2  -7   6    0.38    0.14 
  -1  -7   6    0.14    0.11 
   0  -7   6    5.24    0.28 
   1  -7   6    2.13    0.18 
   2  -7   6    0.10    0.12 
   3  -7   6    0.23    0.14 
   4  -7   6    2.09    0.21 
   5  -7   6    1.08    0.12 
  -5  -6   6   -0.02    0.06 
  -4  -6   6    2.70    0.24 
  -3  -6   6    4.53    0.27 
  -2  -6   6    1.36    0.24 
  -1  -6   6    4.72    0.36 
   0  -6   6   60.88    1.73 
   1  -6   6    3.78    0.32 
   2  -6   6    0.98    0.28 
   3  -6   6    0.27    0.16 
   4  -6   6   -0.05    0.12 
   5  -6   6    4.74    0.27 
   6  -6   6    1.58    0.14 
  -6  -5   6    0.70    0.10 
  -5  -5   6    8.68    0.42 
  -4  -5   6    0.63    0.12 
  -3  -5   6   -0.01    0.09 
  -2  -5   6   -0.02    0.14 
  -1  -5   6    7.06    0.60 
   0  -5   6   22.87    1.12 
   1  -5   6    0.74    0.26 
   2  -5   6    4.63    0.51 
   3  -5   6    1.30    0.23 
   4  -5   6    4.36    0.30 
   5  -5   6    0.03    0.12 
   6  -5   6    1.07    0.15 
  -7  -4   6    0.38    0.07 
  -6  -4   6    4.12    0.24 
  -5  -4   6   18.08    0.78 
  -4  -4   6    9.90    0.69 
  -3  -4   6    4.23    0.31 
  -2  -4   6   18.14    0.95 
  -1  -4   6    0.31    0.15 
   0  -4   6    7.94    0.59 
   1  -4   6    5.50    0.56 
   2  -4   6    5.77    0.56 
   3  -4   6    6.96    0.45 
   4  -4   6    0.48    0.17 
   5  -4   6   12.70    0.59 
   6  -4   6    0.23    0.11 
  -7  -3   6    4.06    0.20 
  -6  -3   6   19.02    0.61 
  -5  -3   6    0.78    0.17 
  -4  -3   6    5.28    0.50 
  -3  -3   6    1.83    0.27 
  -2  -3   6    0.23    0.10 
  -1  -3   6    0.10    0.06 
   0  -3   6    4.08    0.36 
   1  -3   6    1.28    0.16 
   2  -3   6    1.77    0.30 
   3  -3   6    0.13    0.16 
   4  -3   6    1.04    0.29 
   5  -3   6   14.06    0.68 
   6  -3   6    0.79    0.15 
  -8  -2   6    0.39    0.07 
  -7  -2   6    5.30    0.27 
  -6  -2   6    7.49    0.43 
  -5  -2   6   10.78    0.68 
  -4  -2   6   91.29    3.37 
  -3  -2   6    0.09    0.06 
  -2  -2   6    7.05    0.28 
  -1  -2   6   41.02    1.10 
   0  -2   6   77.88    2.82 
   1  -2   6    0.16    0.07 
   3  -2   6   19.24    1.05 
   4  -2   6    2.26    0.40 
   5  -2   6    0.10    0.15 
   6  -2   6    1.56    0.22 
  -8  -1   6    0.42    0.07 
  -7  -1   6    2.36    0.23 
  -6  -1   6    3.74    0.42 
  -5  -1   6    0.55    0.21 
  -3  -1   6   31.94    1.25 
  -2  -1   6   15.69    0.63 
  -1  -1   6   13.47    0.41 
   0  -1   6    3.75    0.30 
   1  -1   6   17.30    0.52 
   2  -1   6    1.57    0.14 
   3  -1   6   16.80    0.97 
   4  -1   6    0.06    0.13 
   5  -1   6    2.79    0.54 
   6  -1   6   13.49    0.43 
  -8   0   6    0.99    0.11 
  -7   0   6   -0.03    0.07 
  -6   0   6    8.87    0.40 
  -5   0   6    2.88    0.29 
  -4   0   6   16.05    0.52 
  -3   0   6    3.04    0.26 
  -2   0   6    1.99    0.15 
  -1   0   6   10.89    0.30 
   0   0   6    0.94    0.10 
   1   0   6   20.67    0.84 
   2   0   6   12.37    0.76 
   3   0   6    0.69    0.18 
   4   0   6    5.79    0.46 
   5   0   6    0.97    0.23 
   6   0   6    0.93    0.14 
  -8   1   6    0.01    0.07 
  -7   1   6    0.72    0.11 
  -6   1   6    3.75    0.27 
  -5   1   6    2.79    0.29 
  -4   1   6    0.03    0.08 
  -3   1   6   15.36    0.88 
  -2   1   6    5.98    0.47 
  -1   1   6   40.25    1.12 
   0   1   6    0.58    0.09 
   1   1   6   23.59    0.97 
   2   1   6    0.17    0.19 
   3   1   6   28.47    1.54 
   4   1   6   44.94    1.57 
   5   1   6    5.31    0.36 
   6   1   6   -0.01    0.15 
  -9   2   6    0.31    0.12 
  -8   2   6    4.98    0.24 
  -7   2   6    0.25    0.12 
  -6   2   6    0.18    0.13 
  -5   2   6    2.02    0.24 
  -3   2   6    0.75    0.23 
  -2   2   6    0.42    0.18 
  -1   2   6   16.12    0.65 
   0   2   6    5.10    0.28 
   1   2   6    1.02    0.31 
   2   2   6  109.53    4.41 
   3   2   6    3.97    0.62 
   4   2   6    0.10    0.16 
   5   2   6    0.05    0.09 
  -8   3   6    0.17    0.08 
  -7   3   6    8.71    0.40 
  -6   3   6    0.52    0.17 
  -5   3   6    0.57    0.12 
  -4   3   6    0.69    0.18 
  -3   3   6   34.46    1.38 
  -2   3   6    3.35    0.29 
  -1   3   6   10.51    0.52 
   1   3   6   17.92    1.14 
   2   3   6    5.48    0.36 
   3   3   6    9.46    0.49 
   4   3   6    0.10    0.16 
  -8   4   6    0.19    0.06 
  -7   4   6    7.13    0.49 
  -6   4   6    2.01    0.26 
  -5   4   6    2.65    0.21 
  -4   4   6    5.75    0.48 
  -3   4   6    0.01    0.12 
  -2   4   6   10.58    0.55 
  -1   4   6   25.20    1.10 
   0   4   6    7.67    0.53 
   1   4   6    5.02    0.41 
   2   4   6    0.55    0.14 
   3   4   6    0.28    0.24 
   4   4   6   16.65    0.54 
  -8   5   6    0.05    0.05 
  -7   5   6    1.60    0.18 
  -6   5   6    0.53    0.11 
  -5   5   6    9.32    0.39 
  -4   5   6   32.56    1.40 
  -3   5   6   14.18    0.72 
  -2   5   6    0.19    0.09 
  -1   5   6    5.45    0.44 
   0   5   6   19.87    0.91 
   1   5   6    0.07    0.12 
   2   5   6    7.15    0.74 
   3   5   6    0.66    0.11 
  -7   6   6    0.08    0.06 
  -6   6   6    0.05    0.10 
  -5   6   6    0.65    0.19 
  -4   6   6    3.48    0.37 
  -3   6   6    6.85    0.53 
  -2   6   6   14.20    0.51 
  -1   6   6    2.47    0.29 
   0   6   6    0.97    0.34 
   1   6   6    1.88    0.21 
   2   6   6    0.24    0.08 
  -7   7   6    3.99    0.17 
  -6   7   6    0.23    0.06 
  -5   7   6    9.56    0.31 
  -4   7   6    0.26    0.11 
  -3   7   6    0.18    0.17 
  -2   7   6    0.63    0.30 
  -1   7   6    4.06    0.34 
   0   7   6    1.58    0.17 
   1   7   6    0.25    0.14 
  -5   8   6    3.85    0.15 
  -4   8   6    0.45    0.06 
  -3   8   6    1.34    0.10 
  -2   8   6    0.84    0.07 
   0  -9   7    1.12    0.18 
   1  -9   7    1.09    0.10 
   2  -9   7    1.20    0.13 
  -2  -8   7    1.61    0.10 
  -1  -8   7    1.07    0.11 
   0  -8   7   10.35    0.38 
   1  -8   7    2.60    0.21 
   2  -8   7    0.00    0.08 
   3  -8   7    0.19    0.08 
   4  -8   7    0.05    0.07 
  -4  -7   7   -0.03    0.06 
  -3  -7   7    0.02    0.08 
  -2  -7   7    0.08    0.12 
  -1  -7   7    6.51    0.66 
   0  -7   7   15.39    0.98 
   1  -7   7    3.19    0.50 
   2  -7   7    0.93    0.24 
   3  -7   7   -0.02    0.14 
   4  -7   7    0.27    0.12 
   5  -7   7    1.27    0.14 
  -5  -6   7    0.10    0.06 
  -4  -6   7    0.22    0.12 
  -3  -6   7    1.61    0.43 
  -2  -6   7    0.09    0.17 
  -1  -6   7    6.31    0.42 
   0  -6   7    4.48    0.35 
   1  -6   7    0.12    0.19 
   2  -6   7    4.43    0.51 
   3  -6   7   18.02    0.61 
   4  -6   7    0.17    0.14 
   5  -6   7    0.21    0.11 
  -6  -5   7    4.35    0.20 
  -5  -5   7    0.66    0.15 
  -4  -5   7    0.08    0.14 
  -3  -5   7    3.54    0.44 
  -2  -5   7   16.93    0.92 
  -1  -5   7    5.79    0.56 
   0  -5   7    9.53    0.52 
   1  -5   7    0.15    0.21 
   2  -5   7   -0.02    0.18 
   3  -5   7    0.03    0.13 
   4  -5   7    0.33    0.23 
   5  -5   7    1.21    0.23 
   6  -5   7    0.94    0.13 
  -6  -4   7    4.53    0.27 
  -5  -4   7   -0.02    0.25 
  -4  -4   7    0.46    0.15 
  -3  -4   7    0.02    0.15 
  -2  -4   7   11.69    0.82 
  -1  -4   7    0.41    0.17 
   1  -4   7   29.60    1.43 
   2  -4   7   23.16    1.23 
   3  -4   7    3.07    0.31 
   4  -4   7    0.00    0.17 
   5  -4   7    3.19    0.34 
   6  -4   7    2.86    0.20 
  -7  -3   7    3.63    0.22 
  -6  -3   7    2.74    0.38 
  -5  -3   7    6.76    0.42 
  -4  -3   7    0.24    0.19 
  -3  -3   7    9.21    0.58 
  -1  -3   7   17.35    0.86 
   1  -3   7    1.17    0.27 
   3  -3   7   11.97    0.93 
   4  -3   7    0.07    0.19 
   5  -3   7    0.29    0.17 
   6  -3   7    2.54    0.18 
  -8  -2   7    0.96    0.16 
  -7  -2   7   -0.01    0.09 
  -6  -2   7    3.90    0.30 
  -5  -2   7   -0.16    0.17 
  -4  -2   7    0.46    0.20 
  -3  -2   7    0.40    0.16 
  -2  -2   7   35.39    1.38 
  -1  -2   7   -0.07    0.06 
   0  -2   7    2.12    0.26 
   2  -2   7    1.17    0.29 
   3  -2   7    2.84    0.46 
   4  -2   7    0.42    0.17 
   5  -2   7    0.04    0.17 
   6  -2   7    1.02    0.12 
  -8  -1   7    0.01    0.05 
  -7  -1   7    7.44    0.40 
  -6  -1   7    0.01    0.18 
  -5  -1   7    0.33    0.19 
  -3  -1   7    0.58    0.19 
  -2  -1   7   10.24    0.50 
  -1  -1   7    0.74    0.12 
   0  -1   7   12.74    0.67 
   2  -1   7   16.42    0.96 
   3  -1   7    6.00    0.63 
   4  -1   7    0.00    0.14 
   5  -1   7    0.08    0.16 
   6  -1   7    4.56    0.23 
  -8   0   7    1.39    0.13 
  -7   0   7    0.19    0.20 
  -6   0   7    5.06    0.32 
  -5   0   7    2.18    0.27 
  -4   0   7   13.28    0.62 
  -3   0   7    7.99    0.61 
  -2   0   7    4.36    0.49 
   0   0   7    8.76    0.41 
   3   0   7    2.38    0.51 
   4   0   7    6.95    0.79 
   5   0   7    1.96    0.24 
  -8   1   7    0.59    0.13 
  -6   1   7    2.80    0.31 
  -5   1   7   -0.19    0.12 
  -2   1   7    0.19    0.15 
  -1   1   7    0.72    0.09 
   1   1   7    2.55    0.46 
   2   1   7    0.12    0.23 
   3   1   7    1.72    0.46 
   4   1   7    2.61    0.39 
   5   1   7    0.03    0.09 
  -8   2   7    5.56    0.27 
  -6   2   7   16.29    0.77 
  -5   2   7    2.21    0.28 
   1   2   7   15.80    1.05 
   2   2   7    1.19    0.39 
   3   2   7    7.94    0.86 
   4   2   7   -0.15    0.21 
  -8   3   7    0.50    0.09 
  -6   3   7    0.70    0.20 
  -5   3   7    1.90    0.25 
  -4   3   7   31.30    1.33 
  -3   3   7    0.38    0.14 
  -1   3   7   17.70    0.81 
   0   3   7    2.21    0.28 
   1   3   7    3.69    0.35 
   2   3   7   25.40    0.89 
   3   3   7    0.13    0.39 
   4   3   7    0.47    0.12 
  -8   4   7    0.32    0.07 
  -7   4   7    0.42    0.16 
  -6   4   7    5.58    0.43 
  -5   4   7   14.87    0.52 
  -4   4   7   28.66    1.21 
  -3   4   7    7.99    0.59 
  -2   4   7    0.68    0.17 
  -1   4   7    6.41    0.47 
   0   4   7   27.16    1.12 
   1   4   7   11.67    0.65 
   2   4   7    0.29    0.32 
   3   4   7    0.01    0.12 
  -8   5   7    1.12    0.09 
  -7   5   7    2.69    0.20 
  -5   5   7    0.61    0.13 
  -4   5   7    0.12    0.15 
  -3   5   7   24.08    1.09 
  -2   5   7    4.77    0.29 
  -1   5   7   12.74    0.67 
   1   5   7    0.63    0.31 
   2   5   7    0.05    0.10 
  -7   6   7    6.88    0.23 
  -6   6   7    0.93    0.14 
  -5   6   7    1.93    0.24 
  -1   6   7    0.70    0.25 
   0   6   7    2.99    0.45 
   1   6   7    1.73    0.30 
  -6   7   7    0.19    0.06 
  -5   7   7    2.01    0.27 
  -4   7   7   15.37    0.69 
  -3   7   7    0.09    0.09 
  -2   7   7    3.96    0.47 
  -1   7   7    0.04    0.08 
   0   7   7    0.59    0.25 
  -2  -8   8    0.07    0.06 
  -1  -8   8    0.83    0.11 
   0  -8   8   10.48    0.35 
   1  -8   8    1.39    0.14 
   2  -8   8    2.03    0.15 
   3  -8   8    1.83    0.13 
  -3  -7   8    3.32    0.21 
  -2  -7   8   -0.05    0.17 
  -1  -7   8    2.57    0.40 
   0  -7   8    4.41    0.48 
   1  -7   8    0.99    0.30 
   2  -7   8    1.14    0.18 
   3  -7   8    1.42    0.19 
   4  -7   8    6.95    0.25 
  -5  -6   8    5.72    0.39 
  -4  -6   8    0.31    0.15 
  -3  -6   8    0.10    0.20 
  -1  -6   8   -0.06    0.11 
   0  -6   8    0.87    0.26 
   1  -6   8    2.09    0.40 
   3  -6   8    0.70    0.28 
   4  -6   8    1.41    0.20 
   5  -6   8    3.59    0.21 
  -5  -5   8    0.37    0.15 
  -3  -5   8    5.91    0.58 
  -2  -5   8    0.48    0.21 
  -1  -5   8    2.65    0.38 
   0  -5   8    6.37    0.66 
   1  -5   8   11.97    0.91 
   2  -5   8    4.25    0.53 
   3  -5   8    0.30    0.27 
   4  -5   8    0.20    0.21 
   5  -5   8    4.80    0.29 
  -6  -4   8    6.69    0.38 
  -5  -4   8    0.63    0.29 
  -3  -4   8    5.09    0.54 
  -2  -4   8    0.00    0.17 
  -1  -4   8    1.81    0.31 
   0  -4   8   -0.05    0.17 
   1  -4   8    6.52    0.62 
   2  -4   8   10.21    0.79 
   3  -4   8   -0.11    0.18 
   4  -4   8   10.12    0.82 
   5  -4   8    0.25    0.14 
  -7  -3   8    0.10    0.07 
  -6  -3   8    2.68    0.35 
  -5  -3   8    4.85    0.49 
  -4  -3   8    0.16    0.18 
   1  -3   8    2.83    0.53 
   2  -3   8    2.02    0.37 
   3  -3   8    0.21    0.21 
   5  -3   8    1.64    0.26 
  -7  -2   8    0.13    0.09 
  -5  -2   8    7.37    0.62 
  -4  -2   8    0.75    0.22 
   2  -2   8   19.76    1.10 
   3  -2   8    1.09    0.31 
   5  -2   8    3.67    0.34 
  -8  -1   8    0.03    0.06 
  -7  -1   8   -0.08    0.14 
  -5  -1   8    5.23    0.52 
  -4  -1   8   -0.06    0.15 
   1  -1   8    0.68    0.24 
   2  -1   8    2.72    0.42 
   3  -1   8   13.94    1.03 
   5  -1   8    0.29    0.12 
  -8   0   8    0.88    0.10 
  -6   0   8   11.47    0.70 
   2   0   8   28.35    1.61 
   3   0   8    2.37    0.49 
   4   0   8    0.03    0.20 
   5   0   8    2.06    0.21 
  -8   1   8   -0.03    0.08 
  -6   1   8    0.02    0.12 
  -5   1   8    2.48    0.30 
  -4   1   8    1.47    0.20 
   1   1   8    2.01    0.45 
   2   1   8    5.85    0.75 
   4   1   8    0.05    0.12 
  -8   2   8    1.48    0.12 
  -6   2   8    5.79    0.44 
  -5   2   8    9.22    0.52 
   1   2   8    5.47    0.73 
   2   2   8    0.01    0.22 
   3   2   8    1.24    0.40 
   4   2   8    0.58    0.14 
  -8   3   8    0.12    0.08 
  -7   3   8    1.22    0.24 
  -6   3   8   -0.04    0.14 
  -5   3   8   11.14    0.58 
  -4   3   8   35.19    1.50 
  -3   3   8    0.79    0.19 
  -1   3   8    0.00    0.10 
   0   3   8    0.12    0.12 
   1   3   8    3.23    0.34 
  -8   4   8    3.86    0.19 
  -7   4   8    0.03    0.11 
  -5   4   8   11.17    0.58 
  -4   4   8   10.56    0.62 
  -3   4   8    1.25    0.23 
  -1   4   8    6.26    0.47 
   0   4   8    4.50    0.39 
  -7   5   8    1.54    0.20 
  -3   5   8    0.12    0.15 
   1   5   8    0.65    0.18 
  -6   6   8    0.01    0.07 
  -5   6   8    0.05    0.11 
  -4   6   8    0.47    0.16 
  -2   6   8    1.39    0.33 
  -1   6   8    0.38    0.19 
   0   6   8    0.24    0.16 
  -5   7   8    1.61    0.13 
  -4   7   8    0.13    0.06 
  -3   7   8    0.45    0.09 
  -2   7   8   -0.01    0.06 
  -1  -8   9    0.86    0.10 
   0  -8   9    1.00    0.12 
   1  -8   9    0.16    0.07 
  -3  -7   9    0.13    0.08 
  -2  -7   9    0.32    0.11 
  -1  -7   9    0.34    0.17 
   0  -7   9    1.92    0.32 
   1  -7   9    1.76    0.24 
   2  -7   9    0.72    0.16 
   3  -7   9    3.39    0.24 
  -4  -6   9    0.96    0.22 
  -3  -6   9    0.09    0.16 
   3  -6   9    0.45    0.20 
   4  -6   9    2.03    0.21 
  -5  -5   9    1.26    0.20 
  -2  -5   9    0.48    0.21 
  -1  -5   9    2.65    0.44 
   0  -5   9    8.83    0.76 
   1  -5   9    5.28    0.57 
   4  -5   9    2.04    0.23 
  -6  -4   9    4.68    0.36 
  -3  -4   9    2.35    0.35 
  -2  -4   9    0.12    0.18 
   0  -4   9    0.39    0.23 
   1  -4   9    1.37    0.32 
   2  -4   9    4.14    0.52 
   4  -4   9    4.70    0.54 
  -6  -3   9    0.03    0.21 
  -4  -3   9    4.08    0.48 
  -3  -3   9   22.23    1.11 
  -2  -3   9    4.83    0.49 
   0  -3   9   81.82    3.36 
   2  -3   9   25.77    1.31 
   5  -3   9    3.23    0.38 
  -7  -2   9    0.30    0.10 
   1  -2   9   -0.15    0.14 
   2  -2   9    0.30    0.21 
  -7  -1   9    0.76    0.18 
   4  -1   9    0.76    0.26 
  -8   0   9    0.90    0.16 
  -7   0   9    2.18    0.29 
  -5   0   9    3.66    0.43 
   1   0   9   35.77    1.88 
   2   0   9    0.18    0.25 
   4   0   9    1.15    0.21 
  -8   1   9    0.32    0.08 
   1   1   9    0.26    0.26 
   4   1   9   -0.13    0.19 
  -8   2   9    0.09    0.10 
  -5   2   9    5.17    0.41 
   3   2   9    0.06    0.27 
  -5   3   9    0.25    0.14 
  -3   3   9    1.86    0.27 
  -1   3   9   -0.07    0.10 
   0   3   9    1.68    0.28 
  -7   4   9    2.61    0.27 
  -3   4   9    3.61    0.37 
  -2   4   9    6.07    0.57 
  -7   5   9    0.83    0.18 
  -6   5   9    0.35    0.13 
  -5   6   9    0.74    0.15 
  -2   6   9    0.14    0.12 
  -2  -7  10    0.00    0.12 
   0  -7  10    0.46    0.12 
   1  -7  10    1.15    0.21 
   2  -7  10    0.53    0.17 
  -3  -6  10   -0.10    0.12 
   3  -6  10    1.56    0.25 
  -5  -5  10   -0.06    0.10 
   3  -5  10    0.91    0.23 
  -1  -4  10    3.79    0.46 
   0  -4  10    5.38    0.55 
   1  -3  10    4.70    0.53 
   4  -3  10    0.08    0.20 
  -7  -1  10    0.71    0.15 
  -4   2  10    0.10    0.11 
  -7   3  10    0.02    0.08 
   0   0   0    0.00    0.00 
;
_shelx_hkl_checksum              21827
loop_
_space_group_symop_operation_xyz
'x, y, z'
'-x, -y, -z'
loop_
_atom_site_label
_atom_site_type_symbol
_atom_site_fract_x
_atom_site_fract_y
_atom_site_fract_z
_atom_site_U_iso_or_equiv
_atom_site_adp_type
_atom_site_occupancy
_atom_site_site_symmetry_order
_atom_site_calc_flag
_atom_site_refinement_flags_posn
_atom_site_refinement_flags_adp
O1 O -0.07602(14) 0.15849(12) 0.28047(9) 0.0373(2) Uani 1 1 d . .
O2 O -0.25483(14) -0.02104(11) 0.08773(9) 0.0375(2) Uani 1 1 d . .
O3 O 0.20502(12) 0.45497(12) 0.04030(9) 0.0339(2) Uani 1 1 d . .
N1 N -0.10557(15) 0.17607(13) -0.04501(11) 0.0307(2) Uani 1 1 d . .
N2 N -0.16065(18) 0.12711(15) -0.15233(12) 0.0423(3) Uani 1 1 d . .
N3 N 0.53984(15) 0.54061(13) 0.29694(11) 0.0311(2) Uani 1 1 d . .
N4 N 0.50845(14) 0.39319(14) 0.23327(10) 0.0323(2) Uani 1 1 d . .
N5 N 0.50398(18) 0.26352(17) 0.17828(13) 0.0472(3) Uani 1 1 d . .
C1 C -0.12195(17) 0.12608(15) 0.16376(12) 0.0284(3) Uani 1 1 d . .
C2 C -0.03805(17) 0.23957(15) 0.08344(12) 0.0279(3) Uani 1 1 d . .
C3 C 0.12419(16) 0.40244(15) 0.12011(12) 0.0277(3) Uani 1 1 d . .
C4 C -0.3431(2) -0.14712(18) 0.15611(15) 0.0458(4) Uani 1 1 d . .
H4A H -0.4376 -0.2496 0.0931 0.055 Uiso 1 1 calc R U
H4B H -0.2405 -0.1835 0.2133 0.055 Uiso 1 1 calc R U
H4C H -0.4111 -0.0937 0.2083 0.055 Uiso 1 1 calc R U
C5 C 0.18178(17) 0.50743(14) 0.25427(12) 0.0268(3) Uani 1 1 d . .
C6 C 0.37961(16) 0.58351(14) 0.32923(12) 0.0257(2) Uani 1 1 d . .
C7 C 0.43267(18) 0.70758(15) 0.44360(12) 0.0298(3) Uani 1 1 d . .
C8 C 0.2830(2) 0.74842(17) 0.48445(13) 0.0354(3) Uani 1 1 d . .
H8 H 0.3161 0.8317 0.5624 0.042 Uiso 1 1 calc R U
C9 C 0.0863(2) 0.67049(18) 0.41412(14) 0.0385(3) Uani 1 1 d . .
H9 H -0.0134 0.6990 0.4448 0.046 Uiso 1 1 calc R U
C10 C 0.03663(18) 0.55175(16) 0.29976(13) 0.0340(3) Uani 1 1 d . .
H10 H -0.0978 0.4994 0.2513 0.041 Uiso 1 1 calc R U
C11 C 0.64570(19) 0.79096(17) 0.52118(13) 0.0371(3) Uani 1 1 d . .
H11A H 0.6554 0.8749 0.5974 0.045 Uiso 1 1 calc R U
H11B H 0.7169 0.8521 0.4669 0.045 Uiso 1 1 calc R U
H11C H 0.7033 0.7001 0.5498 0.045 Uiso 1 1 calc R U
loop_
_atom_site_aniso_label
_atom_site_aniso_U_11
_atom_site_aniso_U_22
_atom_site_aniso_U_33
_atom_site_aniso_U_23
_atom_site_aniso_U_13
_atom_site_aniso_U_12
O1 0.0398(5) 0.0381(5) 0.0312(5) 0.0080(4) 0.0098(4) 0.0073(4)
O2 0.0426(5) 0.0289(5) 0.0343(5) 0.0057(4) 0.0129(4) -0.0013(4)
O3 0.0292(4) 0.0388(5) 0.0341(5) 0.0111(4) 0.0113(4) 0.0075(4)
N1 0.0300(5) 0.0267(5) 0.0347(6) 0.0080(4) 0.0093(4) 0.0069(4)
N2 0.0492(7) 0.0384(6) 0.0336(7) 0.0062(5) 0.0102(5) 0.0062(5)
N3 0.0256(5) 0.0272(5) 0.0390(6) 0.0038(4) 0.0107(4) 0.0058(4)
N4 0.0241(5) 0.0358(6) 0.0364(6) 0.0048(4) 0.0074(4) 0.0108(4)
N5 0.0403(6) 0.0446(7) 0.0530(8) -0.0060(6) 0.0068(5) 0.0206(5)
C1 0.0257(5) 0.0276(6) 0.0329(7) 0.0064(5) 0.0090(5) 0.0092(4)
C2 0.0276(6) 0.0266(6) 0.0284(6) 0.0046(4) 0.0070(4) 0.0078(5)
C3 0.0230(5) 0.0278(6) 0.0347(7) 0.0096(5) 0.0082(4) 0.0106(4)
C4 0.0516(8) 0.0341(7) 0.0471(9) 0.0099(6) 0.0223(7) -0.0032(6)
C5 0.0261(6) 0.0229(5) 0.0327(7) 0.0084(4) 0.0095(5) 0.0077(4)
C6 0.0260(6) 0.0219(5) 0.0317(6) 0.0097(4) 0.0108(4) 0.0074(4)
C7 0.0347(6) 0.0237(5) 0.0312(7) 0.0089(4) 0.0091(5) 0.0085(5)
C8 0.0473(7) 0.0291(6) 0.0336(7) 0.0055(5) 0.0149(5) 0.0153(5)
C9 0.0404(7) 0.0382(7) 0.0472(8) 0.0105(6) 0.0223(6) 0.0190(6)
C10 0.0279(6) 0.0331(6) 0.0439(8) 0.0092(5) 0.0135(5) 0.0109(5)
C11 0.0378(7) 0.0304(6) 0.0349(7) 0.0032(5) 0.0038(5) 0.0051(5)
loop_
_atom_type_symbol
_atom_type_description
_atom_type_scat_dispersion_real
_atom_type_scat_dispersion_imag
_atom_type_scat_source
C C 0.0181 0.0091 'International Tables Vol C Tables 4.2.6.8 and 6.1.1.4'
H H 0.0000 0.0000 'International Tables Vol C Tables 4.2.6.8 and 6.1.1.4'
N N 0.0311 0.0180 'International Tables Vol C Tables 4.2.6.8 and 6.1.1.4'
O O 0.0492 0.0322 'International Tables Vol C Tables 4.2.6.8 and 6.1.1.4'
loop_
_geom_angle_atom_site_label_1
_geom_angle_atom_site_label_2
_geom_angle_atom_site_label_3
_geom_angle
C1 O2 C4 115.24(10)
N2 N1 C2 178.39(12)
N4 N3 C6 118.27(10)
N5 N4 N3 171.57(12)
O1 C1 O2 124.96(12)
O1 C1 C2 125.08(11)
O2 C1 C2 109.95(10)
N1 C2 C3 113.33(11)
N1 C2 C1 115.50(10)
C3 C2 C1 130.74(11)
O3 C3 C2 120.55(11)
O3 C3 C5 120.99(11)
C2 C3 C5 118.38(10)
C10 C5 C6 118.63(11)
C10 C5 C3 118.69(11)
C6 C5 C3 122.07(10)
C7 C6 C5 121.29(11)
C7 C6 N3 114.94(10)
C5 C6 N3 123.77(11)
C8 C7 C6 117.91(11)
C8 C7 C11 121.45(12)
C6 C7 C11 120.63(11)
C9 C8 C7 121.69(12)
C10 C9 C8 119.69(11)
C9 C10 C5 120.72(12)
loop_
_geom_bond_atom_site_label_1
_geom_bond_atom_site_label_2
_geom_bond_distance
O1 C1 1.2014(15)
O2 C1 1.3417(15)
O2 C4 1.4464(15)
O3 C3 1.2281(15)
N1 N2 1.1150(15)
N1 C2 1.3405(16)
N3 N4 1.2351(14)
N3 C6 1.4288(14)
N4 N5 1.1294(15)
C1 C2 1.4671(17)
C2 C3 1.4608(16)
C3 C5 1.4912(17)
C5 C10 1.3971(16)
C5 C6 1.4067(16)
C6 C7 1.3966(17)
C7 C8 1.3912(18)
C7 C11 1.5075(17)
C8 C9 1.3893(19)
C9 C10 1.3771(19)
loop_
_geom_torsion_atom_site_label_1
_geom_torsion_atom_site_label_2
_geom_torsion_atom_site_label_3
_geom_torsion_atom_site_label_4
_geom_torsion
C4 O2 C1 O1 -0.96(18)
C4 O2 C1 C2 177.80(11)
O1 C1 C2 N1 177.94(11)
O2 C1 C2 N1 -0.82(14)
O1 C1 C2 C3 6.0(2)
O2 C1 C2 C3 -172.71(11)
N1 C2 C3 O3 -10.64(16)
C1 C2 C3 O3 161.39(12)
N1 C2 C3 C5 166.22(10)
C1 C2 C3 C5 -21.75(18)
O3 C3 C5 C10 124.71(12)
C2 C3 C5 C10 -52.14(15)
O3 C3 C5 C6 -46.25(16)
C2 C3 C5 C6 136.91(11)
C10 C5 C6 C7 -3.18(17)
C3 C5 C6 C7 167.79(11)
C10 C5 C6 N3 176.11(11)
C3 C5 C6 N3 -12.93(17)
N4 N3 C6 C7 151.82(11)
N4 N3 C6 C5 -27.50(17)
C5 C6 C7 C8 2.72(17)
N3 C6 C7 C8 -176.62(10)
C5 C6 C7 C11 -178.58(11)
N3 C6 C7 C11 2.08(16)
C6 C7 C8 C9 -0.56(19)
C11 C7 C8 C9 -179.26(12)
C7 C8 C9 C10 -1.1(2)
C8 C9 C10 C5 0.6(2)
C6 C5 C10 C9 1.46(18)
C3 C5 C10 C9 -169.81(12)
