#------------------------------------------------------------------------------
#$Date: 2019-11-11 20:29:42 +0200 (Mon, 11 Nov 2019) $
#$Revision: 227274 $
#$URL: file:///home/coder/svn-repositories/cod/cif/4/03/58/4035862.cif $
#------------------------------------------------------------------------------
#
# This file is available in the Crystallography Open Database (COD),
# http://www.crystallography.net/
#
# All data on this site have been placed in the public domain by the
# contributors.
#
data_4035862
loop_
_publ_author_name
'Bookser, Brett C.'
'Weinhouse, Michael I.'
'Burns, Aaron C.'
'Valiere, Andrew N.'
'Valdez, Lino J.'
'Stanczak, Pawel'
'Na, Jim'
'Rheingold, Arnold L.'
'Moore, Curtis E.'
'Dyck, Brian'
_publ_section_title
;
 Solvent-Controlled, Site-Selective N-Alkylation Reactions of Azolo-Fused
 Ring Heterocycles at N1-, N2-, and N3-Positions, Including Pyrazolo[3,4-
 d]pyrimidines, Purines, [1,2,3]Triazolo[4,5]pyridines, and Related
 Deaza-Compounds.
;
_journal_issue                   12
_journal_name_full               'The Journal of organic chemistry'
_journal_page_first              6334
_journal_page_last               6353
_journal_paper_doi               10.1021/acs.joc.8b00540
_journal_volume                  83
_journal_year                    2018
_chemical_formula_moiety         'C6 H5 Cl N4'
_chemical_formula_sum            'C6 H5 Cl N4'
_chemical_formula_weight         168.59
_space_group_crystal_system      monoclinic
_space_group_IT_number           14
_space_group_name_Hall           '-P 2ybc'
_space_group_name_H-M_alt        'P 1 21/c 1'
_atom_sites_solution_hydrogens   geom
_atom_sites_solution_primary     dual
_atom_sites_solution_secondary   difmap
_audit_creation_date             2016-08-25
_audit_creation_method
;
Olex2 1.2
(compiled 2016.02.19 svn.r3266 for OlexSys, GUI svn.r5155)
;
_cell_angle_alpha                90
_cell_angle_beta                 95.259(9)
_cell_angle_gamma                90
_cell_formula_units_Z            4
_cell_length_a                   8.176(3)
_cell_length_b                   12.399(4)
_cell_length_c                   7.156(2)
_cell_measurement_reflns_used    1260
_cell_measurement_temperature    100(2)
_cell_measurement_theta_max      67.42
_cell_measurement_theta_min      5.45
_cell_volume                     722.4(4)
_computing_cell_refinement       'SAINT v8.34A (Bruker, 2013)'
_computing_data_collection       'APEX2 v2013.10-0 (Bruker, 2013)'
_computing_data_reduction        'SAINT v8.34A (Bruker, 2013)'
_computing_molecular_graphics    'Olex2 (Dolomanov et al., 2009)'
_computing_publication_material  'Olex2 (Dolomanov et al., 2009)'
_computing_structure_refinement  'XL (Sheldrick, 2008)'
_computing_structure_solution    'XT (Sheldrick, 2008)'
_diffrn_ambient_temperature      100.0
_diffrn_detector_area_resol_mean 7.9
_diffrn_detector_type            'CCD Area Detector'
_diffrn_measured_fraction_theta_full 0.985
_diffrn_measured_fraction_theta_max 0.965
_diffrn_measurement_device       'Kappa Four-Circle Diffractometer'
_diffrn_measurement_device_type  'Bruker APEX-II CCD'
_diffrn_measurement_method       '\f and \w scans'
_diffrn_radiation_type           CuK\a
_diffrn_radiation_wavelength     1.54178
_diffrn_reflns_av_R_equivalents  0.0528
_diffrn_reflns_av_unetI/netI     0.0511
_diffrn_reflns_Laue_measured_fraction_full 0.985
_diffrn_reflns_Laue_measured_fraction_max 0.965
_diffrn_reflns_limit_h_max       8
_diffrn_reflns_limit_h_min       -9
_diffrn_reflns_limit_k_max       14
_diffrn_reflns_limit_k_min       -14
_diffrn_reflns_limit_l_max       8
_diffrn_reflns_limit_l_min       -6
_diffrn_reflns_number            4602
_diffrn_reflns_point_group_measured_fraction_full 0.985
_diffrn_reflns_point_group_measured_fraction_max 0.965
_diffrn_reflns_theta_full        67.679
_diffrn_reflns_theta_max         69.621
_diffrn_reflns_theta_min         5.433
_diffrn_standards_number         0
_exptl_absorpt_coefficient_mu    4.139
_exptl_absorpt_correction_T_max  0.3200
_exptl_absorpt_correction_T_min  0.1397
_exptl_absorpt_correction_type   multi-scan
_exptl_absorpt_process_details
;
SADABS-2014/5 (Bruker,2014/5) was used for absorption correction.
wR2(int) was 0.1261 before and 0.0757 after correction.
The Ratio of minimum to maximum transmission is 0.4366.
The \l/2 correction factor is 0.00150.
;
_exptl_crystal_colour            colorless
_exptl_crystal_colour_primary    colorless
_exptl_crystal_density_diffrn    1.550
_exptl_crystal_description       plate
_exptl_crystal_F_000             344
_exptl_crystal_size_max          0.3
_exptl_crystal_size_mid          0.2
_exptl_crystal_size_min          0.14
_refine_diff_density_max         0.410
_refine_diff_density_min         -0.528
_refine_diff_density_rms         0.092
_refine_ls_extinction_method     none
_refine_ls_goodness_of_fit_ref   1.126
_refine_ls_hydrogen_treatment    constr
_refine_ls_matrix_type           full
_refine_ls_number_parameters     101
_refine_ls_number_reflns         1310
_refine_ls_number_restraints     0
_refine_ls_restrained_S_all      1.126
_refine_ls_R_factor_all          0.0657
_refine_ls_R_factor_gt           0.0545
_refine_ls_shift/su_max          0.000
_refine_ls_shift/su_mean         0.000
_refine_ls_structure_factor_coef Fsqd
_refine_ls_weighting_details
'w=1/[\s^2^(Fo^2^)+(0.0787P)^2^+1.1127P] where P=(Fo^2^+2Fc^2^)/3'
_refine_ls_weighting_scheme      calc
_refine_ls_wR_factor_gt          0.1417
_refine_ls_wR_factor_ref         0.1640
_reflns_Friedel_coverage         0.000
_reflns_number_gt                1098
_reflns_number_total             1310
_reflns_threshold_expression     'I > 2\s(I)'
_cod_data_source_file            jo8b00540_si_004.cif
_cod_data_source_block           dart168
_cod_database_code               4035862
_shelx_space_group_comment
;
The symmetry employed for this shelxl refinement is uniquely defined
by the following loop, which should always be used as a source of
symmetry information in preference to the above space-group names.
They are only intended as comments.
;
_shelx_estimated_absorpt_t_max   0.595
_shelx_estimated_absorpt_t_min   0.370
_olex2_refinement_description
;
1. Fixed Uiso
 At 1.2 times of:
  All C(H) groups
 At 1.5 times of:
  All C(H,H,H) groups
2.a Aromatic/amide H refined with riding coordinates:
 C1(H1), C2(H2)
2.b Idealised Me refined as rotating group:
 C6(H6A,H6B,H6C)
;
_shelx_res_file
;
    dart168.res created by SHELXL-2014/7

TITL dart168 in P2(1)/c
CELL 1.54178 8.1759 12.3987 7.1563 90 95.259 90
ZERR 4 0.0025 0.0038 0.0023 0 0.009 0
LATT 1
SYMM -X,0.5+Y,0.5-Z
SFAC C H Cl N
UNIT 24 20 4 16

L.S. 6
PLAN  -2 0 0
SIZE 0.14 0.2 0.3
TEMP -173.15
HTAB
WPDB
BOND $H
CONF
MORE -1
fmap 2
acta
OMIT 2 10 6
REM <olex2.extras>
REM <HklSrc "%.\\dart168.hkl">
REM </olex2.extras>

WGHT    0.078700    1.112700
FVAR       0.37399
CL1   3    0.446263    0.152392    0.090651    11.00000    0.03868    0.02957 =
         0.03586   -0.00034    0.00562    0.00919
N4    4   -0.050792    0.330323    0.261651    11.00000    0.02735    0.02174 =
         0.02815    0.00105    0.00281   -0.00137
N1    4    0.409853    0.362852    0.089479    11.00000    0.03098    0.03029 =
         0.02876    0.00095    0.00162   -0.00183
N3    4   -0.058985    0.220997    0.268367    11.00000    0.03148    0.02134 =
         0.03570    0.00311    0.00281   -0.00332
N2    4    0.079203    0.179908    0.218041    11.00000    0.03415    0.02043 =
         0.03268    0.00246    0.00407   -0.00093
C1    1    0.325188    0.456152    0.116236    11.00000    0.03586    0.02161 =
         0.03682    0.00060    0.00446   -0.00580
AFIX  43
H1    2    0.378354    0.522286    0.092907    11.00000   -1.20000
AFIX   0
C2    1    0.168852    0.461934    0.174356    11.00000    0.03502    0.01962 =
         0.03090   -0.00104    0.00000   -0.00139
AFIX  43
H2    2    0.114753    0.528563    0.191245    11.00000   -1.20000
AFIX   0
C3    1    0.095941    0.361841    0.206589    11.00000    0.02790    0.02216 =
         0.02162   -0.00057    0.00231   -0.00037
C6    1   -0.188029    0.395422    0.316202    11.00000    0.03347    0.02917 =
         0.03979   -0.00043    0.00966    0.00320
AFIX 137
H6A   2   -0.167178    0.471690    0.291369    11.00000   -1.50000
H6B   2   -0.199161    0.385389    0.450279    11.00000   -1.50000
H6C   2   -0.289618    0.372765    0.243476    11.00000   -1.50000
AFIX   0
C5    1    0.337945    0.270928    0.121547    11.00000    0.02960    0.02617 =
         0.02256   -0.00050    0.00066    0.00059
C4    1    0.178601    0.265080    0.178135    11.00000    0.03299    0.01785 =
         0.02718    0.00092    0.00158   -0.00150
HKLF 4

REM  dart168 in P2(1)/c
REM R1 =  0.0545 for    1098 Fo > 4sig(Fo)  and  0.0657 for all    1310 data
REM    101 parameters refined using      0 restraints

END

WGHT      0.0784      1.1189

REM Instructions for potential hydrogen bonds
EQIV $1 -x+1, -y+1, -z
HTAB C1 N1_$1
EQIV $2 -x, y+1/2, -z+1/2
HTAB C2 N3_$2
HTAB C2 N2_$2
HTAB C6 N2_$2
EQIV $3 x-1, y, z
HTAB C6 N1_$3

REM Highest difference peak  0.410,  deepest hole -0.528,  1-sigma level  0.092
Q1    1   0.4833  0.1563  0.2819  11.00000  0.05    0.41
Q2    1   0.4568  0.2415  0.0677  11.00000  0.05    0.37
;
_shelx_res_checksum              64479
_shelx_hkl_file
;
   0   0   1    0.08    0.07
   0   0   1    0.03    0.07
   0   0  -1    0.00    0.07
   0   0   3    0.00    0.28
   0   0   4   47.97    3.01
   0   0   5   -1.50    1.10
   0   0   5    0.28    1.17
   0   0   5   -0.24    0.43
   0   0   6  121.86    7.76
   0   0   6  122.27    7.76
   0   0   7    0.18    1.28
   0   0   7    2.03    1.43
   0  -1   0    0.11    0.06
   0   1   1    5.33    0.36
   0   1  -1    5.04    0.43
   0   1   1    5.64    0.43
   0   1   1    6.21    0.36
   0  -1   1    5.55    0.44
   0  -1   1    5.15    0.40
   0  -1  -1    6.30    0.39
   0   1  -2 1000.00   56.81
   0   1   3   25.63    1.60
   0  -1   3   22.00    1.53
   0   1   4   39.12    2.47
   0  -1   4   36.51    2.41
   0   1   5    1.25    1.45
   0   1   5    1.83    0.63
   0  -1   5    3.10    0.66
   0  -1   5    2.89    1.29
   0  -1   5    3.05    1.31
   0   1   6   10.42    1.82
   0   1   6   10.31    1.96
   0  -1   6    9.76    1.67
   0  -1   6   10.36    1.81
   0  -1   7    8.41    1.57
   0  -1   7    6.05    1.58
   0  -1   8   22.81    2.00
   0   2   1  152.09    9.24
   0  -2   1  159.06    9.29
   0  -2  -1  175.63    9.30
   0  -2   1  163.47    9.34
   0   2   2  113.03    7.00
   0   2   2  135.18    7.15
   0  -2  -2  120.33    7.05
   0  -2   2  124.87    7.15
   0  -2   2  122.62    7.09
   0   2   3   98.75    5.67
   0  -2   3   92.37    5.59
   0   2   4   19.76    1.47
   0  -2   4   17.19    1.33
   0   2   5   12.42    2.01
   0   2   5   10.45    1.21
   0  -2   5   11.99    1.94
   0  -2   5   12.50    1.86
   0  -2   5   11.43    1.10
   0   2   6   40.63    3.33
   0  -2   6   35.23    3.17
   0  -2   6   35.44    3.15
   0  -2   7   16.58    2.29
   0  -2   7   19.74    2.29
   0  -2   8    0.24    0.98
   0  -3   0   -0.23    0.16
   0  -3   0   -0.26    0.20
   0  -3  -1  231.23   13.21
   0  -3   1  235.85   13.27
   0  -3   1  225.74   13.18
   0   3   2    5.98    0.41
   0  -3   2    6.46    0.54
   0  -3   2    6.21    0.62
   0  -3  -2    6.93    0.51
   0  -3   3   30.90    1.97
   0  -3   4   28.04    1.89
   0   3   5   24.45    2.53
   0  -3   5   25.84    2.41
   0  -3   5   22.35    2.34
   0  -3   5   22.66    1.71
   0  -3   5   21.78    2.27
   0   3   6    0.55    1.55
   0  -3   6    0.65    1.48
   0  -3   6    0.50    1.14
   0  -3   7   11.96    1.92
   0  -3   7   13.94    1.99
   0  -3   8    8.09    1.38
   0  -4   0  199.41   11.51
   0  -4  -1  186.11   10.23
   0  -4  -1  167.72   10.21
   0  -4   1  182.73   10.28
   0  -4   1  172.06   10.15
   0   4   2   33.48    1.98
   0  -4   2   32.96    2.20
   0  -4  -2   33.86    2.08
   0  -4   2   34.48    2.08
   0  -4   3   27.78    1.80
   0  -4   4    2.78    0.54
   0   4   5   -0.40    1.54
   0   4   5    0.45    0.75
   0  -4   5   -1.36    1.20
   0  -4   5   -0.37    1.22
   0  -4   5    0.27    1.36
   0  -4   5    0.16    1.31
   0  -4   5    0.16    0.45
   0  -4   6   62.87    4.66
   0  -4   6   64.53    4.62
   0  -4   6   71.19    4.75
   0  -4   7    3.45    1.33
   0  -4   7    1.70    1.21
   0  -4   8    3.93    0.99
   0  -5   0   -0.26    0.26
   0  -5   1    9.63    0.87
   0  -5   1    8.73    0.70
   0  -5  -1    9.04    0.80
   0  -5   2   51.03    3.26
   0  -5  -2   50.37    3.12
   0  -5   2   52.00    3.10
   0   5   3   19.30    1.40
   0  -5   3   21.13    1.44
   0  -5   4  102.21    6.26
   0  -5   4  108.74    6.83
   0   5   5    0.94    0.77
   0  -5   5    2.41    1.36
   0  -5   5   -2.33    1.16
   0  -5   5    2.90    1.45
   0   5   6    4.57    1.10
   0  -5   6    6.91    1.87
   0  -5   6    6.19    1.50
   0  -5   6    2.61    1.60
   0  -5   7    5.07    1.29
   0  -5   8   33.82    2.40
   0  -6   0  261.76   15.18
   0   6   1    3.32    0.48
   0  -6  -1    4.10    0.62
   0  -6   1    2.78    0.42
   0  -6   1    3.47    0.60
   0   6   2    0.57    0.36
   0  -6   2    0.35    0.30
   0  -6  -2    0.40    0.31
   0  -6   2    0.53    0.41
   0   6   3  128.29    7.66
   0  -6   3  133.25    7.68
   0   6  -4   -0.07    1.06
   0   6   4   -0.08    0.64
   0  -6   4   -1.06    1.21
   0  -6   4    0.84    0.82
   0  -6   4    0.25    1.05
   0  -6   4    0.21    0.46
   0   6   5   27.99    2.21
   0  -6   5   33.04    2.93
   0  -6   5   27.43    2.65
   0  -6   5   31.88    2.89
   0  -6   6  100.94    6.38
   0  -6   6  101.37    6.46
   0  -6   6   95.05    6.45
   0  -6   7    2.21    1.11
   0   7   0   -0.08    0.29
   0  -7   0    0.01    0.31
   0   7   1   79.83    4.73
   0   7  -1   79.18    4.70
   0  -7   1   79.99    4.69
   0  -7   1   78.85    4.93
   0  -7  -1   75.44    4.85
   0   7   2   51.61    3.15
   0  -7   2   52.02    3.13
   0  -7   2   46.85    3.46
   0   7   3   12.44    1.12
   0   7  -3   14.45    1.83
   0   7   3   12.71    1.31
   0   7   3   13.64    1.12
   0  -7   3   11.63    1.78
   0  -7   3   13.81    1.14
   0  -7   3   13.49    1.42
   0   7   4    0.82    0.89
   0   7   4    0.48    0.45
   0   7  -4    0.73    1.00
   0  -7   4    0.37    0.99
   0  -7   4    0.67    0.93
   0  -7   4    0.58    0.51
   0  -7   4   -0.36    1.18
   0   7   5   33.15    2.59
   0  -7   5   35.17    3.10
   0  -7   5   33.24    2.88
   0  -7   5   39.52    3.35
   0   7   6    0.46    0.71
   0  -7   6    0.55    1.21
   0  -7   6    3.63    1.63
   0  -7   6    0.17    1.06
   0  -7   7    1.17    0.82
   0   8   0   23.32    1.66
   0   8  -1    1.06    0.39
   0   8   1    1.00    0.43
   0  -8   1    0.43    0.35
   0   8  -2   10.97    1.48
   0   8   2    8.70    0.91
   0   8   2    8.00    1.06
   0   8   2    9.27    0.95
   0  -8   2    8.95    0.90
   0  -8   2    9.09    1.26
   0   8   3  130.36    7.91
   0   8   3  143.68    7.98
   0   8  -3  138.37    8.25
   0   8   3  126.93    8.02
   0  -8   3  134.88    7.94
   0  -8   3  124.41    8.19
   0  -8   3  142.44    8.13
   0   8   4   18.99    1.62
   0   8   4   16.43    1.42
   0   8  -4   15.36    2.00
   0   8   4   18.58    1.74
   0  -8   4   18.75    2.01
   0  -8   4   18.52    2.30
   0   8   5    3.64    1.01
   0  -8   5    4.00    1.38
   0  -8   5    7.67    1.85
   0  -8   5    4.02    1.48
   0   8   6   -0.26    0.62
   0  -8   6   -0.33    0.95
   0  -8   6    0.20    1.07
   0  -8   7    0.13    0.54
   0   9   0    0.45    0.81
   0   9   0    0.35    0.89
   0   9   0    0.89    0.48
   0   9   0    0.12    0.45
   0  -9   0    0.29    0.62
   0   9   1   35.77    2.49
   0   9  -1   32.92    2.79
   0   9  -1   34.77    2.45
   0   9  -1   44.55    2.62
   0   9   1   42.50    2.74
   0   9  -1   39.63    2.81
   0   9   1   39.89    2.56
   0  -9   1   36.61    2.68
   0   9  -2  172.82   11.40
   0   9   2  181.04   11.25
   0   9   2  197.51   11.23
   0   9   2  188.35   11.15
   0  -9   2  221.37   11.82
   0  -9   2  189.69   11.34
   0   9   3    8.57    1.24
   0   9  -3    7.16    1.39
   0   9   3    5.41    0.87
   0   9   3    6.74    0.91
   0  -9   3    9.24    1.58
   0  -9   3    7.29    1.34
   0   9   4    4.14    0.79
   0   9   4    3.79    1.04
   0   9  -4    4.91    1.26
   0   9   4    4.91    0.80
   0  -9   4    7.13    1.77
   0  -9   4    5.90    1.31
   0   9   5    5.33    0.99
   0   9  -5    5.54    1.14
   0  -9   5    4.66    1.52
   0  -9   5    4.95    1.27
   0   9   6    0.68    0.63
   0  -9   6    1.08    0.79
   0  10   0  199.76   12.62
   0  10   0  215.71   12.48
   0  10   0  214.77   12.43
   0  10   0  219.90   12.36
   0 -10   0  213.36   12.58
   0  10  -1   33.70    2.79
   0  10  -1   33.03    2.26
   0  10   1   34.33    2.50
   0  10   1   34.69    2.41
   0  10   1   33.56    2.35
   0 -10   1   35.04    2.63
   0  10   2   11.23    1.21
   0  10   2   11.84    1.46
   0  10   2    8.54    1.11
   0  10  -2   12.40    1.81
   0 -10   2   12.10    1.48
   0  10   3   24.11    1.88
   0  10   3   25.84    2.16
   0  10   3   23.88    1.84
   0  10  -3   26.44    2.45
   0 -10   3   25.31    2.33
   0  10   4   51.95    3.19
   0  10  -4   50.76    3.61
   0  10   4   49.64    3.36
   0  10   4   47.20    3.17
   0 -10   4   50.46    3.56
   0  10   5   17.14    1.52
   0  10  -5   15.43    1.65
   0 -10   5   15.61    1.81
   0  10   6   26.26    1.81
   0  11   0   -0.06    0.49
   0  11   0    0.07    1.16
   0  11   0    0.73    1.21
   0  11   0    0.17    0.55
   0 -11   0   -0.23    0.89
   0  11   1   21.14    1.72
   0  11  -1   22.46    2.34
   0  11   1   22.91    1.98
   0  11  -1   23.94    1.72
   0  11   1   24.24    1.83
   0 -11   1   23.15    2.13
   0 -11  -1   22.32    2.08
   0  11  -2   52.91    3.89
   0  11   2   53.71    3.57
   0  11   2   58.24    3.53
   0  11   2   49.59    3.40
   0 -11   2   54.50    3.73
   0  11  -3   79.81    5.32
   0  11   3   82.47    5.01
   0  11   3   82.39    4.96
   0  11   3   79.57    5.11
   0 -11   3   82.95    5.21
   0  11   4    8.42    1.13
   0  11   4    8.03    0.98
   0  11   4    7.38    0.88
   0  11  -4    7.90    1.22
   0 -11   4    8.54    1.28
   0  11  -5   14.30    1.35
   0  11   5   17.74    1.43
   0 -11   5   16.17    1.46
   0  12   0    0.04    0.54
   0  12   0    0.05    1.10
   0  12   0    0.06    0.53
   0 -12   0   -0.65    0.93
   0  12  -1   -0.25    1.11
   0  12   1    0.62    1.11
   0  12   1    0.07    0.57
   0  12   1    0.48    0.58
   0  12  -1   -0.23    0.90
   0 -12  -1   -0.26    0.88
   0 -12   1   -0.27    0.82
   0  12   2    0.72    0.83
   0  12   2    0.13    0.53
   0  12   2    0.32    0.60
   0  12  -2   -0.54    0.95
   0 -12   2    0.01    0.95
   0 -12  -2   -0.33    0.79
   0  12   3    8.97    1.26
   0  12   3    8.70    0.98
   0  12  -3    9.36    1.38
   0  12   3   10.02    1.05
   0 -12  -3    8.38    1.04
   0 -12   3    6.09    1.14
   0  12  -4    1.98    0.76
   0  12   4    0.31    0.61
   0  12   4    1.64    0.54
   0 -12   4    0.44    0.81
   0 -12  -4    1.61    0.81
   0  12   5    5.34    1.01
   0  13   0   -0.12    1.02
   0  13   0   -0.20    0.47
   0 -13   0   -0.01    0.75
   0  13   1   16.37    1.35
   0  13   1   16.12    1.38
   0  13  -1   16.82    1.78
   0  13   1   11.80    1.55
   0 -13  -1   18.05    1.69
   0 -13   1   16.23    1.65
   0  13   2   10.81    1.29
   0  13  -2   10.44    1.52
   0  13   2   10.51    1.08
   0  13   2    9.52    1.07
   0 -13   2    9.75    1.33
   0 -13  -2   10.82    1.28
   0  13   3    1.59    0.59
   0  13   3    1.44    0.82
   0  13  -3    1.71    0.82
   0 -13  -3    1.14    0.44
   0 -13   3    2.07    0.78
   0  13  -4    0.59    0.57
   0  13   4    1.11    0.63
   0 -13   4    1.18    0.70
   0  14   0   -0.01    0.39
   0 -14   0    1.60    0.61
   0 -14   0    1.48    0.72
   0  14   1    0.74    0.48
   0  14  -1    0.57    0.80
   0 -14  -1    0.71    0.66
   0 -14   1    0.34    0.61
   0  14  -2   13.50    1.29
   0  14   2   14.51    1.10
   0 -14   2   14.42    1.30
   0 -14  -2   12.02    1.11
   0  14  -3   12.25    1.36
  -1   0   7   -0.08    1.24
  -1   0   7    2.08    1.49
  -1   0   6   82.43    5.63
  -1   0   6   88.62    5.73
  -1   0   5   -0.54    1.01
  -1   0   5   -0.42    0.47
  -1   0   4  300.59   17.28
  -1   0   3    0.05    0.24
  -1   0   2    3.83    0.34
  -1   0   2    3.26    0.31
  -1   0   2    3.41    0.31
  -1   0   2    4.49    0.41
  -1   0   1   -0.12    0.10
   1   0  -1    0.02    0.12
  -1   0   1   -0.03    0.10
  -1   0   1   -0.08    0.09
  -1   0   0   32.67    1.79
  -1   0   0   28.09    1.86
  -1   0  -1   -0.12    0.19
   1   0   1   -0.01    0.11
   1   0   1    0.18    0.24
   1   0   3   -0.76    0.31
   1   0   4  886.29   50.51
   1   0   5   -0.22    1.19
   1   0   5   -0.22    1.00
   1   0   5    0.21    0.48
   1   0   5    0.53    1.05
   1   0   5    0.37    1.18
   1   0   6   34.80    3.37
   1   0   6   45.36    3.46
   1   0   7    0.06    1.33
   1   0   8    8.06    1.38
  -1  -1   8   10.37    1.28
  -1   1   7    2.79    1.51
  -1  -1   7    2.14    1.28
  -1  -1   7    4.03    1.48
  -1   1   6   28.78    2.97
  -1  -1   6   31.02    2.97
  -1  -1   6   32.90    2.80
  -1   1   5   19.75    1.59
  -1   1   5   20.98    2.05
  -1  -1   5   19.04    1.97
  -1  -1   5   18.30    1.50
  -1  -1   5   18.22    2.00
  -1   1   4   14.80    1.28
  -1  -1   4   17.94    1.25
  -1   1   3    8.98    0.75
  -1   1   3    7.49    0.56
  -1  -1   3    8.44    0.71
  -1   1   2  424.40   22.01
  -1   1   2  393.23   21.95
  -1  -1   2  358.14   22.00
  -1  -1   2  369.49   21.99
  -1   1   1   58.56    3.38
  -1   1   1   57.25    3.37
  -1   1   1   63.56    3.37
   1   1  -1   59.75    3.43
   1  -1  -1   62.35    3.41
  -1  -1   1   58.96    3.37
  -1  -1   1   49.18    3.40
  -1   1   0  489.33   27.14
  -1   1   0  463.39   27.06
  -1   1  -1    1.41    0.27
   1   1   1    2.36    0.33
   1  -1   1    1.85    0.29
   1  -1   1    1.75    0.22
  -1  -1  -1    1.41    0.28
   1   1   2  255.98   14.61
   1   1   2  248.77   14.61
  -1   1  -2  242.45   14.66
   1  -1   2  262.12   14.58
  -1  -1  -2  259.87   14.65
   1  -1   2  260.34   14.64
   1   1   3   22.62    1.59
   1  -1   3   24.05    1.57
   1   1   4  391.74   23.00
   1  -1   4  409.48   22.97
   1   1   5    1.01    0.85
   1   1   5    1.37    1.44
   1   1   5   -0.69    0.92
   1   1   5    2.30    1.38
   1   1   5    1.86    0.61
   1  -1   5    1.66    1.41
   1  -1   5    1.31    0.98
   1  -1   5    2.18    0.59
   1  -1   5    3.20    1.37
   1   1   6   11.76    1.91
   1   1   6   10.17    1.47
   1  -1   6   10.42    1.93
   1   1   7    2.65    1.61
   1  -1   7    3.15    1.53
   1  -1   8   13.73    1.55
  -1  -2   8   -0.52    0.86
  -1  -2   8    0.38    0.91
  -1   2   7    5.85    1.65
  -1  -2   7    7.61    1.64
  -1  -2   7    6.07    1.54
  -1   2   6    0.33    1.41
  -1  -2   6   -0.61    1.14
  -1  -2   6    0.58    1.42
  -1   2   5    1.68    1.22
  -1   2   5    0.60    0.62
  -1  -2   5    1.26    1.14
  -1  -2   5    2.46    1.33
  -1  -2   5    1.27    0.50
  -1   2   4   86.79    5.26
  -1  -2   4   87.66    5.20
  -1   2   3  140.03    8.58
  -1   2   3  161.69    8.74
  -1  -2   3  149.26    8.69
  -1   2   2  162.07    8.86
  -1   2   2  155.00    8.79
  -1  -2   2  149.01    8.85
  -1  -2   2  149.07    8.89
   1   2  -1   23.81    1.50
  -1   2   1   21.21    1.41
  -1   2   1   21.62    1.39
   1  -2  -1   27.02    1.44
   1   2   0   53.72    3.16
  -1   2   0   51.12    3.16
   1  -2   0   58.12    3.16
   1  -2   0   50.89    3.04
  -1  -2   0   50.31    3.14
   1   2   1  344.05   19.59
  -1  -2  -1  349.34   19.60
   1  -2   1  323.82   19.53
   1  -2   1  355.89   19.63
   1   2   2  294.87   16.49
  -1  -2  -2  249.53   16.52
   1  -2   2  289.68   16.47
   1  -2   2  320.03   16.58
   1   2   3    9.95    0.91
   1  -2   3    8.82    0.78
   1  -2   4  109.46    6.47
   1   2   5   27.70    2.84
   1   2   5   22.00    1.86
   1   2   5   24.68    2.42
   1  -2   5   19.19    2.17
   1  -2   5   24.66    1.76
   1  -2   5   25.15    2.16
   1  -2   5   24.54    2.29
   1   2   6    1.94    2.74
   1   2   6    1.09    0.86
   1  -2   6    1.95    1.32
   1  -2   6    0.79    1.47
   1  -2   6    0.65    1.22
   1  -2   7    2.57    1.42
   1  -2   8    5.96    1.05
  -1  -3   8   -0.08    0.77
  -1  -3   7    2.35    1.38
  -1  -3   7    2.28    1.30
  -1   3   6   18.24    2.59
  -1  -3   6   21.44    2.31
  -1  -3   6   22.69    2.58
  -1  -3   6   20.12    2.42
  -1   3   5   63.36    4.25
  -1  -3   5   61.43    3.97
  -1  -3   5   49.35    4.04
  -1  -3   5   62.39    3.66
  -1  -3   5   54.30    4.03
  -1  -3   4   17.45    1.31
  -1   3   3    0.63    0.16
  -1  -3   3    0.70    0.29
  -1   3   2   73.21    4.49
   1  -3  -2   80.08    4.51
  -1  -3   2   76.18    4.57
  -1  -3   2   77.35    4.66
   1  -3  -2   82.84    4.51
  -1   3   1    0.70    0.17
   1   3  -1    0.75    0.29
   1  -3  -1    0.83    0.22
   1   3   0    6.47    0.65
   1  -3   0    7.35    0.63
   1   3   1  328.04   18.67
  -1  -3  -1  307.92   18.66
   1  -3   1  323.83   18.58
   1  -3   1  345.99   18.71
   1   3   2    4.07    0.43
   1  -3   2    4.25    0.55
   1  -3   2    4.41    0.44
   1  -3   3    4.13    0.55
   1  -3   4   11.16    0.99
   1   3   5   51.48    3.34
   1  -3   5   49.53    3.19
   1  -3   5   43.71    3.79
   1  -3   5   45.30    3.55
   1  -3   5   55.31    3.59
   1  -3   5   52.49    3.74
   1   3   6    4.91    1.03
   1  -3   6    6.33    1.74
   1  -3   6    3.79    1.28
   1  -3   6    1.72    1.38
   1  -3   7   10.98    1.93
   1  -3   7   10.76    1.46
   1  -3   8    0.61    0.71
  -1  -4   8    1.99    0.86
  -1  -4   7   16.38    2.26
  -1  -4   7   20.50    2.27
  -1  -4   7   17.38    2.14
  -1   4   6   61.24    4.72
  -1  -4   6   55.77    4.55
  -1  -4   6   69.26    4.59
  -1  -4   6   72.08    4.59
  -1   4   5    1.45    1.50
  -1  -4   5    3.02    1.39
  -1  -4   5    3.65    1.43
  -1  -4   5    1.97    1.21
  -1  -4   5    0.85    0.50
  -1  -4   4   92.72    5.54
  -1  -4   3   17.08    1.24
  -1   4   2   49.01    3.12
  -1  -4   2   53.16    3.34
  -1  -4   2   53.21    3.22
   1  -4  -2   58.23    3.18
  -1   4   1   34.71    2.02
   1  -4  -1   31.75    2.12
   1  -4  -1   35.70    2.12
   1   4   0  170.00   10.07
   1  -4   0  177.20   10.05
   1   4   1   25.15    1.67
   1  -4   1   25.97    1.70
   1  -4   1   24.90    1.55
   1  -4   2   40.77    2.59
   1  -4   2   39.70    2.43
   1  -4   3  150.37    8.73
   1  -4   4    3.59    0.59
   1   4   5    2.79    0.93
   1  -4   5    1.22    1.30
   1  -4   5    2.08    1.12
   1  -4   5    1.71    0.59
   1  -4   5    1.53    1.53
   1   4   6   13.57    1.54
   1  -4   6   11.96    1.99
   1  -4   6   13.06    2.04
   1  -4   6   16.48    1.91
   1   4   7    1.61    0.75
   1  -4   7    6.83    1.45
   1  -4   7    3.30    0.84
   1  -4   8    7.12    1.13
  -1  -5   8    6.88    0.98
  -1  -5   7    3.51    1.29
  -1  -5   7    0.68    1.38
  -1  -5   6   76.88    5.02
  -1  -5   6   65.68    4.85
  -1  -5   6   66.40    4.97
  -1  -5   5   19.08    2.41
  -1  -5   5   18.76    2.32
  -1  -5   4  195.66   11.30
  -1  -5   4  170.88   10.37
  -1  -5   4  169.76   10.78
  -1   5   3    1.70    0.44
  -1  -5   3    1.43    0.42
  -1   5   2  214.33   13.32
  -1  -5   2  242.89   13.45
  -1  -5   2  232.73   13.61
   1  -5  -2  243.91   13.44
  -1   5   1   69.29    4.00
   1  -5  -1   67.68    4.14
  -1  -5   1   69.53    4.26
   1  -5   0    9.84    0.85
   1  -5   1   19.30    1.40
   1  -5   1   18.51    1.21
   1  -5   2   59.26    3.73
   1  -5   2   59.77    3.55
   1   5   3    0.48    0.31
   1  -5   3    1.30    0.39
   1   5   4   40.29    2.77
   1  -5   4   43.37    2.60
   1  -5   4   40.57    2.92
   1  -5   4   35.29    2.92
   1  -5   4   40.29    3.12
   1   5   5    3.28    0.94
   1  -5   5    5.84    1.72
   1  -5   5    3.46    1.31
   1  -5   5    6.67    1.61
   1   5   6    7.45    1.25
   1  -5   6    8.08    1.35
   1  -5   6    9.74    1.80
   1   5   7    0.56    0.63
   1  -5   7    1.87    1.06
   1  -5   7    1.40    0.76
  -1  -6   7    1.53    1.02
  -1  -6   7    0.17    1.04
  -1  -6   6   19.56    2.33
  -1  -6   6   21.42    2.39
  -1  -6   5    3.62    1.71
  -1  -6   5    1.39    1.30
   1   6  -4  130.26    8.21
  -1   6   4  128.89    8.01
  -1  -6   4  144.28    8.04
  -1  -6   4  121.15    8.20
  -1  -6   4  144.65    8.90
  -1  -6   4  146.68    8.51
  -1   6   3   17.56    1.34
  -1  -6   3   17.46    1.37
  -1   6   2  112.71    6.62
  -1   6   2  104.77    6.47
  -1  -6   2  111.73    6.82
   1  -6  -2  115.23    6.62
  -1  -6   2  116.81    6.62
  -1   6   1  199.85   12.10
  -1   6   1  212.71   11.98
   1  -6  -1  215.44   12.17
  -1  -6   1  209.19   12.28
  -1  -6   0   31.35    2.18
   1  -6   0   30.71    1.90
   1  -6   0   31.55    2.11
   1   6   1   30.94    2.01
   1  -6   1   31.26    2.16
   1  -6   1   30.89    1.95
  -1  -6  -1   33.34    2.19
   1   6   2   97.74    5.68
  -1  -6  -2   98.76    5.80
   1  -6   2   91.64    5.85
   1  -6   2   96.23    5.64
   1   6   3    4.58    0.61
   1  -6   3    4.28    0.62
   1   6   4   19.89    1.66
   1  -6   4   17.19    1.92
   1  -6   4   22.39    1.99
   1  -6   4   20.22    1.46
   1  -6   4   15.53    1.90
   1   6   5   36.38    2.73
   1  -6   5   37.12    3.16
   1  -6   5   37.30    2.94
   1  -6   5   35.94    2.95
   1   6   6    8.15    1.21
   1  -6   6    6.12    1.46
   1  -6   6    8.76    1.29
   1   6   7   20.74    1.56
   1  -6   7   18.92    1.52
  -1  -7   7    0.38    1.08
  -1  -7   7    0.12    0.88
  -1  -7   6    3.45    1.59
  -1  -7   6    1.37    1.20
   1   7  -5   25.58    2.35
  -1   7   5   23.84    1.91
  -1  -7   5   26.10    2.74
  -1  -7   5   21.55    2.65
  -1   7   4    8.88    0.97
   1   7  -4    9.36    1.44
  -1   7   4    8.60    1.15
  -1  -7   4    8.53    1.38
  -1  -7   4    9.74    1.17
  -1  -7   4   10.36    1.72
  -1  -7   4   11.15    1.53
   1   7  -3   16.06    1.78
  -1   7   3   16.13    1.34
  -1   7   3   15.55    1.48
  -1   7   3   16.62    1.32
  -1  -7   3   15.36    1.93
  -1  -7   3   16.24    1.33
  -1  -7   3   14.39    1.74
  -1   7   2    0.50    0.45
   1  -7  -2    0.13    0.35
  -1  -7   2    0.02    0.46
  -1  -7   2   -0.47    0.37
  -1   7   1    3.00    0.54
   1   7  -1    3.47    0.52
  -1   7   1    2.83    0.39
   1  -7  -1    2.83    0.54
  -1  -7   1    3.17    0.68
   1   7   0   32.78    2.07
  -1   7   0   31.85    2.10
  -1  -7   0   33.51    2.32
   1  -7   0   29.69    2.20
   1   7   1  132.62    7.69
  -1   7  -1  131.22    7.70
   1  -7   1  128.97    7.90
   1  -7   1  123.94    7.74
  -1  -7  -1  139.73    8.03
   1   7   2   10.77    0.90
   1  -7   2    9.38    0.83
   1   7   3    0.88    0.50
  -1   7  -3    0.62    0.87
   1   7   3    1.25    0.75
   1   7   3    1.35    0.47
   1  -7   3    0.76    0.40
   1  -7   3    1.13    0.98
   1  -7   3    0.82    0.91
   1   7   4   22.92    1.73
   1   7   4   24.40    2.07
   1  -7   4   26.50    2.24
   1  -7   4   21.19    2.19
   1  -7   4   22.15    2.32
   1  -7   4   31.02    2.70
   1   7   5   36.41    2.65
   1  -7   5   39.01    3.15
   1  -7   5   31.47    2.80
   1  -7   5   33.50    3.01
   1   7   6    4.57    1.01
   1  -7   6    3.67    1.33
   1  -7   6    4.30    1.12
   1  -7   7    6.40    0.82
   1  -7   7    6.91    1.24
  -1  -8   7   18.63    1.69
  -1  -8   6   18.80    2.13
  -1  -8   6   17.25    2.05
   1   8  -5    7.48    1.37
  -1   8   5    8.01    1.11
  -1  -8   5    5.91    1.61
  -1  -8   5   11.69    2.08
  -1   8   4    0.56    0.53
  -1   8   4    0.02    0.74
   1   8  -4    0.36    0.94
  -1  -8   4   -0.69    1.26
  -1  -8   4    1.92    1.45
  -1  -8   4   -0.52    1.10
  -1   8   3    4.38    0.73
  -1   8   3    5.00    0.99
  -1   8   3    5.45    0.84
   1   8  -3    6.33    1.33
  -1  -8   3    6.20    1.49
  -1  -8   3    3.53    1.05
  -1  -8   3    4.23    0.73
  -1   8   2   15.21    1.31
  -1   8   2   13.58    1.46
   1   8  -2   14.98    1.68
  -1   8   2   17.86    1.36
  -1  -8   2   17.56    1.67
  -1  -8   2   16.94    1.34
   1   8  -1  165.75    9.61
  -1   8   1  163.29    9.51
  -1   8   1  166.49    9.69
  -1  -8   1  164.14    9.65
   1   8   0   40.58    2.58
  -1   8   0   40.35    2.62
  -1   8  -1   67.53    4.15
   1   8   1   65.69    4.08
   1   8   2    7.82    0.99
  -1   8  -2   12.01    1.54
   1   8   2    9.48    1.26
   1   8   2    9.58    0.92
   1  -8   2    8.09    0.88
   1  -8   2    8.72    1.26
   1   8   3   10.19    1.41
   1   8   3   11.65    1.09
  -1   8  -3   10.41    1.65
   1   8   3   11.24    1.15
   1  -8   3    9.61    1.62
   1  -8   3   10.63    1.58
   1   8   4    0.33    0.56
   1   8   4   -0.87    0.81
   1   8   4    0.06    0.49
  -1   8  -4   -0.15    0.97
   1  -8   4    0.20    1.20
   1  -8   4    0.48    1.35
   1   8   5   31.84    2.52
   1  -8   5   39.73    3.43
   1  -8   5   29.27    2.72
   1   8   6    9.92    1.19
   1  -8   6   10.50    1.44
  -1  -9   6    5.16    1.04
  -1   9   5   71.57    4.48
   1   9  -5   66.80    4.69
  -1  -9   5   72.10    4.91
  -1  -9   5   79.15    5.03
  -1   9   4    8.50    1.07
  -1   9   4    9.91    1.05
  -1   9   4   10.24    1.31
   1   9  -4    6.86    1.41
  -1  -9   4   11.35    1.66
  -1  -9   4   11.11    1.79
  -1   9   3    0.87    0.62
   1   9  -3    1.90    1.25
  -1   9   3    1.41    0.65
  -1   9   3    1.29    0.92
  -1  -9   3    1.92    1.69
  -1  -9   3    0.93    1.11
  -1   9   2   31.60    2.15
  -1   9   2   34.14    2.30
   1   9  -2   30.55    2.59
  -1   9   2   32.11    2.28
  -1  -9   2   33.29    2.49
  -1  -9   2   33.28    2.23
  -1  -9   2   25.56    2.66
  -1   9   1    6.54    0.93
  -1   9   1    4.83    1.26
  -1   9   1    7.53    1.22
   1   9  -1    5.60    1.33
   1   9  -1    5.10    0.70
  -1   9   1    5.03    0.75
   1   9  -1    4.64    1.40
   1   9  -1    4.59    0.67
  -1  -9   1    5.67    1.07
  -1  -9   1    4.73    0.74
  -1   9   0  104.20    6.03
  -1   9   0  102.74    5.96
   1   9   0  105.12    5.93
   1   9   0   99.32    5.88
  -1   9   0   97.52    5.77
   1   9   0   95.39    5.98
   1   9   0   86.21    6.14
  -1   9   0   91.07    6.10
  -1   9   0  102.99    5.88
   1  -9   0   98.92    6.04
   1   9   1   59.82    3.81
  -1   9  -1   62.03    3.76
   1   9   1   61.29    3.94
   1   9   1   64.88    3.84
  -1   9  -1   58.57    4.15
   1  -9   1   60.34    3.95
   1   9   2   47.09    3.35
  -1   9  -2   47.45    3.58
   1   9   2   52.84    3.21
   1   9   2   49.60    3.19
   1  -9   2   48.56    3.12
   1  -9   2   51.27    3.44
   1   9   3    0.17    0.57
  -1   9  -3    0.99    1.12
   1   9   3    0.80    0.54
   1   9   3    1.06    0.93
   1  -9   3    0.61    1.00
   1   9   4  106.91    6.95
  -1   9  -4  122.25    7.29
   1   9   4  124.24    7.23
   1   9   4  120.05    6.99
   1  -9   4  113.79    7.24
   1   9   5   22.90    1.95
   1  -9   5   19.55    2.05
   1   9   6    5.00    0.82
   1  -9   6    5.24    0.87
   1  10  -5    6.40    1.06
  -1 -10   5    5.12    1.44
  -1  10   4   47.00    2.97
  -1  10   4   44.62    3.00
  -1  10   4   48.34    3.13
   1  10  -4   46.82    3.47
  -1 -10   4   45.61    3.68
  -1 -10   4   46.66    3.34
   1  10  -3   15.80    1.95
  -1  10   3   10.67    1.28
  -1  10   3   12.37    1.51
  -1  10   3   10.16    1.20
  -1 -10   3   12.18    2.10
  -1 -10   3   13.61    1.69
  -1  10   2    2.61    0.68
   1  10  -2    3.57    1.24
  -1  10   2    3.71    1.02
  -1  10   2    2.40    0.71
  -1 -10   2    4.04    1.23
   1  10  -1   56.07    3.52
  -1  10   1   46.35    3.17
   1  10  -1   41.68    3.47
  -1  10   1   45.98    2.99
   1  10  -1   53.21    3.24
   1  10  -1   44.44    2.97
  -1  10   1   47.19    3.13
  -1  10   1   41.86    3.35
  -1 -10   1   45.05    3.29
   1 -10  -1   46.27    3.17
  -1  10   0   77.85    4.90
   1  10   0   80.37    4.83
   1  10   0   81.23    4.99
  -1  10   0   76.84    5.10
  -1  10   0   80.54    5.01
   1  10   0   72.99    5.16
  -1  10   0   80.91    4.80
   1  10   0   79.66    4.86
   1 -10   0   81.76    5.03
  -1 -10   0   77.31    5.04
   1  10   1    4.86    0.77
   1  10   1    5.67    0.89
   1  10   1    7.23    1.19
  -1  10  -1    5.59    0.80
  -1  10  -1    5.36    1.46
   1 -10   1    5.86    1.15
   1  10   2  125.92    7.18
  -1  10  -2  119.82    7.48
   1  10   2  118.43    7.29
   1  10   2  117.91    7.13
   1 -10   2  123.45    7.36
   1 -10   2  111.15    7.22
   1  10   3   49.29    3.16
  -1  10  -3   47.65    3.54
   1  10   3   46.92    3.43
   1  10   3   48.22    3.18
   1 -10   3   50.05    3.48
   1  10   4   17.67    1.80
  -1  10  -4   18.47    1.92
   1  10   4   17.81    1.51
   1 -10   4   18.25    2.05
   1  10   5    2.11    0.74
   1 -10   5    2.56    0.99
   1  10   6   47.77    2.67
   1 -10   6   35.77    2.56
   1  11  -5    4.06    0.75
  -1  11   5    3.61    0.58
  -1  11   4   12.51    1.29
  -1  11   4   12.03    1.15
  -1  11   4   11.28    1.13
   1  11  -4   12.85    1.73
  -1 -11   4   12.35    1.68
  -1  11   3   23.66    1.92
  -1  11   3   23.38    1.86
   1  11  -3   23.78    2.43
  -1  11   3   25.59    1.81
  -1 -11   3   24.17    2.19
  -1  11   2   26.29    2.05
  -1  11   2   26.27    1.91
  -1  11   2   26.11    2.13
   1  11  -2   26.87    2.60
  -1 -11   2   26.55    2.43
   1 -11  -2   26.55    2.16
  -1  11   1  127.74    7.28
  -1  11   1  117.91    7.03
  -1  11   1  110.54    6.82
  -1  11   1  113.61    6.95
   1  11  -1  108.62    7.21
   1  11  -1  117.36    6.96
   1 -11  -1  112.09    7.02
  -1 -11   1  111.17    7.09
  -1  11   0   14.98    1.45
  -1  11   0   18.03    1.81
  -1  11   0   15.58    1.39
   1  11   0   15.77    2.02
   1  11   0   14.27    1.87
   1  11   0   15.67    1.38
  -1  11   0   17.19    1.97
   1  11   0   15.72    1.39
  -1 -11   0   17.17    1.93
   1 -11   0   15.32    1.72
  -1  11  -1   48.91    3.00
   1  11   1   44.42    3.05
  -1  11  -1   47.51    3.42
   1  11   1   44.05    3.28
   1  11   1   47.07    3.08
   1 -11   1   48.23    3.33
   1  11   2   27.89    2.12
   1  11   2   30.00    2.11
   1  11   2   27.91    2.38
  -1  11  -2   28.11    2.52
   1 -11   2   29.64    2.30
   1  11   3    8.36    1.05
  -1  11  -3    7.69    1.29
   1  11   3    8.80    1.04
   1  11   3    6.20    1.20
   1 -11   3    9.16    1.31
  -1  11  -4   30.14    2.35
   1  11   4   33.28    2.41
   1  11   4   32.08    2.14
   1 -11   4   30.19    2.48
   1  11   5   36.73    2.39
   1 -11   5   32.45    2.32
   1  12  -5   -0.03    0.52
   1  12  -4    3.70    0.91
  -1  12   4    3.18    0.62
  -1  12   4    4.45    0.82
  -1 -12   4    4.62    0.88
  -1  12   3   18.70    1.42
   1  12  -3   18.72    1.99
  -1  12   3   17.56    1.49
  -1  12   3   16.50    1.43
  -1 -12   3   15.68    1.76
   1  12  -2   16.96    1.93
  -1  12   2   10.74    1.26
  -1  12   2   12.35    1.56
  -1  12   2   10.69    1.19
   1 -12  -2   11.32    1.36
  -1 -12   2   12.14    1.69
  -1  12   1    8.09    0.97
  -1  12   1    4.61    1.16
   1  12  -1    5.14    1.36
  -1  12   1    4.64    0.87
   1 -12  -1    6.89    1.16
  -1 -12   1    7.25    1.35
   1  12   0   -1.23    1.15
   1  12   0    0.84    0.54
  -1  12   0    2.22    1.08
  -1  12   0    0.95    0.62
  -1  12   0    1.05    0.59
   1 -12   0    1.69    0.82
  -1 -12   0    1.98    1.08
   1  12   1    9.55    1.11
  -1  12  -1   11.25    1.63
  -1  12  -1    9.54    1.03
   1  12   1   11.32    1.56
   1  12   1    9.11    1.07
   1 -12   1    6.95    1.20
  -1 -12  -1   10.90    1.60
   1 -12   1    6.73    0.96
   1  12   2    0.24    0.96
   1  12   2    0.69    0.60
  -1  12  -2    0.81    1.04
   1  12   2    0.25    0.52
  -1 -12  -2   -0.08    0.83
   1 -12   2   -0.20    0.85
  -1  12  -3    2.25    0.83
   1  12   3    2.92    0.70
   1  12   3    2.85    0.98
   1 -12   3    1.63    0.85
   1  12   4    0.44    0.59
  -1  12  -4    0.01    0.65
   1  12   4    0.97    0.52
   1 -12   4    0.75    0.76
  -1  13   4   -0.29    0.53
   1  13  -4   -0.02    0.48
  -1  13   3   17.00    1.46
  -1  13   3   19.22    1.37
   1  13  -3   18.68    1.69
  -1 -13   3   15.39    1.46
  -1  13   2    4.71    0.73
   1  13  -2    3.76    1.01
  -1  13   2    3.30    0.65
  -1  13   2    3.88    0.87
   1 -13  -2    5.55    0.76
  -1 -13   2    2.14    0.84
  -1  13   1   32.17    2.11
   1  13  -1   31.44    2.51
  -1  13   1   28.49    2.15
   1 -13  -1   31.97    2.30
  -1 -13   1   31.24    2.35
  -1  13   0    5.12    0.72
   1  13   0    7.96    0.87
  -1  13   0    7.96    1.24
   1 -13   0    5.13    0.89
   1  13   1   16.43    1.37
   1  13   1   11.79    1.52
  -1  13  -1   17.57    1.71
   1 -13   1   15.66    1.43
   1 -13   1   14.90    1.35
  -1 -13  -1   15.94    1.71
   1  13   2    3.83    1.03
   1  13   2    2.04    0.61
  -1  13  -2    4.86    1.05
   1 -13   2    3.38    0.81
  -1 -13  -2    1.11    0.74
   1  13   3    1.85    0.76
  -1  13  -3    1.30    0.73
   1  13   3    1.45    0.54
   1 -13   3    1.31    0.69
  -1 -13  -3    1.33    0.71
   1  13   4    5.37    0.83
   1 -13   4    5.28    0.97
  -1  14   2    2.81    0.53
   1  14  -2    1.64    0.72
  -1 -14   2    1.64    0.64
   1  14  -1    8.17    1.06
  -1  14   1   10.78    0.94
   1 -14  -1   11.11    1.04
  -1 -14   1   10.67    1.23
   1 -14  -1   10.95    1.01
   1  14   0   25.35    1.79
  -1  14   0   27.95    1.82
  -1  14   0   29.08    2.14
  -1 -14   0   25.37    2.08
   1 -14   0   31.05    1.91
   1 -14   0   28.89    1.96
   1  14   1    4.20    0.62
  -1  14  -1    3.75    0.83
   1 -14   1    6.35    0.82
  -1  14  -2    0.35    0.60
   1  14   2    0.10    0.41
   1 -14   2    0.26    0.56
  -1 -14  -2   -0.03    0.57
  -2   0   8   12.29    1.54
  -2   0   7    0.19    1.29
  -2   0   6    1.60    1.51
  -2   0   5   -0.49    0.61
  -2   0   5   -0.19    0.96
  -2   0   5   -0.39    1.21
  -2   0   4  404.45   23.17
  -2   0   3   -0.10    0.18
  -2   0   3   -0.10    0.25
  -2   0   2   94.54    5.16
  -2   0   2   85.83    5.17
   2   0  -2   88.04    5.20
  -2   0   1    0.39    0.18
   2   0  -1   -0.11    0.21
  -2   0   0  298.79   18.97
   2   0   0  368.70   19.16
  -2   0  -1   -0.26    0.12
   2   0   1   -0.12    0.30
  -2   0  -2   29.27    1.75
   2   0   2   29.35    1.89
   2   0   2   31.40    2.03
   2   0   3    0.12    0.31
   2   0   4  682.48   38.99
   2   0   5    0.35    0.57
   2   0   5    0.28    1.18
   2   0   5   -0.54    0.97
   2   0   5   -0.84    0.94
   2   0   6  536.27   30.88
   2   0   6  549.77   30.58
   2   0   6  504.62   30.45
   2   0   7    0.35    0.69
   2   0   7   -0.45    1.39
   2   0   8    0.68    0.69
  -2   1   8   -0.43    0.86
  -2  -1   8    1.09    1.08
  -2   1   7    9.27    1.86
  -2  -1   7    8.12    1.61
  -2  -1   7    8.90    1.73
  -2   1   6   85.48    5.69
  -2  -1   6   85.61    5.80
  -2  -1   6   85.16    5.74
  -2   1   5   15.32    1.80
  -2  -1   5   13.23    1.73
  -2  -1   5   15.92    1.32
  -2  -1   5   15.85    2.02
  -2   1   4   -0.51    0.36
  -2  -1   4    0.04    0.36
  -2   1   3    2.74    0.33
  -2   1   3    2.98    0.41
  -2  -1   3    3.90    0.48
  -2   1   2  256.82   14.71
   2   1  -2  260.77   14.80
  -2   1   2  265.79   14.71
  -2  -1   2  243.59   14.73
  -2  -1   2  271.91   14.71
   2  -1  -2  248.52   14.72
  -2   1   1   74.72    4.57
   2   1  -1   78.75    4.72
  -2   1   1   75.25    4.61
   2  -1  -1   86.75    4.74
  -2  -1   1   85.38    4.62
  -2   1   0  310.95   19.51
   2   1   0  367.67   19.69
   2  -1   0  347.61   19.67
  -2  -1   0  347.24   19.51
  -2   1  -1   43.42    2.35
  -2  -1  -1   35.51    2.32
   2  -1   1   44.31    2.57
   2  -1   1   39.10    2.39
   2   1   3   11.39    1.00
   2  -1   3   12.02    0.99
   2  -1   4  189.64   11.05
   2   1   5   17.85    2.21
   2   1   5   20.07    1.92
   2   1   5   18.57    1.84
   2  -1   5   21.03    1.96
   2  -1   5   19.75    2.38
   2  -1   5   17.40    1.56
   2   1   6   59.13    4.55
   2   1   6   59.86    3.98
   2  -1   6   55.84    3.89
   2  -1   6   60.92    4.55
   2  -1   6   66.52    4.17
   2   1   7    0.00    0.66
   2   1   7    1.08    1.40
   2  -1   7    0.73    1.47
   2  -1   7   -0.11    0.67
   2  -1   8   27.86    2.12
  -2  -2   8    0.37    1.02
  -2  -2   8   -0.20    0.69
  -2   2   7   17.05    2.24
  -2  -2   7   20.09    2.30
  -2  -2   7   18.72    2.21
  -2   2   6    2.79    1.46
  -2  -2   6    2.85    1.27
  -2  -2   6    1.36    1.25
  -2  -2   6    1.57    1.36
  -2   2   5    1.16    1.40
  -2  -2   5    0.99    1.05
  -2  -2   5    2.81    0.98
  -2  -2   5    1.12    0.53
  -2  -2   5    1.45    1.27
  -2   2   4    1.96    0.29
  -2  -2   4    2.39    0.49
  -2   2   3   23.12    1.48
  -2   2   3   23.71    1.86
  -2  -2   3   25.00    1.60
  -2   2   2   89.89    5.11
   2   2  -2   90.15    5.25
  -2   2   2   78.43    5.10
   2  -2  -2   93.65    5.15
  -2  -2   2   89.81    5.17
   2   2  -1  307.68   17.18
  -2   2   1  291.06   17.04
   2  -2  -1  298.72   17.15
   2   2   0  369.49   19.97
  -2   2   0  331.90   19.79
   2  -2   0  343.15   19.94
   2   2   1   50.43    2.95
   2  -2   1   43.98    2.75
   2  -2   1   46.44    2.92
   2   2   2   18.07    1.28
   2  -2   2   15.84    1.27
   2  -2   2   15.87    1.11
   2  -2   3  168.52    9.77
   2   2   4   35.10    2.46
   2  -2   4   39.18    2.45
   2   2   5    4.72    1.15
   2   2   5    6.02    1.79
   2  -2   5    4.89    0.83
   2  -2   5    7.42    1.71
   2  -2   5    3.50    1.01
   2   2   6   58.44    4.55
   2   2   6   55.00    3.90
   2  -2   6   55.81    3.79
   2  -2   6   60.09    4.42
   2  -2   6   64.76    4.10
   2   2   7    0.43    0.74
   2   2   7   -0.39    1.62
   2  -2   7    1.33    1.46
   2  -2   8    1.67    0.74
  -2  -3   8    8.27    1.33
  -2  -3   8    8.53    1.23
  -2   3   7    1.75    1.52
  -2  -3   7    1.87    1.20
  -2  -3   7    2.00    1.43
  -2   3   6   -0.92    1.59
  -2  -3   6    1.49    1.55
  -2  -3   6    1.10    1.44
  -2  -3   6    0.02    1.27
  -2   3   5   25.90    2.61
  -2  -3   5   24.01    2.38
  -2  -3   5   28.09    2.64
  -2  -3   5   28.70    2.41
  -2  -3   5   26.95    1.93
  -2  -3   4   28.09    1.92
  -2   3   3   59.91    3.55
  -2  -3   3   61.29    3.67
   2   3  -2  145.36    8.16
  -2   3   2  138.72    7.96
  -2  -3   2  137.84    8.03
   2  -3  -2  131.97    8.01
  -2   3   1   79.02    4.78
   2   3  -1   81.91    4.95
   2  -3  -1   87.33    4.90
  -2   3   0   25.58    1.58
   2   3   0   26.46    1.77
   2  -3   0   26.92    1.73
   2   3   1   23.24    1.58
   2  -3   1   21.85    1.38
   2  -3   1   22.97    1.57
   2  -3   2   13.51    0.97
   2  -3   2   14.46    1.16
   2  -3   3   49.86    3.06
   2   3   4    3.10    0.70
   2  -3   4    4.17    0.65
   2   3   5   15.63    3.03
   2   3   5   17.98    1.78
   2  -3   5   18.96    2.19
   2  -3   5   21.29    1.96
   2  -3   5   17.93    1.65
   2   3   6    2.05    1.09
   2  -3   6    4.27    1.47
   2  -3   6    1.57    1.14
   2   3   7   20.03    1.69
   2  -3   7   20.06    2.25
   2  -3   7   21.69    1.70
   2  -3   8    0.32    0.81
  -2  -4   8    0.42    1.18
  -2  -4   8    1.35    0.79
  -2  -4   7    4.84    1.40
  -2  -4   7    6.55    1.45
  -2  -4   7    4.78    1.27
  -2   4   6   11.00    2.21
  -2  -4   6   13.36    2.12
  -2  -4   6   14.21    2.00
  -2  -4   6   11.05    1.84
  -2  -4   5   14.12    2.10
  -2  -4   5   12.09    1.76
  -2  -4   5    8.83    1.09
  -2  -4   5   10.29    1.91
  -2  -4   4  125.94    8.84
  -2  -4   4  162.88    8.52
  -2   4   3   53.56    3.18
  -2   4   3   50.34    3.30
  -2  -4   3   58.08    3.35
  -2   4   2    8.46    0.67
   2  -4  -2    8.92    0.72
  -2  -4   2    8.49    0.78
   2   4  -1   11.12    1.03
  -2   4   1   11.22    0.82
   2  -4  -1   13.39    0.95
   2   4   0  280.44   16.40
  -2   4   0  279.46   16.19
   2  -4   0  292.31   16.37
   2   4   1    0.04    0.26
   2  -4   1    0.17    0.25
   2  -4   1    0.10    0.14
   2  -4   2   70.93    4.40
   2  -4   2   71.57    4.19
   2  -4   3    3.46    0.50
   2   4   4    2.66    0.70
   2  -4   4    0.91    1.02
   2  -4   4    1.52    1.08
   2  -4   4    1.71    0.50
   2  -4   4    2.64    1.01
   2   4   5   45.13    3.09
   2  -4   5   45.00    3.17
   2  -4   5   43.12    3.49
   2   4   6   17.13    1.91
   2  -4   6   20.58    2.01
   2  -4   6   20.94    2.40
   2   4   7    1.57    0.74
   2  -4   7    1.47    0.70
   2  -4   7    3.04    1.29
  -2  -5   8   19.15    1.78
  -2  -5   7    9.06    1.48
  -2  -5   7    7.49    1.42
  -2  -5   6   19.28    2.57
  -2  -5   6   15.83    2.11
  -2  -5   6   18.78    2.27
  -2  -5   5    4.43    1.57
  -2  -5   5    6.27    1.55
  -2  -5   5    5.25    1.44
  -2  -5   4    1.99    1.25
  -2  -5   4    4.70    1.21
  -2  -5   4    3.92    1.20
  -2  -5   4    5.61    0.79
  -2  -5   4    6.13    1.45
  -2   5   3   36.56    2.41
  -2   5   3   36.65    2.28
  -2  -5   3   39.55    2.47
  -2   5   2  632.01   36.27
  -2   5   2  635.62   36.43
   2  -5  -2  650.00   36.40
  -2  -5   2  615.75   36.58
  -2  -5   2  656.45   36.41
   2   5  -1   30.78    2.19
  -2   5   1   32.02    1.94
   2  -5  -1   32.05    2.08
  -2   5   0   51.54    3.07
   2   5   0   54.45    3.34
   2  -5   0   50.55    3.25
   2   5   1   29.77    2.01
   2   5   1   30.57    2.12
   2  -5   1   31.76    2.10
   2   5   2  128.78    7.38
   2  -5   2  127.67    7.32
   2  -5   2  122.73    7.56
   2   5   3   11.74    0.95
   2  -5   3   11.70    0.95
   2   5   4   45.44    3.19
   2  -5   4   45.90    3.21
   2  -5   4   46.82    2.97
   2  -5   4   48.66    3.47
   2   5   5   -0.12    1.03
   2  -5   5    0.50    1.20
   2  -5   5    0.87    1.30
   2   5   6    1.03    1.00
   2  -5   6    1.87    1.29
   2  -5   6    2.44    1.09
   2   5   7    0.40    0.64
   2  -5   7    0.79    0.62
   2  -5   7    0.97    1.10
  -2  -6   7    4.18    1.34
  -2  -6   7    4.99    1.17
  -2  -6   6   15.31    2.14
  -2  -6   6   11.25    2.02
   2   6  -5    0.30    0.99
  -2  -6   5    0.30    1.47
  -2  -6   5   -0.67    1.29
  -2   6   4   58.33    3.63
  -2  -6   4   59.80    3.71
  -2  -6   4   55.85    4.02
  -2  -6   4   62.91    4.31
  -2  -6   4   54.27    4.29
  -2   6   3    0.22    0.47
  -2  -6   3    0.38    0.47
  -2   6   2   57.39    3.41
  -2   6   2   58.07    3.57
  -2  -6   2   58.28    3.56
  -2  -6   2   53.58    3.75
   2  -6  -2   58.70    3.54
  -2   6   1    5.32    0.70
  -2   6   1    5.69    0.57
   2  -6  -1    5.08    0.66
   2   6   0  369.51   21.28
   2   6   0  342.83   21.47
  -2   6   0  382.64   21.36
  -2   6   0  389.40   21.20
   2  -6   0  374.64   21.43
   2   6   1  104.80    5.55
  -2   6  -1   82.12    5.60
   2   6   2    8.79    0.75
   2  -6   2    6.91    0.90
   2   6   3   40.87    2.71
   2   6   3   51.36    3.21
   2  -6   3   42.10    2.99
   2  -6   3   41.06    2.87
   2   6   4    1.73    1.07
   2  -6   4    1.63    0.64
   2  -6   4    3.31    1.37
   2  -6   4    4.35    1.14
   2   6   5    2.87    1.13
   2  -6   5    4.15    1.51
   2  -6   5    3.47    1.31
   2   6   6   30.19    2.41
   2  -6   6   29.09    2.69
   2  -6   6   32.79    2.47
   2   6   7    1.35    0.63
   2  -6   7    1.31    0.47
   2  -6   7    2.60    0.98
  -2  -7   7   -0.67    0.93
  -2  -7   7    1.01    0.91
  -2  -7   6    8.93    1.70
  -2  -7   6    6.30    1.40
   2   7  -5    6.74    1.38
  -2  -7   5    9.24    2.03
  -2  -7   5    6.92    1.69
  -2   7   4    2.41    0.67
   2   7  -4    3.36    1.11
  -2  -7   4    2.61    1.38
  -2  -7   4    2.04    1.47
  -2  -7   4    2.49    1.49
  -2   7   3   23.86    1.70
  -2   7   3   20.71    1.72
  -2   7   3   21.53    1.60
   2   7  -3   22.03    2.07
  -2  -7   3   21.60    2.21
  -2  -7   3   23.41    2.29
  -2  -7   3   20.47    2.10
  -2  -7   3   25.47    1.77
  -2   7   2   14.12    1.21
  -2   7   2   13.10    1.02
  -2  -7   2   13.65    1.21
  -2   7   1    3.11    0.45
  -2   7   1    3.45    0.67
  -2   7   0    1.98    0.53
   2   7   0    2.12    0.42
  -2   7   0    2.37    0.36
   2   7   1   27.11    1.80
  -2   7  -1   26.23    1.85
   2   7   2    1.81    0.42
   2  -7   2    1.32    0.41
   2   7   3   37.22    2.76
   2   7   3   37.41    2.43
  -2   7  -3   36.41    2.70
   2  -7   3   37.63    2.71
   2   7   4   11.45    1.26
   2   7   4   11.22    1.49
   2  -7   4   10.81    1.49
   2   7   5   15.14    1.85
   2  -7   5   17.53    2.26
   2  -7   5   18.14    1.96
   2   7   6    2.68    0.93
   2  -7   6    2.30    1.26
   2  -7   6    4.63    0.98
   2   7   7   11.02    0.98
   2  -7   7   12.51    1.62
  -2  -8   6    0.06    1.11
  -2  -8   6    1.07    1.45
   2   8  -5    8.34    1.39
  -2  -8   5    9.02    1.78
  -2  -8   5   14.65    2.33
  -2   8   4   40.58    2.66
   2   8  -4   32.05    2.85
  -2   8   4   32.95    2.39
  -2  -8   4   32.77    3.04
  -2  -8   4   36.43    3.12
  -2   8   3   67.34    4.10
  -2   8   3   67.60    4.19
  -2   8   3   74.27    4.26
   2   8  -3   66.45    4.53
  -2  -8   3   68.95    4.75
  -2  -8   3   67.72    4.75
  -2  -8   3   61.83    4.57
  -2  -8   3   62.20    4.33
   2   8  -2    4.95    1.25
  -2   8   2    3.88    0.66
  -2   8   2    5.18    0.92
  -2   8   2    4.64    0.79
  -2  -8   2    4.68    0.79
  -2  -8   2    4.92    1.35
  -2  -8   2    3.64    0.96
  -2   8   1    7.17    0.82
  -2   8   1   11.45    1.36
  -2   8   1    6.75    0.74
  -2   8   1    8.14    1.02
   2   8   0    3.31    0.52
  -2   8   0    3.56    1.43
  -2   8   0    4.20    0.72
  -2   8   0    3.63    0.47
  -2   8   0    4.99    0.71
  -2   8  -1   29.79    2.22
   2   8   1   36.39    2.21
  -2   8  -1   33.45    2.55
  -2   8  -1   31.19    2.42
   2  -8   1   33.79    2.43
   2   8   2   36.43    2.71
   2   8   2   39.72    2.47
   2   8   2   36.26    2.50
  -2   8  -2   37.67    2.83
   2  -8   2   39.86    2.74
   2  -8   2   34.59    2.40
   2   8   3  116.90    6.99
   2   8   3  113.78    7.20
   2   8   3  116.18    7.03
  -2   8  -3  121.49    7.25
   2  -8   3  120.58    7.22
   2   8   4    0.61    0.65
   2   8   4   -0.02    1.05
   2  -8   4    0.39    1.01
   2   8   5    1.05    0.99
   2  -8   5    3.49    1.18
   2   8   6    3.46    0.78
   2  -8   6    4.19    0.88
  -2  -9   6   28.73    2.29
   2   9  -5    1.07    1.02
  -2  -9   5    0.72    1.17
  -2  -9   5    3.67    1.71
  -2   9   4    1.81    0.87
  -2   9   4    0.35    0.64
   2   9  -4    2.37    1.20
  -2   9   4    1.58    0.65
  -2  -9   4    3.98    1.80
  -2  -9   4    0.45    1.42
  -2   9   3  106.38    6.46
   2   9  -3  110.33    6.86
  -2   9   3  106.49    6.33
  -2   9   3  103.43    6.44
  -2  -9   3  119.87    6.70
  -2  -9   3  103.51    6.82
  -2  -9   3   94.58    6.83
  -2   9   2   52.71    3.36
   2   9  -2   46.21    3.57
  -2   9   2   49.75    3.14
  -2   9   2   52.72    3.30
  -2  -9   2   48.99    3.43
  -2  -9   2   46.63    3.68
  -2   9   1   57.08    3.57
  -2   9   1   55.63    3.48
  -2   9   1   53.20    3.39
  -2   9   1   52.03    3.30
   2   9  -1   52.52    3.85
  -2   9   1   55.15    3.71
   2   9  -1   48.51    3.48
   2  -9  -1   60.16    3.61
  -2  -9   1   52.77    3.69
  -2  -9   1   53.85    3.52
  -2   9   0   18.41    2.00
   2   9   0   20.03    1.46
  -2   9   0   19.15    1.36
  -2   9   0   18.57    1.43
  -2   9   0   19.96    1.58
  -2   9   0   18.43    1.69
   2   9   0   18.42    1.46
   2  -9   0   19.52    1.64
  -2   9  -1   11.86    1.11
  -2   9  -1   11.74    1.01
   2   9   1   12.64    1.15
  -2   9  -1   11.46    1.58
   2   9   1   12.11    1.21
   2   9   1   10.54    1.46
   2  -9   1   11.76    1.30
   2  -9   1   13.04    1.11
  -2   9  -2   10.24    1.54
   2   9   2    9.03    1.12
   2   9   2   10.82    1.53
   2   9   2   10.42    1.05
   2  -9   2    9.29    1.08
   2  -9   2   10.22    1.41
   2   9   3   20.49    2.09
   2   9   3   21.06    1.77
  -2   9  -3   22.10    2.13
   2  -9   3   21.72    2.06
  -2   9  -4   82.31    5.19
   2   9   4   78.58    5.26
   2   9   4   82.16    5.00
   2  -9   4   83.33    5.32
   2   9   5   13.52    1.49
   2  -9   5   13.03    1.55
   2  10  -5   21.01    2.03
  -2 -10   5   23.54    2.35
  -2  10   4   64.71    3.89
   2  10  -4   62.53    4.26
  -2  10   4   61.95    3.75
  -2  10   4   58.56    3.83
  -2 -10   4   56.58    4.34
   2  10  -3   26.58    2.64
  -2  10   3   24.64    1.86
  -2  10   3   25.56    2.01
  -2  10   3   24.88    1.98
  -2 -10   3   25.15    2.34
  -2  10   2   10.56    1.34
  -2  10   2   12.53    1.53
   2  10  -2   16.27    2.06
  -2  10   2   12.31    1.27
  -2 -10   2   12.01    1.73
  -2 -10   2   11.22    1.85
  -2  10   1    9.16    1.07
  -2  10   1    8.29    1.10
  -2  10   1    9.40    1.36
   2  10  -1    8.31    1.53
   2  10  -1    6.24    1.06
  -2 -10   1    9.19    1.39
   2 -10  -1    9.49    1.22
  -2  10   0   27.78    2.41
  -2  10   0   29.15    2.15
   2  10   0   28.78    2.06
  -2  10   0   29.23    2.02
   2 -10   0   28.39    2.24
  -2  10  -1   30.23    2.04
   2  10   1   29.55    2.08
   2  10   1   27.53    2.11
   2  10   1   28.81    2.38
  -2  10  -1   27.70    2.46
   2 -10   1   30.56    2.33
   2 -10   1   26.60    2.04
   2  10   2   65.66    4.56
  -2  10  -2   71.30    4.67
   2  10   2   70.76    4.42
   2 -10   2   74.87    4.57
   2 -10   2   67.50    4.32
   2  10   3    1.40    0.72
  -2  10  -3    1.07    1.07
   2  10   3    1.52    1.12
   2 -10   3    1.28    1.10
   2  10   4   14.08    1.35
  -2  10  -4   12.80    1.52
   2  10   4   10.85    1.61
   2 -10   4   14.22    1.73
   2  10   5   26.45    1.98
   2 -10   5   23.55    1.96
   2  10   6    1.01    0.64
   2  11  -5   19.91    1.74
   2  11  -4    4.32    1.11
  -2  11   4    3.51    0.68
  -2  11   4    4.96    0.90
  -2  11   4    5.21    0.73
  -2  11   3   18.57    1.71
  -2  11   3   19.18    1.54
  -2  11   3   19.09    1.63
   2  11  -3   19.68    2.22
  -2 -11   3   17.96    1.87
  -2  11   2   40.28    2.85
   2  11  -2   40.71    3.28
  -2  11   2   39.78    2.84
  -2  11   2   40.21    2.70
  -2 -11   2   42.53    3.08
   2  11  -1   13.79    2.06
  -2  11   1   14.77    1.77
  -2  11   1   14.17    1.88
  -2  11   1   14.73    1.38
  -2  11   1   14.60    1.53
  -2 -11   1   15.31    1.95
   2 -11  -1   15.56    1.54
  -2  11   0    9.27    1.05
   2  11   0    7.84    1.05
  -2  11   0    7.28    1.04
  -2  11   0    8.94    1.43
   2 -11   0    8.53    1.22
  -2 -11   0    9.76    1.51
   2  11   1   99.93    5.93
  -2  11  -1   99.00    6.16
  -2  11  -1   97.42    5.79
   2  11   1   89.07    6.03
   2 -11   1   97.86    5.84
   2 -11   1   98.80    6.04
   2  11   2    2.05    0.70
  -2  11  -2    3.31    1.05
   2  11   2    3.10    1.12
   2 -11   2    3.06    0.71
   2 -11   2    4.58    1.18
   2  11   3   53.59    3.94
   2  11   3   62.75    3.80
  -2  11  -3   62.64    4.00
   2 -11   3   59.39    3.97
   2  11   4   35.83    2.24
   2  11   4   28.49    2.41
  -2  11  -4   31.42    2.31
   2 -11   4   33.21    2.42
   2  11   5    0.67    0.57
   2 -11   5    1.05    0.61
   2  12  -5   -0.09    0.56
  -2  12   4    0.62    0.46
  -2  12   4    0.70    0.46
   2  12  -4    0.39    0.83
   2  12  -3   10.87    1.63
  -2  12   3    9.44    1.27
  -2  12   3   10.70    1.06
  -2  12   3   10.88    1.13
  -2 -12   3   10.24    1.38
  -2  12   2   -0.21    0.65
   2  12  -2   -0.80    1.09
  -2  12   2   -0.68    0.56
  -2  12   2    0.48    0.92
  -2 -12   2   -0.02    0.87
  -2  12   1   14.95    1.26
  -2  12   1   11.17    1.34
   2  12  -1    8.86    1.54
  -2  12   1   13.16    1.66
   2 -12  -1   12.52    1.37
  -2 -12   1   12.89    1.70
   2  12   0   20.94    1.64
  -2  12   0   21.38    2.11
  -2  12   0   21.51    1.76
  -2  12   0   20.97    1.59
  -2 -12   0   21.99    2.17
   2 -12   0   21.07    1.67
   2 -12   0   19.29    1.76
  -2  12  -1    1.53    0.60
  -2  12  -1    0.73    0.94
   2  12   1    0.14    0.55
   2  12   1    0.90    0.96
   2 -12   1    1.28    0.81
   2 -12   1    0.56    0.64
  -2 -12  -1    0.24    1.05
  -2  12  -2   -0.18    0.90
   2  12   2   -0.21    0.58
   2  12   2   -1.23    0.78
   2 -12   2   -0.55    0.68
   2 -12   2    0.17    0.83
   2  12   3   13.13    1.60
   2  12   3   16.65    1.40
  -2  12  -3   16.91    1.53
   2 -12   3   13.06    1.58
   2  12   4    3.72    0.58
   2  12   4    1.05    0.69
  -2  12  -4    0.97    0.55
   2 -12   4    2.05    0.63
   2  13  -4    0.65    0.79
  -2  13   3    4.79    0.61
   2  13  -3    3.17    0.81
   2 -13  -3    2.63    0.51
  -2 -13   3    2.35    0.92
  -2  13   2    2.39    0.63
  -2  13   2    4.68    1.09
   2  13  -2    1.79    1.01
   2 -13  -2    3.63    0.63
  -2 -13   2    2.41    0.88
   2  13  -1    0.74    0.98
  -2  13   1   -0.42    0.51
  -2  13   1   -0.74    0.52
  -2  13   1   -0.04    1.17
  -2 -13   1   -0.02    0.85
   2 -13  -1    0.22    0.51
   2 -13  -1    0.32    0.79
  -2  13   0    4.89    0.66
  -2  13   0    5.12    1.07
   2  13   0    4.01    0.64
   2 -13   0    5.95    0.77
   2 -13   0    3.12    0.80
  -2 -13   0    3.68    0.94
   2  13   1   39.44    2.88
   2  13   1   52.01    2.87
  -2  13  -1   42.94    2.99
   2 -13   1   39.93    2.90
   2 -13   1   46.05    2.80
  -2 -13  -1   41.38    3.07
   2  13   2    1.87    0.91
   2  13   2    0.94    0.53
  -2  13  -2    2.39    0.79
   2 -13   2    2.27    0.66
  -2 -13  -2    0.76    0.80
   2  13   3    0.61    0.66
  -2  13  -3    1.52    0.66
   2  13   3    0.37    0.49
  -2 -13  -3    0.69    0.63
   2 -13   3    0.27    0.65
  -2  14   2   13.25    0.99
  -2  14   1   22.61    1.59
  -2 -14   1   23.26    1.81
   2 -14  -1   25.92    1.74
  -2  14   0   24.60    1.60
   2  14   0   23.65    1.69
  -2  14   0   22.80    1.85
  -2 -14   0   28.19    1.92
   2 -14   0   23.72    1.67
  -2  14  -1    0.60    0.64
   2  14   1    0.00    0.39
  -2 -14  -1    0.35    0.56
   2 -14   1   -0.02    0.55
  -2  14  -2   12.61    1.20
   2  14   2   16.77    1.25
  -2 -14  -2   15.52    1.18
  -3   0   8    5.14    1.19
  -3   0   7    0.66    1.37
  -3   0   6    0.83    1.25
  -3   0   5    0.50    1.26
  -3   0   5    1.62    1.11
  -3   0   3   -0.41    0.24
   3   0  -3   -0.17    0.23
  -3   0   3   -0.19    0.37
   3   0  -2  493.33   28.28
  -3   0   2  515.49   28.17
  -3   0   2  474.87   28.15
  -3   0   1    0.24    0.22
   3   0  -1   -0.07    0.29
   3   0   0   79.54    4.64
  -3   0   0   71.99    4.38
   3   0   1   -0.31    0.32
  -3   0  -1    0.11    0.16
   3   0   2  362.43   20.92
   3   0   4    2.07    1.45
   3   0   4    2.09    0.63
   3   0   4    0.83    0.91
   3   0   5    0.38    1.53
   3   0   5   -0.03    0.95
   3   0   5   -1.24    0.99
   3   0   6   41.22    3.01
   3   0   6   44.35    3.80
   3   0   7    0.19    1.28
   3   0   7   -0.08    0.62
  -3   1   8   16.92    1.77
  -3  -1   8   17.32    1.75
  -3   1   7    3.56    1.64
  -3  -1   7    5.48    1.52
  -3   1   6    4.52    1.65
  -3  -1   6    1.91    1.37
  -3  -1   6    3.12    1.39
  -3  -1   6    1.95    1.32
  -3   1   5   48.94    3.76
  -3  -1   5   52.30    3.78
  -3  -1   5   52.06    3.53
  -3  -1   5   46.34    3.61
  -3   1   4   75.03    4.43
  -3  -1   4   75.11    4.58
   3   1  -3   11.44    0.99
  -3   1   3   14.08    0.93
  -3  -1   3   12.52    0.93
  -3  -1   3   12.08    0.96
   3   1  -2  113.51    6.73
  -3   1   2  112.83    6.58
  -3  -1   2  106.38    6.60
  -3  -1   2  119.92    6.60
   3  -1  -2  116.99    6.69
   3   1  -1   48.70    3.06
  -3   1   1   46.09    2.85
   3  -1  -1   52.09    3.05
  -3  -1   1   46.41    2.86
   3   1   0  310.42   17.18
  -3   1   0  292.40   16.91
   3  -1   0  299.17   17.14
  -3  -1   0  285.34   16.91
  -3   1  -1   81.58    4.77
   3   1   1   96.40    5.14
   3  -1   1   79.59    5.04
  -3  -1  -1   74.98    4.75
  -3   1  -2   14.36    0.86
   3   1   2   14.12    1.23
   3  -1   2   11.57    1.18
   3  -1   2   11.04    0.93
   3  -1   3    3.34    0.52
   3   1   4   48.12    3.05
   3   1   4   46.19    3.61
   3   1   4   46.66    2.95
   3   1   4   47.43    3.21
   3  -1   4   37.45    3.45
   3  -1   4   44.55    2.90
   3  -1   4   48.88    3.09
   3  -1   4   38.44    2.84
   3   1   5   16.11    1.64
   3   1   5   16.31    2.48
   3   1   5   15.37    1.75
   3  -1   5   14.99    1.75
   3  -1   5   17.39    2.50
   3   1   6   42.41    3.95
   3   1   6   47.61    3.18
   3  -1   6   48.82    3.10
   3  -1   6   37.82    3.65
   3  -1   6   50.83    3.24
   3   1   7    8.53    1.09
   3   1   7    8.01    1.56
   3  -1   7    8.39    1.03
   3  -1   7    9.89    1.87
  -3  -2   8    4.15    0.98
  -3   2   7   51.31    4.01
  -3  -2   7   58.52    4.00
  -3  -2   7   52.25    3.85
  -3   2   6    8.65    1.80
  -3  -2   6    3.52    1.56
  -3  -2   6    5.38    1.73
  -3  -2   6    4.37    1.46
  -3   2   5    2.01    1.40
  -3  -2   5    4.02    1.28
  -3  -2   5    1.72    1.12
  -3  -2   5    2.93    1.41
  -3   2   4    7.30    0.68
  -3  -2   4    7.48    1.35
  -3  -2   4    7.78    0.87
  -3   2   3   55.24    3.20
   3   2  -3   52.11    3.37
  -3  -2   3   53.77    3.29
   3   2  -2    1.08    0.40
  -3   2   2    0.94    0.28
  -3  -2   2    1.06    0.32
   3  -2  -2    0.86    0.31
  -3   2   1   67.44    3.79
   3   2  -1   63.96    4.00
  -3  -2   1   63.13    3.79
   3  -2  -1   64.12    3.96
   3   2   0   13.55    1.15
  -3   2   0   12.49    0.83
  -3  -2   0   10.98    0.81
   3  -2   0   11.16    1.04
  -3   2  -1   28.78    1.78
   3   2   1   33.01    2.16
   3  -2   1   27.39    2.04
  -3   2  -2  150.60    7.83
   3  -2   2  134.60    7.91
   3  -2   2  123.53    8.11
   3  -2   3   79.65    4.77
   3   2   4   11.80    1.29
   3   2   4    9.21    1.25
   3   2   4   15.10    2.46
   3  -2   4    8.21    1.22
   3  -2   4    8.93    1.01
   3  -2   4   10.21    1.03
   3  -2   4   10.96    1.68
   3   2   5   42.07    3.05
   3   2   5   41.12    2.91
   3   2   5   42.33    3.95
   3  -2   5   45.65    3.14
   3  -2   5   40.30    3.54
   3   2   6    2.86    1.89
   3   2   6    0.56    1.00
   3  -2   6    1.77    0.80
   3  -2   6    2.21    0.93
   3  -2   6    2.78    1.74
   3   2   7   13.20    1.65
   3   2   7   11.20    1.17
   3  -2   7   11.09    1.84
  -3  -3   8    1.45    0.92
  -3  -3   8    0.55    0.69
  -3   3   7    4.92    1.57
  -3  -3   7    5.34    1.43
  -3  -3   7    3.42    1.29
  -3  -3   7    4.67    1.36
  -3   3   6   19.92    2.70
  -3  -3   6   30.20    2.81
  -3  -3   6   28.76    2.49
  -3  -3   6   25.49    2.57
  -3   3   5   46.54    3.70
  -3  -3   5   48.35    3.53
  -3  -3   5   47.93    3.10
  -3  -3   5   50.68    3.72
  -3  -3   5   42.29    3.51
  -3   3   4   14.53    1.06
  -3  -3   4   15.03    1.26
  -3  -3   4   15.51    1.75
  -3  -3   4   13.96    1.94
  -3   3   3   24.74    1.55
  -3   3   3   22.72    1.65
  -3  -3   3   24.29    1.68
  -3   3   2   30.34    1.86
   3   3  -2   29.77    2.09
  -3  -3   2   28.90    1.94
   3  -3  -2   30.55    1.96
  -3   3   1   -0.20    0.20
   3   3  -1   -0.03    0.36
   3  -3  -1   -0.14    0.27
  -3   3   0  195.53   11.52
   3   3   0  210.90   11.83
   3  -3   0  197.84   11.74
  -3   3  -1  172.76   10.23
   3   3   1  194.40   10.60
   3  -3   1  169.41   10.49
  -3   3  -2    2.49    0.29
   3  -3   2    1.97    0.34
   3  -3   2    1.13    0.45
   3   3   3    2.90    0.73
   3  -3   3    1.10    0.47
   3  -3   3    1.36    0.40
   3   3   4   10.40    1.28
   3   3   4   12.93    2.50
   3   3   4    8.73    1.26
   3  -3   4   12.14    1.80
   3  -3   4    9.26    1.37
   3  -3   4    7.44    0.95
   3  -3   4    8.83    1.04
   3   3   5    0.21    1.07
   3   3   5   -0.97    1.60
   3  -3   5    1.13    1.29
   3  -3   5   -0.81    0.87
   3   3   6   -1.14    0.78
   3   3   6    0.75    1.73
   3  -3   6    0.33    1.49
   3  -3   6    0.08    0.85
   3  -3   6    0.81    0.75
   3   3   7   18.40    1.44
   3  -3   7   12.35    1.20
   3  -3   7   17.97    1.99
  -3  -4   7    6.66    1.32
  -3  -4   7   10.59    1.77
  -3  -4   7    8.88    1.65
  -3  -4   6   15.42    2.22
  -3  -4   6   15.40    2.11
  -3  -4   6   14.49    2.33
  -3  -4   5    2.45    1.48
  -3  -4   5    3.57    1.44
  -3  -4   5    1.84    1.46
  -3   4   4   83.12    5.30
  -3  -4   4   87.23    5.69
  -3  -4   4   93.39    5.37
  -3  -4   4   86.08    6.09
  -3  -4   4   89.80    5.73
  -3  -4   4   89.03    5.87
  -3   4   3    1.62    0.49
  -3   4   3    1.71    0.36
  -3  -4   3    1.64    0.50
  -3   4   2   84.74    4.64
   3   4  -2   79.68    4.93
  -3   4   2   82.52    4.80
   3  -4  -2   71.27    4.74
  -3  -4   2   78.15    4.75
  -3   4   1  108.41    6.34
   3   4  -1  105.19    6.63
  -3   4   1  121.14    6.66
   3  -4  -1  104.99    6.52
   3   4   0   62.20    4.01
  -3   4   0   60.34    3.69
   3  -4   0   66.63    3.95
   3   4   1    3.13    0.65
  -3   4  -1    2.38    0.30
   3  -4   1    1.86    0.47
   3  -4   2  200.90   11.84
   3   4   3   11.26    1.28
   3  -4   3   10.20    0.98
   3  -4   3   10.19    1.01
   3   4   4   -0.39    0.67
   3   4   4   -0.06    1.78
   3   4   4    2.88    0.99
   3  -4   4    0.45    0.78
   3  -4   4    1.37    1.39
   3  -4   4    2.15    1.01
   3  -4   4    0.21    0.46
   3   4   5    3.27    2.77
   3   4   5    4.44    1.22
   3  -4   5    5.83    1.54
   3  -4   5    4.57    1.25
   3   4   6   15.35    1.64
   3  -4   6   16.99    2.25
   3  -4   6   18.37    1.75
   3   4   7    0.40    0.49
   3  -4   7    0.29    0.43
   3  -4   7    1.01    0.39
  -3  -5   7    0.75    1.10
  -3  -5   7    1.11    1.06
  -3  -5   7   -0.21    0.99
  -3  -5   6  131.35    7.67
  -3  -5   6  122.53    7.75
  -3  -5   6  107.42    7.53
  -3  -5   5   26.44    2.48
  -3  -5   5   27.92    2.55
  -3  -5   5   19.79    2.54
  -3   5   4    5.49    0.89
  -3  -5   4    4.43    0.75
  -3  -5   4    7.48    1.46
  -3  -5   4    6.63    1.49
  -3  -5   4    4.44    1.51
  -3  -5   4    4.80    1.43
  -3   5   3   15.12    1.10
  -3   5   3   15.24    1.27
  -3  -5   3   15.51    1.31
  -3   5   2   48.87    3.00
  -3   5   2   50.68    2.82
   3  -5  -2   40.95    2.92
  -3  -5   2   46.18    2.96
   3   5  -1   37.76    2.64
  -3   5   1   38.79    2.51
  -3   5   1   38.86    2.30
   3  -5  -1   34.83    2.47
   3   5   0  505.27   29.94
  -3   5   0  545.51   29.78
  -3   5   0  532.50   29.57
   3  -5   0  495.17   29.82
  -3   5  -1   41.76    2.42
  -3   5  -1   38.46    2.61
   3  -5   1   39.64    2.70
   3   5   2   24.72    1.70
   3  -5   2   20.25    1.48
   3  -5   2   16.70    1.94
   3   5   3    1.41    0.71
   3   5   3    2.89    0.97
   3  -5   3    1.38    0.49
   3  -5   3    1.73    1.03
   3   5   4  122.74    7.35
   3  -5   4  114.81    7.26
   3  -5   4  122.02    7.52
   3   5   5   10.85    1.59
   3  -5   5   10.79    1.93
   3  -5   5   11.19    1.53
   3   5   6    2.99    0.92
   3  -5   6    2.80    1.30
   3  -5   6    2.72    0.93
   3   5   7    0.00    0.50
   3  -5   7    0.49    0.93
   3  -5   7    0.33    0.48
   3  -5   7    0.19    0.81
  -3  -6   7   10.31    1.61
  -3  -6   7   13.75    2.19
  -3  -6   7    8.24    1.53
  -3  -6   6   32.76    2.97
  -3  -6   6   32.01    2.89
  -3  -6   6   27.65    2.63
  -3  -6   5    9.55    1.84
  -3  -6   5   13.35    2.07
  -3  -6   5    9.11    1.70
  -3   6   4   44.62    2.93
  -3  -6   4   45.57    3.70
  -3  -6   4   46.43    3.70
  -3  -6   4   47.08    3.42
  -3  -6   4   40.48    3.37
  -3   6   3    1.90    0.60
  -3   6   3    1.24    0.39
  -3   6   3    0.73    0.50
  -3  -6   3    1.35    0.75
  -3  -6   3    0.79    0.53
  -3  -6   3    3.65    1.30
  -3  -6   3    1.74    1.06
  -3   6   2   32.40    2.26
  -3   6   2   31.20    2.01
  -3  -6   2   31.83    2.21
  -3   6   1    3.99    0.76
  -3   6   1    3.32    0.46
   3   6   0    4.00    0.78
  -3   6   0    4.02    0.44
  -3   6   0    3.42    0.70
  -3   6  -1    2.95    0.62
   3  -6   1    3.39    0.53
   3  -6   2  212.01   12.26
   3   6   3   20.43    1.88
   3  -6   3   19.16    1.54
   3  -6   3   21.84    1.95
   3   6   4    7.77    1.32
   3  -6   4    8.97    1.35
   3   6   5   26.01    2.36
   3  -6   5   23.27    2.66
   3  -6   5   33.79    2.46
   3   6   6    4.58    0.86
   3  -6   6    4.34    0.89
   3  -6   6    3.33    1.16
   3   6   7   -0.10    0.46
   3  -6   7    0.15    1.02
   3  -6   7   -0.20    0.32
  -3  -7   7    4.60    0.99
  -3  -7   7    3.50    0.96
   3   7  -6    0.54    0.87
  -3  -7   6    1.63    1.28
  -3  -7   6    0.71    1.22
   3   7  -5   19.35    2.21
  -3  -7   5   21.36    2.64
  -3  -7   5   20.35    2.66
  -3   7   4    0.45    0.65
  -3  -7   4    0.63    1.31
  -3  -7   4    0.60    1.33
  -3  -7   4    0.23    1.49
  -3   7   3    8.66    1.11
  -3   7   3    7.93    0.93
  -3  -7   3   11.00    1.88
  -3  -7   3    8.98    1.61
  -3  -7   3    7.17    1.06
  -3   7   2   21.63    1.64
  -3   7   2   17.63    1.90
  -3   7   2   20.31    1.36
  -3   7   2   19.00    1.40
  -3  -7   2   15.70    1.89
  -3  -7   2   21.14    1.62
  -3   7   1    1.04    0.37
  -3   7   1   -0.04    0.65
  -3   7   1    0.34    0.53
  -3   7   0    1.54    0.62
  -3   7   0    2.90    0.45
  -3   7  -1   28.85    2.09
  -3   7  -1   30.71    1.87
   3  -7   1   27.82    1.93
  -3   7  -2    9.85    0.84
   3   7   2    7.97    1.30
  -3   7  -2   12.58    1.50
   3  -7   2    9.35    0.94
   3  -7   2    9.57    1.25
  -3   7  -3   12.83    2.00
   3   7   3   12.78    1.65
   3  -7   3   10.97    1.56
   3  -7   3    9.82    1.07
   3   7   4   -0.60    1.06
   3   7   4    0.74    0.69
   3  -7   4    0.29    1.18
   3   7   5    0.05    0.91
   3  -7   5    0.56    1.04
   3   7   6    0.01    0.65
   3  -7   6    0.85    0.65
   3  -7   6    3.90    1.71
  -3  -8   7    3.04    0.94
   3   8  -6    0.87    0.81
  -3  -8   6    2.37    1.27
  -3  -8   6    2.67    1.20
   3   8  -5   19.52    2.13
  -3  -8   5   15.89    2.20
  -3  -8   5   18.91    2.60
  -3   8   4    7.25    1.03
   3   8  -4    7.68    1.66
  -3  -8   4    9.91    2.06
  -3  -8   4    7.35    1.93
  -3  -8   4    6.78    1.67
   3   8  -3    9.51    1.70
  -3   8   3    8.04    0.97
  -3   8   3    9.55    1.25
  -3  -8   3   12.87    1.99
  -3  -8   3   10.75    1.82
  -3  -8   3    9.95    2.05
  -3   8   2   26.12    2.36
  -3   8   2   26.93    1.88
  -3   8   2   27.86    2.15
  -3   8   2   30.62    2.18
   3   8  -2   30.84    2.71
  -3   8   2   28.95    1.98
  -3  -8   2   28.62    2.14
  -3  -8   2   28.78    2.63
  -3   8   1  101.62    6.36
  -3   8   1  103.95    6.26
  -3   8   1  103.58    6.11
   3   8  -1  100.85    6.54
  -3   8   1  114.54    6.38
  -3   8   1  102.32    6.06
  -3  -8   1   96.63    6.55
  -3   8   0   11.61    1.40
  -3   8   0   12.92    1.15
  -3   8   0   13.30    1.37
  -3   8   0   12.81    1.02
   3  -8   0   12.90    1.10
  -3   8  -1    1.23    0.50
  -3   8  -1    2.12    0.92
  -3   8  -1    0.92    0.36
   3  -8   1    2.47    0.83
   3  -8   1    1.64    0.50
   3   8   2   -0.20    1.06
  -3   8  -2   -0.64    0.97
   3  -8   2    0.76    0.88
   3  -8   2    0.42    0.50
  -3   8  -3    1.10    0.91
   3   8   3    0.58    1.08
   3  -8   3    0.62    0.61
   3  -8   3    0.09    1.11
   3   8   4   15.23    1.44
   3   8   4   12.80    1.82
   3  -8   4   15.07    1.95
   3   8   5   67.61    4.31
   3  -8   5   64.38    4.24
   3   8   6    0.45    0.70
   3  -8   6    0.07    0.52
  -3  -9   6    4.22    0.94
  -3  -9   6    7.30    1.44
   3   9  -5   54.51    3.95
  -3  -9   5   55.75    4.14
  -3  -9   5   61.49    4.27
  -3   9   4   24.74    2.11
   3   9  -4   27.67    2.67
  -3   9   4   26.23    2.02
  -3  -9   4   27.11    2.86
  -3  -9   4   25.72    2.73
  -3   9   3    4.93    1.00
  -3   9   3    6.73    1.21
   3   9  -3    7.37    1.69
  -3   9   3    6.45    0.91
  -3  -9   3    4.14    1.53
  -3  -9   3    4.96    1.75
  -3   9   2   39.77    2.72
  -3   9   2   34.18    2.92
  -3   9   2   38.51    2.74
  -3   9   2   37.88    2.52
   3   9  -2   36.74    3.12
  -3  -9   2   39.82    3.28
   3   9  -1   56.05    4.07
  -3   9   1   59.42    3.67
  -3   9   1   58.60    3.85
  -3   9   1   59.27    3.50
  -3   9   1   61.51    3.73
   3   9  -1   45.30    3.56
  -3  -9   1   50.87    4.02
  -3  -9   1   54.21    3.79
   3   9   0   52.77    3.46
  -3   9   0   54.51    3.68
  -3   9   0   54.03    3.59
  -3   9   0   53.70    3.38
   3  -9   0   54.37    3.42
  -3   9  -1  123.01    7.59
  -3   9  -1  128.28    7.32
   3  -9   1  118.92    7.33
   3  -9   1  125.23    7.48
   3   9   2   -0.33    0.70
  -3   9  -2   -0.06    1.04
   3   9   2    0.70    1.08
   3  -9   2    0.01    1.04
   3  -9   2    0.46    0.61
   3   9   3    0.67    0.78
   3   9   3    2.44    1.15
  -3   9  -3    0.43    0.96
   3  -9   3    0.28    0.63
   3  -9   3    1.53    1.07
   3   9   4    1.73    0.75
   3   9   4    1.39    0.98
   3  -9   4    1.88    1.11
   3   9   5    0.13    0.76
   3  -9   5    0.45    0.78
  -3 -10   6   -2.64    1.15
   3  10  -5    0.05    0.92
  -3 -10   5   -0.64    1.43
  -3 -10   5   -0.01    1.04
  -3  10   4   22.02    1.57
  -3  10   4   20.82    1.71
   3  10  -4   21.73    2.28
  -3 -10   4   18.90    2.68
  -3  10   3   12.74    1.44
   3  10  -3   14.07    2.04
  -3  10   3   12.23    1.42
  -3  10   3   13.36    1.29
  -3 -10   3   17.94    2.51
  -3  10   2   42.95    2.84
  -3  10   2   40.36    3.23
   3  10  -2   44.08    3.52
  -3  10   2   47.06    3.10
  -3  10   2   44.35    3.06
  -3 -10   2   41.75    3.49
  -3  10   1   31.45    2.15
  -3  10   1   30.30    2.34
   3  10  -1   28.40    2.81
  -3  10   1   30.42    2.57
  -3 -10   1   30.08    2.46
   3  10   0    8.48    1.11
  -3  10   0    8.96    1.06
  -3  10   0    9.00    1.38
  -3  10   0    7.37    1.10
   3 -10   0    9.05    1.11
  -3  10  -1   11.56    1.67
  -3  10  -1    8.24    1.03
   3 -10   1    8.41    1.15
   3 -10   1    9.51    1.33
  -3  10  -2   54.92    3.65
   3  10   2   53.96    3.49
   3  10   2   49.56    3.58
   3 -10   2   51.91    3.51
   3 -10   2   49.85    3.32
   3  10   3    7.71    1.09
   3  10   3    7.35    1.23
  -3  10  -3    8.66    1.30
   3 -10   3    9.86    1.39
   3 -10   3    4.61    1.03
   3  10   4   11.03    1.20
   3 -10   4   11.48    1.40
   3  10   5    2.61    0.72
   3 -10   5    2.03    0.57
   3  11  -5    1.78    0.62
  -3  11   4    3.00    1.06
  -3  11   4    3.79    0.62
   3  11  -4    3.88    1.15
  -3  11   3   24.08    1.71
   3  11  -3   22.79    2.28
  -3  11   3   22.67    1.88
  -3  11   2   43.93    3.08
  -3  11   2   46.17    3.30
   3  11  -2   41.55    3.47
  -3  11   2   45.62    2.87
  -3 -11   2   41.24    3.48
  -3  11   1   44.23    3.28
   3  11  -1   39.18    3.34
  -3  11   1   40.88    3.02
  -3  11   1   44.85    2.80
  -3 -11   1   41.50    3.16
   3 -11  -1   42.93    2.78
  -3  11   0   20.89    1.84
  -3  11   0   20.17    1.61
  -3  11   0   22.06    2.07
   3  11   0   20.25    1.69
   3 -11   0   21.87    1.68
  -3 -11   0   19.12    2.13
  -3  11  -1    8.62    1.05
   3  11   1    9.02    1.13
  -3  11  -1   10.06    1.49
   3 -11   1    8.71    1.14
   3 -11   1    6.61    1.11
   3  11   2    1.25    0.89
   3  11   2    0.78    0.64
  -3  11  -2    2.58    1.09
   3 -11   2    2.04    0.98
   3 -11   2    1.52    0.69
  -3  11  -3   43.48    2.90
   3  11   3   46.67    2.84
   3  11   3   40.07    2.84
   3 -11   3   36.62    2.88
   3  11   4   12.89    1.14
   3  11   4   11.21    1.21
  -3  12   4   12.12    1.07
   3  12  -4   10.33    1.33
  -3  12   3   33.99    2.68
   3  12  -3   26.76    2.40
  -3  12   3   27.81    1.86
   3 -12  -3   25.66    1.85
  -3  12   2    0.40    0.60
   3  12  -2    0.89    1.10
  -3  12   2    1.59    0.62
  -3 -12   2    2.01    1.25
   3 -12  -2    0.68    0.55
  -3  12   1   19.40    1.52
  -3  12   1   18.51    2.01
  -3  12   1   19.81    1.73
  -3 -12   1   18.66    1.79
   3 -12  -1   19.71    1.56
  -3  12   0    4.77    1.10
  -3  12   0    5.17    1.06
   3  12   0    3.60    0.69
  -3  12   0    4.50    0.74
  -3 -12   0    3.26    1.04
   3 -12   0    3.63    0.71
  -3  12  -1    0.15    0.89
  -3  12  -1    0.32    0.53
   3  12   1    0.01    0.62
   3 -12   1    0.08    0.72
   3 -12   1    0.29    0.59
  -3 -12  -1    0.58    0.98
   3  12   2   11.55    1.22
  -3  12  -2   10.57    1.39
   3 -12   2   10.54    1.27
   3 -12   2    9.72    1.06
  -3  12  -3    7.97    1.09
   3  12   3   10.09    1.12
   3  12   3    9.74    1.12
   3 -12   3    7.67    1.08
   3  12   4    2.38    0.65
   3 -12   4    0.49    0.53
   3  13  -3   19.76    1.66
  -3  13   3   21.93    1.41
  -3  13   2   -0.13    0.49
   3  13  -2   -0.56    0.82
   3 -13  -2    0.00    0.40
  -3  13   1    2.98    0.61
  -3  13   1    1.93    0.85
  -3 -13   1    2.56    0.82
   3 -13  -1    3.35    0.61
  -3  13   0    8.42    1.17
  -3  13   0    6.48    0.80
   3  13   0    6.28    0.85
   3 -13   0    7.78    0.87
  -3 -13   0    6.63    1.02
  -3  13  -1    7.47    1.19
   3  13   1    8.57    0.96
  -3 -13  -1    8.62    1.22
   3 -13   1    6.90    0.83
   3 -13   1    8.14    0.88
   3  13   2    2.34    0.59
  -3  13  -2    3.23    0.77
   3 -13   2    0.31    0.62
  -3 -13  -2    1.81    0.72
  -3  14   1   15.67    1.21
  -3  14   0   -0.09    0.64
  -3  14  -1    7.54    1.12
  -4   0   8   -0.01    0.93
  -4   0   7   -0.12    1.33
  -4   0   6    1.49    1.83
  -4   0   6    1.28    1.53
  -4   0   5    0.05    1.34
  -4   0   5    0.12    1.20
  -4   0   4   24.68    2.45
  -4   0   4   28.75    2.38
  -4   0   3   -0.01    0.34
   4   0  -3    0.05    0.31
   4   0  -2   69.97    4.43
  -4   0   2   73.50    4.25
   4   0  -1   -0.21    0.33
  -4   0   1   -0.23    0.26
  -4   0   0  133.24    7.67
   4   0   0  132.59    7.98
  -4   0  -1    0.01    0.21
   4   0   1    0.01    0.43
   4   0   2  195.74   11.90
   4   0   3    0.12    0.51
   4   0   4   67.28    4.26
   4   0   4   62.75    4.77
   4   0   4   67.64    4.16
   4   0   5    0.29    0.75
   4   0   5   -0.05    1.64
   4   0   5   -0.63    0.81
   4   0   5    0.26    0.84
   4   0   6    7.88    1.82
   4   0   6    7.33    1.07
   4   0   7   -0.05    0.48
   4   0   7    0.80    1.03
  -4  -1   8   -0.14    0.95
  -4   1   7    2.44    1.37
  -4  -1   7    3.16    1.41
  -4   1   6   71.34    5.10
  -4  -1   6   65.76    5.01
  -4  -1   6   77.69    4.88
  -4   1   5    0.42    1.40
  -4   1   5    1.61    1.30
  -4  -1   5    0.13    1.36
  -4  -1   5    0.93    1.46
  -4  -1   5    0.23    1.18
  -4   1   4    4.48    1.36
  -4   1   4    5.31    1.36
  -4  -1   4    4.80    1.34
  -4  -1   4    5.85    1.30
  -4   1   3  126.47    7.46
  -4   1   3  133.11    7.32
   4   1  -3  113.57    7.47
  -4  -1   3  130.14    7.34
   4   1  -2   23.17    1.75
  -4   1   2   23.83    1.54
   4  -1  -2   23.17    1.69
  -4  -1   2   22.67    1.56
  -4   1   1    6.47    0.62
   4   1  -1    6.65    0.88
   4  -1  -1    6.24    0.80
  -4  -1   1    6.45    0.65
  -4   1   0  247.59   14.16
   4   1   0  273.18   14.58
   4  -1   0  238.50   14.45
  -4  -1   0  233.18   14.17
   4   1   1   84.13    5.12
  -4   1  -1   82.19    4.71
   4  -1   1   77.35    5.04
   4  -1   2   26.18    2.02
   4   1   3   17.22    1.43
   4   1   3   14.11    2.70
   4  -1   3   16.77    1.40
   4   1   4   11.77    1.47
   4   1   4   13.45    1.42
   4   1   4   15.86    2.49
   4   1   4   15.19    1.40
   4  -1   4   17.18    1.41
   4  -1   4   15.06    2.26
   4  -1   4   13.55    1.46
   4   1   5    2.24    1.04
   4   1   5    3.25    2.09
   4   1   5    1.52    0.78
   4  -1   5    2.39    0.98
   4  -1   5    2.35    1.81
   4  -1   5    1.67    0.79
   4  -1   5    0.56    0.94
   4   1   6   32.84    2.89
   4   1   6   26.90    2.07
   4  -1   6   24.64    2.70
   4  -1   6   25.34    1.96
   4   1   7    8.00    0.81
   4   1   7    4.64    1.08
   4  -1   7    6.67    0.76
   4  -1   7    4.96    1.14
  -4   2   7   11.81    1.89
  -4  -2   7   10.61    1.69
  -4  -2   7    9.10    1.70
  -4   2   6    7.08    1.82
  -4  -2   6    7.33    1.57
  -4  -2   6    9.82    1.82
  -4  -2   6    3.90    1.57
  -4   2   5   84.68    5.77
  -4  -2   5   92.34    5.74
  -4  -2   5   88.17    5.86
  -4  -2   5   80.01    5.84
  -4   2   4   31.51    2.00
  -4   2   4   36.62    2.85
  -4   2   4   31.61    2.37
  -4  -2   4   26.19    2.39
  -4  -2   4   29.50    2.68
  -4   2   3   48.30    3.17
  -4   2   3   51.13    3.03
   4   2  -2    1.81    0.53
  -4   2   2    1.34    0.34
  -4   2   2    0.96    0.61
  -4  -2   2    1.43    0.39
  -4  -2   2    0.64    0.35
   4  -2  -2    1.30    0.41
  -4   2   1  117.35    6.49
   4   2  -1  107.09    6.82
  -4  -2   1  105.35    6.51
   4  -2  -1  117.93    6.75
  -4   2   0    1.50    0.29
   4   2   0    1.14    0.48
   4  -2   0    0.28    0.34
  -4  -2   0    0.69    0.26
  -4   2  -1    3.73    0.40
   4   2   1    4.11    0.79
   4  -2   1    4.62    0.76
   4   2   2    1.09    0.70
   4  -2   2    2.02    0.57
   4  -2   2    1.12    0.52
   4   2   3   10.06    1.29
   4   2   3   11.91    2.12
   4  -2   3    9.95    1.02
   4  -2   3   12.10    2.24
   4   2   4   29.94    3.07
   4   2   4   26.13    2.20
   4   2   4   28.56    2.15
   4  -2   4   28.01    2.02
   4  -2   4   27.27    2.71
   4  -2   4   27.36    2.25
   4   2   5   51.27    3.61
   4   2   5   59.86    4.50
   4   2   5   55.01    3.65
   4  -2   5   58.22    3.74
   4  -2   5   50.95    4.15
   4  -2   5   51.57    3.54
   4   2   6    9.56    1.16
   4   2   6    8.49    1.81
   4  -2   6    7.85    1.26
   4  -2   6    8.20    1.16
   4  -2   6    7.19    1.64
   4   2   7    0.12    0.46
   4   2   7   -0.08    0.66
   4  -2   7    1.33    1.01
   4  -2   7    0.56    0.47
  -4  -3   7    1.06    0.86
  -4  -3   7   -0.48    1.01
  -4  -3   7    2.01    1.10
  -4  -3   6    9.73    1.91
  -4  -3   6   11.91    2.09
  -4  -3   6   11.71    1.93
  -4  -3   5    4.76    1.52
  -4  -3   5    3.29    1.62
  -4  -3   5    2.52    1.41
  -4   3   4   19.50    1.41
  -4  -3   4   23.01    2.95
  -4  -3   4   19.88    2.15
  -4  -3   4   19.96    1.97
  -4   3   3  120.61    6.80
  -4   3   3  110.03    6.94
  -4  -3   3  118.78    6.92
  -4   3   2   63.23    3.52
  -4   3   2   56.21    3.74
   4   3  -2   60.07    4.03
   4  -3  -2   60.10    3.69
  -4  -3   2   54.61    3.60
  -4   3   1    3.65    0.75
  -4   3   1    7.06    0.61
   4   3  -1    6.83    0.95
   4  -3  -1    4.95    0.75
  -4   3   0   12.60    1.28
  -4   3   0   14.53    0.95
   4   3   0   14.98    1.42
   4  -3   0   11.52    1.19
  -4   3  -1   26.59    2.07
  -4   3  -1   31.84    1.79
   4   3   1   29.61    2.28
   4  -3   1   26.05    2.11
   4   3   2   54.23    3.48
  -4   3  -2   58.18    3.20
   4  -3   2   49.49    3.70
   4  -3   2   52.41    3.30
   4   3   3   62.11    4.08
   4   3   3   63.72    4.13
   4   3   3   73.15    5.14
   4  -3   3   58.62    4.42
   4  -3   3   65.86    3.94
   4  -3   3   62.69    4.10
   4   3   4   13.57    2.63
   4   3   4   15.08    1.56
   4   3   4   13.44    1.53
   4  -3   4   14.37    1.32
   4  -3   4   16.25    2.29
   4  -3   4   14.57    1.73
   4   3   5    8.96    2.36
   4   3   5    8.89    1.33
   4   3   5    7.20    1.24
   4  -3   5   11.07    2.00
   4  -3   5   11.01    1.56
   4   3   6    2.97    1.60
   4   3   6    2.21    0.76
   4  -3   6    2.03    0.75
   4  -3   6    2.40    1.39
   4  -3   6    2.61    0.70
   4   3   7    1.72    0.48
   4  -3   7    3.01    0.96
  -4  -4   7    2.31    0.98
  -4  -4   7    3.66    1.10
  -4  -4   7    2.80    1.16
  -4  -4   6   22.30    2.74
  -4  -4   6   26.17    2.52
  -4  -4   6   26.76    2.63
  -4  -4   5   10.46    2.32
  -4  -4   5   11.63    2.17
  -4  -4   5   14.26    2.17
  -4  -4   5   13.07    1.96
  -4   4   4  120.46    6.96
  -4  -4   4  128.25    7.17
  -4  -4   4  119.50    7.47
  -4  -4   4  108.72    7.54
  -4  -4   4  119.19    7.54
  -4   4   3    7.61    0.76
  -4   4   3    7.79    1.05
  -4  -4   3    6.60    0.93
  -4  -4   3    8.23    1.48
  -4   4   2  120.03    6.40
  -4   4   2  111.94    6.63
   4  -4  -2   97.76    6.60
  -4   4   1   20.91    1.36
   4   4  -1   19.59    1.76
  -4   4   1   19.87    1.64
  -4   4   0    1.26    0.30
   4   4   0    0.36    0.42
  -4   4   0    0.41    0.55
   4  -4   0    0.72    0.42
  -4   4  -1   24.91    1.55
  -4   4  -1   24.88    1.89
   4   4   1   26.75    2.78
   4  -4   1   22.26    1.65
   4   4   2  101.31    6.24
  -4   4  -2  104.57    5.96
   4  -4   2  101.58    6.06
   4   4   3   18.72    1.79
   4   4   3   20.26    1.81
   4  -4   3   18.06    1.76
   4  -4   3   18.59    2.21
   4  -4   3   18.72    1.48
  -4  -4  -3   18.70    2.61
   4   4   4   43.42    3.03
   4   4   4   42.30    3.06
   4   4   4   34.82    3.85
   4  -4   4   43.73    3.49
   4  -4   4   42.88    2.76
   4  -4   4   42.83    3.04
   4   4   5    7.70    1.29
   4  -4   5    9.22    1.45
   4  -4   5   11.27    1.90
   4   4   6    8.45    1.22
   4  -4   6    7.77    1.50
   4  -4   6   10.36    1.24
   4  -4   6    9.81    1.09
   4   4   7   -0.40    0.39
   4  -4   7   -0.14    0.39
   4  -4   7    0.42    0.81
  -4  -5   7   14.30    1.58
  -4  -5   7   12.62    1.47
  -4  -5   7   11.57    1.45
  -4  -5   6  166.20   10.51
  -4  -5   6  173.30   10.47
  -4  -5   6  177.72   10.66
  -4  -5   5    3.91    1.48
  -4  -5   5    3.11    1.76
  -4  -5   5    4.45    1.74
  -4  -5   5    4.50    1.87
  -4   5   4   69.01    4.34
  -4  -5   4   70.10    4.89
  -4  -5   4   68.28    4.80
  -4  -5   4   69.20    4.96
  -4   5   3   31.12    2.23
  -4   5   3   30.07    1.95
  -4  -5   3   30.88    2.16
  -4  -5   3   29.01    2.51
  -4  -5   3   26.98    2.47
  -4  -5   3   32.39    2.85
  -4   5   2  154.59    8.43
  -4   5   2  145.34    8.67
  -4  -5   2  136.42    8.59
  -4   5   1   33.85    2.11
  -4   5   1   35.65    2.47
   4  -5  -1   32.24    2.19
  -4   5   0   91.17    5.37
  -4   5   0   85.99    5.03
   4  -5   0   81.14    5.09
  -4   5  -1   11.77    0.88
  -4   5  -1   12.63    1.22
   4   5   1   11.10    1.36
   4  -5   1   10.36    0.98
   4   5   2   67.15    4.28
  -4   5  -2   67.88    3.93
   4  -5   2   64.21    4.05
   4   5   3   14.91    1.67
   4   5   3   17.22    1.75
   4  -5   3   17.74    1.36
   4  -5   3   15.79    1.60
   4   5   4   88.14    5.63
   4  -5   4   93.11    6.12
   4  -5   4   91.74    5.42
   4  -5   4   87.89    5.61
   4   5   5    0.51    0.90
   4  -5   5    0.34    0.94
   4  -5   5    1.19    1.46
   4   5   6   35.43    2.61
   4  -5   6   41.08    2.54
   4  -5   6   42.65    3.03
   4  -5   6   38.66    2.65
   4   5   7    0.14    0.25
  -4  -6   7    8.12    1.48
  -4  -6   7    8.88    1.38
  -4  -6   7   10.30    1.27
   4   6  -6   17.64    1.82
  -4  -6   6   18.19    2.08
  -4  -6   6   20.12    2.22
  -4  -6   6   15.74    2.11
  -4  -6   5   31.37    2.86
  -4  -6   5   28.96    3.08
  -4  -6   5   25.15    2.59
  -4   6   4  149.56    9.38
  -4  -6   4  168.04   10.13
  -4  -6   4  160.18   10.01
  -4  -6   4  159.76    9.83
  -4  -6   4  155.48    9.84
  -4   6   3    6.41    0.80
  -4   6   3    7.87    0.80
  -4   6   3    4.10    1.36
  -4   6   3    8.23    1.17
  -4  -6   3    9.29    1.48
  -4  -6   3    7.05    1.53
  -4  -6   3    8.64    1.08
  -4  -6   3    7.33    1.36
  -4   6   2   15.97    1.61
  -4   6   2   16.49    1.20
  -4   6   2   16.96    1.31
  -4   6   2   14.99    1.67
  -4  -6   2   17.36    2.03
  -4  -6   2   17.22    1.45
   4  -6  -2   15.53    1.27
  -4   6   1    4.64    0.54
  -4   6   1    4.49    0.91
  -4   6   1    5.86    1.23
  -4   6   1    4.71    0.67
   4  -6  -1    5.12    0.63
  -4   6   0    2.16    1.04
  -4   6   0    1.48    0.77
  -4   6   0    1.09    0.35
  -4   6   0    2.01    0.61
   4  -6   0    1.91    0.53
  -4   6  -1    0.32    0.29
  -4   6  -1   -0.21    0.62
  -4   6  -1    0.22    0.48
  -4   6  -1    0.36    0.95
   4  -6   1    0.85    0.45
   4   6   2   39.57    2.82
  -4   6  -2   38.20    2.64
  -4   6  -2   35.30    2.46
  -4   6  -2   36.72    2.30
   4  -6   2   39.29    2.47
   4  -6   2   34.49    2.57
   4   6   3    3.98    1.18
   4  -6   3    4.97    1.17
   4  -6   3    4.24    0.69
   4   6   4   53.83    3.78
   4  -6   4   56.78    3.51
   4  -6   4   56.85    3.73
   4   6   5    1.60    0.84
   4  -6   5    1.84    0.92
   4  -6   5    2.11    2.02
   4   6   6   30.88    2.02
   4  -6   6   23.46    2.24
   4  -6   6   29.39    1.98
  -4  -7   7    4.18    0.79
  -4  -7   7    4.61    0.85
   4   7  -6    1.92    0.89
  -4  -7   6    2.71    1.27
  -4  -7   6    2.03    1.21
   4   7  -5   -0.32    1.14
  -4  -7   5   -0.16    1.46
  -4  -7   5   -1.20    1.50
  -4  -7   5    0.01    1.11
  -4   7   4    1.03    0.73
  -4  -7   4    1.20    1.29
  -4  -7   4    1.17    1.70
  -4  -7   4    1.09    1.40
  -4  -7   4    1.13    1.57
  -4   7   3   36.46    2.40
  -4   7   3   37.56    2.87
  -4   7   3   40.15    2.70
  -4  -7   3   38.75    2.96
  -4  -7   3   33.63    3.24
  -4  -7   3   31.28    3.08
  -4   7   2    2.91    0.97
  -4   7   2    2.13    0.91
  -4   7   2    2.75    0.49
  -4   7   2    3.41    0.64
   4  -7  -2    2.97    0.60
  -4  -7   2    1.67    0.64
  -4  -7   2    4.57    1.53
  -4   7   1    1.75    0.61
  -4   7   1   -0.25    0.80
  -4   7   1    0.39    0.76
  -4   7   1    1.36    0.42
  -4  -7   1    3.05    1.24
   4  -7  -1    1.43    0.55
  -4   7   0   13.38    1.07
  -4   7   0   15.47    1.58
  -4   7   0   12.07    1.49
  -4   7   0   13.87    1.16
  -4  -7   0   15.24    2.05
   4  -7   0   13.30    1.15
  -4   7  -1    5.14    1.04
  -4   7  -1    8.06    0.76
  -4   7  -1    8.49    0.97
  -4   7  -1    9.74    1.32
   4  -7   1    8.21    1.00
  -4  -7  -1    9.57    1.78
   4   7   2    2.31    1.23
  -4   7  -2    1.70    0.98
  -4   7  -2    1.61    0.73
   4  -7   2    1.73    0.59
   4  -7   2    2.01    1.04
   4   7   3   22.21    2.10
   4  -7   3   20.82    2.10
   4  -7   3   21.76    1.68
   4   7   4   10.34    1.46
   4  -7   4    8.90    1.12
   4  -7   4   10.14    1.56
   4   7   5   -0.60    0.73
   4  -7   5    0.23    0.73
   4   7   6   -0.06    0.39
   4  -7   6    0.24    0.50
   4   8  -6   -0.51    0.64
  -4  -8   6   -0.26    0.92
  -4  -8   6    0.30    1.18
   4   8  -5    3.24    1.13
  -4  -8   5    4.45    1.52
  -4  -8   5    6.07    1.65
   4   8  -4   -1.40    1.22
  -4   8   4    0.40    0.74
  -4  -8   4   -1.95    1.63
  -4  -8   4   -0.46    1.27
  -4  -8   4    0.27    1.81
  -4   8   3    0.63    1.15
  -4   8   3   -0.10    0.81
  -4   8   3    0.10    0.64
  -4  -8   3    2.53    1.69
  -4  -8   3    0.78    1.73
  -4   8   2   22.22    2.02
  -4   8   2   23.44    2.26
  -4   8   2   23.36    1.76
  -4  -8   2   25.03    2.58
   4  -8  -2   25.39    1.77
  -4   8   1   64.65    4.08
   4   8  -1   57.38    4.27
  -4   8   1   57.50    3.70
  -4   8   1   55.65    3.99
   4  -8  -1   61.03    3.72
  -4  -8   1   63.31    4.54
  -4   8   0    5.91    0.83
  -4   8   0    7.24    1.23
  -4   8   0    6.47    1.11
   4  -8   0    7.45    0.93
  -4  -8   0   10.48    1.75
  -4   8  -1   31.73    2.58
  -4   8  -1   32.86    2.21
   4  -8   1   31.60    2.24
  -4   8  -2   20.26    1.84
   4  -8   2   19.33    1.62
   4  -8   2   19.67    1.91
   4   8   3   22.09    2.16
   4  -8   3   23.89    1.78
   4  -8   3   24.39    2.07
   4   8   4    0.16    0.82
   4   8   4    0.38    0.70
   4  -8   4   -0.18    0.97
   4   8   5    3.62    0.73
   4  -8   5    4.19    0.78
   4   8   6    0.58    0.30
   4  -8   6    0.53    0.40
   4   9  -6    2.35    0.59
  -4  -9   6    2.87    0.82
  -4  -9   6    3.29    1.17
   4   9  -5   -0.08    0.90
  -4  -9   5    0.90    1.43
  -4  -9   5    0.28    0.98
   4   9  -4    7.08    1.64
  -4   9   4    5.57    0.98
  -4  -9   4    2.91    1.81
  -4  -9   4    7.16    2.01
  -4  -9   4    4.40    1.56
  -4   9   3   86.97    5.64
   4   9  -3   84.76    6.00
  -4   9   3   87.28    5.40
  -4  -9   3  102.08    6.40
   4  -9  -3   90.24    5.67
  -4  -9   3   90.70    6.16
  -4   9   2   -0.77    0.82
   4   9  -2    1.14    1.36
  -4   9   2    1.27    1.11
  -4   9   2    0.65    0.67
   4  -9  -2    0.88    0.61
  -4  -9   2    1.92    1.52
   4   9  -1   24.89    2.27
  -4   9   1   28.82    1.91
  -4   9   1   25.56    2.23
  -4   9   1   26.71    2.39
   4   9  -1   23.49    2.59
   4  -9  -1   27.32    1.94
  -4  -9   1   26.37    2.77
  -4   9   0   69.77    4.34
  -4   9   0   68.36    4.58
  -4   9   0   69.48    4.67
   4  -9   0   69.36    4.37
  -4  -9   0   76.46    5.21
  -4   9  -1   10.44    1.15
  -4   9  -1    9.87    1.49
   4  -9   1   11.70    1.16
  -4   9  -2   11.21    1.52
   4  -9   2   10.74    1.49
   4  -9   2   11.15    1.22
  -4   9  -3   80.44    5.14
   4   9   3   86.94    5.19
   4  -9   3   78.21    5.20
   4  -9   3   85.77    5.01
   4   9   4   15.55    1.51
   4   9   4   11.94    1.33
   4  -9   4   12.17    1.45
   4   9   5    4.28    0.68
   4  -9   5    5.88    0.91
   4  10  -5    0.04    0.75
  -4 -10   5    0.50    1.08
  -4  10   4   17.09    1.48
   4  10  -4   17.00    2.00
  -4 -10   4   17.65    2.08
  -4  10   3    0.29    0.62
  -4  10   3   -0.71    0.72
   4  10  -3    0.67    1.33
  -4 -10   3   -0.09    1.47
   4 -10  -3   -0.19    0.54
   4  10  -2   17.87    2.28
  -4  10   2   17.34    1.98
  -4  10   2   17.22    1.81
  -4  10   2   18.60    1.51
   4 -10  -2   17.73    1.48
  -4 -10   2   17.30    2.25
  -4  10   1    2.98    1.03
  -4  10   1    5.37    1.31
  -4  10   1    5.25    0.85
  -4 -10   1    6.60    1.87
   4 -10  -1    4.45    0.81
   4  10   0    1.04    0.65
  -4  10   0    2.61    1.24
  -4  10   0    2.18    0.91
  -4  10   0    2.48    0.76
   4 -10   0    2.98    0.76
   4  10   1   18.83    1.77
  -4  10  -1   18.53    1.54
  -4  10  -1   20.05    2.01
   4 -10   1   18.78    1.61
   4  10   2   36.55    2.68
  -4  10  -2   37.02    2.72
   4 -10   2   35.63    2.68
   4 -10   2   39.68    2.55
   4  10   3    3.99    1.10
  -4  10  -3    6.19    1.02
   4  10   3    6.40    0.97
   4 -10   3    5.58    0.98
   4 -10   3    5.05    0.75
   4  10   4   16.21    1.32
   4  10   4   16.09    1.38
   4  11  -5    0.12    0.66
   4  11  -4    1.49    0.96
   4  11  -3    7.62    1.46
  -4  11   3    4.44    0.88
  -4  11   3    5.38    0.74
   4 -11  -3    6.77    0.89
  -4  11   2    4.98    0.98
   4  11  -2    7.79    1.48
  -4  11   2    6.60    0.85
  -4  11   2    6.61    1.27
  -4 -11   2    4.23    1.51
   4 -11  -2    5.55    0.77
  -4  11   1    9.94    1.29
  -4  11   1    8.61    1.06
  -4  11   1    8.63    1.35
   4 -11  -1    8.17    1.08
  -4  11   0   49.35    3.31
  -4  11   0   51.85    3.05
  -4  11   0   43.34    3.23
   4  11   0   48.39    3.16
  -4 -11   0   41.05    3.25
   4 -11   0   49.51    3.07
  -4  11  -1   49.24    3.40
   4  11   1   50.09    3.29
  -4  11  -1   49.52    3.11
   4 -11   1   48.55    3.16
   4  11   2   -0.92    0.61
  -4  11  -2    0.39    0.87
   4 -11   2   -0.21    0.54
   4 -11   2   -0.66    0.72
  -4  11  -3    7.92    1.07
   4  11   3    6.44    0.91
   4  11   3    8.15    1.13
   4 -11   3    6.30    0.97
   4  11   4   10.22    1.13
   4 -11   4    6.64    0.79
   4  12  -4   10.72    1.31
  -4  12   3    2.75    0.52
   4  12  -3    1.90    0.80
  -4  12   2    3.91    0.99
  -4  12   2    1.38    0.84
  -4  12   2    4.20    0.66
   4 -12  -2    4.09    0.63
  -4  12   1   52.67    3.79
  -4  12   1   54.05    3.67
  -4  12   1   59.74    3.52
   4 -12  -1   61.09    3.54
  -4  12   0   10.47    1.35
   4  12   0    9.55    1.11
  -4  12   0   10.20    1.04
  -4 -12   0    9.70    1.21
   4 -12   0   11.48    1.10
  -4  12  -1    2.20    0.51
  -4  12  -1    3.57    0.94
   4  12   1    1.62    0.63
   4 -12   1    3.08    0.63
  -4 -12  -1    2.43    0.83
  -4  12  -2    3.52    0.81
   4 -12   2    4.04    0.59
  -4 -12  -2    4.70    0.77
  -4  12  -3    2.95    0.80
  -4  13   2    1.74    0.44
  -4  13   1    4.33    0.58
  -4  13   1    3.01    0.59
   4 -13  -1    3.16    0.63
  -4  13   0    2.80    0.74
   4  13   0    0.82    0.54
   4 -13   0    0.38    0.39
   4  13   1   16.59    1.28
  -4  13  -1   19.08    1.35
  -4 -13  -1   13.78    1.31
  -4  13  -2    0.52    0.42
  -5   0   7   -0.22    0.91
  -5   0   6   16.39    1.89
  -5   0   6   14.42    2.09
  -5   0   5   -0.37    1.36
  -5   0   5    1.20    1.38
  -5   0   4    6.71    1.33
  -5   0   4   11.37    1.82
  -5   0   3   -0.08    0.78
  -5   0   3   -0.13    0.41
  -5   0   3    0.57    1.21
  -5   0   2   74.67    4.46
  -5   0   1    0.03    0.32
  -5   0   0    2.09    0.35
   5   0   1   -0.14    0.46
   5   0   2    0.72    0.53
   5   0   2   -0.79    1.37
   5   0   3    0.05    0.64
   5   0   3   -0.35    0.82
   5   0   3    0.92    1.60
   5   0   4   96.77    5.70
   5   0   4   82.63    6.45
   5   0   4  100.18    5.73
   5   0   5   -0.37    0.70
   5   0   5   -0.09    1.49
   5   0   5   -0.38    0.70
   5   0   6    1.12    1.22
   5   0   6    0.66    0.59
  -5   0  -6    0.09    0.75
   5   0   7    0.21    0.32
  -5   1   7    7.63    1.42
  -5  -1   7    9.77    1.52
  -5   1   6    5.00    1.64
  -5  -1   6    5.83    1.64
  -5  -1   6    4.30    1.27
  -5   1   5    1.59    1.48
  -5   1   5    0.93    1.35
  -5  -1   5    1.51    1.58
  -5  -1   5    2.83    1.45
  -5   1   4   78.83    5.01
  -5   1   4   73.94    5.07
  -5  -1   4   64.66    4.81
  -5  -1   4   76.50    5.21
  -5   1   3    9.97    1.70
  -5   1   3    9.52    0.85
  -5   1   3    7.65    1.21
  -5   1   3    5.72    0.95
  -5  -1   3    7.09    1.25
  -5  -1   3    9.47    1.64
  -5  -1   3    7.60    0.87
  -5   1   2   82.65    4.80
  -5  -1   2   79.16    4.83
  -5   1   1   93.86    5.39
  -5  -1   1   89.82    5.40
  -5   1   0    0.22    0.28
  -5  -1   0    0.51    0.42
   5   1   1   49.58    3.15
   5  -1   1   48.68    3.07
   5   1   2   80.06    4.68
   5   1   2   67.53    5.41
   5  -1   2   75.26    4.59
  -5  -1  -2   88.56    5.28
   5  -1   2   66.97    5.14
   5   1   3   35.04    2.39
   5   1   3   30.59    3.47
   5   1   3   35.78    2.49
   5  -1   3   40.76    3.30
   5  -1   3   31.23    2.44
   5  -1   3   37.19    2.40
   5   1   4    0.73    0.74
   5   1   4    1.87    0.93
   5   1   4    2.55    1.96
   5  -1   4    0.86    0.83
   5  -1   4    1.84    0.70
   5  -1   4    1.87    1.93
   5   1   5    0.14    1.81
   5   1   5   -0.50    0.75
   5   1   5    0.24    0.74
   5  -1   5    1.69    1.48
  -5  -1  -5    0.73    0.98
   5  -1   5   -0.45    0.66
   5  -1   5    0.35    0.72
  -5   1  -6   13.46    1.58
   5   1   6   13.14    1.16
   5  -1   6   10.68    1.72
   5  -1   6    9.66    1.12
   5   1   7    0.29    0.30
   5  -1   7   -0.08    0.44
  -5  -2   7    2.31    0.89
  -5  -2   7    5.30    1.31
  -5   2   6    4.61    1.75
  -5  -2   6    3.69    1.43
  -5  -2   6    5.45    1.46
  -5  -2   6    5.01    1.39
  -5   2   5   34.21    2.85
  -5  -2   5   29.95    2.91
  -5  -2   5   28.08    3.02
  -5  -2   5   29.78    2.88
  -5   2   4    3.01    1.08
  -5  -2   4    4.29    1.25
  -5  -2   4    7.39    1.83
  -5   2   3   17.78    1.27
  -5   2   3   15.36    1.70
  -5   2   3   17.91    1.53
  -5  -2   3   15.72    1.87
  -5   2   2   53.56    3.81
  -5   2   2   62.63    3.53
  -5   2   1  197.32   10.53
  -5  -2   1  168.00   10.54
  -5   2   0    4.81    0.50
   5   2   1   44.97    3.02
  -5   2  -1   49.64    2.88
   5  -2   1   45.21    2.92
   5   2   2    3.47    0.78
  -5  -2  -2    3.81    1.36
   5  -2   2    3.19    0.61
   5  -2   2    3.38    1.59
   5   2   3   17.28    1.55
   5   2   3   16.02    2.41
   5   2   3   15.79    1.64
   5  -2   3   17.21    1.43
   5  -2   3   14.81    2.45
   5  -2   3   14.25    1.62
  -5  -2  -3   18.28    2.18
   5   2   4    1.08    0.79
   5   2   4    1.32    2.04
   5   2   4    2.96    0.97
   5  -2   4    2.71    0.98
   5  -2   4    3.86    1.76
  -5  -2  -4    4.49    1.29
   5  -2   4    3.87    0.72
   5   2   5   18.32    1.71
   5   2   5   15.45    2.68
   5   2   5   20.11    1.70
   5  -2   5   18.29    1.60
   5  -2   5   17.49    1.67
   5  -2   5   20.56    2.48
   5  -2   5   19.96    1.59
  -5  -2  -5   19.73    1.96
   5   2   6    2.15    0.60
   5  -2   6    1.79    0.55
   5  -2   6    1.85    1.23
   5   2   7   -0.04    0.33
  -5  -3   7   14.87    1.55
  -5  -3   7   14.17    1.55
  -5  -3   6   -1.33    1.14
  -5  -3   6   -0.39    1.33
  -5  -3   6    0.26    1.22
  -5  -3   5   41.68    3.53
  -5  -3   5   43.41    3.50
  -5  -3   5   39.11    3.52
  -5   3   4   23.02    2.18
  -5  -3   4   23.51    2.30
  -5  -3   4   22.86    2.59
  -5   3   3   18.46    1.65
  -5   3   3   18.09    1.83
  -5   3   3   19.53    1.37
  -5  -3   3   17.53    2.04
  -5  -3   3   18.78    2.04
  -5   3   2    1.03    0.67
  -5   3   2    0.51    0.38
  -5   3   1   40.88    2.44
  -5   3   1   37.61    2.78
  -5   3   0   64.34    4.31
  -5   3   0   70.65    3.96
   5  -3   0   64.92    4.03
  -5   3  -1   64.26    3.73
  -5   3  -1   59.80    4.07
   5   3   1   61.40    3.98
   5  -3   1   65.47    3.87
   5   3   2    8.11    1.09
  -5  -3  -2   10.88    1.82
   5  -3   2    8.79    0.96
   5   3   3   28.19    2.20
   5   3   3   27.47    2.22
   5  -3   3   28.68    2.04
   5  -3   3   27.99    2.20
  -5  -3  -3   29.65    2.80
   5  -3   3   30.75    2.99
   5   3   4   11.54    1.51
   5   3   4   11.86    1.36
   5  -3   4   12.00    2.22
  -5  -3  -4   11.73    1.67
   5  -3   4   11.96    1.24
   5  -3   4   10.77    1.48
   5   3   5    3.16    0.92
   5  -3   5    1.23    1.51
   5  -3   5    1.62    0.68
   5  -3   5    2.44    0.68
   5   3   6   11.60    1.05
   5  -3   6   12.12    1.64
   5  -3   6    7.61    0.91
  -5  -4   7   12.80    1.43
  -5  -4   7   13.47    1.39
  -5  -4   6   36.03    3.07
  -5  -4   6   33.86    2.85
  -5  -4   6   32.13    2.84
  -5  -4   5    6.05    1.59
  -5  -4   5    3.01    1.68
  -5  -4   5    7.65    1.84
  -5   4   4   -0.10    0.79
  -5  -4   4   -0.59    1.23
  -5  -4   4    0.65    1.50
  -5  -4   4    1.01    1.18
  -5   4   3    0.61    0.98
  -5   4   3    0.06    0.77
  -5   4   3   -0.15    0.38
  -5  -4   3   -0.74    1.01
  -5  -4   3    0.61    1.34
  -5   4   2  228.79   13.73
  -5   4   2  242.88   13.79
  -5   4   2  263.51   13.43
  -5   4   2  210.24   13.46
  -5  -4   2  257.63   13.64
  -5  -4   2  219.25   14.09
  -5  -4   2  210.91   13.88
  -5   4   1   41.69    2.82
  -5   4   1   38.09    2.21
  -5   4   1   31.31    2.56
  -5   4   1   32.83    2.30
  -5  -4   1   40.10    3.89
   5  -4  -1   30.36    2.26
  -5   4   0    8.42    0.72
  -5   4   0    7.83    0.91
  -5   4   0    5.63    1.01
   5  -4   0    8.12    0.93
  -5   4  -1    6.30    0.65
   5   4   1    6.83    1.01
  -5   4  -1    7.37    0.93
  -5   4  -1    5.72    0.98
   5  -4   1    7.51    0.92
  -5  -4  -1    7.59    1.45
   5   4   2   43.00    3.01
  -5   4  -2   36.34    2.65
   5  -4   2   45.44    2.74
  -5  -4  -2   45.36    3.40
   5   4   3   -0.04    0.90
   5   4   3   -0.53    0.77
  -5  -4  -3   -1.85    1.01
   5  -4   3    0.26    0.61
   5  -4   3    0.18    0.84
   5   4   4   47.20    3.11
   5   4   4   40.17    3.12
   5  -4   4   44.11    3.56
   5  -4   4   44.96    3.05
   5  -4   4   44.45    2.89
   5   4   5   18.00    1.61
   5  -4   5   15.05    1.42
   5  -4   5   15.91    1.51
   5  -4   5   14.69    2.00
   5   4   6   -0.06    0.43
   5  -4   6    0.97    0.48
   5  -4   6    0.52    0.45
   5  -4   6    0.77    0.93
  -5  -5   7    1.07    0.96
  -5  -5   7    0.69    0.55
  -5  -5   7    0.56    0.94
  -5  -5   6    0.90    1.04
  -5  -5   6    0.10    1.15
  -5  -5   6    0.81    1.19
  -5  -5   5   22.50    2.69
  -5  -5   5   21.48    2.44
  -5  -5   5   28.33    2.91
  -5  -5   5   21.00    2.73
  -5   5   4  239.42   14.13
  -5  -5   4  232.81   14.52
  -5  -5   4  265.05   14.82
  -5  -5   4  229.21   14.47
  -5   5   3   17.64    1.96
  -5   5   3   19.05    1.82
  -5   5   3   14.64    1.78
  -5  -5   3   19.76    2.42
  -5  -5   3   20.15    2.41
  -5   5   2    2.33    0.66
  -5   5   2    0.61    0.77
  -5   5   2    1.18    0.38
  -5   5   2    1.97    1.24
  -5  -5   2    2.46    1.14
  -5  -5   2    1.44    0.56
  -5  -5   2    1.30    1.15
  -5   5   1   12.05    1.53
  -5   5   1   10.92    1.10
  -5   5   1   12.18    0.92
  -5   5   1    9.77    1.47
   5  -5  -1    9.96    0.98
  -5  -5   1   10.10    1.76
  -5   5   0  225.73   14.69
  -5   5   0  253.06   14.67
  -5   5   0  250.11   14.46
  -5   5   0  266.20   14.38
   5  -5   0  246.31   14.44
  -5  -5   0  260.26   15.22
  -5   5  -1   29.45    2.48
  -5   5  -1   35.83    2.19
   5   5   1   32.23    2.48
  -5   5  -1   30.01    2.46
  -5   5  -1   30.15    2.01
  -5  -5  -1   33.14    3.06
   5  -5   1   32.71    2.16
  -5   5  -2    9.61    1.00
   5   5   2    7.09    1.26
   5  -5   2    9.90    1.14
  -5  -5  -2   11.26    1.93
   5   5   3    5.01    1.22
   5   5   3    6.69    1.29
   5  -5   3    6.09    0.85
   5  -5   3    4.68    1.12
  -5  -5  -3    7.34    1.49
   5   5   4    0.68    0.80
   5  -5   4    0.23    0.84
   5  -5   4    0.37    0.62
   5   5   5    4.16    0.82
   5  -5   5    4.72    1.45
   5  -5   5    4.63    0.83
   5  -5   6   39.49    2.30
   5  -5   6   36.55    2.58
   5  -5   6   33.59    2.31
  -5  -6   7   -0.60    0.98
  -5  -6   6    9.76    1.67
  -5  -6   6    9.55    1.62
  -5  -6   6    7.39    1.53
  -5  -6   5   12.60    1.90
  -5  -6   5   14.35    2.00
  -5  -6   5   16.03    2.40
  -5   6   4    1.40    0.84
  -5  -6   4    0.45    1.58
  -5  -6   4    1.24    1.38
  -5  -6   4    1.22    1.72
  -5   6   3   74.52    4.63
  -5   6   3   60.29    4.25
  -5  -6   3   70.06    4.95
  -5  -6   3   78.13    5.35
  -5  -6   3   70.34    4.90
  -5   6   2  228.01   12.35
  -5   6   2  189.84   11.98
  -5   6   2  210.16   12.34
  -5  -6   2  201.30   12.87
  -5   6   1    7.52    0.75
  -5   6   1    7.17    1.33
  -5   6   1    6.95    0.89
  -5   6   1    6.52    1.27
  -5  -6   1    8.09    1.74
   5  -6  -1    7.99    0.87
  -5   6   0   10.40    1.56
  -5   6   0    9.59    1.01
  -5   6   0    9.44    0.86
   5  -6   0    9.00    0.99
  -5  -6   0   11.59    1.97
  -5   6  -1    4.04    0.61
  -5   6  -1    2.32    0.86
  -5   6  -1    3.08    0.66
  -5   6  -1    4.26    1.23
   5  -6   1    3.93    0.68
  -5  -6  -1    5.94    1.57
  -5   6  -2   27.88    1.90
   5  -6   2   28.15    1.98
  -5  -6  -2   23.61    2.72
   5   6   3    0.96    1.09
   5  -6   3    0.14    0.97
   5  -6   3    0.95    0.65
   5   6   4   18.64    1.85
   5  -6   4   17.54    1.67
   5  -6   4   19.42    1.54
   5   6   5    3.20    0.70
   5  -6   5    2.85    0.64
   5   6   6    0.66    0.36
   5  -6   6    0.24    0.30
   5  -6   6    0.12    0.42
   5   7  -6    2.32    0.71
  -5  -7   6    3.48    1.17
  -5  -7   6    4.63    1.05
  -5  -7   6    2.44    0.87
   5   7  -5   45.25    3.35
  -5  -7   5   46.46    3.62
  -5  -7   5   48.94    3.45
  -5  -7   5   42.20    3.43
  -5   7   4   -1.05    0.72
  -5  -7   4    0.18    1.55
  -5  -7   4   -1.27    1.64
  -5  -7   4   -0.88    1.53
  -5  -7   4    0.62    1.27
  -5   7   3    1.13    0.64
  -5   7   3    0.96    1.03
  -5  -7   3    1.54    1.40
  -5  -7   3   -0.26    1.72
  -5  -7   3    2.32    1.75
  -5   7   2    7.35    1.40
  -5   7   2   10.13    1.50
  -5   7   2    9.16    1.07
  -5  -7   2   11.11    2.09
   5  -7  -2    9.64    1.12
  -5   7   1   12.31    1.14
  -5   7   1   11.51    1.76
  -5   7   1   10.98    1.54
   5  -7  -1   12.09    1.17
  -5  -7   1   12.23    2.24
  -5   7   0    1.97    0.98
  -5   7   0    3.13    0.73
  -5   7   0    3.09    1.06
  -5  -7   0    4.17    1.85
   5  -7   0    3.78    0.75
  -5   7  -1   17.35    1.84
  -5   7  -1   15.12    2.00
  -5   7  -1   20.66    1.57
  -5  -7  -1   21.46    2.53
   5  -7   1   20.58    1.59
  -5   7  -2    0.04    0.53
  -5   7  -2   -0.34    0.99
   5  -7   2    0.31    0.59
   5   7   3    9.38    1.88
   5  -7   3   10.42    1.40
   5  -7   3   12.61    1.21
   5   7   4    7.16    0.96
   5  -7   4    7.31    0.96
   5  -7   4    5.04    0.94
   5   7   5    0.49    0.54
   5  -7   5    0.99    0.56
   5   8  -6    2.10    0.52
  -5  -8   6    3.33    0.82
   5   8  -5   20.89    2.06
  -5  -8   5   19.71    2.27
  -5  -8   5   26.30    2.38
  -5   8   4    0.45    0.76
   5   8  -4   -0.13    1.33
  -5  -8   4    0.51    1.56
  -5  -8   4   -0.20    1.61
  -5  -8   4   -1.39    1.44
  -5  -8   4    1.90    1.35
  -5   8   3    0.39    0.65
  -5   8   3    0.90    0.96
  -5  -8   3    0.92    1.56
  -5  -8   3    0.50    1.26
  -5   8   2    0.00    0.99
  -5   8   2    1.47    0.66
  -5   8   2    0.40    0.88
  -5  -8   2    1.47    1.81
   5  -8  -2    1.43    0.57
  -5   8   1    9.68    1.58
  -5   8   1    5.74    0.84
  -5   8   1    5.22    1.23
  -5  -8   1    9.17    2.00
   5  -8  -1    7.41    0.92
  -5   8   0   17.25    1.93
  -5   8   0   19.78    1.87
  -5   8   0   19.25    1.59
   5  -8   0   19.93    1.60
  -5  -8   0   20.22    2.57
  -5   8  -1   44.94    3.24
  -5   8  -1   48.82    2.99
  -5  -8  -1   43.40    3.80
   5  -8   1   46.53    3.00
  -5   8  -2    0.27    0.96
  -5   8  -2    0.28    0.54
   5  -8   2    0.08    0.58
   5  -8   3    0.84    0.86
   5  -8   3    0.88    0.63
   5   8   4   12.50    1.14
   5   8   4   13.35    1.26
   5  -8   4   10.85    1.26
   5  -8   4   14.26    1.13
   5  -8   5    9.36    0.86
   5   9  -5    2.08    0.77
  -5  -9   5    1.86    0.97
  -5  -9   5    2.54    0.84
  -5   9   4    4.54    0.84
   5   9  -4    1.89    1.02
  -5  -9   4    0.82    1.10
  -5  -9   4    4.64    1.44
  -5   9   3    1.91    0.66
  -5   9   3    1.37    0.91
   5   9  -3    1.80    1.35
  -5  -9   3    2.53    1.37
  -5  -9   3    0.44    1.38
  -5   9   2    0.38    1.11
   5   9  -2    0.20    1.21
  -5   9   2    0.42    0.62
  -5   9   2   -0.67    0.89
  -5  -9   2    0.60    1.70
   5  -9  -2    0.07    0.53
  -5   9   1   36.04    3.03
  -5   9   1   44.10    3.07
  -5   9   1   43.11    2.74
   5  -9  -1   41.80    2.72
  -5  -9   1   41.65    3.58
  -5   9   0    3.49    0.76
  -5   9   0    7.14    1.41
  -5   9   0    5.12    1.17
   5  -9   0    6.20    0.90
  -5  -9   0    6.08    1.75
  -5   9  -1   54.64    3.47
  -5   9  -1   54.70    3.76
   5  -9   1   56.38    3.51
  -5   9  -2   29.86    2.48
   5  -9   2   39.36    2.37
   5   9   3    1.01    0.71
   5  -9   3    1.55    1.03
   5  -9   3    2.46    0.59
   5   9   4    0.04    0.60
   5   9   4    0.24    0.49
   5  -9   4    0.12    0.42
   5  10  -5   -0.89    0.83
   5  10  -4   14.29    1.62
  -5 -10   4   10.31    1.42
  -5  10   3    3.89    0.90
  -5  10   3    4.67    0.67
   5  10  -3    5.72    1.37
  -5 -10   3    3.21    1.37
  -5 -10   3    7.49    1.62
  -5  10   2   29.75    2.17
  -5  10   2   22.20    2.12
   5  10  -2   26.73    2.38
  -5  10   2   24.61    1.81
   5 -10  -2   23.52    1.78
  -5 -10   2   21.86    2.77
  -5  10   1   -0.70    0.77
  -5  10   1    0.20    1.02
  -5  10   1    0.82    0.61
   5 -10  -1   -0.41    0.56
  -5 -10   1   -1.15    1.38
  -5  10   0   -0.36    1.02
   5  10   0   -0.09    0.63
  -5  10   0    0.25    0.75
  -5  10   0   -0.09    0.59
  -5 -10   0    0.79    1.47
   5 -10   0    0.16    0.60
  -5  10  -1    2.77    1.06
   5  10   1    1.02    0.71
  -5  10  -1    1.57    0.57
   5 -10   1    2.44    0.66
   5  10   2    1.88    0.74
  -5  10  -2    3.39    0.92
   5 -10   2    4.48    0.67
   5  10   3    7.05    0.92
   5 -10   3    8.08    0.85
   5  11  -4    3.69    0.66
   5  11  -3   19.30    1.72
  -5 -11   3   16.74    1.83
  -5  11   2    2.83    0.63
   5  11  -2    1.16    0.94
  -5  11   2    3.34    0.94
  -5  11   2    2.15    0.66
   5 -11  -2    1.83    0.54
  -5 -11   2    3.32    1.19
  -5  11   1    2.12    0.62
  -5  11   1    0.86    0.71
  -5  11   1    2.45    0.85
  -5 -11   1    1.04    1.24
   5 -11  -1    0.75    0.53
  -5  11   0   17.35    1.68
  -5  11   0   18.38    1.41
   5  11   0   17.12    1.55
   5 -11   0   18.97    1.43
  -5  11  -1    0.48    0.45
  -5  11  -1    0.57    0.69
   5  11   1   -0.53    0.58
   5 -11   1   -0.20    0.49
  -5  11  -2   11.51    1.15
   5  11   2   11.26    1.22
   5 -11   2   12.16    1.04
   5  11   3   37.81    2.40
  -5  12   2    8.82    0.80
  -5  12   1    3.18    0.70
  -5  12   1    4.27    0.60
  -5  12   0    0.47    0.42
  -5  12   0    0.65    0.66
   5  12   0    0.25    0.38
   5 -12   0    1.01    0.44
  -5  12  -1   33.35    2.53
   5  12   1   44.61    2.56
  -5  12  -1   41.27    2.51
  -6   0   7   -0.69    0.98
  -6   0   6  112.51    7.41
  -6   0   6  123.54    7.31
  -6   0   5   -0.24    1.31
  -6   0   5   -0.13    1.47
  -6   0   4  158.99    9.32
  -6   0   4  133.76    8.97
  -6   0   3   -0.52    0.98
  -6   0   3    1.29    1.42
  -6   0   3   -1.13    0.82
  -6   0   2   13.21    1.06
  -6   0   2   11.76    1.59
  -6   0   1    0.26    1.18
  -6   0   1    0.17    0.32
  -6   0   0   18.31    2.08
   6   0   0   13.02    1.49
  -6   0  -1    0.34    0.98
   6   0   1   -0.19    0.53
   6   0   2   19.34    1.54
  -6   0  -2   18.35    2.32
   6   0   3    0.72    0.78
  -6   0  -3    0.98    1.22
   6   0   3   -0.12    0.59
  -6   0  -4    3.55    1.19
   6   0   4    1.90    0.78
   6   0   4    3.52    0.79
  -6   0  -5    0.34    0.80
   6   0   5    0.26    0.58
   6   0   5    0.40    0.47
  -6   0  -6   14.62    1.41
   6   0   6   14.69    1.09
  -6  -1   7    3.00    1.26
  -6   1   6   56.89    4.25
  -6  -1   6   61.00    4.13
  -6  -1   6   65.21    4.30
  -6   1   5    0.44    1.33
  -6   1   5    1.85    1.47
  -6  -1   5    0.93    1.41
  -6  -1   5    0.35    1.31
  -6   1   4    3.42    1.28
  -6   1   4    4.89    1.59
  -6  -1   4    4.69    1.37
  -6  -1   4    4.98    1.61
  -6   1   3   16.74    1.96
  -6   1   3   24.68    2.88
  -6   1   3   17.67    1.77
  -6  -1   3   15.24    1.97
  -6  -1   3   18.73    2.27
  -6   1   2   14.61    1.78
  -6   1   2   16.08    1.18
  -6  -1   2   15.59    1.87
  -6  -1   2   14.65    1.20
  -6   1   1    3.86    0.49
  -6  -1   1    4.95    1.21
  -6  -1   1    3.23    0.54
  -6  -1   1    3.86    1.17
  -6   1   0  124.06    7.99
   6  -1   0  122.55    7.33
  -6  -1   0  126.53    8.16
   6   1   1    9.96    1.18
  -6   1  -1    9.77    1.86
   6  -1   1   10.10    1.04
  -6  -1  -1    9.27    1.58
  -6   1  -2    0.26    1.02
   6   1   2    0.39    0.61
  -6  -1  -2    1.17    1.27
   6  -1   2   -0.28    0.59
  -6   1  -3   48.31    3.73
   6   1   3   46.33    3.21
   6   1   3   47.40    3.23
  -6  -1  -3   51.57    3.94
   6  -1   3   47.31    3.15
  -6   1  -4    4.45    1.44
   6   1   4    4.23    0.83
   6   1   4    3.15    0.80
   6  -1   4    5.82    0.90
   6  -1   4    6.37    0.90
  -6  -1  -4    4.65    1.58
   6  -1   4    1.89    1.54
  -6   1  -5    4.30    0.97
   6   1   5    4.01    0.76
   6   1   5    2.80    0.63
   6  -1   5    5.98    0.74
  -6  -1  -5    3.75    0.89
   6  -1   5    4.51    0.72
  -6   1  -6    7.54    1.09
   6   1   6    7.63    0.73
   6  -1   6    7.03    0.70
  -6  -2   7    2.88    0.98
  -6  -2   7    5.64    1.45
  -6  -2   6    7.97    1.36
  -6  -2   6    8.49    1.43
  -6   2   5   14.96    2.03
  -6  -2   5   16.72    2.32
  -6  -2   5   15.75    2.27
  -6  -2   5   19.81    2.28
  -6   2   4   24.79    2.42
  -6  -2   4   22.76    2.48
  -6  -2   4   26.21    2.70
  -6   2   3   12.91    1.57
  -6   2   3   10.92    1.75
  -6  -2   3   13.61    2.05
  -6  -2   3   11.34    1.76
  -6   2   2    8.68    0.78
  -6   2   2    6.02    1.15
  -6  -2   2    5.50    1.48
  -6  -2   2    6.17    1.41
  -6   2   1    9.37    1.08
  -6   2   1   10.03    1.32
  -6   2   1   10.09    0.86
  -6  -2   1    9.56    1.86
  -6  -2   1    9.99    1.54
  -6   2   0   31.00    2.02
  -6  -2   0   30.96    3.01
   6  -2   0   32.94    2.16
  -6   2  -1  133.00    8.34
   6   2   1  128.28    7.88
  -6  -2  -1  133.41    8.44
   6  -2   1  136.09    7.83
   6   2   2   10.76    1.29
  -6  -2  -2   12.14    1.87
   6  -2   2   12.72    1.18
   6   2   3   -1.02    0.73
   6  -2   3    0.14    0.63
  -6  -2  -3    0.48    1.37
   6   2   4    0.57    0.66
   6   2   4    0.21    0.73
   6  -2   4    0.69    0.62
  -6  -2  -4    1.67    1.11
   6  -2   4   -0.39    1.51
   6  -2   4    1.46    0.75
   6   2   5   21.02    1.70
  -6   2  -5   24.54    2.10
   6   2   5   23.70    1.69
   6  -2   5   21.84    1.61
   6  -2   5   16.64    2.06
   6  -2   5   26.16    1.63
  -6   2  -6    0.38    0.49
   6   2   6   -0.15    0.32
   6  -2   6    0.18    0.28
  -6  -3   7    0.85    0.60
  -6  -3   6   -0.56    1.09
  -6  -3   6   -0.34    1.00
  -6  -3   6    0.38    1.04
  -6   3   5    1.22    1.46
  -6  -3   5    1.58    1.45
  -6  -3   5    0.85    1.45
  -6  -3   5    0.11    1.38
  -6   3   4    2.77    1.20
  -6   3   4    3.05    1.47
  -6  -3   4    3.20    1.67
  -6  -3   4    2.03    1.19
  -6   3   3  123.85    7.03
  -6   3   3  111.46    7.10
  -6  -3   3  107.51    7.22
  -6  -3   3  111.01    7.41
  -6   3   2   16.25    1.78
  -6   3   2   16.81    1.38
  -6  -3   2   16.13    2.11
  -6  -3   2   15.90    2.02
  -6   3   1    3.02    0.67
  -6   3   1    2.68    0.45
  -6   3   1    3.65    1.00
  -6  -3   1    2.89    1.45
  -6  -3   1    3.26    1.58
  -6   3   0    7.31    1.18
  -6   3   0    8.48    1.03
  -6   3   0    8.35    0.76
   6  -3   0    9.63    0.96
  -6  -3   0    8.43    1.56
  -6   3  -1    1.94    0.98
  -6   3  -1    1.67    0.84
   6   3   1    1.20    0.76
  -6  -3  -1    2.80    1.35
   6  -3   1    2.45    0.60
   6   3   2   26.20    2.25
   6  -3   2   30.79    2.06
  -6  -3  -2   29.74    2.93
   6   3   3   53.83    3.69
   6  -3   3   57.22    3.57
  -6  -3  -3   56.90    4.19
   6   3   4    6.75    1.05
   6   3   4    8.48    1.03
  -6  -3  -4    7.38    1.41
   6  -3   4    7.76    1.21
   6  -3   4    9.39    1.04
  -6   3  -5    1.58    0.75
   6   3   5    2.29    0.57
   6  -3   5    1.24    0.54
   6  -3   5    0.51    0.49
  -6   3  -6    0.29    0.44
   6   3   6    0.46    0.31
   6  -3   6    0.97    0.33
  -6  -4   6    4.93    1.15
  -6  -4   6    3.12    1.00
  -6  -4   6    6.43    1.23
  -6  -4   5   46.74    3.56
  -6  -4   5   40.98    3.64
  -6  -4   5   43.43    3.43
  -6   4   4    4.70    1.41
  -6   4   4    4.19    1.01
  -6  -4   4    5.27    1.72
  -6  -4   4    4.37    1.47
  -6  -4   4    5.12    1.71
  -6   4   3    0.22    0.99
  -6   4   3   -0.65    0.92
  -6  -4   3    0.07    1.27
  -6  -4   3    0.06    1.35
  -6  -4   3   -1.16    1.26
  -6   4   2   24.04    2.12
  -6   4   2   22.62    1.77
  -6  -4   2   26.71    2.62
  -6  -4   2   22.12    2.74
  -6   4   1   16.90    1.45
  -6   4   1   17.54    1.86
  -6  -4   1   15.95    2.47
  -6   4   0  130.82    7.75
  -6   4   0  121.36    7.99
  -6   4   0  142.92    7.96
   6  -4   0  137.19    7.73
  -6  -4   0  122.25    8.59
   6   4   1   23.03    1.91
  -6   4  -1   21.28    1.68
  -6   4  -1   24.53    1.99
  -6  -4  -1   19.85    2.57
   6  -4   1   23.00    1.68
   6   4   2   17.38    1.69
   6  -4   2   20.23    1.53
  -6  -4  -2   18.81    2.37
   6   4   3   -0.32    0.83
   6  -4   3    0.77    0.58
  -6  -4  -3    0.51    1.05
   6   4   4   36.57    2.74
   6  -4   4   36.32    2.48
   6  -4   4   44.46    3.07
  -6  -4  -4   34.12    2.88
   6   4   5    3.16    0.67
   6  -4   5    2.92    0.54
   6  -4   5    2.88    0.58
  -6   4  -6    0.25    0.57
   6  -4   6    0.29    0.44
  -6  -5   6    8.20    1.35
  -6  -5   6   10.02    1.42
  -6  -5   6   13.22    1.52
  -6  -5   5    0.70    1.33
  -6  -5   5    0.11    1.34
  -6  -5   5    1.47    1.31
  -6   5   4    3.29    0.95
  -6  -5   4    4.38    1.70
  -6  -5   4    3.72    1.55
  -6  -5   4    2.59    1.43
  -6   5   3   16.05    1.81
  -6   5   3   12.00    1.38
  -6   5   3   15.59    1.86
  -6  -5   3   15.80    2.24
  -6  -5   3   17.61    2.40
  -6  -5   3   16.97    2.39
  -6   5   2  115.99    6.65
  -6   5   2  103.64    6.26
  -6  -5   2  114.37    7.41
  -6  -5   2   87.32    7.16
  -6   5   1   22.37    2.14
  -6   5   1   23.80    1.76
  -6   5   1   22.56    2.19
  -6  -5   1   24.04    2.63
   6  -5  -1   26.11    1.81
  -6   5   0   75.31    4.72
  -6   5   0   75.18    4.51
  -6   5   0   65.38    4.77
   6  -5   0   76.52    4.48
  -6  -5   0   72.46    5.27
   6   5   1    0.54    0.88
  -6   5  -1    0.75    0.50
  -6   5  -1    1.67    0.84
  -6   5  -1    2.07    1.06
   6  -5   1    1.81    0.66
  -6  -5  -1    0.04    1.45
   6   5   2  141.87    8.88
  -6  -5  -2  147.44    9.43
   6  -5   2  154.53    8.70
  -6  -5  -3   19.78    2.33
   6  -5   3   18.80    1.49
   6   5   4    6.89    1.02
   6  -5   4    9.61    1.02
   6   5   5    2.69    0.52
   6  -5   5    1.43    0.48
   6  -5   5    2.74    0.65
   6   6  -6    1.58    0.50
  -6  -6   6    3.70    0.80
  -6  -6   6    3.31    0.80
  -6  -6   6    1.99    0.76
  -6  -6   5   12.58    2.04
  -6  -6   5    9.68    1.52
  -6  -6   5   13.65    1.92
  -6  -6   5   15.19    1.98
  -6   6   4    1.14    0.79
  -6  -6   4   -1.47    1.34
  -6  -6   4    0.16    1.45
  -6  -6   4    0.58    1.38
  -6  -6   4   -0.69    1.30
  -6   6   3    3.02    1.12
  -6   6   3    3.26    0.69
  -6   6   3    4.85    1.25
  -6  -6   3    5.22    1.58
  -6  -6   3    4.48    1.67
  -6  -6   3    5.11    1.68
  -6   6   2   16.55    1.91
  -6   6   2   14.77    1.37
  -6  -6   2   18.90    2.76
  -6   6   1  101.12    6.57
  -6   6   1  112.77    6.52
  -6   6   1   99.25    6.19
  -6  -6   1  104.02    7.34
   6  -6  -1  102.59    6.18
  -6   6   0   91.54    5.75
  -6   6   0   92.52    5.54
  -6  -6   0   95.99    6.44
   6  -6   0   88.42    5.51
  -6   6  -1   10.12    1.42
  -6   6  -1   11.84    1.17
  -6   6  -1   11.96    1.57
  -6  -6  -1   11.70    2.11
   6  -6   1   13.26    1.26
  -6  -6  -2   53.21    4.69
   6  -6   2   66.90    3.79
   6  -6   3    0.57    0.56
  -6  -6  -3   -0.34    1.22
   6  -6   4   10.89    1.03
   6   6   5    0.29    0.40
   6  -6   5    0.20    0.36
   6  -6   5    0.64    0.42
   6   7  -5   -1.31    0.79
  -6  -7   5   -0.16    0.94
  -6  -7   5    0.96    0.81
  -6  -7   5    0.24    1.01
  -6   7   4    2.07    0.82
  -6  -7   4    1.49    1.36
  -6  -7   4    2.71    1.34
  -6  -7   4    0.32    1.44
  -6  -7   4    1.38    1.17
  -6   7   3   93.18    5.60
  -6   7   3   77.29    5.22
  -6  -7   3   94.50    5.91
  -6   7   2    4.01    0.79
  -6   7   2    3.92    1.19
  -6  -7   2    4.97    1.59
  -6   7   1    1.20    0.99
  -6   7   1    0.71    0.68
  -6   7   1    0.60    1.11
  -6  -7   1    0.90    1.71
   6  -7  -1    1.89    0.61
  -6   7   0   15.07    1.30
  -6   7   0   12.40    1.75
  -6   7   0   15.40    1.73
  -6  -7   0   17.03    2.65
   6  -7   0   14.44    1.32
  -6   7  -1    0.79    0.57
  -6   7  -1    0.70    0.95
   6  -7   1    0.88    0.60
  -6  -7  -1    0.89    1.29
  -6  -7  -2   -0.25    1.03
   6  -7   2    0.49    0.61
   6  -7   3   21.23    1.62
   6  -7   4    0.39    0.42
   6  -7   5   -0.10    0.31
  -6  -8   5    5.43    0.95
  -6  -8   5    7.97    1.11
  -6   8   4    6.01    1.33
   6   8  -4    2.81    1.09
  -6  -8   4    4.24    1.33
  -6  -8   4    3.29    1.03
  -6  -8   4    1.00    1.24
  -6   8   3    6.28    1.12
  -6   8   3    4.13    0.70
  -6  -8   3    6.72    1.55
  -6  -8   3    3.90    1.25
  -6   8   2    3.41    0.94
  -6   8   2    3.01    1.00
  -6   8   2    5.33    0.78
  -6  -8   2    4.44    1.69
  -6   8   1   21.36    2.29
  -6   8   1   30.55    2.33
  -6   8   1   27.55    1.96
   6  -8  -1   27.60    1.92
  -6  -8   1   29.90    2.88
  -6   8   0    0.75    0.80
  -6   8   0    3.22    1.09
  -6   8   0    0.89    0.60
  -6  -8   0    2.66    1.68
   6  -8   0    3.24    0.68
  -6   8  -1    7.93    0.92
  -6   8  -1    5.91    1.11
   6  -8   1    5.51    0.77
  -6  -8  -1    4.57    1.44
   6  -8   2    7.98    1.01
   6  -8   3    8.35    0.90
   6   8   4    2.15    0.45
   6   9  -4   35.69    2.49
  -6  -9   4   30.11    2.75
   6   9  -3   19.70    1.99
  -6   9   3   17.37    1.33
  -6   9   3   17.71    1.65
  -6  -9   3   14.55    2.43
  -6   9   2    0.66    0.60
   6   9  -2    0.53    0.96
  -6   9   2    0.84    0.83
  -6  -9   2   -0.19    1.41
  -6   9   1   -0.19    0.79
  -6   9   1    0.58    0.59
  -6   9   1    1.00    0.92
   6  -9  -1    0.10    0.52
  -6  -9   1    0.54    1.53
  -6   9   0    8.79    1.36
  -6   9   0    9.01    1.01
  -6  -9   0   10.53    1.70
   6  -9   0    9.56    1.05
  -6   9  -1    6.56    0.98
  -6   9  -1    6.67    0.85
  -6  -9  -1    5.33    1.42
   6  -9   1    6.41    0.82
  -6   9  -2    4.36    0.72
   6  -9   2    3.82    0.63
   6   9   3   40.59    2.51
   6  -9   3   36.67    2.41
   6  10  -4    3.53    0.66
   6  10  -3   -0.21    0.71
  -6  10   3    0.25    0.40
  -6 -10   3    0.50    0.96
  -6 -10   3    0.21    1.13
  -6  10   2   39.98    2.21
  -6 -10   2   33.24    2.81
  -6 -10   2   26.25    2.82
  -6  10   1   10.71    1.24
  -6  10   1    7.90    1.32
  -6  10   1    8.35    0.95
  -6 -10   1    8.99    1.59
   6 -10  -1    8.41    0.91
   6  10   0    1.34    0.59
  -6  10   0    3.42    0.87
  -6  10   0    2.60    0.56
   6 -10   0    2.55    0.54
  -6 -10   0    3.46    0.96
  -6  10  -1    1.42    0.42
   6  10   1   -0.03    0.56
  -6  10  -1    2.22    0.69
   6 -10   1    1.32    0.49
  -6  10  -2    8.33    0.86
   6  10   2    9.07    0.98
   6 -10   2    8.69    0.82
   6  10   3    1.14    0.75
  -6  11   2    0.78    0.41
  -6 -11   2   -0.33    0.83
  -6  11   1   44.74    2.79
  -6  11   1   42.31    2.66
  -6  11   0   15.08    1.22
  -6  11   0   14.86    1.10
   6  11   1   -0.02    0.42
  -6  11  -1    0.63    0.50
  -7   0   6   16.48    2.08
  -7   0   6   12.01    1.38
  -7   0   5   -0.27    1.08
  -7   0   5   -0.35    1.07
  -7   0   4   47.25    3.51
  -7   0   4   40.71    3.39
  -7   0   3    0.23    1.15
  -7   0   3   -0.17    0.84
  -7   0   3    0.58    1.36
  -7   0   2  294.10   17.31
  -7   0   1   -0.42    0.98
  -7   0   0    0.84    1.14
   7   0   1   -0.09    0.57
  -7   0  -1   -0.73    1.18
   7   0   2    1.51    0.74
  -7   0  -2    1.19    1.34
  -7   0  -3    0.25    1.21
   7   0   3   -0.39    0.59
   7   0   4   17.43    1.49
  -7   0  -4   20.11    1.99
   7   0   5    0.24    0.36
  -7   0  -5   -0.19    0.56
   7   0   5   -0.31    0.32
  -7   1   6    0.87    0.71
  -7  -1   6    0.05    0.70
  -7  -1   6   -0.36    0.84
  -7   1   5    0.08    1.04
  -7  -1   5   -0.03    1.14
  -7  -1   5    0.53    0.97
  -7   1   4  103.02    6.54
  -7  -1   4   94.36    6.44
  -7  -1   4  106.88    6.69
  -7   1   3    3.86    1.20
  -7   1   3    4.71    1.03
  -7  -1   3    3.97    1.45
  -7  -1   3    3.01    1.33
  -7  -1   3    1.80    0.94
  -7   1   2    1.22    0.83
  -7   1   2    1.41    1.12
  -7  -1   2    1.72    1.12
  -7  -1   1   18.72    1.98
  -7  -1   1   13.86    2.20
  -7   1   0    2.06    1.18
  -7  -1   0    1.79    1.79
  -7  -1   0    0.93    1.28
   7   1   1   -0.12    0.61
  -7   1  -1    0.49    1.05
  -7  -1  -1    0.95    1.16
   7  -1   1    0.86    0.61
  -7   1  -2   49.27    4.04
   7   1   2   54.03    3.52
   7  -1   2   52.57    3.45
  -7  -1  -2   63.57    4.29
  -7   1  -3    1.11    0.98
   7   1   3    0.00    0.70
  -7  -1  -3    0.23    0.94
   7  -1   3    0.21    0.60
   7   1   4    4.90    0.77
  -7   1  -4    4.30    0.96
  -7  -1  -4    3.73    1.12
   7  -1   4    5.69    0.78
   7  -1   4    5.41    0.68
   7   1   5    9.37    0.88
   7   1   5   10.10    0.99
   7  -1   5   13.30    0.86
  -7  -1  -5   13.16    1.16
  -7  -2   6    0.24    0.57
  -7  -2   6   -0.97    0.79
  -7   2   5   28.95    2.34
  -7  -2   5   26.55    2.39
  -7  -2   5   26.50    2.52
  -7   2   4    1.73    1.21
  -7  -2   4    2.96    1.46
  -7  -2   4    1.39    1.16
  -7   2   3    5.54    1.27
  -7   2   3    4.86    1.06
  -7  -2   3    5.44    1.53
  -7  -2   3    3.99    1.29
  -7   2   2   37.82    2.72
  -7   2   2   36.77    2.88
  -7  -2   2   35.62    2.97
  -7  -2   2   29.49    3.18
  -7   2   1    1.23    0.84
  -7  -2   1    0.38    1.05
  -7  -2   1    0.79    1.34
  -7   2   0   13.84    1.55
   7  -2   0   13.58    1.30
  -7  -2   0   11.92    2.16
   7   2   1   31.71    2.20
  -7   2  -1   33.17    2.36
  -7   2  -1   27.63    2.74
   7  -2   1   28.92    2.11
  -7  -2  -1   27.86    2.91
  -7   2  -2    7.96    1.38
   7   2   2   10.08    1.19
   7  -2   2    5.40    0.85
  -7  -2  -2    9.26    1.68
   7   2   3   17.32    1.57
  -7   2  -3   20.70    2.00
   7  -2   3   19.16    1.53
  -7  -2  -3   14.38    2.38
   7   2   4    2.88    0.64
  -7   2  -4    4.60    0.92
   7  -2   4    2.94    0.58
  -7  -2  -4    5.65    1.14
  -7   2  -5    8.35    1.05
  -7  -2  -5    7.01    1.09
  -7  -3   6   -0.18    0.73
  -7  -3   6    0.32    0.83
  -7   3   5    3.20    0.99
  -7  -3   5    1.91    0.95
  -7  -3   5    4.34    1.18
  -7  -3   5    1.30    1.01
  -7   3   4    0.31    1.13
  -7  -3   4    0.61    1.22
  -7  -3   4    0.68    1.26
  -7   3   3   17.87    1.75
  -7   3   3   14.82    1.92
  -7  -3   3   16.94    2.19
  -7  -3   3   18.57    2.31
  -7   3   2    5.06    1.26
  -7   3   2    4.80    1.12
  -7  -3   2    4.73    1.54
  -7  -3   2    3.92    1.28
  -7   3   1   92.43    5.73
  -7  -3   1   88.74    6.36
  -7   3   0    3.15    0.90
   7  -3   0    3.50    0.71
  -7  -3   0    2.32    1.41
  -7   3  -1   12.39    1.83
  -7   3  -1   11.37    1.43
   7   3   1   10.78    1.28
  -7  -3  -1   12.94    2.13
   7  -3   1   11.30    1.19
  -7   3  -2   16.48    1.78
   7   3   2   16.55    1.52
   7  -3   2   15.16    1.37
  -7  -3  -2   14.08    2.53
   7   3   3   14.81    1.55
  -7   3  -3   17.49    1.77
   7  -3   3   17.54    1.44
  -7  -3  -3   19.70    2.26
  -7   3  -4    2.18    0.82
   7  -3   4    1.64    0.58
   7  -3   4    2.69    0.55
  -7  -3  -4    1.77    0.92
  -7   3  -5    7.45    0.88
  -7  -4   6   14.78    1.33
  -7  -4   5    4.04    1.00
  -7  -4   5    5.57    1.10
  -7   4   4    0.39    0.78
  -7   4   4    0.46    0.97
  -7  -4   4   -0.58    1.11
  -7  -4   4   -1.27    1.13
  -7   4   3   29.28    2.42
  -7   4   3   31.93    2.64
  -7  -4   3   30.63    2.89
  -7  -4   3   31.88    2.84
  -7  -4   3   32.46    2.98
  -7   4   2    2.42    0.99
  -7  -4   2    1.75    1.44
  -7  -4   2    1.52    1.28
  -7   4   1   15.03    1.76
  -7  -4   1   15.55    2.43
  -7   4   0   23.72    2.10
   7  -4   0   23.47    1.77
  -7  -4   0   26.50    2.79
   7   4   1   14.89    1.96
  -7   4  -1   21.61    1.78
   7  -4   1   18.39    1.49
  -7  -4  -1   18.97    2.82
   7   4   2   18.42    1.79
   7  -4   2   22.35    1.67
  -7  -4  -2   24.06    2.43
  -7   4  -3    1.41    0.76
   7  -4   3    1.33    0.56
  -7  -4  -3    1.97    1.18
  -7  -4  -4   24.59    2.26
   7  -4   4   32.61    1.87
   7  -4   4   29.20    1.94
  -7   4  -5    1.78    0.45
  -7  -5   5   -1.22    1.14
  -7  -5   5    0.36    0.92
  -7  -5   5   -0.36    0.85
  -7   5   4   33.31    2.66
  -7   5   4   47.01    2.99
  -7  -5   4   38.99    3.02
  -7  -5   4   36.95    3.10
  -7  -5   4   35.87    3.28
  -7  -5   4   41.80    3.24
  -7   5   3   -0.10    0.96
  -7   5   3    0.84    0.87
  -7  -5   3   -0.76    1.22
  -7  -5   3    0.07    1.14
  -7  -5   3    0.28    1.34
  -7   5   2   -0.04    0.54
  -7   5   2   -0.03    0.93
  -7  -5   2   -0.17    1.34
  -7   5   1    9.65    1.37
  -7   5   1    9.46    1.07
  -7  -5   1    8.94    1.88
  -7   5   0   20.57    1.83
  -7  -5   0   16.11    2.53
   7  -5   0   19.94    1.51
  -7   5  -1   17.55    1.63
  -7  -5  -1   15.71    2.21
   7  -5   1   16.34    1.39
  -7  -5  -2   85.57    5.82
   7  -5   2   81.90    5.02
  -7   5  -3    1.03    0.68
   7  -5   3    0.18    0.52
  -7  -5  -3    0.44    1.01
   7  -5   4   17.24    1.17
   7  -5   4   16.30    1.22
  -7  -6   5   10.86    1.20
  -7  -6   5    7.75    1.22
  -7  -6   5   11.38    1.21
  -7  -6   4   -1.42    0.99
  -7  -6   4   -0.73    1.09
  -7  -6   4   -0.86    1.01
  -7  -6   4   -0.47    0.96
  -7   6   3    5.59    1.04
  -7   6   3    5.21    1.12
  -7  -6   3    6.27    1.39
  -7  -6   3    5.47    1.26
  -7   6   2   12.01    1.12
  -7   6   2   12.17    1.56
  -7  -6   2   11.98    1.90
  -7   6   1    1.25    0.59
  -7   6   1    1.11    0.86
  -7  -6   1    1.34    1.21
  -7   6   0   11.07    1.47
  -7   6   0   10.14    1.07
   7  -6   0    9.12    1.03
  -7  -6   0    8.97    1.67
   7  -6   1   66.18    4.12
  -7  -6  -1   69.26    4.95
   7  -6   2   10.47    1.01
  -7  -6  -2    8.40    1.55
  -7   6  -3   14.40    1.76
  -7  -6  -3   15.96    1.48
   7  -6   3   17.55    1.28
  -7   6  -4   29.62    2.34
   7  -6   4   38.61    2.11
   7   7  -5    0.31    0.71
  -7  -7   4   22.42    2.39
  -7  -7   4   18.44    1.83
  -7  -7   4   19.67    1.96
  -7   7   3   10.61    1.30
  -7  -7   3    9.86    1.79
  -7  -7   3   10.18    1.63
  -7   7   2    1.16    0.54
  -7   7   2    1.35    0.83
  -7   7   2    1.60    0.93
  -7  -7   2    1.15    1.33
  -7   7   1   65.87    4.22
  -7   7   1   63.35    3.91
  -7  -7   1   63.65    4.76
  -7   7   0   10.90    1.06
  -7   7   0   11.14    1.42
   7  -7   0   11.50    1.06
  -7  -7   0   10.29    1.93
   7  -7   1   22.02    1.54
  -7  -7  -1   19.62    2.03
   7  -7   2    4.97    0.69
   7  -7   3    5.97    0.71
   7   8  -4    0.45    0.61
  -7  -8   4    1.00    1.20
  -7  -8   4    0.41    0.76
   7   8  -3    1.80    0.69
  -7  -8   3    3.31    1.18
  -7  -8   3    2.19    0.96
  -7  -8   3    2.33    0.80
  -7   8   2   -0.21    0.66
  -7   8   2    0.79    0.47
  -7   8   2    0.04    0.72
  -7  -8   2    0.10    0.85
  -7  -8   2    0.04    1.03
  -7   8   1    2.19    0.52
  -7   8   1    2.32    0.73
   7  -8  -1    2.53    0.61
  -7  -8   1    1.66    1.21
  -7   8   0    7.97    0.86
  -7   8   0    7.96    1.05
   7  -8   0    7.63    0.87
  -7  -8   0    8.36    1.32
  -7  -8  -1   23.04    2.36
   7  -8   1   31.25    1.86
   7  -8   2    0.26    0.40
   7   8   3    0.69    0.39
   7   9  -3    1.96    0.72
  -7  -9   3    2.09    0.71
  -7   9   2   17.03    1.20
  -7  -9   2   15.30    1.64
  -7   9   1   12.30    0.93
   7  -9  -1    8.81    1.01
  -7  -9   1   10.45    1.50
  -7  -9   1    8.88    1.19
   7  -9   0   14.22    1.06
  -7  -9   0   12.07    1.48
  -7  -9  -1    1.77    0.60
   7  -9   1    1.54    0.39
   7   9   2    8.45    0.81
  -7 -10   2   12.54    1.26
  -7  10   1    2.66    0.42
  -7 -10   1    1.91    0.67
  -7 -10   0    1.72    0.96
  -8   0   5   -0.05    0.70
  -8   0   4    1.19    1.04
  -8   0   3   -0.11    0.65
  -8   0   3   -0.69    0.94
  -8   0   2    0.75    1.07
  -8   0   2    0.72    0.77
  -8   0   1    0.87    0.80
  -8   0   1    1.05    0.97
  -8   0   0  188.12   10.24
  -8   0   0  140.77    9.78
   8   0   1   -0.15    0.57
  -8   0  -1    0.63    0.92
   8   0   2   28.01    2.06
  -8   0  -2   31.26    2.51
  -8   0  -3    0.33    0.81
   8   0   3    0.06    0.50
  -8   0  -4    2.02    0.66
  -8   1   5    0.44    0.52
  -8  -1   5   -0.07    0.71
  -8   1   4    5.36    1.01
  -8  -1   4    6.27    1.04
  -8   1   3    1.07    0.71
  -8   1   3    1.58    0.88
  -8  -1   3    1.22    1.10
  -8  -1   3    0.80    1.02
  -8  -1   3    1.57    0.66
  -8   1   2   51.13    3.39
  -8   1   2   50.11    3.48
  -8  -1   2   50.25    3.53
  -8  -1   2   49.76    3.36
  -8  -1   2   47.50    3.56
  -8   1   1   10.25    1.51
  -8   1   1    7.81    1.16
  -8  -1   1    9.78    1.62
  -8   1   0   34.05    2.50
  -8   1   0   26.26    2.27
  -8  -1   0   28.56    2.82
  -8   1  -1    1.89    0.73
  -8   1  -1    1.66    0.91
   8   1   1    1.77    0.83
  -8  -1  -1    0.60    1.14
   8  -1   1    1.21    0.58
  -8   1  -2    5.19    1.00
   8   1   2    5.74    0.79
   8  -1   2    6.15    0.84
  -8  -1  -2    4.15    1.27
   8   1   3    3.28    0.61
  -8   1  -3    1.57    0.73
  -8  -1  -3    3.27    0.92
   8  -1   3    2.47    0.52
  -8   1  -4    2.62    0.58
  -8  -1  -4    4.67    0.81
  -8   2   5   16.53    1.54
  -8  -2   5   20.78    1.65
  -8   2   4    1.72    0.91
  -8  -2   4    2.57    0.94
  -8  -2   4    1.39    0.85
  -8   2   3   21.48    1.70
  -8   2   3   18.50    1.94
  -8  -2   3   17.25    2.05
  -8  -2   3   18.01    2.00
  -8  -2   3   21.91    2.19
  -8   2   2    0.13    0.92
  -8   2   2   -0.32    0.72
  -8  -2   2    0.79    1.03
  -8   2   1    5.25    0.96
  -8   2   1    5.31    1.10
  -8  -2   1    2.26    1.12
  -8  -2   1    1.98    1.13
  -8  -2   0   13.11    1.92
  -8   2  -1   10.84    1.21
  -8   2  -1    9.32    1.43
  -8  -2  -1    9.57    1.69
   8  -2   1    8.91    1.01
  -8   2  -2   13.67    1.49
   8   2   2   13.80    1.27
  -8  -2  -2   13.01    1.66
   8  -2   2   15.23    1.24
   8   2   3    8.33    0.99
   8  -2   3   10.84    0.97
  -8  -2  -3   10.19    1.46
  -8   2  -4    1.28    0.52
  -8  -2  -4    0.57    0.47
  -8   3   5    2.25    0.67
  -8  -3   5    2.02    0.69
  -8  -3   5    2.69    0.76
  -8   3   4    2.93    0.78
  -8  -3   4    2.87    0.91
  -8  -3   4    1.84    0.96
  -8  -3   4    0.82    0.85
  -8   3   3    3.29    0.92
  -8   3   3    3.06    0.81
  -8  -3   3    3.46    1.24
  -8  -3   3    2.61    1.04
  -8   3   2    0.80    0.75
  -8   3   2    1.88    1.06
  -8  -3   2    0.43    1.00
  -8  -3   2    0.36    1.01
  -8   3   1   32.76    2.52
  -8   3   1   39.20    2.70
  -8  -3   1   30.06    2.99
  -8   3   0    1.93    0.78
  -8  -3   0    0.20    1.24
  -8   3  -1   17.81    1.46
  -8  -3  -1   13.17    2.11
   8  -3   1   15.30    1.29
   8   3   2    0.09    0.49
  -8   3  -2   -0.04    0.65
  -8  -3  -2   -0.09    0.80
   8  -3   2    0.03    0.46
  -8   3  -3   19.97    1.66
  -8  -3  -3   22.21    1.81
  -8   3  -4    2.06    0.52
  -8  -3  -4    0.37    0.47
  -8  -4   5    3.05    1.03
  -8   4   4   21.87    1.68
  -8  -4   4   18.34    1.79
  -8  -4   4   19.96    1.84
  -8   4   3    6.07    0.88
  -8   4   3    4.48    1.03
  -8  -4   3    3.65    1.12
  -8  -4   3    5.49    1.09
  -8   4   2    8.12    1.13
  -8   4   2    9.81    1.35
  -8  -4   2    6.35    1.29
  -8   4   1    2.61    0.77
  -8   4   1    4.22    0.98
  -8  -4   1    1.71    1.14
  -8   4   0    7.63    1.01
  -8  -4   0    3.96    1.07
  -8   4  -1   24.87    2.21
   8  -4   1   23.50    1.65
  -8  -4  -1   21.43    2.46
  -8  -4  -2    2.02    0.90
   8  -4   2    4.25    0.63
  -8  -4  -3    4.10    0.93
   8  -4   3    3.21    0.49
  -8  -5   4    0.98    0.64
  -8  -5   4    2.49    0.69
  -8   5   3    0.28    0.76
  -8  -5   3    0.15    0.89
  -8  -5   3   -0.15    0.79
  -8   5   2   24.61    1.93
  -8   5   2   21.09    1.95
  -8  -5   2   27.12    2.21
  -8   5   1   -0.23    0.65
  -8  -5   1   -0.81    1.01
  -8   5   0    4.58    0.79
  -8  -5   0    4.42    1.52
   8  -5   0    6.45    0.81
  -8  -5  -1    4.13    1.09
   8  -5   1    5.02    0.65
  -8  -5  -2    0.64    0.58
   8  -5   2    1.23    0.43
  -8  -5  -3    8.17    0.97
  -8  -6   4    0.46    0.65
  -8   6   3   10.94    1.17
  -8  -6   3   11.07    1.30
  -8   6   2    9.75    1.21
  -8   6   2    9.75    1.34
  -8  -6   2    9.01    1.34
  -8   6   1    0.27    0.67
  -8   6   1    0.23    0.64
  -8  -6   1   -0.13    0.95
  -8   6   0    7.16    1.12
   8  -6   0    6.82    0.79
  -8  -6   0    8.56    1.49
  -8  -6  -1    6.51    1.03
   8  -6   1    5.74    0.73
  -8  -6  -2   -0.01    0.69
   8  -6   2    0.47    0.37
  -8  -7   3    5.88    1.10
  -8  -7   3    7.60    1.06
  -8   7   2   10.69    1.09
  -8  -7   2   10.44    1.37
  -8  -7   2    8.64    1.21
  -8  -7   1   11.99    1.39
  -8  -7   0    4.04    0.90
   8  -7   0    4.17    0.58
  -8  -7  -1   10.71    1.28
   8  -7   1   13.35    1.01
  -8  -7  -2    0.29    0.46
  -8  -8   2   -0.41    0.70
  -8   8   1    3.13    0.61
  -8  -8   1    2.70    0.95
  -8  -8   1    1.49    0.62
  -8  -8   0    0.55    0.44
  -9   0   4    9.30    1.06
  -9   0   3    0.95    0.74
  -9   0   2    6.33    1.01
  -9   0   1    0.54    0.72
  -9   0   1    0.97    0.79
  -9   0  -1   -0.21    0.64
  -9   0  -2   58.50    3.76
  -9   1   4    8.08    0.93
  -9  -1   4    8.87    0.93
  -9   1   3    1.90    0.83
  -9  -1   3    1.49    0.65
  -9   1   2    8.35    1.22
  -9  -1   2   12.85    1.27
  -9   1   1    6.18    1.04
  -9  -1   1    4.23    0.98
  -9   1   0    2.00    0.73
  -9  -1   0    1.73    0.71
  -9  -1   0    2.17    0.89
  -9   1  -1    1.10    0.55
  -9  -1  -1    0.85    0.76
  -9   1  -2   15.30    1.48
  -9  -1  -2   18.80    1.51
  -9   2   4    1.20    0.51
  -9   2   3   20.57    1.55
  -9  -2   3   17.19    1.51
  -9   2   2    7.79    1.11
  -9  -2   2    6.58    0.99
  -9  -2   2    6.81    1.03
  -9   2   1    1.32    0.73
  -9  -2   1    0.31    0.74
  -9  -2   1    0.74    0.65
  -9   2   0    1.07    0.66
  -9  -2   0   -0.10    0.61
  -9  -2  -1    9.86    1.36
  -9  -2  -2    1.55    0.64
  -9   3   3    2.64    0.60
  -9  -3   3    2.02    0.87
  -9   3   2    3.96    0.75
  -9  -3   2    2.27    0.72
  -9   3   1   12.43    1.18
  -9  -3   1    8.96    1.44
  -9  -3   1   11.78    1.24
  -9   3   0    0.34    0.58
  -9  -3   0    0.07    0.58
  -9   3  -1    2.81    0.61
  -9  -3  -1    4.07    0.91
  -9  -3  -2   -0.08    0.63
  -9   4   3    5.18    0.77
  -9   4   2    2.39    0.58
  -9  -4   2    1.34    0.70
  -9  -4   2    2.42    0.70
  -9   4   1    0.55    0.52
  -9  -4   1    0.62    0.63
  -9  -4   1    0.29    0.69
  -9   4   0    8.85    0.95
  -9  -4   0    5.80    1.14
  -9   4  -1    0.40    0.48
  -9  -4  -1    0.42    0.64
  -9   5   2    4.45    0.74
  -9   5   1    0.23    0.50
  -9  -5   1   -0.03    0.58
  -9  -5   1    0.63    0.54
  -9   5   0    1.98    0.52
  -9  -5   0    1.09    0.67
  -9  -5  -1    0.25    0.49
  -9   6   1    0.84    0.53
   0   0   0    0.00    0.00
;
_shelx_hkl_checksum              75736
_shelx_shelxl_version_number     2014/7
_olex2_submission_special_instructions 'No special instructions were received'
loop_
_space_group_symop_operation_xyz
'x, y, z'
'-x, y+1/2, -z+1/2'
'-x, -y, -z'
'x, -y-1/2, z-1/2'
loop_
_atom_site_label
_atom_site_type_symbol
_atom_site_fract_x
_atom_site_fract_y
_atom_site_fract_z
_atom_site_U_iso_or_equiv
_atom_site_adp_type
_atom_site_occupancy
_atom_site_site_symmetry_order
_atom_site_calc_flag
_atom_site_refinement_flags_posn
Cl1 Cl 0.44626(11) 0.15239(7) 0.09065(13) 0.0346(3) Uani 1 1 d .
N4 N -0.0508(3) 0.3303(2) 0.2617(4) 0.0257(7) Uani 1 1 d .
N1 N 0.4099(4) 0.3629(2) 0.0895(4) 0.0301(7) Uani 1 1 d .
N3 N -0.0590(4) 0.2210(2) 0.2684(4) 0.0295(7) Uani 1 1 d .
N2 N 0.0792(4) 0.1799(2) 0.2180(4) 0.0290(7) Uani 1 1 d .
C1 C 0.3252(4) 0.4562(3) 0.1162(5) 0.0314(8) Uani 1 1 d .
H1 H 0.3784 0.5223 0.0929 0.038 Uiso 1 1 calc R
C2 C 0.1689(4) 0.4619(3) 0.1744(5) 0.0287(8) Uani 1 1 d .
H2 H 0.1148 0.5286 0.1912 0.034 Uiso 1 1 calc R
C3 C 0.0959(4) 0.3618(3) 0.2066(5) 0.0239(7) Uani 1 1 d .
C6 C -0.1880(5) 0.3954(3) 0.3162(6) 0.0338(8) Uani 1 1 d .
H6A H -0.1672 0.4717 0.2914 0.051 Uiso 1 1 calc GR
H6B H -0.1992 0.3854 0.4503 0.051 Uiso 1 1 calc GR
H6C H -0.2896 0.3728 0.2435 0.051 Uiso 1 1 calc GR
C5 C 0.3379(4) 0.2709(3) 0.1215(5) 0.0262(8) Uani 1 1 d .
C4 C 0.1786(4) 0.2651(2) 0.1781(5) 0.0261(8) Uani 1 1 d .
loop_
_atom_site_aniso_label
_atom_site_aniso_U_11
_atom_site_aniso_U_22
_atom_site_aniso_U_33
_atom_site_aniso_U_23
_atom_site_aniso_U_13
_atom_site_aniso_U_12
Cl1 0.0387(6) 0.0296(5) 0.0359(6) -0.0003(3) 0.0056(4) 0.0092(3)
N4 0.0274(15) 0.0217(14) 0.0282(16) 0.0010(11) 0.0028(12) -0.0014(11)
N1 0.0310(15) 0.0303(16) 0.0288(16) 0.0009(12) 0.0016(12) -0.0018(12)
N3 0.0315(16) 0.0213(14) 0.0357(17) 0.0031(12) 0.0028(12) -0.0033(11)
N2 0.0342(16) 0.0204(14) 0.0327(17) 0.0025(12) 0.0041(12) -0.0009(11)
C1 0.0359(19) 0.0216(17) 0.037(2) 0.0006(15) 0.0045(15) -0.0058(14)
C2 0.0350(19) 0.0196(16) 0.0309(19) -0.0010(14) 0.0000(14) -0.0014(13)
C3 0.0279(17) 0.0222(16) 0.0216(17) -0.0006(13) 0.0023(13) -0.0004(12)
C6 0.0335(19) 0.0292(18) 0.040(2) -0.0004(16) 0.0097(15) 0.0032(15)
C5 0.0296(18) 0.0262(17) 0.0226(18) -0.0005(13) 0.0007(13) 0.0006(13)
C4 0.0330(18) 0.0179(16) 0.0272(19) 0.0009(13) 0.0016(14) -0.0015(13)
loop_
_atom_type_symbol
_atom_type_description
_atom_type_scat_dispersion_real
_atom_type_scat_dispersion_imag
_atom_type_scat_source
C C 0.0181 0.0091 'International Tables Vol C Tables 4.2.6.8 and 6.1.1.4'
H H 0.0000 0.0000 'International Tables Vol C Tables 4.2.6.8 and 6.1.1.4'
Cl Cl 0.3639 0.7018 'International Tables Vol C Tables 4.2.6.8 and 6.1.1.4'
N N 0.0311 0.0180 'International Tables Vol C Tables 4.2.6.8 and 6.1.1.4'
loop_
_geom_angle_atom_site_label_1
_geom_angle_atom_site_label_2
_geom_angle_atom_site_label_3
_geom_angle
N3 N4 C6 120.0(3)
C3 N4 N3 110.3(3)
C3 N4 C6 129.8(3)
C5 N1 C1 117.9(3)
N2 N3 N4 109.2(3)
N3 N2 C4 107.3(3)
N1 C1 H1 117.3
N1 C1 C2 125.4(3)
C2 C1 H1 117.3
C1 C2 H2 122.5
C1 C2 C3 114.9(3)
C3 C2 H2 122.5
N4 C3 C2 134.7(3)
N4 C3 C4 104.3(3)
C4 C3 C2 121.0(3)
N4 C6 H6A 109.5
N4 C6 H6B 109.5
N4 C6 H6C 109.5
H6A C6 H6B 109.5
H6A C6 H6C 109.5
H6B C6 H6C 109.5
N1 C5 Cl1 118.0(3)
N1 C5 C4 122.6(3)
C4 C5 Cl1 119.4(3)
N2 C4 C3 108.9(3)
N2 C4 C5 132.9(3)
C3 C4 C5 118.1(3)
loop_
_geom_bond_atom_site_label_1
_geom_bond_atom_site_label_2
_geom_bond_distance
Cl1 C5 1.740(3)
N4 N3 1.358(4)
N4 C3 1.354(4)
N4 C6 1.464(5)
N1 C1 1.371(5)
N1 C5 1.312(5)
N3 N2 1.319(4)
N2 C4 1.378(4)
C1 H1 0.9500
C1 C2 1.382(5)
C2 H2 0.9500
C2 C3 1.405(5)
C3 C4 1.401(5)
C6 H6A 0.9800
C6 H6B 0.9800
C6 H6C 0.9800
C5 C4 1.401(5)
loop_
_geom_torsion_atom_site_label_1
_geom_torsion_atom_site_label_2
_geom_torsion_atom_site_label_3
_geom_torsion_atom_site_label_4
_geom_torsion
Cl1 C5 C4 N2 -0.2(6)
Cl1 C5 C4 C3 178.4(3)
N4 N3 N2 C4 0.0(4)
N4 C3 C4 N2 -0.3(4)
N4 C3 C4 C5 -179.2(3)
N1 C1 C2 C3 -0.1(6)
N1 C5 C4 N2 179.5(3)
N1 C5 C4 C3 -2.0(5)
N3 N4 C3 C2 179.2(4)
N3 N4 C3 C4 0.4(4)
N3 N2 C4 C3 0.2(4)
N3 N2 C4 C5 178.8(4)
C1 N1 C5 Cl1 -179.2(3)
C1 N1 C5 C4 1.2(5)
C1 C2 C3 N4 -179.5(4)
C1 C2 C3 C4 -0.8(5)
C2 C3 C4 N2 -179.4(3)
C2 C3 C4 C5 1.7(5)
C3 N4 N3 N2 -0.3(4)
C6 N4 N3 N2 -178.4(3)
C6 N4 C3 C2 -2.9(6)
C6 N4 C3 C4 178.3(3)
C5 N1 C1 C2 -0.1(6)
