#------------------------------------------------------------------------------
#$Date: 2019-11-23 20:57:22 +0200 (Sat, 23 Nov 2019) $
#$Revision: 234961 $
#$URL: file:///home/coder/svn-repositories/cod/cif/4/03/66/4036613.cif $
#------------------------------------------------------------------------------
#
# This file is available in the Crystallography Open Database (COD),
# http://www.crystallography.net/
#
# All data on this site have been placed in the public domain by the
# contributors.
#
data_4036613
loop_
_publ_author_name
'Chen, Qiao'
'Wang, Chao'
'Zhou, Jiawei'
'Wang, Yanan'
'Xu, Zhaoqing'
'Wang, Rui'
_publ_section_title
;
 CuSO4-Mediated Decarboxylative Difluoroacetamidation of \a,\b-Unsaturated
 Carboxylic Acids.
;
_journal_issue                   6
_journal_name_full               'The Journal of organic chemistry'
_journal_page_first              2639
_journal_page_last               2645
_journal_paper_doi               10.1021/acs.joc.6b00031
_journal_volume                  81
_journal_year                    2016
_chemical_formula_moiety         'C16 H19 F2 N O'
_chemical_formula_sum            'C16 H19 F2 N O'
_chemical_formula_weight         279.32
_space_group_crystal_system      triclinic
_space_group_IT_number           2
_space_group_name_Hall           '-P 1'
_space_group_name_H-M_alt        'P -1'
_atom_sites_solution_hydrogens   geom
_audit_creation_date             2015-10-09
_audit_creation_method
;
Olex2 1.2
(compiled 2015.09.30 svn.r3233 for OlexSys, GUI svn.r5103)
;
_cell_angle_alpha                73.54(3)
_cell_angle_beta                 85.59(3)
_cell_angle_gamma                81.51(3)
_cell_formula_units_Z            2
_cell_length_a                   5.7679(19)
_cell_length_b                   9.859(3)
_cell_length_c                   13.531(4)
_cell_measurement_reflns_used    760
_cell_measurement_temperature    295.35(10)
_cell_measurement_theta_max      20.6190
_cell_measurement_theta_min      3.9220
_cell_volume                     729.3(4)
_computing_cell_refinement
;
CrysAlisPro, Agilent Technologies,
Version 1.171.37.33 (release 27-03-2014 CrysAlis171 .NET)
(compiled Mar 27 2014,17:12:48)
;
_computing_data_collection
;
CrysAlisPro, Agilent Technologies,
Version 1.171.37.33 (release 27-03-2014 CrysAlis171 .NET)
(compiled Mar 27 2014,17:12:48)
;
_computing_data_reduction
;
CrysAlisPro, Agilent Technologies,
Version 1.171.37.33 (release 27-03-2014 CrysAlis171 .NET)
(compiled Mar 27 2014,17:12:48)
;
_computing_molecular_graphics    'Olex2 (Dolomanov et al., 2009)'
_computing_publication_material  'Olex2 (Dolomanov et al., 2009)'
_computing_structure_refinement  'ShelXL (Sheldrick, 2015)'
_computing_structure_solution    'ShelXS (Sheldrick, 2008)'
_diffrn_ambient_environment      air
_diffrn_ambient_temperature      295.35(10)
_diffrn_detector                 'CCD plate'
_diffrn_detector_area_resol_mean 16.0733
_diffrn_detector_type            Eos
_diffrn_measured_fraction_theta_full 0.996
_diffrn_measured_fraction_theta_max 0.995
_diffrn_measurement_details
;
#__ type_ start__ end____ width___ exp.time_
  1 omega   30.00   88.00   2.0000    2.0000
omega____ theta____ kappa____ phi______ frames
    -       20.5854   77.0000  -60.0000 29

#__ type_ start__ end____ width___ exp.time_
  2 omega   38.00   88.00   2.0000    2.0000
omega____ theta____ kappa____ phi______ frames
    -       20.5854   57.0000 -180.0000 25

#__ type_ start__ end____ width___ exp.time_
  3 omega  -20.00   16.00   2.0000    2.0000
omega____ theta____ kappa____ phi______ frames
    -      -17.1479  -99.0000  -30.0000 18

#__ type_ start__ end____ width___ exp.time_
  4 omega  -16.00   48.00   2.0000    2.0000
omega____ theta____ kappa____ phi______ frames
    -       20.5854  -99.0000  -90.0000 32

#__ type_ start__ end____ width___ exp.time_
  5 omega  -48.00   32.00   2.0000    2.0000
omega____ theta____ kappa____ phi______ frames
    -       20.5854  -57.0000   30.0000 40

#__ type_ start__ end____ width___ exp.time_
  6 omega  -20.00   62.00   2.0000    2.0000
omega____ theta____ kappa____ phi______ frames
    -       20.5854  -99.0000  120.0000 41
;
_diffrn_measurement_device       'four-circle diffractometer'
_diffrn_measurement_device_type  'SuperNova, Dual, Cu at zero, Eos'
_diffrn_measurement_method       '\w scans'
_diffrn_orient_matrix_UB_11      -0.0867691000
_diffrn_orient_matrix_UB_12      -0.0442619000
_diffrn_orient_matrix_UB_13      0.0005426000
_diffrn_orient_matrix_UB_21      0.0820079000
_diffrn_orient_matrix_UB_22      -0.0613672000
_diffrn_orient_matrix_UB_23      0.0193604000
_diffrn_orient_matrix_UB_31      -0.0350222000
_diffrn_orient_matrix_UB_32      0.0013776000
_diffrn_orient_matrix_UB_33      0.0511525000
_diffrn_radiation_monochromator  mirror
_diffrn_radiation_probe          x-ray
_diffrn_radiation_type           MoK\a
_diffrn_radiation_wavelength     0.71073
_diffrn_reflns_av_R_equivalents  0.0366
_diffrn_reflns_av_unetI/netI     0.0846
_diffrn_reflns_Laue_measured_fraction_full 0.996
_diffrn_reflns_Laue_measured_fraction_max 0.995
_diffrn_reflns_limit_h_max       7
_diffrn_reflns_limit_h_min       -7
_diffrn_reflns_limit_k_max       12
_diffrn_reflns_limit_k_min       -12
_diffrn_reflns_limit_l_max       16
_diffrn_reflns_limit_l_min       -16
_diffrn_reflns_number            4855
_diffrn_reflns_point_group_measured_fraction_full 0.996
_diffrn_reflns_point_group_measured_fraction_max 0.995
_diffrn_reflns_theta_full        25.500
_diffrn_reflns_theta_max         26.020
_diffrn_reflns_theta_min         3.291
_diffrn_source                   'SuperNova (Mo) X-ray Source'
_exptl_absorpt_coefficient_mu    0.096
_exptl_absorpt_correction_T_max  1.00000
_exptl_absorpt_correction_T_min  0.33041
_exptl_absorpt_correction_type   multi-scan
_exptl_absorpt_process_details
;
CrysAlisPro, Agilent Technologies,
Version 1.171.37.33 (release 27-03-2014 CrysAlis171 .NET)
(compiled Mar 27 2014,17:12:48)
Empirical absorption correction using spherical harmonics,
 implemented in SCALE3 ABSPACK scaling algorithm.
;
_exptl_crystal_colour            'clear light colourless'
_exptl_crystal_colour_lustre     clear
_exptl_crystal_colour_modifier   light
_exptl_crystal_colour_primary    colourless
_exptl_crystal_density_diffrn    1.272
_exptl_crystal_description       block
_exptl_crystal_F_000             296
_exptl_crystal_size_max          0.33
_exptl_crystal_size_mid          0.28
_exptl_crystal_size_min          0.24
_refine_diff_density_max         0.188
_refine_diff_density_min         -0.212
_refine_diff_density_rms         0.050
_refine_ls_extinction_method     none
_refine_ls_goodness_of_fit_ref   1.056
_refine_ls_hydrogen_treatment    constr
_refine_ls_matrix_type           full
_refine_ls_number_parameters     182
_refine_ls_number_reflns         2848
_refine_ls_number_restraints     0
_refine_ls_restrained_S_all      1.056
_refine_ls_R_factor_all          0.1435
_refine_ls_R_factor_gt           0.0660
_refine_ls_shift/su_max          0.000
_refine_ls_shift/su_mean         0.000
_refine_ls_structure_factor_coef Fsqd
_refine_ls_weighting_details
'w=1/[\s^2^(Fo^2^)+(0.0630P)^2^+0.0648P] where P=(Fo^2^+2Fc^2^)/3'
_refine_ls_weighting_scheme      calc
_refine_ls_wR_factor_gt          0.1400
_refine_ls_wR_factor_ref         0.1998
_reflns_Friedel_coverage         0.000
_reflns_number_gt                1326
_reflns_number_total             2848
_reflns_threshold_expression     'I > 2\s(I)'
_cod_data_source_file            jo6b00031_si_002.cif
_cod_data_source_block           wangchao0506
_cod_original_cell_volume        729.4(4)
_cod_database_code               4036613
_shelx_space_group_comment
;
The symmetry employed for this shelxl refinement is uniquely defined
by the following loop, which should always be used as a source of
symmetry information in preference to the above space-group names.
They are only intended as comments.
;
_reflns_odcompleteness_completeness 99.57
_reflns_odcompleteness_iscentric 1
_reflns_odcompleteness_theta     26.32
_olex2_refinement_description
;
1. Fixed Uiso
 At 1.2 times of:
  All C(H) groups, All C(H,H) groups
 At 1.5 times of:
  All C(H,H,H) groups
2.a Secondary CH2 refined with riding coordinates:
 C11(H11A,H11B), C12(H12A,H12B), C13(H13A,H13B), C14(H14A,H14B), C15(H15A,H15B)
2.b Aromatic/amide H refined with riding coordinates:
 C1(H1), C2(H2), C4(H4), C5(H5), C7(H7), C8(H8)
2.c Idealised Me refined as rotating group:
 C16(H16A,H16B,H16C)
;
_shelx_res_file
;
    wangchao0506.res created by SHELXL-2014/7

TITL wangchao0506 in P-1 #2
REM reset to P-1 #2
CELL 0.71073 5.767933 9.859162 13.531213 73.5412 85.5945 81.5054
ZERR 2 0.001856 0.003185 0.003992 0.0271 0.0251 0.0267
LATT 1
SFAC C H F N O
UNIT 32 38 4 2 2

L.S. 20
PLAN  20
BOND
MORE -1
BOND $H
CONF
fmap 2
acta 51.0
SHEL 999 0.81
REM <olex2.extras>
REM <HklSrc "%.\\wangchao0506.hkl">
REM </olex2.extras>

WGHT    0.063000    0.064800
FVAR      12.16234
F1    3    0.109404    0.707255    0.751418    11.00000    0.09164    0.09262 =
         0.06675   -0.01877   -0.01524   -0.03736
F2    3   -0.169396    0.844052    0.660776    11.00000    0.10424    0.05074 =
         0.08280   -0.01670    0.00246   -0.00646
O1    5    0.271096    0.608206    0.601764    11.00000    0.04938    0.08738 =
         0.06946   -0.00354    0.00036   -0.00788
N1    4   -0.044034    0.702724    0.503899    11.00000    0.05651    0.05377 =
         0.04656   -0.00540    0.00199   -0.01270
C1    1   -0.532664    0.374554    0.851336    11.00000    0.05734    0.06494 =
         0.04201   -0.01075    0.00288   -0.01066
AFIX  43
H1    2   -0.571449    0.418560    0.783189    11.00000   -1.20000
AFIX   0
C2    1   -0.662794    0.272668    0.911899    11.00000    0.05701    0.06735 =
         0.05607   -0.01454    0.00042   -0.01364
AFIX  43
H2    2   -0.789034    0.249988    0.883701    11.00000   -1.20000
AFIX   0
C3    1   -0.610649    0.203406    1.013316    11.00000    0.06088    0.04990 =
         0.05578   -0.01186    0.01139    0.00082
C4    1   -0.426560    0.241566    1.053244    11.00000    0.07447    0.07220 =
         0.04324   -0.00303    0.00181    0.00096
AFIX  43
H4    2   -0.390588    0.198762    1.121861    11.00000   -1.20000
AFIX   0
C5    1   -0.293807    0.342443    0.993273    11.00000    0.06115    0.07069 =
         0.05399   -0.00944   -0.00631   -0.00841
AFIX  43
H5    2   -0.167600    0.364135    1.022116    11.00000   -1.20000
AFIX   0
C6    1   -0.342938    0.412203    0.891569    11.00000    0.04943    0.04959 =
         0.05174   -0.01312    0.00562   -0.00277
C7    1   -0.195158    0.516873    0.832748    11.00000    0.05953    0.05960 =
         0.04988   -0.00933    0.00010   -0.00947
AFIX  43
H7    2   -0.060990    0.522243    0.864686    11.00000   -1.20000
AFIX   0
C8    1   -0.227095    0.604746    0.740287    11.00000    0.05495    0.06352 =
         0.05017   -0.01605    0.00327   -0.01046
AFIX  43
H8    2   -0.361688    0.604556    0.706660    11.00000   -1.20000
AFIX   0
C9    1   -0.057465    0.705072    0.686493    11.00000    0.05954    0.05281 =
         0.05560   -0.01028   -0.00756   -0.01007
C10   1    0.070350    0.670590    0.590879    11.00000    0.05236    0.04469 =
         0.05594   -0.00635    0.00586   -0.01587
C11   1    0.080394    0.674146    0.411736    11.00000    0.08209    0.05385 =
         0.05753   -0.01495    0.00928   -0.01188
AFIX  23
H11A  2    0.001775    0.608998    0.388398    11.00000   -1.20000
H11B  2    0.239300    0.629499    0.428381    11.00000   -1.20000
AFIX   0
C12   1    0.086444    0.812292    0.326647    11.00000    0.09709    0.06097 =
         0.05348   -0.00814    0.01625   -0.01867
AFIX  23
H12A  2    0.184622    0.871361    0.346458    11.00000   -1.20000
H12B  2    0.155608    0.791041    0.264199    11.00000   -1.20000
AFIX   0
C13   1   -0.155899    0.893708    0.305210    11.00000    0.10126    0.07436 =
         0.05516    0.00439   -0.00902   -0.01858
AFIX  23
H13A  2   -0.143378    0.986044    0.256461    11.00000   -1.20000
H13B  2   -0.246178    0.841857    0.274286    11.00000   -1.20000
AFIX   0
C14   1   -0.281423    0.914495    0.402499    11.00000    0.06234    0.06848 =
         0.06769    0.00101   -0.00900   -0.00361
AFIX  23
H14A  2   -0.441280    0.958774    0.387664    11.00000   -1.20000
H14B  2   -0.203568    0.977654    0.428282    11.00000   -1.20000
AFIX   0
C15   1   -0.283810    0.772835    0.483972    11.00000    0.05138    0.07839 =
         0.05679   -0.00827   -0.00304   -0.01779
AFIX  23
H15A  2   -0.359439    0.788408    0.547104    11.00000   -1.20000
H15B  2   -0.372441    0.712221    0.460585    11.00000   -1.20000
AFIX   0
C16   1   -0.751042    0.089615    1.078594    11.00000    0.09149    0.06330 =
         0.07867   -0.00136    0.02530   -0.01325
AFIX 137
H16A  2   -0.912684    0.114135    1.060648    11.00000   -1.50000
H16B  2   -0.738394    0.083136    1.150161    11.00000   -1.50000
H16C  2   -0.691080   -0.000590    1.066370    11.00000   -1.50000
AFIX   0
HKLF 4

REM  wangchao0506 in P-1 #2
REM R1 =  0.0660 for    1326 Fo > 4sig(Fo)  and  0.1435 for all    2848 data
REM    182 parameters refined using      0 restraints

END

WGHT      0.0630      0.0648

REM Highest difference peak  0.188,  deepest hole -0.212,  1-sigma level  0.050
Q1    1  -0.8925  0.1667  1.1244  11.00000  0.05    0.19
Q2    1  -0.4630  0.2417  0.7967  11.00000  0.05    0.16
Q3    1  -0.2662  0.0138  1.1261  11.00000  0.05    0.16
Q4    1  -0.7635  0.3947  0.9591  11.00000  0.05    0.15
Q5    1  -0.1968  0.4524  1.0244  11.00000  0.05    0.15
Q6    1  -0.3480  0.7192  0.3359  11.00000  0.05    0.14
Q7    1  -0.8703  0.0582  1.0184  11.00000  0.05    0.14
Q8    1  -1.1652  0.1057  1.0377  11.00000  0.05    0.14
Q9    1  -0.0406  0.9458  0.6028  11.00000  0.05    0.14
Q10   1   0.3525  0.6429  0.7227  11.00000  0.05    0.14
Q11   1   0.1118  0.3983  0.9421  11.00000  0.05    0.14
Q12   1  -0.5712  1.0389  0.4547  11.00000  0.05    0.14
Q13   1   0.1129  0.3154  1.0349  11.00000  0.05    0.14
Q14   1   0.2452  0.7767  0.6994  11.00000  0.05    0.14
Q15   1   0.2073  0.4517  0.8683  11.00000  0.05    0.13
Q16   1  -0.4955  0.0154  1.0812  11.00000  0.05    0.13
Q17   1  -0.6271  0.6572  0.6983  11.00000  0.05    0.13
Q18   1  -0.4150  0.6262  0.3496  11.00000  0.05    0.13
Q19   1  -0.3485  0.7569  0.7000  11.00000  0.05    0.13
Q20   1  -0.1372  0.9750  0.6789  11.00000  0.05    0.13
;
_shelx_res_checksum              53281
_shelx_hkl_file
;
   0   0   3 121316. 3325.33   6
   0   0   3 135172. 3242.49   5
   0   0   4 7561.78 959.653   6
   0   0   4 6919.44 863.572   5
   0   0  -5 16764.4 1597.79   4
   0   0   5 19247.1 1730.58   6
   0   0   5 17562.5 1552.31   5
   0   0   6 1571.61 551.824   5
   0   0   6 1103.96 493.557   6
   0   0   7 9078.54 1460.87   6
   0   0   7 8469.26 1303.06   5
   0   0   8 13812.3 1782.03   5
   0   0   8 16742.4 2087.42   6
   0   0   9 3077.43 915.533   5
   0   0   9 4345.80 1141.40   6
   0   0  10 13275.1 2075.91   6
   0   0  11 15551.8 2385.93   6
   0   0  12 32724.5 3646.71   6
   0   0  13 1215.70 675.990   6
   0   0  14 1592.40 889.364   6
   0   0  15 213.959 371.395   6
   0   0  16-444.223 535.654   6
   0  -1  16 1512.98 898.658   6
   0  -1  15-82.7595 391.102   6
   0  -1  14 349.752 288.177   6
   0  -1  13-93.7803 241.809   6
   0  -1  12 2011.63 828.082   6
   0  -1  11 2985.82 1086.98   6
   0  -1  11 3401.76 1110.33   5
   0  -1  10-575.494 449.114   5
   0  -1  10 546.447 441.561   6
   0  -1   9 20232.0 2409.18   5
   0  -1   9 18835.0 2401.74   6
   0  -1   8 5623.48 1203.96   6
   0  -1   8 7093.16 1320.96   5
   0  -1   7 21693.3 2225.45   6
   0  -1   7 22870.7 2271.96   5
   0  -1   6 75261.8 3785.03   5
   0  -1   6 69337.4 3757.12   6
   0  -1   5 336.500 223.938   5
   0  -1   5 491.607 337.210   6
   0  -1   4 27473.3 1924.88   6
   0  -1   4 25253.9 1840.25   5
   0  -1   3 29184.2 1768.90   5
   0  -1   3 29423.8 1774.90   6
   0  -1   2 16816.1 1126.68   6
   0  -1   2 14843.2 1103.01   5
   0   1   2 43626.8 1577.77   4
   0   1   3 345518. 5189.81   4
   0   1   3 345444. 5523.97   6
   0  -1  -4 30281.0 1713.68   5
   0   1   4 32374.7 1937.86   6
   0   1   4 27732.3 1692.79   4
   0   1   5 161856. 4892.45   6
   0  -1  -5 160102. 4400.41   5
   0   1   5 157433. 4534.33   4
   0  -1  -5 156340. 4552.99   4
   0   1   6 18733.6 1848.27   6
   0  -1  -6 19670.7 1698.69   5
   0   1   7 22810.2 2226.61   6
   0   1   8 45744.2 3372.21   6
   0   1   9 529.726 466.998   6
   0   1  10 349.276 315.734   6
   0   1  11 4020.19 1252.97   6
   0   1  12 2166.37 1028.90   6
   0   1  13-28.6310 250.692   6
   0   1  14 943.608 669.371   6
   0   1  15 1468.40 1034.72   6
   0   1  16 174.257 373.394   6
   0  -2  15 600.189 611.455   6
   0  -2  14-778.326 654.817   6
   0  -2  13 137.490 290.825   5
   0  -2  13 427.726 469.882   6
   0  -2  12 371.500 536.087   5
   0  -2  12 1185.78 699.904   6
   0  -2  11 656.097 439.989   5
   0  -2  11 1162.79 701.672   6
   0  -2  10-816.575 559.514   5
   0  -2  10-40.0831 268.335   6
   0  -2   9 781.853 589.815   6
   0  -2   9-259.301 318.780   5
   0  -2   8 28594.3 2884.64   5
   0  -2   8 28716.0 2871.09   6
   0  -2   7 31512.8 2828.42   5
   0  -2   7 33912.5 2960.09   6
   0  -2   6 4585.43 994.914   5
   0  -2   6 6809.43 1272.57   6
   0  -2   5 141.744 178.385   5
   0  -2   5 415.532 288.575   6
   0  -2   4 52691.4 2912.61   6
   0  -2   4 48237.5 2873.38   5
   0  -2   3 9287.06 1157.88   5
   0  -2   3 8560.13 1055.71   6
   0  -2   2 99203.8 3423.68   5
   0  -2   1 3718.18 590.352   5
   0  -2   0 491616. 5882.61   5
   0  -2  -1 166244. 3268.31   2
   0   2   2 768376. 5473.43   3
   0  -2  -2 770508. 7100.79   2
   0   2   2 765444. 7931.85   4
   0  -2  -2 764534. 5400.18   3
   0  -2  -3 388615. 5598.71   2
   0   2   3 387142. 6156.94   4
   0   2   4 230390. 5157.19   4
   0   2   4 231750. 5459.71   6
   0  -2  -5 156228. 4639.59   4
   0   2   5 155238. 4648.75   4
   0   2   5 155705. 4902.36   6
   0  -2  -6 9618.39 1158.88   5
   0   2   6 10080.6 1279.29   4
   0   2   6 9919.20 1354.72   6
   0   2   7-376.156 276.850   4
   0   2   7-8.51634 117.251   6
   0   2   8 6303.27 1256.20   6
   0   2   8 6544.47 1203.79   4
   0   2   9 10517.8 1733.44   6
   0   2  10 7183.71 1483.57   6
   0   2  11 13170.9 2163.65   6
   0   2  12 24475.3 3120.39   6
   0   2  13 3051.87 1178.76   6
   0   2  14 780.791 624.865   6
   0   2  15 2862.03 1234.90   6
   0   2  16-407.638 526.692   6
   0   2  17 152.240 322.356   6
   0  -3  15 1087.20 831.474   6
   0  -3  14 551.188 609.038   6
   0  -3  14-822.459 714.178   5
   0  -3  13 941.618 712.534   5
   0  -3  13 1276.63 826.518   6
   0  -3  12 2766.10 1144.83   5
   0  -3  12 3874.65 1321.84   6
   0  -3  11 5205.30 1511.69   6
   0  -3  11 2617.78 1075.20   5
   0  -3  10 81.0260 341.624   6
   0  -3  10 245.211 231.571   5
   0  -3   9 6644.34 1549.32   6
   0  -3   9 6623.83 1541.08   5
   0   3  -8 1403.70 265.351   1
   0  -3   8 1517.52 677.861   5
   0  -3   8 2307.48 879.034   6
   0  -3   7 2840.64 922.851   5
   0  -3   7 3414.59 1025.44   6
   0  -3   6 52216.8 3749.51   5
   0  -3   6 52069.6 3658.76   6
   0  -3   5 15938.9 1963.21   5
   0  -3   5 16257.9 1881.05   6
   0  -3   4 4863.70 1007.28   5
   0  -3   4 5356.95 973.943   6
   0  -3   3 4582.73 906.240   5
   0  -3   2 24673.9 1951.84   5
   0  -3   1 54909.9 2648.18   5
   0  -3   0 63600.1 2591.88   5
   0  -3  -1 2739.76 498.635   5
   0  -3  -2 37630.8 1910.96   2
   0   3   2 35653.8 1258.23   3
   0   3   2 37652.8 1936.46   2
   0  -3  -3 61785.2 1874.24   3
   0  -3  -3 64243.3 2552.24   2
   0   3   3 59556.2 2755.44   4
   0   3   3 62484.4 2573.73   2
   0  -3  -4 24469.2 1675.71   2
   0   3   4 27536.1 1961.55   4
   0  -3  -4 24623.2 1398.07   3
   0   3   5 28532.3 2127.06   4
   0   3   6 146942. 5088.10   4
   0   3   6 143261. 5339.48   6
   0   3   7 28945.1 2413.95   4
   0   3   7 29517.7 2617.66   6
   0   3   8 58904.9 3892.07   6
   0   3   8 57733.0 3582.48   4
   0   3   9 5021.35 1133.06   4
   0   3   9 5517.30 1274.15   6
   0   3  10 42056.4 3699.68   6
   0   3  10 40839.8 3406.25   4
   0   3  11 398.052 364.675   6
   0   3  12-14.0148 186.847   6
   0   3  13 551.198 527.429   6
   0   3  14 706.553 646.216   6
   0   3  15 576.972 574.452   6
   0   3  16 409.168 520.558   6
   0   3  17 426.651 530.844   6
   0  -4  14 1053.03 846.138   5
   0  -4  14 368.605 535.597   6
   0  -4  13-522.147 557.017   6
   0  -4  13 455.344 538.305   5
   0  -4  12-576.005 574.383   6
   0  -4  12 1110.19 653.750   5
   0  -4  11 246.347 390.074   5
   0  -4  11 322.625 410.656   6
   0  -4  10 2204.43 993.765   5
   0  -4  10 884.999 621.552   6
   0  -4   9 630.058 403.517   6
   0  -4   9 1517.29 704.506   5
   0  -4   8 9931.32 1928.04   5
   0  -4   8 10381.7 1914.82   6
   0  -4   7 13858.9 2161.52   5
   0  -4   7 15973.1 2258.69   6
   0  -4   6 854.863 499.635   5
   0  -4   6 1431.64 636.433   6
   0  -4   5 2072.34 760.357   5
   0  -4   5 1329.87 526.795   6
   0  -4   4 68202.0 4147.46   5
   0  -4   4 63399.3 3797.15   6
   0  -4   3 107674. 4868.52   5
   0  -4   2 36014.7 2643.39   5
   0  -4   1 28252.8 2152.04   5
   0  -4   0 38598.1 2350.10   5
   0   4   1 10744.0 1257.90   2
   0  -4  -1 11806.1 1209.99   5
   0   4   2-1.37565 41.8638   2
   0  -4  -2 138.111 146.918   5
   0   4   3 7571.12 998.803   2
   0  -4  -3 6349.05 902.603   2
   0   4   3 5904.63 626.243   3
   0   4   4 36070.8 2472.37   4
   0  -4  -4 34259.4 1602.86   3
   0   4   4 36306.0 2264.73   2
   0  -4  -4 32490.6 2114.17   2
   0   4   5 45141.2 2899.25   4
   0  -4  -5 41477.2 2025.61   3
   0  -4  -5 38985.1 2414.71   2
   0  -4  -6 34619.6 2413.12   2
   0  -4  -6 32393.9 1963.34   3
   0   4   6 32931.4 2599.70   4
   0   4   7 10719.2 1560.13   4
   0  -4  -7 10126.6 1191.93   3
   0  -4  -7 10563.7 1412.18   2
   0   4   8 6816.40 1299.93   4
   0   4   9 2431.24 845.060   4
   0   4  10 702.470 304.427   4
   0   4  10 1122.23 583.031   6
   0   4  11-12.7671 263.076   4
   0   4  11 943.213 597.066   6
   0   4  12 2195.90 871.839   4
   0   4  12 3250.70 1117.63   6
   0   4  13 40.7056 206.880   6
   0   4  14-434.761 490.447   6
   0   4  15 141.349 499.489   6
   0   4  16 1754.21 996.157   6
   0  -5  14 174.938 412.362   6
   0  -5  13 1797.91 1055.96   6
   0  -5  13 2390.18 1228.52   5
   0  -5  12 2386.89 1172.91   6
   0  -5  12 2041.93 1053.00   5
   0  -5  11-26.0331 452.659   6
   0  -5  11-625.187 575.539   5
   0  -5  10 3414.09 1210.94   5
   0  -5  10 3023.04 1190.11   6
   0  -5   9 3254.68 1243.05   6
   0  -5   9 2675.17 1078.12   5
   0  -5   8 13663.3 2320.38   6
   0  -5   8 14100.3 2407.11   5
   0  -5   7 7114.60 1653.52   5
   0  -5   7 6888.28 1562.15   6
   0  -5   6 955.307 549.665   6
   0  -5   6 1853.02 896.296   5
   0  -5   5 7478.95 1533.97   5
   0  -5   5 6115.41 1354.00   6
   0  -5   4 794.719 466.008   5
   0  -5   3 185.482 254.967   5
   0  -5   2 26980.4 2505.22   5
   0  -5   1 3978.98 892.120   5
   0  -5   0 7578.06 1163.61   5
   0  -5  -1 13248.4 1462.58   5
   0  -5  -2 14728.7 1500.46   5
   0   5   3 19593.7 1184.55   3
   0  -5  -3 20404.9 1811.64   2
   0   5   4 156.489 238.411   4
   0   5   4 317.402 171.971   3
   0  -5  -4 353.707 244.540   2
   0   5   5 755.993 435.915   4
   0  -5  -5 531.840 335.136   2
   0   5   6 2618.17 757.245   4
   0  -5  -6 2477.60 530.447   3
   0  -5  -6 2991.67 745.194   2
   0   5   7 137.560 157.144   4
   0  -5  -7 459.024 369.935   2
   0  -5  -7 717.771 314.973   3
   0  -5  -8 2113.44 670.376   2
   0   5   8 2776.53 849.507   4
   0  -5  -8 2723.67 673.753   3
   0  -5  -9 3960.84 960.020   2
   0  -5  -9 2017.56 629.120   3
   0   5   9 2568.14 831.312   4
   0   5  10 2115.76 786.802   4
   0  -5 -10 2393.24 778.889   2
   0  -5 -10 2034.80 656.738   3
   0   5  11 3215.71 1058.44   4
   0  -5 -11 4093.98 987.058   3
   0   5  12 1147.64 650.272   4
   0  -5 -12 348.409 290.763   3
   0   5  13 583.206 491.383   4
   0  -5 -13 17.4266 104.873   3
   0  -5 -14 1069.41 610.851   3
   0  -5 -15 1425.46 747.292   3
   0  -5 -16 542.084 487.651   3
   0  -5 -17 734.856 605.176   3
   0  -5 -18 164.917 337.271   3
   0  -6  13 234.163 406.717   6
   0  -6  12 2517.94 1233.98   6
   0  -6  11 1529.10 970.334   5
   0  -6  11-647.007 627.011   6
   0  -6  10-471.232 511.883   5
   0  -6  10 393.098 465.626   6
   0  -6   9-230.595 394.649   5
   0  -6   9 73.8155 358.679   6
   0  -6   8 514.554 502.188   5
   0  -6   8-56.7834 453.202   6
   0  -6   7-507.458 485.615   5
   0  -6   7-342.306 484.896   6
   0  -6   6 27013.1 3254.06   5
   0  -6   6 25629.2 3031.46   6
   0  -6   5 22329.6 2714.72   6
   0  -6   5 23028.3 2901.85   5
   0  -6   4 187.029 275.275   5
   0  -6   3 14042.3 2044.76   5
   0  -6   3 11388.0 1041.00   1
   0  -6   3 13918.2 748.766   1
   0  -6   2 2268.88 708.073   5
   0  -6   1 37757.3 3045.13   5
   0  -6   0 4621.97 1063.40   5
   0  -6  -1-61.1103 127.296   5
   0  -6  -2 2307.79 635.682   5
   0  -6  -3 1740.18 583.769   5
   0   6   3 1168.92 329.129   3
   0   6   4 894.814 460.493   4
   0  -6  -4 281.424 239.610   2
   0   6   4 263.006 153.039   3
   0  -6  -5 1969.61 616.910   2
   0   6   5 2983.47 847.482   4
   0   6   6 21920.6 2403.30   4
   0  -6  -6 19687.9 2021.28   2
   0   6   7 15813.8 2108.00   4
   0  -6  -7 18909.3 2026.49   2
   0  -6  -7 16287.4 1488.53   3
   0   6   8 4654.58 1197.12   4
   0  -6  -8 5148.05 917.509   3
   0  -6  -8 5903.46 1174.45   2
   0  -6  -9 13423.6 1583.54   3
   0  -6  -9 16330.6 2036.80   2
   0   6   9 14416.7 2181.37   4
   0  -6 -10-195.771 259.523   2
   0  -6 -10-252.630 238.893   3
   0   6  10 410.761 396.388   4
   0  -6 -11 5833.00 1293.62   2
   0   6  11 5776.43 1450.95   4
   0  -6 -11 5668.05 1168.71   3
   0  -6 -12 1255.96 586.090   3
   0  -6 -12 621.263 534.152   2
   0   6  12 1543.08 784.569   4
   0   6  13 174.009 304.587   4
   0  -6 -13 853.574 547.468   2
   0  -6 -13 382.077 348.010   3
   0  -6 -14-340.952 374.989   2
   0   6  14-461.379 459.130   4
   0  -6 -14 483.990 412.847   3
   0  -6 -15 609.800 492.050   3
   0  -6 -16 673.637 543.181   3
   0  -7  12 256.240 481.182   6
   0  -7  11 292.206 446.161   6
   0  -7  10 221.013 373.198   6
   0  -7  10 992.100 773.179   5
   0  -7   9 1676.14 966.049   5
   0  -7   9 731.256 625.460   6
   0  -7   8 213.401 344.631   6
   0  -7   8-203.745 355.733   5
   0  -7   7 1305.60 765.240   6
   0  -7   7 2211.14 1014.07   5
   0  -7   6 4432.60 1332.67   6
   0  -7   6 2917.77 1092.01   5
   0  -7   5 27652.6 3194.86   6
   0  -7   5 28221.5 3357.94   5
   0  -7   4-131.225 413.043   5
   0  -7   3-108.584 257.530   5
   0  -7   2 5988.22 1357.47   5
   0  -7   1-96.9618 177.245   5
   0  -7   0 6091.41 1293.95   5
   0  -7  -1 15136.8 1903.10   5
   0  -7  -2 17023.8 1957.40   5
   0   7   3-133.378 123.885   3
   0  -7  -3 11.6668 94.8111   5
   0   7   4 192.271 139.088   3
   0  -7  -4 17.3602 196.173   5
   0  -7  -5 4481.03 1014.51   2
   0  -7  -5 2684.50 738.190   5
   0   7   5 3549.55 1005.11   4
   0   7   6 478.518 408.200   4
   0  -7  -6 431.478 276.708   2
   0  -7  -7 23432.5 2406.04   2
   0   7   7 27389.6 2935.73   4
   0  -7  -8 2322.98 745.564   2
   0   7   8 2860.49 981.697   4
   0  -7  -9 1390.17 498.605   3
   0  -7  -9 2204.91 775.947   2
   0   7   9 2275.89 931.138   4
   0  -7 -10 421.321 291.171   3
   0  -7 -10 368.377 399.639   2
   0   7  10 649.572 426.215   4
   0   7  11 1304.76 711.624   4
   0  -7 -11 545.911 363.732   3
   0  -7 -11 225.140 267.417   2
   0   7  12-47.9767 187.288   4
   0  -7 -12 633.680 408.510   3
   0  -7 -12 125.027 232.988   2
   0  -7 -13 3318.68 1009.42   3
   0  -7 -13 2441.34 906.675   2
   0   7  13 1780.12 888.015   4
   0   7  14 2265.70 1045.63   4
   0   7  15 2455.45 1118.37   4
   0   7  16 1335.27 864.436   4
   0  -8  10 1941.23 1030.51   6
   0  -8   9-830.766 699.033   6
   0  -8   9 782.549 722.563   5
   0  -8   8 510.025 520.224   6
   0  -8   8 658.164 615.096   5
   0  -8   7 256.618 381.203   6
   0  -8   7 441.403 490.098   5
   0  -8   6 517.108 486.144   6
   0  -8   6-872.463 660.867   5
   0  -8   5 108.065 251.422   5
   0  -8   5-513.320 476.691   6
   0  -8   4 177.388 587.764   5
   0  -8   3 10409.1 1993.39   5
   0  -8   2 25066.1 3003.10   5
   0  -8   1 11106.5 1949.52   5
   0  -8   0 2747.09 886.703   5
   0  -8  -1 32.7192 145.528   5
   0  -8  -2 22205.9 2433.12   5
   0  -8  -3 1283.14 558.134   5
   0  -8  -4 3009.70 833.803   5
   0   8   5 94.0170 243.685   4
   0  -8  -5-103.337 171.716   5
   0  -8  -6 142.547 192.677   5
   0   8   6-380.817 379.109   4
   0   8   7 716.847 520.610   4
   0  -8  -7-263.490 278.825   2
   0   8   8 2364.48 915.408   4
   0  -8  -8 2234.45 785.113   2
   0  -8  -9 6532.64 1380.60   2
   0   8   9 5528.55 1484.42   4
   0   8  10 7412.18 1756.02   4
   0  -8 -10 6426.33 1386.11   2
   0  -8 -11 2896.64 957.958   2
   0   8  11 2805.79 1176.79   4
   0   8  12 1473.42 786.870   4
   0  -8 -12 1469.00 655.467   2
   0   8  13 122.902 268.926   4
   0   8  14 1567.87 879.132   4
   0   8  15-438.912 527.475   4
   0   8  16 52.0826 254.196   4
   0   8  17 1215.15 868.608   4
   0  -9   9-864.175 743.233   6
   0  -9   8 358.117 474.947   6
   0  -9   7 520.695 521.626   6
   0  -9   7-127.146 335.997   5
   0  -9   6-37.7169 343.059   5
   0  -9   6 94.7657 245.446   6
   0  -9   5-664.650 567.802   6
   0  -9   5-656.614 593.586   5
   0  -9   4 794.130 612.798   5
   0  -9   3 1563.94 832.757   5
   0  -9   2 2967.93 1088.53   5
   0  -9   1 269.741 353.502   5
   0  -9   0 1809.34 803.520   5
   0  -9  -1 158.838 259.473   5
   0  -9  -2 9016.43 1682.19   5
   0  -9  -3 217.088 335.833   5
   0  -9  -4 930.995 519.686   5
   0  -9  -5 12284.4 1810.98   5
   0   9   5 13359.1 2367.03   4
   0   9   6 1394.78 767.282   4
   0  -9  -6 822.361 408.592   5
   0   9   7 830.271 583.494   4
   0  -9  -7 898.255 482.330   5
   0   9   8-33.2414 180.072   4
   0  -9  -8-319.896 297.731   5
   0  -9  -8-139.869 222.740   2
   0  -9  -9 698.210 467.133   2
   0   9   9 1069.65 751.306   4
   0   9  10 1962.77 900.615   4
   0  -9 -10 975.135 561.444   2
   0  -9 -11 141.940 231.441   2
   0   9  11-294.991 395.016   4
   0   9  12-212.877 218.434   4
   0   9  13 165.075 349.367   4
   0   9  14 1937.51 1045.24   4
   0   9  15-235.664 396.620   4
   0   9  16 2201.52 1164.35   4
   0 -10   7-23.2576 214.635   6
   0 -10   6-783.793 268.975   6
   0 -10   5 575.764 541.577   6
   0 -10   5 294.619 416.594   5
   0 -10   4 537.924 541.533   5
   0 -10   3 546.981 523.394   5
   0 -10   2 520.128 491.467   5
   0 -10   1-128.789 246.412   5
   0 -10   0 3586.89 1215.32   5
   0 -10  -1-81.4177 232.090   5
   0 -10  -2 602.029 581.186   5
   0 -10  -3 703.893 491.010   5
   0 -10  -4 950.121 552.694   5
   0 -10  -5 899.907 561.046   5
   0  10   5 2444.28 1086.73   4
   0  10   6 534.646 537.794   4
   0 -10  -6 557.165 414.160   5
   0 -10  -7-30.4519 124.563   5
   0  10   7 134.798 291.099   4
   0  10   8 87.0882 234.214   4
   0  10   9 435.608 475.415   4
   0  10  10-521.988 544.197   4
   0  10  11 85.0563 279.173   4
   0  10  12 1233.15 826.166   4
   0  10  13 641.989 631.648   4
   0  10  14 1067.28 805.049   4
   0 -11   5 518.695 569.830   6
   0 -11   4-538.513 573.505   5
   0 -11   4 1141.55 792.496   6
   0 -11   3 144.315 310.265   5
   0 -11   2 364.948 430.952   5
   0 -11   1 1015.07 634.377   5
   0 -11   0 713.965 584.558   5
   0 -11  -1-26.6344 153.691   5
   0 -11  -2-155.389 284.770   5
   0 -11  -3 678.883 520.194   5
   0 -11  -4 1665.18 780.552   5
   0  11   4 1906.93 1060.27   4
   0  11   5 2697.62 1174.25   4
   0 -11  -5 2193.99 883.595   5
   0 -11  -6 96.3435 210.666   5
   0  11   6 167.380 348.105   4
   0  11   7-156.051 319.964   4
   0  11   8 991.478 746.449   4
   0  11   9-1080.43 783.195   4
   0  11  10 1174.26 817.488   4
   0  11  11 585.075 599.024   4
   0  11  12-332.531 452.496   4
   0 -12   1 1112.33 776.641   5
   0 -12   0 848.824 680.190   5
   0 -12  -1 243.021 366.454   5
   0 -12  -2 92.9727 248.704   5
   0 -12  -3-412.438 435.098   5
   0  12   4 2282.30 1185.53   4
   0 -12  -4 320.715 367.917   5
   0  12   5-565.019 629.643   4
   0  12   6 990.539 798.118   4
   0  12   7 1050.98 812.913   4
   0  12   8 948.288 782.632   4
   0  12   9-1400.86 926.005   4
   1 -12   1 15.9743 754.934   5
  -1  11  10 645.351 630.941   4
  -1  11   9 128.507 325.568   4
  -1  11   8 769.627 700.167   4
  -1  11   7 93.6147 295.910   4
  -1  11   6 2156.25 1161.23   4
  -1  11   5 181.077 367.577   4
  -1  11   4 1670.97 1027.09   4
  -1  11   3-717.415 684.739   4
   1 -11  -2 283.128 488.008   5
   1 -11  -1 23.2434 106.792   5
   1 -11   0-313.496 383.761   5
   1 -11   1 2804.63 1158.00   5
   1 -11   2-17.5715 208.475   5
   1 -11   3 1220.93 804.260   5
   1 -11   4 1600.11 944.390   5
  -1  10  13 279.690 433.259   4
  -1  10  12-27.0847 165.689   4
  -1  10  11 753.277 667.268   4
  -1  10  10 1582.11 923.387   4
  -1  10   9 995.407 656.520   4
  -1  10   8-264.557 391.626   4
  -1  10   7 881.686 673.791   4
  -1  10   6 512.029 706.626   4
  -1  10   5 1322.14 832.737   4
   1 -10  -4 5058.23 1224.93   5
  -1  10   4 6620.32 1863.87   4
  -1  10   3 162.994 373.094   4
   1 -10  -3 96.9201 198.607   5
   1 -10  -2 930.649 566.831   5
   1 -10  -1 427.881 400.034   5
   1 -10   0 684.769 517.172   5
   1 -10   1 1406.36 768.483   5
   1 -10   2 2906.49 1127.83   5
   1 -10   3 90.2511 233.469   5
   1 -10   4 2018.29 896.275   5
   1 -10   5 2153.86 1061.79   5
   1 -10   5 1926.44 1062.01   6
   1 -10   6 1239.39 875.014   6
  -1   9  14-969.604 782.931   4
  -1   9  13-5.97061 174.635   4
  -1   9  12-615.999 606.554   4
  -1   9  11-18.5666 145.046   4
  -1   9  10 323.835 411.448   4
  -1   9   9 574.361 519.628   4
  -1   9   8-169.788 326.571   4
  -1   9   7 1625.01 812.230   4
  -1   9   6 283.012 376.270   4
  -1   9   5 4745.04 1420.05   4
   1  -9  -5 4147.57 988.419   5
   1  -9  -4 8714.96 1482.81   5
  -1   9   4 10417.8 2144.44   4
  -1   9   3 779.333 471.419   4
   1  -9  -3 466.234 360.128   5
   1  -9  -2 297.407 301.348   5
   1  -9  -1 2530.34 889.744   5
   1  -9   0 197.628 266.989   5
   1  -9   1 332.405 360.239   5
   1  -9   2 3733.61 1224.06   5
   1  -9   3 4310.68 1355.72   5
   1  -9   4 2775.90 1106.39   5
   1  -9   5 543.916 538.641   5
   1  -9   5-504.121 551.278   6
   1  -9   6 365.259 490.757   6
   1  -9   6 1194.20 802.686   5
   1  -9   7 1322.97 890.514   6
   1  -9   7 448.297 529.723   5
   1  -9   8 50.7431 210.692   6
  -1   8  15 241.778 412.240   4
  -1   8  14 279.409 443.078   4
  -1   8  13 1176.16 819.839   4
  -1   8  12 29.0513 223.588   4
  -1   8  11-204.673 334.230   4
  -1   8  10 3922.89 1365.10   4
  -1   8   9 3536.62 1257.61   4
  -1   8   8 1835.80 824.829   4
   1  -8  -7 617.722 319.725   5
  -1   8   7 873.612 598.341   4
  -1   8   6 1454.04 664.193   4
   1  -8  -6 2954.95 729.913   5
  -1   8   5-761.226 541.073   4
   1  -8  -5 397.097 276.460   5
   1  -8  -4 4433.94 939.467   5
  -1   8   4 3790.36 1163.17   4
   1  -8  -3 805.023 427.455   5
  -1   8   3 167.785 576.422   4
   1  -8  -2 475.566 359.770   5
   1  -8  -1 1273.21 555.842   5
   1  -8   0 8340.45 1555.13   5
   1  -8   1 6033.31 1394.93   5
   1  -8   2 1267.68 619.914   5
   1  -8   3 6876.87 1599.91   5
   1  -8   4 9768.10 2005.18   5
   1  -8   5 165.030 173.204   6
   1  -8   5 105.204 243.531   5
   1  -8   6 231.552 189.609   5
   1  -8   6-250.123 420.236   6
   1  -8   7 1490.53 887.741   5
   1  -8   7 59.6695 262.080   6
   1  -8   8-1201.79 619.162   6
   1  -8   8 118.352 332.351   5
   1  -8   9 863.248 726.779   6
  -1   7  16 3.11772 806.407   4
  -1   7  15-288.086 457.373   4
   1  -7 -14 271.249 336.601   3
  -1   7  14-792.987 673.730   4
  -1   7  13-178.376 346.549   4
   1  -7 -13-292.100 320.992   3
   1  -7 -12 142.648 230.893   3
  -1   7  12 51.9741 444.783   4
   1  -7 -11-162.007 216.241   3
  -1   7  11 473.048 480.186   4
   1  -7 -10 225.953 246.152   3
   1  -7 -10 472.293 313.555   2
  -1   7  10 12.9334 166.946   4
  -1   7   9 78.8168 213.316   4
   1  -7  -9-9.56513 111.560   2
  -1   7   8-601.663 491.051   4
   1  -7  -8-155.424 178.523   2
   1  -7  -7 959.209 378.071   5
  -1   7   7 1127.81 640.739   4
   1  -7  -6 7782.04 1061.28   5
  -1   7   6 7241.24 1547.91   4
   1  -7  -5 4013.02 768.091   5
  -1   7   5 5935.48 1392.51   4
   1  -7  -4 465.525 279.626   5
  -1   7   4-189.202 220.120   4
  -1   7   3 3262.29 1000.09   4
   1  -7  -3 3052.62 752.221   5
   1  -7  -2 1134.52 470.661   5
   1  -7  -1-14.6536 90.8363   5
   1  -7   0 3835.42 966.364   5
   1  -7   1 307.147 302.971   5
   1  -7   2 2611.28 627.165   1
   1  -7   2 2895.78 972.609   5
   1  -7   3 378.953 278.610   5
   1  -7   4 1323.10 734.227   5
   1  -7   5 1295.51 754.346   5
   1  -7   5 2199.92 959.686   6
   1  -7   6 10305.1 2117.45   5
   1  -7   6 11437.2 2275.29   6
   1  -7   7 724.773 470.938   6
   1  -7   7 541.038 310.438   5
   1  -7   8 1937.11 987.276   6
   1  -7   8 1170.05 734.310   5
   1  -7   9-778.128 665.813   5
   1  -7   9-28.0464 185.395   6
   1  -7  10 698.139 656.711   5
   1  -7  10 1497.07 927.499   6
   1  -7  11 1472.53 1163.82   6
   1  -6 -17 1013.38 720.143   3
   1  -6 -16 64.5315 182.495   3
   1  -6 -15 656.923 537.117   3
  -1   6  15 1244.32 829.283   4
   1  -6 -14 88.1604 193.535   3
  -1   6  14 257.160 375.118   4
  -1   6  13-632.738 560.473   4
   1  -6 -13 704.445 491.579   3
  -1   6  12-155.801 303.505   4
   1  -6 -12-410.172 373.864   3
   1  -6 -11 726.396 402.967   2
  -1   6  11 809.528 603.522   4
   1  -6 -11 1794.14 717.843   3
   1  -6 -10 106.823 154.582   2
   1  -6 -10 31.6636 116.702   3
   1  -6  -9 632.165 389.030   3
  -1   6   9 1410.16 752.729   4
   1  -6  -9 749.763 363.143   2
  -1   6   8-58.9810 213.367   4
   1  -6  -8 217.860 228.463   3
   1  -6  -8 554.288 303.157   2
   1  -6  -7 14094.4 1481.61   2
  -1   6   7 14212.8 2152.84   4
   1  -6  -6 2.25284 42.8953   5
  -1   6   6-34.4742 135.439   4
   1  -6  -5-33.3204 74.8552   5
  -1   6   5 333.795 146.090   4
   1  -6  -4 11932.7 1250.84   5
  -1   6   4 11673.6 1790.17   4
   1  -6  -3 0.71456 196.727   5
  -1   6   3 230.823 191.206   4
   1  -6  -2 23020.0 1954.96   5
   1  -6  -1 10587.0 1394.44   5
   1  -6   0 12670.7 1626.81   5
   1  -6   1 30949.9 2720.71   5
   1  -6   2 23145.3 2470.06   5
   1  -6   2 26824.6 1924.66   1
   1  -6   3 2415.49 842.955   5
   1  -6   3 2754.24 564.419   1
   1  -6   4 448.288 393.055   5
   1  -6   5 620.056 488.314   6
   1  -6   5 471.066 440.510   5
   1  -6   6 9569.05 1923.12   5
   1  -6   6 9204.25 1934.77   6
   1  -6   7 6130.23 1669.12   6
   1  -6   7 5151.59 1507.91   5
   1  -6   8 586.157 533.586   5
   1  -6   8 771.385 603.972   6
   1  -6   9-95.3567 276.871   5
   1  -6   9 593.472 338.412   6
   1  -6  10 1328.19 876.082   5
   1  -6  10 910.257 718.124   6
   1  -6  11 1621.63 1021.23   5
   1  -6  11 2527.77 1212.02   6
   1  -6  12 1122.50 841.661   6
   1  -5 -17 386.535 446.369   3
   1  -5 -16 297.378 375.755   3
   1  -5 -15 282.820 347.588   3
   1  -5 -14 408.353 402.823   3
   1  -5 -13 479.278 415.913   3
  -1   5  13-882.204 646.458   4
   1  -5 -12 2369.49 760.865   2
   1  -5 -12 1882.87 771.565   3
  -1   5  12 2369.75 1006.48   4
   1  -5 -11 1203.24 501.724   2
   1  -5 -11 721.302 434.484   3
  -1   5  11 218.146 324.642   4
  -1   5  10 9037.09 1832.85   4
   1  -5 -10 10768.9 1490.42   2
   1  -5 -10 11526.8 1726.82   3
   1  -5  -9 5283.30 1101.23   3
  -1   5   9 5431.02 1357.45   4
   1  -5  -9 6742.20 1084.95   2
   1  -5  -8 2260.84 536.498   5
   1  -5  -8 1623.28 520.063   2
  -1   5   8 1296.75 639.319   4
   1  -5  -8 2213.23 657.139   3
   1  -5  -7 298.763 203.735   3
   1  -5  -7 402.537 231.525   2
  -1   5   7 61.7742 188.926   4
   1  -5  -6 7006.04 935.019   2
  -1   5   6 7519.00 1446.34   4
   1  -5  -5 20007.6 1335.57   5
  -1   5   5 21673.9 2313.75   4
  -1   5   4 8320.68 1066.19   2
  -1   5   4 7595.17 1336.11   4
   1  -5  -4 7448.87 849.450   5
   1  -5  -3 5869.76 811.938   5
  -1   5   3 5002.69 1037.81   4
  -1   5   3 6862.79 1008.53   2
   1  -5  -2 5622.57 849.208   5
   1  -5  -1 17442.9 1620.48   5
   1  -5   0 34418.3 2433.70   5
   1  -5   1 4270.82 925.803   5
   1  -5   2 12152.6 1226.71   1
   1  -5   2 10792.7 1551.23   5
   1  -5   3 1978.28 726.496   5
   1  -5   3 1404.52 390.011   1
   1  -5   4 12589.9 1909.99   5
   1  -5   4 13918.4 1251.52   1
   1  -5   5 2651.36 936.410   6
   1  -5   5 2194.76 825.188   5
   1  -5   6 994.926 587.861   5
   1  -5   6 1253.38 682.997   6
   1  -5   7 36.8767 234.044   6
   1  -5   7-48.5300 324.121   5
   1  -5   8 4.28256 227.290   5
   1  -5   8 441.337 452.041   6
   1  -5   9 177.128 285.084   5
   1  -5   9 94.4977 272.022   6
   1  -5  10 302.984 562.950   5
   1  -5  10 160.030 328.371   6
   1  -5  11 2610.72 1178.63   6
   1  -5  11 1324.29 955.288   5
   1  -5  12-458.223 544.451   6
   1  -5  12 142.299 344.394   5
   1  -5  13 879.955 755.481   6
   1  -4 -17 1974.95 1008.96   3
   1  -4 -16 888.222 626.971   3
   1  -4 -15-323.155 362.513   3
   1  -4 -14 390.661 391.764   3
   1  -4 -13-298.070 330.317   3
  -1   4  12 3117.13 1111.51   4
   1  -4 -12 2339.63 844.749   3
  -1   4  11-92.7771 221.595   4
   1  -4 -11-15.9132 114.863   3
   1  -4 -10 491.820 362.198   3
  -1   4  10 1613.93 697.840   4
  -1   4   9 8927.10 1680.50   4
   1  -4  -9 9889.57 1515.51   3
   1  -4  -8 17894.6 1945.58   3
  -1   4   8 19627.1 2375.79   4
   1  -4  -8 15935.5 1400.84   5
   1  -4  -8 19173.8 1732.13   2
   1  -4  -7-13.1872 74.1724   3
   1  -4  -7 224.333 169.819   2
  -1   4   7 344.009 482.600   4
   1  -4  -7 220.072 149.351   5
   1  -4  -6-120.575 139.899   3
   1  -4  -6-51.4099 88.5237   2
  -1   4   6-439.931 338.914   4
   1  -4  -5 134708. 4492.61   3
  -1   4   5 138142. 5574.21   4
   1  -4  -5 129306. 3490.44   2
  -1   4   4 178236. 4294.73   2
   1  -4  -4 189303. 3445.78   5
  -1   4   4 195372. 6378.77   4
  -1   4   4 181977. 4982.86   3
  -1   4   3 39207.8 2002.87   2
  -1   4   3 41710.9 2793.26   4
   1  -4  -3 39679.7 1678.03   5
  -1   4   3 35815.0 2151.63   3
   1  -4  -2 6078.70 753.545   5
  -1   4   2 7269.18 913.444   2
  -1   4   2 7204.88 1149.70   4
   1  -4  -1 21922.0 1600.96   5
  -1   4   1 23358.8 1601.55   5
  -1   4   0 2018.24 518.209   5
   1  -4   0 2071.26 518.534   5
   1  -4   1 29728.2 2193.50   5
   1  -4   2 190.669 222.886   5
   1  -4   2 211.947 126.470   1
   1  -4   3 41908.3 3044.65   5
   1  -4   3 40438.7 1948.37   1
   1  -4   4 1345.56 441.657   1
   1  -4   4 2316.48 751.404   5
   1  -4   5 1236.47 594.651   6
   1  -4   5 1108.06 554.404   5
   1  -4   6 675.889 423.377   5
   1  -4   6 2744.26 959.199   6
   1  -4   7 349.143 360.961   5
   1  -4   7 1.72670 174.548   6
   1  -4   8 6580.53 1575.07   6
   1  -4   8 7890.61 1737.92   5
   1  -4   9 988.847 666.202   5
   1  -4   9 876.315 617.251   6
   1  -4  10 2483.64 1077.82   6
   1  -4  10 682.715 594.795   5
   1  -4  11 288.856 430.397   5
   1  -4  11 1529.14 873.956   6
   1  -4  12 244.590 382.865   6
   1  -4  12 712.993 651.208   5
   1  -4  13 1177.38 844.656   6
   1  -4  13 1533.64 983.253   5
   1  -4  14 1360.17 1066.10   6
   1  -3 -17 2208.90 1006.91   3
  -1   3  17 1903.33 1103.18   6
  -1   3  16 544.418 570.451   6
   1  -3 -16 630.987 513.282   3
   1  -3 -15 183.075 261.821   3
  -1   3  15-599.242 583.798   6
  -1   3  14 513.754 310.261   6
   1  -3 -14 425.285 387.507   3
   1  -3 -13 1455.40 681.550   3
  -1   3  13 1110.06 681.845   6
   1  -3 -12 955.977 535.445   3
  -1   3  12-266.739 429.528   6
  -1   3  11 20.1048 146.913   6
   1  -3 -11-257.831 275.880   3
   1  -3 -10 5031.03 1126.07   3
  -1   3  10 5171.28 1280.77   4
   1  -3  -9 33796.7 2813.91   3
  -1   3   9 30843.9 3046.29   4
   1  -3  -8 545.111 371.390   3
  -1   3   8 393.618 310.761   4
   1  -3  -8 555.500 236.268   5
   1  -3  -7 166.103 137.168   5
   1  -3  -7 164.453 186.082   3
  -1   3   7-166.853 216.124   4
   1  -3  -6 134964. 3343.70   5
  -1   3   6 134625. 5482.70   4
   1  -3  -6 143516. 4909.01   3
   1  -3  -5 78304.3 2200.92   5
  -1   3   5 78208.6 3962.36   4
   1  -3  -5 71859.8 2394.00   2
   1  -3  -5 77575.7 3401.54   3
   1  -3  -4 76308.6 3139.07   3
  -1   3   4 76382.0 3127.36   3
  -1   3   4 80535.5 3802.97   4
   1  -3  -4 77523.1 2192.61   2
   1  -3  -3 19636.2 859.239   5
  -1   3   3 21298.7 1147.37   2
  -1   3   3 20202.7 1513.32   3
  -1   3   3 20337.1 1805.76   4
   1  -3  -2 61257.4 1825.03   5
  -1   3   2 60301.1 2977.31   4
  -1   3   2 61482.9 2100.23   2
  -1   3   2 62498.4 2636.21   3
   1  -3  -1 124166. 3136.28   5
  -1   3   1 127788. 3099.21   5
   1  -3   0 39247.9 2011.95   5
  -1   3   0 38864.3 1957.99   5
   1  -3   1 9406.57 1094.16   5
  -1   3  -1 10080.5 1124.50   5
   1  -3   2 2466.84 499.353   1
   1  -3   2 2477.63 614.787   5
   1  -3   3 70061.3 2423.44   1
   1  -3   3 72035.2 3611.04   5
   1  -3   4 45155.2 3116.95   6
   1  -3   4 41686.0 2896.19   1
   1  -3   4 40374.1 2943.84   5
   1  -3   5 2985.72 847.706   6
   1  -3   5 3473.32 925.651   5
   1  -3   6 6148.57 1288.83   5
  -1   3  -6 4223.91 612.566   1
   1  -3   6 5673.99 1232.06   6
   1  -3   7 2715.61 898.055   6
  -1   3  -7 3041.95 532.569   1
   1  -3   7 3289.92 1002.07   5
   1  -3   8 121.119 190.257   6
   1  -3   8 272.031 248.784   5
   1  -3   9 452.234 193.027   5
   1  -3   9 1402.34 779.245   6
   1  -3  10-2.18638 482.539   5
   1  -3  10-159.950 301.378   6
   1  -3  11 12761.8 2521.52   5
   1  -3  11 12668.1 2410.74   6
   1  -3  12 1538.26 867.105   6
   1  -3  12 1506.98 821.341   5
   1  -3  13 637.270 619.181   6
   1  -3  14-441.773 530.383   6
  -1   2  17 43.2033 234.712   6
  -1   2  16 519.273 558.753   6
  -1   2  15 611.363 567.273   6
  -1   2  14 2736.76 1140.25   6
  -1   2  13 5837.82 1574.10   6
  -1   2  12 1299.48 662.249   6
  -1   2  11 158.169 263.691   6
  -1   2  10-27.0886 132.260   6
  -1   2   9 9002.22 1600.91   6
  -1   2   8 1566.30 636.430   4
  -1   2   8 1367.73 580.549   6
   1  -2  -7 355.362 254.063   3
  -1   2   7 864.236 443.428   4
  -1   2   7 202.376 350.713   6
   1  -2  -7 341.943 201.783   5
   1  -2  -6 53985.0 3002.40   3
  -1   2   6 53980.6 3352.46   4
   1  -2  -6 52985.1 2220.53   5
   1  -2  -5 138392. 4518.59   3
   1  -2  -5 142490. 3035.84   5
  -1   2   5 140971. 5017.92   4
   1  -2  -4 19634.8 855.384   5
  -1   2   4 20755.0 1829.84   4
  -1   2   3 65405.2 2650.12   3
  -1   2   3 69213.7 3098.87   4
  -1   2   2 976629. 10893.9   4
  -1   2   2 999999. 9714.59   3
  -1   2   1 472113. 4480.25   5
   1  -2  -1 476201. 4437.76   5
  -1   2   1 472427. 6945.04   4
  -1   2   0 193280. 3698.69   5
   1  -2   0 186257. 3545.92   5
  -1   2  -1 4577.82 664.478   5
   1  -2   1 3954.35 611.166   1
   1  -2   1 3767.66 602.133   5
   1  -2   2 9451.86 885.747   1
   1  -2   2 9742.36 1084.23   5
   1  -2   3 69716.0 2857.91   1
  -1   2  -3 69008.0 2482.63   1
   1  -2   3 63707.9 3082.11   5
   1  -2   4 41815.2 2822.58   6
  -1   2  -4 41243.6 1938.14   1
   1  -2   4 45143.6 2846.11   5
  -1   2  -5 8957.27 923.032   1
   1  -2   5 10154.5 1485.79   6
   1  -2   5 9547.06 1414.65   5
   1  -2   6 9146.36 1502.90   6
  -1   2  -6 9380.89 1020.68   1
   1  -2   6 8915.78 1457.76   5
  -1   2  -7 6630.26 944.701   1
   1  -2   7 6491.86 1331.72   5
   1  -2   7 5893.41 1295.42   6
  -1   2  -8-86.3070 122.569   1
   1  -2   8 682.116 465.464   5
   1  -2   8 375.427 353.425   6
   1  -2   9 1044.14 615.188   6
   1  -2   9 906.461 576.283   5
   1  -2  10 14609.0 2370.64   6
   1  -2  10 14891.2 2406.53   5
   1  -2  11 4085.49 1260.56   6
   1  -2  12-329.838 425.966   6
   1  -2  13 766.640 632.720   6
   1  -2  14 395.147 378.621   6
   1  -2  15 477.926 553.945   6
  -1   1  17 2396.28 1202.15   6
  -1   1  16-253.112 409.755   6
  -1   1  15-382.660 457.618   6
  -1   1  14-152.101 314.731   6
  -1   1  13 498.985 514.174   6
  -1   1  12-484.320 460.346   6
  -1   1  11 1254.20 723.600   6
  -1   1  10 43.6179 339.685   6
  -1   1   9-135.356 219.000   6
  -1   1   8 5924.81 1047.05   5
  -1   1   8 7220.13 1326.58   6
  -1   1   7 272.913 235.132   5
   1  -1  -7 116.347 129.690   5
  -1   1   7 625.059 356.867   6
   1  -1  -6 247802. 5376.90   5
  -1   1   6 255254. 6730.90   6
  -1   1   6 246646. 5428.86   5
  -1   1   5 195838. 5451.30   6
  -1   1   5 192550. 5735.61   4
   1  -1  -5 195690. 4187.08   5
  -1   1   5 195258. 4181.08   5
   1  -1  -4 18500.4 1079.70   5
  -1   1   4 19466.2 1690.81   4
   1  -1  -4 18645.1 1543.22   6
  -1   1   4 19621.0 1097.06   5
  -1   1   3 58671.9 2484.23   3
  -1   1   3 58449.5 1430.04   5
   1  -1  -3 61631.1 1450.74   5
  -1   1   3 58907.2 2684.93   4
  -1   1   2 46675.6 2019.92   3
  -1   1   2 47767.1 2176.23   4
  -1   1   1 83655.8 2584.44   3
  -1   1   1 85230.6 2588.01   4
  -1   1   0 54369.0 1603.27   5
  -1   1   0 52934.6 1798.95   4
   1  -1   0 51510.3 2052.71   1
   1  -1   1 146345. 3370.34   5
   1  -1   1 157582. 3580.44   1
   1  -1   2 1696.27 421.666   5
  -1   1  -2 1008.46 280.693   1
   1  -1   2 1778.77 403.544   1
   1  -1   3 61522.8 2819.57   5
   1  -1   3 64510.1 3797.63   1
  -1   1  -3 60577.6 2324.15   1
   1  -1   3 63974.9 2910.06   6
   1  -1   4 41568.1 2609.87   6
  -1   1  -4 50355.9 2534.08   1
   1  -1   4 43218.4 2616.54   5
  -1   1  -5 177800. 5987.31   1
   1  -1   5 174543. 5757.62   5
   1  -1   5 168072. 5745.89   6
  -1   1  -6 194.349 229.358   1
   1  -1   6 225.549 375.956   6
   1  -1   6-379.623 304.624   5
   1  -1   7 36083.4 3051.48   6
   1  -1   7 34418.9 2958.45   5
  -1   1  -7 32448.8 3334.46   1
   1  -1   8 1491.42 700.434   5
   1  -1   8 2721.41 893.226   6
   1  -1   9 5277.08 1315.89   6
   1  -1  10 886.503 544.834   6
   1  -1  11 1512.54 806.386   6
   1  -1  12 755.609 592.516   6
   1  -1  13 2615.90 1124.64   6
   1  -1  14 741.505 644.000   6
   1  -1  15 553.675 599.087   6
  -1   0  16 181.970 354.841   6
  -1   0  15 106.373 293.616   6
  -1   0  14 878.939 647.557   6
  -1   0  13 630.852 521.270   6
  -1   0  12 31366.1 3331.63   5
  -1   0  12 30754.4 3444.42   6
  -1   0  11 22730.2 2653.41   5
  -1   0  11 21448.3 2739.16   6
  -1   0  10 7375.74 1542.17   6
  -1   0  10 4261.90 1085.49   5
  -1   0   9 794.291 468.932   6
  -1   0   9 460.421 242.567   5
  -1   0   8 13376.4 1788.14   6
  -1   0   8 12935.0 1602.75   5
  -1   0   7 18973.9 1958.59   6
  -1   0   7 17584.7 1731.94   5
  -1   0   6 72.0261 102.934   5
  -1   0   6 191.945 149.164   6
   1   0  -5 96978.0 3408.59   5
   1   0  -5 93183.6 3712.77   6
  -1   0   5 98196.5 3730.23   6
  -1   0   5 93058.3 3301.31   5
   1   0  -4 127387. 3813.28   6
  -1   0   4 126442. 3482.24   5
   1   0  -4 124352. 3445.34   5
  -1   0   4 126032. 3759.69   6
  -1   0   3 1652.12 349.977   5
   1   0  -3 1900.17 364.867   5
  -1   0   3 2064.77 417.738   6
   1   0  -3 1808.22 392.463   6
  -1   0   2 22689.8 1389.80   3
  -1   0   2 23871.1 1079.43   5
   1   0  -2 24104.9 1205.75   6
   1   0  -1 376607. 5293.52   1
  -1   0   1 372658. 4989.09   3
  -1   0   1 378612. 4923.51   4
  -1   0   1 373657. 3522.04   2
  -1   0   0 134947. 2343.18   4
   1   0   0 136713. 3291.35   1
   1   0   1 637342. 7091.76   1
   1   0   2 378142. 8559.97   1
   1   0   2 387418. 5659.22   6
   1   0   3 85878.5 3106.67   6
   1   0   4 18979.4 1647.51   6
  -1   0  -4 19599.8 2249.64   1
   1   0   5 12005.6 1456.53   6
   1   0   6 5396.00 1031.44   6
   1   0   7 51925.8 3524.66   6
   1   0   8 5453.51 1203.80   6
   1   0   9 2286.39 843.113   6
   1   0  10-65.0295 415.873   6
   1   0  11 513.422 384.547   6
   1   0  12-152.364 274.904   6
   1   0  13 902.338 650.624   6
   1   0  14 2301.97 1078.31   6
   1   0  15 118.833 291.837   6
   1   0  16-80.5046 258.228   6
  -1  -1  16 1329.78 876.112   6
  -1  -1  15 1717.07 946.408   6
  -1  -1  14 216.574 329.910   6
  -1  -1  13-8.69229 150.253   6
  -1  -1  13 599.831 640.406   5
  -1  -1  12 2423.92 1021.73   5
  -1  -1  12 4362.59 1316.70   6
  -1  -1  11 2790.80 958.099   5
  -1  -1  11 3589.37 1130.31   6
  -1  -1  10 1500.04 702.180   6
  -1  -1  10 1637.54 675.142   5
  -1  -1   9 7447.40 1406.19   5
  -1  -1   9 8585.20 1559.96   6
  -1  -1   8 11349.1 1639.92   5
  -1  -1   8 11984.5 1693.04   6
  -1  -1   7 253.415 297.325   6
  -1  -1   7 184.586 201.289   5
  -1  -1   6 2319.65 655.696   5
  -1  -1   6 1818.57 579.918   6
  -1  -1   5 16460.1 1530.49   6
   1   1  -5 15103.6 1521.88   6
  -1  -1   5 17305.2 1626.01   5
  -1  -1   4 6947.82 955.734   5
   1   1  -4 6882.09 935.663   5
  -1  -1   4 6318.94 842.019   6
   1   1  -4 5468.03 812.670   6
   1   1  -3 31871.2 1671.70   6
  -1  -1   3 32674.0 1857.72   5
   1   1  -3 31340.8 1829.34   5
  -1  -1   3 29670.7 1568.34   6
  -1  -1   2 33098.8 1313.03   6
   1   1  -2 33160.3 1601.13   1
   1   1  -2 31198.7 1337.19   6
  -1  -1   2 31111.7 1626.03   5
   1   1  -1 112699. 2806.75   1
  -1  -1   0 55818.5 1629.39   3
  -1  -1   0 57364.9 1979.86   2
   1   1   0 59776.6 2290.84   1
   1   1   1 9174.74 570.354   6
   1   1   1 9863.45 1416.58   1
  -1  -1  -1 8186.47 819.625   2
   1   1   2 17016.9 1066.15   6
   1   1   3 8418.16 905.284   6
  -1  -1  -3 8097.84 554.054   4
   1   1   3 7778.05 539.447   4
   1   1   4 23179.4 1732.98   6
  -1  -1  -4 24062.3 1233.69   4
   1   1   5 67890.6 3317.77   6
  -1  -1  -5 63400.1 2430.15   4
  -1  -1  -6 17644.5 1487.31   4
   1   1   6 17832.9 1879.14   6
  -1  -1  -7 53579.8 2973.84   4
   1   1   7 49982.1 3368.35   6
   1   1   8 31852.2 2877.69   6
   1   1   9 407.751 361.225   6
   1   1  10 1464.55 677.641   6
   1   1  11 863.948 578.362   6
   1   1  12-154.440 299.246   6
   1   1  13-252.710 358.033   6
   1   1  14 526.420 530.914   6
   1   1  15-360.947 451.876   6
   1   1  16 193.028 349.670   6
  -1  -2  16-403.820 547.727   6
  -1  -2  15 596.737 585.053   6
  -1  -2  15 16.6768 140.906   5
  -1  -2  14 804.032 649.197   6
  -1  -2  14-416.923 475.121   5
  -1  -2  13-415.570 448.656   6
  -1  -2  13 348.898 404.544   5
  -1  -2  12 2779.17 1015.60   6
  -1  -2  12 2265.26 981.226   5
  -1  -2  11 2372.93 929.581   5
  -1  -2  11 1801.61 828.006   6
  -1  -2  10 63619.2 4577.54   6
  -1  -2  10 62750.8 4578.84   5
  -1  -2   9 1490.06 672.152   5
  -1  -2   9 1547.85 663.732   6
  -1  -2   8 17398.7 2172.58   5
  -1  -2   8 18085.9 2142.11   6
  -1  -2   7 9297.28 1498.72   5
  -1  -2   7 9049.97 1405.36   6
  -1  -2   6 15930.8 1746.82   6
  -1  -2   6 15299.1 1842.39   5
  -1  -2   5 1283.04 498.820   5
  -1  -2   5 1157.35 394.985   6
  -1  -2   4 8851.62 1078.35   6
  -1  -2   4 9113.96 1243.96   5
   1   2  -4 9096.23 845.402   1
   1   2  -4 9066.22 1084.97   6
   1   2  -3 26897.3 1358.92   1
  -1  -2   3 28649.0 1690.00   6
  -1  -2   3 27244.2 1983.36   5
   1   2  -2 44761.8 1747.90   1
  -1  -2   2 40639.6 1665.74   1
  -1  -2   2 43261.0 2276.31   5
  -1  -2   2 41247.6 1751.57   6
  -1  -2   1 131870. 3058.98   1
  -1  -2   1 139446. 3807.83   5
   1   2  -1 131742. 4341.61   1
  -1  -2   0 758975. 8519.60   2
   1   2   0 749493. 6217.40   3
  -1  -2  -1 487470. 4872.40   6
  -1  -2  -1 478251. 6917.14   2
  -1  -2  -1 494196. 3845.35   3
  -1  -2  -2 110030. 3513.54   2
   1   2   2 109091. 2731.27   6
  -1  -2  -2 108853. 2793.22   6
  -1  -2  -3 197969. 4381.12   6
   1   2   3 200060. 3517.57   4
   1   2   3 192251. 4272.86   6
   1   2   4 69809.1 2298.25   4
  -1  -2  -4 73818.1 2372.88   4
   1   2   4 75623.6 3094.85   6
   1   2   5 48394.7 2145.86   4
  -1  -2  -5 48584.4 2179.75   4
   1   2   5 51771.4 2838.83   6
   1   2   6 1368.88 495.409   6
  -1  -2  -6 1280.10 395.872   4
   1   2   6 1057.97 363.444   4
  -1  -2  -7 5506.18 891.050   4
   1   2   7 5469.70 1122.22   6
   1   2   8 610.190 402.155   6
   1   2   9 5551.53 1273.86   6
   1   2  10 49.0748 186.450   6
   1   2  11 22792.1 2936.14   6
   1   2  12 15215.4 2492.94   6
   1   2  13-166.664 294.556   6
   1   2  14 934.285 694.755   6
   1   2  15-215.352 382.089   6
   1   2  16 1104.85 821.622   6
  -1  -3  15 817.705 692.844   6
  -1  -3  15 1637.25 992.144   5
  -1  -3  14 929.182 727.224   5
  -1  -3  14-532.675 535.584   6
  -1  -3  13 5553.64 1655.13   5
  -1  -3  13 5831.73 1680.16   6
  -1  -3  12 267.547 374.539   6
  -1  -3  12 751.750 515.472   5
  -1  -3  11 598.579 512.545   5
  -1  -3  11-160.148 267.566   6
  -1  -3  10 21104.5 2707.02   6
  -1  -3  10 18557.0 2638.35   5
  -1  -3   9 288.977 467.973   5
  -1  -3   9 280.893 305.852   6
  -1  -3   8 28178.1 2796.54   6
   1   3  -8 27560.9 1585.91   1
  -1  -3   8 29115.9 3032.96   5
   1   3  -7 138.364 106.962   1
  -1  -3   7 122.080 257.652   6
  -1  -3   7-92.6504 318.435   5
  -1  -3   6 4342.73 1057.05   5
   1   3  -6 4077.57 508.354   1
  -1  -3   6 4515.89 993.691   6
  -1  -3   5 15663.7 1934.23   5
   1   3  -5 15989.0 951.234   1
  -1  -3   5 16738.6 1759.52   6
  -1  -3   4 11504.2 1340.29   6
   1   3  -4 12056.3 992.411   1
  -1  -3   4 11236.6 1539.25   5
  -1  -3   3 3416.64 665.566   6
  -1  -3   3 3201.00 798.506   5
   1   3  -3 2949.34 629.362   1
  -1  -3   2 448757. 8460.60   5
  -1  -3   2 432877. 5369.42   1
  -1  -3   1 250760. 5325.11   1
  -1  -3   1 221118. 5625.90   5
  -1  -3   0 1961.95 658.057   1
  -1  -3   0 2696.29 616.879   2
  -1  -3  -1 700.244 284.810   2
  -1  -3  -2 79407.1 2745.62   6
  -1  -3  -2 75640.6 3220.18   2
  -1  -3  -3 98588.6 3787.65   2
  -1  -3  -3 97857.9 3334.35   6
   1   3   4 25786.2 1865.16   6
  -1  -3  -4 26118.4 2070.76   2
   1   3   4 27852.3 1710.36   4
  -1  -3  -4 27999.1 1954.44   6
   1   3   5 109.861 122.620   4
   1   3   5 733.573 358.519   6
  -1  -3  -6 4504.22 781.224   4
   1   3   6 4572.84 778.050   4
   1   3   6 3728.94 850.222   6
   1   3   7 2725.17 651.101   4
   1   3   7 3033.19 811.621   6
   1   3   8 2941.71 728.078   4
   1   3   8 1873.59 650.072   6
   1   3   9 647.976 419.843   6
   1   3   9 98.7310 97.5734   4
   1   3  10 28829.8 3125.70   6
   1   3  11 8961.52 1875.43   6
   1   3  12-737.830 566.703   6
   1   3  13 392.958 438.435   6
   1   3  14 931.892 688.991   6
   1   3  15 1024.01 759.782   6
   1   3  16 551.828 649.191   6
  -1  -4  15 339.819 489.947   6
  -1  -4  14 1443.70 938.921   5
  -1  -4  14 2236.22 1179.10   6
  -1  -4  13 643.814 587.471   6
  -1  -4  13 1118.89 739.535   5
  -1  -4  12-298.817 413.246   5
  -1  -4  12 1129.58 739.607   6
  -1  -4  11 1925.63 940.246   5
  -1  -4  11 2208.79 968.654   6
  -1  -4  10 279.533 367.605   6
  -1  -4  10-40.3644 163.973   5
  -1  -4   9 376.483 386.823   6
  -1  -4   9 772.805 635.257   5
  -1  -4   8 63469.9 4774.67   5
  -1  -4   8 58864.2 4334.92   6
  -1  -4   7 13409.1 2095.27   5
  -1  -4   7 13816.7 1993.86   6
  -1  -4   6 24748.9 2776.72   5
  -1  -4   6 22517.5 2387.29   6
  -1  -4   5 2279.77 788.454   5
  -1  -4   5 2435.42 714.989   6
  -1  -4   4 6666.85 1326.68   5
  -1  -4   4 5386.02 1009.64   6
  -1  -4   3 20213.7 1825.70   6
  -1  -4   3 20297.4 2119.99   5
  -1  -4   2 105868. 4612.56   5
  -1  -4   2 104882. 2746.23   1
  -1  -4   1 3316.44 856.357   1
  -1  -4   1 4356.40 890.561   5
  -1  -4   0 337.172 217.057   5
  -1  -4  -1 2594.51 629.784   2
  -1  -4  -2 73.7587 125.921   2
  -1  -4  -3 7919.89 1174.26   2
  -1  -4  -3 8730.94 1130.64   6
  -1  -4  -4 143942. 5119.98   2
   1   4   4 136479. 4452.84   4
  -1  -4  -4 139625. 2107.90   3
  -1  -4  -5 28553.6 2381.39   2
   1   4   5 26859.6 1997.83   4
   1   4   6 9130.02 1222.52   4
  -1  -4  -6 8406.64 1334.95   2
   1   4   7 4692.38 911.410   4
   1   4   7 5460.02 1121.90   6
   1   4   8 144.871 129.534   4
   1   4   8 104.842 196.815   6
   1   4   9 4482.00 1163.41   6
   1   4   9 3289.72 848.850   4
   1   4  10 16334.2 1993.38   4
   1   4  10 15257.9 2251.78   6
   1   4  11 740.492 527.488   6
   1   4  11 110.981 186.578   4
   1   4  12 25361.8 3226.92   6
   1   4  13 1217.64 860.271   6
   1   4  14 1936.59 975.386   6
   1   4  15-238.305 383.303   6
   1   4  16 678.125 656.012   6
  -1  -5  14 1361.93 920.987   6
  -1  -5  13 87.5340 490.295   5
  -1  -5  13-39.9951 209.022   6
  -1  -5  12-39.3570 191.355   6
  -1  -5  12 237.434 417.601   5
  -1  -5  11 1577.68 872.285   5
  -1  -5  11 4272.42 1418.05   6
  -1  -5  10 4204.20 1360.96   6
  -1  -5  10 1737.20 966.657   5
  -1  -5   9 1353.93 703.504   5
  -1  -5   9 2477.87 981.725   6
  -1  -5   8 9392.42 1962.26   5
  -1  -5   8 8160.91 1741.04   6
  -1  -5   7 19809.4 2756.47   5
  -1  -5   7 20352.3 2590.70   6
  -1  -5   6 3342.74 967.853   6
  -1  -5   6 4255.81 1258.35   5
  -1  -5   5 240.597 377.331   6
  -1  -5   5 77.8592 168.414   5
  -1  -5   4 200.950 271.848   5
  -1  -5   4-60.8309 159.263   6
  -1  -5   3 635.060 183.422   1
  -1  -5   3 701.192 409.965   5
  -1  -5   2 52685.2 3557.93   5
  -1  -5   2 52712.5 2313.82   1
  -1  -5   1 14543.5 2079.83   1
  -1  -5   1 13901.0 1745.82   5
  -1  -5   0 192330. 6227.86   5
  -1  -5  -1 6196.32 1104.88   5
  -1  -5  -2 23351.2 2132.73   2
  -1  -5  -3 108431. 4662.08   2
  -1  -5  -4 46748.5 3138.66   2
  -1  -5  -5 33551.7 1157.77   3
  -1  -5  -5 38692.2 2902.39   2
   1   5   5 35126.1 2571.76   4
  -1  -5  -6 13900.2 1016.62   3
  -1  -5  -6 13498.8 1765.93   2
   1   5   6 14468.5 1665.88   4
  -1  -5  -7 301.605 316.260   2
   1   5   7 884.550 442.467   4
   1   5   8 211.441 153.002   4
  -1  -5  -8 720.569 403.236   2
  -1  -5  -9 5846.26 1309.07   2
   1   5   9 5320.96 1123.42   4
   1   5  10 30987.7 3261.67   6
   1   5  10 28943.8 2759.14   4
   1   5  11 1700.74 699.551   4
   1   5  11 1694.58 782.272   6
   1   5  12 22205.8 3041.44   6
   1   5  12 19640.7 2473.46   4
   1   5  13 7552.28 1601.35   4
   1   5  13 8370.95 1961.77   6
   1   5  14 267.918 415.061   6
   1   5  15 1436.60 893.484   6
   1   5  16 811.069 625.843   6
  -1  -6  12-80.6431 300.638   5
  -1  -6  12-551.750 582.307   6
  -1  -6  11 186.455 370.453   6
  -1  -6  11 2310.59 1153.42   5
  -1  -6  10 2215.71 1055.67   6
  -1  -6  10 1094.24 769.022   5
  -1  -6   9 1194.24 775.656   5
  -1  -6   9 442.797 464.622   6
  -1  -6   8 1025.15 657.871   5
  -1  -6   8 1187.93 696.669   6
  -1  -6   7-153.883 284.528   5
  -1  -6   7 356.607 229.626   6
  -1  -6   6-720.721 501.424   6
  -1  -6   6-344.782 394.995   5
  -1  -6   5 11725.4 1889.19   6
  -1  -6   5 11207.7 2024.82   5
  -1  -6   4 55978.8 3889.75   6
  -1  -6   4 55715.9 4334.98   5
  -1  -6   3 15546.9 916.653   1
  -1  -6   3 20415.2 2507.14   5
  -1  -6   2 764.080 469.398   5
  -1  -6   2 499.161 269.010   1
  -1  -6   1 6383.04 1445.27   1
  -1  -6   1 5480.23 1156.96   5
  -1  -6   0 76130.7 4287.28   5
  -1  -6  -1 5013.48 1070.91   5
  -1  -6  -2 18339.3 2001.72   5
  -1  -6  -3 884.209 507.593   2
  -1  -6  -4 31742.6 2760.60   2
   1   6   5 11559.5 1636.88   4
  -1  -6  -5 12859.3 1786.86   2
  -1  -6  -6 1143.65 496.166   2
   1   6   6 162.310 204.897   4
  -1  -6  -7 18014.8 1217.73   3
  -1  -6  -7 16645.7 2141.95   2
   1   6   7 17602.6 2088.98   4
  -1  -6  -8 35568.9 2050.76   3
  -1  -6  -8 34957.0 3188.54   2
   1   6   8 34163.1 3001.72   4
  -1  -6  -9 334.842 470.449   2
  -1  -6  -9 415.648 253.140   3
   1   6   9 159.021 279.215   4
   1   6  10 5605.84 1304.13   4
  -1  -6 -10 6841.82 1496.75   2
  -1  -6 -10 5550.08 992.238   3
   1   6  11 2200.27 833.832   4
  -1  -6 -11 3407.34 1130.15   2
  -1  -6 -12 4839.65 1374.77   2
   1   6  12 5315.82 1353.83   4
  -1  -6 -13 174.334 271.210   2
   1   6  13-23.6863 184.483   4
   1   6  14 192.120 283.604   4
  -1  -6 -14-564.422 523.037   2
  -1  -6 -15 2502.08 1058.07   2
  -1  -7  11-621.076 602.492   6
  -1  -7  10-404.511 506.573   5
  -1  -7  10-373.144 449.212   6
  -1  -7   9 216.163 263.996   6
  -1  -7   9 2.75737 245.640   5
  -1  -7   8 964.854 599.294   5
  -1  -7   8 906.531 636.514   6
  -1  -7   7-364.300 441.783   5
  -1  -7   7 364.924 402.573   6
  -1  -7   6 366.251 423.974   5
  -1  -7   6 641.399 505.318   6
  -1  -7   5 4335.70 1306.45   5
  -1  -7   5 4337.79 1189.93   6
  -1  -7   4 16040.1 2482.29   5
  -1  -7   4 20251.1 2461.77   6
  -1  -7   3 2984.14 991.701   5
  -1  -7   2 16643.3 2326.37   5
  -1  -7   1-437.207 376.174   5
  -1  -7   0 22461.2 2504.74   5
  -1  -7  -1 2338.90 796.866   5
  -1  -7  -2 14283.9 1909.23   5
  -1  -7  -3 126.329 233.974   5
  -1  -7  -4 12295.8 1832.00   2
  -1  -7  -5 36.1010 261.356   2
  -1  -7  -6-59.2252 171.443   2
   1   7   6-220.150 252.825   4
  -1  -7  -7 923.033 578.612   2
   1   7   7 635.738 366.693   4
   1   7   8 6697.75 1392.10   4
  -1  -7  -8 8335.66 1658.21   2
  -1  -7  -9-111.624 127.468   3
  -1  -7  -9-129.681 165.113   2
   1   7   9-521.193 415.627   4
  -1  -7 -10 347.355 239.979   3
   1   7  10 13.5014 118.533   4
  -1  -7 -10-177.441 419.532   2
  -1  -7 -11 3407.57 820.943   3
   1   7  11 2663.87 961.077   4
  -1  -7 -11 3088.78 1057.25   2
  -1  -7 -12 5532.85 1469.21   2
   1   7  12 6929.18 1610.33   4
  -1  -7 -13 782.952 473.043   2
   1   7  13 612.142 498.928   4
  -1  -7 -14 3715.63 1272.33   2
   1   7  14 3288.68 1173.28   4
   1   7  15 738.478 579.311   4
  -1  -7 -15 374.157 438.626   2
  -1  -7 -16 3849.28 1390.13   2
  -1  -8   9 356.737 489.403   5
  -1  -8   9 1232.26 899.026   6
  -1  -8   8-11.4223 192.522   5
  -1  -8   8-163.488 296.426   6
  -1  -8   7 88.3377 284.595   5
  -1  -8   7-252.745 347.180   6
  -1  -8   6 953.494 689.976   5
  -1  -8   6 480.606 465.627   6
  -1  -8   5-267.331 338.585   6
  -1  -8   5 618.654 642.850   5
  -1  -8   4 735.340 516.698   5
  -1  -8   4-572.939 450.930   6
  -1  -8   3 8218.51 1792.09   5
  -1  -8   2 720.275 584.591   5
  -1  -8   1 10814.3 1943.36   5
  -1  -8   0 7906.19 1583.76   5
  -1  -8  -1 135.082 388.243   5
  -1  -8  -2 68.8963 181.192   5
  -1  -8  -3-13.1811 134.896   5
  -1  -8  -4 651.297 336.307   5
  -1  -8  -5 191.656 271.839   2
  -1  -8  -6 706.473 465.532   2
   1   8   6 384.202 346.958   4
  -1  -8  -7 1703.16 751.946   2
   1   8   7 205.075 273.136   4
  -1  -8  -8 1631.30 747.800   2
   1   8   8 2205.25 841.277   4
  -1  -8  -9 2337.56 917.632   2
   1   8   9 655.956 524.413   4
   1   8  10-209.910 297.584   4
  -1  -8 -10-156.170 256.666   2
   1   8  11 5629.88 1441.54   4
  -1  -8 -11 7776.89 1781.31   2
  -1  -8 -12 3068.63 1133.94   2
   1   8  12 3426.87 1192.15   4
   1   8  13-248.231 342.150   4
  -1  -8 -13-215.373 326.394   2
   1   8  14 916.611 653.451   4
  -1  -8 -14 228.507 334.526   2
  -1  -8 -15-454.700 471.317   2
   1   8  15 655.333 566.467   4
  -1  -9   7 1232.32 859.506   5
  -1  -9   7-31.8330 160.670   6
  -1  -9   6 1217.99 831.719   5
  -1  -9   6 750.278 582.737   6
  -1  -9   5 1069.71 751.047   5
  -1  -9   5 192.114 300.524   6
  -1  -9   4 773.647 533.816   5
  -1  -9   4 219.291 314.037   6
  -1  -9   3 1162.11 736.202   5
  -1  -9   2 2806.51 1091.65   5
  -1  -9   1 1631.67 843.537   5
  -1  -9   0-70.4468 353.476   5
  -1  -9  -1 1619.84 759.691   5
  -1  -9  -2 1188.77 639.463   5
  -1  -9  -3 1274.62 644.751   5
  -1  -9  -4 601.620 504.840   5
  -1  -9  -5 4193.92 1140.10   5
  -1  -9  -6 9290.92 1803.56   2
   1   9   6 8376.11 1783.34   4
   1   9   7 3125.00 1102.51   4
  -1  -9  -7 2761.62 1010.08   2
  -1  -9  -8 470.810 432.976   2
   1   9   8 741.025 558.124   4
  -1  -9  -9 307.131 371.372   2
   1   9   9-485.494 461.337   4
   1   9  10 1474.29 722.285   4
  -1  -9 -10 359.333 400.843   2
   1   9  11 411.295 394.865   4
  -1  -9 -11 238.290 319.696   2
  -1  -9 -12 613.127 593.697   2
   1   9  12 317.969 404.197   4
   1   9  13-105.528 230.497   4
  -1  -9 -13 166.923 303.195   2
   1   9  14 165.009 296.974   4
  -1  -9 -14-144.962 289.322   2
   1   9  15-497.760 526.584   4
  -1 -10   5 161.376 339.833   5
  -1 -10   5 83.2408 208.511   6
  -1 -10   4-758.033 654.814   5
  -1 -10   4 1083.17 684.109   6
  -1 -10   3-159.190 309.469   5
  -1 -10   2-456.314 485.610   5
  -1 -10   1 18.5758 183.005   5
  -1 -10   0 6401.70 1711.83   5
  -1 -10  -1 439.737 361.766   5
  -1 -10  -2 2541.59 997.772   5
  -1 -10  -3 191.153 298.295   5
  -1 -10  -4-535.605 452.820   5
  -1 -10  -5 2040.60 856.309   5
   1  10   6 386.051 458.921   4
  -1 -10  -6-352.519 362.956   5
  -1 -10  -7-138.020 240.550   5
   1  10   7 146.810 276.119   4
  -1 -10  -8 129.657 241.096   2
   1  10   8 951.407 649.889   4
  -1 -10  -9 480.974 465.065   2
   1  10   9-541.358 511.106   4
  -1 -10 -10 427.436 431.871   2
   1  10  10 610.541 459.806   4
  -1 -10 -11 1718.59 846.442   2
   1  10  11 538.488 524.505   4
  -1 -10 -12 23.4808 192.194   2
   1  10  12-69.1652 194.013   4
  -1 -10 -13-582.846 535.842   2
   1  10  13-444.510 503.210   4
   1  10  14 599.589 571.189   4
   1  10  15-91.1023 244.630   4
  -1 -11   3 317.201 443.514   5
  -1 -11   2-306.097 444.663   5
  -1 -11   1-1044.16 738.275   5
  -1 -11   0 517.649 524.899   5
  -1 -11  -1 818.005 628.502   5
  -1 -11  -2 1120.77 711.456   5
  -1 -11  -3 270.672 363.085   5
  -1 -11  -4-311.296 368.033   5
  -1 -11  -5 1440.89 746.443   5
   1  11   6 614.179 594.129   4
  -1 -11  -6-217.792 323.735   5
  -1 -11  -7 2597.14 1002.68   5
   1  11   7 3377.23 1293.83   4
  -1 -11  -8 112.947 240.472   5
   1  11   8-181.583 317.883   4
  -1 -11  -9 817.156 547.141   5
   1  11   9 758.884 657.181   4
  -1 -11 -10 513.432 489.400   2
   1  11  10 1466.83 875.475   4
   1  11  11-432.469 509.727   4
  -1 -11 -11-395.882 430.056   2
   1  11  12 740.626 739.196   4
   1  11  13 43.9733 221.390   4
   1  11  14 891.113 742.043   4
  -1 -12   1 798.377 709.093   5
  -1 -12   0-76.4086 234.087   5
  -1 -12  -1-466.467 529.656   5
  -1 -12  -2 424.411 468.455   5
  -1 -12  -3-244.264 367.725   5
  -1 -12  -4-65.2360 202.798   5
   1  12   5 1085.08 897.699   4
  -1 -12  -5 154.796 294.145   5
  -1 -12  -6 863.366 620.943   5
   1  12   6 643.284 668.841   4
  -1 -12  -7 2056.72 946.620   5
   1  12   7 1715.60 1032.15   4
   1  12   8 369.044 478.885   4
   1  12   9 698.667 632.045   4
   1  12  10 455.690 514.485   4
   1  12  11 666.978 633.882   4
   1  12  12 538.714 602.317   4
  -1 -13  -2-89.3116 270.966   5
  -1 -13  -3 602.161 577.506   5
  -1 -13  -4-509.084 529.003   5
  -1 -13  -5 216.847 339.694   5
  -2  11   7 509.085 592.957   4
  -2  11   6 1198.63 896.118   4
  -2  11   5 707.866 477.203   4
  -2  11   4 115.008 313.459   4
  -2  11   3 273.916 456.745   4
  -2  11   2 1077.13 865.854   4
  -2  11   1-1349.26 961.665   4
  -2  11   0 501.122 587.443   4
  -2  10  10 517.094 562.102   4
  -2  10   9 190.450 370.840   4
  -2  10   8 1364.47 893.985   4
  -2  10   7 759.122 753.129   4
  -2  10   6 838.941 685.989   4
  -2  10   5 1108.53 884.053   4
  -2  10   4 580.935 590.300   4
  -2  10   3-786.702 682.248   4
  -2  10   2 944.611 755.317   4
  -2  10   1 268.494 432.697   4
   2 -10   1 1160.75 697.181   5
   2 -10   2 1281.80 785.305   5
   2 -10   3 267.284 393.969   5
   2 -10   4 181.184 324.221   5
   2 -10   5 773.823 664.362   5
  -2   9  12 1119.72 829.959   4
  -2   9  11 471.830 523.281   4
  -2   9  10 16.5800 167.008   4
  -2   9   9 55.5869 213.025   4
  -2   9   8 449.088 502.238   4
  -2   9   7 292.103 454.349   4
  -2   9   6 381.182 465.208   4
  -2   9   5 5056.44 1550.79   4
  -2   9   4 2744.49 1155.30   4
  -2   9   3 847.602 669.161   4
   2  -9  -2 56.9701 146.353   5
  -2   9   2-87.9023 236.468   4
   2  -9  -1 269.116 302.596   5
  -2   9   1 1325.20 846.510   4
   2  -9   0 2396.40 902.187   5
   2  -9   1-912.999 589.365   5
   2  -9   2 598.389 498.859   5
   2  -9   3 2214.15 919.525   5
   2  -9   4-30.5782 177.734   5
   2  -9   5 3465.49 1327.79   5
   2  -9   5 2978.82 1380.15   6
   2  -9   6 461.832 518.745   5
   2  -9   6 793.274 723.879   6
   2  -9   7-74.1059 239.190   5
  -2   8  13 485.924 561.614   4
  -2   8  12-361.073 462.969   4
  -2   8  11 277.897 401.488   4
  -2   8  10-304.684 413.287   4
  -2   8   9 5500.16 1641.66   4
  -2   8   8 3917.79 1375.28   4
  -2   8   7 546.732 488.285   4
  -2   8   6 1221.69 681.689   4
  -2   8   5 1026.87 686.273   4
  -2   8   4 4536.31 1375.03   4
  -2   8   3 827.663 585.146   4
   2  -8  -3 1480.00 574.104   5
  -2   8   2-1147.64 715.180   4
   2  -8  -2 327.276 288.669   5
   2  -8  -1 400.838 280.529   5
  -2   8   1-203.703 341.832   4
   2  -8   0 105.881 202.594   5
   2  -8   1 569.076 365.983   5
   2  -8   1 253.915 279.207   1
   2  -8   2 1698.22 746.526   5
   2  -8   3-365.262 381.727   5
   2  -8   4-172.685 290.711   5
   2  -8   5-166.478 319.423   5
   2  -8   6 1212.01 683.113   6
   2  -8   6 29.8001 183.131   5
   2  -8   7 314.593 452.874   5
   2  -8   7 768.041 692.283   6
   2  -8   8 761.096 680.419   5
   2  -8   8 651.051 664.157   6
   2  -7 -15-571.677 518.596   3
   2  -7 -14 221.733 309.576   3
  -2   7  14 1536.70 980.011   4
   2  -7 -13 1511.96 776.932   3
  -2   7  13-295.617 443.789   4
  -2   7  12 30.2911 203.568   4
   2  -7 -12 387.147 389.606   3
  -2   7  11 387.319 466.683   4
  -2   7  10 991.399 609.568   4
  -2   7   9 3912.68 1297.03   4
  -2   7   8 2704.22 1131.52   4
  -2   7   7 3101.41 1133.65   4
  -2   7   6 10455.4 2003.71   4
  -2   7   5 5995.66 1488.23   4
   2  -7  -4 14062.4 1391.83   5
  -2   7   4 15290.9 2346.04   4
   2  -7  -3 1274.87 457.569   5
  -2   7   3 820.375 519.354   4
   2  -7  -2 545.838 293.888   5
  -2   7   2 537.644 465.340   4
   2  -7  -1 2071.80 707.312   5
  -2   7   1 1931.86 769.639   4
   2  -7   0 357.030 309.473   5
   2  -7   1-2.55694 80.6454   1
   2  -7   1 216.462 316.109   5
   2  -7   2 3033.32 966.975   5
   2  -7   2 3090.24 863.431   1
   2  -7   3 2792.26 933.187   5
   2  -7   4 13.1849 134.834   5
   2  -7   5-572.137 486.791   5
   2  -7   6 2905.10 1169.33   5
   2  -7   6 2166.30 1085.57   6
   2  -7   7 4700.77 1610.25   6
   2  -7   7 4000.28 1364.67   5
   2  -7   8 2555.70 1190.12   5
   2  -7   8 1852.69 1064.57   6
   2  -7   9 752.626 685.925   5
   2  -7   9 705.773 670.128   6
   2  -6 -16 167.356 299.337   3
   2  -6 -15-773.534 603.487   3
   2  -6 -14 101.299 216.721   3
  -2   6  14-55.9682 284.183   4
   2  -6 -13-134.211 294.925   3
  -2   6  13 157.633 354.041   4
   2  -6 -12-249.111 308.219   3
  -2   6  12 20.7171 179.554   4
   2  -6 -11 132.145 383.546   3
  -2   6  11-548.953 528.844   4
  -2   6  10 3696.69 1248.62   4
   2  -6 -10 3847.13 1167.86   3
  -2   6   9 3236.51 1189.92   4
  -2   6   8 665.141 548.003   4
  -2   6   7-60.5717 224.081   4
  -2   6   6 112296. 6230.57   4
  -2   6   5 10986.3 1883.01   4
   2  -6  -5 9537.43 776.704   5
   2  -6  -4 354.979 184.732   5
  -2   6   4 537.670 437.168   4
   2  -6  -3 8267.29 1026.35   5
  -2   6   3 7318.67 1480.36   4
   2  -6  -2 2259.54 593.722   5
  -2   6   2 2526.21 836.902   4
   2  -6  -1 3979.97 879.007   5
  -2   6   1 6698.47 1482.83   4
   2  -6   0 629.782 387.150   5
   2  -6   1 24295.4 2384.62   1
   2  -6   1 29386.6 2656.73   5
   2  -6   2 3149.57 952.597   5
   2  -6   2 3325.65 856.112   1
   2  -6   3 379.344 183.345   5
   2  -6   3 334.191 271.639   1
   2  -6   4 6216.08 1084.00   1
   2  -6   4 2962.71 1009.74   5
   2  -6   5 8249.01 1742.69   5
   2  -6   6 11073.1 2137.93   5
   2  -6   6 15223.6 2647.21   6
   2  -6   7 275.109 221.040   5
   2  -6   7 52.4097 290.946   6
   2  -6   8 940.456 686.982   5
   2  -6   8 1086.91 692.274   6
   2  -6   9-324.849 438.750   5
   2  -6   9 398.044 499.407   6
   2  -6  10-453.856 547.838   6
   2  -6  10-1256.46 874.724   5
   2  -6  11 576.040 622.473   6
   2  -5 -16 633.837 568.306   3
   2  -5 -15-16.6246 96.6699   3
   2  -5 -14 539.765 481.324   3
   2  -5 -13 405.199 406.123   3
  -2   5  13 721.181 610.585   4
   2  -5 -12 779.534 542.585   3
  -2   5  12 363.543 430.710   4
   2  -5 -11 1448.86 698.039   3
  -2   5  11 852.914 699.172   4
  -2   5  10 1415.10 812.142   4
   2  -5 -10 1707.61 674.201   3
   2  -5  -9 272.571 297.995   3
  -2   5   9 282.981 521.229   4
   2  -5  -8 7405.00 1438.45   3
  -2   5   8 8274.27 1742.78   4
  -2   5   7 1159.02 716.530   4
  -2   5   6 316.402 339.276   4
  -2   5   5 12100.3 1907.57   4
  -2   5   4 16295.5 1250.77   2
  -2   5   4 15755.3 2095.21   4
   2  -5  -4 15128.3 904.408   5
   2  -5  -3 44086.6 1962.89   5
  -2   5   3 42575.6 2282.04   2
  -2   5   3 43301.5 3361.66   4
  -2   5   2 1211.04 404.377   2
  -2   5   2 1468.86 409.412   5
   2  -5  -2 2084.81 497.949   5
  -2   5   2 1077.02 564.496   4
  -2   5   1 18041.1 1574.96   5
  -2   5   1 22426.8 2400.61   4
   2  -5  -1 20021.5 1730.20   5
   2  -5   0 5256.69 956.170   5
   2  -5   1 36571.9 2824.67   1
   2  -5   1 35985.7 2699.51   5
   2  -5   2 2809.18 810.204   5
   2  -5   2 3444.84 862.134   1
   2  -5   3 7943.07 1437.30   5
   2  -5   3 7643.11 1189.29   1
   2  -5   4 4348.51 1104.43   5
   2  -5   4 4530.76 929.380   1
   2  -5   5 686.740 560.612   5
   2  -5   5-69.4126 166.431   1
   2  -5   5 911.687 739.549   6
   2  -5   6 203.172 469.873   5
   2  -5   6 1463.41 900.372   6
   2  -5   7 1623.85 847.576   5
   2  -5   7 2194.25 974.107   6
   2  -5   8 3124.34 1208.10   6
   2  -5   8 8143.17 1953.05   5
   2  -5   9-137.866 294.001   6
   2  -5   9 998.569 764.401   5
   2  -5  10 1576.79 928.697   6
   2  -5  10-25.4008 171.448   5
   2  -5  11 1602.93 978.213   6
   2  -5  12 432.907 559.211   6
   2  -4 -16-151.562 276.668   3
   2  -4 -15-328.615 384.620   3
   2  -4 -14 32.2921 125.903   3
   2  -4 -13 710.230 529.027   3
  -2   4  12-51.0022 224.576   4
   2  -4 -12 359.624 364.955   3
   2  -4 -11 792.415 524.308   3
  -2   4  11 713.865 553.820   4
   2  -4 -10 206.943 262.850   3
  -2   4  10-7.97129 113.213   4
   2  -4  -9 469.267 204.592   2
   2  -4  -9-338.767 315.744   3
  -2   4   9 1085.70 652.520   4
  -2   4   8 1139.48 597.075   4
   2  -4  -8 761.497 472.117   3
   2  -4  -8 733.040 214.653   2
   2  -4  -7-236.251 252.149   3
  -2   4   7-236.736 312.602   4
   2  -4  -6 6171.03 1197.22   3
  -2   4   6 7034.60 1427.07   4
  -2   4   5 1138.88 549.494   4
  -2   4   4 63289.1 3970.34   4
  -2   4   3 117245. 2964.88   2
  -2   4   3 111866. 5101.45   4
  -2   4   2 113106. 4898.29   4
  -2   4   2 112299. 2948.94   5
   2  -4  -2 115175. 3135.66   5
  -2   4   1 19798.7 1464.43   5
  -2   4   1 21372.9 2091.37   4
   2  -4  -1 21538.2 1599.89   5
  -2   4   0 3925.40 721.857   5
   2  -4   0 3979.43 758.590   5
   2  -4   1 11982.0 1432.70   5
   2  -4   1 11592.6 1524.42   1
   2  -4   2 21901.1 2054.20   1
   2  -4   2 23348.0 2155.72   5
   2  -4   3 21972.3 1968.43   1
   2  -4   3 20689.1 2179.09   5
   2  -4   4 8541.35 1293.86   1
   2  -4   4 9415.76 1583.21   5
   2  -4   5 4180.95 1141.10   5
   2  -4   5 4054.45 1213.02   1
   2  -4   5 4939.81 1301.40   6
   2  -4   6 14630.3 2263.50   6
   2  -4   6 15840.0 2318.40   5
   2  -4   7 1806.04 841.425   5
   2  -4   7 2359.82 958.121   6
   2  -4   8 956.708 645.443   6
   2  -4   8 78.3045 177.057   5
   2  -4   9 1300.22 781.208   5
   2  -4   9 1139.91 825.872   6
   2  -4  10 6986.28 1911.97   6
   2  -4  11-316.325 450.506   6
   2  -4  12-296.019 439.922   6
   2  -4  13 1192.73 842.874   6
   2  -3 -16 991.550 661.048   3
   2  -3 -15-8.74063 94.3014   3
   2  -3 -14-72.1603 194.716   3
   2  -3 -13 5.82697 62.9279   3
   2  -3 -12 69.1387 171.894   3
   2  -3 -11 84.6249 182.799   3
   2  -3 -10 1504.73 674.547   3
  -2   3  10 1154.25 655.199   4
   2  -3  -9-21.3887 122.187   3
  -2   3   9-97.6578 229.234   4
   2  -3  -8 10602.3 1662.87   3
   2  -3  -8 10496.0 893.055   5
  -2   3   8 9357.76 1730.66   4
  -2   3   7 533.176 364.450   4
   2  -3  -7 133.427 232.710   3
   2  -3  -7 226.714 107.008   2
   2  -3  -7 286.401 104.292   5
  -2   3   6-330.633 309.783   4
   2  -3  -6 460.802 334.507   3
  -2   3   5 77.9617 218.908   4
   2  -3  -5 62.9627 130.818   3
  -2   3   4 1903.61 642.840   4
  -2   3   3 1908.29 613.262   4
  -2   3   2 271.206 224.047   4
  -2   3   2 257.656 107.581   5
  -2   3   1 6029.04 712.130   5
  -2   3   1 4831.13 880.454   4
  -2   3   0 130316. 3900.91   5
  -2   3   0 131254. 4656.42   4
   2  -3   0 133944. 4932.68   1
  -2   3  -1 18468.0 1628.58   5
   2  -3   1 21231.5 1972.67   1
   2  -3   1 18745.0 1662.80   5
   2  -3   2 33463.4 2442.28   1
   2  -3   2 33912.5 2434.10   5
   2  -3   3 27603.1 2173.46   1
   2  -3   3 27191.6 2374.73   5
   2  -3   4 2601.15 721.849   1
   2  -3   4 2418.40 750.654   5
   2  -3   5 30317.2 3394.38   1
   2  -3   5 34192.7 3021.06   5
   2  -3   6 1207.07 607.863   6
   2  -3   6 1803.23 741.877   5
   2  -3   7-84.9009 195.593   6
   2  -3   7 423.563 459.116   5
   2  -3   8 166.557 154.102   6
   2  -3   9 405.626 547.572   6
   2  -3  10 4457.57 1412.36   6
   2  -3  11 661.113 728.378   6
   2  -3  12 4394.29 1475.62   6
   2  -3  13-431.310 496.388   6
   2  -3  14 1212.46 986.813   6
   2  -2 -16-38.2608 170.567   3
   2  -2 -15 66.3182 176.368   3
   2  -2 -14 4396.90 1277.94   3
   2  -2 -13-162.854 251.095   3
   2  -2 -12 1444.52 706.267   3
   2  -2 -11-318.515 332.055   3
   2  -2 -10 209.687 265.837   3
   2  -2  -9 5926.85 1311.12   3
   2  -2  -8 6744.18 1334.75   3
  -2   2   8 5876.26 1363.44   4
   2  -2  -8 5645.56 804.857   5
   2  -2  -7-219.260 240.315   3
   2  -2  -7-5.15236 32.6744   5
  -2   2   7 135.003 213.234   4
   2  -2  -6 123.204 172.548   3
  -2   2   6 167.506 151.971   4
  -2   2   5 524.203 302.905   4
  -2   2   4 1423.40 543.953   4
  -2   2   3 13776.3 1590.23   4
  -2   2   2 56.8329 102.951   4
  -2   2   2 191.642 88.9486   5
  -2   2   1 42277.1 2457.80   4
   2  -2  -1 42796.4 2510.64   4
  -2   2   1 40669.5 1620.01   5
  -2   2   0 33259.8 2035.88   4
   2  -2   0 34847.8 2480.65   1
  -2   2   0 35663.2 1814.13   5
   2  -2   1 7286.49 1119.77   1
  -2   2  -1 7492.06 950.683   4
  -2   2  -1 7934.16 976.426   5
   2  -2   2 49928.1 2815.57   1
   2  -2   3 32253.5 2354.06   1
   2  -2   4 434.235 400.667   6
   2  -2   4 1049.09 849.950   1
   2  -2   5 2392.08 982.253   1
   2  -2   5 1049.05 511.955   6
   2  -2   6 3142.54 882.089   6
   2  -2   7 1128.33 570.071   6
   2  -2   8 526.459 428.148   6
   2  -2   9-347.845 369.994   6
   2  -2  10 4586.71 1344.65   6
   2  -2  11 896.753 650.827   6
   2  -2  12 4174.95 1427.03   6
   2  -2  13-249.887 394.209   6
   2  -2  14 2286.58 1154.29   6
  -2   1  16 2189.07 1097.93   6
   2  -1 -15 535.038 439.205   3
  -2   1  15 665.038 585.163   6
   2  -1 -14 1222.80 650.048   3
  -2   1  14 2367.13 1002.92   6
   2  -1 -13 1089.51 618.761   3
  -2   1  13 352.800 414.200   6
  -2   1  12 1341.46 736.941   6
   2  -1 -12 672.269 474.102   3
   2  -1 -11 529.973 505.748   3
  -2   1  11 635.386 482.821   6
  -2   1  11 361.116 236.735   5
   2  -1 -10 1417.44 640.337   3
  -2   1  10 852.396 422.360   5
  -2   1  10 424.655 400.500   6
  -2   1   9-122.575 65.2670   5
   2  -1  -9 200.864 252.367   3
  -2   1   9 179.514 252.928   6
  -2   1   8 3291.43 703.446   5
   2  -1  -8 3750.70 981.458   3
   2  -1  -7 12486.0 1253.74   5
  -2   1   7 15012.6 1378.11   5
   2  -1  -6 38852.5 1970.67   5
  -2   1   6 41364.2 2039.68   5
  -2   1   5 42708.2 1823.47   5
  -2   1   5 43577.3 3088.06   4
  -2   1   4 1234.88 276.601   5
  -2   1   4 1176.93 517.198   4
   2  -1  -4 1177.87 231.753   2
   2  -1  -4 1016.12 400.988   6
  -2   1   3 9462.66 663.824   5
  -2   1   3 9929.77 1308.68   4
  -2   1   2 21246.5 874.633   2
  -2   1   2 21477.9 1802.35   4
   2  -1  -2 21384.5 1742.80   4
  -2   1   1 19599.8 1552.31   4
   2  -1  -1 22634.7 1609.27   4
   2  -1  -1 21478.9 1911.88   1
   2  -1   0 35027.3 2454.10   1
   2  -1   0 34964.4 1877.13   4
  -2   1   0 33734.1 1889.20   4
   2  -1   1 4362.08 840.669   1
  -2   1  -1 4450.09 619.354   4
  -2   1  -2 3464.68 698.187   5
  -2   1  -2 2313.12 586.921   1
   2  -1   2 1691.65 547.452   1
  -2   1  -2 2010.81 407.134   4
  -2   1  -3 2786.41 684.846   1
   2  -1   3 2366.59 650.805   6
   2  -1   3 3704.97 870.475   1
   2  -1   4 1743.16 1085.98   1
   2  -1   4 1184.50 449.351   6
   2  -1   5 3848.02 905.814   6
   2  -1   6 7946.15 1384.32   6
   2  -1   7 7125.12 1388.38   6
   2  -1   8 423.547 396.576   6
   2  -1   9 2065.83 839.415   6
   2  -1  10 523.106 509.806   6
   2  -1  11 9355.44 2025.26   6
   2  -1  12 4657.03 1464.91   6
   2  -1  13 48.2672 206.147   6
   2  -1  14 572.002 492.558   6
   2  -1  15 614.125 630.946   6
  -2   0  16 27.3528 188.129   6
  -2   0  15 377.452 450.239   6
   2   0 -15 404.912 375.380   3
  -2   0  14-191.813 327.934   6
   2   0 -14 170.602 239.479   3
  -2   0  13 215.560 315.673   6
  -2   0  13 29.8177 149.889   5
  -2   0  12 7191.56 1505.24   5
  -2   0  12 5977.65 1507.09   6
   2   0 -12 6190.71 1368.07   3
  -2   0  11 30236.7 3276.87   6
   2   0 -11 25735.8 2765.87   3
  -2   0  11 25689.7 2729.73   5
  -2   0  10 4066.34 990.911   5
  -2   0  10 4274.35 1139.44   6
   2   0 -10 5437.14 1244.62   3
  -2   0   9 2930.64 832.142   5
  -2   0   9 2306.96 816.045   6
   2   0  -9 2484.34 830.120   3
  -2   0   8 7476.58 1189.22   5
   2   0  -8 6962.01 1364.45   3
  -2   0   8 5875.62 1214.32   6
  -2   0   7 18062.5 1706.14   5
  -2   0   7 15817.8 1814.01   6
   2   0  -6 22581.6 1761.21   5
  -2   0   6 23204.0 2047.41   6
  -2   0   6 22316.5 1792.14   5
  -2   0   5 50344.2 2452.34   5
   2   0  -5 51529.5 2776.30   6
  -2   0   4 13606.3 1163.22   5
   2   0  -4 12428.3 1043.53   2
   2   0  -4 13274.0 1278.81   6
  -2   0   3 12319.8 1023.85   5
   2   0  -3 11961.1 1111.18   6
   2   0  -3 11729.7 952.016   2
  -2   0   2 25058.3 1281.71   2
   2   0  -2 23728.4 1800.09   4
   2   0  -2 23915.0 1337.51   2
   2   0  -2 24018.1 1986.30   1
  -2   0   1 14092.1 1335.47   3
  -2   0   1 12303.3 1150.10   4
  -2   0   1 14383.2 1043.93   2
   2   0  -1 14432.9 1263.10   4
   2   0  -1 14177.0 1552.91   1
  -2   0   0 116575. 3145.34   4
   2   0   0 115548. 4220.63   1
   2   0   0 115733. 3092.42   4
   2   0   1 36371.9 2349.11   1
  -2   0  -1 37415.0 1511.23   4
   2   0   1 37284.7 1444.12   4
  -2   0  -2 6313.16 518.402   4
   2   0   2 5606.49 805.804   6
   2   0   3 114243. 4052.52   6
  -2   0  -3 115578. 1981.87   4
   2   0   4-515.265 478.623   1
   2   0   4 204.911 233.792   6
   2   0   5 17175.8 1873.37   6
   2   0   6 2689.72 795.313   6
   2   0   7 27465.1 2661.83   6
  -2   0  -8 83.4937 195.770   4
   2   0   8-489.176 389.751   6
   2   0   9 2085.99 825.136   6
   2   0  10 389.205 384.571   6
   2   0  11 676.323 571.938   6
   2   0  12 652.580 552.821   6
   2   0  13-1058.92 728.202   6
   2   0  14 2829.05 1186.31   6
   2   0  15-249.291 419.882   6
  -2  -1  16 1409.47 884.854   6
  -2  -1  15 396.638 448.819   6
  -2  -1  15 611.084 559.273   5
  -2  -1  14 1649.17 866.435   6
  -2  -1  14 3338.68 1211.67   5
  -2  -1  13 42.2018 153.591   5
  -2  -1  13 780.338 590.297   6
  -2  -1  12 4452.46 1244.92   5
  -2  -1  12 3484.03 1161.65   6
  -2  -1  11 13811.0 2175.12   6
  -2  -1  11 13692.5 2067.94   5
  -2  -1  10 1243.45 685.239   5
  -2  -1  10 1193.30 627.942   6
  -2  -1   9 547.062 368.570   5
  -2  -1   9 698.774 445.384   6
  -2  -1   8 39.5231 116.339   5
  -2  -1   8-70.7588 167.934   6
  -2  -1   7 12471.7 1607.93   5
  -2  -1   7 9986.23 1450.38   6
  -2  -1   6 29661.3 2334.74   5
  -2  -1   6 28475.1 2228.27   6
  -2  -1   5 116057. 4311.06   5
  -2  -1   5 120864. 4137.97   6
   2   1  -5 118713. 4090.70   6
   2   1  -4 68242.1 2722.17   6
  -2  -1   4 68121.7 3059.50   5
   2   1  -4 63932.0 2880.20   2
   2   1  -4 66253.0 3314.67   1
  -2  -1   4 64113.2 2611.19   6
   2   1  -3 2851.66 673.919   1
  -2  -1   3 2775.76 577.632   5
   2   1  -3 2661.60 454.068   6
   2   1  -3 3872.39 680.828   2
  -2  -1   2 2479.08 588.125   3
   2   1  -2 2679.83 376.840   6
   2   1  -2 3975.80 740.870   4
   2   1  -2 3134.43 689.226   1
   2   1  -2 3867.06 657.033   2
   2   1  -1 144.656 124.657   2
  -2  -1   1 13.3017 48.3462   3
   2   1  -1 17.2791 56.7763   4
  -2  -1   1 98.0017 119.671   2
   2   1  -1-28.5132 159.806   1
  -2  -1   0 4095.49 657.603   3
   2   1   0 5268.88 918.670   1
   2   1   0 5383.68 679.492   4
  -2  -1   0 5276.06 780.455   2
   2   1   1 6923.40 1168.90   1
   2   1   1 7398.72 688.281   6
   2   1   1 7360.60 642.566   4
  -2  -1  -1 6614.03 913.739   2
   2   1   2 1395.11 576.113   1
   2   1   2 1313.38 350.858   6
   2   1   3 22631.6 1642.80   6
   2   1   3 25957.2 3239.81   1
  -2  -1  -3 25364.2 1748.79   6
   2   1   4 152.412 135.698   6
  -2  -1  -4 92.8807 135.178   6
  -2  -1  -5 13118.0 746.692   4
   2   1   5 16183.0 1712.33   6
   2   1   6 38380.8 2878.37   6
  -2  -1  -6 40948.2 1714.56   4
  -2  -1  -7 10912.8 1083.55   4
   2   1   7 12336.4 1746.64   6
  -2  -1  -8 45798.2 2533.70   4
   2   1   8 50225.7 3773.16   6
   2   1   9 224.883 285.836   6
   2   1  10 3703.63 1148.04   6
   2   1  11-186.102 296.778   6
   2   1  12 3932.51 1251.91   6
   2   1  13 1006.93 648.288   6
   2   1  14-436.390 481.717   6
   2   1  15 820.827 672.950   6
   2   1  16 743.427 674.440   6
  -2  -2  15 1574.05 909.252   5
  -2  -2  15-473.377 507.090   6
  -2  -2  14 709.394 590.821   5
  -2  -2  14 94.5992 255.785   6
  -2  -2  13 317.983 385.112   5
  -2  -2  13 144.744 259.412   6
  -2  -2  12 622.973 391.503   5
  -2  -2  12 1441.05 729.941   6
  -2  -2  11 4716.75 1330.96   5
  -2  -2  11 4342.05 1190.12   6
  -2  -2  10 252.562 256.954   5
  -2  -2  10-34.8452 151.328   6
  -2  -2   9 29524.2 2942.69   5
   2   2  -9 26897.4 2317.04   1
  -2  -2   9 27187.5 2691.64   6
  -2  -2   8 92159.0 5013.66   5
  -2  -2   8 88620.6 4595.37   6
   2   2  -8 96827.5 4314.66   1
  -2  -2   7 24453.1 2448.74   5
  -2  -2   7 25774.5 2286.41   6
   2   2  -7 28118.4 2283.67   1
  -2  -2   6 23331.8 2283.38   5
   2   2  -6 23771.7 2049.12   1
  -2  -2   6 26571.9 2152.38   6
  -2  -2   5 1290.24 401.743   6
  -2  -2   5 1147.78 467.472   5
   2   2  -5 854.353 376.358   1
   2   2  -5 369.251 226.120   6
  -2  -2   4 81397.6 3790.16   5
   2   2  -4 84090.2 3642.74   1
  -2  -2   4 77454.0 2923.88   6
   2   2  -4 85544.3 3050.47   6
   2   2  -3 48374.2 2747.43   3
  -2  -2   3 47133.7 2731.89   5
   2   2  -3 50110.6 2710.55   1
  -2  -2   3 46455.5 1847.80   6
   2   2  -3 47074.3 1881.92   6
   2   2  -2 10920.1 1310.30   3
  -2  -2   2 12700.8 1341.09   5
   2   2  -2 13274.0 1405.00   1
   2   2  -2 13229.1 1414.87   2
  -2  -2   2 13435.4 1366.28   1
  -2  -2   2 12306.3 689.628   6
   2   2  -1 44986.0 2366.35   3
   2   2  -1 45104.8 2747.50   1
  -2  -2   1 42333.2 2355.77   2
   2   2  -1 45864.8 2574.49   2
  -2  -2   1 46559.5 2631.10   1
  -2  -2   1 46412.6 2290.68   3
  -2  -2   0 125126. 3491.45   3
   2   2   0 121779. 5130.89   1
  -2  -2   0 118818. 4238.75   1
  -2  -2   0 123153. 4037.26   2
   2   2   0 128527. 4275.14   2
   2   2   1 6231.03 489.280   6
  -2  -2  -1 6970.14 789.120   3
  -2  -2  -1 5774.84 912.007   2
   2   2   1 4977.10 1313.53   1
  -2  -2  -1 6629.42 515.946   6
   2   2   2 74255.5 2340.92   6
  -2  -2  -2 76784.7 3552.43   2
  -2  -2  -2 74244.6 2384.66   6
   2   2   3 15645.4 1272.49   6
  -2  -2  -3 17667.2 1370.67   6
   2   2   4 269276. 2932.60   4
  -2  -2  -4 260414. 6055.28   6
   2   2   4 265030. 5988.12   6
   2   2   5 17769.4 1738.38   6
   2   2   6 184.810 191.162   6
  -2  -2  -6 151.688 99.2816   4
  -2  -2  -7 32726.2 1758.34   4
   2   2   7 34172.7 2867.20   6
  -2  -2  -8 26747.4 1826.77   4
   2   2   8 31073.6 2888.96   6
  -2  -2  -9 1763.98 523.313   4
   2   2   9 1341.60 602.282   6
   2   2  10 8118.38 1649.42   6
   2   2  11 11082.6 2079.33   6
   2   2  12 949.787 642.162   6
   2   2  13-30.0852 170.241   6
   2   2  14 591.511 561.850   6
   2   2  15 36.1215 214.096   6
   2   2  16-893.173 736.160   6
  -2  -3  15 638.883 618.904   5
  -2  -3  14 2887.97 1248.00   5
  -2  -3  14 2541.10 1120.89   6
  -2  -3  13 2359.60 1028.94   5
  -2  -3  13 924.139 624.806   6
  -2  -3  12 344.897 399.325   5
  -2  -3  12 913.773 619.450   6
  -2  -3  11-218.743 337.704   5
  -2  -3  11 10.4019 103.872   6
  -2  -3  10 166.922 236.701   6
  -2  -3  10-462.744 425.910   5
  -2  -3   9 23519.4 2841.74   5
   2   3  -9 26242.0 2146.14   1
  -2  -3   9 24152.6 2562.62   6
   2   3  -8 244.060 207.080   1
  -2  -3   8 572.094 452.885   5
  -2  -3   8 483.934 341.202   6
   2   3  -7 2513.34 632.063   1
  -2  -3   7 2348.47 904.544   5
  -2  -3   7 2151.13 697.650   6
  -2  -3   6 6735.85 1347.92   5
   2   3  -6 6246.23 956.687   1
  -2  -3   6 7095.17 1119.35   6
  -2  -3   5 1064.30 478.026   5
   2   3  -5 1451.90 467.598   1
  -2  -3   5 765.902 317.963   6
  -2  -3   4 18973.0 2008.72   5
  -2  -3   4 21867.4 1590.71   6
   2   3  -4 20742.3 1733.34   1
  -2  -3   3 22938.8 2101.49   5
  -2  -3   3 24932.8 1453.18   6
   2   3  -3 25358.8 2029.65   1
   2   3  -3 24386.7 2009.03   3
  -2  -3   2-111.661 139.550   1
   2   3  -2-20.3452 139.059   3
  -2  -3   2 136.893 203.268   5
  -2  -3   2 71.9434 68.0361   6
   2   3  -2-121.859 215.770   1
   2   3  -1 332705. 6336.78   3
  -2  -3   1 341488. 3428.73   6
   2   3  -1 321637. 9976.09   1
  -2  -3   1 337535. 7449.06   2
  -2  -3   1 351238. 7151.05   1
   2   3   0 3786.51 654.084   3
   2   3   0 5383.58 1368.61   1
  -2  -3   0 6551.55 1060.12   1
  -2  -3   0 5773.58 970.270   2
  -2  -3  -1 30835.8 1557.04   3
  -2  -3  -1 31139.2 1207.58   6
  -2  -3  -1 29788.5 2256.74   2
  -2  -3  -2 1229.39 307.391   6
  -2  -3  -2 1312.82 303.765   3
  -2  -3  -2 1069.22 439.774   2
  -2  -3  -3 36749.7 2670.93   2
   2   3   3 39326.9 2000.89   6
  -2  -3  -3 38566.5 2042.08   6
  -2  -3  -4 1810.37 617.370   2
   2   3   4 1378.84 405.990   6
  -2  -3  -4 1896.59 513.018   6
   2   3   4 1544.94 351.884   4
   2   3   5 349.617 347.495   6
   2   3   5 195.861 141.580   4
   2   3   6 46101.5 3011.45   6
   2   3   6 48408.9 2103.33   4
   2   3   7 5126.82 750.754   4
   2   3   7 6204.46 1169.83   6
  -2  -3  -8 19172.9 1564.89   4
   2   3   8 20741.0 2354.31   6
   2   3   9 1102.36 593.216   6
   2   3  10 6927.57 1559.09   6
   2   3  11 44194.4 4077.33   6
   2   3  12 679.079 458.448   6
   2   3  13 1940.23 948.284   6
   2   3  14 17.7451 330.658   6
   2   3  15-537.772 565.995   6
   2   3  16-553.634 584.594   6
  -2  -4  14-646.072 631.235   5
  -2  -4  13 8.05731 430.675   5
  -2  -4  12-129.068 287.159   5
  -2  -4  12-400.350 406.899   6
  -2  -4  11 320.059 389.170   5
  -2  -4  11 308.414 342.336   6
  -2  -4  10 31.7912 203.744   5
  -2  -4  10 26.2232 117.807   6
  -2  -4   9 5013.09 1362.37   5
  -2  -4   9 3846.23 1090.48   6
  -2  -4   8 1204.06 639.783   5
  -2  -4   8 3085.08 894.960   6
   2   4  -7 800.615 351.088   1
  -2  -4   7 364.027 300.049   6
  -2  -4   7 1213.45 698.575   5
  -2  -4   6 71277.2 3705.54   6
  -2  -4   6 71719.5 4735.94   5
   2   4  -6 69515.7 3565.88   1
  -2  -4   5 1754.56 709.592   5
   2   4  -5 1600.83 588.694   1
  -2  -4   5 1835.82 561.560   6
  -2  -4   4 1797.80 648.049   5
   2   4  -4 938.582 509.675   1
  -2  -4   4 2399.51 567.337   6
  -2  -4   3 30258.6 2650.75   5
   2   4  -3 28006.4 3010.24   1
  -2  -4   3 28522.5 1959.81   1
  -2  -4   3 30619.2 1874.76   6
  -2  -4   2 16976.8 1274.39   6
  -2  -4   2 17372.9 1581.52   1
  -2  -4   2 16882.8 1918.93   5
   2   4  -2 15547.4 1488.39   3
   2   4  -1 5769.76 835.768   3
  -2  -4   1 5093.64 1002.25   5
  -2  -4   1 5134.66 908.796   1
   2   4   0 81114.5 2937.87   3
  -2  -4   0 92182.8 4255.58   2
  -2  -4  -1 50323.6 3191.20   2
  -2  -4  -1 47442.9 1895.91   6
  -2  -4  -2 1681.10 384.642   6
  -2  -4  -2 2174.15 664.162   2
  -2  -4  -2 1374.62 279.827   3
  -2  -4  -3 11050.1 745.222   3
  -2  -4  -3 11839.0 1170.32   6
  -2  -4  -3 11569.6 1589.07   2
  -2  -4  -4 40193.4 2391.21   6
  -2  -4  -4 38557.7 2982.72   2
   2   4   5 12562.7 1454.28   6
  -2  -4  -5 10450.0 1617.97   2
   2   4   5 11911.5 1193.98   4
   2   4   6 101504. 3588.43   4
  -2  -4  -6 106658. 5313.09   2
   2   4   6 103565. 4552.56   6
   2   4   7 9580.87 1487.34   6
   2   4   7 8669.51 1083.98   4
   2   4   8 1837.94 700.155   6
   2   4   8 1220.92 428.018   4
   2   4   9 11484.6 1846.97   6
   2   4   9 7943.62 1181.86   4
   2   4  10 415.118 291.757   4
   2   4  10 441.277 382.963   6
   2   4  11 1614.01 770.340   6
   2   4  12 5248.63 1509.38   6
   2   4  13 6274.55 1693.29   6
   2   4  14 3350.23 1310.91   6
   2   4  15 1590.23 934.351   6
   2   4  16 849.508 710.281   6
  -2  -5  13 691.795 653.644   5
  -2  -5  12 1088.86 788.856   5
  -2  -5  11 1626.31 795.239   5
  -2  -5  10-258.980 359.733   5
  -2  -5  10 563.344 464.371   6
  -2  -5   9 7757.81 1888.63   5
  -2  -5   9 8016.62 1588.70   6
  -2  -5   8 1058.39 667.507   5
  -2  -5   8 650.880 473.830   6
  -2  -5   7 438.830 344.885   6
  -2  -5   7 359.164 387.054   5
  -2  -5   6 2556.28 949.863   5
  -2  -5   6 2155.61 694.650   6
  -2  -5   5 297.578 201.154   5
  -2  -5   5 352.713 345.612   6
  -2  -5   4-1015.86 558.502   5
  -2  -5   4 10.9288 79.2903   6
  -2  -5   3 205.199 256.259   5
  -2  -5   3 136.273 153.997   6
  -2  -5   3 10.2700 49.6376   1
  -2  -5   2 25527.1 2572.66   5
  -2  -5   2 26125.9 1920.50   6
  -2  -5   2 21574.2 1769.58   1
   2   5  -1 108387. 3628.42   3
  -2  -5   1 103393. 4993.93   5
  -2  -5   1 108259. 4377.36   1
   2   5   0 5111.43 700.521   3
  -2  -5   0 5800.62 1120.82   5
   2   5   1 967.390 255.973   3
  -2  -5  -1 1266.36 540.604   2
  -2  -5  -2 5968.11 872.957   6
  -2  -5  -2 7253.63 1313.76   2
  -2  -5  -3 37113.1 2254.04   6
  -2  -5  -3 38853.4 3118.86   2
  -2  -5  -4 11611.5 1739.42   2
  -2  -5  -5 973.738 462.388   2
  -2  -5  -6 11161.9 1771.34   2
   2   5   6 10149.4 1298.64   4
  -2  -5  -7-402.927 357.974   2
   2   5   7-64.6103 120.135   4
  -2  -5  -8-310.859 344.419   2
   2   5   8 262.557 271.746   6
   2   5   8 410.534 276.629   4
  -2  -5  -9 519.328 443.770   2
   2   5   9-82.4241 139.689   4
   2   5   9 460.789 410.780   6
   2   5  10 1478.09 555.838   4
   2   5  10 3007.81 1022.79   6
   2   5  11 20499.0 2207.52   4
   2   5  11 25680.9 3148.85   6
   2   5  12 5236.68 1513.73   6
   2   5  13 3555.83 1212.00   6
   2   5  14 2820.18 1202.61   6
   2   5  15-193.705 375.563   6
   2   5  16 473.588 555.264   6
  -2  -6  11 1251.68 861.321   5
  -2  -6  10 3280.64 1296.36   5
  -2  -6   9-123.155 270.305   5
  -2  -6   9-5.49192 117.238   6
  -2  -6   8 2137.40 997.714   5
  -2  -6   8 4201.69 1173.46   6
  -2  -6   7 4110.81 1331.49   5
  -2  -6   7 5044.49 1212.87   6
  -2  -6   6 181.913 366.810   5
  -2  -6   6 1030.09 533.146   6
  -2  -6   5 17780.5 2590.33   5
  -2  -6   5 13462.9 1834.96   6
  -2  -6   4 115.897 251.417   5
  -2  -6   4 257.820 333.258   6
  -2  -6   3-268.583 299.845   5
  -2  -6   3 273.600 192.999   6
  -2  -6   2 5272.85 1236.24   5
  -2  -6   1 20371.4 2353.08   5
   2   6   0 29631.5 1701.47   3
  -2  -6   0 27038.8 2692.42   5
   2   6   1 10037.8 801.820   3
  -2  -6  -2 5964.75 1251.14   2
  -2  -6  -3-314.060 314.935   2
  -2  -6  -4 9079.82 1602.50   2
  -2  -6  -5 525.563 347.177   2
  -2  -6  -6 13343.9 2017.91   2
   2   6   6 13082.8 1636.85   4
   2   6   7 3728.58 875.597   4
  -2  -6  -7 4111.68 1103.98   2
  -2  -6  -8 2510.33 941.375   2
   2   6   8 2271.03 700.145   4
  -2  -6  -9 771.860 475.144   2
   2   6   9 320.232 243.034   4
  -2  -6 -10 4817.38 1347.88   2
   2   6  10 5727.37 1170.06   4
  -2  -6 -11 4024.81 1285.98   2
   2   6  11 3845.81 990.053   4
  -2  -6 -12 1134.37 721.206   2
   2   6  12 1866.78 745.162   4
   2   6  12 1485.40 804.117   6
  -2  -6 -13-168.321 318.040   2
   2   6  13 188.094 245.273   4
   2   6  13-112.266 281.721   6
  -2  -6 -14-99.7611 253.526   2
   2   6  14 300.968 409.701   6
   2   6  15-425.324 494.170   6
   2   6  16 729.048 674.234   6
  -2  -7  10 675.638 631.101   5
  -2  -7   9 153.704 268.697   5
  -2  -7   8 266.938 414.981   5
  -2  -7   7 246.807 377.155   5
  -2  -7   7 155.876 253.399   6
  -2  -7   6 70.5758 267.179   5
  -2  -7   6 775.320 505.698   6
  -2  -7   5 469.597 318.194   5
  -2  -7   5 185.810 248.560   6
  -2  -7   4 7792.00 1713.07   5
  -2  -7   4 5169.65 1164.01   6
  -2  -7   3 2226.21 870.502   5
  -2  -7   3 1628.53 627.548   6
  -2  -7   2 947.311 613.402   5
  -2  -7   1 2595.03 887.748   5
   2   7   0 13407.9 1177.69   3
  -2  -7   0 12457.6 1963.67   5
   2   7   1 2837.36 430.565   3
  -2  -7  -1 2185.77 794.885   5
  -2  -7  -3 156.889 249.501   2
  -2  -7  -4 1388.83 685.820   2
  -2  -7  -5 935.746 555.053   2
  -2  -7  -6 5461.46 1357.86   2
   2   7   6 4490.60 1061.24   4
  -2  -7  -7 294.481 335.997   2
   2   7   7 224.010 244.976   4
   2   7   8 102.536 182.348   4
  -2  -7  -8 411.496 403.188   2
   2   7   9 17.8008 211.805   4
  -2  -7  -9 11.4529 151.088   2
   2   7  10 1542.45 675.184   4
  -2  -7 -10 2044.87 929.340   2
  -2  -7 -11 3006.82 1127.15   2
   2   7  11 2590.11 853.047   4
  -2  -7 -12 38.3346 177.431   2
   2   7  12 6.28997 104.171   4
  -2  -7 -13-982.819 283.269   2
  -2  -7 -14 1297.37 710.994   2
  -2  -7 -15 457.720 517.193   2
  -2  -7 -16-482.069 570.945   2
  -2  -7 -17-426.083 541.576   2
  -2  -8   8-89.9916 294.690   5
  -2  -8   7 1103.29 834.173   5
  -2  -8   6-30.5825 207.155   5
  -2  -8   5 898.083 669.341   5
  -2  -8   4-93.4696 257.471   5
  -2  -8   4-262.247 295.103   6
  -2  -8   3 319.230 396.780   5
  -2  -8   3 188.321 243.779   6
  -2  -8   2 6426.53 1568.04   5
  -2  -8   1 11540.7 2108.50   5
  -2  -8   0 13539.1 2190.89   5
  -2  -8  -1 19319.8 2568.75   5
  -2  -8  -2 34175.7 3373.38   5
  -2  -8  -3 2099.28 862.823   5
  -2  -8  -4 419.013 381.385   2
  -2  -8  -5 697.067 504.225   2
   2   8   6 1559.50 692.776   4
  -2  -8  -6 1092.52 635.889   2
   2   8   7-51.6494 157.623   4
  -2  -8  -7 495.823 391.498   2
  -2  -8  -8-236.573 318.827   2
   2   8   8-146.173 234.426   4
   2   8   9 522.373 342.895   4
  -2  -8  -9 1338.48 748.722   2
   2   8  10 986.541 535.438   4
  -2  -8 -10 3750.57 1254.96   2
  -2  -8 -11 4389.34 1409.85   2
   2   8  11 3893.43 1124.54   4
   2   8  12 2133.85 786.857   4
  -2  -8 -12 1941.76 905.893   2
  -2  -8 -13 950.210 686.343   2
  -2  -8 -14 512.937 529.470   2
  -2  -8 -15-404.074 485.309   2
  -2  -8 -16-71.0616 260.461   2
  -2  -8 -17-1860.71 1082.88   2
  -2  -9   7 3.02656 551.978   5
  -2  -9   6 1576.44 939.512   5
  -2  -9   5 1325.21 910.034   5
  -2  -9   4 1916.21 982.847   5
  -2  -9   3 1731.79 950.863   5
  -2  -9   2 788.963 720.892   5
  -2  -9   1 5371.04 1518.61   5
  -2  -9   0 343.689 177.497   5
  -2  -9  -1 1714.57 670.911   5
  -2  -9  -2 1519.09 782.245   5
  -2  -9  -3-127.110 265.510   5
  -2  -9  -4 1794.91 845.856   5
  -2  -9  -5 8427.55 1854.51   2
  -2  -9  -6 6645.13 1673.40   2
  -2  -9  -7 2995.88 1137.13   2
   2   9   7 1581.67 721.824   4
  -2  -9  -8-157.652 292.593   2
   2   9   8-384.471 369.169   4
  -2  -9  -9 968.618 660.888   2
   2   9   9 566.221 472.131   4
   2   9  10 1842.84 832.776   4
  -2  -9 -10 3245.07 1188.71   2
  -2  -9 -11 451.228 473.296   2
   2   9  11 37.1600 176.947   4
   2   9  12 546.158 469.623   4
  -2  -9 -12-516.171 517.164   2
  -2  -9 -13 870.570 672.245   2
  -2  -9 -14 316.032 420.900   2
  -2  -9 -15-448.818 498.170   2
  -2  -9 -16 151.100 324.544   2
  -2 -10   5-68.9439 283.201   5
  -2 -10   4 233.435 376.457   5
  -2 -10   3-458.261 505.011   5
  -2 -10   2 406.637 466.343   5
  -2 -10   1 1770.08 922.642   5
  -2 -10   0 226.978 357.039   5
  -2 -10  -1 2980.03 1150.84   5
  -2 -10  -2 202.187 300.460   5
  -2 -10  -3-59.3146 186.762   5
  -2 -10  -4 2285.89 979.700   5
  -2 -10  -5 2509.72 1058.72   5
  -2 -10  -6 6149.11 1615.25   2
  -2 -10  -7-537.632 504.384   2
   2  10   7 1227.64 658.830   4
  -2 -10  -8 451.464 394.130   2
   2  10   8 633.358 522.592   4
  -2 -10  -9-624.163 481.033   2
   2  10   9 712.690 586.385   4
  -2 -10 -10 2503.33 1156.68   2
   2  10  10 752.105 587.525   4
  -2 -10 -11 814.969 817.712   2
   2  10  11-2.23175 90.1524   4
   2  10  12 1140.34 753.810   4
  -2 -10 -12 2226.93 1132.19   2
  -2 -10 -13-178.614 339.143   2
  -2 -10 -14-167.242 328.434   2
  -2 -10 -15-1194.77 852.098   2
  -2 -11   2 243.265 409.714   5
  -2 -11   1 1340.39 849.268   5
  -2 -11   0-154.691 342.668   5
  -2 -11  -1 496.306 518.897   5
  -2 -11  -2 217.271 434.480   5
  -2 -11  -3 462.398 491.387   5
  -2 -11  -4 72.3374 236.969   5
  -2 -11  -5-237.216 352.479   5
  -2 -11  -6 4617.81 1457.77   5
   2  11   6 1405.34 838.047   4
   2  11   7 639.465 586.794   4
  -2 -11  -7 301.774 385.865   5
  -2 -11  -8 4288.94 1395.32   2
   2  11   8 5231.47 1585.26   4
  -2 -11  -9 2385.96 1138.89   2
   2  11   9 2456.48 1087.35   4
  -2 -11 -10 2754.63 1207.13   2
   2  11  10 1683.57 916.000   4
  -2 -11 -11 16.7167 174.599   2
   2  11  11 2647.27 1266.31   4
  -2 -11 -12-5.76963 184.821   2
  -2 -11 -13 785.786 691.225   2
  -2 -12  -1 225.315 367.582   5
  -2 -12  -2 461.953 510.050   5
  -2 -12  -3 522.810 552.529   5
  -2 -12  -4-279.594 387.758   5
  -2 -12  -5 624.562 574.365   5
   2  12   6 909.244 737.438   4
  -2 -12  -6 1045.16 729.054   5
  -2 -12  -7-48.3606 236.810   5
   2  12   7-382.280 503.727   4
  -2 -12  -8 221.924 371.670   5
   2  12   8 1292.32 847.732   4
  -2 -12  -9-468.624 502.911   5
   2  12   9-254.953 395.867   4
   2  12  10-524.610 551.207   4
  -2 -12 -10-595.669 604.387   2
  -2 -12 -11-282.714 427.769   2
   2  12  11 1974.50 1054.75   4
  -2 -12 -12-737.455 664.629   2
  -2 -13  -5-39.2315 163.773   5
  -2 -13  -6 44.4481 223.840   5
  -2 -13  -7-661.063 614.956   5
  -2 -13  -8 396.210 480.178   5
  -3  10   7-256.044 453.118   4
  -3  10   6 748.880 704.041   4
  -3  10   5-207.911 396.322   4
  -3  10   4 920.660 764.436   4
  -3  10   3 484.406 577.472   4
  -3  10   2 874.122 752.619   4
  -3  10   1 504.045 592.326   4
  -3  10   0 285.815 449.248   4
  -3  10  -1-448.902 532.087   4
  -3  10  -2-233.966 387.852   4
  -3   9  10 476.208 549.916   4
  -3   9   9 1350.60 916.744   4
  -3   9   8-452.311 521.103   4
  -3   9   7 1525.27 912.436   4
  -3   9   6-33.5519 242.036   4
  -3   9   5-13.9458 167.734   4
  -3   9   4-182.687 340.466   4
  -3   9   3 1046.12 752.169   4
  -3   9   2 142.023 303.447   4
   3  -9  -1 219.358 327.277   1
  -3   9   1 73.0612 213.898   4
  -3   9   0 343.677 464.045   4
  -3   9  -1 404.263 500.117   4
  -3   9  -2 661.907 627.007   4
   3  -9   3-63.0177 183.241   5
   3  -9   4 13.1956 190.763   5
   3  -9   5 480.113 522.478   5
   3  -9   6 328.048 473.394   5
  -3   8  11 160.649 348.781   4
  -3   8  10-532.086 579.696   4
  -3   8   9 581.735 590.959   4
  -3   8   8 7757.99 1987.38   4
  -3   8   7 5724.44 1677.68   4
  -3   8   6 2050.35 967.625   4
  -3   8   5-520.739 526.046   4
  -3   8   4 193.705 463.942   4
  -3   8   3 496.201 490.630   4
  -3   8   2 665.428 576.726   4
   3  -8  -1 1680.80 765.630   1
  -3   8   1 1674.68 916.606   4
   3  -8   0-468.714 425.085   1
  -3   8   0 2.49836 151.156   4
   3  -8   1 1918.61 812.282   5
  -3   8  -1 2618.77 1147.23   4
   3  -8   2 156.965 273.284   5
   3  -8   3 182.505 147.213   5
   3  -8   4 1336.20 800.916   5
   3  -8   5-305.943 446.172   6
   3  -8   5-895.948 684.503   5
   3  -8   6 386.616 512.319   6
   3  -8   6 712.843 647.309   5
   3  -8   7 21.0477 120.344   5
  -3   7  13 935.097 782.497   4
  -3   7  12 1863.72 1063.17   4
  -3   7  11-25.7946 217.841   4
  -3   7  10-45.8799 232.888   4
  -3   7   9 174.783 326.006   4
  -3   7   8 873.716 714.763   4
  -3   7   7 288.596 194.375   4
  -3   7   6 195.510 352.023   4
  -3   7   5 20585.0 2953.17   4
  -3   7   4 3743.57 1206.79   4
  -3   7   3 3145.75 1157.84   4
  -3   7   2 72.1428 244.052   4
   3  -7  -1 8968.46 1816.83   1
  -3   7   1 10101.9 2049.50   4
   3  -7  -1 10781.0 1555.12   5
   3  -7   0 160.757 263.091   1
  -3   7   0-468.625 458.368   4
   3  -7   0-616.141 410.099   5
  -3   7  -1 3898.41 1261.91   4
   3  -7   1 3908.54 1174.66   1
   3  -7   1 1796.28 736.009   5
   3  -7   2 394.077 360.904   1
   3  -7   2 222.140 347.606   5
   3  -7   3 347.318 383.103   5
   3  -7   4-838.011 597.116   5
   3  -7   5-121.530 302.122   5
   3  -7   6-601.787 613.794   6
   3  -7   6 678.532 588.166   5
   3  -7   7 4193.61 1638.93   6
   3  -7   8 944.101 801.120   6
   3  -6 -15-626.227 577.821   3
   3  -6 -14 2.55916 115.046   3
   3  -6 -13-570.353 527.483   3
  -3   6  13 74.0806 258.698   4
  -3   6  12-397.391 490.038   4
  -3   6  11 855.507 842.619   4
  -3   6  10-1430.62 853.029   4
  -3   6   9 731.390 596.882   4
  -3   6   8-513.086 482.484   4
  -3   6   7 8262.87 1899.94   4
  -3   6   6 7581.82 1764.18   4
  -3   6   5 31542.5 3453.36   4
  -3   6   4 13179.3 2182.59   4
  -3   6   3 3911.21 1189.53   4
  -3   6   2 1244.29 659.424   4
   3  -6  -1 714.273 478.298   1
  -3   6   1 594.463 492.948   4
   3  -6   0 2055.82 885.883   1
  -3   6   0 1864.03 912.381   4
   3  -6   1 4523.75 1231.06   1
  -3   6  -1 5440.89 1406.90   4
   3  -6   1 4504.12 1104.61   5
   3  -6   2 447.794 369.198   1
   3  -6   2 338.421 306.661   5
   3  -6   3 4663.62 1152.13   1
   3  -6   3 4528.03 1233.84   5
   3  -6   4 1277.37 623.071   1
   3  -6   4 2133.19 893.207   5
   3  -6   6 103.947 337.140   6
   3  -6   7 596.685 594.979   6
   3  -6   8 2207.39 1147.93   6
   3  -6   9 439.320 559.531   6
   3  -5 -15 541.403 528.294   3
   3  -5 -14 2.49132 519.112   3
   3  -5 -13 69.9188 193.203   3
  -3   5  13 23.7210 223.279   4
   3  -5 -12 270.849 341.742   3
  -3   5  12-414.647 495.091   4
   3  -5 -11-828.178 589.718   3
  -3   5  11 481.200 520.185   4
   3  -5 -10-239.140 320.183   3
  -3   5  10 748.697 605.901   4
  -3   5   9 390.780 422.979   4
  -3   5   8-309.718 384.946   4
  -3   5   7-150.500 520.644   4
  -3   5   6 484.300 519.743   4
  -3   5   5 2636.19 1003.15   4
  -3   5   4 3512.89 1042.11   4
  -3   5   3 6795.16 1448.86   4
  -3   5   2 1633.00 698.950   4
  -3   5   1-33.4134 133.088   4
   3  -5  -1-40.1341 158.208   1
   3  -5   0 1296.97 644.509   1
  -3   5   0 954.017 496.078   4
  -3   5  -1 2023.39 778.490   4
   3  -5   1 1957.78 800.205   1
   3  -5   2 13824.2 1963.30   1
  -3   5  -2 14550.8 2197.54   4
   3  -5   3 1874.03 678.699   1
   3  -5   4-527.814 413.029   1
   3  -5   5 767.231 804.971   1
   3  -5   5 410.302 554.602   6
   3  -5   6-757.082 618.263   6
   3  -5   7 2965.32 1257.15   6
   3  -5   8 714.100 530.787   6
   3  -5   9 2290.04 1159.80   6
   3  -5  10-706.439 678.876   6
   3  -5  11 730.456 699.171   6
   3  -4 -15 663.643 582.456   3
   3  -4 -14 1158.67 745.980   3
   3  -4 -13-565.087 509.577   3
   3  -4 -12 47.0067 186.310   3
   3  -4 -11 621.695 492.553   3
  -3   4  11 170.742 303.326   4
   3  -4 -10 1905.31 849.996   3
  -3   4  10 1835.61 950.813   4
   3  -4  -9 1891.29 812.143   3
  -3   4   9 1253.94 732.345   4
   3  -4  -8 416.705 365.906   3
  -3   4   8 143.638 258.014   4
  -3   4   7 4915.55 1333.29   4
  -3   4   6 23442.6 2829.69   4
  -3   4   5 29533.1 3060.72   4
  -3   4   4 4895.96 1198.61   4
  -3   4   3 1453.76 273.591   2
  -3   4   3 2121.41 770.475   4
  -3   4   2-108.359 96.4370   5
  -3   4   2 225.631 108.661   4
  -3   4   1 6073.62 877.672   5
   3  -4  -1 5174.16 1249.90   1
  -3   4   1 4363.28 1026.60   4
   3  -4   0 633.093 480.795   1
  -3   4   0-8.27411 168.155   4
   3  -4   1-242.318 276.325   1
  -3   4  -1 266.761 261.655   4
   3  -4   2 4817.53 1147.88   1
  -3   4  -2 5318.83 1196.54   4
   3  -4   3 1762.28 596.872   1
   3  -4   4 4226.43 1127.20   1
   3  -4   5 49586.9 4532.46   1
   3  -4   5 53142.7 4576.34   6
   3  -4   6 25637.1 3816.07   1
   3  -4   6 33468.1 3754.07   6
   3  -4   7 2918.44 1228.35   6
   3  -4   8 70.3754 246.141   6
   3  -4   9 410.897 445.631   6
   3  -4  10 997.072 770.955   6
   3  -4  11 877.645 733.560   6
   3  -4  12 1452.29 957.155   6
   3  -3 -15 2105.02 1001.36   3
   3  -3 -14 634.627 555.521   3
   3  -3 -13-122.261 263.103   3
   3  -3 -12 1079.46 674.017   3
   3  -3 -11 89.6440 212.756   3
   3  -3 -10-275.329 326.649   3
   3  -3  -9 2875.06 1062.03   3
  -3   3   9 2457.82 991.861   4
   3  -3  -8 1771.57 728.799   3
  -3   3   8 222.912 319.116   4
   3  -3  -7 1683.92 687.352   3
  -3   3   7 3211.53 1069.24   4
  -3   3   6 4470.85 1178.30   4
  -3   3   5 1116.47 525.661   4
  -3   3   4 9487.52 1615.99   4
  -3   3   3 8939.31 1484.16   4
  -3   3   2-650.276 392.444   4
   3  -3  -2-451.461 372.152   1
  -3   3   1 12483.6 1163.67   5
  -3   3   1 11534.4 1537.56   4
   3  -3  -1 11055.4 1805.25   1
  -3   3   0 20561.5 1695.76   5
  -3   3   0 24882.0 2190.82   4
   3  -3   0 22973.2 2586.69   1
  -3   3  -1 1332.08 492.211   4
   3  -3   1 826.867 526.638   1
   3  -3   2 705.205 433.085   1
  -3   3  -2 672.453 318.214   4
   3  -3   3 581.208 399.724   1
   3  -3   4 1231.12 617.207   1
   3  -3   5 3305.94 1252.98   1
   3  -3   5 3389.52 1084.60   6
   3  -3   6 322.332 637.309   1
   3  -3   6 823.074 654.033   6
   3  -3   7 619.461 245.075   6
   3  -3   8 1235.10 746.025   6
   3  -3   9 151.835 315.473   6
   3  -3  10 52.7256 295.554   6
   3  -3  11 1347.55 995.259   6
   3  -3  12-1306.37 871.871   6
   3  -3  13 768.960 699.887   6
   3  -2 -14 3123.75 1174.10   3
   3  -2 -13 8352.81 1859.95   3
   3  -2 -12 5529.18 1518.25   3
   3  -2 -11 1786.25 837.103   3
   3  -2 -10 3991.21 1202.99   3
   3  -2  -9 3254.21 1009.31   3
   3  -2  -8 2595.87 919.720   3
   3  -2  -7 486.569 380.818   3
  -3   2   7-280.215 336.603   4
   3  -2  -6 2865.00 928.881   3
  -3   2   6 2012.64 798.921   4
  -3   2   6 2944.23 342.899   5
   3  -2  -5 661.286 420.737   3
  -3   2   5 1163.99 585.412   4
  -3   2   4 2004.12 253.155   5
  -3   2   4 3388.93 956.597   4
  -3   2   3 13253.2 1798.95   4
  -3   2   2 73780.4 3937.92   4
  -3   2   2 74346.7 2215.04   2
   3  -2  -2 74032.8 4634.46   1
  -3   2   2 71535.3 2399.27   5
  -3   2   1 472.577 219.499   5
   3  -2  -1 375.930 333.962   1
  -3   2   1 599.487 345.744   4
  -3   2   0 44322.8 2746.26   4
   3  -2   0 44127.2 3445.02   1
  -3   2   0 44775.3 2453.93   5
   3  -2   1 1175.06 548.169   1
  -3   2  -1 970.713 376.552   4
  -3   2  -2 6759.06 984.239   4
   3  -2   2 6523.09 1298.52   1
   3  -2   3 302.541 289.885   1
  -3   2  -3 659.400 299.436   4
   3  -2   4 6292.07 1461.50   1
   3  -2   4 7345.08 1415.15   6
   3  -2   5 3712.92 1359.48   1
   3  -2   5 2883.89 912.760   6
   3  -2   6 51852.2 5555.01   1
   3  -2   6 49184.4 4051.53   6
   3  -2   7 6739.73 1569.47   6
   3  -2   8-85.8668 333.438   6
   3  -2   9 1093.00 684.602   6
   3  -2  10 4908.31 1480.97   6
   3  -2  11 2967.05 1238.68   6
   3  -2  12-606.165 591.593   6
   3  -2  13 412.223 489.280   6
   3  -1 -14-358.787 156.964   3
   3  -1 -13 6925.08 1713.58   3
   3  -1 -12 1496.29 786.238   3
   3  -1 -11 240.590 324.921   3
   3  -1 -10-1081.22 291.704   3
  -3   1   9 1405.64 486.671   5
   3  -1  -9 1250.88 693.278   3
  -3   1   8 55.3844 102.230   5
   3  -1  -8 40.2124 336.284   3
  -3   1   7 3974.07 699.049   5
   3  -1  -7 3136.55 997.825   3
   3  -1  -7 2938.52 523.237   2
  -3   1   6 29270.2 1746.59   5
   3  -1  -6 26938.6 1408.66   2
  -3   1   5 16943.7 1244.22   5
  -3   1   5 19607.5 2320.31   4
  -3   1   4 4488.82 595.306   5
  -3   1   4 5223.34 1141.33   4
   3  -1  -4 5377.41 1215.32   1
  -3   1   3 21552.8 2183.35   4
   3  -1  -3 25001.3 2604.38   1
  -3   1   2 8796.01 835.196   2
  -3   1   2 10089.3 1399.33   4
   3  -1  -2 10517.3 1686.68   1
  -3   1   1 38136.6 2544.26   4
   3  -1  -1 43780.2 3351.54   1
  -3   1   1 38633.2 2054.90   2
   3  -1   0 32993.8 2871.49   1
  -3   1   0 33237.8 2248.57   4
   3  -1   0 28277.8 1984.04   4
  -3   1  -1 646.560 332.974   4
   3  -1   1-223.864 340.612   1
   3  -1   2-2.44034 312.361   1
  -3   1  -2-375.795 205.450   4
   3  -1   3 2788.70 914.298   1
  -3   1  -3 2301.62 467.499   4
   3  -1   3 2153.61 680.192   6
  -3   1  -4 881.410 277.017   4
   3  -1   4 561.092 490.060   1
   3  -1   4 280.007 184.774   6
   3  -1   5 502.380 476.912   1
   3  -1   5 835.285 532.850   6
   3  -1   6 20165.7 2450.85   6
   3  -1   7 8620.39 1628.88   6
   3  -1   8 2699.53 1041.84   6
   3  -1   9 6322.66 1560.86   6
   3  -1  10 71.9275 246.908   6
   3  -1  11 5234.29 1543.82   6
   3  -1  12 2237.81 964.030   6
   3  -1  13-709.190 636.564   6
   3  -1  14 2200.02 1160.11   6
   3   0 -14-33.3743 119.959   3
   3   0 -13 318.480 371.493   3
   3   0 -12 838.076 533.750   3
  -3   0  11 10050.8 1652.12   5
   3   0 -11 7977.98 1776.52   3
   3   0 -10 41417.6 3961.55   3
  -3   0  10 38904.3 3071.69   5
   3   0  -9 867.096 564.470   3
  -3   0   9 419.433 309.003   5
   3   0  -8 2037.31 836.680   3
  -3   0   8 3101.26 757.571   5
   3   0  -7 182.163 254.630   3
  -3   0   7-40.3938 102.220   5
   3   0  -6 6231.16 1324.49   1
  -3   0   6 8323.08 1109.96   5
   3   0  -6 8600.49 1554.02   3
   3   0  -6 6981.73 947.908   2
  -3   0   5 15446.7 1450.02   5
   3   0  -5 15336.0 1329.36   2
   3   0  -5 16725.5 2126.07   1
   3   0  -4 145.272 124.734   2
  -3   0   4-59.0106 103.409   5
   3   0  -4 116.705 132.807   6
   3   0  -3 8060.66 1474.28   1
   3   0  -3 6424.57 930.472   6
  -3   0   2 4356.85 673.663   2
   3   0  -2 5623.69 1176.64   1
   3   0  -1 3806.65 949.640   1
  -3   0   1 4772.81 763.624   2
   3   0  -1 3997.34 789.511   4
  -3   0   0 4541.77 770.807   4
  -3   0   0 6499.81 943.374   2
   3   0   0 5001.05 800.184   4
   3   0   0 4789.34 1089.88   1
   3   0   1 2429.41 478.524   4
   3   0   1 2700.97 776.842   1
  -3   0  -1 3210.92 566.536   4
  -3   0  -2 336653. 5118.55   4
   3   0   2 319717. 7080.61   6
   3   0   3 33416.3 3432.34   1
  -3   0  -3 36894.8 1449.32   4
   3   0   3 39341.3 2664.16   6
  -3   0  -4 2367.87 306.606   4
   3   0   4 1765.57 931.846   1
   3   0   4 2365.79 706.396   6
  -3   0  -5 8124.43 557.872   4
   3   0   5 6527.87 1977.37   1
   3   0   5 8116.44 1370.96   6
   3   0   6 3116.38 962.888   6
  -3   0  -7 6260.39 800.770   4
   3   0   7 6373.24 1377.40   6
   3   0   8 5964.83 1400.15   6
   3   0   9 7150.36 1585.29   6
   3   0  10 8770.70 1834.46   6
   3   0  11 5754.57 1567.04   6
   3   0  12 1275.30 625.456   6
   3   0  13 283.859 425.461   6
   3   0  14 1136.59 794.232   6
   3   0  15-128.683 313.500   6
   3   1 -14 171.172 258.287   3
   3   1 -13 412.774 404.414   3
  -3  -1  13 230.609 355.935   6
   3   1 -12 423.355 411.855   3
  -3  -1  12 878.663 552.901   5
  -3  -1  12 418.533 426.581   6
   3   1 -11 542.081 468.726   3
  -3  -1  11 833.216 519.615   5
   3   1 -11 970.684 568.173   1
  -3  -1  11 401.911 389.994   6
   3   1 -10 5937.17 1489.97   3
  -3  -1  10 4188.29 1141.94   5
   3   1 -10 6090.98 1408.97   1
  -3  -1  10 6105.52 1416.10   6
   3   1  -9 2792.63 1035.57   3
  -3  -1   9 1879.83 683.539   5
   3   1  -9 2493.69 861.988   1
   3   1  -8 5204.76 1309.90   3
  -3  -1   8 4037.85 955.141   5
   3   1  -8 5958.81 1316.50   1
   3   1  -7 2932.99 921.131   1
   3   1  -7 3696.34 1086.19   3
  -3  -1   7 2575.14 743.046   5
  -3  -1   6 37102.4 2693.10   5
   3   1  -6 37406.6 3248.69   3
   3   1  -6 38908.6 3256.18   1
   3   1  -5 376.953 332.656   1
   3   1  -5 287.915 282.868   3
  -3  -1   5 652.485 359.797   5
   3   1  -5 184.337 158.670   6
  -3  -1   4 8323.52 1161.32   5
   3   1  -4 8753.78 1391.71   3
   3   1  -4 8870.45 996.373   6
   3   1  -4 9873.69 1226.00   2
   3   1  -4 8873.65 1528.64   1
  -3  -1   3 68897.6 3270.45   5
   3   1  -3 65793.2 3112.86   2
   3   1  -3 65895.1 4031.29   1
   3   1  -3 65833.0 2428.63   6
  -3  -1   2 18569.2 1593.34   2
   3   1  -2 18266.2 2079.67   1
   3   1  -2 19779.5 1728.93   2
   3   1  -2 17754.1 1176.44   6
   3   1  -1-235.903 190.711   4
   3   1  -1 30.5737 110.389   1
  -3  -1   1-297.675 209.159   2
   3   1   0 903.366 478.494   1
   3   1   0 1826.96 487.126   4
  -3  -1   0 787.389 350.469   2
  -3  -1  -1 411.311 246.042   2
   3   1   1 44.1030 169.732   1
   3   1   1 456.285 206.620   4
   3   1   1 226.677 150.434   6
   3   1   2 15093.7 2294.02   1
   3   1   2 13047.0 861.893   4
   3   1   2 14680.2 1340.14   6
   3   1   3-6.96026 930.147   1
   3   1   3 640.816 275.933   6
   3   1   4 24080.7 2086.64   6
   3   1   4 19621.3 3377.58   1
   3   1   5 12769.6 1638.76   6
   3   1   6 28707.5 2607.78   6
   3   1   7 4023.25 1031.56   6
  -3  -1  -8 14031.3 914.973   4
   3   1   8 12005.8 1944.55   6
   3   1   9 15004.0 2295.39   6
   3   1  10 22416.6 2888.43   6
   3   1  11-64.7351 213.992   6
   3   1  12 4676.89 1462.52   6
   3   1  13 387.774 462.679   6
   3   1  14-807.060 679.945   6
   3   1  15-1344.41 892.088   6
   3   2 -13-7.92947 73.9527   3
  -3  -2  13 118.365 258.630   5
   3   2 -12 514.464 449.281   3
  -3  -2  12-25.6762 173.515   5
   3   2 -11 285.925 334.265   3
  -3  -2  11 578.541 465.691   5
  -3  -2  11 959.528 563.934   6
   3   2 -10-4.73580 56.4149   1
   3   2 -10-9.72453 109.899   3
   3   2  -9 629.073 434.253   1
   3   2  -9-1.87973 137.757   3
  -3  -2   9 27.6147 266.215   5
  -3  -2   9 204.395 252.431   6
   3   2  -8-182.247 266.361   3
  -3  -2   8 92.2415 182.013   5
  -3  -2   8 279.251 269.573   6
   3   2  -8-114.121 207.533   1
   3   2  -7 27183.0 2998.04   3
  -3  -2   7 27499.8 2668.71   5
   3   2  -7 23645.2 2527.17   1
  -3  -2   7 29568.8 2371.96   6
   3   2  -6 1568.23 695.749   3
  -3  -2   6 879.904 474.732   5
   3   2  -6 1216.05 575.925   1
   3   2  -5 18035.1 2152.27   3
  -3  -2   5 16110.3 1861.20   5
   3   2  -5 16405.4 2000.95   1
   3   2  -5 16432.0 1417.23   6
   3   2  -4 9984.84 1537.04   3
  -3  -2   4 11458.2 1503.47   5
   3   2  -4 12603.7 1726.07   1
   3   2  -4 11455.7 1008.39   6
  -3  -2   3 368.838 196.522   5
   3   2  -3 920.814 461.067   1
   3   2  -3 880.160 227.812   6
  -3  -2   2 13266.1 1471.50   2
   3   2  -2 14975.2 1879.40   1
   3   2  -1 887.925 446.412   1
  -3  -2   1 1632.98 520.262   2
   3   2   0 50.2157 84.8154   4
  -3  -2   0-63.6132 120.339   2
   3   2   1-71.3961 91.6270   4
   3   2   1 123.656 85.5250   6
  -3  -2  -1 76.6920 140.877   2
   3   2   2 26743.3 3596.22   1
   3   2   2 27594.4 1451.69   4
  -3  -2  -2 28087.1 2444.86   2
   3   2   2 28913.3 1613.58   6
   3   2   3 19843.5 3359.85   1
   3   2   3 18584.7 838.059   4
  -3  -2  -3 21552.1 2255.66   2
   3   2   3 21429.1 1607.24   6
   3   2   4 37353.7 2384.51   6
  -3  -2  -4 32570.2 2218.76   6
   3   2   5 32994.5 2486.65   6
   3   2   6 65.9702 165.725   6
   3   2   7 17374.1 2124.80   6
   3   2   8 1199.38 581.340   6
   3   2   9-29.2461 286.468   6
   3   2  10-409.653 408.574   6
   3   2  11 462.598 219.068   6
   3   2  12 6389.35 1696.65   6
   3   2  13 696.903 580.379   6
   3   2  14 692.456 602.047   6
   3   2  15 2659.52 1239.09   6
   3   3 -13 286.373 337.928   3
  -3  -3  13 2173.34 956.127   5
   3   3 -12 587.885 489.521   3
  -3  -3  12-228.464 343.394   5
   3   3 -11 773.376 491.487   3
  -3  -3  11 822.111 579.734   5
   3   3 -10 237.293 307.773   3
  -3  -3  10 59.7239 168.803   5
   3   3  -9 427.394 420.839   3
  -3  -3   9 1515.03 740.371   5
  -3  -3   9 486.934 370.330   6
   3   3  -9 1329.59 574.773   1
   3   3  -8 717.020 491.878   3
  -3  -3   8-90.0247 222.980   5
  -3  -3   8 790.975 418.156   6
   3   3  -8 220.777 242.502   1
  -3  -3   7 195.986 275.210   5
  -3  -3   7 53.8246 175.982   6
   3   3  -7-114.440 186.307   1
   3   3  -6 3909.24 1092.42   3
  -3  -3   6 4285.38 1100.96   5
  -3  -3   6 3617.02 756.969   6
   3   3  -6 3967.27 954.117   1
   3   3  -5 7713.70 1444.40   3
  -3  -3   5 6135.78 1266.90   5
   3   3  -5 8014.94 1359.45   1
  -3  -3   5 9228.71 1035.23   6
   3   3  -4 2186.05 735.177   3
  -3  -3   4 1707.16 618.207   5
   3   3  -4 2418.20 743.360   1
  -3  -3   3 12916.5 1690.66   5
   3   3  -3 14252.6 1875.25   1
   3   3  -2 152.117 115.503   1
  -3  -3   2 511.411 288.733   5
   3   3  -1 2987.60 730.078   3
  -3  -3   1 2287.17 678.348   2
   3   3  -1 2535.06 982.507   1
  -3  -3   0 12298.0 1607.75   2
   3   3   0 14739.8 2540.39   1
   3   3   1 303.319 321.879   1
  -3  -3  -1 485.092 328.795   2
   3   3   2 971.223 749.452   1
   3   3   2 2293.10 387.856   6
  -3  -3  -2 1810.82 644.767   2
  -3  -3  -3 2446.93 764.812   2
   3   3   3 2453.67 508.378   6
  -3  -3  -3 2250.97 484.466   6
  -3  -3  -4 2137.34 699.504   2
   3   3   4 3193.92 655.930   6
  -3  -3  -4 1924.67 517.928   6
  -3  -3  -5 841.425 443.189   2
   3   3   5 1359.45 478.468   6
   3   3   6 24362.5 2244.20   6
   3   3   7 5409.08 1124.08   6
   3   3   8 2799.90 883.000   6
   3   3   9 13640.2 2078.06   6
   3   3  10 15157.5 2322.84   6
   3   3  11 1624.17 803.308   6
   3   3  12 8859.26 1965.07   6
   3   3  13 584.125 549.752   6
   3   3  14 550.995 556.330   6
   3   3  15 750.424 660.857   6
   3   3  16-237.218 399.628   6
  -3  -4  13 103.660 246.728   5
   3   4 -12-23.0343 113.213   3
  -3  -4  12 42.9717 219.957   5
   3   4 -11 655.660 525.557   3
  -3  -4  11-80.1958 311.864   5
   3   4 -10 468.768 448.136   3
  -3  -4  10 472.546 467.647   5
   3   4  -9 520.294 451.894   3
  -3  -4   9 185.824 305.678   5
   3   4  -8 1638.56 780.749   3
  -3  -4   8 959.968 686.509   5
   3   4  -7 5077.32 1335.78   3
   3   4  -7 5800.04 1191.03   1
  -3  -4   7 7890.49 1654.32   5
  -3  -4   7 6219.13 1117.44   6
   3   4  -6 45294.1 3780.47   3
  -3  -4   6 39829.1 3613.42   5
   3   4  -6 41879.3 3306.52   1
  -3  -4   6 43441.5 2696.95   6
   3   4  -5-89.1180 164.383   1
   3   4  -5 533.081 339.007   3
  -3  -4   5 169.730 185.520   5
  -3  -4   5 296.566 198.035   6
   3   4  -4-15.5492 107.246   3
  -3  -4   4-300.925 299.166   5
  -3  -4   4 7.98203 39.2596   6
   3   4  -4 227.081 290.861   1
  -3  -4   3 216.711 248.678   5
  -3  -4   3-36.4626 46.4023   6
   3   4  -3 203.181 204.487   1
  -3  -4   2 104.594 254.976   5
   3   4  -2-333.535 410.431   1
   3   4  -1-14.1860 73.0258   3
  -3  -4   1 203.850 155.990   2
   3   4   0 12094.5 2598.50   1
  -3  -4   0 13895.2 1814.19   2
  -3  -4  -1 4979.70 803.082   3
  -3  -4  -1 5591.62 1181.98   2
  -3  -4  -2-217.300 164.356   3
  -3  -4  -2-61.6464 64.3093   6
  -3  -4  -3 4853.14 747.712   3
  -3  -4  -3 5378.81 748.818   6
  -3  -4  -3 5624.24 1228.88   2
   3   4   4 13856.6 1373.26   6
  -3  -4  -4 12946.3 1898.45   2
  -3  -4  -4 10657.8 1227.31   6
  -3  -4  -5 31267.0 3040.44   2
   3   4   5 31833.9 1688.77   4
   3   4   5 30655.8 2305.07   6
  -3  -4  -6 96.0013 215.109   2
   3   4   6 242.838 229.727   6
   3   4   6-30.3000 52.6441   4
  -3  -4  -7 11519.4 1994.82   2
   3   4   7 11057.9 952.930   4
   3   4   7 8940.07 1468.46   6
   3   4   8 5709.55 714.691   4
   3   4   8 5298.83 1184.02   6
   3   4   9 249.451 286.012   6
   3   4  10 860.631 533.081   6
   3   4  11 1798.30 878.447   6
   3   4  12 135.821 279.908   6
   3   4  13-345.365 416.825   6
   3   4  14 222.280 355.667   6
   3   4  15-25.7316 233.525   6
   3   4  16 257.576 405.625   6
   3   5 -12-26.9639 132.194   3
  -3  -5  12 87.9997 260.757   5
   3   5 -11 357.733 405.722   3
  -3  -5  11 986.847 718.797   5
  -3  -5  10 506.961 507.140   5
   3   5 -10 147.030 252.673   3
   3   5  -9 494.130 457.327   3
  -3  -5   9 264.282 356.858   5
   3   5  -8 914.417 605.190   3
  -3  -5   8 67.6127 219.715   5
   3   5  -7-97.3705 214.013   3
  -3  -5   7 889.490 602.979   5
   3   5  -6 6304.72 1449.00   3
  -3  -5   6 4084.11 1225.41   5
   3   5  -6 4436.88 1479.30   1
   3   5  -5 497.644 384.339   3
  -3  -5   5 550.594 397.928   5
  -3  -5   5-140.942 149.519   6
   3   5  -5-263.378 380.384   1
   3   5  -4 5646.19 1199.28   3
   3   5  -4 3564.58 1329.11   1
  -3  -5   4 4998.41 1258.09   5
  -3  -5   4 4290.05 706.829   6
   3   5  -3 416.530 468.578   1
  -3  -5   3 275.151 291.962   5
  -3  -5   3 646.987 231.921   6
  -3  -5   2 3960.69 1038.97   5
  -3  -5   2 4105.45 465.455   6
   3   5  -1 22598.9 1924.49   3
  -3  -5   1 20471.9 2354.81   5
  -3  -5   0 3504.62 339.941   6
  -3  -5   0 3199.73 332.782   6
  -3  -5  -1 5199.43 1170.13   2
  -3  -5  -1 5480.39 562.891   6
  -3  -5  -2 6484.47 753.938   6
  -3  -5  -2 6958.10 1408.45   2
  -3  -5  -3-21.9205 99.0285   3
  -3  -5  -3 244.346 289.052   2
  -3  -5  -3 218.192 160.704   6
  -3  -5  -4 66.9861 88.7132   3
  -3  -5  -4-97.6049 120.586   6
  -3  -5  -4 220.950 175.133   2
  -3  -5  -5 136.379 383.630   2
  -3  -5  -6 1840.30 784.422   2
   3   5   6 1953.32 627.649   6
   3   5   6 2227.59 546.345   4
  -3  -5  -7-399.174 396.213   2
   3   5   7-47.2550 129.247   6
   3   5   7-281.274 189.898   4
  -3  -5  -8 6636.38 1567.07   2
   3   5   8 6246.91 897.230   4
   3   5   8 3940.11 1044.10   6
  -3  -5  -9 1351.60 745.410   2
   3   5   9 2007.67 531.666   4
   3   5   9 1331.39 640.801   6
  -3  -5 -10 3791.96 1286.05   2
   3   5  10 2966.13 1005.15   6
   3   5  11 9.69390 155.217   6
   3   5  12 607.553 520.694   6
   3   5  13-115.949 273.220   6
   3   5  14 1111.70 761.701   6
   3   5  15-465.763 515.470   6
   3   5  16-448.553 551.394   6
  -3  -6  11 6262.08 1913.01   5
   3   6 -11 3615.17 1304.63   3
  -3  -6  10 1432.07 920.277   5
   3   6 -10-724.547 572.976   3
  -3  -6   9 629.651 574.405   5
   3   6  -9-699.116 557.746   3
  -3  -6   8 766.245 577.442   5
   3   6  -8 1157.92 690.543   3
   3   6  -7-27.0118 140.755   3
  -3  -6   7 204.291 327.343   5
   3   6  -6 3513.77 1063.15   3
  -3  -6   6 5316.06 1476.31   5
   3   6  -5 4844.67 1217.73   3
  -3  -6   5 3497.68 1151.03   5
   3   6  -4 21387.4 2363.30   3
  -3  -6   4 20736.9 2731.26   5
   3   6  -3 1050.31 509.076   3
  -3  -6   3 478.078 385.056   5
  -3  -6   2 8759.04 1662.96   5
  -3  -6   2 7980.80 874.057   6
   3   6  -1 110.549 125.817   3
  -3  -6   1-16.8408 192.562   5
  -3  -6   1 199.454 136.273   6
   3   6   0 11701.7 1293.93   3
  -3  -6   0 13124.5 2006.44   5
  -3  -6  -1 10600.2 1786.04   2
  -3  -6  -1 8253.06 836.474   6
  -3  -6  -2 3166.20 1000.60   2
  -3  -6  -2 2011.50 450.815   6
  -3  -6  -3 4479.28 1243.15   2
  -3  -6  -3 2265.40 535.879   6
  -3  -6  -4 2823.45 945.184   2
  -3  -6  -5 14520.0 955.532   3
  -3  -6  -5 13508.7 2158.30   2
  -3  -6  -6 5050.05 609.214   3
  -3  -6  -6 5844.60 1465.06   2
   3   6   6 5616.55 1014.53   4
   3   6   7 121.554 147.562   4
  -3  -6  -7 276.533 337.257   2
  -3  -6  -8 563.099 456.308   2
   3   6   8 776.793 366.451   4
  -3  -6  -9 2644.65 1047.20   2
   3   6   9 2187.31 619.457   4
  -3  -6 -10 1297.64 699.098   2
   3   6  10 931.349 584.098   6
  -3  -6 -11 2617.54 1003.57   2
   3   6  11 2106.74 910.874   6
  -3  -6 -12 3320.41 1415.91   2
   3   6  12 2135.46 998.332   6
  -3  -6 -13-410.635 489.716   2
   3   6  13-172.932 305.120   6
  -3  -6 -14-436.028 542.676   2
   3   6  14 486.617 513.174   6
  -3  -6 -15-36.6383 214.892   2
   3   6  15-623.048 600.401   6
  -3  -6 -16 712.112 720.726   2
   3   6  16-168.674 336.729   6
   3   7 -10-810.084 634.137   3
  -3  -7   9 381.184 489.264   5
   3   7  -9-71.4533 228.964   3
  -3  -7   8 3629.89 1394.41   5
   3   7  -8 2419.82 1008.38   3
   3   7  -7-484.510 441.985   3
  -3  -7   7-692.217 598.587   5
   3   7  -6-720.312 510.561   3
  -3  -7   6 972.363 681.887   5
   3   7  -5 41.0874 155.017   3
  -3  -7   5 433.570 458.585   5
   3   7  -4 4744.66 1115.35   3
  -3  -7   4 6431.84 1606.42   5
   3   7  -3 152.057 193.565   3
  -3  -7   3 16.9974 148.623   5
  -3  -7   2-752.611 533.136   5
   3   7  -1 3643.62 786.098   3
  -3  -7   1 1532.24 736.908   5
   3   7   0 494.258 252.162   3
  -3  -7   0 474.085 418.341   5
  -3  -7  -1 358.552 358.846   5
  -3  -7  -2 4749.81 1251.72   2
  -3  -7  -3 16004.2 2393.26   2
  -3  -7  -4 22029.2 2868.70   2
  -3  -7  -5 97.6465 322.738   2
  -3  -7  -6 81.5385 227.718   2
  -3  -7  -7 1772.56 849.078   2
   3   7   7 1117.59 498.769   4
   3   7   8 2191.51 679.954   4
  -3  -7  -8 1341.65 751.814   2
   3   7   9 992.182 476.376   4
  -3  -7  -9 761.276 410.412   2
  -3  -7 -10 195.814 328.245   2
  -3  -7 -11 2754.88 1157.68   2
  -3  -7 -12-799.485 656.824   2
  -3  -7 -13 225.554 376.278   2
  -3  -7 -14 254.508 397.975   2
  -3  -7 -15-323.998 469.346   2
  -3  -8   8 1277.27 872.050   5
  -3  -8   7-461.589 508.335   5
  -3  -8   6 5.25417 154.558   5
  -3  -8   5 338.542 432.101   5
  -3  -8   4 121.459 269.722   5
  -3  -8   3 1244.90 750.242   5
  -3  -8   2 2009.81 857.044   5
  -3  -8   1-216.701 326.339   5
  -3  -8   0 9221.99 1886.70   5
  -3  -8  -1 21062.9 2776.32   5
  -3  -8  -2 3152.53 1114.39   5
  -3  -8  -3 1466.44 644.886   2
  -3  -8  -4 29627.5 3467.57   2
  -3  -8  -5-78.3048 665.134   2
  -3  -8  -6 3559.14 1243.19   2
  -3  -8  -7-735.555 591.291   2
   3   8   7 606.891 353.821   4
   3   8   8 582.959 391.704   4
  -3  -8  -8 9.03371 147.049   2
   3   8   9 2810.20 879.136   4
  -3  -8  -9 1948.66 960.624   2
  -3  -8 -10 524.853 482.893   2
  -3  -8 -11 2170.02 1052.47   2
  -3  -8 -12-926.865 696.193   2
  -3  -8 -13 309.313 431.447   2
  -3  -8 -14-41.8200 363.730   2
  -3  -8 -15-650.558 634.818   2
  -3  -9   6 1958.88 1116.65   5
  -3  -9   5 2494.12 1376.58   5
  -3  -9   4 873.311 725.788   5
  -3  -9   3 1992.00 1038.96   5
  -3  -9   2 1562.66 821.799   5
  -3  -9   1 1071.88 695.011   5
  -3  -9   0-114.783 272.548   5
  -3  -9  -1 91.8422 260.611   5
  -3  -9  -2 290.499 310.423   5
  -3  -9  -3 192.538 317.137   5
  -3  -9  -4 3936.54 1298.56   2
  -3  -9  -5 1486.35 855.377   2
  -3  -9  -6 9621.34 2089.47   2
  -3  -9  -7 3354.19 1198.25   2
   3   9   7 5459.77 1347.75   4
  -3  -9  -8 342.535 421.319   2
   3   9   8-491.632 404.951   4
  -3  -9  -9 4303.41 1465.23   2
   3   9   9 2962.42 998.607   4
  -3  -9 -10 746.025 629.704   2
  -3  -9 -11 160.111 327.047   2
  -3  -9 -12 517.691 542.331   2
  -3  -9 -13 482.315 529.625   2
  -3  -9 -14-109.545 264.837   2
  -3 -10   4 651.179 624.576   5
  -3 -10   3 361.826 466.515   5
  -3 -10   2 36.8451 159.873   5
  -3 -10   1 848.310 689.876   5
  -3 -10   0 816.400 642.595   5
  -3 -10  -1 3291.46 1271.41   5
  -3 -10  -2 6857.91 1774.60   5
  -3 -10  -3 668.942 568.154   5
  -3 -10  -4 1909.98 936.597   5
  -3 -10  -5 807.015 642.744   2
  -3 -10  -6-674.869 584.216   2
  -3 -10  -7 1409.82 848.504   2
   3  10   7 2926.63 1104.86   4
  -3 -10  -8 73.9345 248.589   2
   3  10   8 904.522 544.089   4
  -3 -10  -9 3267.81 1286.42   2
  -3 -10 -10 487.000 548.228   2
  -3 -10 -11 3311.71 1385.48   2
  -3 -10 -12-747.751 675.921   2
  -3 -10 -13 866.271 736.450   2
  -3 -11   1 2582.90 1158.34   5
  -3 -11   0 559.423 569.686   5
  -3 -11  -1 1584.86 925.968   5
  -3 -11  -2-221.300 360.541   5
  -3 -11  -3-575.736 565.960   5
  -3 -11  -4-305.676 430.761   5
  -3 -11  -5 712.627 609.639   5
  -3 -11  -6 652.276 602.612   5
  -3 -11  -7-33.4656 226.145   2
   3  11   7 2025.84 1075.29   4
  -3 -11  -8-1159.65 824.842   2
   3  11   8-34.7859 437.199   4
  -3 -11  -9 665.519 641.285   2
  -3 -11 -10 4082.00 1572.82   2
  -3 -11 -11 786.900 693.023   2
  -3 -12  -3 652.199 630.494   5
  -3 -12  -4 709.895 647.907   5
  -3 -12  -5 786.317 682.899   5
  -3 -12  -6-14.3011 128.678   5
  -3 -12  -7 807.764 694.755   5
   3  12   7 65.3315 238.364   4
  -3 -12  -8 202.472 360.031   5
   3  12   8 706.329 609.649   4
   4 -10  -5 1879.16 1058.21   1
   4 -10  -4-81.9594 317.462   1
  -4   9   6 154.567 367.778   4
  -4   9   5 699.586 667.892   4
   4  -9  -4 42.0629 226.141   1
  -4   9   4 1678.04 1026.30   4
   4  -9  -3-254.990 410.577   1
  -4   9   3 958.310 792.143   4
   4  -9  -2 200.496 368.152   1
  -4   9   2 1130.57 840.723   4
  -4   9   1 1564.32 1017.55   4
  -4   9   0-774.691 712.476   4
  -4   9  -1 401.240 513.404   4
  -4   9  -2-350.492 475.568   4
  -4   9  -3-497.089 561.524   4
  -4   8   9-148.622 331.685   4
  -4   8   8 2356.93 1254.20   4
  -4   8   7 2581.18 1220.00   4
  -4   8   6 829.741 705.342   4
  -4   8   5 800.263 665.765   4
   4  -8  -4 2628.05 1157.70   1
  -4   8   4 2068.32 1066.63   4
   4  -8  -3-1323.70 836.474   1
  -4   8   3 381.975 468.744   4
   4  -8  -2-209.834 338.504   1
  -4   8   2 144.937 289.289   4
   4  -8  -1 332.239 432.288   1
  -4   8   1-252.752 376.040   4
   4  -8   0 950.484 684.173   1
  -4   8   0 1475.75 910.151   4
  -4   8  -1 1354.72 869.858   4
  -4   8  -2-579.218 582.177   4
  -4   8  -3-272.764 442.080   4
  -4   8  -4 665.312 629.306   4
  -4   7  10-586.581 603.323   4
  -4   7   9-1154.02 836.913   4
  -4   7   8 978.741 734.522   4
  -4   7   7 468.594 490.968   4
  -4   7   6 687.825 594.435   4
  -4   7   5-122.941 273.744   4
   4  -7  -4 946.699 652.468   1
  -4   7   4 789.509 632.532   4
  -4   7   3 440.011 456.455   4
   4  -7  -3-538.892 546.805   1
   4  -7  -2 592.452 548.461   1
  -4   7   2-154.632 300.357   4
   4  -7  -1 172.944 319.290   1
  -4   7   1 260.900 296.274   4
   4  -7   0 1609.47 853.584   1
  -4   7   0 1711.20 915.852   4
   4  -7   1 884.674 621.538   1
  -4   7  -1 1341.90 735.265   4
   4  -7   2 126.392 261.356   1
  -4   7  -2 63.9051 192.954   4
  -4   7  -3 239.632 374.044   4
  -4   7  -4-266.540 387.192   4
   4  -7   5 253.918 416.592   6
   4  -7   6-666.449 695.739   6
  -4   6  11 936.259 759.075   4
  -4   6  10-260.067 419.804   4
  -4   6   9 26.9778 190.409   4
  -4   6   8-1665.30 925.477   4
  -4   6   7-9.61634 151.079   4
  -4   6   6 501.659 484.886   4
  -4   6   5 611.852 529.440   4
  -4   6   4 631.928 518.313   4
   4  -6  -4-188.311 322.012   1
  -4   6   3 108.430 254.317   4
   4  -6  -3 21.2330 175.004   1
  -4   6   2 46.2068 180.132   4
   4  -6  -2 121.445 283.643   1
   4  -6  -1-140.491 316.908   1
  -4   6   1-46.0764 161.535   4
   4  -6   0 5354.13 1542.61   1
  -4   6   0 4668.17 1372.63   4
   4  -6   1 3253.17 1154.63   1
  -4   6  -1 3629.59 1266.72   4
  -4   6  -2-117.387 265.411   4
   4  -6   2 243.743 321.629   1
   4  -6   3 1410.67 737.083   1
  -4   6  -3 209.136 327.152   4
  -4   6  -4-425.631 454.114   4
   4  -6   5 570.518 589.009   6
  -4   6  -5 41.6532 194.313   4
   4  -6   6 549.319 594.596   6
   4  -6   7-874.514 754.073   6
  -4   5  12 1424.32 951.157   4
  -4   5  11 1617.69 1056.55   4
  -4   5  10-106.870 266.248   4
  -4   5   9 1895.87 984.096   4
  -4   5   8-955.371 725.799   4
  -4   5   7 418.014 397.142   4
  -4   5   6 931.324 635.096   4
  -4   5   5 415.086 419.432   4
  -4   5   4 775.110 539.874   4
   4  -5  -4 1011.98 579.795   1
   4  -5  -3 2334.72 1037.59   1
  -4   5   3 2084.76 877.545   4
   4  -5  -2 221.840 302.690   1
  -4   5   2-24.0436 393.588   4
   4  -5  -1 2128.70 960.733   1
  -4   5   1 2571.70 922.539   4
   4  -5   0 6524.33 1682.52   1
  -4   5   0 7288.62 1533.53   4
   4  -5   1 1625.82 878.467   1
  -4   5  -1 2278.07 851.156   4
   4  -5   2 1320.05 637.526   1
  -4   5  -2 2102.32 910.151   4
   4  -5   3-681.507 529.477   1
  -4   5  -3 18.8808 127.069   4
   4  -5   4 1079.18 685.122   1
  -4   5  -4 1053.88 612.415   4
  -4   5  -5 59.3285 200.252   4
   4  -5   5 324.168 305.986   6
   4  -5   5-14.6120 211.556   1
   4  -5   6 459.277 523.591   6
   4  -5   7 326.267 467.422   6
   4  -5   8 622.079 615.233   6
   4  -5   9 2187.90 1190.16   6
   4  -4 -13 1132.35 770.929   3
   4  -4 -12 107.087 248.944   3
   4  -4 -11 453.378 460.619   3
  -4   4  10 1089.98 755.548   4
  -4   4   9 563.896 510.422   4
  -4   4   8 974.095 670.428   4
  -4   4   7 10900.8 2149.44   4
  -4   4   6 11126.2 2108.99   4
  -4   4   5 6443.13 1530.72   4
   4  -4  -4 1024.06 665.122   1
  -4   4   4 36.3303 209.337   4
   4  -4  -3 1247.53 751.627   1
  -4   4   3 715.425 489.016   4
  -4   4   2 12777.3 1962.09   4
   4  -4  -2 15793.0 2645.93   1
  -4   4   1 204.188 116.009   4
   4  -4  -1-2.07603 411.577   1
   4  -4   0 431.623 543.048   1
  -4   4   0 334.088 314.461   4
   4  -4   1 3205.11 1094.90   1
  -4   4  -1 1885.47 715.334   4
   4  -4   2 3491.01 1110.63   1
  -4   4  -2 3575.14 947.247   4
   4  -4   3-143.472 486.979   1
  -4   4  -3 96.7133 195.691   4
   4  -4   4 382.801 434.838   1
  -4   4  -4 748.782 460.724   4
  -4   4  -5 16987.2 2261.38   4
   4  -4   5 12594.1 2381.06   6
   4  -4   5 12460.6 2739.56   1
   4  -4   6 1741.22 1182.03   1
   4  -4   6 2497.42 1085.18   6
   4  -4   7 2144.96 1313.94   1
   4  -4   7 535.234 550.120   6
   4  -4   8 1039.16 770.099   6
   4  -4   9 2.95125 292.716   6
   4  -4  10 241.662 423.237   6
   4  -3 -13 407.850 468.924   3
   4  -3 -12 698.175 593.570   3
   4  -3 -11-586.242 531.030   3
   4  -3 -10 283.186 371.090   3
   4  -3  -9 1894.65 887.654   3
  -4   3   8 464.894 444.018   4
  -4   3   7 14513.1 2433.68   4
  -4   3   6 1625.07 802.799   4
   4  -3  -5 1104.82 878.684   1
  -4   3   5 191.874 235.269   4
   4  -3  -4 320.165 326.273   1
  -4   3   4 300.153 322.026   4
  -4   3   3 4266.65 1115.64   4
   4  -3  -3 4917.41 1458.71   1
  -4   3   2 84.2730 94.4363   2
  -4   3   2-217.434 254.936   4
  -4   3   1 1105.72 532.327   4
   4  -3  -1 413.430 429.260   1
   4  -3   0 4460.70 1278.26   1
  -4   3   0 6298.96 1238.10   4
  -4   3  -1-24.1754 101.017   4
   4  -3   1-117.727 225.196   1
   4  -3   2-559.765 454.999   1
  -4   3  -2-244.909 231.113   4
   4  -3   3 3444.74 1033.23   1
  -4   3  -3 2439.94 697.086   4
   4  -3   4 440.327 596.122   1
  -4   3  -4 762.759 374.682   4
   4  -3   4-777.578 544.962   6
  -4   3  -5 27288.7 2459.80   4
   4  -3   5 31973.0 3567.65   6
   4  -3   5 23379.7 3773.42   1
   4  -3   6 192.891 429.397   1
   4  -3   6 263.912 397.170   6
   4  -3   7 1494.64 1065.18   1
   4  -3   7 891.007 668.661   6
   4  -3   8 564.609 548.856   6
   4  -3   9 1051.79 752.922   6
   4  -3  10-882.069 716.011   6
   4  -3  11 812.092 709.382   6
   4  -2 -13 1628.20 926.752   3
   4  -2 -12 4329.96 1517.49   3
   4  -2 -11 2159.84 998.230   3
   4  -2 -10 273.804 318.122   3
   4  -2  -9-176.006 281.720   3
   4  -2  -8-69.5769 182.893   3
   4  -2  -7-131.007 255.660   1
  -4   2   6 17550.5 2561.88   4
   4  -2  -6 15377.4 2529.03   1
  -4   2   5 29003.3 3155.67   4
   4  -2  -5 28405.5 3440.41   1
  -4   2   4 4360.02 551.646   5
  -4   2   4 5372.75 1300.78   4
   4  -2  -4 3979.76 1283.30   1
   4  -2  -3 6348.03 1552.75   1
  -4   2   3 4026.89 465.960   2
  -4   2   3 4952.14 1211.86   4
  -4   2   2 448.843 354.038   4
   4  -2  -2 881.755 580.568   1
  -4   2   2 619.208 243.723   2
  -4   2   1 4907.40 832.147   2
   4  -2  -1 4401.47 1231.05   1
  -4   2   1 5225.86 1120.79   4
   4  -2   0 22944.2 2821.30   1
  -4   2   0 24260.6 2277.66   4
  -4   2  -1 2585.72 709.345   4
   4  -2   1 2014.43 806.328   1
   4  -2   2 5635.85 1284.35   1
  -4   2  -2 4303.99 874.481   4
   4  -2   3 1064.93 717.961   1
  -4   2  -3 2461.37 613.168   4
   4  -2   4 144.602 550.324   1
  -4   2  -4 71.4963 114.687   4
   4  -2   4-135.013 248.353   6
  -4   2  -5 9602.59 1159.66   4
   4  -2   5 13113.0 2148.05   6
   4  -2   5 7694.36 2221.97   1
   4  -2   6 18407.4 2655.58   6
   4  -2   6 14765.8 3414.67   1
   4  -2   7 21620.4 2993.59   6
   4  -2   8 5329.86 1542.29   6
   4  -2   9 510.153 615.181   6
   4  -2  10-1000.29 721.195   6
   4  -2  11 267.738 429.186   6
   4  -2  12-303.141 453.372   6
   4  -1 -14-525.851 532.548   1
   4  -1 -13 46.7977 225.716   3
   4  -1 -13-312.024 419.008   1
   4  -1 -12 2038.39 1000.85   3
   4  -1 -12-444.944 477.803   1
   4  -1 -11-40.7295 184.532   3
   4  -1 -11 210.222 331.986   1
   4  -1 -10-147.863 273.846   3
   4  -1 -10-343.238 426.248   1
   4  -1  -9-238.372 335.686   3
   4  -1  -9 8.57640 147.151   1
   4  -1  -8 520.880 466.131   1
   4  -1  -8-43.0349 180.571   3
   4  -1  -7 6246.66 1492.14   3
   4  -1  -7 6126.73 1592.78   1
   4  -1  -6-244.976 347.094   1
  -4   1   6 208.391 160.800   5
   4  -1  -6-72.3352 136.175   3
  -4   1   5 10107.6 1068.95   5
   4  -1  -5 12775.2 2249.08   1
   4  -1  -4-270.346 350.222   1
  -4   1   4-63.9269 104.531   5
  -4   1   3 28695.2 2805.68   4
   4  -1  -3 28033.0 3248.02   1
  -4   1   2 7979.99 959.281   2
   4  -1  -2 8198.05 1666.55   1
  -4   1   2 7798.68 1382.63   4
   4  -1  -1 1556.69 744.169   1
  -4   1   1 1154.63 515.824   4
  -4   1   1 908.548 374.571   2
  -4   1   0 8746.93 1305.53   4
  -4   1   0 9048.61 1256.88   2
   4  -1   0 8024.90 1589.27   1
   4  -1   1-737.630 508.963   1
  -4   1  -1 15.2423 70.8283   4
   4  -1   2 7948.59 1675.42   1
  -4   1  -2 8493.33 1134.04   4
   4  -1   3 158.460 298.215   1
  -4   1  -3 1061.62 371.510   4
   4  -1   3 461.671 259.954   6
  -4   1  -4 7277.05 872.773   4
   4  -1   4 8215.81 1520.77   6
   4  -1   4 11125.2 2558.32   1
  -4   1  -5 27907.5 1619.09   4
   4  -1   5 22458.2 2673.02   6
   4  -1   5 25296.4 4263.07   1
   4  -1   6 2567.19 1167.32   1
   4  -1   6 3003.61 1041.65   6
   4  -1   7 16419.6 2488.20   6
   4  -1   8 6119.75 1557.79   6
   4  -1   9 5033.30 1464.20   6
   4  -1  10 1327.79 792.811   6
   4  -1  11 137.541 310.412   6
   4  -1  12-448.193 510.516   6
   4  -1  13 456.820 525.117   6
   4   0 -13 2110.28 1028.75   3
   4   0 -12 975.016 682.579   1
   4   0 -12 153.747 293.418   3
   4   0 -11-197.054 314.736   3
   4   0 -11 1311.25 767.881   1
   4   0 -10 2647.74 1068.51   1
   4   0 -10 2252.68 962.610   3
   4   0  -9 8513.40 1841.69   3
   4   0  -9 8684.65 1916.15   1
   4   0  -8-648.335 514.538   3
   4   0  -8-447.276 439.314   1
  -4   0   7 2629.83 676.005   5
   4   0  -7 576.677 397.989   3
   4   0  -7 1643.07 893.997   1
   4   0  -6 2955.99 1094.66   1
  -4   0   6 1894.09 573.245   5
   4   0  -6 2534.88 935.737   3
  -4   0   5-299.138 226.251   5
   4   0  -5-442.292 387.705   3
   4   0  -5 180.977 285.740   1
  -4   0   4 4888.32 896.243   5
   4   0  -4 6267.47 1578.79   1
   4   0  -3 8139.15 1679.10   1
  -4   0   2 15461.8 1500.61   2
   4   0  -2 13713.9 2124.85   1
  -4   0   1 12958.3 1448.98   2
   4   0  -1 9797.02 1741.01   1
  -4   0   0 261.777 228.359   2
   4   0   0 813.318 584.191   1
  -4   0  -1 4283.82 938.571   2
   4   0   1 2766.67 607.793   4
   4   0   2 453.291 583.318   1
   4   0   2 333.139 259.464   6
   4   0   3 3232.41 1228.67   1
   4   0   3 3394.22 876.297   6
   4   0   4 17515.5 2101.48   6
   4   0   4 13940.0 3007.93   1
   4   0   5 2808.65 1497.91   1
   4   0   5 3262.77 990.411   6
   4   0   6 1001.61 777.329   1
   4   0   6 4428.07 1143.91   6
   4   0   7 4365.37 1222.25   6
   4   0   8 3626.08 1153.72   6
   4   0   9 4958.44 1411.05   6
   4   0  10 945.616 655.311   6
   4   0  11 168.275 458.933   6
   4   0  12 437.262 494.247   6
   4   0  13 1959.07 1063.87   6
   4   0  14 928.135 752.254   6
   4   1 -12 22.9325 153.300   3
   4   1 -11-347.512 408.353   1
   4   1 -11-14.8360 110.290   3
   4   1 -10 943.754 636.781   1
   4   1 -10 1032.41 696.272   3
  -4  -1   9 417.250 258.700   5
   4   1  -9 15.3040 157.982   3
   4   1  -9-376.639 414.750   1
   4   1  -8-585.406 493.727   3
   4   1  -8 29.8943 141.655   1
  -4  -1   7 57.9111 142.155   5
   4   1  -7 726.430 488.156   3
   4   1  -7 188.597 297.480   1
   4   1  -6 4999.83 1277.63   3
  -4  -1   6 6412.12 1184.03   5
   4   1  -6 7181.69 1621.63   1
   4   1  -5 7407.80 1546.77   3
  -4  -1   5 6045.35 1103.70   5
   4   1  -5 4888.79 1314.22   1
   4   1  -4 7220.26 1541.76   1
   4   1  -4 6411.42 1384.24   3
  -4  -1   4 5296.95 1035.85   5
   4   1  -4 7198.29 949.881   6
   4   1  -3 3354.40 597.487   6
   4   1  -3 3874.12 1104.24   1
  -4  -1   2 5026.24 932.250   2
   4   1  -2 3941.63 636.373   6
   4   1  -2 4418.10 1171.98   1
  -4  -1   1 1687.33 550.307   2
   4   1  -1 1532.93 690.394   1
   4   1   0-8.42937 146.381   1
  -4  -1   0 265.488 249.613   2
  -4  -1  -1 718.761 392.489   2
   4   1   1 781.952 531.095   1
   4   1   1 526.615 259.945   4
   4   1   1 1192.10 387.331   6
   4   1   2 254.688 327.012   1
  -4  -1  -2 1446.34 562.878   2
   4   1   2 1098.97 304.896   4
   4   1   2 1072.46 396.537   6
   4   1   3 865.498 404.376   6
   4   1   3 1035.31 793.278   1
   4   1   4 3557.15 1603.50   1
   4   1   4 6028.12 1141.59   6
   4   1   5 8677.26 2650.75   1
   4   1   5 11868.7 1711.63   6
   4   1   6 5505.84 1241.14   6
   4   1   7 6541.01 1416.08   6
   4   1   8-190.470 269.284   6
   4   1   9 20141.7 2761.02   6
   4   1  10 1564.56 834.836   6
   4   1  11 797.682 621.753   6
   4   1  12 431.615 475.952   6
   4   1  13-285.452 415.087   6
   4   1  14 115.975 298.382   6
   4   2 -12 683.248 605.177   3
   4   2 -11-299.307 404.686   3
   4   2 -10 1370.76 811.134   3
  -4  -2  10 377.880 251.797   5
   4   2 -10 456.641 436.334   1
   4   2  -9 1924.97 926.296   3
  -4  -2   9 1160.69 615.466   5
   4   2  -9 862.185 575.743   1
  -4  -2   8 14896.5 2141.95   5
   4   2  -8 13182.1 2297.89   3
   4   2  -8 10631.4 1951.47   1
   4   2  -7 3069.63 1013.13   1
   4   2  -7 5114.43 1369.99   3
  -4  -2   7 4731.39 1176.15   5
   4   2  -6-127.560 229.946   1
   4   2  -6-109.726 222.825   3
  -4  -2   6-290.235 295.734   5
   4   2  -5 1123.42 589.747   3
  -4  -2   5 2283.14 754.251   5
   4   2  -5 1585.47 718.221   1
   4   2  -4 4224.83 1112.01   3
  -4  -2   4 3588.92 913.249   5
   4   2  -4 3580.28 1068.74   1
  -4  -2   3 5138.08 1072.65   5
   4   2  -3 3602.85 1066.03   1
   4   2  -3 3629.51 386.618   6
   4   2  -2 217.998 285.972   1
  -4  -2   2 97.8406 235.232   2
   4   2  -1-534.484 441.538   1
  -4  -2   1-4.29974 90.4943   2
   4   2   0-32.3447 198.788   1
  -4  -2   0-182.703 220.674   2
   4   2   0 177.877 97.9637   6
   4   2   1 3450.77 1355.50   1
   4   2   1 4886.52 634.514   6
   4   2   1 4008.75 761.498   4
  -4  -2  -1 4522.24 1031.68   2
   4   2   2 30756.7 4258.91   1
   4   2   2 24987.6 1595.17   4
  -4  -2  -2 23872.2 2499.17   2
   4   2   2 25618.7 1716.68   6
  -4  -2  -3 30142.5 2927.67   2
   4   2   3 29513.1 1219.43   4
   4   2   3 28292.2 2052.74   6
   4   2   3 24760.0 4206.80   1
  -4  -2  -4 18.5438 234.859   2
   4   2   4-763.059 774.421   1
   4   2   4-206.880 196.973   6
   4   2   5 10669.3 1498.81   6
   4   2   6 5021.06 1106.18   6
   4   2   7 1495.77 652.093   6
   4   2   8-402.841 374.046   6
   4   2   9 139.560 254.043   6
   4   2  10 3176.08 1103.31   6
   4   2  11 1060.75 686.225   6
   4   2  12 414.536 464.310   6
   4   2  13 526.977 525.892   6
   4   2  14 1422.87 897.820   6
   4   2  15 343.143 469.699   6
   4   3 -12 1112.78 757.422   3
   4   3 -11 119.807 261.557   3
  -4  -3  11-244.239 332.450   5
   4   3 -10 473.274 506.797   3
  -4  -3  10 100.145 221.509   5
   4   3  -9-893.710 648.781   3
  -4  -3   9-158.206 260.628   5
   4   3  -8-217.834 350.942   3
  -4  -3   8 336.189 410.339   5
   4   3  -8 327.183 344.136   1
   4   3  -7 632.258 498.660   3
  -4  -3   7 217.982 311.418   5
   4   3  -7 36.6642 151.844   1
   4   3  -6 5219.51 1318.28   3
  -4  -3   6 4639.05 1192.61   5
   4   3  -6 5449.87 1322.70   1
   4   3  -5 2775.66 866.290   3
  -4  -3   5 3651.55 1071.66   5
   4   3  -5 4394.70 1191.07   1
  -4  -3   4 2.72033 89.6859   5
   4   3  -4-20.4973 126.867   1
   4   3  -3 546.415 445.276   1
   4   3  -3-1.36060 140.196   3
  -4  -3   3 71.5583 225.950   5
   4   3  -2 7308.59 1691.38   1
   4   3  -1 14755.3 2618.93   1
  -4  -3   1 11109.6 1644.82   2
   4   3   0 40085.7 4729.36   1
  -4  -3   0 43590.4 3326.15   2
  -4  -3  -1 9334.36 1578.88   2
   4   3   1 9245.58 2494.22   1
   4   3   2 2515.95 557.064   4
   4   3   2 2344.77 414.631   6
  -4  -3  -2 2237.00 765.276   2
   4   3   3 1045.31 928.261   1
   4   3   3 1339.36 339.450   4
   4   3   3 910.442 321.640   6
  -4  -3  -3 376.951 349.735   2
  -4  -3  -4 1375.02 663.787   2
   4   3   4 654.162 297.035   6
  -4  -3  -5 10324.2 1903.43   2
   4   3   5 11304.7 1458.46   6
  -4  -3  -6 18104.3 2666.88   2
   4   3   6 18842.1 2035.71   6
   4   3   7 1095.55 464.760   6
   4   3   8 287.396 293.934   6
   4   3   9 5450.29 1334.74   6
   4   3  10 2058.82 881.194   6
   4   3  11-203.133 311.264   6
   4   3  12-365.815 416.379   6
   4   3  13 1036.26 734.070   6
   4   3  14 1034.08 763.127   6
   4   3  15 644.927 622.880   6
   4   4 -11 1420.26 872.174   3
  -4  -4  11 583.468 560.222   5
   4   4 -10 1574.71 897.068   3
  -4  -4  10-35.2228 163.368   5
   4   4  -9 773.943 614.700   3
  -4  -4   9 179.883 311.352   5
   4   4  -8 1256.02 750.488   3
  -4  -4   8 547.994 486.675   5
   4   4  -7 2918.16 1084.81   3
   4   4  -7 1863.67 825.324   1
  -4  -4   7 1488.57 712.630   5
   4   4  -6 535.268 457.815   1
   4   4  -6 751.056 517.838   3
  -4  -4   6 1047.77 561.606   5
   4   4  -5 1437.39 764.792   1
   4   4  -5 2197.45 805.471   3
  -4  -4   5 1631.79 672.296   5
   4   4  -4 4717.10 1407.86   1
   4   4  -4 5670.98 1263.17   3
  -4  -4   4 3546.91 1069.93   5
   4   4  -3 113.935 198.908   3
  -4  -4   3 402.575 339.530   5
   4   4  -3 408.747 467.705   1
   4   4  -2 2081.52 721.437   3
  -4  -4   2 1866.39 726.375   5
   4   4  -2 602.301 596.770   1
  -4  -4   1 7884.91 1432.88   2
   4   4  -1 7247.42 2182.39   1
  -4  -4   0 18335.5 2264.66   2
   4   4   0 18721.3 3720.40   1
   4   4   1-972.671 886.604   1
  -4  -4  -1 444.619 399.510   2
  -4  -4  -2 17381.3 2323.25   2
  -4  -4  -3 8212.15 1617.04   2
   4   4   4 364.509 221.982   6
  -4  -4  -4 667.209 319.914   2
  -4  -4  -5 1546.31 656.063   2
   4   4   5 1667.03 553.970   6
   4   4   5 1385.37 264.356   4
  -4  -4  -6 941.599 614.012   2
   4   4   6 400.412 292.602   6
  -4  -4  -7 1061.69 710.147   2
   4   4   7 1093.62 505.177   6
  -4  -4  -8 127.051 553.963   2
   4   4   8-390.188 341.001   6
   4   4   9 1436.84 681.297   6
   4   4  10 260.555 314.714   6
   4   4  11 426.534 427.560   6
   4   4  12-190.759 317.788   6
   4   4  13 1263.82 786.047   6
   4   4  14 1345.33 855.784   6
   4   4  15 758.270 681.718   6
   4   5 -11 827.346 681.059   3
  -4  -5  11 92.5746 569.664   5
   4   5 -10 309.538 413.783   3
  -4  -5  10 546.576 552.310   5
   4   5  -9 1685.83 918.038   3
  -4  -5   9 180.444 331.193   5
   4   5  -8-739.528 585.009   3
  -4  -5   8 477.169 486.541   5
   4   5  -7-530.802 482.418   3
  -4  -5   7 218.039 322.571   5
   4   5  -6 1824.59 811.237   3
  -4  -5   6 2373.07 995.978   5
   4   5  -6 775.525 688.874   1
   4   5  -5 898.393 539.577   3
  -4  -5   5 1754.20 804.649   5
   4   5  -5 528.651 584.396   1
   4   5  -4 282.490 284.824   3
  -4  -5   4 1108.39 573.256   5
   4   5  -3-118.915 193.964   3
  -4  -5   3 703.778 491.091   5
   4   5  -3-391.685 545.830   1
   4   5  -2-435.018 335.323   3
  -4  -5   2 85.8258 278.397   5
   4   5  -2-615.373 703.613   1
   4   5  -1-22.4183 257.751   1
  -4  -5   0 7989.42 1557.84   2
  -4  -5  -1 2008.27 817.668   2
  -4  -5  -2 49098.7 4106.78   2
  -4  -5  -3 14381.2 2226.00   2
  -4  -5  -4 2765.12 1001.51   2
  -4  -5  -5 5045.54 1381.91   2
   4   5   6 7876.66 1271.39   6
  -4  -5  -6 7853.68 1759.10   2
  -4  -5  -7 1699.87 842.889   2
   4   5   7 2288.98 738.084   6
  -4  -5  -8 850.900 541.642   2
   4   5   8 1425.97 625.827   6
  -4  -5  -9-86.2214 740.416   2
   4   5   9 925.195 545.508   6
  -4  -5 -10 2424.98 1145.73   2
   4   5  10 3574.21 1140.95   6
  -4  -5 -11 1570.44 992.484   2
   4   5  11 2376.29 962.413   6
   4   5  12 486.527 482.511   6
   4   5  13-272.377 393.136   6
   4   5  14 730.329 537.669   6
   4   5  15 237.407 381.756   6
   4   6 -10 683.873 615.869   3
  -4  -6  10 1076.77 786.033   5
   4   6  -9 1249.61 815.587   3
  -4  -6   9-381.616 458.530   5
   4   6  -8-229.485 340.647   3
  -4  -6   8 327.702 439.344   5
   4   6  -7 2846.23 1088.08   3
  -4  -6   7 1348.01 813.239   5
   4   6  -6 2950.17 1041.91   3
  -4  -6   6 2946.11 1132.17   5
   4   6  -5 61.2343 175.239   3
  -4  -6   5 857.953 598.707   5
   4   6  -4-253.006 274.894   3
  -4  -6   4 224.075 320.875   5
   4   6  -3 1577.94 652.572   3
  -4  -6   3 1788.45 838.888   5
   4   6  -2 792.142 405.835   3
  -4  -6   2 1154.40 653.525   5
  -4  -6   1 2822.81 1003.52   5
  -4  -6   0 97.9596 245.844   2
  -4  -6  -1 1936.24 872.148   2
  -4  -6  -2 6946.60 1586.22   2
  -4  -6  -3 2669.98 1013.81   2
  -4  -6  -4 140.274 340.039   2
  -4  -6  -5 16946.0 2611.06   2
  -4  -6  -6 1050.69 636.451   2
  -4  -6  -7 7578.20 1797.21   2
  -4  -6  -8 41.4634 316.641   2
  -4  -6  -9-320.594 438.811   2
   4   6   9 95.8191 187.809   6
  -4  -6 -10 2151.92 976.144   2
   4   6  10 1506.89 727.804   6
  -4  -6 -11 887.119 998.091   2
   4   6  11 419.532 415.570   6
  -4  -6 -12-521.295 567.697   2
   4   6  12 336.424 389.399   6
  -4  -6 -13 45.8290 218.206   2
   4   6  13-220.403 336.910   6
  -4  -6 -14-206.545 432.140   2
   4   6  14 677.969 602.990   6
   4   6  15-561.449 562.660   6
   4   7  -9 717.596 502.464   3
  -4  -7   9-514.388 564.553   5
   4   7  -8-66.6568 246.343   3
  -4  -7   8 785.374 559.717   5
   4   7  -7 1361.90 665.491   3
  -4  -7   7 2916.21 1276.35   5
   4   7  -6 330.283 370.069   3
  -4  -7   6 160.521 317.477   5
   4   7  -5 530.257 421.894   3
  -4  -7   5 1223.37 763.862   5
   4   7  -4 2148.35 806.242   3
  -4  -7   4 2930.51 1086.58   5
   4   7  -3 1712.60 679.306   3
  -4  -7   3 899.592 612.561   5
  -4  -7   2 784.407 568.585   5
  -4  -7   1 2608.22 1049.92   5
  -4  -7   0 467.754 443.550   5
  -4  -7  -1 60.9011 218.414   2
  -4  -7  -2 2187.22 832.294   2
  -4  -7  -3 718.674 493.049   2
  -4  -7  -4 1892.59 910.212   2
  -4  -7  -5 8634.83 1924.37   2
  -4  -7  -6 2008.22 944.276   2
  -4  -7  -7 948.874 678.175   2
  -4  -7  -8 4936.46 1539.38   2
  -4  -7  -9 146.292 348.449   2
  -4  -7 -10-655.163 610.456   2
  -4  -7 -11 877.448 448.146   2
  -4  -7 -12-783.243 707.723   2
  -4  -7 -13-702.787 679.970   2
  -4  -7 -14 162.709 375.684   2
   4   7  14 607.570 569.871   6
   4   7  15-395.287 482.614   6
  -4  -8   7 696.414 676.251   5
  -4  -8   6-579.532 573.551   5
  -4  -8   5 672.803 453.093   5
  -4  -8   4 1510.52 854.842   5
  -4  -8   3 1410.61 813.848   5
  -4  -8   2-99.3794 290.862   5
  -4  -8   1-8.86116 318.429   5
  -4  -8   0 1738.09 836.924   5
  -4  -8  -1 148.881 278.061   5
  -4  -8  -2 2973.52 1113.89   2
  -4  -8  -3 1804.93 907.006   2
  -4  -8  -4 2582.57 1124.62   2
  -4  -8  -5 358.288 448.697   2
  -4  -8  -6 2103.90 936.919   2
  -4  -8  -7-558.520 535.784   2
  -4  -8  -8 38.3377 219.246   2
  -4  -8  -9-597.900 577.521   2
  -4  -8 -10 1794.75 992.967   2
  -4  -8 -11 1476.09 925.706   2
  -4  -8 -12 487.065 551.543   2
  -4  -8 -13-677.804 668.377   2
  -4  -9   4-109.940 271.516   5
  -4  -9   3 1113.78 823.242   5
  -4  -9   2 527.943 490.158   5
  -4  -9   1 73.6160 222.284   5
  -4  -9   0 26.6599 191.474   5
  -4  -9  -1-645.349 567.852   5
  -4  -9  -2 489.303 409.854   5
  -4  -9  -3 887.211 656.685   2
  -4  -9  -4 209.659 340.836   2
  -4  -9  -5 2458.31 1082.64   2
  -4  -9  -6-285.845 437.667   2
  -4  -9  -7-395.878 472.430   2
  -4  -9  -8-918.823 711.708   2
  -4  -9  -9-440.387 505.328   2
  -4  -9 -10 653.146 532.198   2
  -4  -9 -11 420.898 506.450   2
  -4  -9 -12 240.265 387.642   2
  -4 -10   2 532.223 558.311   5
  -4 -10   1 89.5410 343.842   5
  -4 -10   0 476.591 514.928   5
  -4 -10  -1 1630.52 926.131   5
  -4 -10  -2 1630.02 1038.02   5
  -4 -10  -3 757.148 642.094   5
  -4 -10  -5 753.829 650.398   2
  -4 -10  -6 617.058 589.828   2
  -4 -10  -7-396.272 517.258   2
  -4 -10  -8 423.075 517.338   2
  -4 -10  -9 1612.91 977.854   2
  -4 -10 -10 996.119 749.911   2
  -4 -11  -3 26.1375 241.220   5
  -4 -11  -4 1154.74 816.301   5
  -4 -11  -5 1107.69 811.497   5
  -4 -11  -6-351.977 496.573   2
  -4 -11  -7-214.280 386.296   2
  -5   8   5-573.087 617.949   4
   5  -8  -5 856.597 775.173   1
   5  -8  -4-1138.49 877.716   1
  -5   8   4 75.3400 271.627   4
  -5   8   3 484.677 557.430   4
   5  -8  -3-49.9277 282.313   1
   5  -8  -2-160.007 340.717   1
  -5   8   2 604.473 625.268   4
   5  -8  -1 943.839 772.204   1
  -5   8   1 1532.64 965.567   4
  -5   8   0 390.684 501.885   4
  -5   7   8-695.863 651.662   4
  -5   7   7 272.148 418.363   4
   5  -7  -6-610.127 641.058   1
  -5   7   6 1319.53 864.343   4
  -5   7   5-624.281 584.261   4
   5  -7  -5-111.735 302.968   1
   5  -7  -4-48.6815 233.351   1
  -5   7   4-141.016 286.642   4
  -5   7   3-10.6820 167.488   4
   5  -7  -3 235.346 433.412   1
   5  -7  -2 302.097 426.641   1
  -5   7   2 619.517 582.105   4
   5  -7  -1 601.070 612.741   1
  -5   7   1 899.105 695.518   4
   5  -7   0 889.334 703.535   1
  -5   7   0-422.945 472.882   4
   5  -7   1 2479.61 1069.18   1
  -5   6   9 464.939 545.438   4
  -5   6   8-34.5415 321.113   4
   5  -6  -8 450.558 570.594   1
   5  -6  -7-542.829 625.683   1
  -5   6   7-602.640 569.093   4
   5  -6  -6-281.540 437.504   1
  -5   6   6-91.4498 267.792   4
  -5   6   5 1183.91 764.599   4
   5  -6  -5-205.343 383.139   1
   5  -6  -4 542.893 591.045   1
  -5   6   4 928.551 699.538   4
  -5   6   3 181.657 316.133   4
   5  -6  -3-33.5890 253.367   1
   5  -6  -2 505.326 569.637   1
  -5   6   2 340.923 402.355   4
   5  -6  -1 58.7239 253.868   1
  -5   6   1 465.238 455.935   4
   5  -6   0-174.506 319.865   1
  -5   6   0-271.822 364.982   4
   5  -6   1-609.159 553.006   1
  -5   6  -1 121.118 263.606   4
   5  -6   2 104.423 259.820   1
   5  -6   3 2382.39 1131.87   1
   5  -6   4 1342.55 871.047   6
   5  -6   5-354.254 505.757   6
  -5   5  10 1523.25 965.168   4
   5  -5  -9 424.977 783.673   1
  -5   5   9 229.276 401.808   4
   5  -5  -8 1046.91 815.816   1
  -5   5   8 722.577 631.010   4
  -5   5   7 156.929 295.916   4
   5  -5  -7-687.796 695.995   1
   5  -5  -6-691.785 673.884   1
  -5   5   6 67.9286 230.809   4
  -5   5   5 135.223 276.360   4
   5  -5  -5 820.305 718.942   1
   5  -5  -4 180.171 385.145   1
  -5   5   4-427.126 435.888   4
  -5   5   3 155.440 281.024   4
   5  -5  -3 287.972 420.290   1
   5  -5  -2-53.4672 223.405   1
  -5   5   2 849.315 638.748   4
   5  -5  -1 1813.23 856.458   1
  -5   5   1 2333.94 916.057   4
   5  -5   0-10.0602 703.818   1
  -5   5   0 888.056 564.588   4
  -5   5  -1 233.509 295.967   4
   5  -5   1 781.501 633.333   1
   5  -5   2 828.940 557.796   1
   5  -5   3 7712.35 2009.20   1
   5  -5   4 40.3480 239.620   1
   5  -5   4-34.5060 248.559   6
   5  -5   5-295.929 569.613   1
   5  -5   5 1266.13 777.197   6
   5  -5   6 2263.03 1170.53   6
   5  -5   7 1153.97 876.463   6
   5  -4 -10-49.0555 258.595   1
   5  -4  -9-3.16688 212.625   1
  -5   4   9 247.036 371.516   4
  -5   4   8-71.6420 251.500   4
   5  -4  -8 823.779 741.846   1
   5  -4  -7 173.066 355.365   1
  -5   4   7-352.926 442.253   4
  -5   4   6 2162.30 1006.34   4
   5  -4  -6 1963.60 1090.14   1
   5  -4  -5-2.95214 142.164   1
  -5   4   5 336.439 431.546   4
   5  -4  -4-147.444 321.316   1
  -5   4   4-85.3330 207.625   4
  -5   4   3 1549.87 762.035   4
   5  -4  -3 558.254 397.024   1
   5  -4  -2 1597.26 934.702   1
  -5   4   2 159.523 263.911   4
   5  -4  -1 3482.62 1338.13   1
  -5   4   1 1511.19 735.144   4
  -5   4   0 2141.52 808.163   4
   5  -4   0 1504.52 945.407   1
   5  -4   1 2290.60 1098.68   1
  -5   4  -1 766.182 564.777   4
   5  -4   2 1019.98 706.901   1
   5  -4   3 59.5552 462.416   1
   5  -4   4 444.119 554.628   1
   5  -4   4-516.108 521.819   6
   5  -4   5 4544.38 1939.20   1
   5  -4   5 2736.96 1091.62   6
   5  -4   6-42.2668 363.925   1
   5  -4   6 697.728 641.122   6
   5  -4   7-489.058 541.799   6
   5  -4   8 173.096 339.035   6
   5  -3 -11 1304.32 926.266   1
   5  -3 -10 1785.86 1057.10   1
   5  -3  -9 588.025 650.906   1
   5  -3  -8 924.125 751.336   1
  -5   3   7 388.465 445.024   4
   5  -3  -7-969.692 756.325   1
   5  -3  -6 650.974 558.363   1
  -5   3   6 2229.32 1028.18   4
   5  -3  -5 2692.27 1229.08   1
  -5   3   5 1417.28 774.118   4
  -5   3   4 1164.43 673.870   4
   5  -3  -4 159.613 622.691   1
  -5   3   3 204.885 295.496   4
   5  -3  -3 682.072 603.586   1
   5  -3  -2-186.788 349.962   1
  -5   3   2-550.700 431.141   4
   5  -3  -1 1482.31 843.906   1
  -5   3   1 2148.18 810.523   4
  -5   3   0 1708.87 720.428   4
   5  -3   0 129.098 293.128   1
   5  -3   1 794.723 701.625   1
  -5   3  -1 1895.34 728.962   4
   5  -3   2 207.912 337.040   1
  -5   3  -2 594.894 378.837   4
   5  -3   3 490.047 605.820   1
   5  -3   4 2496.79 1308.94   1
   5  -3   4 2439.26 1010.12   6
   5  -3   5 4741.63 1979.34   1
   5  -3   5 2549.45 1013.82   6
   5  -3   6 3096.34 1855.19   1
   5  -3   6 3754.43 1394.07   6
   5  -3   7 2449.62 1662.63   1
   5  -3   7 1419.79 855.659   6
   5  -3   8-122.896 287.054   6
   5  -3   9-714.356 675.681   6
   5  -3  10-272.829 431.345   6
   5  -2 -12 1269.08 902.558   1
   5  -2 -11 687.462 661.243   1
   5  -2 -11 391.458 464.946   3
   5  -2 -10 1098.74 816.925   1
   5  -2  -9 794.904 690.556   1
   5  -2  -8-46.2865 209.826   1
   5  -2  -7-87.5791 287.444   1
   5  -2  -6 4950.95 1638.05   1
   5  -2  -5 5046.42 1607.93   1
  -5   2   4-416.061 408.597   4
   5  -2  -4 732.524 741.356   1
   5  -2  -3 1871.35 977.820   1
  -5   2   3 2262.52 890.001   4
   5  -2  -2 4438.74 1418.37   1
  -5   2   2 3865.10 1127.69   4
  -5   2   1 5944.59 1315.61   4
   5  -2  -1 6013.50 1642.34   1
  -5   2   0 653.277 364.709   2
  -5   2   0-7.89187 86.8375   4
   5  -2   1-348.376 507.890   1
  -5   2  -1 298.070 272.447   4
   5  -2   2 991.622 684.836   1
  -5   2  -2 487.659 324.484   4
   5  -2   3 857.882 726.393   1
   5  -2   3-22.5128 137.260   6
   5  -2   4 687.620 1020.06   1
   5  -2   4 385.393 332.795   6
   5  -2   5-876.523 904.006   1
   5  -2   5 1403.91 799.679   6
   5  -2   6-768.593 1352.29   1
   5  -2   6 89.9482 248.796   6
   5  -2   7 2655.39 1716.72   1
   5  -2   7 1340.85 831.432   6
   5  -2   8-225.846 382.510   6
   5  -2   9 2180.03 1068.46   6
   5  -2  10 538.506 579.710   6
   5  -2  11 802.743 731.223   6
   5  -1 -13-534.787 589.225   1
   5  -1 -12-325.098 464.582   1
   5  -1 -11-1434.73 901.578   3
   5  -1 -11-51.5136 233.391   1
   5  -1 -10-806.693 681.806   1
   5  -1 -10-248.466 382.068   3
   5  -1  -9 930.088 726.442   1
   5  -1  -8 1222.59 866.997   1
   5  -1  -7 1166.71 792.893   1
   5  -1  -6-57.0359 220.751   1
   5  -1  -5 5760.49 1696.51   1
   5  -1  -4-706.009 596.458   1
   5  -1  -3-356.417 438.463   1
   5  -1  -2-59.1995 218.092   1
   5  -1  -1-194.029 316.715   1
  -5   1   1-47.2338 107.936   2
  -5   1   0-156.185 192.080   2
   5  -1   0 428.160 584.514   1
  -5   1  -1 227.652 249.123   2
   5  -1   1 53.0541 337.152   1
  -5   1  -1 532.741 326.591   4
   5  -1   2 582.005 560.791   1
  -5   1  -2 221.202 194.508   4
   5  -1   2-657.661 433.022   6
   5  -1   3 540.096 687.401   1
   5  -1   3 307.461 275.939   6
   5  -1   4 3271.06 1040.79   6
   5  -1   4 3644.46 1621.17   1
   5  -1   5 1147.31 1097.10   1
   5  -1   5 1077.88 614.407   6
   5  -1   6 801.047 984.692   1
   5  -1   6 665.912 521.476   6
   5  -1   7 3254.67 1134.51   6
   5  -1   8 1530.17 826.965   6
   5  -1   9-2.49828 190.866   6
   5  -1  10 662.473 591.631   6
   5  -1  11 345.279 449.133   6
   5  -1  12-380.180 489.333   6
   5   0 -12 700.782 649.640   1
   5   0 -11 502.615 541.241   3
   5   0 -11-244.818 411.735   1
   5   0 -10 2491.08 1162.84   3
   5   0 -10 2952.25 1237.71   1
   5   0  -9 775.341 628.742   3
   5   0  -9 363.964 472.856   1
   5   0  -8 2996.03 1180.33   3
   5   0  -8 2193.92 1072.18   1
   5   0  -7 462.002 492.509   1
   5   0  -6 771.042 550.095   1
   5   0  -5 574.620 470.941   1
   5   0  -4 8180.74 1899.26   1
   5   0  -3 5147.69 1486.25   1
  -5   0   2-226.482 210.915   2
   5   0  -2 1146.88 695.328   1
   5   0  -1 3875.82 1263.93   1
  -5   0   1 1571.71 559.972   2
   5   0   0 4399.81 1374.21   1
  -5   0   0 3655.11 898.270   2
  -5   0  -1 4746.69 1077.73   2
   5   0   1 3913.46 1360.30   1
   5   0   1 4438.26 980.577   6
   5   0   2 2080.15 941.850   1
  -5   0  -2 1423.75 631.401   2
   5   0   2 971.529 414.576   6
   5   0   3 7391.39 1396.08   6
   5   0   3 6328.70 2091.17   1
   5   0   4 3546.51 1694.79   1
   5   0   4 1734.42 669.490   6
   5   0   5 4144.80 2275.36   1
   5   0   5 3224.96 1038.96   6
   5   0   6 4456.75 2203.66   1
   5   0   6 5218.76 1357.12   6
   5   0   7 1465.28 819.997   6
   5   0   8 292.250 307.340   6
   5   0   9 162.216 296.798   6
   5   0  10 1147.67 757.932   6
   5   0  11 978.105 735.721   6
   5   0  12 868.881 721.063   6
   5   1 -11 108.662 272.836   3
   5   1 -11 213.849 376.366   1
   5   1 -10 1376.68 866.287   3
   5   1 -10 902.295 682.177   1
   5   1  -9 107.715 272.712   1
   5   1  -9 1544.13 877.649   3
   5   1  -8 154.257 285.727   1
   5   1  -8 1057.50 709.129   3
   5   1  -7 2732.64 1114.61   1
   5   1  -7 3640.24 1261.00   3
   5   1  -6 2363.50 974.561   1
  -5  -1   5 4042.64 971.328   5
   5   1  -5 4661.15 1428.83   1
  -5  -1   4 793.647 423.789   5
   5   1  -4 587.473 551.110   1
   5   1  -3 36884.8 3955.00   1
   5   1  -2 7816.85 1776.34   1
  -5  -1   2 7966.80 1292.49   2
   5   1  -1 2211.02 1013.59   1
  -5  -1   1 1575.64 600.682   2
   5   1   0 232.195 372.558   1
  -5  -1   0 392.099 340.343   2
   5   1   0 266.668 201.624   6
   5   1   1 130.678 148.306   6
  -5  -1  -1 132.448 206.009   2
   5   1   2-345.500 577.093   1
  -5  -1  -2-130.087 201.216   2
   5   1   2 139.655 168.797   6
  -5  -1  -3 481.116 408.268   2
   5   1   3 155.536 200.912   6
   5   1   3 317.234 834.787   1
   5   1   4 3312.90 1464.27   1
   5   1   4 4541.06 1086.94   6
   5   1   5 7854.53 2910.78   1
   5   1   5 9296.01 1628.53   6
   5   1   6 1258.83 594.967   6
   5   1   7 374.023 364.521   6
   5   1   8 460.112 362.870   6
   5   1   9 1817.34 881.408   6
   5   1  10-409.793 450.169   6
   5   1  11-250.051 352.916   6
   5   1  12 707.235 625.219   6
   5   1  13 492.608 575.015   6
   5   2 -10 974.614 744.018   3
   5   2 -10 166.054 281.682   1
   5   2  -9 1647.65 912.544   3
   5   2  -9 1196.58 743.952   1
   5   2  -8 164.863 340.156   3
   5   2  -8 1091.10 702.287   1
   5   2  -7 1088.90 689.064   3
   5   2  -7 293.700 378.363   1
  -5  -2   6 9566.25 1689.28   5
   5   2  -6 11872.7 2189.47   3
   5   2  -6 10176.9 2165.45   1
  -5  -2   5 3922.27 1082.41   5
   5   2  -5 3821.05 1269.52   1
  -5  -2   4 1004.91 527.723   5
   5   2  -4 2179.97 965.434   1
  -5  -2   3 757.345 440.539   5
   5   2  -3-637.775 543.617   1
  -5  -2   2 27546.6 2585.11   2
   5   2  -2 26744.1 3503.30   1
   5   2  -1 154.638 272.465   1
  -5  -2   1 722.827 491.966   2
   5   2   0 5010.38 1610.92   1
  -5  -2   0 6467.23 1314.05   2
  -5  -2  -1-242.296 281.007   2
   5   2   1 813.409 761.770   1
   5   2   2 383.340 232.051   6
  -5  -2  -2 156.090 362.182   2
  -5  -2  -3 3050.52 959.141   2
   5   2   3 1406.36 1128.32   1
   5   2   3 3622.94 789.032   6
  -5  -2  -4 6707.04 1544.66   2
   5   2   4 4776.03 2302.31   1
   5   2   4 5540.68 1072.14   6
  -5  -2  -5 10763.2 2082.74   2
   5   2   5 12392.2 1752.65   6
   5   2   6 347.870 323.913   6
   5   2   7 510.165 406.749   6
   5   2   8-642.960 477.844   6
   5   2   9 845.401 575.481   6
   5   2  10 1496.82 781.131   6
   5   2  11-357.118 411.358   6
   5   2  12 2097.91 1031.38   6
   5   2  13-877.009 721.780   6
   5   2  14-293.870 477.227   6
   5   3 -10 28.8726 190.686   3
   5   3  -9-830.208 670.952   3
   5   3  -8 1616.08 834.109   3
   5   3  -8 739.836 583.134   1
  -5  -3   7 1570.96 734.435   5
   5   3  -7 2063.69 946.200   3
   5   3  -7 1339.44 776.005   1
  -5  -3   6 2336.79 928.551   5
   5   3  -6 2274.13 905.052   3
   5   3  -6 2219.53 998.420   1
  -5  -3   5 1166.41 618.832   5
   5   3  -5 2676.97 1026.87   3
   5   3  -5 1468.25 901.058   1
   5   3  -4 4134.11 1382.78   1
  -5  -3   4 4012.67 1121.66   5
   5   3  -3 5914.97 1756.22   1
  -5  -3   3 6063.22 1389.33   5
   5   3  -2 439.978 521.491   1
   5   3  -1 7806.13 2201.67   1
  -5  -3   1 5932.85 1287.99   2
  -5  -3   0 16480.7 2253.76   2
   5   3   0 15497.4 3372.00   1
  -5  -3  -1 27962.1 3010.27   2
   5   3   1 28874.8 5012.66   1
   5   3   2-1081.89 1077.47   1
  -5  -3  -2-124.582 241.562   2
   5   3   3 4454.18 2114.25   1
  -5  -3  -3 2387.54 925.980   2
  -5  -3  -4 26.3549 168.098   2
   5   3   4 832.797 946.679   1
   5   3   4 225.063 196.379   6
  -5  -3  -5 5827.94 1536.60   2
   5   3   5 5417.77 1032.95   6
  -5  -3  -6 4503.64 1363.28   2
   5   3   6 6534.64 1258.44   6
  -5  -3  -7 679.820 587.156   2
   5   3   7 866.274 445.503   6
   5   3   8-448.573 389.606   6
   5   3   9 778.883 531.011   6
   5   3  10-570.961 484.958   6
   5   3  11-151.432 273.178   6
   5   3  12 1297.45 809.356   6
   5   3  13 1035.79 759.564   6
   5   3  14-443.097 522.245   6
   5   4 -10-71.4946 277.656   3
   5   4  -9 217.548 343.501   3
  -5  -4   8 597.435 521.427   5
   5   4  -8 451.354 480.683   3
   5   4  -7 531.095 553.590   1
  -5  -4   7 224.790 321.488   5
   5   4  -7 1124.77 711.614   3
   5   4  -6 214.864 355.812   1
  -5  -4   6 1163.54 674.307   5
   5   4  -6 1518.12 786.904   3
   5   4  -5-266.628 417.774   1
  -5  -4   5 728.724 513.578   5
   5   4  -5 432.304 409.269   3
   5   4  -4 6659.22 2015.64   1
  -5  -4   4 7399.80 1630.48   5
  -5  -4   3 3448.03 1071.81   5
   5   4  -3 3353.57 1541.35   1
  -5  -4   2 979.029 582.434   5
   5   4  -2-715.540 757.694   1
  -5  -4   1 1172.00 647.314   2
   5   4  -1 1738.11 1250.82   1
  -5  -4   0 275.778 366.158   2
   5   4   0 1472.70 1228.03   1
   5   4   1 3620.24 1820.93   1
  -5  -4  -1 4382.60 1218.87   2
   5   4   2 132.094 468.550   1
  -5  -4  -2 4465.32 1292.38   2
  -5  -4  -3 9860.13 1931.88   2
  -5  -4  -4 1347.24 724.378   2
  -5  -4  -5 16158.4 2590.00   2
  -5  -4  -6 2276.14 1021.68   2
   5   4   6 1477.90 575.749   6
  -5  -4  -7 10313.8 2211.55   2
   5   4   7 7478.30 1397.55   6
  -5  -4  -8 123.957 300.117   2
   5   4   8 409.926 355.487   6
  -5  -4  -9 185.514 579.690   2
   5   4   9 974.685 571.754   6
  -5  -4 -10 6.14714 194.071   2
   5   4  10 91.5696 376.509   6
   5   4  11 657.073 524.823   6
   5   4  12-642.322 545.718   6
   5   4  13-494.845 526.739   6
   5   4  14-37.4849 225.961   6
  -5  -5   9 576.736 569.274   5
   5   5  -9-1348.60 869.930   3
  -5  -5   8 601.219 563.559   5
   5   5  -8 148.568 289.458   3
   5   5  -7-166.080 286.235   3
  -5  -5   7-216.703 336.120   5
   5   5  -6 1025.49 645.940   3
  -5  -5   6 1883.97 901.377   5
   5   5  -5 479.429 435.296   3
  -5  -5   5 1539.21 804.514   5
   5   5  -5 1138.42 988.611   1
   5   5  -4-49.1707 156.403   3
  -5  -5   4-504.194 463.367   5
   5   5  -4 185.121 447.041   1
  -5  -5   3 1.95077 289.231   5
   5   5  -3-1160.60 1047.49   1
  -5  -5   2 541.124 503.852   5
   5   5  -2-456.568 669.758   1
   5   5  -1 718.135 870.599   1
   5   5   0 287.626 626.221   1
  -5  -5   0-29.7202 147.484   2
  -5  -5  -1 10959.7 2054.58   2
  -5  -5  -2 659.526 397.884   2
  -5  -5  -3 1921.47 860.970   2
  -5  -5  -4 10661.7 2124.43   2
  -5  -5  -5-1140.65 711.746   2
  -5  -5  -6 9725.96 2111.14   2
  -5  -5  -7-275.883 405.657   2
  -5  -5  -8 108.564 228.182   2
  -5  -5  -9-780.325 674.851   2
   5   5   9 197.309 257.250   6
  -5  -5 -10-462.410 546.624   2
   5   5  10 390.146 391.204   6
  -5  -5 -11 726.275 697.033   2
   5   5  11 683.062 580.463   6
  -5  -5 -12-1384.12 992.369   2
   5   5  12 289.874 361.531   6
  -5  -5 -13-48.6213 253.326   2
   5   5  13-189.486 331.002   6
   5   5  14 531.661 544.996   6
  -5  -6   9 20.8533 193.213   5
   5   6  -8-388.755 452.197   3
  -5  -6   8-211.321 364.815   5
   5   6  -7-362.354 426.293   3
  -5  -6   7-169.254 342.446   5
   5   6  -6-289.434 344.888   3
  -5  -6   6 659.068 573.712   5
   5   6  -5-52.6155 156.410   3
  -5  -6   5-281.337 378.530   5
  -5  -6   4 341.775 394.426   5
   5   6  -4-374.932 386.711   3
  -5  -6   3 777.189 577.000   5
  -5  -6   2-437.508 441.730   5
  -5  -6   1 683.461 539.251   5
  -5  -6   0-57.2706 217.153   2
  -5  -6  -1 2498.39 982.318   2
  -5  -6  -2 809.326 589.260   2
  -5  -6  -3 19.9412 186.116   2
  -5  -6  -4-365.176 422.431   2
  -5  -6  -5 2206.43 1016.14   2
  -5  -6  -6 2626.75 1100.91   2
  -5  -6  -7 716.734 896.136   2
  -5  -6  -8-368.418 465.900   2
  -5  -6  -9 4025.19 1489.45   2
  -5  -6 -10-361.157 516.157   2
  -5  -6 -11 905.754 811.358   2
  -5  -6 -12 215.288 416.184   2
   5   6  13 1224.50 776.105   6
   5   6  14 1272.63 832.297   6
  -5  -7   7 1126.28 808.804   5
  -5  -7   6-373.315 461.331   5
  -5  -7   5 435.569 484.621   5
  -5  -7   4 535.288 525.881   5
  -5  -7   3-262.491 377.609   5
  -5  -7   2 96.2081 240.191   5
  -5  -7   1 536.334 472.342   5
  -5  -7   0-632.550 552.175   5
  -5  -7  -1 246.216 377.480   2
  -5  -7  -2 1274.06 773.441   2
  -5  -7  -3 326.206 266.476   2
  -5  -7  -4 1745.59 918.394   2
  -5  -7  -5 777.845 552.756   2
  -5  -7  -6 1198.22 791.536   2
  -5  -7  -7-32.1356 186.041   2
  -5  -7  -8-1093.37 779.632   2
  -5  -7  -9-108.402 308.155   2
  -5  -7 -10 410.940 522.969   2
  -5  -7 -11-719.241 698.609   2
  -5  -7 -12 409.611 573.765   2
  -5  -8   5 146.421 339.034   5
  -5  -8   4-177.177 345.502   5
  -5  -8   3-795.867 652.903   5
  -5  -8   2 244.486 375.997   5
  -5  -8   1 165.740 350.166   5
  -5  -8   0-668.495 588.855   5
  -5  -8  -1 736.081 621.783   5
  -5  -8  -2-123.423 530.377   2
  -5  -8  -3-494.033 532.997   2
  -5  -8  -4 1870.49 988.739   2
  -5  -8  -5 1271.96 832.753   2
  -5  -8  -6 238.596 376.946   2
  -5  -8  -7-817.624 694.714   2
  -5  -8  -8-237.636 394.470   2
  -5  -8  -9-340.115 483.393   2
  -5  -8 -10 1373.46 872.487   2
  -5  -8 -11 181.197 409.705   2
  -5  -9   2 82.0104 233.948   5
  -5  -9   1-108.842 321.760   5
  -5  -9   0 1289.43 783.510   5
  -5  -9  -1-155.652 360.792   5
  -5  -9  -2 808.654 678.661   5
  -5  -9  -3-499.868 545.453   2
  -5  -9  -4 109.126 305.487   2
  -5  -9  -5 457.311 511.677   2
  -5  -9  -6 900.918 750.087   2
  -5  -9  -7 1233.31 846.730   2
  -5  -9  -8-771.426 701.647   2
  -5  -9  -9 644.250 669.074   2
  -5 -10  -4-310.659 456.393   2
  -5 -10  -5-326.485 481.338   2
  -6   6   6 713.409 668.476   4
  -6   6   5 511.455 288.722   4
  -6   6   4-369.864 453.882   4
   6  -6  -2 337.360 509.835   1
   6  -6  -1 75.9148 286.406   1
   6  -6   0-3.27026 623.908   1
   6  -6   1-128.215 364.783   1
   6  -6   2 2330.00 1264.45   1
  -6   5   7 231.948 364.072   4
  -6   5   6-441.689 495.749   4
  -6   5   5 332.215 430.849   4
   6  -5  -4 674.792 704.153   1
  -6   5   4 552.225 524.244   4
   6  -5  -3-762.485 725.416   1
  -6   5   3-337.845 406.965   4
   6  -5  -2 852.160 761.818   1
   6  -5  -1-702.064 683.968   1
   6  -5   0-820.035 727.220   1
   6  -5   1 264.183 440.435   1
   6  -5   2-833.329 767.170   1
   6  -5   3-85.3452 328.954   1
   6  -5   3 1271.88 861.507   6
   6  -5   4 3590.63 1777.79   1
   6  -5   4-493.663 568.344   6
  -6   4   6-227.709 386.602   4
   6  -4  -6 1739.57 1118.08   1
   6  -4  -5-647.349 708.758   1
  -6   4   5 962.754 773.752   4
   6  -4  -4 2481.39 1296.15   1
  -6   4   4 426.798 441.482   4
   6  -4  -3-404.701 562.269   1
  -6   4   3 611.099 514.126   4
   6  -4  -2 266.518 449.843   1
   6  -4  -1-366.756 491.305   1
   6  -4   0 300.414 463.137   1
   6  -4   1 894.880 737.581   1
   6  -4   2-913.169 779.178   1
   6  -4   3 830.887 822.498   1
   6  -4   3-505.851 518.670   6
   6  -4   4-284.426 424.931   6
   6  -4   4-179.483 563.397   1
   6  -4   5-259.186 657.866   1
   6  -4   5 598.853 582.055   6
   6  -4   6-2823.98 1973.68   1
   6  -4   6-176.496 352.324   6
   6  -3  -7 1225.09 946.416   1
   6  -3  -6 7555.45 2288.14   1
   6  -3  -5-150.908 359.510   1
   6  -3  -4 589.046 559.744   1
  -6   3   4-29.4373 141.079   4
   6  -3  -3 338.689 484.588   1
  -6   3   3 697.471 534.516   4
   6  -3  -2 1086.29 803.745   1
   6  -3  -1 823.758 710.201   1
   6  -3   0 1267.58 849.557   1
   6  -3   1-327.197 484.549   1
   6  -3   2-766.737 723.265   1
   6  -3   2-92.3051 213.571   6
   6  -3   3-7.45254 177.796   1
   6  -3   3-165.165 293.251   6
   6  -3   4-751.911 611.095   6
   6  -3   4 1047.95 976.525   1
   6  -3   5 406.332 757.710   1
   6  -3   5 676.318 594.673   6
   6  -3   6 1228.52 1364.00   1
   6  -3   6 189.003 343.566   6
   6  -3   7 1388.02 1435.47   1
   6  -3   7 328.845 480.056   6
   6  -3   8-662.930 650.064   6
   6  -2  -8 1782.51 1091.36   1
   6  -2  -7 881.542 780.126   1
   6  -2  -6 205.485 447.191   1
   6  -2  -5-408.079 530.386   1
   6  -2  -4 1186.92 878.883   1
   6  -2  -3 713.912 650.055   1
   6  -2  -2 1644.78 975.469   1
   6  -2  -1 1134.46 808.657   1
   6  -2   0 603.320 596.684   1
   6  -2   1 3574.28 1459.84   1
   6  -2   2-195.205 385.369   1
   6  -2   2-525.746 460.028   6
   6  -2   3 1168.55 967.920   1
   6  -2   3-239.392 329.657   6
   6  -2   4 389.198 409.173   6
   6  -2   4-428.868 711.640   1
   6  -2   5 2779.51 1813.74   1
   6  -2   5 161.773 299.856   6
   6  -2   6-386.448 824.030   1
   6  -2   6-259.375 383.852   6
   6  -2   7 3391.01 2180.90   1
   6  -2   7-374.104 452.960   6
   6  -2   8 982.485 747.450   6
   6  -2   9 286.912 422.837   6
   6  -1  -9 923.469 785.250   1
   6  -1  -8-117.405 299.570   1
   6  -1  -7-255.855 423.976   1
   6  -1  -6 420.976 525.432   1
   6  -1  -5 2357.51 1149.80   1
   6  -1  -4 6028.67 1884.24   1
   6  -1  -3 7075.22 1976.95   1
   6  -1  -2 1174.19 821.921   1
   6  -1  -1 388.513 492.548   1
   6  -1   0 1342.33 874.067   1
   6  -1   1 469.806 568.783   1
   6  -1   2-1304.66 946.994   1
   6  -1   2 135.800 462.708   6
   6  -1   3 2355.43 1460.45   1
   6  -1   3 875.288 564.328   6
   6  -1   4 198.946 568.177   1
   6  -1   4-359.676 382.950   6
   6  -1   5 124.067 478.672   1
   6  -1   5 232.451 339.315   6
   6  -1   6 294.939 710.762   1
   6  -1   6-69.1711 213.368   6
   6  -1   7 613.186 541.939   6
   6  -1   8-244.174 358.500   6
   6  -1   9-253.632 423.507   6
   6  -1  10-218.599 369.683   6
   6   0 -10-699.644 661.514   1
   6   0  -9 1164.30 860.165   1
   6   0  -8 1744.01 967.822   1
   6   0  -7 403.633 510.687   1
   6   0  -6 376.998 465.109   1
   6   0  -5 1081.72 782.896   1
   6   0  -4 1694.40 969.213   1
   6   0  -3 1587.23 732.817   1
   6   0  -2 823.974 681.200   1
   6   0  -1 11661.6 2562.11   1
   6   0   0 2128.51 1216.24   1
   6   0   1-63.6388 262.910   1
  -6   0  -2-596.231 453.620   2
   6   0   2 340.142 544.299   1
  -6   0  -3 1904.82 822.898   2
   6   0   3-670.160 832.315   1
  -6   0  -4 287.314 366.941   2
   6   0   4 113.728 215.268   6
   6   0   5 3040.44 1970.96   1
   6   0   5 1055.38 625.272   6
   6   0   6 1987.35 1562.78   1
   6   0   6 1385.00 771.339   6
   6   0   7-2.17756 89.6392   6
   6   0   8 696.388 564.832   6
   6   0   9 881.770 672.369   6
   6   0  10-600.927 589.698   6
   6   0  11 5.94534 149.917   6
   6   1 -10-64.8509 269.747   1
   6   1  -9 102.230 266.099   1
   6   1  -8 817.564 692.707   1
   6   1  -7 680.710 625.342   1
   6   1  -6-984.638 738.185   1
   6   1  -5 941.945 716.831   1
   6   1  -4 2291.01 1120.93   1
   6   1  -3 574.388 574.114   1
   6   1  -2 1622.00 955.256   1
   6   1  -1 10109.3 2522.83   1
   6   1   0 1285.98 931.913   1
   6   1   1 474.045 617.181   1
  -6  -1  -1 844.212 515.493   2
  -6  -1  -2 369.610 457.743   2
   6   1   2 1055.02 982.444   1
  -6  -1  -3-111.717 245.940   2
   6   1   3-1498.06 1270.84   1
  -6  -1  -4-30.4890 386.404   2
   6   1   4-1701.05 1466.76   1
  -6  -1  -5-609.408 538.236   2
   6   1   5 929.139 1502.78   1
   6   1   6 3424.87 2146.57   1
   6   1   7 764.510 548.121   6
   6   1   8 142.364 277.359   6
   6   1   9 311.531 379.912   6
   6   1  10-552.343 538.623   6
   6   1  11 1235.95 817.945   6
   6   1  12 244.973 393.009   6
   6   2  -9 1458.15 924.578   1
   6   2  -8 1568.85 944.205   1
   6   2  -7 2308.50 1048.41   1
   6   2  -6 966.172 735.045   1
   6   2  -5 92.3919 265.167   1
   6   2  -4-529.069 571.893   1
   6   2  -3 1136.64 831.491   1
   6   2  -2 593.652 635.226   1
   6   2  -1 66.8923 288.909   1
   6   2   0 5672.38 2083.61   1
  -6  -2   0 5090.09 1230.56   2
  -6  -2  -1 6071.14 1428.77   2
   6   2   1 3924.00 1800.76   1
   6   2   2-462.694 741.543   1
  -6  -2  -2 142.846 267.238   2
   6   2   3-2384.14 1712.40   1
  -6  -2  -3 127.541 236.891   2
  -6  -2  -4 3105.75 1104.56   2
   6   2   4 3181.65 2004.61   1
  -6  -2  -5 639.385 561.538   2
   6   2   5 1141.95 1233.12   1
  -6  -2  -6 579.890 547.699   2
  -6  -2  -7 3301.62 1327.51   2
   6   2  10-271.002 360.674   6
   6   2  11 831.674 652.364   6
   6   2  12-465.788 523.476   6
   6   3  -8-87.2382 246.173   1
   6   3  -7 1024.47 558.433   1
   6   3  -6 178.749 344.352   1
   6   3  -5 1802.50 1077.06   1
   6   3  -4 787.405 738.570   1
   6   3  -3 526.308 648.240   1
  -6  -3   3-533.115 447.342   5
   6   3  -2 500.310 680.146   1
  -6  -3   1 2885.98 984.296   2
   6   3  -1 3704.91 1748.10   1
  -6  -3   0-259.024 319.485   2
   6   3   0-1498.46 1243.91   1
  -6  -3  -1 1576.34 694.169   2
   6   3   1 1868.31 1494.85   1
   6   3   2-1366.71 1320.92   1
  -6  -3  -2 54.7915 177.583   2
   6   3   3 2134.94 1681.17   1
  -6  -3  -3 198.423 316.790   2
   6   3   4 677.794 1001.95   1
  -6  -3  -4 1226.68 729.864   2
  -6  -3  -5 1161.61 737.306   2
  -6  -3  -6 39.7958 215.015   2
  -6  -3  -7 924.916 721.309   2
  -6  -3  -8 37.8983 200.805   2
  -6  -3  -9 72.3124 270.388   2
  -6  -3 -10-351.705 515.445   2
   6   4  -8 1089.25 707.415   3
   6   4  -6 1967.11 1253.42   1
  -6  -4   5 3516.32 1235.85   5
   6   4  -5 4180.62 1908.87   1
  -6  -4   4 2409.68 928.032   5
   6   4  -4 3070.68 1666.07   1
  -6  -4   3-542.011 481.177   5
   6   4  -3-795.468 880.091   1
  -6  -4   2 556.901 475.712   5
   6   4  -2-851.862 963.698   1
  -6  -4   1 601.816 485.840   2
   6   4  -1 4086.22 1942.20   1
  -6  -4   0-494.712 451.058   2
   6   4   0-2330.84 1702.69   1
  -6  -4  -1 1737.56 858.513   2
   6   4   1-283.628 664.258   1
   6   4   2-230.528 705.615   1
  -6  -4  -2 226.101 326.707   2
  -6  -4  -3 1420.67 689.423   2
  -6  -4  -4 1176.92 767.249   2
  -6  -4  -5 3199.94 1223.00   2
  -6  -4  -6 2557.24 1113.37   2
  -6  -4  -7 161.762 320.637   2
  -6  -4  -8 673.137 663.993   2
  -6  -4  -9 430.150 566.327   2
  -6  -4 -10 72.1773 297.587   2
  -6  -4 -11 379.053 571.188   2
  -6  -5   5 596.361 535.802   5
   6   5  -5-787.713 955.479   1
  -6  -5   4 1012.11 678.916   5
   6   5  -4-713.044 939.539   1
  -6  -5   3-15.6733 151.060   5
   6   5  -3-504.774 795.001   1
  -6  -5   2-853.754 627.855   5
   6   5  -2-1720.10 1509.54   1
   6   5  -1 1560.35 1438.07   1
   6   5   0 637.356 659.347   1
  -6  -5   0-438.063 444.039   2
  -6  -5  -1 389.208 471.270   2
  -6  -5  -2 2628.06 1056.91   2
  -6  -5  -3 130.014 302.251   2
  -6  -5  -4 3034.11 1235.31   2
  -6  -5  -5 374.927 469.518   2
  -6  -5  -6 55.5889 232.408   2
  -6  -5  -7 438.844 530.865   2
  -6  -5  -8-39.0957 216.692   2
  -6  -5  -9-950.211 791.830   2
  -6  -5 -10 76.3136 293.438   2
  -6  -6   6 581.149 567.082   5
  -6  -6   5 1292.47 823.456   5
  -6  -6   4-296.127 434.303   5
   6   6  -3 2838.54 1831.12   1
  -6  -6   3 4133.33 1412.07   5
  -6  -6   2-36.9378 213.815   5
  -6  -6   1-99.7531 234.541   5
  -6  -6  -1-493.540 488.227   2
  -6  -6  -2 1210.52 776.466   2
  -6  -6  -3 683.121 719.529   2
  -6  -6  -4 122.605 301.089   2
  -6  -6  -5 824.685 676.735   2
  -6  -6  -6 1736.63 990.376   2
  -6  -6  -7 1841.55 840.502   2
  -6  -6  -8 2150.23 1083.47   2
  -6  -6  -9 651.027 671.123   2
  -6  -6 -10 653.443 692.399   2
  -6  -7   5 508.155 571.280   5
  -6  -7   4-334.279 437.684   5
  -6  -7   3-27.1802 194.538   5
  -6  -7   2 88.9687 256.829   5
  -6  -7   1 456.938 495.920   5
  -6  -7   0 544.218 544.291   5
  -6  -7  -1-80.4628 246.597   2
  -6  -7  -2 63.5279 228.439   2
  -6  -7  -3 2732.19 1186.91   2
  -6  -7  -4 4788.44 1640.30   2
  -6  -7  -5-544.563 582.593   2
  -6  -7  -6-177.678 410.206   2
  -6  -7  -7-264.770 432.064   2
  -6  -7  -8 296.880 453.462   2
  -6  -7  -9-316.901 492.314   2
  -6  -8   1 1694.12 1000.68   5
  -6  -8   0-596.613 591.799   5
  -6  -8  -1 2702.50 1238.51   5
  -6  -8  -2 477.901 538.937   2
  -6  -8  -3-682.573 649.495   2
  -6  -8  -4 2.95358 153.124   2
  -6  -8  -5 1621.76 1099.76   2
  -6  -8  -6 593.988 618.594   2
  -6  -8  -7 649.408 634.091   2
   7  -1  -1 698.408 746.177   1
   7  -1   0 1965.21 1269.78   1
   7  -1   1-825.808 893.598   1
   7  -1   2 784.835 942.625   1
   7  -1   3-430.557 758.369   1
   7  -1   4-836.152 1131.99   1
   7   0  -2-64.9455 286.359   1
   7   0  -1 157.406 363.922   1
   7   0   0 1204.76 1019.49   1
   7   0   1-1129.77 1066.50   1
   7   0   2 1586.07 1146.46   1
   7   0   3-818.536 1066.92   1
   7   0   4 2725.77 1998.77   1
   7   0   5 2344.82 1782.19   1
   7   1  -3-1122.67 927.365   1
   7   1  -2-474.707 646.923   1
   7   1  -1-761.785 798.407   1
   7   1   0 2868.44 1654.28   1
   7   1   1-877.377 1041.17   1
   7   1   2-305.368 501.271   1
   7   1   3-2051.30 1717.08   1
   7   1   4-930.653 1261.92   1
   7   1   5 1246.75 1442.49   1
  -7  -1  -6 1064.83 761.648   2
  -7  -1  -7 421.880 492.268   2
  -7  -1  -8-910.839 747.565   2
   7   2  -4 696.170 776.445   1
   7   2  -3-100.888 360.249   1
   7   2  -2 343.246 575.117   1
   7   2  -1 1304.66 1308.48   1
   7   2   0 360.353 676.154   1
   7   2   1 803.842 1034.68   1
   7   2   2 1176.52 1334.54   1
   7   2   3 2426.03 1975.27   1
   7   2   4-497.046 994.837   1
   7   2   5 1293.48 1425.60   1
  -7  -2  -5 316.873 417.166   2
  -7  -2  -6 191.970 369.651   2
  -7  -2  -7 290.424 417.632   2
  -7  -2  -8 793.106 714.055   2
   7   3  -4 1937.26 1376.09   1
   7   3  -3 1903.92 1418.40   1
   7   3  -2 468.394 761.262   1
   7   3  -1 1191.04 1261.28   1
   7   3   0-272.728 701.678   1
   7   3   1-2051.92 1782.05   1
   7   3   2 834.933 1210.09   1
   7   3   3 3143.27 2228.57   1
  -7  -3  -3-982.749 673.318   2
   7   3   4 1310.11 1426.37   1
  -7  -3  -4 188.309 312.183   2
  -7  -3  -5 56.9591 200.070   2
  -7  -3  -6 560.391 571.991   2
  -7  -3  -7 263.153 424.009   2
  -7  -3  -8-44.3298 212.553   2
   7   4  -5-1425.84 1320.46   1
   7   4  -4 568.213 860.281   1
   7   4  -3-230.137 616.769   1
   7   4  -2-571.296 898.169   1
   7   4  -1-901.794 1190.97   1
   7   4   0 1756.37 1682.11   1
   7   4   1 647.231 1018.94   1
   7   4   2 3913.76 2488.72   1
  -7  -4  -2 1281.29 734.264   2
  -7  -4  -3 335.556 424.065   2
  -7  -4  -4-1079.39 753.230   2
  -7  -4  -5-333.486 456.188   2
  -7  -4  -6 162.475 357.593   2
  -7  -4  -7 330.559 491.142   2
  -7  -4  -8-87.3282 272.856   2
   7   5  -3-3295.31 2259.69   1
   7   5  -2 1647.89 1643.09   1
   7   5  -1 1759.76 1683.55   1
  -7  -5   1 1254.66 784.807   5
   7   5   0-1938.34 1747.35   1
  -7  -5  -1-485.443 502.146   2
  -7  -5  -2 169.127 264.769   2
  -7  -5  -3 1418.55 858.006   2
  -7  -5  -4 1024.80 704.562   2
  -7  -5  -5-672.581 639.407   2
  -7  -5  -6 331.030 466.104   2
  -7  -5  -7 279.327 471.944   2
  -7  -6   2-988.604 737.738   5
  -7  -6   1-280.656 404.039   5
  -7  -6   0-66.1280 335.947   5
  -7  -6  -1 1037.69 728.626   2
  -7  -6  -2 729.999 635.809   2
  -7  -6  -3 92.8975 248.559   2
  -7  -6  -4 2313.91 1191.02   2
  -7  -6  -5-3.03547 667.580   2
  -7  -6  -6-157.778 358.359   2
  -7  -7  -2-679.774 648.387   2
  -7  -7  -3 3.00709 350.477   2
  -7  -7  -4 1542.71 966.053   2
   0   0   0    0.00    0.00   0
TITL wangchao0506 in P-1
REM P-1 (#2 in standard setting)
CELL 0.71073   5.767933   9.859162  13.531213  73.5412  85.5945  81.5054
ZERR    3.00   0.001856   0.003185   0.003992   0.0271   0.0251   0.0267
LATT  1
SFAC C H N O
UNIT 33.00 30.00 3.00 3.00
TREF
HKLF 4
END
;
_shelx_hkl_checksum              84156
_shelx_shelxl_version_number     2014/7
_olex2_date_sample_data_collection 2015-05-08
_olex2_submission_special_instructions 'No special instructions were received'
loop_
_space_group_symop_operation_xyz
'x, y, z'
'-x, -y, -z'
loop_
_atom_site_label
_atom_site_type_symbol
_atom_site_fract_x
_atom_site_fract_y
_atom_site_fract_z
_atom_site_U_iso_or_equiv
_atom_site_adp_type
_atom_site_occupancy
_atom_site_site_symmetry_order
_atom_site_calc_flag
_atom_site_refinement_flags_posn
F1 F 0.1094(4) 0.7073(3) 0.75142(17) 0.0810(7) Uani 1 1 d .
F2 F -0.1694(4) 0.8441(2) 0.66078(17) 0.0803(7) Uani 1 1 d .
O1 O 0.2711(4) 0.6082(3) 0.6018(2) 0.0727(8) Uani 1 1 d .
N1 N -0.0440(5) 0.7027(3) 0.5039(2) 0.0537(8) Uani 1 1 d .
C1 C -0.5327(6) 0.3746(4) 0.8513(3) 0.0556(9) Uani 1 1 d .
H1 H -0.5714 0.4186 0.7832 0.067 Uiso 1 1 calc R
C2 C -0.6628(6) 0.2727(4) 0.9119(3) 0.0602(10) Uani 1 1 d .
H2 H -0.7890 0.2500 0.8837 0.072 Uiso 1 1 calc R
C3 C -0.6106(6) 0.2034(4) 1.0133(3) 0.0577(10) Uani 1 1 d .
C4 C -0.4266(7) 0.2416(4) 1.0532(3) 0.0673(11) Uani 1 1 d .
H4 H -0.3906 0.1988 1.1219 0.081 Uiso 1 1 calc R
C5 C -0.2938(6) 0.3424(4) 0.9933(3) 0.0634(10) Uani 1 1 d .
H5 H -0.1676 0.3641 1.0221 0.076 Uiso 1 1 calc R
C6 C -0.3429(6) 0.4122(4) 0.8916(3) 0.0512(9) Uani 1 1 d .
C7 C -0.1952(6) 0.5169(4) 0.8327(3) 0.0575(9) Uani 1 1 d .
H7 H -0.0610 0.5222 0.8647 0.069 Uiso 1 1 calc R
C8 C -0.2271(6) 0.6047(4) 0.7403(3) 0.0561(9) Uani 1 1 d .
H8 H -0.3617 0.6046 0.7067 0.067 Uiso 1 1 calc R
C9 C -0.0575(6) 0.7051(4) 0.6865(3) 0.0564(9) Uani 1 1 d .
C10 C 0.0703(6) 0.6706(4) 0.5909(3) 0.0520(9) Uani 1 1 d .
C11 C 0.0804(7) 0.6741(4) 0.4117(3) 0.0649(10) Uani 1 1 d .
H11A H 0.0018 0.6090 0.3884 0.078 Uiso 1 1 calc R
H11B H 0.2393 0.6295 0.4284 0.078 Uiso 1 1 calc R
C12 C 0.0864(7) 0.8123(4) 0.3266(3) 0.0723(12) Uani 1 1 d .
H12A H 0.1846 0.8714 0.3465 0.087 Uiso 1 1 calc R
H12B H 0.1556 0.7910 0.2642 0.087 Uiso 1 1 calc R
C13 C -0.1559(8) 0.8937(5) 0.3052(3) 0.0805(13) Uani 1 1 d .
H13A H -0.1434 0.9860 0.2565 0.097 Uiso 1 1 calc R
H13B H -0.2462 0.8419 0.2743 0.097 Uiso 1 1 calc R
C14 C -0.2814(6) 0.9145(4) 0.4025(3) 0.0704(11) Uani 1 1 d .
H14A H -0.4413 0.9588 0.3877 0.085 Uiso 1 1 calc R
H14B H -0.2036 0.9777 0.4283 0.085 Uiso 1 1 calc R
C15 C -0.2838(6) 0.7728(4) 0.4840(3) 0.0633(11) Uani 1 1 d .
H15A H -0.3594 0.7884 0.5471 0.076 Uiso 1 1 calc R
H15B H -0.3724 0.7122 0.4606 0.076 Uiso 1 1 calc R
C16 C -0.7510(7) 0.0896(4) 1.0786(3) 0.0828(13) Uani 1 1 d .
H16A H -0.9127 0.1141 1.0606 0.124 Uiso 1 1 calc GR
H16B H -0.7384 0.0831 1.1502 0.124 Uiso 1 1 calc GR
H16C H -0.6911 -0.0006 1.0664 0.124 Uiso 1 1 calc GR
loop_
_atom_site_aniso_label
_atom_site_aniso_U_11
_atom_site_aniso_U_22
_atom_site_aniso_U_33
_atom_site_aniso_U_23
_atom_site_aniso_U_13
_atom_site_aniso_U_12
F1 0.0916(16) 0.0926(18) 0.0668(15) -0.0188(12) -0.0152(12) -0.0374(13)
F2 0.1042(17) 0.0507(14) 0.0828(16) -0.0167(11) 0.0025(13) -0.0065(12)
O1 0.0494(15) 0.087(2) 0.0695(18) -0.0035(14) 0.0004(13) -0.0079(14)
N1 0.0565(18) 0.0538(18) 0.0466(18) -0.0054(13) 0.0020(14) -0.0127(14)
C1 0.057(2) 0.065(2) 0.042(2) -0.0108(17) 0.0029(16) -0.0107(18)
C2 0.057(2) 0.067(3) 0.056(2) -0.0145(19) 0.0004(17) -0.0136(18)
C3 0.061(2) 0.050(2) 0.056(2) -0.0119(17) 0.0114(18) 0.0008(18)
C4 0.074(3) 0.072(3) 0.043(2) -0.0030(19) 0.0018(19) 0.001(2)
C5 0.061(2) 0.071(3) 0.054(2) -0.0094(19) -0.0063(18) -0.008(2)
C6 0.049(2) 0.050(2) 0.052(2) -0.0131(17) 0.0056(16) -0.0028(16)
C7 0.060(2) 0.060(2) 0.050(2) -0.0093(18) 0.0001(17) -0.0095(18)
C8 0.055(2) 0.064(2) 0.050(2) -0.0161(18) 0.0033(17) -0.0105(18)
C9 0.060(2) 0.053(2) 0.056(2) -0.0103(18) -0.0076(18) -0.0101(18)
C10 0.052(2) 0.045(2) 0.056(2) -0.0063(16) 0.0059(18) -0.0159(17)
C11 0.082(3) 0.054(2) 0.058(2) -0.0150(18) 0.009(2) -0.012(2)
C12 0.097(3) 0.061(3) 0.053(2) -0.0081(19) 0.016(2) -0.019(2)
C13 0.101(3) 0.074(3) 0.055(3) 0.004(2) -0.009(2) -0.019(3)
C14 0.062(2) 0.068(3) 0.068(3) 0.001(2) -0.0090(19) -0.004(2)
C15 0.051(2) 0.078(3) 0.057(2) -0.008(2) -0.0030(17) -0.0178(19)
C16 0.091(3) 0.063(3) 0.079(3) -0.001(2) 0.025(2) -0.013(2)
loop_
_atom_type_symbol
_atom_type_description
_atom_type_scat_dispersion_real
_atom_type_scat_dispersion_imag
_atom_type_scat_source
C C 0.0033 0.0016 'International Tables Vol C Tables 4.2.6.8 and 6.1.1.4'
H H 0.0000 0.0000 'International Tables Vol C Tables 4.2.6.8 and 6.1.1.4'
F F 0.0171 0.0103 'International Tables Vol C Tables 4.2.6.8 and 6.1.1.4'
N N 0.0061 0.0033 'International Tables Vol C Tables 4.2.6.8 and 6.1.1.4'
O O 0.0106 0.0060 'International Tables Vol C Tables 4.2.6.8 and 6.1.1.4'
loop_
_geom_angle_atom_site_label_1
_geom_angle_atom_site_label_2
_geom_angle_atom_site_label_3
_geom_angle
C10 N1 C11 119.0(3)
C10 N1 C15 128.2(3)
C15 N1 C11 112.7(3)
C2 C1 H1 119.7
C2 C1 C6 120.6(3)
C6 C1 H1 119.7
C1 C2 H2 119.1
C1 C2 C3 121.8(3)
C3 C2 H2 119.1
C2 C3 C16 121.5(4)
C4 C3 C2 117.6(3)
C4 C3 C16 120.8(4)
C3 C4 H4 119.4
C3 C4 C5 121.1(4)
C5 C4 H4 119.4
C4 C5 H5 119.0
C4 C5 C6 122.0(3)
C6 C5 H5 119.0
C1 C6 C7 124.1(3)
C5 C6 C1 116.9(3)
C5 C6 C7 119.0(3)
C6 C7 H7 115.9
C8 C7 C6 128.2(4)
C8 C7 H7 115.9
C7 C8 H8 118.4
C7 C8 C9 123.1(3)
C9 C8 H8 118.4
F1 C9 F2 103.4(3)
F1 C9 C8 110.8(3)
F1 C9 C10 107.2(3)
F2 C9 C8 110.1(3)
F2 C9 C10 110.2(3)
C8 C9 C10 114.6(3)
O1 C10 N1 124.0(3)
O1 C10 C9 116.9(3)
N1 C10 C9 119.1(3)
N1 C11 H11A 109.6
N1 C11 H11B 109.6
N1 C11 C12 110.1(3)
H11A C11 H11B 108.2
C12 C11 H11A 109.6
C12 C11 H11B 109.6
C11 C12 H12A 109.3
C11 C12 H12B 109.3
H12A C12 H12B 107.9
C13 C12 C11 111.8(3)
C13 C12 H12A 109.3
C13 C12 H12B 109.3
C12 C13 H13A 109.4
C12 C13 H13B 109.4
H13A C13 H13B 108.0
C14 C13 C12 111.3(3)
C14 C13 H13A 109.4
C14 C13 H13B 109.4
C13 C14 H14A 109.5
C13 C14 H14B 109.5
C13 C14 C15 110.7(3)
H14A C14 H14B 108.1
C15 C14 H14A 109.5
C15 C14 H14B 109.5
N1 C15 C14 109.9(3)
N1 C15 H15A 109.7
N1 C15 H15B 109.7
C14 C15 H15A 109.7
C14 C15 H15B 109.7
H15A C15 H15B 108.2
C3 C16 H16A 109.5
C3 C16 H16B 109.5
C3 C16 H16C 109.5
H16A C16 H16B 109.5
H16A C16 H16C 109.5
H16B C16 H16C 109.5
loop_
_geom_bond_atom_site_label_1
_geom_bond_atom_site_label_2
_geom_bond_distance
F1 C9 1.358(4)
F2 C9 1.385(4)
O1 C10 1.227(4)
N1 C10 1.329(4)
N1 C11 1.467(4)
N1 C15 1.460(4)
C1 H1 0.9300
C1 C2 1.380(4)
C1 C6 1.399(4)
C2 H2 0.9300
C2 C3 1.383(5)
C3 C4 1.372(5)
C3 C16 1.514(5)
C4 H4 0.9300
C4 C5 1.381(5)
C5 H5 0.9300
C5 C6 1.383(5)
C6 C7 1.454(4)
C7 H7 0.9300
C7 C8 1.313(5)
C8 H8 0.9300
C8 C9 1.495(5)
C9 C10 1.537(5)
C11 H11A 0.9700
C11 H11B 0.9700
C11 C12 1.517(5)
C12 H12A 0.9700
C12 H12B 0.9700
C12 C13 1.510(5)
C13 H13A 0.9700
C13 H13B 0.9700
C13 C14 1.504(5)
C14 H14A 0.9700
C14 H14B 0.9700
C14 C15 1.516(5)
C15 H15A 0.9700
C15 H15B 0.9700
C16 H16A 0.9600
C16 H16B 0.9600
C16 H16C 0.9600
loop_
_geom_torsion_atom_site_label_1
_geom_torsion_atom_site_label_2
_geom_torsion_atom_site_label_3
_geom_torsion_atom_site_label_4
_geom_torsion
F1 C9 C10 O1 23.0(4)
F1 C9 C10 N1 -160.3(3)
F2 C9 C10 O1 134.9(3)
F2 C9 C10 N1 -48.4(4)
N1 C11 C12 C13 -53.5(5)
C1 C2 C3 C4 1.4(5)
C1 C2 C3 C16 -178.7(3)
C1 C6 C7 C8 9.3(6)
C2 C1 C6 C5 0.3(5)
C2 C1 C6 C7 179.1(3)
C2 C3 C4 C5 -1.9(5)
C3 C4 C5 C6 1.7(6)
C4 C5 C6 C1 -0.8(5)
C4 C5 C6 C7 -179.7(3)
C5 C6 C7 C8 -171.8(4)
C6 C1 C2 C3 -0.6(5)
C6 C7 C8 C9 -178.1(3)
C7 C8 C9 F1 -9.1(5)
C7 C8 C9 F2 -122.9(4)
C7 C8 C9 C10 112.3(4)
C8 C9 C10 O1 -100.4(4)
C8 C9 C10 N1 76.3(4)
C10 N1 C11 C12 -118.7(4)
C10 N1 C15 C14 116.4(4)
C11 N1 C10 O1 -5.6(5)
C11 N1 C10 C9 178.0(3)
C11 N1 C15 C14 -60.1(4)
C11 C12 C13 C14 52.4(5)
C12 C13 C14 C15 -53.7(4)
C13 C14 C15 N1 57.0(4)
C15 N1 C10 O1 178.2(3)
C15 N1 C10 C9 1.8(5)
C15 N1 C11 C12 58.1(4)
C16 C3 C4 C5 178.2(3)
