#------------------------------------------------------------------------------
#$Date: 2019-11-23 22:54:32 +0200 (Sat, 23 Nov 2019) $
#$Revision: 235458 $
#$URL: file:///home/coder/svn-repositories/cod/cif/4/03/69/4036943.cif $
#------------------------------------------------------------------------------
#
# This file is available in the Crystallography Open Database (COD),
# http://www.crystallography.net/
#
# All data on this site have been placed in the public domain by the
# contributors.
#
data_4036943
loop_
_publ_author_name
'Karpov, Sergey V.'
'Grigor'ev, Arthur A.'
'Kayukov, Yakov S.'
'Karpova, Irina V.'
'Nasakin, Oleg E.'
'Tafeenko, Victor A.'
_publ_section_title
;
 Synthesis and X-ray Characterization of Alkali Metal
 2-Acyl-1,1,3,3-tetracyanopropenides.
;
_journal_issue                   15
_journal_name_full               'The Journal of organic chemistry'
_journal_page_first              6402
_journal_page_last               6408
_journal_paper_doi               10.1021/acs.joc.6b01040
_journal_volume                  81
_journal_year                    2016
_chemical_formula_moiety         'C14 H7 Li N4 O2'
_chemical_formula_sum            'C14 H7 Li N4 O2'
_chemical_formula_weight         270.18
_space_group_crystal_system      triclinic
_space_group_IT_number           2
_space_group_name_Hall           '-P 1'
_space_group_name_H-M_alt        'P -1'
_atom_sites_solution_hydrogens   mixed
_audit_creation_method           SHELXL-2013
_cell_angle_alpha                63.474(3)
_cell_angle_beta                 76.105(3)
_cell_angle_gamma                67.301(3)
_cell_formula_units_Z            2
_cell_length_a                   8.7665(3)
_cell_length_b                   9.4171(3)
_cell_length_c                   9.9290(3)
_cell_measurement_reflns_used    978
_cell_measurement_temperature    295(2)
_cell_measurement_theta_max      66.25
_cell_measurement_theta_min      6.43
_cell_volume                     674.31(4)
_computing_cell_refinement       'STOE X-AREA'
_computing_data_collection       'STOE X-AREA'
_computing_data_reduction        'STOE X-RED'
_computing_structure_refinement  'SHELXL-97 (Sheldrick, 1997)'
_computing_structure_solution    'SHELXS-97 (Sheldrick, 2008)'
_diffrn_ambient_temperature      295
_diffrn_detector                 Pilatus100K
_diffrn_detector_area_resol_mean 5.81
_diffrn_detector_type            STOE
_diffrn_measured_fraction_theta_full 0.993
_diffrn_measured_fraction_theta_max 0.993
_diffrn_measurement_device_type  STOE
_diffrn_measurement_method       'rotation method'
_diffrn_radiation_collimation    'focusing mirrors'
_diffrn_radiation_monochromator  none
_diffrn_radiation_polarisn_norm  0
_diffrn_radiation_type           'Cu K\a'
_diffrn_radiation_wavelength     1.54186
_diffrn_reflns_av_R_equivalents  0.1026
_diffrn_reflns_av_unetI/netI     0.0889
_diffrn_reflns_Laue_measured_fraction_full 0.993
_diffrn_reflns_Laue_measured_fraction_max 0.993
_diffrn_reflns_limit_h_max       7
_diffrn_reflns_limit_h_min       -10
_diffrn_reflns_limit_k_max       11
_diffrn_reflns_limit_k_min       -11
_diffrn_reflns_limit_l_max       12
_diffrn_reflns_limit_l_min       -11
_diffrn_reflns_number            3155
_diffrn_reflns_point_group_measured_fraction_full 0.993
_diffrn_reflns_point_group_measured_fraction_max 0.993
_diffrn_reflns_theta_full        67.686
_diffrn_reflns_theta_max         73.123
_diffrn_reflns_theta_min         4.995
_diffrn_source                   'Cu GeniX 3D'
_diffrn_source_current           0.600
_diffrn_source_power             0.030
_diffrn_source_voltage           50
_exptl_absorpt_coefficient_mu    0.762
_exptl_absorpt_correction_type   none
_exptl_crystal_colour            GREEN
_exptl_crystal_density_diffrn    1.331
_exptl_crystal_description       PRISM
_exptl_crystal_F_000             276
_exptl_crystal_size_max          .23
_exptl_crystal_size_mid          .12
_exptl_crystal_size_min          .10
_refine_diff_density_max         0.430
_refine_diff_density_min         -0.419
_refine_diff_density_rms         0.094
_refine_ls_extinction_coef       0.025(5)
_refine_ls_extinction_expression Fc^*^=kFc[1+0.001xFc^2^\l^3^/sin(2\q)]^-1/4^
_refine_ls_extinction_method     SHELXL
_refine_ls_goodness_of_fit_ref   0.937
_refine_ls_hydrogen_treatment    mixed
_refine_ls_matrix_type           full
_refine_ls_number_parameters     197
_refine_ls_number_reflns         2531
_refine_ls_number_restraints     0
_refine_ls_restrained_S_all      0.937
_refine_ls_R_factor_all          0.0964
_refine_ls_R_factor_gt           0.0783
_refine_ls_shift/su_max          0.005
_refine_ls_shift/su_mean         0.000
_refine_ls_structure_factor_coef Fsqd
_refine_ls_weighting_details
'w=1/[\s^2^(Fo^2^)+(0.1520P)^2^] where P=(Fo^2^+2Fc^2^)/3'
_refine_ls_weighting_scheme      calc
_refine_ls_wR_factor_gt          0.2068
_refine_ls_wR_factor_ref         0.2223
_reflns_Friedel_coverage         0.000
_reflns_number_gt                1686
_reflns_number_total             2531
_reflns_threshold_expression     'I > 2\s(I)'
_cod_data_source_file            jo6b01040_si_001.cif
_cod_data_source_block           shelx
_cod_depositor_comments
;
The following automatic conversions were performed:

data item '_exptl_absorpt_correction_type' value 'NONE' was changed
to 'none' in accordance with the
/home/saulius/struct/COD-crude-data/automatic-downloads/DataCite-retrospective/ACS/depositions/lib/dictionaries/cif_core.dic
dictionary named 'cif_core.dic' version 2.4.2 last updated on
2011-04-26.

Automatic conversion script
Id: cif_fix_values 6909 2019-04-08 15:41:33Z antanas 
;
_cod_database_code               4036943
_shelx_space_group_comment
;
The symmetry employed for this shelxl refinement is uniquely defined
by the following loop, which should always be used as a source of
symmetry information in preference to the above space-group names.
They are only intended as comments.
;
_shelxl_version_number           2013-4
_shelx_res_file
;
TITL  az284 in P -1
CELL   1.54186   8.7665   9.4171   9.9290  63.474  76.105  67.301
ZERR     2       0.0003   0.0003   0.0003   0.003   0.003   0.003
LATT    1
SFAC  C    H    Li   N    O
UNIT  28   14   2    8    4
ACTA
L.S. 14
BOND
FMAP 2
PLAN 20
WGHT    0.152000
EXTI    0.024807
FVAR       1.12384
MOLE   1
LI1   3    0.616183    0.278830    0.286884    11.00000    0.03227    0.03817 =
         0.04014   -0.01101   -0.00142   -0.00604

O1    5    0.457586    0.226214    0.224299    11.00000    0.02909    0.05629 =
         0.06751   -0.02955   -0.00144   -0.01165
O2    5    0.504643    0.365384    0.431999    11.00000    0.06367    0.10188 =
         0.07621   -0.06250   -0.02185    0.02387
N1    4    0.222272   -0.049591    0.597460    11.00000    0.04730    0.04408 =
         0.04510   -0.00735   -0.00012   -0.00116
N2    4   -0.183753    0.416346    0.520987    11.00000    0.05303    0.06573 =
         0.06197   -0.01601    0.01855    0.00721
N3    4   -0.125803    0.725570    0.208406    11.00000    0.06361    0.04980 =
         0.08118   -0.01730    0.00253    0.00797
N4    4    0.270451    0.584481   -0.094350    11.00000    0.05466    0.04758 =
         0.04156   -0.00945    0.00196   -0.01775
C1    1    0.327229    0.201963    0.233105    11.00000    0.02767    0.03564 =
         0.03356   -0.01131   -0.00278   -0.00764
C2    1    0.321765    0.065143    0.204257    11.00000    0.03778    0.03655 =
         0.03071   -0.01284    0.00089   -0.01110
C3    1    0.172515    0.063151    0.180572    11.00000    0.05136    0.05112 =
         0.04442   -0.01290   -0.01010   -0.02094
AFIX  41
H3    2    0.074148    0.147304    0.186482    11.00000   -1.20000
AFIX   0
C4    1    0.171637   -0.065096    0.148143    11.00000    0.10219    0.06880 =
         0.06300   -0.01809   -0.02220   -0.04841
AFIX  41
H4    2    0.073258   -0.066537    0.129665    11.00000   -1.20000
AFIX   0
C5    1    0.320026   -0.191976    0.143546    11.00000    0.12429    0.06022 =
         0.05733   -0.03092    0.00263   -0.04381
AFIX  41
H5    2    0.319579   -0.279327    0.123544    11.00000   -1.20000
AFIX   0
C6    1    0.465696   -0.190334    0.167824    11.00000    0.08557    0.04761 =
         0.05667   -0.02901    0.01863   -0.01980
AFIX  41
H6    2    0.563316   -0.276196    0.164121    11.00000   -1.20000
AFIX   0
C7    1    0.469396   -0.062346    0.197825    11.00000    0.04814    0.04126 =
         0.04587   -0.01993    0.00610   -0.00836
AFIX  41
H7    2    0.569042   -0.060870    0.213609    11.00000   -1.20000
AFIX   0
C8    1    0.167808    0.319554    0.275741    11.00000    0.02641    0.03385 =
         0.03615   -0.01403   -0.00228   -0.00611
C9    1    0.091879    0.254546    0.417545    11.00000    0.03024    0.03526 =
         0.03496   -0.00947    0.00212   -0.00213
C10   1   -0.060645    0.345889    0.474492    11.00000    0.03756    0.04388 =
         0.03988   -0.00757    0.00722   -0.00239
C11   1    0.163722    0.086437    0.518454    11.00000    0.03535    0.04041 =
         0.03537   -0.00881    0.00101   -0.00534
C12   1    0.117881    0.482874    0.167153    11.00000    0.03101    0.03544 =
         0.03639   -0.01076    0.00003   -0.00740
C13   1   -0.019855    0.614548    0.192128    11.00000    0.04401    0.03450 =
         0.04743   -0.00994   -0.00271    0.00025
C14   1    0.204873    0.533686    0.023466    11.00000    0.03899    0.03276 =
         0.03840   -0.00959   -0.00357   -0.01095
H2    2    0.394976    0.429723    0.448969    11.00000   -1.20000

H21   2    0.540656    0.348260    0.491795    11.00000   -1.20000
HKLF  4

REM   az284 in P -1
REM R1 =  0.0783 for    1686 Fo > 4sig(Fo)  and  0.0964 for all    2531 data
REM    197 parameters refined using      0 restraints

END

WGHT      0.1526      0.0000

REM Highest difference peak  0.430,  deepest hole -0.419,  1-sigma level  0.094
Q1    1   0.2000  0.4753  0.1150  11.00000  0.05    0.42
Q2    1   0.1579  0.3767  0.2456  11.00000  0.05    0.34
Q3    1   0.3138  0.1056  0.2184  11.00000  0.05    0.32
Q4    1   0.3370  0.1237  0.2974  11.00000  0.05    0.32
Q5    1   0.5136  0.3150  0.0707  11.00000  0.05    0.31
Q6    1   0.1603  0.6539 -0.0174  11.00000  0.05    0.31
Q7    1   0.6070  0.3853  0.1879  11.00000  0.05    0.26
Q8    1   0.5218 -0.1783  0.1395  11.00000  0.05    0.26
Q9    1   0.4412  0.1191  0.1560  11.00000  0.05    0.25
Q10   1   0.4541 -0.0971  0.1650  11.00000  0.05    0.25
Q11   1  -0.0032  0.1607  0.4622  11.00000  0.05    0.25
Q12   1   0.5011 -0.0951  0.0668  11.00000  0.05    0.24
Q13   1   0.1818  0.3839  0.1435  11.00000  0.05    0.23
Q14   1   0.0288  0.1013  0.5507  11.00000  0.05    0.23
Q15   1   0.2502 -0.0384  0.4563  11.00000  0.05    0.22
Q16   1   0.5324  0.3456  0.1495  11.00000  0.05    0.22
Q17   1   0.2044 -0.2657  0.2317  11.00000  0.05    0.22
Q18   1   0.1187  0.1813  0.4816  11.00000  0.05    0.22
Q19   1  -0.1835  0.6647  0.1534  11.00000  0.05    0.22
Q20   1   0.0373  0.7531  0.1154  11.00000  0.05    0.22
;
_shelx_res_checksum              20396
_shelx_hkl_file
;
  -9  -8  -5    0.44    2.13   3-0.92702-0.22011-0.03774-0.61439 0.12189-0.24356
  -6  -6  -7    9.72    3.36   2-0.92263 0.24760-0.04596-0.26513 0.11456-0.77895
  -3  -6  -4    3.54    2.12   2-0.91840 0.77431-0.05354-0.64695 0.10777-0.29756
  -3  -5  -5  436.01   10.39   3-0.92798 0.73657-0.03591-0.40385 0.12352-0.56387
 -10  -7  -5    4.03    2.35   4-0.93776-0.47094-0.01596-0.38032 0.14117-0.31844
  -9  -8  -4    3.56    2.36   4-0.93734-0.23158-0.01685-0.70168 0.14038-0.08405
  -9  -7  -6    8.35    2.89   4-0.93728-0.26521-0.01698-0.37200 0.14027-0.50747
  -8  -8  -5   15.70    3.24   3-0.93556-0.02695-0.02065-0.69108 0.13703-0.26925
  -7  -8  -5    1.97    2.59   3-0.93161 0.15939-0.02876-0.74464 0.12987-0.27742
  -6  -7  -6   36.02    4.42   3-0.93410 0.30651-0.02369-0.54891 0.13435-0.54838
  -5  -7  -5  183.59    7.52   3-0.93596 0.48541-0.01980-0.68326 0.13778-0.39266
  -4  -5  -6    0.78    2.17   3-0.93237 0.56285-0.02724-0.28054 0.13121-0.73023
  -8  -8  -4    2.38    2.69   4-0.94504-0.03324 0.00064-0.78096 0.15571-0.11382
  -8  -7  -6   11.03    3.29   5-0.94603-0.06461 0.00303-0.45322 0.15780-0.54158
  -7  -7  -6   77.93    5.76   4-0.94495 0.12486 0.00042-0.51193 0.15552-0.55335
  -5  -6  -6  240.59    8.43   4-0.94046 0.44145-0.01001-0.43140 0.14640-0.65209
  -4  -6  -5   14.98    2.99   4-0.94000 0.61817-0.01102-0.55924 0.14551-0.49405
 -10  -7  -4    5.28    2.29   5-0.95266-0.46992 0.02027-0.48215 0.17275-0.17821
  -9  -6  -6   16.69    3.43   5-0.95339-0.31010 0.02230-0.21783 0.17450-0.61847
  -6  -7  -5  106.65    6.12   6-0.95438 0.31306 0.02512-0.66732 0.17693-0.41662
  -5  -7  -4  440.15   11.10   5-0.95047 0.48667 0.01433-0.78586 0.16761-0.24905
 -10  -7  -3    2.63    1.97   6-0.95705-0.48086 0.03307-0.56394 0.18376-0.01569
 -10  -6  -5    2.04    1.98   6-0.95689-0.51391 0.03256-0.23385 0.18333-0.43664
  -9  -7  -5    2.77    2.57   6-0.95770-0.25896 0.03510-0.49111 0.18550-0.37919
  -6  -6  -6  833.48   15.40   6-0.95622 0.26629 0.03054-0.41086 0.18159-0.67177
  -5  -5  -6   49.18    4.30   6-0.95689 0.39636 0.03256-0.28074 0.18333-0.76605
  -4  -6  -4   22.93    3.18   6-0.95850 0.62247 0.03763-0.67625 0.18766-0.36151
  -8  -7  -5    0.95    2.82   7-0.96324-0.06205 0.05405-0.57192 0.20165-0.41053
  -8  -6  -6   34.97    4.29   7-0.96194-0.11169 0.04925-0.30570 0.19758-0.65577
  -7  -7  -5    7.83    3.16   7-0.96222 0.12930 0.05026-0.62944 0.19844-0.42359
  -7  -6  -6   27.85    4.10   7-0.96236 0.08131 0.05077-0.36831 0.19887-0.67390
  -6  -7  -4   75.51    5.40   7-0.96517 0.30876 0.06162-0.77157 0.20805-0.27340
  -5  -6  -5  418.76   10.62   7-0.96291 0.45027 0.05279-0.56284 0.20058-0.53210
  -4  -5  -5    6.86    2.34   7-0.96236 0.57908 0.05077-0.42956 0.19887-0.62269
 -10  -6  -4    0.78    2.17   8-0.96936-0.51479 0.08099-0.35201 0.22432-0.30388
  -9  -7  -4    0.35    2.18   8-0.96699-0.25583 0.06943-0.59630 0.21463-0.23903
  -9  -7  -3   16.71    3.30   9-0.97033-0.27281 0.08631-0.68271 0.22875-0.07403
  -9  -6  -5   12.68    3.10   9-0.97027-0.30728 0.08601-0.35075 0.22850-0.49893
  -7  -7  -4   91.41    5.81   9-0.97020 0.12339 0.08560-0.73503 0.22816-0.27837
  -8  -7  -4   52.88    4.72   9-0.97074-0.06693 0.08877-0.67668 0.23080-0.26586
  -6  -6  -5  213.64    8.08   9-0.97158 0.26726 0.09402-0.54242 0.23516-0.55107
  -5  -6  -4    7.94    2.60   9-0.97280 0.44532 0.10286-0.68129 0.24247-0.40016
 -10  -6  -3    8.64    2.58  10-0.97359-0.52448 0.10975-0.44933 0.24814-0.15487
 -10  -6  -2    1.05    2.17  10-0.97442-0.53852 0.11894-0.52761 0.25567 0.01289
 -10  -5  -4    2.19    2.39  10-0.97451-0.57175 0.12014-0.19756 0.25665-0.41135
  -9  -5  -5   11.15    3.21  10-0.97452-0.36677 0.12018-0.18978 0.25668-0.60251
  -8  -7  -3    3.51    2.80  10-0.97345-0.07938 0.10850-0.76530 0.24711-0.10746
  -8  -6  -5   -0.19    2.66  10-0.97374-0.10604 0.11124-0.43639 0.24936-0.53811
  -7  -6  -5   85.42    5.58  10-0.97391 0.07825 0.11298-0.49989 0.25079-0.55147
  -5  -5  -5  335.82    9.40  10-0.97381 0.39871 0.11199-0.42880 0.24997-0.65831
  -4  -5  -4  168.59    6.64  10-0.97429 0.57674 0.11721-0.56341 0.25425-0.50480
  -9  -6  -4    4.46    2.61  11-0.97523-0.31743 0.13330-0.46494 0.26734-0.36333
  -6  -6  -4    0.90    3.12  12-0.97542 0.25641 0.14333-0.65959 0.27544-0.41842
  -5  -6  -3   46.16    3.99  11-0.97537 0.43518 0.13872-0.78540 0.27172-0.25631
 -10  -5  -3   -0.27    2.43  13-0.97498-0.57797 0.16137-0.31102 0.28988-0.27681
  -9  -6  -3    0.62    2.26  13-0.97489-0.33252 0.16295-0.56422 0.29113-0.21251
  -8  -6  -4    4.00    2.81  12-0.97515-0.12751 0.15759-0.54993 0.28687-0.39923
  -8  -5  -5    2.14    3.18  12-0.97533-0.17371 0.15197-0.28351 0.28238-0.64403
  -7  -6  -4  208.95    8.17  12-0.97499 0.06524 0.16115-0.61663 0.28970-0.41599
  -7  -5  -5   10.86    3.46  12-0.97503 0.01539 0.16037-0.35368 0.28907-0.66605
  -6  -5  -5  474.65   11.43  12-0.97540 0.20911 0.14756-0.40321 0.27884-0.67154
 -10  -5  -2   42.53    4.01  14-0.97309-0.60115 0.18300-0.39884 0.30696-0.11697
  -9  -6  -2   21.16    3.64  13-0.97374-0.34688 0.17726-0.64759 0.30244-0.04972
  -9  -5  -4   55.68    4.93  13-0.97362-0.38218 0.17835-0.31656 0.30331-0.47473
  -6  -6  -3  379.80   10.31  13-0.97357 0.24173 0.17881-0.76420 0.30367-0.27207
  -5  -5  -4   -0.06    2.23  13-0.97374 0.38418 0.17726-0.56161 0.30244-0.53770
 -10  -5  -1   31.93    3.62  14-0.97253-0.61556 0.18736-0.47204 0.31037 0.05413
 -10  -4  -3    7.92    2.71  14-0.97212-0.65049 0.19024-0.14388 0.31262-0.37098
  -8  -6  -3   29.90    3.98  14-0.97226-0.14288 0.18928-0.65254 0.31187-0.24864
  -7  -6  -3   65.13    4.79  14-0.97146 0.04742 0.19455-0.71907 0.31598-0.26811
  -9  -5  -3    1.31    2.96  15-0.96671-0.40277 0.21824-0.42641 0.33425-0.33213
  -9  -4  -4   25.38    3.77  15-0.96960-0.44711 0.20502-0.15079 0.32409-0.57265
  -8  -6  -2    2.58    2.60  15-0.96941-0.16182 0.20597-0.73705 0.32482-0.08770
  -8  -5  -4   33.79    4.01  15-0.96873-0.19588 0.20929-0.40922 0.32738-0.51487
  -7  -6  -2   81.88    5.40  15-0.96791 0.03054 0.21306-0.80632 0.33028-0.10978
  -7  -5  -4    0.84    2.83  15-0.96642-0.00593 0.21942-0.48142 0.33515-0.53897
  -6  -5  -4    1.30    2.37  15-0.96853 0.18767 0.21023-0.53303 0.32811-0.54727
 -10  -4  -2   -1.16    2.23  16-0.96504-0.66585 0.22480-0.25056 0.33925-0.22868
 -10  -4  -1   19.06    3.20  17-0.96036-0.68982 0.24076-0.33287 0.35131-0.06324
 -10  -4   0   25.75    3.79  17-0.96116-0.70392 0.23825-0.39780 0.34942 0.11270
  -5  -5  -3    1.93    2.21  16-0.96416 0.36024 0.22807-0.67986 0.34174-0.40425
  -5  -4  -4  153.59    6.49  16-0.96151 0.30947 0.23713-0.42877 0.34859-0.65953
 -10  -3  -2   -0.45    2.27  17-0.95873-0.73436 0.24567-0.07829 0.35499-0.32014
  -9  -5  -2   13.90    3.16  17-0.95951-0.42320 0.24337-0.52067 0.35327-0.17706
  -9  -5  -1   66.99    4.88  17-0.95630-0.44033 0.25254-0.59892 0.36012-0.01032
  -9  -4  -3   96.34    5.91  17-0.95492-0.47622 0.25620-0.27086 0.36284-0.43662
  -8  -5  -3   58.65    4.77  17-0.95696-0.22056 0.25071-0.52002 0.35875-0.37269
  -8  -4  -4   42.79    4.48  17-0.95920-0.26608 0.24429-0.25116 0.35396-0.61874
  -6  -5  -3    2.14    2.70  17-0.95476 0.15983 0.25664-0.64850 0.36316-0.40948
 -10  -3  -1    0.60    2.43  19-0.94723-0.76287 0.27461-0.17259 0.37638-0.16307
 -10  -3   1   24.65    3.25  18-0.94959-0.79215 0.26930-0.30428 0.37249 0.18544
  -9  -3  -3    0.65    2.89  19-0.94659-0.54630 0.27601-0.09759 0.37740-0.52790
  -8  -5  -2   11.52    3.22  19-0.94598-0.24490 0.27733-0.61689 0.37836-0.21752
  -7  -5  -3    4.76    2.93  18-0.95197-0.03464 0.26367-0.59459 0.36835-0.39711
  -7  -4  -4    2.92    2.74  18-0.95225-0.08168 0.26299-0.33135 0.36785-0.64749
  -6  -4  -4  139.92    6.39  18-0.95298 0.11004 0.26118-0.39170 0.36652-0.66162
  -5  -5  -2   13.23    2.56  18-0.95225 0.33571 0.26299-0.78485 0.36785-0.25602
 -10  -3   0   11.63    2.91  19-0.94408-0.78333 0.28135-0.24834 0.38128 0.00568
 -10  -2  -1    1.07    2.15  19-0.94343-0.83175 0.28268 0.01254 0.38224-0.24524
  -9  -4  -2   18.50    3.62  19-0.93977-0.50699 0.28996-0.37189 0.38750-0.28793
  -8  -5  -1   48.11    4.70  19-0.93977-0.26582 0.28995-0.69733 0.38749-0.05324
  -8  -4  -3    2.00    3.16  19-0.93781-0.30390 0.29368-0.37052 0.39017-0.48116
  -7  -5  -2   30.75    4.19  20-0.93837-0.06167 0.29263-0.69216 0.38941-0.24573
  -6  -5  -2  123.66    6.13  19-0.93999 0.13157 0.28953-0.75018 0.38719-0.25851
 -10  -2   0   24.78    3.27  20-0.93285-0.85683 0.30261-0.07335 0.39653-0.08833
 -10  -2   1    5.35    2.24  20-0.93310-0.87051 0.30218-0.14356 0.39622 0.08489
 -10  -1   0   22.10    3.36  20-0.93482-0.91669 0.29914 0.12292 0.39406-0.16187
 -10  -1   1   20.79    3.60  21-0.92844-0.93790 0.31006 0.04378 0.40180 0.00505
  -9  -4  -1   10.91    3.17  20-0.92912-0.52922 0.30896-0.46242 0.40102-0.12655
  -9  -4   0  171.26    7.52  21-0.92715-0.54611 0.31217-0.53407 0.40328 0.04304
  -7  -5  -1    8.12    2.96  20-0.92982-0.08388 0.30779-0.77641 0.40019-0.08196
  -5  -4  -3  142.87    6.12  20-0.93409 0.26872 0.30044-0.56073 0.39499-0.53242
  -9  -3  -2    3.80    2.97  21-0.92303-0.58487 0.31867-0.20921 0.40784-0.38453
  -8  -3  -3   30.01    3.83  21-0.91996-0.38170 0.32332-0.20594 0.41107-0.57802
  -7  -4  -3  112.57    6.08  21-0.92494-0.12334 0.31570-0.45315 0.40576-0.51162
  -6  -4  -3   10.51    2.73  21-0.92330 0.06639 0.31825-0.51639 0.40754-0.53041
  -9  -3  -1   30.12    4.23  23-0.90360-0.61777 0.34579-0.30485 0.42645-0.22984
  -8  -4  -2   29.66    3.81  22-0.91534-0.33886 0.33003-0.47555 0.41571-0.33087
  -9  -3   0   94.40    5.92  23-0.89305-0.64234 0.35862-0.38597 0.43504-0.06459
  -9  -3   1    2.72    2.47  23-0.89544-0.65549 0.35581-0.45294 0.43317 0.11270
  -8  -4  -1   40.81    4.36  23-0.89961-0.36845 0.35078-0.56444 0.42980-0.17245
  -8  -4   0   51.10    4.89  23-0.89329-0.38872 0.35834-0.64072 0.43485-0.00310
  -7  -4  -2   29.40    3.67  23-0.89779-0.16513 0.35300-0.55934 0.43129-0.36265
  -7  -3  -3   50.05    4.55  23-0.89878-0.21187 0.35179-0.29593 0.43048-0.61259
  -6  -4  -2   50.04    4.01  23-0.89238 0.02166 0.35940-0.62689 0.43555-0.38409
  -9  -2  -1   25.15    3.65  24-0.88643-0.69745 0.36614-0.13138 0.43999-0.32018
  -8  -3  -2   -0.85    2.60  24-0.88679-0.42386 0.36574-0.31889 0.43973-0.43593
  -7  -4  -1    3.92    3.18  25-0.87765-0.20003 0.37557-0.65115 0.44614-0.20388
  -6  -3  -3   91.50    5.19  24-0.88890-0.03002 0.36338-0.36936 0.43818-0.63592
  -9  -2   0   11.91    3.04  25-0.86706-0.73120 0.38623-0.22084 0.45296-0.15736
  -9  -2   1   51.97    4.80  26-0.86128-0.75080 0.39173-0.29549 0.45644 0.01022
  -9  -2   2   16.09    2.93  25-0.87016-0.75663 0.38319-0.35538 0.45103 0.19077
  -9  -1   3    6.81    2.79  26-0.86114-0.84194 0.39187-0.24057 0.45653 0.28082
  -8  -2  -2   14.79    3.22  25-0.86706-0.51182 0.38623-0.14490 0.45296-0.52103
  -7  -4   0   50.36    4.48  25-0.86745-0.22323 0.38585-0.72933 0.45272-0.03763
  -6  -4  -1   25.96    3.34  25-0.86745-0.01729 0.38585-0.72208 0.45272-0.22710
  -9  -1   0    2.67    2.73  26-0.85445-0.80621 0.39801-0.03919 0.46037-0.24050
  -9   1   3    0.05    1.58  27-0.84653-0.97956 0.40497 0.12988 0.46467 0.12038
  -8  -3  -1    4.43    3.16  26-0.85973-0.47078 0.39318-0.41375 0.45735-0.27558
  -8  -3   0  107.02    6.16  27-0.84388-0.50024 0.40723-0.49712 0.46605-0.11127
  -7  -3  -2  189.75    7.45  26-0.85710-0.26758 0.39560-0.40866 0.45887-0.46750
  -9  -1   1    3.98    2.41  27-0.83968-0.83478 0.41075-0.12138 0.46819-0.07539
  -9  -1   2    0.71    2.22  27-0.84076-0.84801 0.40985-0.18925 0.46764 0.09943
  -9   0   1    7.24    2.61  27-0.83685-0.89963 0.41307 0.07175 0.46959-0.15557
  -9   0   2   23.46    3.48  27-0.82913-0.92173 0.41925-0.00331 0.47329 0.01508
  -9   0   3   11.52    2.58  27-0.84184-0.92447 0.40895-0.06119 0.46710 0.19486
  -9   1   2    0.50    2.01  27-0.84206-0.96908 0.40877 0.19472 0.46699-0.05658
  -8  -3   1  218.71    8.15  27-0.84163-0.51656 0.40913-0.56770 0.46721 0.06087
  -8  -2  -1    2.39    2.97  28-0.82847-0.56416 0.41976-0.24717 0.47359-0.36832
  -6  -3  -2   43.77    3.76  27-0.83882-0.09463 0.41147-0.48558 0.46862-0.49252
  -8  -1  -1    1.89    3.00  28-0.81185-0.64266 0.43220-0.06634 0.48087-0.45201
  -7  -3  -1   33.94    3.91  28-0.82231-0.31688 0.42450-0.50628 0.47639-0.31076
  -7  -2  -2   -0.34    2.34  28-0.82436-0.35926 0.42293-0.24351 0.47547-0.56213
  -8  -2   0    1.45    2.95  29-0.80132-0.60553 0.43958-0.33579 0.48507-0.20561
  -8  -2   1   10.26    4.06  30-0.78949-0.63121 0.44744-0.41244 0.48945-0.03769
  -8  -2   2  175.29    7.65  29-0.79421-0.64063 0.44435-0.47758 0.48774 0.13796
  -7  -3   0    2.53    2.54  29-0.79986-0.35289 0.44057-0.59039 0.48563-0.14759
  -7  -3   1  104.07    6.21  29-0.79352-0.37343 0.44481-0.66391 0.48800 0.02480
  -6  -3  -1   66.03    4.58  29-0.79594-0.15161 0.44320-0.58582 0.48710-0.33731
  -6  -2  -2   50.56    4.03  29-0.79115-0.20478 0.44636-0.32705 0.48885-0.58894
  -8  -1   0   13.82    3.47  30-0.77284-0.69497 0.45783-0.16052 0.49507-0.29237
  -8   2   5   -0.00    1.43  31-0.77085-0.95289 0.45901 0.06937 0.49569 0.34421
  -8   3   4    5.40    2.21  31-0.77065-0.99962 0.45913 0.33386 0.49576 0.09712
  -7  -2  -1  150.54    6.82  30-0.77475-0.42652 0.45667-0.34476 0.49445-0.40542
  -6  -3   0   25.21    3.35  31-0.76764-0.19462 0.46091-0.67276 0.49669-0.17313
  -8  -1   1   84.16    5.57  31-0.75045-0.73241 0.47066-0.24099 0.50171-0.12581
  -8  -1   2   24.98    4.41  32-0.74652-0.75115 0.47279-0.31277 0.50278 0.04819
  -8  -1   3  224.30    8.04  31-0.76270-0.74900 0.46379-0.37322 0.49820 0.22386
  -8   0   0   35.62    4.17  31-0.76534-0.76581 0.46226 0.03009 0.49740-0.37178
  -8   0   4    4.98    2.78  31-0.75359-0.83547 0.46893-0.25295 0.50083 0.31991
  -8   0   1   32.47    4.22  32-0.73208-0.81305 0.48033-0.05697 0.50647-0.20797
  -8   0   3   23.45    3.63  33-0.72444-0.85012 0.48415-0.19901 0.50828 0.13810
  -8   1   1    6.02    2.85  32-0.73740-0.87015 0.47761 0.13802 0.50515-0.28074
  -8   1   4    2.31    2.56  32-0.72838-0.92110 0.48220-0.07362 0.50736 0.23862
  -8   2   4   71.32    4.80  32-0.73264-0.97968 0.48005 0.12405 0.50633 0.16080
  -7  -2   0   23.14    3.65  32-0.73935-0.47674 0.47659-0.43339 0.50466-0.24168
  -7  -2   2   67.62    5.40  33-0.72313-0.52085 0.48479-0.57966 0.50858 0.10140
  -7  -1  -1  189.06    7.46  32-0.74267-0.52063 0.47485-0.16923 0.50380-0.49130
  -6  -2  -1   95.82    5.48  32-0.72969-0.28004 0.48154-0.43097 0.50705-0.43369
  -8   0   2   53.01    4.52  33-0.71756-0.84213 0.48749-0.13330 0.50984-0.03626
  -8   1   2  105.07    5.83  33-0.71264-0.90912 0.48982 0.05832 0.51090-0.11507
  -8   1   3    6.93    2.65  33-0.70914-0.92683 0.49145-0.01442 0.51164 0.06107
  -8   2   3    3.67    2.11  33-0.72187-0.97598 0.48541 0.18628 0.50887-0.01345
  -7  -2   1    9.59    3.17  33-0.72129-0.50804 0.48569-0.51206 0.50900-0.07241
  -7  -1   0   45.46    4.37  34-0.69346-0.58417 0.49848-0.26154 0.51472-0.32832
  -6  -2   0   14.01    2.94  34-0.68473-0.33952 0.50222-0.52160 0.51629-0.26819
  -6  -1  -1   13.66    3.02  34-0.67951-0.39316 0.50439-0.26068 0.51718-0.52022
  -7  -1   1    6.78    2.96  35-0.66351-0.62722 0.51079-0.34433 0.51970-0.15954
  -7  -1   2  848.93   15.39  36-0.65451-0.65187 0.51421-0.41533 0.52097 0.01261
  -7  -1   3   84.83    5.52  35-0.66755-0.65286 0.50921-0.47939 0.51909 0.18743
  -7   0   0    7.98    3.25  35-0.67003-0.67000 0.50823-0.07931 0.51871-0.40760
  -7   2   6    3.26    2.25  35-0.67373-0.87610 0.50675-0.10447 0.51813 0.48468
  -7   3   6    4.64    2.24  35-0.67188-0.94180 0.50749 0.09346 0.51842 0.40260
  -7   4   5    0.07    1.71  35-0.66444-0.99534 0.51042 0.34406 0.51956 0.15308
  -6  -2   1    4.48    2.49  35-0.66007-0.37814 0.51211-0.60104 0.52020-0.09742
  -7   0   1  585.07   12.75  37-0.62794-0.72660 0.52365-0.16228 0.52420-0.24097
  -7   0   4    3.95    2.80  36-0.63654-0.76069 0.52070-0.36726 0.52324 0.28411
  -7   1   5   29.35    3.66  36-0.63525-0.83851 0.52115-0.24232 0.52339 0.37899
  -7   0   2    6.05    3.20  37-0.60614-0.76077 0.53070-0.23869 0.52629-0.06902
  -7   0   3  248.73    8.58  37-0.60969-0.77321 0.52959-0.30590 0.52598 0.10461
  -7   1   1  134.13    6.48  37-0.61697-0.79906 0.52727 0.02839 0.52531-0.31827
  -7   2   5    8.60    2.63  37-0.61036-0.92596 0.52938-0.05604 0.52592 0.29911
  -7   3   3    1.53    2.54  38-0.60132-0.96770 0.53217 0.27017 0.52668-0.12284
  -7   3   5   -0.59    2.13  37-0.61730-0.97964 0.52716 0.13318 0.52528 0.22206
  -6  -1   0  380.70   10.01  37-0.61730-0.46882 0.52716-0.35201 0.52528-0.35496
  -7   1   2    2.07    2.99  38-0.58480-0.84497 0.53703-0.05257 0.52787-0.14526
  -7   1   3   -0.18    3.28  39-0.57590-0.86731 0.53951-0.12386 0.52841 0.02815
  -7   1   4   11.83    3.29  38-0.59294-0.86697 0.53468-0.18504 0.52732 0.20116
  -7   2   2   14.20    3.18  38-0.59159-0.90026 0.53507 0.14509 0.52742-0.22210
  -7   2   3    1.89    2.68  38-0.57536-0.93433 0.53966 0.07050 0.52844-0.04881
  -7   2   4   38.62    4.10  38-0.57736-0.94295 0.53911 0.00308 0.52832 0.12394
  -7   3   4   14.28    2.91  38-0.59496-0.98773 0.53408 0.20197 0.52717 0.04724
  -6  -1   1    2.90    2.58  38-0.57865-0.52169 0.53875-0.43380 0.52825-0.18290
  -6   0   0  304.31    9.00  38-0.57522-0.57320 0.53970-0.17170 0.52845-0.43501
  -6   3   7    0.42    2.10  39-0.57585-0.85750 0.53952-0.07415 0.52841 0.55531
  -6   4   7   10.07    2.54  38-0.58121-0.91625 0.53804 0.12505 0.52810 0.47505
  -6  -1   2   43.00    4.19  39-0.56381-0.55099 0.54274-0.50515 0.52902-0.01076
  -6   5   6   30.10    3.65  39-0.56659-0.97715 0.54201 0.38476 0.52889 0.22415
  -6   0   1  237.70    8.13  40-0.52068-0.64152 0.55300-0.25269 0.53019-0.26232
  -6   0   4  560.08   12.74  41-0.52025-0.68516 0.55309-0.45927 0.53019 0.25876
  -6   2   6    3.39    3.11  41-0.51634-0.84145 0.55393-0.21347 0.53022 0.45627
  -6   5   5    0.91    1.98  40-0.53818-0.99100 0.54907 0.44034 0.52990 0.05351
  -5   5   8   15.46    2.63  41-0.51794-0.86531 0.55359 0.17033 0.53021 0.55722
  -6   0   2   97.75    5.83  41-0.49472-0.68240 0.55829-0.32687 0.53018-0.08857
  -6   0   3   23.07    3.88  41-0.49466-0.69743 0.55830-0.39534 0.53017 0.08565
  -6   1   1   27.82    3.90  41-0.49338-0.73123 0.55854-0.06485 0.53016-0.33795
  -6   1   5   51.35    4.72  41-0.49999-0.78265 0.55727-0.33880 0.53022 0.35627
  -6   3   6   38.25    3.99  41-0.49374-0.92656 0.55847-0.02176 0.53016 0.37674
  -6   4   6   29.35    3.35  41-0.50873-0.97407 0.55551 0.17439 0.53025 0.29995
  -5  -1   1   62.11    4.23  41-0.49633-0.41265 0.55798-0.51281 0.53019-0.20204
  -5   6   7    0.52    1.80  42-0.49138-0.93872 0.55892 0.42148 0.53014 0.30633
  -6   4   5    0.45    2.32  42-0.47195-0.99556 0.56241 0.22975 0.52975 0.12522
  -5  -1   2  146.81    6.31  42-0.47715-0.44613 0.56151-0.58545 0.52988-0.02901
  -2   3  11    0.63    2.32   3-0.27132-0.45429-0.37120 0.31593 0.97973 0.73528
  -1   4  11    0.79    2.17   3-0.27173-0.32474-0.37014 0.45368 0.97972 0.63877
  -1   5  10    7.99    2.65   2-0.28003-0.36447-0.34809 0.68680 0.97915 0.39565
   0   5   5   96.72    5.15   2-0.27882-0.10336-0.35134 0.97339 0.97927-0.49070
  -3   3  10   34.54    3.66   3-0.26748-0.63573-0.38118 0.45726 0.97980 0.57876
  -3   4   7   18.31    3.62   3-0.25989-0.66241-0.40053 0.87559 0.97959-0.01998
  -3   4   8   59.32    4.81   3-0.26468-0.67202-0.38838 0.79596 0.97977 0.15291
  -2   4  10    2.23    2.53   3-0.26390-0.51154-0.39038 0.59804 0.97976 0.48611
  -1   5   6    0.38    2.46   3-0.26779-0.31941-0.38038 0.99469 0.97980-0.30143
  -1   5   9  242.62    8.70   3-0.25997-0.37091-0.40034 0.80745 0.97960 0.22208
   0   5  10   14.55    3.33   3-0.25918-0.19518-0.40231 0.67738 0.97955 0.38252
  -2   2  11    0.17    1.90   5-0.24351-0.42072-0.44077 0.19255 0.97772 0.81455
  -2   4   5   87.70    5.26   5-0.24506-0.45717-0.43704 0.98857 0.97798-0.38211
  -1   5   7   77.79    5.14   4-0.25379-0.34794-0.41576 0.96091 0.97912-0.12673
  -1   5   8  234.65    8.34   4-0.25139-0.36587-0.42166 0.89840 0.97886 0.04750
   0   4  11   27.36    3.60   4-0.25059-0.15418-0.42362 0.43710 0.97876 0.63215
   0   5   6  325.64    9.17   4-0.25043-0.14642-0.42402 0.97674 0.97874-0.31551
   1   5   6   15.59    2.65   4-0.24657 0.04064-0.43341 0.92579 0.97821-0.33120
  -2   4   9    6.82    3.43   5-0.23580-0.52440-0.45900 0.73559 0.97620 0.31580
  -1   3  11   -0.69    2.32   6-0.23283-0.30127-0.46591 0.34905 0.97551 0.72234
   0   5   7   27.57    3.99   5-0.23476-0.17579-0.46144 0.94568 0.97596-0.13965
   0   5   8    0.05    2.88   5-0.23242-0.19318-0.46687 0.88431 0.97541 0.03679
   0   5   9  228.29    8.43   5-0.23941-0.20015-0.45051 0.79636 0.97696 0.20897
  -3   2  10   15.29    2.86   6-0.22818-0.61348-0.47661 0.36035 0.97432 0.66063
  -3   3   9   79.76    5.15   6-0.22851-0.66055-0.47584 0.62051 0.97441 0.40998
  -2   3  10    0.60    2.40   7-0.21853-0.49358-0.49835 0.52025 0.97142 0.56695
  -2   4   6    1.56    2.44   6-0.22367-0.49281-0.48685 0.96896 0.97303-0.20244
  -2   4   8  176.96    7.57   6-0.21975-0.52587-0.49563 0.84017 0.97182 0.14642
  -1   4  10    4.35    2.80   6-0.22985-0.35275-0.47279 0.61803 0.97476 0.47726
   1   5   7    7.62    3.06   6-0.22818 0.00820-0.47661 0.89951 0.97432-0.15291
  -3   3   8   79.00    5.79   8-0.20446-0.67031-0.52894 0.74239 0.96620 0.24444
  -2   4   7    7.78    3.12   7-0.21573-0.51564-0.50453 0.91843 0.97047-0.02705
  -1   2  11   13.07    3.05   7-0.20643-0.26465-0.52472 0.21251 0.96700 0.81308
  -1   4   5   84.16    4.92   7-0.21335-0.29742-0.50975 0.99963 0.96963-0.38926
   0   3  11   23.63    3.35   7-0.21403-0.12813-0.50826 0.32791 0.96987 0.71763
   0   4  10   10.06    3.24   7-0.20822-0.18287-0.52088 0.60577 0.96770 0.46706
  -3   1  10    0.46    1.99   8-0.19681-0.58306-0.54505 0.23359 0.96288 0.74915
  -3   3   7   97.84    6.11   8-0.19237-0.66777-0.55426 0.83582 0.96081 0.07556
  -1   1  11    0.70    1.79   9-0.19031-0.22136-0.55848 0.05560 0.95981 0.89476
  -1   4   6   12.04    2.92   9-0.19043-0.33458-0.55824 0.97966 0.95987-0.20476
  -1   4   9    4.66    2.99   8-0.20185-0.36655-0.53449 0.74755 0.96510 0.31395
  -3   0  10    0.40    1.49  10-0.17762-0.54084-0.58397 0.08655 0.95318 0.83091
  -3   2   9    9.51    3.20   9-0.17871-0.64755-0.58181 0.53223 0.95378 0.50753
  -2   2  10    3.99    2.84  10-0.17700-0.47412-0.58519 0.40639 0.95283 0.66702
  -2   3   9   10.98    3.47   9-0.18082-0.51753-0.57763 0.65981 0.95493 0.41527
  -1   3  10   13.22    3.44   9-0.18241-0.33840-0.57445 0.52678 0.95578 0.57203
  -1   4   7  128.55    6.29   9-0.18153-0.35859-0.57622 0.92824 0.95531-0.02621
  -1   4   8    0.15    3.06   9-0.18577-0.36495-0.56770 0.85380 0.95754 0.13976
   0   4   9    0.60    2.93  10-0.17878-0.19604-0.58168 0.73774 0.95382 0.29949
   0   3  10   44.97    4.93  11-0.16137-0.16899-0.61529 0.50665 0.94348 0.56977
   0   4   6   11.24    2.78  10-0.16850-0.16602-0.60173 0.96162 0.94789-0.20853
   0   4   8  145.19    6.85  10-0.16353-0.19998-0.61122 0.83397 0.94484 0.14240
  -2   3   5   16.21    2.90  11-0.15766-0.48212-0.62224 0.98004 0.94108-0.26865
  -2   3   8    0.19    2.95  11-0.15621-0.52728-0.62495 0.77630 0.94012 0.25506
   0   4   7   35.88    4.00  11-0.15911-0.18949-0.61953 0.91101 0.94202-0.02932
  -3   1   9   21.92    3.66  12-0.13582-0.62882-0.66171 0.41894 0.92563 0.61200
  -3   2   8   -0.12    3.23  12-0.14562-0.66406-0.64431 0.67035 0.93283 0.34847
  -2   1  10    0.42    2.41  12-0.14452-0.44398-0.64630 0.28186 0.93205 0.75899
  -2   3   6  104.63    5.73  12-0.14305-0.51125-0.64893 0.93781 0.93099-0.08418
  -2   3   7  370.79   10.26  12-0.14360-0.52564-0.64794 0.86881 0.93138 0.08918
  -1   2  10    7.78    3.19  12-0.14121-0.31866-0.65221 0.41095 0.92964 0.67457
  -1   3   9   58.71    4.91  12-0.14525-0.36163-0.64498 0.66620 0.93257 0.42118
  -3   2   7    6.32    3.38  13-0.12416-0.67454-0.68180 0.77015 0.91648 0.19680
  -2  -1  10    0.47    1.87  14-0.11987-0.34526-0.68903-0.06251 0.91295 0.93061
  -2   0  10   16.71    3.18  13-0.12453-0.40054-0.68117 0.11471 0.91678 0.85628
  -2   2   9   16.23    3.78  13-0.12993-0.50642-0.67195 0.56292 0.92108 0.52335
  -1   3   8    9.05    4.02  13-0.11948-0.37323-0.68968 0.77960 0.91263 0.26661
   0   2  10    0.03    2.91  14-0.11987-0.14768-0.68903 0.39383 0.91295 0.66847
   0   3   9   41.61    4.53  13-0.12229-0.19385-0.68495 0.64453 0.91496 0.42368
  -3   0   9    0.30    3.10  15-0.10371-0.60029-0.71544 0.28860 0.89897 0.71158
  -1   1  10    8.17    3.09  14-0.10974-0.28760-0.70573 0.27307 0.90432 0.77538
  -1   3   6    0.46    2.79  14-0.10410-0.35954-0.71481 0.94307 0.89932-0.06800
  -1   3   7   14.83    3.71  14-0.10540-0.37201-0.71273 0.87170 0.90048 0.10497
  -3   1   8   77.66    5.60  15-0.09234-0.65883-0.73326 0.56067 0.88846 0.47450
  -2   1   9   68.38    5.34  16-0.08650-0.48761-0.74220 0.43846 0.88284 0.63920
  -2   2   8    0.53    3.14  15-0.09538-0.52626-0.72856 0.68674 0.89132 0.38029
  -1  -1  10    4.88    2.90  15-0.08917-0.18431-0.73814-0.08229 0.88542 0.94776
  -1   0  10   11.16    3.23  15-0.09046-0.24371-0.73617 0.10682 0.88665 0.87082
  -1   2   9   66.36    5.46  15-0.09386-0.35088-0.73092 0.55889 0.88989 0.54043
   0   1  10    0.45    3.01  16-0.08968-0.11654-0.73735 0.24951 0.88592 0.77248
   0   3   8   56.19    5.14  15-0.09519-0.20596-0.72885 0.75719 0.89114 0.27332
  -3  -2   9    0.88    2.22  16-0.07997-0.49984-0.75201-0.07023 0.87638 0.89074
  -3  -1   9   10.95    2.99  16-0.08302-0.55763-0.74745 0.11866 0.87942 0.81218
  -2   2   7  106.53    6.24  17-0.07189-0.53544-0.76386 0.79127 0.86817 0.22903
   0   3   6  161.23    6.61  16-0.07691-0.19553-0.75653 0.92252 0.87330-0.05717
   0   3   7   18.71    3.51  16-0.07958-0.20767-0.75258 0.85048 0.87600 0.11353
  -3   1   7    0.07    3.18  18-0.05926-0.67249-0.78182 0.68117 0.85477 0.32979
  -2   2   5  194.84    7.13  17-0.06157-0.51604-0.77859 0.94396 0.85727-0.10866
  -2   2   6  459.64   11.08  17-0.05946-0.53269-0.78153 0.87744 0.85500 0.06780
  -1   2   8    0.00    3.58  18-0.05801-0.37042-0.78355 0.68491 0.85341 0.39821
   0   2   9    1.21    3.36  17-0.07078-0.18262-0.76547 0.53224 0.86702 0.54700
  -3   0   8   20.79    3.83  18-0.04808-0.64040-0.79711 0.43114 0.84238 0.59753
  -2  -3   9   46.42    4.14  18-0.05117-0.27203-0.79294-0.28379 0.84585 0.98055
  -2   0   9   -0.32    2.87  18-0.05348-0.45795-0.78979 0.30114 0.84843 0.74433
  -2   1   8    2.72    3.45  19-0.04215-0.51828-0.80500 0.57049 0.83560 0.51328
  -1   1   9    8.34    3.53  18-0.05098-0.33120-0.79320 0.42720 0.84564 0.66143
  -3   1   6  106.52    5.86  19-0.03842-0.68307-0.80988 0.77411 0.83126 0.18376
  -2  -2   9   23.82    3.40  19-0.03087-0.35566-0.81958-0.06448 0.82232 0.92942
  -2  -1   9   86.07    5.50  19-0.03416-0.41443-0.81538 0.12495 0.82625 0.84924
  -1  -3   9   -0.06    1.55  20-0.02529-0.10998-0.82659-0.31115 0.81556 0.99591
  -1   2   7    0.47    3.10  19-0.03145-0.38460-0.81884 0.78479 0.82301 0.25883
   0   1   9    7.59    3.78  19-0.02895-0.16264-0.82201 0.39582 0.82001 0.66982
   0   2   8    0.87    3.19  19-0.03223-0.20674-0.81786 0.65339 0.82394 0.41588
  -3  -4   8   -0.06    1.51  20-0.01905-0.42394-0.83427-0.29818 0.80785 0.93564
  -3  -1   8    1.05    3.14  20-0.01556-0.61156-0.83849 0.27827 0.80347 0.71293
  -1   0   9    4.24    3.34  20-0.01944-0.30232-0.83380 0.27528 0.80833 0.77412
  -1   2   6  122.53    5.93  20-0.01595-0.38522-0.83803 0.87242 0.80396 0.10388
  -3  -3   8   36.77    3.93  22 0.00352-0.50655-0.86063-0.08510 0.77869 0.89077
  -3  -2   8   29.57    4.11  21 0.00276-0.56725-0.85977 0.10648 0.77971 0.81306
  -3   0   7  153.24    7.03  21-0.00488-0.66947-0.85107 0.55413 0.78978 0.47563
  -2   0   8   24.38    3.96  21 0.00179-0.49919-0.85869 0.43046 0.78099 0.64337
  -2   1   7    6.92    3.10  21-0.00663-0.53849-0.84905 0.68395 0.79205 0.38079
  -1  -2   9   67.01    4.85  21-0.00139-0.19338-0.85509-0.09125 0.78520 0.95073
  -1  -1   9   24.00    3.76  21-0.00216-0.25472-0.85420 0.10104 0.78622 0.87381
  -1   1   8  160.00    7.37  21-0.00391-0.36441-0.85219 0.55518 0.78851 0.54437
   0   0   9   12.15    3.38  21-0.00003-0.12869-0.85663 0.23591 0.78341 0.78399
   0   2   7   10.74    3.25  21-0.00352-0.22081-0.85264 0.75707 0.78801 0.27763
  -2   1   6   68.19    4.85  22 0.01897-0.54950-0.87741 0.78063 0.75756 0.24181
   0  -1   9   14.13    3.46  22 0.01395-0.08193-0.87206 0.05876 0.76454 0.87945
   0   1   8    2.41    3.43  23 0.02008-0.19741-0.87857 0.52134 0.75601 0.56114
   0   2   6  101.23    5.35  22 0.01433-0.22475-0.87248 0.84585 0.76400 0.12828
  -3   0   6   10.14    2.95  23 0.02907-0.68965-0.88781 0.65899 0.74325 0.34784
  -2  -4   8    1.61    2.44  23 0.02481-0.27518-0.88347-0.31770 0.74934 0.98086
  -2  -1   8   17.78    4.16  23 0.03262-0.46723-0.89136 0.26903 0.73812 0.76267
  -1   1   7   15.04    3.37  23 0.03424-0.38841-0.89296 0.66517 0.73576 0.42276
  -3  -5   7    2.03    2.25  24 0.04858-0.41188-0.90665-0.35718 0.71443 0.93344
  -3  -1   7   71.92    5.32  24 0.03798-0.65074-0.89661 0.40605 0.73028 0.61178
  -2  -3   8    4.71    2.92  24 0.04784-0.35966-0.90596-0.10143 0.71556 0.93808
  -2  -2   8   11.32    3.31  24 0.04815-0.42126-0.90625 0.09279 0.71508 0.86222
  -2   0   7    0.86    3.37  24 0.04765-0.53100-0.90579 0.54632 0.71584 0.53433
  -1  -4   8    7.32    2.66  24 0.04810-0.10293-0.90620-0.36126 0.71515 0.99930
  -1   0   8   52.87    4.97  24 0.03778-0.34410-0.89643 0.40621 0.73057 0.67863
  -3  -2   7    8.00    3.35  26 0.06650-0.61786-0.92247 0.23780 0.68661 0.73232
  -1  -1   8   13.14    3.48  25 0.06548-0.31010-0.92161 0.23837 0.68824 0.79765
  -1   1   6   28.86    3.39  25 0.06401-0.40354-0.92036 0.76186 0.69056 0.29354
   0   0   8   26.66    4.06  25 0.06035-0.17545-0.91720 0.36664 0.69630 0.69616
   0   1   7   57.21    4.54  25 0.06189-0.22445-0.91854 0.62901 0.69389 0.44932
  -3  -4   7   14.02    2.92  26 0.07570-0.50304-0.93004-0.14070 0.67182 0.89975
  -3  -3   7   24.00    3.93  26 0.08001-0.56922-0.93345 0.05731 0.66477 0.82934
  -3  -1   6   85.67    5.35  27 0.08288-0.68095-0.93568 0.51371 0.66003 0.50798
  -1  -3   8    2.28    2.73  26 0.07494-0.19734-0.92943-0.13120 0.67306 0.96233
  -1  -2   8   26.80    3.83  26 0.07883-0.26073-0.93253 0.05574 0.66670 0.89489
  -2  -5   7    8.02    2.49  27 0.08772-0.25549-0.93935-0.38695 0.65196 0.98200
  -2  -1   7   97.32    5.86  27 0.08753-0.50884-0.93921 0.38709 0.65228 0.67462
  -2   0   6   84.51    5.24  27 0.08563-0.55439-0.93778 0.64782 0.65546 0.42027
  -1   0   7   98.19    5.74  27 0.08677-0.37868-0.93864 0.51714 0.65355 0.58141
   0  -3   8    8.27    2.74  27 0.08525-0.01330-0.93749-0.19336 0.65610 0.96581
   0  -2   8    7.54    3.49  27 0.09436-0.08516-0.94421 0.00782 0.64074 0.90425
   0  -1   8    0.30    3.00  27 0.08525-0.13860-0.93749 0.19348 0.65610 0.81303
   0   1   6   28.11    3.31  27 0.09574-0.24446-0.94520 0.72480 0.63838 0.33034
  -3  -6   6   26.60    3.35  28 0.10195-0.38836-0.94951-0.43980 0.62768 0.92431
  -2  -2   7    4.28    3.33  29 0.11241-0.47356-0.95637 0.21120 0.60928 0.79438
  -1  -5   7    2.33    2.32  28 0.10773-0.08738-0.95337-0.43337 0.61756 0.99887
   0   0   7    0.66    2.83  29 0.11175-0.21210-0.95596 0.47708 0.61045 0.60667
  -3  -2   6   26.66    3.74  29 0.12074-0.65658-0.96147 0.34627 0.59427 0.65051
  -2  -4   7   11.23    2.97  29 0.11607-0.35139-0.95865-0.17441 0.60273 0.95374
  -2  -3   7    7.30    3.10  29 0.12261-0.42224-0.96257 0.02261 0.59086 0.88903
  -2   0   5   61.47    4.20  29 0.11625-0.57018-0.95877 0.73803 0.60239 0.29905
  -1  -1   7   88.36    5.48  29 0.12373-0.35390-0.96322 0.34891 0.58881 0.72231
  -3  -7   5    0.94    2.18  31 0.14170-0.35469-0.97279-0.54102 0.55515 0.89863
  -3  -5   6    9.17    2.67  30 0.13709-0.48822-0.97049-0.22459 0.56392 0.91002
  -3  -3   6   22.69    3.64  31 0.14233-0.61682-0.97309 0.16464 0.55395 0.76752
  -2  -6   6   15.98    2.99  30 0.13783-0.23343-0.97086-0.47914 0.56252 0.97238
  -2  -1   6   65.70    4.70  30 0.13598-0.54282-0.96992 0.48646 0.56602 0.58643
  -1  -4   7   47.37    4.41  30 0.14047-0.18375-0.97218-0.22168 0.55752 0.98270
  -1   0   6  182.72    7.00  30 0.12894-0.40630-0.96616 0.61423 0.57920 0.48128
  -3  -4   6   -0.00    2.30  31 0.14849-0.56111-0.97598-0.02605 0.54204 0.85524
  -1  -6   6   12.41    3.04  31 0.15391-0.05576-0.97836-0.53718 0.53143 0.98632
  -1  -3   7    8.34    3.19  31 0.15087-0.25865-0.97704-0.02242 0.53741 0.92633
  -1  -2   7  656.67   13.44  31 0.14519-0.31272-0.97446 0.16668 0.54844 0.83905
   0  -4   7   66.26    4.67  31 0.14922 0.00074-0.97631-0.28060 0.54062 0.98331
   0  -1   7  192.43    7.64  31 0.14593-0.18483-0.97480 0.29936 0.54702 0.74884
  -3  -8   4    0.87    1.58  32 0.16809-0.30479-0.98384-0.65091 0.50299 0.85123
  -3  -2   5    0.22    2.42  33 0.16889-0.68659-0.98412 0.44090 0.50134 0.56678
  -2  -2   6   58.69    4.77  32 0.16939-0.51366-0.98429 0.30690 0.50034 0.72862
   0  -3   7    7.68    3.01  32 0.16521-0.08028-0.98281-0.07960 0.50885 0.93923
   0  -2   7    7.36    3.13  32 0.16376-0.14186-0.98228 0.11436 0.51177 0.85941
   0   0   6   28.30    3.24  32 0.15833-0.24502-0.98018 0.56691 0.52266 0.52257
  -2  -7   5   69.88    4.67  33 0.17400-0.19237-0.98580-0.58874 0.49084 0.94683
  -2  -5   6    5.01    2.45  33 0.17382-0.33296-0.98575-0.27075 0.49121 0.96691
  -2  -3   6  130.21    6.36  34 0.18607-0.46907-0.98921 0.12001 0.46547 0.83983
  -2  -1   5   58.63    4.13  33 0.17846-0.57081-0.98716 0.57335 0.48156 0.49664
  -1  -7   5   59.48    4.58  34 0.18510-0.01198-0.98897-0.64783 0.46754 0.95436
  -1  -1   6   39.23    3.79  33 0.17525-0.39097-0.98619 0.44101 0.48824 0.64869
  -3  -6   5    9.24    2.81  34 0.18730-0.46047-0.98951-0.32976 0.46283 0.91406
  -3  -3   5  162.29    6.94  34 0.19749-0.65679-0.99166 0.25221 0.44076 0.70576
  -2  -8   4   22.82    3.21  34 0.19484-0.13320-0.99116-0.70986 0.44654 0.89320
  -2  -4   6   80.52    5.27  34 0.18801-0.40876-0.98968-0.07414 0.46132 0.92063
  -1  -8   4    0.14    1.53  35 0.19951 0.04682-0.99201-0.76935 0.43630 0.88846
  -1  -5   6    3.18    2.57  34 0.19484-0.16168-0.99116-0.32593 0.44654 0.99573
   0  -5   6   -0.24    2.35  35 0.19946 0.02133-0.99200-0.38156 0.43643 0.99299
  -3  -5   5    9.65    2.89  35 0.20680-0.54376-0.99308-0.13279 0.42009 0.87948
  -3  -4   5  244.30    8.40  35 0.20960-0.60762-0.99340 0.06151 0.41377 0.80974
  -1  -4   6   18.87    3.61  36 0.21265-0.24276-0.99369-0.13120 0.40683 0.96050
  -1  -2   6  138.53    6.42  35 0.20370-0.35707-0.99266 0.25391 0.42703 0.78623
   0  -1   6    4.25    2.25  35 0.20093-0.22462-0.99224 0.38767 0.43317 0.68645
  -3  -7   4    6.67    2.66  37 0.22533-0.42227-0.99427-0.45014 0.37743 0.90142
  -2  -6   5   10.24    2.63  36 0.21974-0.30292-0.99414-0.38632 0.39051 0.96992
  -2  -2   5  110.18    5.51  36 0.21974-0.55001-0.99414 0.38664 0.39051 0.66425
  -1  -3   6   41.21    4.12  36 0.21585-0.30657-0.99394 0.06160 0.39951 0.89043
  -1  -1   5 1355.19   18.03  36 0.22227-0.42321-0.99423 0.51809 0.38462 0.57820
   0  -4   6   18.00    3.82  36 0.22511-0.06292-0.99427-0.19274 0.37795 0.97218
   0  -2   6  873.78   15.17  36 0.22489-0.18722-0.99427 0.19433 0.37848 0.81886
  -1  -6   5    9.32    3.07  37 0.23712-0.12834-0.99383-0.44914 0.34922 0.99533
   0  -6   5   11.27    2.81  38 0.23948 0.06115-0.99363-0.51112 0.34346 0.98620
   0  -3   6    3.96    3.05  37 0.23245-0.13328-0.99412 0.00086 0.36050 0.91335
  -3  -8   3   -0.12    2.02  39 0.25167-0.37319-0.99192-0.57365 0.31314 0.86528
  -3  -6   4    6.06    2.77  39 0.25374-0.51284-0.99151-0.25890 0.30786 0.89497
  -3  -3   4  131.86    6.02  38 0.24652-0.69147-0.99277 0.32267 0.32607 0.64657
  -2  -7   4    9.78    2.90  39 0.25342-0.26107-0.99158-0.51330 0.30868 0.95422
  -2  -5   5   70.68    5.05  38 0.24214-0.38656-0.99335-0.19421 0.33693 0.94730
  -2  -4   5   16.47    3.21  38 0.24910-0.45603-0.99237-0.00147 0.31961 0.88825
  -2  -3   5   18.99    3.21  38 0.24214-0.51109-0.99335 0.19340 0.33693 0.79407
   0  -1   5 1439.87   18.59  38 0.25162-0.26182-0.99192 0.45475 0.31324 0.63368
  -3  -9   2    4.98    2.31  39 0.26024-0.30333-0.99003-0.70376 0.29118 0.79354
  -3  -5   4   23.38    3.48  40 0.26553-0.58758-0.98857-0.06792 0.27735 0.84895
  -3  -4   4   89.41    5.30  39 0.26398-0.64684-0.98902 0.12551 0.28142 0.76743
  -1  -5   5   18.82    3.48  39 0.26376-0.21825-0.98908-0.25884 0.28200 0.98576
  -1  -2   5   19.00    2.71  39 0.25676-0.39532-0.99086 0.32119 0.30014 0.73935
   0  -7   4   23.99    3.49  40 0.26522 0.11278-0.98866-0.63979 0.27818 0.95416
  -2  -8   3   24.42    3.53  40 0.27451-0.20462-0.98555-0.64364 0.25340 0.91259
  -2  -2   4    0.48    1.67  40 0.26634-0.58006-0.98833 0.44925 0.27521 0.60666
  -1  -7   4    1.81    2.16  40 0.26697-0.08271-0.98813-0.57839 0.27357 0.97338
  -1  -4   5  253.24    8.63  40 0.27506-0.29028-0.98534-0.07032 0.25191 0.93994
  -1  -3   5    0.64    2.41  40 0.27298-0.35133-0.98611 0.12305 0.25752 0.85872
   0  -8   3   62.78    4.61  41 0.27697 0.17826-0.98460-0.76805 0.24673 0.88687
   0  -5   5   13.36    3.42  40 0.27268-0.03352-0.98623-0.32431 0.25835 0.99364
  -3  -7   3    8.79    2.78  42 0.28854-0.47131-0.97938-0.39549 0.21465 0.89072
  -2  -9   2   25.19    3.41  41 0.28134-0.13275-0.98278-0.77187 0.23476 0.83367
  -2  -6   4   31.57    4.08  41 0.28418-0.35255-0.98150-0.33046 0.22687 0.96006
  -1  -9   2    7.77    2.28  41 0.28523 0.05266-0.98101-0.83586 0.22396 0.82629
  -1  -8   3    0.86    2.32  41 0.28388-0.02335-0.98164-0.70921 0.22770 0.92153
   0  -4   5   97.89    5.73  41 0.28859-0.11253-0.97936-0.13808 0.21451 0.96172
   0  -2   5    9.59    2.60  41 0.28028-0.22884-0.98324 0.25255 0.23767 0.78593
  -2  -3   4  187.01    6.98  42 0.29334-0.54698-0.97684 0.24469 0.20100 0.75601
   0  -3   5  127.04    6.21  42 0.29158-0.17719-0.97780 0.05330 0.20602 0.89366
   4  -4   5   -0.13    2.64   2 0.54064 0.39862-0.96502-0.38866 0.24309 0.86957
   4   0   5   68.26    4.84   2 0.53741 0.15554-0.96495 0.37569 0.23580 0.57139
   5  -2   5    7.92    3.75   2 0.53785 0.47229-0.96496-0.07319 0.23680 0.70656
   5  -1   5   70.26    5.36   2 0.53962 0.40698-0.96501 0.12072 0.24077 0.62756
   3  -7   3    0.59    2.13   3 0.52772 0.43628-0.96424-0.77876 0.21449 0.79526
   3  -6   4    0.28    2.10   3 0.53140 0.35554-0.96459-0.64712 0.22250 0.88649
   3   0   5   10.02    2.71   3 0.53277-0.02974-0.96470 0.43630 0.22550 0.59724
   5  -4   4    3.74    3.14   3 0.52539 0.62132-0.96396-0.39082 0.20947 0.71359
   2  -1   5    9.17    2.59   5 0.50976-0.13802-0.96118 0.30239 0.17676 0.73889
   3  -4   5   48.65    4.60   4 0.51762 0.23079-0.96277-0.33755 0.19301 0.93605
   4  -7   2    0.79    1.58   4 0.51535 0.65282-0.96235-0.77076 0.18829 0.63039
   4  -5   4   -0.35    2.27   4 0.51778 0.49813-0.96280-0.51602 0.19335 0.82282
   4  -3   5  179.97    7.62   4 0.51922 0.35876-0.96305-0.20570 0.19638 0.84074
   4  -2   5    0.05    2.94   5 0.51110 0.30462-0.96148-0.00761 0.17951 0.77738
   4  -1   5   15.61    3.61   4 0.51713 0.23765-0.96269 0.17891 0.19200 0.69245
   5  -6   2   21.00    3.12   4 0.51697 0.78205-0.96266-0.64124 0.19166 0.53550
   5  -5   3    1.76    2.71   5 0.51132 0.70936-0.96152-0.51523 0.17996 0.64363
   3  -3   5    7.34    3.64   5 0.49892 0.18883-0.95832-0.14960 0.15435 0.89785
   3  -1   5   26.48    3.36   5 0.50605 0.05838-0.96025 0.23801 0.16859 0.73091
   4  -6   3   16.61    3.02   5 0.50756 0.58551-0.96062-0.65108 0.17164 0.74649
   4   0   4   22.66    2.88   5 0.49993 0.20821-0.95861 0.43715 0.15635 0.47732
   5  -3   4   11.91    3.53   5 0.50300 0.58207-0.95946-0.20354 0.16247 0.68493
   5  -1   4   45.83    4.31   5 0.50130 0.45959-0.95899 0.18263 0.15907 0.53515
   3  -5   4    3.00    2.94   6 0.48396 0.34397-0.95342-0.47368 0.12535 0.90687
   3  -2   5   33.58    3.89   6 0.49507 0.13158-0.95716 0.04282 0.14679 0.82929
   4  -4   4   67.50    5.20   6 0.48389 0.47111-0.95340-0.33916 0.12522 0.81609
   5  -2   4  158.68    7.01   6 0.49507 0.52742-0.95716-0.01132 0.14679 0.62512
   4  -1   4  124.10    6.27   7 0.46972 0.30015-0.94781 0.23340 0.09873 0.61193
   5  -6   1   20.33    3.40   7 0.47112 0.84342-0.94839-0.58700 0.10130 0.45513
   5  -4   3  134.02    6.48   7 0.47677 0.68421-0.95069-0.33531 0.11181 0.63942
   3  -7   2   27.28    3.70   8 0.45554 0.52386-0.94140-0.73210 0.07306 0.76559
   3  -6   3    1.11    2.67   8 0.46118 0.44293-0.94404-0.60738 0.08318 0.85135
   4  -7   1   13.41    2.82   8 0.45772 0.72835-0.94243-0.72603 0.07696 0.57024
   4  -5   3   15.24    3.20   8 0.45791 0.57477-0.94252-0.47424 0.07731 0.76597
   4  -3   4    0.49    2.87   8 0.46309 0.43051-0.94490-0.15010 0.08664 0.77493
   4  -2   4    5.04    2.99   8 0.45753 0.37440-0.94234 0.03475 0.07662 0.71010
   5  -5   2   -1.81    2.30   8 0.46404 0.77301-0.94533-0.45990 0.08836 0.56571
   5  -3   3    8.01    3.57   8 0.45533 0.64574-0.94130-0.15352 0.07270 0.60066
   2  -9   0    0.22    1.31   9 0.44459 0.49586-0.93594-0.92473 0.05376 0.60274
   3  -4   4    0.60    2.68   9 0.45051 0.31514-0.93894-0.29465 0.06415 0.89149
   3  -1   4  100.93    5.41   9 0.44914 0.12942-0.93826 0.28600 0.06173 0.66370
   4  -6   2  126.26    6.06   9 0.44717 0.66076-0.93726-0.60486 0.05827 0.68857
   5  -2   3  199.33    7.69   9 0.45032 0.58690-0.93884 0.03883 0.06381 0.53438
   2  -6   3   14.02    3.32  10 0.42595 0.28519-0.92572-0.56215 0.02182 0.92880
   2  -4   4  254.40    8.66  10 0.42965 0.14241-0.92783-0.24139 0.02807 0.94337
   3  -3   4   42.41    4.25  10 0.43210 0.26959-0.92921-0.10948 0.03223 0.84692
   3  -2   4   40.25    3.83  10 0.43087 0.20898-0.92853 0.08289 0.03015 0.77259
   4  -4   3   51.39    5.16  10 0.42241 0.54759-0.92366-0.30145 0.01588 0.75086
   5  -4   2   30.87    3.72  10 0.42760 0.74780-0.92667-0.29072 0.02460 0.55263
   2  -8   1   15.42    3.19  11 0.41214 0.45216-0.91746-0.81944-0.00112 0.75934
   2  -7   2    4.24    2.48  11 0.40832 0.37868-0.91508-0.69939-0.00737 0.86140
   2  -3   4   66.46    4.77  11 0.41467 0.09611-0.91901-0.05719 0.00305 0.89150
   2  -2   4  623.74   12.37  11 0.41887 0.02997-0.92155 0.13897 0.00999 0.80761
   3  -8   0   23.17    3.49  11 0.40564 0.66287-0.91338-0.81848-0.01174 0.57802
   3  -5   3   58.32    4.98  11 0.41171 0.42781-0.91719-0.43860-0.00182 0.86102
   4  -7   0    9.63    2.88  12 0.40334 0.79729-0.91192-0.68792-0.01545 0.49061
   4  -3   3   -1.01    3.33  12 0.40351 0.50611-0.91202-0.11696-0.01519 0.70484
   4  -1   3   11.50    2.41  11 0.41803 0.36667-0.92105 0.27518 0.00860 0.52743
   1  -9   0    9.41    2.55  13 0.38569 0.36476-0.90016-0.90130-0.04356 0.71889
   3  -7   1   34.60    4.16  13 0.38514 0.60807-0.89978-0.70480-0.04443 0.71052
   3  -6   2    2.94    3.00  12 0.38814 0.52971-0.90184-0.58012-0.03972 0.79988
   4  -6   1   36.76    4.39  12 0.38740 0.73590-0.90134-0.57250-0.04087 0.61209
   4  -5   2    1.62    2.76  12 0.39561 0.65173-0.90686-0.44351-0.02787 0.69615
   4  -2   3  110.48    5.76  12 0.39972 0.44573-0.90956 0.07133-0.02127 0.63467
   2  -9  -1   33.32    3.80  13 0.37035 0.58410-0.88932-0.90342-0.06734 0.55285
   2  -5   3  198.41    7.83  13 0.37727 0.27074-0.89428-0.39968-0.05667 0.93114
   3  -4   3    0.49    3.10  13 0.37727 0.40252-0.89428-0.26437-0.05667 0.83676
   1 -10  -2    0.39    1.44  14 0.36052 0.47737-0.88208-0.97256-0.08227 0.48403
   3  -3   3    1.12    2.39  14 0.35823 0.35927-0.88036-0.09078-0.08573 0.79065
   3  -2   3    1.47    1.88  14 0.35915 0.29648-0.88105 0.10311-0.08435 0.71304
   4  -7  -1   71.24    5.28  14 0.35408 0.85951-0.87722-0.65264-0.09196 0.39329
   4  -4   2   -0.13    2.75  14 0.35961 0.62426-0.88139-0.27014-0.08365 0.67512
   2  -8   0  136.23    6.51  15 0.33303 0.54400-0.86071-0.80732-0.12295 0.70602
   2  -6   2   50.44    4.43  15 0.34152 0.38294-0.86748-0.55160-0.11055 0.88836
   2  -4   3    0.46    2.42  15 0.34340 0.24643-0.86895-0.22916-0.10780 0.90278
   3  -8  -1   30.88    3.39  15 0.34526 0.73880-0.87041-0.79099-0.10504 0.49902
   3  -5   2    0.13    3.05  15 0.33706 0.51901-0.86394-0.42506-0.11708 0.80134
   4  -6   0    9.70    3.39  16 0.33185 0.80557-0.85976-0.54621-0.12465 0.52313
   4  -5   1    9.05    3.75  15 0.33424 0.72617-0.86169-0.41823-0.12119 0.61541
   4  -3   2  135.23    6.28  15 0.33965 0.58248-0.86600-0.09695-0.11330 0.62963
   4  -2   2   56.47    4.22  15 0.33965 0.52050-0.86600 0.09618-0.11330 0.55321
   2  -7   1   11.09    2.96  16 0.32590 0.47639-0.85491-0.68893-0.13321 0.81323
   2  -3   3   28.69    3.40  16 0.32733 0.19793-0.85608-0.05134-0.13116 0.85175
   3  -7   0    1.15    2.52  16 0.31728 0.69095-0.84778-0.68953-0.14552 0.63437
   3  -6   1   81.99    5.83  16 0.31631 0.61413-0.84697-0.56527-0.14689 0.73542
   0 -10  -2   34.75    3.76  18 0.29389 0.35327-0.82771-0.96635-0.17818 0.59841
   1 -10  -3   19.04    3.26  17 0.29424 0.55884-0.82801-0.95932-0.17770 0.40852
   1  -9  -1    0.39    2.01  17 0.30029 0.46569-0.83329-0.89519-0.16935 0.67314
   2  -9  -2    5.43    2.31  17 0.30614 0.66296-0.83834-0.88745-0.16120 0.46882
   3  -8  -2   -0.83    2.54  18 0.29316 0.80691-0.82707-0.76231-0.17918 0.40092
   3  -4   2  240.15    8.18  17 0.30029 0.49216-0.83329-0.26108-0.16935 0.77821
   4  -4   1    3.73    2.76  17 0.29734 0.70112-0.83073-0.25613-0.17342 0.59231
   1  -8   0    0.36    2.96  19 0.27350 0.41184-0.80939-0.79357-0.20581 0.79963
   1  -7   1  394.14   10.58  18 0.28000 0.32919-0.81530-0.66656-0.19707 0.89278
   2  -5   2    9.43    3.02  18 0.28944 0.37377-0.82374-0.40211-0.18426 0.88527
   3  -3   2  497.41   11.12  18 0.27950 0.45117-0.81485-0.08651-0.19775 0.72929
   4  -5   0  559.67   12.90  18 0.27696 0.79769-0.81254-0.40003-0.20117 0.52289
   1  -5   2    5.05    2.94  19 0.25407 0.21748-0.79128-0.37415-0.23149 0.94705
   2  -9  -3    6.49    2.99  20 0.25307 0.73138-0.79034-0.86541-0.23279 0.36845
   2  -8  -1   24.23    3.42  19 0.26140 0.63104-0.79818-0.80161-0.22187 0.63090
   2  -6   1   85.74    5.84  19 0.25603 0.48303-0.79314-0.55702-0.22892 0.83250
   2  -4   2    2.78    2.60  20 0.25155 0.35034-0.78890-0.24475-0.23476 0.85921
   3  -7  -1    8.57    3.50  19 0.25572 0.76571-0.79285-0.67537-0.22932 0.54625
   3  -5   1   13.20    3.09  19 0.26191 0.60716-0.79865-0.42093-0.22120 0.73243
   0  -9  -1    8.91    2.93  20 0.24843 0.32306-0.78591-0.88474-0.23882 0.75525
   1 -10  -4    0.76    1.93  20 0.24176 0.62681-0.77951-0.93909-0.24742 0.30114
   2  -7   0   51.01    4.35  20 0.24638 0.56959-0.78395-0.69176-0.24147 0.74753
   3  -6   0   -0.71    2.70  20 0.24664 0.69900-0.78419-0.55416-0.24114 0.65500
   0 -10  -3   -0.00    1.79  21 0.21690 0.44897-0.75500-0.96953-0.27889 0.52773
   1  -9  -2    5.28    2.45  21 0.22523 0.55134-0.76331-0.90012-0.26845 0.59517
   1  -4   2    6.79    2.18  21 0.21612 0.19460-0.75421-0.21596-0.27986 0.91866
   2  -9  -4    0.61    2.47  22 0.21115 0.78592-0.74919-0.83656-0.28603 0.24738
   3  -4   1  434.04   10.51  21 0.22133 0.58542-0.75943-0.26642-0.27335 0.70805
   1 -10  -6    0.73    2.17  23 0.18914 0.70789-0.72653-0.85424-0.31291 0.01830
   1  -8  -1    6.12    3.40  22 0.19221 0.50870-0.72974-0.80717-0.30920 0.73253
   1  -7   0    3.59    3.05  23 0.18859 0.43776-0.72596-0.69013-0.31357 0.83520
   1  -6   1    4.84    2.98  22 0.20801 0.34227-0.74600-0.54532-0.28992 0.90750
   2  -8  -2    6.48    2.88  22 0.19669 0.70977-0.73438-0.79702-0.30377 0.53764
   2  -5   1   10.76    2.94  22 0.19880 0.47919-0.73656-0.42182-0.30120 0.82766
   3  -7  -2    0.33    2.47  22 0.20196 0.83514-0.73982-0.65555-0.29734 0.44199
   3  -5   0  688.00   13.60  23 0.18935 0.69435-0.72675-0.42435-0.31266 0.65100
   3  -3   1  418.42   10.17  22 0.19722 0.54780-0.73493-0.09807-0.30313 0.66079
   2  -7  -1  139.44    6.95  23 0.17180 0.65808-0.70818-0.69871-0.33358 0.66571
   2  -6   0   27.44    4.25  23 0.17258 0.58158-0.70901-0.57421-0.33266 0.76174
   3  -6  -1   88.83    5.56  23 0.18184 0.77767-0.71885-0.55675-0.32166 0.56125
  -1 -11  -6   -0.36    2.23  25 0.14643 0.43271-0.68056-0.97194-0.36303 0.18095
  -1 -10  -3   15.96    3.07  24 0.16098 0.31005-0.69649-0.96768-0.34625 0.60838
   0 -10  -4   -0.77    2.20  24 0.15344 0.52686-0.68828-0.96746-0.35498 0.42995
   0  -9  -2   46.29    4.32  24 0.16259 0.42337-0.69824-0.90301-0.34437 0.68847
   1  -9  -3   18.52    3.05  24 0.16071 0.63028-0.69620-0.89830-0.34656 0.49951
   1  -5   1   11.21    2.86  25 0.14747 0.34007-0.68171-0.41346-0.36185 0.90332
   2  -4   1  110.74    5.48  24 0.15452 0.46130-0.68946-0.27462-0.35373 0.80377
   0  -8  -1    3.52    2.96  25 0.13885 0.37158-0.67215-0.80535-0.37166 0.81036
   2  -8  -3   36.05    3.82  25 0.14210 0.77917-0.67577-0.78699-0.36797 0.42765
   3  -6  -2   16.69    3.97  25 0.12570 0.84993-0.65737-0.54989-0.38646 0.45177
   3  -4   0  197.92    7.27  25 0.14373 0.67746-0.67757-0.27977-0.36612 0.62710
   0 -10  -5   42.94    4.31  26 0.10454 0.58578-0.63310-0.95554-0.40976 0.30702
   1  -9  -4    8.67    3.25  26 0.10790 0.69849-0.63699-0.88807-0.40610 0.38401
   1  -8  -2   47.03    4.39  26 0.11710 0.59791-0.64757-0.82170-0.39600 0.64677
   1  -6   0    2.08    2.58  26 0.11000 0.45383-0.63941-0.58235-0.40381 0.84830
   2  -7  -2  239.63    8.78  26 0.10475 0.73947-0.63334-0.70471-0.40954 0.56794
   2  -5   0   78.67    4.97  26 0.10945 0.58256-0.63878-0.45034-0.40441 0.75726
   3  -5  -1    2.75    2.40  26 0.11983 0.77760-0.65068-0.43213-0.39299 0.55602
  -1 -10  -4    1.94    2.41  27 0.08750 0.39847-0.61312-0.98313-0.42809 0.51348
   0  -9  -3   -0.34    2.35  27 0.08750 0.51667-0.61312-0.91664-0.42809 0.59975
   1  -7  -1  342.48    9.92  27 0.10040 0.53761-0.62827-0.71663-0.41424 0.76255
   2  -8  -4   10.75    2.98  27 0.09848 0.83692-0.62603-0.76701-0.41631 0.30045
   2  -6  -1  107.93    5.81  27 0.09354 0.67415-0.62025-0.59384-0.42163 0.67706
  -2 -11  -6   64.35    4.70  28 0.07648 0.30567-0.60003-0.99011-0.43973 0.27074
   0 -10  -7   -0.16    2.43  29 0.05992 0.66332-0.58004-0.87129-0.45695 0.00928
   0 -10  -6    0.15    2.02  28 0.07207 0.63669-0.59474-0.92418-0.44436 0.17135
   0  -6   0  225.16    7.81  29 0.06028 0.31096-0.58048-0.57783-0.45658 0.91758
   1  -9  -5   11.74    2.95  28 0.06876 0.75163-0.59075-0.86559-0.44781 0.25056
  -2 -11  -7    3.06    2.45  29 0.04322 0.35589-0.55952-0.96141-0.47396 0.12897
   0  -8  -2   77.13    5.36  29 0.05162 0.47153-0.56988-0.83830-0.46545 0.73215
   0  -7  -1   10.45    3.14  29 0.04165 0.40725-0.55758-0.72636-0.47553 0.83763
   1  -9  -6    5.29    2.31  29 0.04608 0.78784-0.56306-0.82535-0.47107 0.10066
   1  -8  -3   19.07    3.51  29 0.05107 0.67882-0.56920-0.83203-0.46601 0.54096
   1  -5   0  232.76    7.85  29 0.04024 0.46029-0.55583-0.47064-0.47695 0.84515
   2  -7  -3   -0.28    2.71  29 0.04719 0.81225-0.56443-0.70064-0.46995 0.45543
   2  -4   0   44.25    3.84  29 0.05688 0.57316-0.57632-0.31913-0.46008 0.73615
  -1 -10  -5   -1.36    2.17  30 0.02889 0.47503-0.54165-0.98401-0.48825 0.40515
  -1  -9  -3   29.16    3.70  30 0.03000 0.37871-0.54304-0.92805-0.48715 0.67214
   0  -9  -4  270.46    8.72  30 0.02446 0.58906-0.53606-0.92813-0.49263 0.48710
   1  -7  -2 1163.06   17.44  30 0.02085 0.63131-0.53150-0.74512-0.49616 0.67004
   1  -6  -1  286.75    8.79  30 0.01617 0.56026-0.52556-0.62607-0.50073 0.77171
   2  -6  -2  727.02   13.90  30 0.02279 0.75976-0.53396-0.61148-0.49426 0.57614
   2  -5  -1  170.13    6.73  30 0.02390 0.68201-0.53536-0.48519-0.49317 0.67158
  -3 -11  -7   17.02    3.11  32-0.00954 0.21402-0.49244-0.96652-0.52531 0.19542
  -1  -8  -2    1.26    2.63  31 0.00058 0.33279-0.50557-0.84201-0.51573 0.79639
   1  -8  -4    0.29    3.47  31-0.00303 0.74742-0.50090-0.83110-0.51917 0.42008
  -3 -11  -8   -0.63    2.21  33-0.02940 0.25494-0.46629-0.92683-0.54372 0.04503
  -2 -10  -5   39.32    4.32  32-0.02754 0.33475-0.46876-0.99598-0.54202 0.46987
  -1 -10  -6   24.57    3.31  32-0.01358 0.52631-0.48716-0.97101-0.52910 0.26767
   0  -9  -5   21.95    3.81  32-0.02441 0.65345-0.47291-0.92199-0.53914 0.35857
   0  -8  -3    9.26    3.49  32-0.02496 0.56267-0.47218-0.86709-0.53965 0.63175
  -1 -10  -8   28.30    3.42  33-0.04270 0.58375-0.44850-0.87094-0.55579-0.05683
  -1 -10  -7   20.31    3.04  33-0.03826 0.56600-0.45446-0.93483-0.55179 0.11518
  -1  -9  -4   36.86    4.27  33-0.04214 0.46406-0.44925-0.95339-0.55529 0.56510
   0  -7  -2  113.89    6.10  33-0.05013 0.51139-0.43847-0.77610-0.56242 0.75152
   0  -6  -1    0.11    2.39  33-0.04934 0.43559-0.43953-0.65129-0.56172 0.84727
   1  -8  -5   62.52    5.10  33-0.04325 0.80122-0.44776-0.81639-0.55628 0.28394
   1  -7  -3   65.09    5.44  33-0.04744 0.71465-0.44210-0.76648-0.56003 0.55966
   2  -6  -3  231.12    8.15  33-0.03826 0.83474-0.45446-0.62234-0.55179 0.45890
   2  -5  -2  168.32    6.80  34-0.05196 0.77302-0.43599-0.51656-0.56404 0.56930
   0  -9  -7   26.38    3.69  35-0.07401 0.73172-0.40575-0.85247-0.58325 0.05493
   0  -9  -6    1.32    2.58  34-0.05792 0.70149-0.42786-0.89829-0.56930 0.21419
   1  -6  -2   51.38    4.21  34-0.06815 0.65945-0.41385-0.66956-0.57821 0.67501
   1  -5  -1    3.41    2.13  34-0.06179 0.57843-0.42257-0.53668-0.57269 0.76587
  -2 -10  -6   -0.73    2.20  35-0.07753 0.40501-0.40086-0.99533-0.58626 0.34488
  -2  -9  -4   -0.82    2.76  36-0.09354 0.32524-0.37844-0.96091-0.59974 0.62324
  -1  -8  -3  403.46   10.79  35-0.08634 0.43265-0.38857-0.88933-0.59372 0.70153
   0  -8  -4  124.30    6.28  35-0.08799 0.63983-0.38625-0.88485-0.59510 0.51335
  -2 -10  -9    0.72    2.55  36-0.11565 0.48098-0.34694-0.84260-0.61780-0.15203
  -2 -10  -7    9.68    2.74  36-0.11048 0.44681-0.35438-0.97285-0.61363 0.19168
  -1  -9  -5   82.52    5.55  36-0.09870 0.53516-0.37115-0.96305-0.60402 0.44006
  -1  -7  -2   71.52    4.92  36-0.10665 0.37702-0.35985-0.79361-0.61053 0.81603
   1  -7  -4  296.47    9.21  36-0.10336 0.78460-0.36453-0.77508-0.60784 0.43320
  -3 -10  -6   10.18    2.86  37-0.12194 0.25269-0.33787-0.99727-0.62283 0.39268
  -2 -10  -8    4.60    2.30  37-0.12439 0.47528-0.33432-0.92411-0.62477 0.02871
  -1  -9  -6    1.04    3.08  38-0.13906 0.59562-0.31290-0.95183-0.63621 0.30228
   0  -8  -5    7.79    3.68  37-0.13711 0.70308-0.31577-0.88630-0.63471 0.37674
   0  -7  -3  648.83   13.01  37-0.12847 0.60444-0.32839-0.81815-0.62798 0.64365
   1  -6  -3   46.35    4.20  38-0.14003 0.74541-0.31148-0.70351-0.63696 0.56054
  -3 -10 -10    0.52    1.55  38-0.15608 0.34398-0.28770-0.77023-0.64912-0.27820
  -3 -10  -7    0.44    2.47  39-0.16145 0.30688-0.27965-0.98644-0.65312 0.24731
  -2  -9  -5   87.47    5.58  38-0.15669 0.40159-0.28678-0.98523-0.64958 0.50037
  -1  -8  -4   35.07    4.23  38-0.15813 0.51873-0.28463-0.92435-0.65065 0.58293
   0  -6  -2  104.87    5.49  38-0.14691 0.54650-0.30133-0.71998-0.64222 0.75464
   1  -7  -5   69.35    5.11  38-0.14447 0.84017-0.30493-0.76559-0.64037 0.29056
   1  -5  -2   20.16    2.81  38-0.15365 0.68260-0.29131-0.59901-0.64731 0.66778
  -3 -10  -9    0.85    2.45  40-0.18257 0.35627-0.24766-0.88008-0.66841-0.08568
  -3 -10  -8    3.29    2.54  40-0.18221 0.34181-0.24821-0.94881-0.66816 0.08818
  -1  -9  -8    4.17    2.60  39-0.17137 0.65147-0.26471-0.86218-0.66038-0.02712
  -1  -9  -7   24.77    3.61  39-0.16468 0.62985-0.27481-0.92148-0.65549 0.14306
   0  -8  -6    3.38    2.92  39-0.17003 0.75134-0.26673-0.86601-0.65941 0.22847
  -4 -10 -10    1.33    1.95  41-0.20416 0.20078-0.21430-0.78345-0.68338-0.22947
  -2  -9  -6   13.40    3.33  41-0.20306 0.46293-0.21602-0.98804-0.68263 0.35936
  -1  -7  -3   32.56    3.80  40-0.19609 0.48056-0.22685-0.85755-0.67787 0.70788
   0  -8  -7   11.56    3.13  40-0.18656 0.78129-0.24156-0.82230-0.67123 0.06403
   0  -7  -4   -1.60    2.79  40-0.19292 0.68522-0.23176-0.84260-0.67567 0.51670
   1  -6  -4  366.95    9.97  40-0.19715 0.81692-0.22522-0.72166-0.67859 0.42777
  -5 -10 -10    3.03    2.03  42-0.22603 0.03029-0.17981-0.75602-0.69783-0.19905
  -4 -10  -9    3.03    2.46  42-0.22398 0.20646-0.18308-0.88390-0.69650-0.04212
  -4 -10  -8    1.96    2.35  41-0.21867 0.18596-0.19151-0.94366-0.69304 0.12756
  -3  -9 -11    2.44    2.44  42-0.22322 0.36387-0.18428-0.61280-0.69601-0.48242
  -2  -9 -10    2.98    2.12  41-0.20978 0.52732-0.20552-0.72094-0.68716-0.33424
  -2  -8  -4    1.14    2.85  41-0.21187 0.38688-0.20223-0.94392-0.68856 0.63809
  -1  -8  -5    3.38    2.90  41-0.21292 0.58859-0.20058-0.93959-0.68925 0.44726
  -1  -6  -2  139.80    6.13  41-0.21187 0.42068-0.20223-0.75730-0.68856 0.81638
  -2  -9  -7    0.77    2.87  42-0.23346 0.51305-0.16794-0.96648-0.70257 0.21010
   0  -7  -5  315.54    9.51  42-0.24016 0.74441-0.15715-0.85215-0.70677 0.37329
   0  -6  -3   77.65    4.87  42-0.22854 0.64267-0.17581-0.77735-0.69944 0.63785
   1  -5  -3  473.46   10.80  42-0.23036 0.77356-0.17291-0.64889-0.70060 0.54624
  -2  -9  -9    6.89    2.88   2-0.27312 0.57662-0.18378-0.81174-0.66838-0.17877
  -2  -9  -8   21.78    3.91   2-0.28306 0.57322-0.16996-0.89680-0.67295 0.00055
   1  -6  -5   44.28    4.20   2-0.26468 0.89901-0.19540-0.68100-0.66441 0.23758
  -5 -10  -9    1.12    2.04   3-0.29817 0.09532-0.14874-0.86024-0.67966-0.03845
  -3  -9  -6    2.06    3.25   3-0.30216 0.37130-0.14308-0.99847-0.68138 0.37296
  -1  -8  -6    4.54    2.91   3-0.29072 0.68074-0.15923-0.91204-0.67639 0.25874
   0  -7  -6   26.22    3.93   3-0.30479 0.82446-0.13934-0.80033-0.68250 0.17379
  -4  -9 -11    0.37    1.40   4-0.31688 0.26581-0.12201-0.61252-0.68756-0.47477
  -3  -9 -10    6.74    2.47   4-0.31632 0.44107-0.12282-0.74344-0.68733-0.31715
  -2  -8  -5   12.48    3.44   4-0.32438 0.50891-0.11117-0.96723-0.69060 0.46474
  -1  -8  -8   -0.34    2.61   4-0.31237 0.73414-0.12850-0.80469-0.68570-0.07334
  -1  -8  -7    3.60    3.08   4-0.31124 0.71527-0.13012-0.87199-0.68523 0.09489
  -1  -7  -4   33.87    3.93   4-0.31406 0.61340-0.12607-0.88938-0.68640 0.54216
   1  -5  -4   10.34    2.63   4-0.32082 0.87902-0.11633-0.63605-0.68917 0.35892
  -5  -9 -11    0.57    1.84   6-0.35254 0.10999-0.06971-0.60421-0.70130-0.44676
  -3  -9  -9    2.60    2.64   5-0.34583 0.45862-0.07969-0.85566-0.69885-0.13107
  -3  -9  -8    0.72    2.74   6-0.35050 0.45470-0.07276-0.93329-0.70056 0.04913
  -3  -9  -7    1.90    2.76   5-0.33616 0.41971-0.09396-0.97923-0.69521 0.21273
   0  -6  -4   16.27    3.01   5-0.33478 0.76371-0.09599-0.78784-0.69468 0.45824
  -4  -9 -10    0.40    2.56   7-0.37327 0.30787-0.03844-0.76583-0.70844-0.28099
  -2  -8  -6   -0.27    2.81   6-0.36708 0.57026-0.04784-0.96088-0.70638 0.30848
  -1  -7  -5  280.82    8.90   6-0.36708 0.68123-0.04784-0.89952-0.70638 0.38800
  -1  -6  -3   33.93    3.44   6-0.35733 0.58201-0.06255-0.82836-0.70300 0.65570
  -4  -9  -9    8.83    2.84   8-0.39584 0.31603-0.00360-0.87194-0.71546-0.09781
  -4  -9  -7   41.03    4.36   7-0.38021 0.27162-0.02781-0.98354-0.71069 0.24443
  -3  -8  -5    1.70    2.65   7-0.37995 0.37290-0.02822-0.98907-0.71060 0.49966
  -2  -8  -9   -0.08    2.91   7-0.38261 0.62895-0.02412-0.78100-0.71144-0.20617
  -2  -8  -7   37.03    4.52   7-0.39112 0.60287-0.01095-0.92996-0.71406 0.13899
  -2  -7  -4   50.47    4.29   7-0.38526 0.49450-0.02003-0.93450-0.71227 0.58415
   0  -6  -5  630.56   12.76   7-0.37995 0.82277-0.02822-0.78701-0.71060 0.29904
  -6  -9 -10   -0.17    2.25   8-0.41435-0.03407 0.02564-0.70779-0.72058-0.23841
  -5  -9 -10    2.90    2.61   8-0.40621 0.14944 0.01271-0.75660-0.71840-0.25453
  -4  -9  -8    1.76    2.44   8-0.39841 0.30456 0.00043-0.94245-0.71621 0.07510
  -2  -8  -8    2.71    2.98   8-0.39658 0.62283-0.00243-0.86914-0.71568-0.03458
  -1  -7  -8    2.01    3.11   8-0.41189 0.76810 0.02171-0.76146-0.71993-0.12123
  -1  -7  -7   40.87    4.55   8-0.41418 0.75728 0.02537-0.83639-0.72054 0.05376
  -1  -7  -6    4.38    2.86   8-0.40102 0.72846 0.00452-0.88213-0.71695 0.22436
   0  -6  -6   44.38    4.16   8-0.40440 0.86177 0.00984-0.75629-0.71790 0.13303
  -5  -9  -9    0.67    2.37   9-0.42717 0.16366 0.04625-0.86222-0.72378-0.07074
  -5  -9  -8   42.32    4.32   9-0.42591 0.13953 0.04421-0.92497-0.72348 0.09850
  -4  -8 -11    6.09    2.40   9-0.42058 0.30483 0.03562-0.57237-0.72218-0.52317
  -3  -8 -10    0.04    2.32   9-0.42109 0.48493 0.03644-0.70862-0.72230-0.35926
  -3  -8  -6  147.54    6.82   9-0.42566 0.43265 0.04380-0.99218-0.72342 0.33862
  -1  -6  -4  473.92   10.89   9-0.42768 0.66562 0.04707-0.86949-0.72390 0.50251
  -5  -8 -11    3.79    2.54  11-0.45450 0.14962 0.09127-0.57200-0.72955-0.49576
  -3  -8  -9   41.22    4.56  10-0.45031 0.49919 0.08425-0.82595-0.72876-0.17856
  -3  -8  -7   35.97    4.34  10-0.45126 0.47230 0.08585-0.96540-0.72894 0.16997
  -2  -7  -5    1.47    2.84  10-0.44167 0.56397 0.06994-0.95503-0.72702 0.42381
  -6  -8 -11   -0.03    1.54  11-0.46648-0.02884 0.11148-0.53006-0.73160-0.47588
  -4  -8 -10    4.05    3.04  11-0.47194 0.34261 0.12082-0.73117-0.73243-0.33475
  -3  -8  -8    9.52    3.39  11-0.45927 0.49398 0.09928-0.91049-0.73041-0.00183
  -2  -7  -9   10.05    3.45  11-0.47314 0.65207 0.12288-0.73309-0.73260-0.26843
  -2  -7  -6    2.17    2.95  12-0.47407 0.61537 0.12448-0.94249-0.73273 0.25668
  -1  -6  -5    0.22    2.54  12-0.47313 0.72714 0.12285-0.87581-0.73260 0.33690
  -4  -8  -7   -0.15    3.01  13-0.49219 0.32952 0.15603-0.97708-0.73491 0.19442
  -2  -7  -8  107.97    6.08  12-0.49113 0.65511 0.15417-0.83298-0.73480-0.09156
  -2  -7  -7    3.12    3.62  12-0.49104 0.64235 0.15402-0.90253-0.73479 0.08325
   0  -5  -5  117.59    5.65  12-0.47736 0.85795 0.13015-0.75224-0.73319 0.24495
  -7  -8 -10    0.19    1.86  13-0.50014-0.20142 0.17014-0.59713-0.73561-0.28386
  -5  -8 -10    0.51    2.23  13-0.50239 0.18361 0.17416-0.72396-0.73578-0.31488
  -4  -8  -9   21.23    3.78  13-0.49629 0.35335 0.16329-0.84398-0.73530-0.15636
  -4  -8  -8   49.65    4.83  13-0.50284 0.34689 0.17496-0.92438-0.73581 0.01803
  -4  -7 -11    5.14    2.63  13-0.49856 0.32206 0.16732-0.51531-0.73549-0.58164
  -3  -7 -10   14.62    3.10  13-0.50351 0.50506 0.17617-0.65470-0.73586-0.42291
  -3  -7  -5    5.01    2.64  13-0.49675 0.42829 0.16410-0.98880-0.73533 0.44829
  -2  -6  -4    3.34    2.15  13-0.50126 0.54853 0.17215-0.93342-0.73570 0.52953
  -1  -6  -7    3.24    2.91  14-0.50803 0.78627 0.18432-0.79766-0.73614-0.00664
  -1  -6  -6   36.18    3.77  13-0.49856 0.76454 0.16732-0.85262-0.73549 0.16591
  -6  -8 -10    1.51    2.30  14-0.51327 0.00228 0.19382-0.68188-0.73640-0.29873
  -5  -8  -9    5.28    2.92  14-0.52456 0.18971 0.21460-0.83367-0.73669-0.13825
  -5  -8  -8    3.09    3.12  14-0.52729 0.18000 0.21967-0.91040-0.73670 0.03353
  -5  -7 -11    6.43    2.74  15-0.52769 0.16125 0.22042-0.50942-0.73670-0.56454
  -6  -8  -9    0.08    2.62  15-0.53474 0.01842 0.23367-0.79645-0.73662-0.11986
  -6  -7 -11    0.18    1.95  15-0.53746-0.02058 0.23882-0.46471-0.73654-0.54926
  -3  -7  -9   -0.36    2.66  15-0.53453 0.52731 0.23327-0.78365-0.73662-0.24252
  -3  -7  -6   41.34    4.14  15-0.53095 0.47592 0.22653-0.98167-0.73668 0.27496
  -2  -6  -5  238.33    8.02  16-0.54440 0.60578 0.25209-0.94579-0.73624 0.35751
  -4  -7 -10    0.89    2.62  16-0.54795 0.36500 0.25895-0.68131-0.73602-0.40168
  -3  -7  -8   -2.30    2.85  16-0.54795 0.52623 0.25895-0.87700-0.73602-0.07025
  -3  -7  -7    1.43    2.91  16-0.54673 0.50615 0.25659-0.94303-0.73610 0.10019
  -7  -7 -10    4.79    2.69  17-0.57457-0.18960 0.31190-0.54558-0.73286-0.36251
  -7  -6 -11    0.69    1.28  17-0.57233-0.23810 0.30732-0.27859-0.73323-0.61208
  -5  -7 -10    1.05    2.86  17-0.57398 0.19314 0.31069-0.66715-0.73296-0.39437
  -4  -7  -9   10.19    3.72  17-0.57456 0.37055 0.31188-0.79799-0.73286-0.23655
  -4  -7  -6    2.37    2.69  17-0.56813 0.32118 0.29880-0.99306-0.73389 0.28821
  -2  -6  -8   24.86    4.02  17-0.56966 0.67067 0.30190-0.78693-0.73366-0.16941
  -2  -6  -7    6.22    3.13  17-0.57498 0.66486 0.31273-0.86881-0.73278 0.00424
  -2  -6  -6    6.51    2.40  17-0.56851 0.64310 0.29957-0.92291-0.73383 0.17994
  -1  -5  -5  220.31    7.44  17-0.56832 0.75790 0.29919-0.85999-0.73386 0.26170
  -6  -7 -10   -0.16    2.65  18-0.58353 0.01132 0.33041-0.62532-0.73111-0.38051
  -6  -6 -11    8.56    2.91  18-0.58784-0.03214 0.33948-0.37208-0.73014-0.63224
  -5  -6 -11    0.85    2.12  18-0.58132 0.15262 0.32581-0.41979-0.73158-0.64656
  -4  -7  -8    5.09    2.96  18-0.58553 0.36698 0.33462-0.89014-0.73067-0.06497
  -4  -7  -7    7.54    3.41  18-0.58389 0.35265 0.33118-0.95634-0.73104 0.11153
  -1  -5  -6   16.40    3.13  18-0.58389 0.78696 0.33118-0.82265-0.73104 0.08416
  -7  -7  -9    2.73    2.58  19-0.59991-0.17787 0.36538-0.66810-0.72690-0.19510
  -5  -7  -9   13.49    3.51  19-0.59783 0.20138 0.36085-0.78655-0.72751-0.22473
  -5  -7  -7   -0.25    3.22  20-0.60454 0.18837 0.37553-0.94252-0.72543 0.12219
  -4  -6 -10   21.68    3.72  20-0.60459 0.35346 0.37563-0.60199-0.72542-0.49419
  -3  -6  -9    6.69    3.24  19-0.60043 0.52457 0.36651-0.72171-0.72674-0.33393
  -3  -6  -5  236.65    7.92  19-0.59608 0.46513 0.35707-0.98762-0.72801 0.36397
  -6  -7  -9    1.65    2.49  20-0.60674 0.02861 0.38040-0.74969-0.72470-0.20877
  -6  -7  -8   66.44    5.52  20-0.61567 0.01403 0.40051-0.83396-0.72137-0.04073
  -5  -7  -8   80.44    5.47  20-0.60758 0.19698 0.38227-0.87712-0.72441-0.05340
  -5  -5 -11   13.43    2.98  20-0.61718 0.12584 0.40397-0.30523-0.72076-0.73388
  -3  -6  -8    3.49    3.42  20-0.61695 0.52807 0.40345-0.82836-0.72085-0.16664
  -3  -6  -6  204.03    7.60  20-0.61632 0.49900 0.40201-0.96416-0.72111 0.18305
  -8  -5 -10    3.61    2.13  21-0.62733-0.45003 0.42767-0.21414-0.71618-0.51552
  -7  -6 -10   -0.51    2.22  21-0.62455-0.19416 0.42110-0.46830-0.71751-0.45214
  -6  -5 -11   27.28    3.36  21-0.62047-0.06170 0.41156-0.25082-0.71936-0.71994
  -5  -6 -10   40.53    4.06  21-0.62610 0.18157 0.42475-0.58709-0.71678-0.48725
  -3  -6  -7   61.27    4.72  21-0.62268 0.51924 0.41670-0.90989-0.71838 0.00625
  -6  -6 -10   31.75    3.92  22-0.63262-0.00235 0.44037-0.54393-0.71346-0.47252
  -6  -4 -11    2.81    1.92  22-0.63920-0.10417 0.45654-0.10271-0.70971-0.80459
  -4  -6  -9   -0.41    2.76  22-0.63277 0.37281 0.44073-0.73742-0.71338-0.32760
  -2  -5  -7    5.97    2.58  22-0.64171 0.66938 0.46282-0.82522-0.70817-0.09619
  -2  -5  -6    3.53    2.32  23-0.64229 0.65543 0.46426-0.89560-0.70781 0.07665
  -7  -6  -9   35.28    4.05  23-0.65064-0.19046 0.48575-0.59530-0.70214-0.29521
  -5  -6  -9   24.87    3.93  23-0.65030 0.19250 0.48486-0.71670-0.70239-0.32785
  -4  -6  -8   19.54    3.54  23-0.64692 0.36760 0.47607-0.83918-0.70477-0.16609
  -4  -6  -7   68.08    5.21  23-0.65164 0.35592 0.48836-0.91947-0.70141 0.00455
  -4  -6  -6  103.62    5.71  23-0.64623 0.33739 0.47431-0.97474-0.70524 0.18290
  -4  -5 -10    0.86    2.79  23-0.64651 0.33283 0.47501-0.50597-0.70505-0.59096
  -3  -5  -9    9.91    2.95  23-0.64923 0.51179 0.48205-0.64337-0.70316-0.43483
  -7  -5 -10    4.37    2.66  24-0.65684-0.23204 0.50226-0.34927-0.69738-0.55152
  -6  -6  -9   53.30    4.71  24-0.65620 0.00670 0.50053-0.67215-0.69790-0.31509
  -5  -6  -8   94.02    5.98  24-0.66263 0.19135 0.51821-0.82135-0.69242-0.16161
  -5  -5 -10   72.41    5.38  24-0.66161 0.15451 0.51537-0.48536-0.69333-0.58666
  -6  -6  -8   74.06    5.38  25-0.66827 0.00422 0.53432-0.77433-0.68705-0.15152
  -6  -5 -10    4.21    2.74  25-0.66534-0.03095 0.52588-0.43384-0.68992-0.57552
  -5  -6  -7   85.88    5.71  25-0.66664 0.18087 0.52960-0.90083-0.68867 0.00872
  -4  -5  -9   68.35    5.33  26-0.67294 0.34368 0.54813-0.64961-0.68215-0.43956
  -3  -5  -8   23.95    3.47  25-0.66793 0.51533 0.53331-0.76308-0.68740-0.27717
  -7  -4 -10   14.24    2.93  26-0.67574-0.27413 0.55663-0.21027-0.67899-0.64727
  -3  -5  -7    2.65    2.38  26-0.67691 0.51198 0.56025-0.85964-0.67761-0.11160
  -3  -5  -6  164.87    6.60  26-0.67807 0.49824 0.56385-0.93237-0.67621 0.06120
  -8  -4  -9   10.49    2.68  27-0.68390-0.47030 0.58264-0.25059-0.66861-0.46276
  -7  -5  -9   15.32    3.10  27-0.68243-0.21891 0.57782-0.49546-0.67062-0.40369
  -7  -3 -10    0.49    1.58  27-0.68390-0.32789 0.58264-0.04289-0.66861-0.73410
  -6  -5  -9   33.85    4.36  27-0.68781-0.02384 0.59587-0.57396-0.66289-0.42744
  -6  -4 -10    8.47    2.54  27-0.68524-0.07342 0.58712-0.30288-0.66670-0.67453
  -5  -5  -9   14.71    3.33  27-0.68496 0.16372 0.58616-0.62442-0.66711-0.43942
  -5  -4 -10   14.09    3.05  27-0.68438 0.11612 0.58424-0.35965-0.66793-0.68935
  -4  -5  -8   93.64    5.97  27-0.68790 0.34487 0.59618-0.76589-0.66275-0.28497
  -2  -4  -7   39.64    4.00  27-0.68803 0.65164 0.59662-0.76504-0.66255-0.21930
  -8  -3  -9    1.17    2.33  28-0.69358-0.52376 0.61659-0.08456-0.65330-0.55971
  -7  -5  -8   42.62    4.49  29-0.69518-0.22070 0.62264-0.61017-0.65035-0.24900
  -6  -3 -10    3.10    2.71  29-0.69551-0.12488 0.62387-0.14562-0.64974-0.76939
  -4  -5  -7   17.01    3.45  28-0.69492 0.33909 0.62164-0.86117-0.65085-0.12254
  -2  -4  -6  509.40   11.21  28-0.69376 0.64280 0.61724-0.85404-0.65299-0.05459
  -7  -4  -9   29.96    4.06  29-0.70073-0.26286 0.64492-0.36937-0.63887-0.51163
  -6  -5  -8   22.32    4.01  29-0.69970-0.02587 0.64062-0.68728-0.64117-0.27502
  -6  -2 -10    0.42    1.85  29-0.69816-0.17972 0.63431 0.03108-0.64447-0.84938
  -5  -5  -8  144.09    6.86  29-0.69740 0.16288 0.63129-0.73986-0.64602-0.28510
  -5  -3 -10    1.28    2.37  29-0.69686 0.06606 0.62917-0.21240-0.64710-0.78637
  -4  -4  -9   32.80    3.93  29-0.69838 0.30640 0.63522-0.54230-0.64400-0.55431
  -3  -4  -8   25.60    3.39  29-0.69970 0.48481 0.64062-0.67695-0.64117-0.39966
  -6  -5  -7    2.95    2.97  30-0.70504-0.02636 0.66414-0.78336-0.62810-0.11371
  -6  -4  -9    8.39    3.36  30-0.70584-0.06741 0.66795-0.45128-0.62587-0.54188
  -5  -5  -7  137.70    6.61  30-0.70327 0.15493 0.65600-0.83382-0.63276-0.12400
  -5  -4  -9    8.94    2.99  30-0.70498 0.12433 0.66385-0.50910-0.62827-0.55553
  -8  -3  -8   -0.45    2.32  32-0.71112-0.52068 0.69598-0.23307-0.60836-0.43073
  -7  -3  -9   13.14    2.98  31-0.70980-0.31568 0.68838-0.21838-0.61330-0.61438
  -4  -4  -8   20.87    4.02  31-0.71038 0.30661 0.69166-0.66839-0.61119-0.41386
  -3  -4  -7    8.88    2.56  31-0.70827 0.48117 0.68013-0.78643-0.61850-0.24817
  -8  -1  -8    1.48    1.68  32-0.71372-0.64219 0.71274 0.13705-0.59689-0.59556
  -7  -4  -8   28.61    3.81  32-0.71171-0.26718 0.69954-0.49349-0.60599-0.36955
  -7  -2  -9    3.86    2.25  32-0.71286-0.37561 0.70685-0.04295-0.60101-0.70421
  -7  -1  -9    2.82    1.89  32-0.71171-0.43754 0.69954 0.15607-0.60599-0.77323
  -6  -3  -9    0.35    3.02  33-0.71408-0.12137 0.71531-0.30613-0.59506-0.65075
  -4  -3  -9    4.10    2.87  32-0.71162 0.25935 0.69899-0.41335-0.60635-0.66849
  -3  -4  -6   25.58    3.11  32-0.71197 0.47056 0.70117-0.87654-0.60489-0.08687
  -8  -2  -8    0.57    2.02  33-0.71462-0.57392 0.71935-0.07026-0.59214-0.52325
  -6  -4  -8    4.45    2.85  33-0.71479-0.07211 0.72066-0.57381-0.59119-0.40223
  -6   0  -9    3.08    1.72  33-0.71550-0.30772 0.72639 0.26220-0.58694-0.88601
  -5  -4  -8    0.16    2.79  33-0.71445 0.12511 0.71803-0.63615-0.59310-0.41333
  -5  -3  -9    7.59    3.09  33-0.71469 0.07074 0.71987-0.37294-0.59176-0.66666
  -4  -4  -7   57.52    4.41  33-0.71589 0.29621 0.72975-0.77503-0.58440-0.26544
  -7  -3  -8   -1.04    2.76  35-0.71804-0.32102 0.75379-0.35157-0.56510-0.48777
  -6  -4  -7   71.87    5.23  34-0.71806-0.08283 0.75412-0.67781-0.56482-0.25305
  -6  -2  -9    0.16    2.19  34-0.71734-0.17283 0.74443-0.14957-0.57286-0.74596
  -6  -1  -9   -0.63    2.28  35-0.71794-0.23433 0.75232 0.03559-0.56633-0.82809
  -5  -4  -7    3.21    3.24  34-0.71797 0.10823 0.75281-0.73661-0.56592-0.26909
  -5  -2  -9   -1.10    2.63  35-0.71805 0.01869 0.75403-0.21984-0.56489-0.76906
  -4  -4  -6  173.17    6.96  34-0.71777 0.28517 0.74987-0.86464-0.56839-0.10695
  -5  -4  -6   68.21    4.88  35-0.71884 0.09494 0.77210-0.82547-0.54891-0.11059
  -5  -1  -9   22.38    3.46  35-0.71877-0.04919 0.76932-0.03634-0.55146-0.86043
  -4  -3  -8   71.43    5.08  35-0.71855 0.25122 0.76342-0.54705-0.55676-0.54359
  -3  -3  -7   36.13    3.78  35-0.71886 0.42869 0.77271-0.68675-0.54835-0.39380
  -8  -1  -7    1.37    2.11  37-0.71876-0.65064 0.79192-0.01141-0.52969-0.48800
  -8   0  -7    6.71    1.91  36-0.71893-0.71116 0.77971 0.18917-0.54175-0.54949
  -7  -3  -7    0.14    2.83  37-0.71876-0.32894 0.79200-0.46635-0.52961-0.35142
  -7  -2  -8    1.74    2.24  36-0.71892-0.38355 0.78243-0.18754-0.53913-0.59226
  -7  -1  -8    3.74    2.29  37-0.71874-0.44597 0.79278-0.00446-0.52881-0.68001
  -7   0  -8    0.89    1.96  36-0.71893-0.50734 0.78107 0.20059-0.54044-0.74392
  -6  -3  -8   21.94    3.56  36-0.71890-0.13020 0.77628-0.43638-0.54501-0.52506
  -5  -3  -8    2.74    2.51  36-0.71893 0.06137 0.77994-0.50111-0.54153-0.54409
  -6   1  -8    2.50    2.13  38-0.71789-0.37814 0.80779 0.30493-0.51283-0.86261
  -4  -3  -7  103.90    5.74  37-0.71788 0.23596 0.80792-0.66033-0.51268-0.41300
  -3  -3  -6  159.88    6.50  37-0.71806 0.41396 0.80552-0.78802-0.51533-0.25257
  -6  -3  -7   60.98    4.81  38-0.71707-0.14680 0.81621-0.54673-0.50325-0.39062
  -6  -2  -8    5.12    2.78  38-0.71753-0.19274 0.81174-0.27904-0.50840-0.63765
  -5  -3  -7   19.01    3.52  38-0.71649 0.04542 0.82101-0.61205-0.49759-0.41296
  -5  -2  -8    1.46    2.58  38-0.71657-0.00299 0.82041-0.34828-0.49830-0.66397
  -4  -2  -8    0.30    2.64  38-0.71750 0.19362 0.81215-0.40551-0.50793-0.66671
  -7  -2  -7   -0.13    2.30  39-0.71509-0.39343 0.83034-0.31173-0.48610-0.47030
  -7   1  -7   19.84    3.14  39-0.71414-0.58798 0.83561 0.26585-0.47929-0.70595
  -6  -3  -6    9.57    3.00  40-0.71287-0.16556 0.84166-0.64050-0.47118-0.24897
  -6  -1  -8    0.48    2.30  39-0.71529-0.25757 0.82919-0.10234-0.48754-0.73559
  -6   0  -8    1.11    2.15  39-0.71522-0.31975 0.82958 0.09069-0.48706-0.81297
  -4  -3  -6    0.12    2.43  40-0.71362 0.22237 0.83820-0.75764-0.47587-0.27650
  -4  -1  -8  124.69    6.42  40-0.71321 0.12149 0.84014-0.23835-0.47325-0.78070
  -3  -2  -7   94.33    5.50  39-0.71384 0.36104 0.83711-0.55748-0.47731-0.54131
  -7  -1  -7    2.52    2.64  40-0.71109-0.46878 0.84894-0.12888-0.46098-0.57276
  -7   0  -7    1.59    2.51  40-0.71019-0.53024 0.85221 0.06032-0.45620-0.65397
  -6  -2  -7    9.86    3.28  41-0.70933-0.21651 0.85511-0.39108-0.45187-0.52035
  -5  -3  -6   38.24    3.87  40-0.71136 0.02525 0.84789-0.70747-0.46248-0.27364
  -5  -1  -8    0.17    2.62  40-0.71254-0.06307 0.84310-0.18437-0.46921-0.76713
  -5   0  -8   24.41    3.43  40-0.71071-0.13510 0.85032 0.00899-0.45897-0.85551
  -7  -2  -6    4.14    2.92  41-0.70752-0.42270 0.86073-0.40439-0.44321-0.33960
  -7   2  -6    0.09    2.03  42-0.70513-0.67170 0.86726 0.35812-0.43261-0.65915
  -6   2  -7    1.47    2.14  41-0.70871-0.46436 0.85711 0.38081-0.44884-0.83011
  -5  -3  -5   50.16    4.23  41-0.70684 0.00716 0.86267-0.79178-0.44012-0.12152
  -5  -2  -7   44.96    4.18  41-0.70638-0.02815 0.86395-0.46202-0.43806-0.54897
  -4  -2  -7    8.08    2.65  41-0.70812 0.16594 0.85893-0.51835-0.44603-0.55687
  -3  -2  -6   38.86    3.54  42-0.70238 0.33561 0.87381-0.66302-0.42134-0.42306
  -8   1  -5   19.12    2.90   2-0.91270-0.60746 0.67965 0.34788-0.10858-0.71597
  -7  -1  -6   -0.23    2.69   2-0.91116-0.28503 0.68219-0.03088-0.09809-0.76597
  -7   0  -6    2.47    2.30   2-0.91186-0.34255 0.68109 0.16223-0.10268-0.83287
  -6  -2  -6   35.02    4.12   3-0.91060-0.02781 0.68304-0.28840-0.09448-0.70383
  -5  -2  -6   80.12    5.11   2-0.91214 0.16504 0.68062-0.34711-0.10465-0.70943
  -4  -1  -6    7.38    2.82   3-0.91088 0.29170 0.68262-0.21564-0.09627-0.81111
  -9   0  -4    4.46    2.22   3-0.90967-0.75343 0.68431 0.14081-0.08890-0.46979
  -8  -2  -5    6.04    2.77   3-0.90811-0.42863 0.68625-0.23724-0.08002-0.51296
  -8   2  -4    2.03    2.21   4-0.90554-0.69598 0.68899 0.46392-0.06673-0.65539
  -7   2  -5   -0.08    1.91   3-0.90882-0.47851 0.68540 0.47097-0.08397-0.83401
  -6  -3  -5   28.96    3.61   3-0.90781 0.01866 0.68660-0.55480-0.07838-0.46959
  -9   1  -3    0.06    1.93   5-0.90122-0.83554 0.69263 0.25547-0.04707-0.41591
  -8  -1  -5    8.90    2.85   4-0.90369-0.49361 0.69067-0.04964-0.05796-0.61223
  -8   0  -5    9.32    2.71   4-0.90529-0.55394 0.68922 0.14471-0.06554-0.68104
  -8   3  -3    2.11    1.51   4-0.90369-0.76886 0.69067 0.58435-0.05796-0.56957
  -6  -1  -6   27.10    3.72   4-0.90536-0.09542 0.68916-0.10142-0.06587-0.80875
  -6   0  -6   45.12    4.21   4-0.90522-0.15766 0.68929 0.09239-0.06521-0.88628
  -5  -1  -6   21.65    3.50   4-0.90529 0.09575 0.68922-0.16262-0.06554-0.82430
  -5   0  -6    9.77    2.79   4-0.90325 0.03116 0.69104 0.02988-0.05598-0.91151
  -4  -2  -5    0.98    1.78   5-0.90105 0.33027 0.69276-0.48841-0.04634-0.60732
  -7  -2  -5   15.01    3.29   5-0.89653-0.24768 0.69568-0.30849-0.02825-0.58005
  -7   1  -5    0.17    2.33   6-0.89412-0.42926 0.69697 0.26522-0.01932-0.82128
  -8   1  -4   23.06    3.23   6-0.88830-0.64669 0.69949 0.25891 0.00052-0.64993
  -7  -1  -5   48.14    4.39   6-0.88738-0.31930 0.69983-0.11941 0.00349-0.68826
  -7   0  -5   54.43    4.63   6-0.88627-0.38129 0.70021 0.07258 0.00698-0.76841
  -6  -2  -5    1.95    2.33   6-0.89001-0.06349 0.69883-0.37247-0.00511-0.61916
  -5  -2  -5  243.69    7.96   6-0.89148 0.13040 0.69821-0.43374-0.01007-0.62932
  -8  -1  -4    1.38    2.29   7-0.88131-0.52306 0.70169-0.13201 0.02201-0.52194
  -8   0  -4  118.50    6.13   7-0.87971-0.59311 0.70209 0.06214 0.02664-0.59910
  -6  -1  -5    9.17    2.85   8-0.87618-0.13626 0.70285-0.18431 0.03655-0.73829
  -6   1  -5   22.28    3.61   7-0.87716-0.26197 0.70266 0.20318 0.03383-0.88776
  -4  -1  -5  589.78   12.07   7-0.88221 0.24984 0.70145-0.30515 0.01937-0.75117
  -8   2  -3   13.51    2.48   8-0.87410-0.73665 0.70323 0.37847 0.04217-0.59490
  -8   3  -2    0.81    1.80   8-0.87021-0.81846 0.70383 0.50503 0.05240-0.50612
  -7   2  -4    0.49    2.39   8-0.87348-0.52719 0.70334 0.38360 0.04382-0.78823
  -6   0  -5    4.64    2.74   8-0.87123-0.20625 0.70369 0.00776 0.04976-0.82632
  -5  -1  -5    0.64    2.09   8-0.87373 0.05299 0.70329-0.24519 0.04316-0.76080
  -5   1  -5   58.28    4.79   8-0.86727-0.08053 0.70418 0.13898 0.05983-0.92885
  -4   0  -5   56.89    4.26   8-0.86917 0.17395 0.70396-0.11424 0.05504-0.86274
  -8   1  -3   36.39    4.04  10-0.85443-0.69511 0.70491 0.18366 0.09010-0.56489
  -7  -1  -4    6.72    2.87  10-0.85480-0.36461 0.70490-0.19426 0.08928-0.60067
  -7   1  -4  566.26   12.69  10-0.85494-0.48962 0.70490 0.19221 0.08897-0.75337
  -7   3  -3    0.67    2.00   9-0.85705-0.62435 0.70485 0.51096 0.08420-0.72745
  -7   4  -2    1.02    2.20  10-0.85509-0.70570 0.70490 0.63731 0.08863-0.63532
  -6  -2  -4   54.26    4.26   9-0.86054-0.10525 0.70471-0.44842 0.07613-0.52610
  -5  -2  -4    5.33    1.93   9-0.85984 0.08424 0.70475-0.50900 0.07777-0.54374
  -5   0  -5   77.04    5.07   9-0.86440-0.02157 0.70445-0.05387 0.06691-0.85904
  -8   0  -3   -0.37    2.50  10-0.84788-0.63341 0.70485-0.01096 0.10437-0.50758
  -7   0  -4    1.11    2.42  10-0.84818-0.43473 0.70486 0.00049 0.10371-0.69142
  -6   2  -4    9.39    3.03  11-0.84309-0.37254 0.70467 0.32625 0.11437-0.87110
  -8   2  -2   16.50    2.82  11-0.83586-0.79016 0.70417 0.30925 0.12887-0.50594
  -8   3  -1   17.50    2.93  11-0.83155-0.87018 0.70377 0.43573 0.13722-0.41677
  -6  -1  -4   51.90    4.30  11-0.83470-0.19408 0.70407-0.25442 0.13115-0.65738
  -8   1  -2    7.60    2.76  12-0.81664-0.74742 0.70181 0.11966 0.16453-0.46422
  -7  -1  -3   51.04    4.57  12-0.81662-0.41720 0.70181-0.26030 0.16456-0.50100
  -7   2  -3  197.87    7.69  12-0.82472-0.59577 0.70297 0.31774 0.15000-0.71720
  -7   5   0    1.86    1.50  12-0.81972-0.82665 0.70228 0.69208 0.15907-0.43387
  -6   0  -4    1.81    2.56  12-0.82223-0.26785 0.70264-0.05930 0.15454-0.75787
  -6   1  -4    5.43    2.88  12-0.82542-0.32681 0.70306 0.13223 0.14871-0.82847
  -5  -1  -4  335.64    9.22  12-0.82648-0.01054 0.70319-0.31489 0.14676-0.68893
  -5   2  -4  115.63    5.97  12-0.82026-0.20470 0.70236 0.26583 0.15810-0.92957
  -7   0  -3   41.99    4.15  13-0.80233-0.49327 0.69925-0.06407 0.18883-0.60209
  -7   1  -3    2.46    2.50  13-0.80552-0.55350 0.69987 0.12979 0.18355-0.67370
  -7   3  -2    1.59    2.29  13-0.80303-0.69227 0.69939 0.44710 0.18767-0.65710
  -7   4  -1   43.97    3.98  14-0.80009-0.77325 0.69879 0.57180 0.19248-0.56559
  -6   3  -3   -0.80    2.41  13-0.81179-0.47966 0.70101 0.45388 0.17294-0.83168
  -5   0  -4   14.57    2.72  13-0.80706-0.09343 0.70016-0.11907 0.18098-0.79868
  -5   1  -4   33.06    3.74  13-0.80514-0.15757 0.69980 0.07580 0.18419-0.87909
  -4   0  -4   13.24    2.41  13-0.80744 0.09889 0.70023-0.17992 0.18034-0.81432
  -4   1  -4   94.81    5.34  14-0.79922 0.02764 0.69861 0.01540 0.19390-0.90448
  -8   2  -1   36.78    3.76  14-0.79748-0.84179 0.69825 0.24538 0.19667-0.40077
  -8   3   0   62.76    4.56  14-0.79649-0.91967 0.69804 0.37026 0.19827-0.30357
  -6  -1  -3    7.47    2.62  15-0.78506-0.25764 0.69542-0.31411 0.21611-0.56865
  -6   4  -2    0.10    2.18  14-0.79247-0.57069 0.69715 0.57765 0.20465-0.77013
  -8   1  -1   50.73    4.44  15-0.78130-0.79558 0.69450 0.05610 0.22178-0.34838
  -8   3   1    0.00    2.13  16-0.76894-0.95817 0.69125 0.30695 0.23989-0.17722
  -7   2  -2   34.88    3.86  15-0.76877-0.66527 0.69121 0.26059 0.24013-0.63229
  -7   5   1    5.34    2.29  15-0.77405-0.89094 0.69263 0.63219 0.23251-0.33040
  -6   2  -3   45.80    4.32  15-0.77855-0.45163 0.69380 0.26650 0.22589-0.80765
  -5  -1  -3    1.26    1.99  16-0.76685-0.08502 0.69068-0.36943 0.24286-0.61238
  -8   2   0   -0.27    2.26  16-0.76396-0.88656 0.68986 0.18426 0.24694-0.28251
  -7   0  -2  256.61    8.68  16-0.75449-0.55541 0.68709-0.12179 0.26003-0.49932
  -7   1  -2   29.61    3.98  16-0.75143-0.62034 0.68616 0.07307 0.26416-0.57953
  -7   3  -1   14.30    3.25  17-0.74711-0.76443 0.68482 0.39277 0.26993-0.56506
  -6   0  -3  306.34    9.14  16-0.76351-0.34072 0.68973-0.11676 0.24757-0.67667
  -6   1  -3  105.56    5.81  16-0.76173-0.40521 0.68922 0.07734 0.25007-0.75584
  -6   6   1   14.06    2.61  16-0.75586-0.77833 0.68750 0.77162 0.25817-0.45033
  -7   4   0    7.43    2.49  17-0.74569-0.84203 0.68439 0.51701 0.27180-0.46874
  -7   5   2    0.83    1.63  17-0.73694-0.94002 0.68157 0.57459 0.28318-0.21433
  -6   3  -2  242.11    8.50  17-0.74027-0.56609 0.68266 0.40221 0.27889-0.76276
  -5   0  -3  278.97    8.47  17-0.73478-0.17889 0.68086-0.16824 0.28594-0.73031
  -5   2  -3  143.07    6.44  17-0.74051-0.29820 0.68273 0.21622 0.27858-0.87582
  -7   2  -1    1.13    2.66  19-0.71105-0.73564 0.67262 0.21130 0.31508-0.53211
  -7   5   3    3.77    1.68  18-0.71341-0.97587 0.67347 0.51315 0.31228-0.06297
  -6   4  -1  135.75    6.50  18-0.71960-0.66275 0.67567 0.53289 0.30482-0.69247
  -6   5   0   35.19    3.68  18-0.72159-0.73697 0.67637 0.65710 0.30240-0.59221
  -5   1  -3   62.90    4.40  18-0.72701-0.24921 0.67824 0.02734 0.29572-0.81694
  -7   1  -1  110.90    6.02  19-0.69923-0.68717 0.66824 0.02164 0.32886-0.47082
  -7   3   0    0.96    2.64  19-0.69296-0.83254 0.66586 0.34344 0.33599-0.45694
  -7   4   1    0.71    2.05  19-0.69793-0.90351 0.66775 0.46579 0.33034-0.35367
  -6   0  -2   90.27    5.19  19-0.69871-0.41984 0.66805-0.16376 0.32945-0.58432
  -6   1  -2    1.93    2.75  19-0.69085-0.49107 0.66505 0.03425 0.33836-0.67002
  -6   2  -2  171.58    7.31  19-0.70594-0.53777 0.67075 0.22012 0.32109-0.72901
  -6   6   2   24.84    3.13  19-0.69871-0.84963 0.66805 0.72150 0.32945-0.34794
  -4   1  -3    8.23    2.23  19-0.70671-0.07834 0.67103-0.02528 0.32019-0.85737
  -6   3  -1    1.16    2.46  21-0.66697-0.65002 0.65553 0.35944 0.36429-0.68061
  -5   3  -2  312.71    9.43  20-0.68367-0.43140 0.66225 0.36081 0.34632-0.84615
  -7   2   0   13.91    3.28  21-0.66101-0.80144 0.65308 0.16077 0.37050-0.41509
  -7   3   1   36.18    4.08  22-0.64646-0.89283 0.64692 0.29243 0.38532-0.33187
  -7   4   2    3.87    2.10  21-0.66157-0.95401 0.65331 0.41016 0.36993-0.22009
  -7   4   3    8.93    2.72  22-0.64166-0.98874 0.64485 0.35049 0.39010-0.06502
  -6   4   0   60.49    4.66  22-0.64659-0.74978 0.64698 0.49272 0.38519-0.59776
  -6   5   1    0.06    2.15  21-0.65514-0.81376 0.65062 0.61156 0.37655-0.49825
  -6   6   3    6.49    2.26  21-0.65542-0.90564 0.65073 0.67337 0.37626-0.22017
  -5   0  -2   93.17    5.11  21-0.65204-0.27519 0.64931-0.20567 0.37970-0.65054
  -5   2  -2  154.48    6.66  21-0.64838-0.40419 0.64775 0.18231 0.38339-0.80586
  -5   4  -1   55.02    4.59  22-0.64504-0.54636 0.64631 0.50128 0.38674-0.78970
  -5   6   1   17.54    2.87  22-0.64586-0.69741 0.64667 0.75038 0.38592-0.59411
  -6   2  -1    7.45    2.91  22-0.63052-0.62694 0.63998 0.18364 0.40096-0.63523
  -6   6   4    0.21    1.60  22-0.63110-0.94577 0.64023 0.61064 0.40040-0.07556
  -5   1  -2    6.55    2.12  22-0.63690-0.35338 0.64278-0.00494 0.39477-0.74216
  -5   5   0    6.16    2.90  22-0.62993-0.63682 0.63972 0.63275 0.40152-0.70643
  -5   7   3   20.42    3.02  22-0.63690-0.79830 0.64278 0.80903 0.39477-0.32654
  -7   3   2   16.20    3.13  23-0.61311-0.94059 0.63216 0.23665 0.41738-0.18956
  -6   1  -1  202.98    7.66  23-0.61846-0.57665 0.63459-0.00568 0.41240-0.56941
  -6   5   2   20.48    3.21  24-0.59880-0.88802 0.62556 0.56962 0.43040-0.37186
  -4   2  -2   40.85    3.69  23-0.60272-0.25882 0.62738 0.14149 0.42688-0.86583
  -6   3   0   45.84    4.21  24-0.59193-0.74173 0.62234 0.32437 0.43650-0.57280
  -6   4   1    6.18    2.78  24-0.58021-0.83001 0.61676 0.45616 0.44672-0.48590
  -5   3  -1    6.24    2.66  24-0.58794-0.54076 0.62045 0.33480 0.44001-0.76635
  -5   6   2    9.55    2.70  25-0.57114-0.78701 0.61238 0.71736 0.45444-0.48784
  -5   7   4    5.16    2.32  24-0.59101-0.85613 0.62190 0.76206 0.43731-0.19907
  -6   1   0   35.53    4.07  25-0.54994-0.65877 0.60196-0.04191 0.47192-0.45439
  -6   2   0   14.17    3.11  25-0.55915-0.71324 0.60653 0.14746 0.46442-0.52402
  -6   5   3   32.27    3.56  25-0.55629-0.94477 0.60511 0.52139 0.46677-0.23346
  -5   2  -1  107.56    5.70  25-0.55141-0.51512 0.60269 0.15862 0.47073-0.71915
  -5   4   0  168.44    7.11  25-0.55107-0.65410 0.60252 0.47615 0.47101-0.69816
  -5   5   1   24.24    3.47  26-0.54482-0.73688 0.59940 0.60383 0.47602-0.60651
  -4   8   5    7.13    2.17  25-0.55373-0.77629 0.60385 0.84144 0.46885-0.14741
  -6   3   1   51.30    4.69  26-0.52577-0.82183 0.58974 0.28764 0.49093-0.45199
  -6   4   2   16.75    3.50  26-0.52418-0.90002 0.58892 0.41378 0.49214-0.35600
  -6   5   4   -0.23    2.16  26-0.53240-0.98157 0.59313 0.46420 0.48580-0.08642
  -5   1  -1   64.49    4.34  26-0.54151-0.46255 0.59774-0.02953 0.47866-0.65120
  -6   2   1   38.72    4.06  28-0.49618-0.78954 0.57432 0.10985 0.51294-0.39868
  -5   3   0   45.91    4.32  28-0.49303-0.65036 0.57266 0.31314 0.51521-0.66636
  -5   6   3    9.08    2.75  27-0.50797-0.86368 0.58052 0.67814 0.50433-0.36195
  -4   3  -1    0.44    2.00  27-0.51662-0.42072 0.58502 0.30940 0.49788-0.83979
  -4   7   3   10.57    2.94  27-0.50027-0.74119 0.57648 0.81547 0.50998-0.46121
  -6   3   2   36.67    4.18  28-0.47329-0.88856 0.56209 0.24648 0.52908-0.31712
  -6   4   3   10.39    2.73  28-0.48504-0.95397 0.56840 0.36387 0.52089-0.21149
  -5   4   1   30.63    3.77  29-0.46529-0.75400 0.55775 0.45364 0.53456-0.58898
  -5   5   2   14.20    3.29  29-0.46945-0.82566 0.56001 0.57525 0.53172-0.48826
  -5   6   4   -0.37    2.25  29-0.46670-0.92056 0.55852 0.63269 0.53360-0.22630
  -4   2  -1    1.01    1.82  28-0.47890-0.39659 0.56511 0.13832 0.52520-0.79132
  -5   1   0   64.32    4.36  29-0.44881-0.56895 0.54871-0.04971 0.54556-0.54439
  -5   2   0   85.93    5.14  29-0.45683-0.62360 0.55313 0.13919 0.54025-0.61531
  -5   6   5    6.11    2.75  30-0.44119-0.95827 0.54449 0.57756 0.55052-0.06085
  -5   6   6   17.37    3.01  29-0.44496-0.96727 0.54658 0.50628 0.54807 0.11675
  -4   4   0  302.65    9.07  29-0.46065-0.55403 0.55522 0.46259 0.53769-0.78103
  -4   5   1   17.52    3.41  30-0.43868-0.65191 0.54309 0.59884 0.55214-0.69818
  -4   6   2   98.06    5.50  29-0.45056-0.71613 0.54968 0.71663 0.54441-0.59165
  -4   7   4    3.07    2.38  30-0.43727-0.81913 0.54231 0.78092 0.55305-0.33036
  -5   5   3   21.60    3.79  31-0.40913-0.90026 0.52644 0.53888 0.57060-0.35296
  -5   3   1   26.78    3.43  31-0.40590-0.75090 0.52460 0.29189 0.57256-0.54980
  -5   4   2   42.43    4.28  31-0.39037-0.84308 0.51567 0.42540 0.58177-0.46109
  -4   3   0  156.34    6.49  31-0.39580-0.55627 0.51880 0.30547 0.57858-0.74568
  -4   7   5    4.07    2.23  31-0.39399-0.87666 0.51776 0.73479 0.57965-0.18085
  -4   7   7   -0.03    2.04  32-0.38746-0.91086 0.51399 0.60040 0.58346 0.15485
  -3   8   5    0.02    1.78  31-0.39399-0.74732 0.51776 0.86692 0.57965-0.28114
  -5   2   1  258.77    8.29  32-0.37104-0.72356 0.50442 0.11896 0.59285-0.49412
  -5   5   4   38.42    4.17  32-0.36738-0.95617 0.50227 0.49372 0.59490-0.20288
  -4   2   0  178.79    6.78  33-0.35479-0.53467 0.49484 0.13651 0.60183-0.69275
  -4   4   1   60.54    4.64  33-0.35041-0.67782 0.49224 0.45659 0.60421-0.67300
  -4   6   3  102.71    5.62  32-0.37141-0.80947 0.50464 0.69302 0.59264-0.46597
  -4   7   6   13.71    2.78  32-0.37690-0.90775 0.50785 0.67683 0.58954-0.01875
  -3   8   6   13.44    2.81  32-0.35612-0.79791 0.49563 0.82024 0.60111-0.12037
  -3   8   7    2.79    2.26  33-0.35073-0.81881 0.49243 0.75587 0.60403 0.04933
  -5   3   2    7.15    2.59  33-0.33255-0.83848 0.48156 0.26657 0.61366-0.41658
  -5   4   3  151.09    6.62  33-0.33255-0.91498 0.48156 0.38995 0.61366-0.31908
  -5   5   5   26.98    3.46  33-0.34818-0.98946 0.49092 0.43648 0.60540-0.03920
  -4   5   2   10.19    2.73  33-0.34298-0.76049 0.48782 0.58561 0.60818-0.58021
  -5   4   4   96.23    5.78  35-0.29478-0.96668 0.45858 0.34440 0.63253-0.16353
  -4   6   4    1.71    2.50  34-0.31078-0.88329 0.46838 0.66105 0.62472-0.32537
  -3   7   4    2.21    2.74  34-0.29554-0.76899 0.45905 0.80233 0.63216-0.42497
  -5   3   3    3.33    2.58  35-0.27814-0.90711 0.44829 0.23042 0.64037-0.26875
  -4   3   1   15.15    2.63  35-0.28272-0.68299 0.45113 0.30421 0.63824-0.63077
  -4   5   3   35.30    3.99  35-0.26502-0.85293 0.44010 0.56390 0.64636-0.44388
  -4   6   5    2.76    2.55  35-0.27126-0.93642 0.44400 0.61636 0.64354-0.16875
  -4   6   7    1.57    2.13  35-0.27355-0.96283 0.44543 0.47699 0.64249 0.18026
  -4   2   1   13.03    2.45  36-0.23970-0.66399 0.42413 0.13839 0.65744-0.57388
  -4   4   2    9.68    2.66  36-0.25513-0.78631 0.43390 0.44731 0.65076-0.54712
  -4   6   6   24.83    3.48  36-0.25744-0.96471 0.43535 0.55560 0.64974-0.00151
  -3   4   1  176.79    6.83  36-0.23455-0.60218 0.42086 0.46641 0.65962-0.74323
  -3   6   3   13.18    3.12  36-0.23815-0.75092 0.42315 0.71320 0.65810-0.54700
  -3   7   5    1.99    2.86  36-0.23815-0.84046 0.42315 0.76914 0.65810-0.27669
  -3   7   8    3.58    2.36  37-0.22885-0.89284 0.41722 0.56763 0.66200 0.24181
  -2   8   9    9.88    2.88  36-0.23493-0.76928 0.42110 0.62640 0.65946 0.32721
  -1   9   9    1.68    1.64  37-0.23188-0.64344 0.41915 0.76009 0.66074 0.23210
  -4   5   4   15.62    3.18  37-0.20823-0.92450 0.40398 0.53180 0.67036-0.29313
  -3   5   2    0.25    2.10  37-0.21797-0.69257 0.41026 0.60125 0.66646-0.65700
  -3   7   6   51.04    4.35  37-0.20514-0.88765 0.40198 0.72024 0.67157-0.11491
  -3   7   7   14.18    2.93  38-0.20088-0.90677 0.39922 0.65430 0.67324 0.05785
  -2   8   6   15.81    3.10  38-0.20080-0.76309 0.39917 0.85648 0.67327-0.20972
  -1   9   8    3.49    2.18  37-0.20182-0.66105 0.39983 0.85053 0.67287 0.04673
  -4   3   2   81.56    4.89  38-0.18670-0.79288 0.39000 0.29635 0.67865-0.49714
  -4   4   3   82.44    5.25  38-0.17885-0.87737 0.38486 0.42598 0.68157-0.40218
  -4   5   5   20.36    3.49  38-0.17351-0.97246 0.38136 0.48420 0.68352-0.13161
  -4   5   6    0.49    2.64  39-0.16862-0.99401 0.37813 0.42200 0.68528 0.03100
  -2   8   7   -0.17    2.38  39-0.17413-0.80323 0.38176 0.80231 0.68329-0.05330
  -2   8   8   -0.36    1.91  38-0.18552-0.80907 0.38923 0.72904 0.67909 0.12592
  -4   2   2  158.98    6.48  39-0.14352-0.77338 0.36150 0.13184 0.69399-0.43698
  -3   6   4   -0.40    2.32  39-0.16231-0.83837 0.37397 0.69218 0.68753-0.40901
  -2   7   4   90.39    5.38  39-0.16073-0.71351 0.37293 0.82664 0.68808-0.49423
  -4   3   3  422.96   10.47  40-0.11399-0.88010 0.34165 0.27607 0.70352-0.34878
  -4   4   4   15.83    3.38  40-0.12630-0.94386 0.34996 0.39287 0.69964-0.24764
  -3   4   2    9.99    2.69  40-0.11558-0.73531 0.34273 0.47599 0.70302-0.61347
  -3   5   3   42.91    3.99  40-0.12074-0.80672 0.34622 0.59650 0.70141-0.51329
  -3   6   5   24.42    3.60  40-0.11004-0.90678 0.33898 0.65863 0.70473-0.24522
  -3   6   8   68.67    4.76  40-0.11876-0.94039 0.34488 0.44570 0.70203 0.27965
  -2   6   3  167.70    6.95  40-0.10765-0.69099 0.33736 0.73778 0.70546-0.60994
  -1   8  10    2.17    1.61  40-0.12591-0.70135 0.34970 0.56591 0.69977 0.44491
  -4   4   5    8.97    3.38  41-0.09886-0.98547 0.33139 0.34131 0.70809-0.08126
  -3   6   6    1.54    2.47  41-0.08451-0.94654 0.32157 0.60853 0.71225-0.08000
  -3   6   7    1.30    2.38  41-0.08611-0.95950 0.32267 0.53865 0.71180 0.09472
  -2   7   5   30.27    3.62  41-0.09089-0.79730 0.32594 0.80495 0.71043-0.34239
  -2   7   9   32.32    3.68  41-0.09329-0.84947 0.32758 0.52629 0.70973 0.35464
  -3   5   4   55.03    4.41  42-0.04934-0.89222 0.29725 0.57604 0.72167-0.35972
  -1   8   6   12.28    2.98  42-0.05734-0.71544 0.30282 0.89081 0.71962-0.27107
  -1   8   9    0.97    2.14  42-0.05094-0.76361 0.29837 0.68865 0.72126 0.24918
   0   9   8    9.20    2.68  42-0.05094-0.61913 0.29837 0.88981 0.72126-0.01668
   0   9   9    0.21    1.92  42-0.06614-0.62284 0.30892 0.81188 0.71731 0.15551
   1  -7   3   81.86    5.21   3-0.12622 0.70979-0.89924-0.72118 0.44749 0.59694
   1  -5   5    9.08    3.22   2-0.12063 0.55089-0.90170-0.47126 0.45407 0.78418
   1  -3   6  272.47    9.02   2-0.10998 0.39981-0.90616-0.14519 0.46647 0.79244
   1  -2   6   66.15    4.98   2-0.11648 0.34407-0.90347 0.04502 0.45893 0.72311
   2  -5   4   33.12    3.93   2-0.11752 0.75234-0.90303-0.46098 0.45772 0.59181
   2  -3   5    1.28    2.91   2-0.12504 0.62288-0.89977-0.14795 0.44889 0.62070
   1  -6   4   30.18    3.84   3-0.13718 0.64162-0.89416-0.60240 0.43440 0.70726
   2  -2   5  113.49    5.87   3-0.13150 0.56519-0.89683 0.04492 0.44120 0.55162
   1  -4   5   15.56    3.71   4-0.16511 0.53233-0.87972-0.30010 0.40017 0.76235
   1  -3   5    0.82    2.86   5-0.18749 0.49500-0.86655-0.12118 0.37174 0.71586
   0  -7   3   22.78    3.66   7-0.20870 0.60024-0.85270-0.70703 0.34394 0.71653
   0  -6   4    1.83    2.92   6-0.20467 0.51963-0.85544-0.58051 0.34929 0.80695
   1  -6   3   19.98    4.13   6-0.20712 0.72802-0.85379-0.57478 0.34605 0.62123
   1  -5   4    0.64    3.04   6-0.19768 0.64469-0.86007-0.43819 0.35849 0.70215
   1  -2   5   14.95    2.93   6-0.19167 0.43585-0.86393 0.07292 0.36633 0.64148
   1  -4   4    4.29    2.70   8-0.23743 0.62073-0.83171-0.27901 0.30486 0.68199
  -4  -9   2    4.36    2.36  10-0.26583 0.03134-0.80832-0.82329 0.26461 0.83639
  -1  -8   2  108.70    5.88   9-0.26253 0.53825-0.81117-0.81073 0.26936 0.70780
  -1  -6   4   10.95    2.99   9-0.25412 0.37788-0.81829-0.55301 0.28140 0.89079
   0  -5   4   58.62    5.05   9-0.25988 0.51205-0.81345-0.42703 0.27319 0.80666
   1  -5   3   11.07    3.43   9-0.26322 0.72093-0.81059-0.42350 0.26838 0.62249
   1  -3   4    9.15    2.56   9-0.25892 0.57818-0.81426-0.10248 0.27456 0.63711
   1  -2   4   43.02    3.79   9-0.25964 0.51684-0.81365 0.09192 0.27353 0.56038
  -1  -7   3    0.63    2.45  10-0.27011 0.47459-0.80455-0.68898 0.25839 0.81432
   0  -7   2   12.03    3.00  10-0.27907 0.68513-0.79645-0.69430 0.24524 0.63882
   0  -6   3   66.92    5.03  10-0.28048 0.60828-0.79515-0.57051 0.24315 0.74016
  -3 -10   0    7.01    2.25  11-0.29654 0.34187-0.77983-0.96944 0.21908 0.59349
  -2  -9   1    6.04    2.29  11-0.29307 0.45384-0.78322-0.90208 0.22433 0.67117
  -1  -5   4   84.78    5.51  12-0.30547 0.36608-0.77088-0.40741 0.20543 0.89005
   0  -4   4   13.98    3.22  11-0.29700 0.48754-0.77937-0.26922 0.21838 0.78449
   1  -4   3  108.20    5.88  11-0.30075 0.69606-0.77565-0.26408 0.21267 0.60150
  -2  -8   2    0.23    2.32  12-0.31482 0.40468-0.76118-0.79633 0.19093 0.80126
  -2  -7   3   12.32    3.08  12-0.31210 0.32037-0.76403-0.67198 0.19517 0.89454
   0  -3   4   14.37    2.69  12-0.31708 0.44495-0.75878-0.09526 0.18739 0.73859
   1  -3   3  443.80   10.42  12-0.32098 0.65466-0.75458-0.09151 0.18125 0.55564
  -4 -10   0   18.42    2.84  13-0.33338 0.18911-0.74084-0.94666 0.16147 0.66791
  -3  -9   1    5.98    3.05  13-0.33780 0.30727-0.73577-0.88859 0.15431 0.75513
  -1  -8   1   64.64    5.02  13-0.33006 0.62012-0.74459-0.80858 0.16681 0.63609
  -1  -6   3    1.67    2.96  13-0.33492 0.47258-0.73908-0.56632 0.15898 0.83847
  -1  -4   4  215.10    7.80  14-0.33980 0.33874-0.73346-0.25200 0.15106 0.86772
   0  -5   3   10.89    2.98  13-0.33161 0.59881-0.74284-0.43029 0.16432 0.74120
  -5 -10   0    5.62    2.29  14-0.34696 0.01092-0.72502-0.90125 0.13933 0.70583
  -3  -8   2    5.91    2.85  14-0.34848 0.24075-0.72320-0.77605 0.13682 0.87142
  -2  -9   0    0.33    2.44  15-0.35730 0.53766-0.71240-0.90434 0.12212 0.60128
  -1  -7   2   16.37    3.50  14-0.34304 0.55707-0.72967-0.69955 0.14576 0.75446
   0  -6   2   21.41    3.72  14-0.34500 0.68737-0.72735-0.56944 0.14255 0.66620
  -5 -11  -2    1.96    1.47  15-0.36558 0.11934-0.70192-0.97818 0.10809 0.46313
  -5  -9   1    0.35    1.99  15-0.36769-0.03982-0.69920-0.80208 0.10449 0.83988
  -4  -9   1   -0.28    1.95  15-0.36220 0.14624-0.70625-0.85542 0.11385 0.81432
  -4  -8   2   -0.67    2.35  15-0.36432 0.07287-0.70355-0.73341 0.11025 0.91465
  -3 -10  -1   32.41    3.59  15-0.36347 0.42482-0.70463-0.97528 0.11169 0.52650
  -2  -6   3  156.32    7.02  15-0.37258 0.31833-0.69280-0.54884 0.09608 0.91736
   0  -4   3  114.32    5.75  15-0.36769 0.57173-0.69920-0.27922 0.10449 0.72439
  -2  -8   1   16.04    3.20  16-0.38471 0.48245-0.67640-0.81566 0.07489 0.74368
  -2  -7   2   22.10    3.73  16-0.38852 0.41084-0.67107-0.69689 0.06812 0.84700
  -1  -5   3  245.90    8.21  16-0.38266 0.45748-0.67923-0.43051 0.07851 0.84264
  -4 -10  -1    0.97    2.21  17-0.40387 0.27185-0.64880-0.96816 0.04036 0.61267
  -3  -9   0   10.02    3.30  17-0.40488 0.38786-0.64729-0.90879 0.03851 0.69823
  -3  -6   3  323.86    9.63  17-0.39444 0.14928-0.66265-0.51745 0.05752 0.97149
  -1  -7   1    6.17    3.32  17-0.40401 0.63176-0.64859-0.71242 0.04010 0.68569
  -1  -6   2    0.23    2.76  17-0.40314 0.55485-0.64988-0.58611 0.04169 0.78127
   0  -6   1   11.80    3.05  17-0.39964 0.75701-0.65508-0.57294 0.04810 0.58636
   0  -5   2    2.50    2.56  17-0.39404 0.67574-0.66323-0.44210 0.05824 0.67299
  -6 -10  -1   25.71    3.33  19-0.42267-0.08954-0.61953-0.87697 0.00511 0.68224
  -5 -11  -3   -0.40    1.87  19-0.42125 0.18818-0.62183-0.99000 0.00783 0.38955
  -5 -10  -1    6.36    2.47  19-0.42228 0.09969-0.62017-0.93751 0.00586 0.66401
  -3  -8   1    9.16    3.20  18-0.42068 0.32893-0.62275-0.80868 0.00893 0.82440
  -3  -7   2    4.54    2.56  18-0.41724 0.24910-0.62823-0.67841 0.01545 0.91563
  -2  -5   3    9.00    2.59  18-0.41762 0.29989-0.62762-0.42215 0.01472 0.92213
  -1  -4   3  144.37    6.21  18-0.41685 0.43006-0.62884-0.28788 0.01618 0.82789
  -6 -11  -3    0.23    1.43  20-0.43565 0.01186-0.59792-0.95091-0.02010 0.43262
  -4  -9   0    2.07    2.59  19-0.43308 0.22501-0.60229-0.89194-0.01505 0.76644
  -4  -7   2    3.47    2.35  19-0.43085 0.07054-0.60604-0.64010-0.01069 0.95790
   0  -4   2  599.87   12.06  19-0.42992 0.64877-0.60760-0.30211-0.00888 0.66404
  -6  -9   0   12.04    2.69  20-0.44005-0.14833-0.59027-0.78104-0.02885 0.81330
  -5  -9   0   14.79    2.91  20-0.44476 0.04563-0.58197-0.85046-0.03828 0.80711
  -5  -8   1  149.81    6.67  20-0.44691-0.02848-0.57811-0.72891-0.04263 0.90786
  -4  -8   1   77.79    5.17  20-0.44114 0.15809-0.58836-0.78003-0.03103 0.88142
  -2  -8   0   40.56    4.24  20-0.44078 0.55373-0.58900-0.83447-0.03030 0.67482
  -2  -7   1   12.21    3.54  21-0.45053 0.48749-0.57153-0.72795-0.05001 0.79177
  -2  -6   2    1.57    2.64  20-0.44350 0.40394-0.58421-0.59074-0.03574 0.87450
  -1  -5   2    2.87    2.28  20-0.44870 0.53844-0.57488-0.46828-0.04626 0.79303
   0  -5   1   94.92    5.20  20-0.44805 0.74273-0.57605-0.45852-0.04495 0.60293
  -4 -10  -2   73.49    5.00  21-0.45435 0.33782-0.56448-0.98498-0.05785 0.53756
  -3  -9  -1    2.76    2.60  21-0.45749 0.45618-0.55858-0.92885-0.06437 0.62578
  -1  -7   0   49.47    4.41  21-0.45435 0.69601-0.56448-0.72671-0.05785 0.61048
  -1  -6   1    1.43    2.45  21-0.46008 0.62848-0.55364-0.61197-0.06980 0.71777
  -7 -11  -4    1.81    1.43  22-0.47442-0.12563-0.52520-0.89410-0.10049 0.35538
  -7 -10  -2   20.92    2.96  22-0.47110-0.21805-0.53195-0.83446-0.09328 0.62387
  -6 -11  -4   -0.43    1.58  23-0.47696 0.07132-0.51993-0.96312-0.10608 0.34924
  -5 -10  -2    5.04    2.70  22-0.47675 0.16718-0.52036-0.96673-0.10562 0.60045
  -3  -8   0    6.02    2.94  22-0.47750 0.39820-0.51880-0.84384-0.10727 0.76759
  -3  -6   2   91.87    5.39  22-0.46876 0.23772-0.53666-0.57522-0.08823 0.94294
  -6 -10  -2    1.69    1.95  23-0.48254-0.01702-0.50812-0.91878-0.11849 0.63109
  -4  -9  -1    3.33    2.74  23-0.48652 0.29268-0.49949-0.92575-0.12746 0.70474
  -3  -7   1   16.05    3.22  23-0.48110 0.32672-0.51121-0.72632-0.11525 0.87223
  -2  -8  -1    6.05    2.78  23-0.48605 0.61208-0.50053-0.85451-0.12639 0.59624
  -2  -5   2  119.27    5.75  23-0.48573 0.38409-0.50122-0.47872-0.12567 0.88801
  -8 -10  -3    2.43    1.69  24-0.49659-0.36974-0.47678-0.75790-0.15073 0.51872
  -6  -9  -1    3.58    2.66  25-0.50253-0.07461-0.46275-0.83906-0.16485 0.77371
  -5  -9  -1    1.61    2.51  25-0.50199 0.11712-0.46405-0.89708-0.16355 0.75475
  -4  -8   0   13.28    3.06  24-0.49946 0.22974-0.47007-0.83032-0.15751 0.83299
  -4  -7   1    9.28    2.86  24-0.49780 0.15241-0.47396-0.70270-0.15358 0.92582
  -3  -9  -2    9.74    2.97  24-0.49841 0.51148-0.47255-0.94484-0.15501 0.54191
  -2  -7   0    3.26    2.90  24-0.50161 0.55177-0.46495-0.76404-0.16264 0.72873
  -2  -6   1   95.29    5.43  24-0.50118 0.47527-0.46598-0.63858-0.16162 0.82710
  -1  -5   1    7.86    2.23  25-0.50406 0.60800-0.45905-0.51449-0.16854 0.74153
  -7 -11  -5    2.54    1.78  25-0.50669-0.07884-0.45261-0.89801-0.17494 0.25441
  -5 -10  -3    4.23    2.81  26-0.51484 0.22101-0.43201-0.98820-0.19515 0.51634
  -5  -8   0   13.37    3.15  25-0.50843 0.04767-0.44830-0.79173-0.17920 0.87037
  -3  -5   2   34.66    3.41  25-0.50757 0.21565-0.45046-0.46834-0.17707 0.95551
  -1  -6   0    1.75    2.31  25-0.50757 0.68779-0.45046-0.64787-0.17707 0.65201
  -7 -10  -3   -0.21    1.93  26-0.51966-0.15201-0.41928-0.87942-0.20744 0.56483
  -6 -10  -3    3.92    2.53  26-0.52428 0.03810-0.40668-0.95052-0.21948 0.55580
  -4  -9  -2   42.78    4.36  27-0.52644 0.34692-0.40064-0.95565-0.22520 0.62888
  -3  -8  -1    0.64    2.57  26-0.52170 0.46142-0.41379-0.87723-0.21271 0.69853
  -3  -6   1    8.53    2.68  27-0.52615 0.30968-0.40146-0.64336-0.22443 0.90629
  -8 -10  -4    0.50    1.97  27-0.53558-0.32051-0.37398-0.79454-0.25009 0.44453
  -3  -7   0   84.04    5.34  27-0.53051 0.39000-0.38901-0.77878-0.23613 0.81926
  -7  -9  -2    0.66    2.06  28-0.53851-0.20805-0.36503-0.80938-0.25832 0.71304
  -6  -9  -2    1.06    2.45  29-0.54519-0.01718-0.34372-0.89033-0.27765 0.71225
  -5 -10  -4    4.08    2.73  28-0.54259 0.26135-0.35218-0.99807-0.27002 0.41492
  -5  -9  -2   -0.03    2.86  28-0.54116 0.17022-0.35672-0.93834-0.26590 0.68468
  -4  -8  -1   17.19    3.37  28-0.54259 0.28731-0.35218-0.87970-0.27002 0.77112
  -4  -6   1    0.96    2.43  28-0.53948 0.13148-0.36201-0.62165-0.26108 0.95734
  -2  -7  -1   12.47    3.02  28-0.54044 0.60476-0.35899-0.80235-0.26383 0.65671
  -2  -5   1  103.66    5.28  28-0.53996 0.45305-0.36050-0.55108-0.26245 0.85099
  -7 -10  -4    1.02    2.03  29-0.55149-0.11188-0.32240-0.90513-0.29664 0.47470
  -6 -10  -4    2.55    2.29  29-0.55240 0.08015-0.31921-0.96948-0.29945 0.46390
  -6  -8  -1    4.76    2.53  29-0.55334-0.08488-0.31588-0.79228-0.30239 0.83322
  -5  -8  -1    0.04    2.53  30-0.55307 0.11312-0.31682-0.85094-0.30156 0.81766
  -5  -7   0  121.18    6.36  29-0.55325 0.03047-0.31620-0.72872-0.30210 0.91563
  -4  -7   0    9.66    2.79  29-0.54689 0.21445-0.33810-0.76919-0.28269 0.88101
  -3  -8  -2   21.92    3.50  30-0.55431 0.50499-0.31240-0.91241-0.30543 0.61719
  -2  -6   0  265.33    8.25  29-0.54620 0.53506-0.34039-0.69591-0.28064 0.77205
  -8 -10  -5    3.81    2.22  31-0.56233-0.27791-0.28224-0.81495-0.33150 0.35063
  -8  -9  -3   -0.06    1.85  30-0.55707-0.36759-0.30233-0.74302-0.31421 0.61109
  -4  -9  -3   -0.45    2.43  30-0.55538 0.39446-0.30852-0.97744-0.30882 0.54044
  -3  -5   1  578.34   12.07  30-0.56078 0.28269-0.28828-0.56175-0.32633 0.92983
  -7  -9  -3   19.07    3.23  32-0.57083-0.16812-0.24680-0.85622-0.36130 0.63856
  -6 -10  -5   -0.09    2.34  32-0.57021 0.11775-0.24955-0.97470-0.35902 0.35301
  -5  -9  -3    4.50    2.99  31-0.56916 0.21092-0.25411-0.97093-0.35522 0.59931
  -3  -7  -1   17.36    3.06  31-0.56642 0.44055-0.26568-0.83417-0.34553 0.75405
  -3  -6   0   64.24    4.43  31-0.56850 0.36661-0.25694-0.71797-0.35286 0.85978
  -8 -10  -6    0.20    1.90  32-0.57632-0.25118-0.22142-0.80839-0.38209 0.22727
  -7 -10  -5    5.01    2.35  32-0.57172-0.07670-0.24283-0.91605-0.36457 0.36907
  -6  -9  -3    1.57    2.88  32-0.57363 0.02547-0.23412-0.93096-0.37174 0.63213
  -4  -8  -2   29.44    3.86  32-0.57277 0.33152-0.23808-0.92451-0.36848 0.69623
  -9  -9  -5    0.02    1.69  34-0.58204-0.51026-0.19234-0.64859-0.40540 0.36340
  -8 -10  -7    5.41    2.06  34-0.58401-0.22715-0.18149-0.77725-0.41395 0.08134
  -8  -9  -4    8.99    2.61  33-0.58242-0.33423-0.19026-0.78180-0.40705 0.52362
  -7 -10  -6   21.29    3.38  34-0.58356-0.04936-0.18399-0.90696-0.41199 0.24183
  -7  -8  -2    5.38    2.75  33-0.57827-0.23638-0.21187-0.76737-0.38981 0.76345
  -6 -10  -6   -0.30    2.31  34-0.58234 0.14396-0.19069-0.96090-0.40671 0.22616
  -6  -8  -2   27.65    3.96  34-0.58307-0.04000-0.18670-0.85358-0.40986 0.76959
  -5  -8  -2   37.79    3.98  33-0.58137 0.14903-0.19590-0.90574-0.40258 0.74528
  -4  -7  -1    0.94    2.52  33-0.58000 0.26241-0.20309-0.83614-0.39685 0.82147
  -4  -6   0   13.01    2.81  33-0.57969 0.18703-0.20469-0.70931-0.39557 0.91758
  -2  -6  -1    7.57    2.22  33-0.57875 0.58068-0.20948-0.75786-0.39174 0.70879
  -6  -7  -1  184.81    7.49  34-0.58499-0.11387-0.17584-0.73997-0.41837 0.87510
  -5  -9  -4   -0.26    2.50  34-0.58684 0.24937-0.16497-0.99204-0.42682 0.50079
  -5  -7  -1   79.26    5.07  34-0.58562 0.07771-0.17222-0.80474-0.42119 0.86193
  -9  -9  -6   -0.55    2.06  36-0.59306-0.48260-0.12374-0.65459-0.45817 0.24819
  -7 -10  -7    9.38    2.75  35-0.58948-0.02936-0.14843-0.87278-0.43952 0.09395
  -7  -9  -4    1.26    2.41  35-0.59009-0.13523-0.14439-0.88988-0.44260 0.54414
  -6  -9  -4   -0.12    2.40  35-0.59112 0.06350-0.13751-0.95954-0.44782 0.53814
  -4  -8  -3    0.54    2.88  35-0.59193 0.36465-0.13185-0.96237-0.45209 0.60459
  -3  -7  -2   19.80    3.10  35-0.58997 0.47813-0.14520-0.88603-0.44199 0.67662
  -8  -9  -5    0.58    2.04  36-0.59593-0.30023-0.10140-0.80691-0.47470 0.42379
  -7  -8  -3   19.65    3.50  37-0.59752-0.20261-0.08760-0.82359-0.48475 0.68536
  -5  -9  -5    4.55    3.02  37-0.59718 0.27025-0.09065-0.99812-0.48255 0.37859
  -3  -6  -1    0.98    1.83  36-0.59482 0.40661-0.11034-0.79651-0.46812 0.80022
  -9  -9  -7    1.81    1.78  37-0.59857-0.46571-0.07777-0.62585-0.49184 0.10236
  -7  -9  -5    8.19    2.87  38-0.60037-0.11085-0.05940-0.90565-0.50493 0.43215
  -6  -9  -5   13.66    3.44  38-0.60059 0.08228-0.05695-0.97020-0.50665 0.41882
  -6  -8  -3   55.60    4.52  37-0.59964-0.00978-0.06716-0.90402-0.49942 0.68418
  -5  -8  -3   10.96    3.28  37-0.59810 0.17944-0.08225-0.95028-0.48861 0.65690
  -4  -7  -2   26.20    3.34  37-0.59916 0.29711-0.07206-0.89762-0.49593 0.74623
  -4  -5   0   36.89    3.47  37-0.59979 0.14500-0.06553-0.65476-0.50058 0.94546
  -8  -9  -6    0.77    2.25  38-0.60252-0.27988-0.03325-0.80632-0.52319 0.29828
  -6  -7  -2   32.50    3.86  38-0.60258-0.08355-0.03243-0.81407-0.52375 0.80619
  -5  -7  -2   90.20    5.44  38-0.60243 0.10808-0.03448-0.87371-0.52234 0.78840
  -5  -6  -1   23.15    3.17  39-0.60323 0.03334-0.02307-0.76090-0.53019 0.89378
  -4  -8  -4    1.44    2.42  38-0.60218 0.38906-0.03775-0.98730-0.52008 0.49830
  -4  -6  -1   45.47    3.91  38-0.60140 0.22211-0.04756-0.79702-0.51325 0.86096
  -3  -7  -3  280.64    8.79  38-0.60255 0.50504-0.03284-0.92965-0.52347 0.58456
  -8  -9  -9    0.15    1.27  39-0.60449-0.23794-0.00175-0.62949-0.54463-0.20394
  -8  -9  -7    0.27    2.14  40-0.60496-0.26483 0.00807-0.77994-0.55118 0.15189
  -7  -9  -6   43.84    4.15  39-0.60485-0.09108 0.00562-0.90169-0.54955 0.30186
  -6  -9  -6    1.85    2.68  40-0.60483 0.10444 0.00520-0.96414-0.54928 0.29199
  -9  -8  -6    7.37    2.58  40-0.60595-0.53396 0.03607-0.61639-0.56955 0.27691
  -8  -9  -8    9.18    2.50  40-0.60557-0.24861 0.02361-0.72217-0.56144-0.02203
  -7  -8  -4    6.67    2.72  40-0.60546-0.18058 0.02034-0.86243-0.55929 0.58441
  -6  -8  -4    2.78    3.13  40-0.60598 0.01019 0.03734-0.93873-0.57037 0.57930
  -5  -8  -4    1.15    2.51  40-0.60535 0.20082 0.01748-0.98097-0.55741 0.55114
  -3  -6  -2    3.38    2.09  40-0.60584 0.43192 0.03220-0.86944-0.56704 0.72495
  -9  -8  -7    2.82    2.22  42-0.60641-0.52097 0.07835-0.58955-0.59636 0.12992
  -7  -9  -8    0.31    2.17  41-0.60637-0.05777 0.06081-0.82365-0.58537-0.00378
  -7  -9  -7    0.08    2.25  41-0.60618-0.07129 0.04651-0.87797-0.57627 0.16149
  -7  -7  -3   52.55    4.54  41-0.60640-0.25542 0.06530-0.78276-0.58820 0.71188
  -4  -7  -3   14.80    3.01  41-0.60622 0.31623 0.04896-0.94909-0.57784 0.65377
  -9  -8  -8    2.15    2.35  42-0.60633-0.50439 0.08895-0.53239-0.60290-0.03955
  -6  -7  -3  249.54    8.54  42-0.60625-0.06459 0.09506-0.87356-0.60664 0.71440
  -5  -7  -3   45.57    4.22  42-0.60632 0.12577 0.08976-0.92906-0.60340 0.69533
   0   6   7  253.34    8.58   2 0.14216-0.61407-0.25846 0.93538 0.94793-0.18846
   0   6   8  111.50    6.31   2 0.15104-0.63712-0.27576 0.88327 0.94951-0.01533
   0   6   9   23.32    3.64   2 0.14491-0.64462-0.26382 0.80254 0.94845 0.15924
   1   6  11    0.50    2.00   2 0.14131-0.48002-0.25681 0.60318 0.94776 0.48547
   2   7   8   90.48    5.74   2 0.15307-0.31850-0.27972 0.95839 0.94983-0.12280
   2   7  10   -0.80    2.41   2 0.14427-0.33865-0.26258 0.80829 0.94833 0.21775
   3   6  12    5.83    2.70   2 0.15210-0.11923-0.27783 0.42377 0.94968 0.63553
   3   7  11    1.38    2.30   2 0.14089-0.15654-0.25599 0.66602 0.94768 0.38570
   4   6  12    0.36    1.58   3 0.15634 0.06709-0.28611 0.37235 0.95031 0.61769
   1   6   6   31.45    3.68   3 0.16734-0.43373-0.30755 0.99237 0.95160-0.38113
   2   7   9    7.39    3.05   3 0.15627-0.33429-0.28597 0.89593 0.95030 0.04950
   3   7  10   11.05    3.19   3 0.16943-0.17139-0.31162 0.79045 0.95179 0.20836
   1   6  10   39.97    4.19   4 0.17934-0.50307-0.33098 0.73927 0.95244 0.31451
   2   5  12    1.04    1.66   4 0.18017-0.27722-0.33259 0.34838 0.95248 0.72137
   2   6  11    3.34    2.78   4 0.18553-0.33044-0.34305 0.62072 0.95264 0.47250
   3   7   8    1.21    2.37   4 0.17542-0.14957-0.32333 0.94231 0.95223-0.14704
   3   7   9    1.12    2.61   4 0.18017-0.16747-0.33259 0.88076 0.95248 0.03251
   1   5  11   23.15    3.57   6 0.20322-0.47946-0.37759 0.52378 0.95228 0.56535
   1   6   7    2.52    2.67   5 0.19287-0.47426-0.35738 0.97279 0.95265-0.20884
   1   6   8    6.34    3.30   5 0.20270-0.49657-0.37657 0.92375 0.95231-0.03485
   1   6   9   65.67    5.02   5 0.19856-0.50710-0.36850 0.84592 0.95251 0.14004
   2   6   6    4.34    2.49   5 0.20241-0.27557-0.37601 0.99885 0.95233-0.39752
   3   5  12   12.89    2.99   6 0.20385-0.11230-0.37883 0.33404 0.95224 0.70909
   4   5  12    9.79    2.41   6 0.20660 0.07848-0.38421 0.27706 0.95205 0.69332
   2   4  12    1.54    1.80   6 0.21788-0.25300-0.40624 0.22730 0.95091 0.80318
   2   6  10    0.67    2.97   6 0.21855-0.34982-0.40755 0.75538 0.95083 0.30105
   3   6  11    1.33    2.45   6 0.21066-0.16438-0.39212 0.60882 0.95171 0.45825
   4   6  11    4.14    2.58   6 0.21837 0.01883-0.40719 0.56205 0.95085 0.44425
   1   5   5  179.81    6.74   7 0.22813-0.41823-0.42629 0.98656 0.94936-0.47661
   2   6   7    0.71    2.40   7 0.22892-0.31663-0.42783 0.98277 0.94922-0.22418
   2   6   9    8.70    3.21   8 0.23606-0.35372-0.44180 0.85868 0.94781 0.12893
   1   4  11   39.47    3.99   9 0.25278-0.46665-0.47453 0.42837 0.94350 0.65028
   1   5  10    1.03    2.82   8 0.24565-0.50589-0.46058 0.67549 0.94551 0.39786
   2   3  12    0.27    1.22   8 0.24256-0.21609-0.45453 0.08410 0.94630 0.88087
   2   5  11    7.01    2.75   8 0.24391-0.32796-0.45718 0.54278 0.94596 0.55527
   2   6   8   21.08    3.69   8 0.23985-0.34225-0.44922 0.93354 0.94696-0.04286
   3   4  12    6.13    2.10   8 0.24256-0.08786-0.45453 0.21555 0.94630 0.78926
   3   6  10   11.37    2.97   8 0.24333-0.18388-0.45604 0.74108 0.94611 0.29035
   4   4  12    3.41    2.03   8 0.24101 0.10624-0.45150 0.15184 0.94668 0.77279
   3   5  11    3.70    2.81  10 0.26692-0.15872-0.50225 0.52563 0.93869 0.54780
   3   6   8    3.42    2.57   9 0.26204-0.17319-0.49268 0.91655 0.94047-0.05311
   3   6   9    3.03    3.05   9 0.25940-0.18475-0.48750 0.84235 0.94138 0.12020
   1   5   8   13.74    3.73  11 0.28051-0.51388-0.52889 0.88257 0.93301 0.06237
   1   5   9    0.03    3.27  10 0.26991-0.51576-0.50810 0.79707 0.93753 0.22405
   2   5  10    3.90    3.25  11 0.28178-0.35234-0.53137 0.68599 0.93242 0.39554
   4   5  11   22.04    3.43  10 0.27326 0.02582-0.51466 0.47616 0.93617 0.53561
   1   3  11   15.73    2.98  11 0.29009-0.44108-0.54769 0.30668 0.92834 0.74290
   2   4  11    1.50    2.57  11 0.28991-0.31021-0.54734 0.43838 0.92843 0.65089
   1   4  10   44.59    4.44  12 0.29993-0.50082-0.56701 0.58978 0.92293 0.49616
   2   5   6    5.57    2.05  12 0.29797-0.30969-0.56318 0.99328 0.92406-0.29264
   2   5   9   22.06    4.19  12 0.30487-0.35924-0.57673 0.79919 0.91998 0.23431
   3   4  11    0.59    2.98  13 0.30941-0.13924-0.58564 0.41584 0.91712 0.64732
   3   5  10   19.79    3.53  12 0.30382-0.18217-0.57465 0.66719 0.92062 0.39169
   4   5  10   -0.16    2.92  13 0.30977 0.00133-0.58636 0.62478 0.91689 0.37536
   2   3  11    1.28    2.93  14 0.32368-0.28311-0.61371 0.31012 0.90717 0.74947
   2   5   7    3.58    2.69  13 0.31411-0.34048-0.59488 0.95517 0.91401-0.10848
   2   5   8   53.37    4.76  13 0.31549-0.35749-0.59759 0.88891 0.91307 0.06733
   4   4  11   15.32    2.96  13 0.31411 0.04521-0.59488 0.36590 0.91401 0.63271
   1   4   9    0.69    3.10  14 0.32974-0.51403-0.62562 0.71651 0.90249 0.34351
   2   4  10    9.43    3.19  14 0.33273-0.34037-0.63152 0.59215 0.90007 0.50463
   3   5   8   24.83    3.97  14 0.33596-0.18561-0.63787 0.86861 0.89738 0.06737
   3   5   9   11.38    3.41  14 0.32588-0.18903-0.61803 0.77921 0.90551 0.23303
   1   3  10    8.95    3.46  15 0.34255-0.48073-0.65090 0.47975 0.89158 0.60498
   1   4   6  562.98   11.75  15 0.34873-0.49131-0.66309 0.96115 0.88582-0.16277
   1   4   8   11.63    3.58  15 0.34738-0.51865-0.66042 0.81956 0.88711 0.18520
   2   1  11    2.34    2.47  16 0.35152-0.18702-0.66858-0.01989 0.88312 0.92528
   2   2  11    9.00    3.08  15 0.34481-0.24396-0.65536 0.16199 0.88952 0.84133
   3   3  11   36.26    3.99  15 0.34043-0.10955-0.64674 0.28422 0.89347 0.74618
   4   3  11    0.95    2.69  15 0.34157 0.08187-0.64898 0.22451 0.89246 0.73184
   1   4   7  260.97    8.30  16 0.35403-0.51066-0.67357 0.90227 0.88060 0.01694
   2   4   9    5.54    3.63  16 0.36073-0.35327-0.68678 0.71518 0.87363 0.35752
   3   1  11   10.47    3.01  17 0.36148-0.00797-0.68827-0.06026 0.87281 0.91963
   3   2  11    8.33    2.87  16 0.35810-0.06434-0.68159 0.12541 0.87642 0.84002
   3   4  10    4.43    2.98  16 0.35151-0.16844-0.66859 0.56765 0.88311 0.50577
   4   2  11   15.65    3.06  16 0.35513 0.13020-0.67573 0.05793 0.87948 0.82132
   4   4  10    2.86    3.09  16 0.35654 0.02027-0.67851 0.51520 0.87804 0.49667
   1   2  10   34.93    4.36  18 0.37352-0.45035-0.71207 0.34843 0.85902 0.71305
   2   3  10    1.56    3.41  17 0.37181-0.31673-0.70867 0.47549 0.86108 0.61862
   1   3   9   27.96    4.10  18 0.37698-0.50075-0.71891 0.61671 0.85475 0.46724
   2   4   6  524.27   11.42  18 0.38149-0.33267-0.72784 0.96407 0.84898-0.14064
   2   4   7   36.50    3.93  18 0.38490-0.35002-0.73459 0.90199 0.84446 0.03743
   2   4   8    0.82    2.85  18 0.37742-0.35618-0.71978 0.81849 0.85420 0.20204
   3   3  10    8.39    3.59  19 0.38636-0.14034-0.73749 0.44306 0.84248 0.62326
   3   4   9   10.40    3.39  18 0.37830-0.17918-0.72152 0.68946 0.85309 0.36166
   4   4   9   33.81    4.53  18 0.38427 0.00524-0.73335 0.63887 0.84530 0.35486
   1   1  10   -1.55    2.54  19 0.39281-0.40808-0.75027 0.20152 0.83338 0.81107
   2   2  10    2.08    3.49  19 0.39688-0.28059-0.75836 0.33237 0.82734 0.73341
   3   4   8   22.26    4.41  19 0.39501-0.18383-0.75465 0.79181 0.83014 0.21057
   4   3  10   24.43    3.55  19 0.38918 0.04655-0.74308 0.38869 0.83856 0.61166
   1   3   8  287.99    9.21  20 0.39991-0.50920-0.76436 0.73079 0.82269 0.32509
   2   3   9   69.24    5.45  20 0.40272-0.33544-0.76994 0.60641 0.81826 0.48882
   3   4   7   11.65    3.01  20 0.40258-0.17659-0.76968 0.87554 0.81847 0.04847
   1   2   9   -0.15    3.08  21 0.41159-0.47237-0.78756 0.49906 0.80342 0.58922
   1   3   7    2.19    2.68  21 0.41362-0.50862-0.79160 0.82664 0.79983 0.17526
   2  -1  10    5.02    2.31  21 0.41043-0.11137-0.78527-0.21591 0.80542 0.98113
   2   0  10   -0.19    2.68  22 0.41800-0.18082-0.80032-0.00414 0.79183 0.91874
   2   1  10   30.39    3.89  21 0.41375-0.23732-0.79185 0.17479 0.79960 0.83383
   3  -1  10    1.04    1.40  21 0.41273 0.08084-0.78984-0.27581 0.80140 0.96780
   3   2  10   66.03    5.11  21 0.40966-0.10354-0.78373 0.29704 0.80675 0.73542
   3   3   9    8.46    3.69  21 0.41676-0.15717-0.79785 0.57208 0.79413 0.49803
   4   0  10    2.21    2.69  22 0.41751 0.20555-0.79933-0.13581 0.79275 0.88602
   4   2  10   62.67    5.06  21 0.41018 0.08770-0.78475 0.23683 0.80587 0.72043
   2   3   8   90.68    5.74  22 0.42432-0.34236-0.81292 0.71796 0.77961 0.35311
   3   0  10    0.22    2.60  23 0.42669 0.00442-0.81765-0.05471 0.77480 0.91470
   3   1  10   27.42    3.84  22 0.42264-0.05520-0.80957 0.13012 0.78294 0.83533
   4   1  10    9.17    2.64  22 0.41984 0.14190-0.80399 0.06244 0.78835 0.81416
   4   3   9    6.30    3.07  22 0.42021 0.03293-0.80473 0.51805 0.78765 0.48771
   1   1   9   18.85    3.96  23 0.43496-0.43483-0.83418 0.34571 0.75702 0.71723
   2   2   9   27.14    4.26  23 0.43248-0.30283-0.82922 0.47351 0.76252 0.61970
   3   3   8    2.49    3.67  24 0.43730-0.16274-0.83885 0.68289 0.75168 0.36552
   1   2   8    1.47    3.44  24 0.43763-0.48408-0.83951 0.61290 0.75091 0.47430
   2   3   7  194.31    7.36  24 0.43785-0.34157-0.83995 0.81423 0.75040 0.20810
   3   2   9   69.47    5.41  24 0.44271-0.12197-0.84968 0.43164 0.73873 0.62917
   4   2   9    1.45    3.65  24 0.44387 0.06980-0.85201 0.37235 0.73584 0.61651
   1  -1   9   39.95    4.34  26 0.45237-0.32939-0.86906-0.00454 0.71326 0.91395
   1   0   9  101.56    5.96  25 0.44801-0.38698-0.86031 0.17924 0.72516 0.82589
   2   1   9   14.02    3.97  25 0.45134-0.26035-0.86700 0.31784 0.71613 0.74284
   3   3   7   35.41    3.94  25 0.45063-0.16304-0.86556 0.77848 0.71810 0.22514
   1   2   7   37.61    4.10  26 0.45567-0.48796-0.87573 0.71774 0.70371 0.34687
   2  -2   9   24.09    3.41  26 0.45576-0.08104-0.87592-0.24869 0.70343 0.98591
   2   0   9   16.27    3.78  27 0.46113-0.20830-0.88673 0.14379 0.68695 0.84957
   2   2   8   15.36    3.45  26 0.45605-0.31090-0.87650 0.58890 0.70259 0.50632
   3  -2   9    0.15    2.12  26 0.45481 0.11201-0.87400-0.31046 0.70623 0.96733
   3   1   9   15.85    3.49  26 0.45839-0.07387-0.88121 0.26950 0.69553 0.74869
   4  -1   9    2.80    2.62  26 0.45867 0.23992-0.88177-0.17719 0.69468 0.88781
   4   1   9   87.70    5.67  26 0.45737 0.11575-0.87915 0.20780 0.69865 0.73021
   1   1   8   15.34    3.71  27 0.46244-0.44730-0.88943 0.46995 0.68262 0.61841
   2  -1   9    4.62    2.89  27 0.46315-0.14666-0.89086-0.04621 0.68029 0.93322
   3  -1   9   27.00    3.54  27 0.46549 0.04043-0.89559-0.10084 0.67239 0.92487
   3   0   9  147.39    6.92  27 0.46566-0.02202-0.89594 0.09258 0.67180 0.84909
   3   2   8   42.48    4.42  27 0.46497-0.13006-0.89455 0.54473 0.67415 0.52026
   4  -3   8    1.32    1.99  27 0.46708 0.37046-0.89882-0.47871 0.66681 0.89463
   4   0   9   42.30    4.33  27 0.46244 0.17277-0.88943 0.02521 0.68262 0.82270
   4   2   8    2.99    3.63  27 0.46646 0.06153-0.89756 0.48723 0.66901 0.50747
   2   2   7   14.16    3.20  28 0.47227-0.31391-0.90936 0.69088 0.64752 0.38638
   1   0   8   32.27    4.19  29 0.47678-0.40107-0.91856 0.30707 0.62900 0.74779
   2   1   8   59.59    5.15  29 0.47553-0.26970-0.91602 0.43534 0.63429 0.65090
   3   2   7   95.33    5.60  30 0.47979-0.13063-0.92470 0.64458 0.61564 0.40482
   1  -2   8    8.61    3.28  31 0.48457-0.28419-0.93456-0.06553 0.59203 0.93874
   1  -1   8  156.53    7.18  30 0.48357-0.34661-0.93251 0.12782 0.59720 0.85639
   1   1   7  149.97    6.73  30 0.48096-0.45265-0.92714 0.57733 0.61006 0.51634
   2  -3   8    0.97    2.16  30 0.48319-0.02874-0.93172-0.32288 0.59914 0.99306
   2   2   6  253.64    8.09  30 0.48261-0.31023-0.93053 0.78080 0.60204 0.25871
   3  -3   8   17.02    3.02  30 0.48069 0.16362-0.92659-0.38646 0.61133 0.96510
   3   1   8   36.99    4.30  30 0.48096-0.08439-0.92714 0.38475 0.61006 0.66052
   4  -4   7   -0.80    1.27  30 0.48344 0.42675-0.93225-0.56314 0.59784 0.86496
   4  -2   8   28.65    3.68  30 0.48427 0.29028-0.93394-0.24854 0.59362 0.88983
   4   1   8  143.54    7.05  30 0.48055 0.10704-0.92631 0.32327 0.61197 0.64294
   2  -2   8    4.71    3.22  32 0.48965-0.09616-0.94513-0.11690 0.56290 0.95367
   2   0   8  540.70   12.50  31 0.48589-0.21949-0.93734 0.26438 0.58481 0.77686
   3  -2   8    0.56    2.73  31 0.48937 0.09536-0.94453-0.17963 0.56469 0.93853
   3   0   8    0.19    3.56  32 0.48914-0.03130-0.94406 0.21557 0.56609 0.77554
   3   2   6   39.81    4.03  32 0.48934-0.12558-0.94448 0.73360 0.56483 0.28096
   4  -1   8   12.42    3.57  31 0.48883 0.22335-0.94343-0.04691 0.56793 0.83872
   4   0   8    1.41    2.95  31 0.48731 0.16422-0.94026 0.14304 0.57690 0.75432
   1   1   6   14.46    2.71  32 0.49311-0.44938-0.95238 0.67041 0.53969 0.41240
   2  -1   8    5.37    3.34  32 0.49017-0.16013-0.94624 0.07740 0.55956 0.88034
   2   1   7  173.22    7.22  32 0.49101-0.27145-0.94798 0.53642 0.55416 0.55708
   3  -1   8   47.29    4.70  32 0.49172 0.02788-0.94946 0.02233 0.54942 0.87356
   1   0   7   46.34    4.51  33 0.49419-0.40340-0.95467 0.41097 0.53162 0.67170
   3  -4   7   17.68    3.10  33 0.49477 0.22437-0.95589-0.47921 0.52713 0.95286
   3   1   7    0.76    3.20  33 0.49490-0.08290-0.95617 0.48585 0.52609 0.56674
   4   1   7   11.37    3.55  33 0.49459 0.10741-0.95552 0.42103 0.52851 0.55266
   1  -1   7   12.14    3.66  35 0.49984-0.34784-0.96679 0.23190 0.47950 0.79971
   2  -4   7   27.60    3.50  34 0.49776 0.02963-0.96228-0.41381 0.50123 0.99353
   2   0   7    6.75    3.32  35 0.49966-0.21754-0.96637 0.36263 0.48165 0.70512
   4  -3   7   24.49    3.68  34 0.49772 0.35158-0.96220-0.34410 0.50159 0.88572
   1  -3   7   14.20    3.49  35 0.50094-0.22459-0.96919-0.15239 0.46614 0.96650
   1  -2   7  287.86    9.42  35 0.50172-0.28823-0.97095 0.04084 0.45524 0.89995
   2   1   6   86.75    5.00  35 0.50015-0.26598-0.96746 0.62456 0.47589 0.46129
   3  -5   6    0.46    2.16  35 0.50134 0.29418-0.97009-0.58834 0.46069 0.92234
   3  -3   7   14.91    3.50  36 0.50179 0.15594-0.97109-0.27359 0.45427 0.94745
   3   0   7    1.10    2.86  35 0.50124-0.02806-0.96985 0.30800 0.46215 0.70703
   4  -2   7   10.17    3.28  35 0.50165 0.28772-0.97078-0.14300 0.45630 0.85275
   4  -1   7    1.62    3.35  35 0.50185 0.22779-0.97123 0.04815 0.45340 0.78483
   4   0   7   27.15    4.09  35 0.50033 0.16370-0.96786 0.24058 0.47373 0.68378
   1   0   6   59.21    4.41  36 0.50307-0.39837-0.97401 0.50011 0.43278 0.59589
   2  -5   6    9.99    2.91  37 0.50375 0.10164-0.97565-0.52500 0.41791 0.97950
   2  -3   7    3.20    2.96  36 0.50245-0.03606-0.97259-0.21197 0.44385 0.97375
   2  -2   7  106.36    6.34  37 0.50348-0.09895-0.97501-0.01594 0.42410 0.91637
   2  -1   7   81.21    5.40  36 0.50281-0.15988-0.97342 0.17564 0.43759 0.82660
   3  -6   5    2.54    2.00  37 0.50352 0.36970-0.97511-0.71260 0.42319 0.86039
   3  -2   7    2.42    3.15  36 0.50347 0.09453-0.97498-0.07844 0.42432 0.90117
   3  -1   7    7.22    3.40  36 0.50332 0.03229-0.97462 0.11448 0.42759 0.82177
   3   1   6   31.41    3.65  36 0.50241-0.07648-0.97249 0.56792 0.44459 0.47751
   4  -4   6    2.21    2.48  36 0.50349 0.42398-0.97502-0.45738 0.42402 0.86509
   2  -6   5   10.75    2.91  39 0.50495 0.17637-0.97922-0.64615 0.35751 0.94276
   2   0   6  171.91    6.95  38 0.50484-0.20905-0.97860 0.44279 0.37673 0.63696
   3  -4   6   10.60    3.12  39 0.50495 0.23107-0.97916-0.39112 0.36017 0.94463
   4  -5   5    2.21    2.15  38 0.50490 0.50051-0.97885-0.57443 0.37061 0.82001
   1  -6   5    4.89    2.71  39 0.50483-0.01352-0.97936-0.58608 0.33786 0.97594
   1  -4   6   12.81    3.34  39 0.50491-0.15185-0.97936-0.26709 0.34556 0.99045
   1  -1   6  398.51   10.22  39 0.50496-0.33885-0.97922 0.31255 0.35715 0.74807
   2  -7   4    0.00    2.43  40 0.50475 0.25249-0.97931-0.76852 0.33197 0.87324
   2  -4   6   37.58    4.27  39 0.50477 0.03866-0.97933-0.32914 0.33362 0.98527
   3   0   6  113.51    5.83  39 0.50496-0.01783-0.97925 0.38139 0.35561 0.64284
   4  -6   4    3.16    1.76  39 0.50495 0.57369-0.97932-0.69959 0.35098 0.74117
   4  -3   6   66.26    5.16  39 0.50496 0.35902-0.97929-0.25892 0.35330 0.85924
   4  -1   6   -0.79    3.25  40 0.50470 0.23705-0.97928 0.12690 0.32924 0.72990
   2  -1   6   22.41    3.60  40 0.50432-0.14616-0.97886 0.24945 0.31279 0.77755
   3  -3   6    3.51    3.34  40 0.50412 0.17006-0.97860-0.19915 0.30611 0.92197
   3  -1   6  128.11    6.61  40 0.50402 0.04466-0.97847 0.18762 0.30324 0.77134
   4  -2   6  121.05    6.47  40 0.50459 0.29760-0.97917-0.06639 0.32376 0.81264
   2  -3   6    0.84    3.01  41 0.50364-0.02084-0.97793-0.13857 0.29308 0.95071
   2  -2   6    2.37    3.03  41 0.50331-0.08239-0.97743 0.05433 0.28516 0.88156
   3  -5   5   24.29    3.37  41 0.50327 0.30732-0.97738-0.51651 0.28437 0.92310
   3  -2   6   12.82    3.64  41 0.50343 0.10609-0.97762-0.00585 0.28794 0.86406
  -5   5   6    4.42    2.55   2-0.66162-0.69067-0.01554 0.87318 0.79436-0.05263
  -5   5   7    0.56    1.95   2-0.66623-0.69799-0.00759 0.80218 0.78987 0.11786
  -6   3   3   33.97    3.96   4-0.62538-0.75060-0.07531 0.81634 0.82628-0.44012
  -6   3   8   24.94    3.10   4-0.61946-0.82508-0.08466 0.47973 0.83098 0.42707
  -6   2   2    0.13    2.56   6-0.58452-0.71066-0.13778 0.75746 0.85618-0.57153
  -6   3   4    0.57    2.44   6-0.58507-0.80074-0.13697 0.81260 0.85582-0.30192
  -5   4   8    1.40    2.43   6-0.58561-0.73299-0.13617 0.66383 0.85546 0.31043
  -4   5   7    4.17    2.82   6-0.57846-0.59521-0.14666 0.87540 0.86014 0.03933
  -7   1   7    0.79    1.27   7-0.56113-0.93829-0.17161 0.31064 0.87088 0.38012
  -6   3   5    5.18    2.86   7-0.55999-0.84482-0.17322 0.77616 0.87155-0.13596
  -5   3   9    0.85    2.02   8-0.55029-0.71768-0.18684 0.45297 0.87714 0.53790
  -5   4   5   15.01    3.39   7-0.56845-0.70641-0.16116 0.89576 0.86645-0.22356
  -5   4   6   28.65    3.88   8-0.55316-0.73766-0.18284 0.84989 0.87551-0.05877
  -5   4   7   49.89    4.37   7-0.55548-0.74735-0.17958 0.77589 0.87418 0.11830
  -6   2   8    2.40    2.65   9-0.53051-0.85367-0.21398 0.41701 0.88775 0.44643
  -3   4   3  198.99    7.32   8-0.53340-0.33102-0.21006 0.96018 0.88626-0.62282
  -3   5   5    6.37    2.81   8-0.54855-0.40614-0.18925 0.99519 0.87811-0.34457
  -7   1   6   23.82    3.16   9-0.51446-0.97251-0.23539 0.44656 0.89561 0.18005
  -6   2   3   17.45    3.39   9-0.52459-0.78911-0.22192 0.77039 0.89072-0.42898
  -6   2   4  106.57    6.22  11-0.48037-0.84799-0.27928 0.75876 0.91031-0.27392
  -5   2   2   23.88    3.43  10-0.49295-0.61493-0.26334 0.81851 0.90520-0.63202
  -5   3   4    1.06    3.11  11-0.48464-0.70752-0.27390 0.88452 0.90861-0.36796
  -5   3   8    3.76    2.63  11-0.47813-0.77843-0.28209 0.61643 0.91118 0.33116
  -6   1   8    3.15    2.47  12-0.45600-0.87020-0.30940 0.31918 0.91924 0.48973
  -6   2   5   27.39    4.03  12-0.45629-0.88746-0.30904 0.72008 0.91915-0.10903
  -6   2   7    5.87    2.78  11-0.47501-0.89633-0.28598 0.55816 0.91238 0.24769
  -4   4   6   82.85    5.40  11-0.45782-0.64054-0.30718 0.91171 0.91862-0.11709
  -4   4   7   37.63    4.59  12-0.45387-0.65839-0.31197 0.84716 0.91996 0.05729
  -4   4   8    0.21    2.48  11-0.47439-0.65284-0.28676 0.75325 0.91262 0.23761
  -3   4   4  104.40    5.62  11-0.45998-0.41849-0.30454 0.98584 0.91787-0.48044
  -5   3   5    9.17    3.49  12-0.45137-0.76338-0.31500 0.85585 0.92080-0.20086
  -5   3   6    1.90    3.33  13-0.43324-0.79133-0.33663 0.80652 0.92649-0.03368
  -5   3   7   57.53    4.74  12-0.44402-0.79780-0.32383 0.72794 0.92318 0.14510
  -5   2   3   52.57    4.55  13-0.41747-0.70532-0.35504 0.84187 0.93093-0.48373
  -4   3   9    2.76    2.31  13-0.41518-0.66427-0.35768 0.56276 0.93153 0.46897
  -3   4   5    6.57    3.30  14-0.40526-0.48866-0.36903 0.98254 0.93404-0.32229
  -6   0   8    0.02    1.40  14-0.39605-0.86703-0.37946 0.20185 0.93622 0.54505
  -6   1   7    8.28    2.65  14-0.38739-0.92270-0.38914 0.46747 0.93812 0.29782
  -5   1   9    0.05    1.57  14-0.38939-0.75995-0.38691 0.27183 0.93769 0.62764
  -5   2   8    6.30    2.80  15-0.37887-0.81583-0.39855 0.54072 0.93987 0.37874
  -4   3   4   17.66    3.65  14-0.39139-0.61747-0.38468 0.93349 0.93726-0.40670
  -3   3   3   85.18    5.03  14-0.38169-0.42032-0.39544 0.95250 0.93931-0.59921
  -6   1   4  117.55    6.27  15-0.37127-0.89501-0.40688 0.69251 0.94132-0.22824
  -6   1   6   -0.32    2.76  16-0.35397-0.93779-0.42554 0.57922 0.94427 0.10968
  -5   2   4  206.46    7.91  15-0.36179-0.77564-0.41715 0.83495 0.94300-0.32167
  -4   3   8   11.53    3.47  15-0.35553-0.70933-0.42387 0.69696 0.94403 0.28365
  -3   4   6   69.94    5.21  15-0.36992-0.53739-0.40835 0.95093 0.94157-0.15482
  -5   0   9    8.58    2.09  16-0.33785-0.74497-0.44254 0.12999 0.94657 0.69793
  -5   2   5    5.53    3.85  16-0.32806-0.82313-0.45272 0.80040 0.94776-0.15165
  -5   2   6   99.89    6.20  17-0.32005-0.84612-0.46096 0.74107 0.94863 0.02160
  -5   2   7   -0.09    3.13  16-0.33510-0.84360-0.44542 0.66209 0.94692 0.18992
  -4   3   5   30.93    3.94  16-0.34678-0.67502-0.43316 0.91435 0.94534-0.24202
  -4   3   6  321.78    9.74  16-0.32476-0.71188-0.45613 0.86751 0.94813-0.06987
  -4   3   7   10.68    3.55  16-0.32675-0.72357-0.45408 0.79638 0.94791 0.10401
  -6   0   7   25.47    3.56  17-0.31360-0.93466-0.46753 0.35538 0.94925 0.36273
  -5   1   8   62.12    4.70  18-0.29187-0.84151-0.48930 0.43869 0.95090 0.44388
  -4   2   3   63.93    4.55  17-0.31081-0.62051-0.47036 0.89612 0.94950-0.51817
  -4   2   9   -0.02    2.21  17-0.31569-0.70292-0.46541 0.48339 0.94906 0.52175
  -3   3   4    2.21    2.62  18-0.29755-0.51764-0.48366 0.96928 0.95054-0.43588
  -6   0   6    7.03    3.27  19-0.26857-0.96479-0.51203 0.46550 0.95188 0.18789
  -5   1   3  141.17    6.53  18-0.28413-0.77623-0.49694 0.79045 0.95131-0.42776
  -6  -1   7   34.31    3.83  19-0.25856-0.92894-0.52161 0.21605 0.95206 0.43543
  -6   0   5   13.46    3.46  19-0.25356-0.96626-0.52635 0.54850 0.95210 0.01293
  -5   1   7   79.04    5.45  20-0.23614-0.88267-0.54262 0.56122 0.95195 0.26820
  -4   1   9   -0.91    2.58  20-0.23705-0.72243-0.54178 0.36746 0.95197 0.59813
  -4   2   4   34.91    3.97  19-0.24253-0.70340-0.53669 0.89191 0.95205-0.34539
  -4   2   8   36.06    4.26  19-0.24479-0.75873-0.53458 0.61477 0.95207 0.35080
  -3   3   5  136.54    6.30  19-0.24496-0.58647-0.53442 0.95340 0.95208-0.26337
  -5   0   8   14.00    2.91  20-0.22154-0.84949-0.55601 0.31068 0.95149 0.52039
  -5   1   4  537.12   12.03  20-0.23237-0.84286-0.54610 0.77117 0.95185-0.25449
  -5   1   5   93.39    6.14  21-0.20760-0.88242-0.56856 0.72429 0.95079-0.07904
  -5   1   6   69.47    5.52  21-0.20924-0.89541-0.56709 0.65442 0.95088 0.09508
  -3   3   6  271.24    8.87  20-0.21828-0.62761-0.55896 0.90947 0.95135-0.08886
  -6  -1   6    0.70    2.69  21-0.19721-0.97457-0.57779 0.33849 0.95008 0.26569
  -4   2   5   67.51    5.08  21-0.20376-0.75653-0.57199 0.85876 0.95054-0.16987
  -4   2   6  199.34    7.77  21-0.19210-0.78300-0.58228 0.80082 0.94969 0.00445
  -4   2   7    0.05    3.02  21-0.20521-0.78207-0.57069 0.72484 0.95063 0.17175
  -5  -2   8   -0.70    1.93  22-0.15985-0.79077-0.60998-0.01459 0.94640 0.67473
  -5  -1   8   -0.44    2.02  22-0.17491-0.83679-0.59718 0.16698 0.94810 0.59484
  -5   0   7    9.46    3.46  23-0.15028-0.90658-0.61800 0.44233 0.94516 0.35083
  -4   0   9    0.80    2.57  22-0.17454-0.71910-0.59750 0.22201 0.94807 0.68228
  -4   1   3    4.11    2.78  23-0.14973-0.72036-0.61845 0.85086 0.94508-0.43710
  -4   1   8    8.86    3.80  23-0.15028-0.79377-0.61799 0.50530 0.94516 0.43501
  -4  -1   9    0.22    2.10  23-0.14475-0.69068-0.62259 0.06095 0.94438 0.75877
  -3   2   4  277.06    8.46  23-0.12356-0.63098-0.63986 0.93450 0.94107-0.35034
  -5   0   4   43.32    4.31  24-0.10660-0.90678-0.65337 0.68596 0.93799-0.16427
  -5   0   5   48.75    5.19  24-0.09401-0.93344-0.66320 0.62509 0.93547 0.01324
  -5   0   6   80.67    5.52  24-0.10957-0.93258-0.65103 0.54477 0.93855 0.18421
  -4   1   4   18.03    3.23  25-0.09072-0.79378-0.66575 0.82828 0.93478-0.25198
  -4   1   7   19.98    4.53  24-0.09441-0.83257-0.66289 0.61801 0.93555 0.26981
  -5  -1   7   12.74    3.38  25-0.08502-0.90957-0.67013 0.30268 0.93355 0.43952
  -4   0   8    0.28    2.52  25-0.07160-0.80938-0.68032 0.38217 0.93050 0.51917
  -4   1   5  521.20   11.86  25-0.06425-0.83365-0.68581 0.77918 0.92873-0.07179
  -4   1   6    8.70    3.94  25-0.06691-0.84575-0.68383 0.70908 0.92938 0.10043
  -3   2   5   69.22    4.69  25-0.07980-0.68912-0.67411 0.89971 0.93239-0.16754
  -3   2   6  209.47    7.95  25-0.06773-0.71599-0.68321 0.84044 0.92958 0.00925
  -5  -3   7   37.82    4.09  27-0.03427-0.83770-0.70768-0.04559 0.92083 0.60328
  -5  -2   7    0.15    2.31  26-0.04470-0.89088-0.70018 0.14668 0.92371 0.52157
  -5  -1   6   53.75    5.15  27-0.02824-0.95257-0.71197 0.41259 0.91911 0.27929
  -4  -3   8    2.19    2.32  28-0.00278-0.69032-0.72969-0.15545 0.91133 0.77260
  -4  -1   8   36.32    3.95  27-0.01776-0.79993-0.71935 0.22039 0.91600 0.61635
  -4   0   7  119.22    6.61  28-0.00272-0.86299-0.72974 0.49341 0.91130 0.37017
  -5  -2   6   -0.02    3.16  29 0.02830-0.95002-0.75045 0.26565 0.90074 0.37199
  -5  -1   5   37.22    4.09  28 0.00247-0.96863-0.73327 0.50421 0.90961 0.11387
  -4  -2   8    5.95    2.42  28 0.00696-0.76298-0.73631 0.04360 0.90813 0.70140
  -4   0   4   56.34    4.40  29 0.05476-0.87612-0.76737 0.73724 0.89078-0.13213
  -4   0   5    6.86    3.59  30 0.06083-0.89764-0.77115 0.67268 0.88838 0.04427
  -4   0   6    4.24    3.04  29 0.04139-0.89275-0.75891 0.58897 0.89592 0.21365
  -4  -1   7    2.63    2.67  30 0.06792-0.87154-0.77554 0.34483 0.88550 0.47335
  -3   1   5  173.16    6.79  30 0.07725-0.78433-0.78121 0.81390 0.88163-0.04056
  -4  -4   7    0.21    1.94  31 0.10553-0.72841-0.79788-0.20457 0.86923 0.71647
  -4  -2   7    1.89    2.70  31 0.11222-0.85435-0.80170 0.17775 0.86615 0.56959
  -4  -3   7   24.36    3.35  32 0.12854-0.80830-0.81084-0.00547 0.85839 0.65278
  -4  -1   6    2.15    2.59  32 0.12780-0.91734-0.81043 0.44874 0.85874 0.32604
  -4  -1   4   -0.16    2.56  34 0.17718-0.93891-0.83642 0.61698 0.83325 0.00327
  -4  -1   5   67.41    4.74  33 0.16580-0.94053-0.83066 0.53876 0.83940 0.16992
  -4  -2   6    5.48    2.91  34 0.18887-0.91642-0.84221 0.28637 0.82674 0.43529
  -4  -4   6    9.61    2.94  35 0.22522-0.82950-0.85925-0.08018 0.80533 0.60747
  -4  -3   6   28.45    3.74  35 0.22232-0.88883-0.85795 0.11112 0.80710 0.52900
  -3   0   5  105.50    5.45  35 0.21291-0.85872-0.85365 0.69401 0.81277 0.10430
  -2   1   5  702.06   13.08  35 0.21870-0.73489-0.85631 0.82756 0.80929 0.01639
   0  -3   9   14.49    2.57  35 0.22738-0.16910-0.86022-0.34007 0.80400 0.99578
  -4  -2   5   -0.35    2.32  36 0.24323-0.95609-0.86716 0.38754 0.79405 0.29009
  -4  -3   5   -0.08    2.53  37 0.29067-0.94395-0.88619 0.20695 0.76216 0.40259
  -4  -2   4   13.85    2.83  37 0.27748-0.97587-0.88117 0.46462 0.77134 0.14068
  -3  -1   5    7.18    2.54  39 0.31934-0.90377-0.89640 0.54285 0.74127 0.25301
  -3  -1   4   20.37    2.94  40 0.34720-0.91641-0.90535 0.62190 0.71975 0.09930
   0  -4   8   34.55    3.64  40 0.35438-0.22320-0.90750-0.41486 0.71400 0.98576
   1  -4   8   10.13    2.75  41 0.38580-0.06287-0.91606-0.46806 0.68786 0.99670
  -4 -10  -7   10.78    3.13   2-0.53057 0.48276-0.31919-0.88445-0.32565-0.06765
  -4 -10  -6   10.03    2.86   2-0.52725 0.46734-0.32335-0.94975-0.32456 0.10486
  -3  -9  -4  169.39    7.42   2-0.53014 0.57078-0.31974-0.95916-0.32551 0.36405
  -2  -8  -3   22.11    3.63   2-0.52131 0.67773-0.33073-0.88534-0.32259 0.44373
  -5 -10  -5   22.12    3.45   3-0.55546 0.29038-0.28734-0.99405-0.33376 0.30651
  -6 -10  -9    0.17    1.77   4-0.57785 0.18366-0.25756-0.68798-0.34088-0.36524
  -5 -10  -8   12.48    2.63   4-0.57549 0.35194-0.26075-0.81365-0.34014-0.21035
  -5 -10  -6   15.83    3.44   5-0.58395 0.33431-0.24926-0.96440-0.34279 0.14122
  -3  -9  -5   24.67    3.62   4-0.56481 0.61980-0.27504-0.93523-0.33675 0.20163
  -2  -7  -2   16.01    3.12   4-0.57995 0.65991-0.25472-0.83670-0.34154 0.55990
  -7 -10  -9    0.90    1.72   5-0.59644 0.00631-0.23197-0.64986-0.34666-0.34623
  -5 -10  -7    3.91    2.59   5-0.59184 0.35384-0.23838-0.90446-0.34524-0.03243
  -4  -9  -4   24.34    3.67   5-0.59874 0.44726-0.22876-0.98944-0.34737 0.40208
  -3  -8  -3   20.12    3.49   6-0.60572 0.57135-0.21888-0.93695-0.34950 0.48638
  -8 -10  -8   -0.79    1.44   7-0.62730-0.16927-0.18757-0.70133-0.35597-0.14689
  -6 -10  -8    2.82    2.08   6-0.61875 0.20352-0.20013-0.81309-0.35343-0.18114
  -6 -10  -7    0.20    2.38   7-0.62922 0.20831-0.18473-0.90179-0.35653-0.00208
  -7 -10  -8    1.45    2.08   7-0.63736 0.03108-0.17254-0.77916-0.35891-0.16038
  -4  -9  -6    0.99    3.14   7-0.65013 0.52828-0.15301-0.92979-0.36259 0.06803
  -4  -9  -5   24.95    3.62   7-0.63520 0.49973-0.17579-0.97318-0.35828 0.23759
  -3  -8  -4   29.48    3.97   8-0.65165 0.63136-0.15065-0.93612-0.36302 0.32487
  -2  -7  -3   46.33    4.18   7-0.63924 0.73303-0.16969-0.85251-0.35946 0.40303
  -2  -6  -2   13.47    2.53  10-0.69228 0.71047-0.08466-0.81388-0.37411 0.51609
  -7  -9  -9   16.31    3.14  10-0.70788 0.05463-0.05763-0.63163-0.37811-0.39269
  -5  -9  -7   30.18    3.80  10-0.70415 0.40397-0.06419-0.88573-0.37717-0.07554
  -5  -9  -6    1.49    3.23  10-0.70297 0.38907-0.06626-0.95267-0.37687 0.09820
  -6  -9  -8   -0.12    2.71  11-0.72473 0.24802-0.02717-0.79223-0.38224-0.22913
  -6  -9  -7   -0.88    2.65  12-0.73778 0.25520-0.00257-0.88845-0.38529-0.04980
  -4  -8  -5   16.73    3.64  12-0.73971 0.53988 0.00115-0.95728-0.38572 0.18923
  -2  -6  -3    6.40    2.37  12-0.73971 0.77218 0.00115-0.82993-0.38572 0.35324
  -4  -8  -6    1.20    2.66  13-0.74837 0.56908 0.01812-0.90434-0.38764 0.01776
  -3  -7  -4   15.82    2.98  13-0.75210 0.66850 0.02557-0.91869-0.38845 0.27431
  -8  -8  -9    6.89    2.48  15-0.77892-0.12507 0.08217-0.51768-0.39378-0.43935
  -7  -8  -9    0.79    2.26  15-0.78279 0.07411 0.09082-0.59147-0.39447-0.44968
  -5  -8  -7   45.01    4.51  15-0.78678 0.42486 0.09988-0.85630-0.39516-0.13429
  -5  -8  -6   13.97    3.81  15-0.78998 0.41404 0.10729-0.93333-0.39570 0.04137
  -5  -8  -5    7.45    3.11  15-0.78078 0.39083 0.08629-0.98113-0.39411 0.21381
  -6  -8  -8    2.78    2.57  16-0.79862 0.26000 0.12783-0.75425-0.39707-0.29089
  -6  -8  -5    5.55    3.14  17-0.80447 0.22316 0.14223-0.97622-0.39791 0.23328
  -4  -7  -4   13.18    3.10  16-0.80408 0.52918 0.14124-0.97245-0.39786 0.29876
 -10  -7  -7    0.41    1.26  18-0.81706-0.55769 0.17481-0.43635-0.39949-0.12605
  -8  -8  -8   23.66    3.41  17-0.81072-0.10919 0.15810-0.66273-0.39874-0.25802
  -7  -8  -8   78.57    5.23  17-0.81198 0.08224 0.16137-0.72661-0.39890-0.27332
  -6  -8  -7    8.44    3.04  17-0.81229 0.26006 0.16218-0.85771-0.39894-0.11532
  -6  -8  -6   19.56    3.54  17-0.81416 0.24701 0.16707-0.93111-0.39916 0.05885
  -4  -7  -5   43.40    4.24  18-0.81754 0.55743 0.17609-0.94011-0.39954 0.12743
  -3  -6  -3    1.34    1.85  17-0.80834 0.65106 0.15198-0.92008-0.39844 0.37885
  -8  -8  -7   33.22    3.79  18-0.82270-0.11067 0.19024-0.76442-0.40007-0.08207
  -8  -8  -6   10.20    3.13  18-0.82256-0.12631 0.18983-0.83218-0.40006 0.09268
  -8  -7  -9    0.62    2.57  19-0.82895-0.13993 0.20804-0.44941-0.40060-0.50634
  -7  -8  -7    7.04    3.08  18-0.82386 0.08115 0.19348-0.82802-0.40018-0.09835
  -7  -8  -6    4.99    3.13  18-0.82472 0.06751 0.19591-0.89921-0.40026 0.07696
  -9  -7  -8    0.84    2.16  20-0.83978-0.33474 0.24101-0.49003-0.40121-0.31595
  -5  -7  -6    6.67    3.43  21-0.84911 0.41199 0.27220-0.90612-0.40130-0.02910
  -4  -6  -3    8.92    2.44  20-0.84873 0.49877 0.27084-0.97865-0.40131 0.40061
 -10  -6  -7    2.78    1.86  21-0.85588-0.58310 0.29696-0.36071-0.40104-0.20361
  -9  -7  -7   -0.01    2.37  21-0.85326-0.33587 0.28712-0.60541-0.40118-0.14194
  -8  -7  -8   12.27    2.96  21-0.85421-0.12913 0.29067-0.60128-0.40113-0.33197
  -7  -7  -8   22.46    3.73  21-0.85588 0.06557 0.29696-0.66906-0.40104-0.34824
 -10  -6  -6    0.37    1.96  22-0.86212-0.59452 0.32200-0.45454-0.40046-0.02915
  -8  -7  -7   47.73    4.43  22-0.86469-0.13168 0.33311-0.71380-0.40011-0.15792
  -6  -7  -7    7.80    3.01  22-0.86005 0.24421 0.31342-0.81575-0.40070-0.18863
  -9  -6  -8    0.30    1.97  23-0.86736-0.36969 0.34525-0.40095-0.39964-0.39417
  -7  -7  -7   21.47    3.74  23-0.86610 0.06074 0.33946-0.78067-0.39987-0.17489
 -10  -5  -7    2.54    1.63  24-0.87451-0.62643 0.38195-0.25285-0.39775-0.28368
  -8  -6  -8    7.09    2.76  25-0.87751-0.16763 0.40004-0.51731-0.39654-0.41319
 -10  -5  -6    8.18    2.48  26-0.88107-0.63505 0.42522-0.36610-0.39455-0.11242
  -9  -6  -7    9.13    2.51  25-0.87808-0.37189 0.40380-0.52948-0.39627-0.22326
  -9  -5  -8    0.11    1.99  26-0.88091-0.41146 0.42390-0.29292-0.39466-0.47394
  -7  -6  -8    1.58    2.53  25-0.87950 0.02572 0.41351-0.59191-0.39552-0.42947
  -8  -6  -7    5.62    3.07  26-0.88419-0.17571 0.45335-0.63928-0.39188-0.24308
  -9  -4  -8    2.15    2.02  27-0.88577-0.47471 0.47242-0.14195-0.38978-0.55703
  -8  -5  -8   23.99    3.68  28-0.88658-0.21970 0.48544-0.41078-0.38821-0.49826
  -7  -6  -7  211.89    8.26  27-0.88528 0.01724 0.46595-0.71346-0.39052-0.26070
 -10  -4  -6    3.18    2.25  28-0.88709-0.69050 0.49627-0.24398-0.38682-0.19802
  -9  -5  -7   -0.10    2.17  28-0.88702-0.41834 0.49451-0.43335-0.38705-0.30762
 -10  -3  -6    0.43    1.53  29-0.88755-0.75277 0.53858-0.09200-0.38058-0.27764
  -9  -5  -6    3.44    2.50  29-0.88766-0.43950 0.53003-0.53076-0.38195-0.13988
  -9  -4  -7    2.63    2.40  30-0.88678-0.48906 0.56017-0.29722-0.37688-0.39621
  -8  -5  -7    4.43    3.06  30-0.88722-0.23660 0.55010-0.54251-0.37865-0.33147
  -8  -4  -8    4.70    2.60  30-0.88725-0.28200 0.54943-0.27930-0.37877-0.58444
 -10  -3  -5    0.79    2.02  31-0.88575-0.77101 0.57608-0.19789-0.37391-0.11090
  -8  -5  -6    4.02    3.11  31-0.88512-0.25070 0.58361-0.64577-0.37243-0.16516
  -7  -5  -7    5.98    3.01  31-0.88613-0.04418 0.57081-0.62464-0.37492-0.35314
 -10  -2  -5    0.46    1.69  32-0.88277-0.83341 0.60522-0.03451-0.36790-0.19260
  -9  -4  -6    0.20    2.28  32-0.88244-0.49866 0.60776-0.42259-0.36733-0.23003
  -9  -3  -7   31.40    3.77  32-0.88333-0.55217 0.60075-0.14645-0.36887-0.48078
  -7  -5  -6    1.91    3.18  32-0.88269-0.06170 0.60586-0.72937-0.36776-0.18555
  -6  -5  -6   15.38    3.48  32-0.88329 0.12992 0.60107-0.78586-0.36880-0.19997
  -9  -4  -5   83.50    5.52  33-0.87941-0.52195 0.62787-0.50581-0.36268-0.06146
  -8  -4  -7   32.31    4.05  33-0.88013-0.30345 0.62351-0.42294-0.36372-0.42476
  -9  -3  -6    3.17    2.70  34-0.87274-0.57824 0.66066-0.27487-0.35418-0.32060
  -8  -4  -6   87.64    5.86  35-0.87135-0.32554 0.66636-0.53632-0.35258-0.26120
  -7  -4  -7   14.49    3.49  34-0.87439-0.11729 0.65350-0.51417-0.35614-0.44805
  -9  -3  -5    4.91    3.00  36-0.86423-0.60134 0.69171-0.37512-0.34499-0.15468
  -9  -2  -6   30.98    3.76  36-0.86473-0.64599 0.69012-0.11287-0.34549-0.40695
  -9  -1  -6  112.44    6.01  36-0.86407-0.71115 0.69225 0.08048-0.34482-0.48360
  -8  -4  -5    0.35    3.57  35-0.86529-0.34617 0.68828-0.62548-0.34607-0.09356
  -8  -3  -7   12.79    3.11  35-0.86916-0.37628 0.67478-0.28192-0.35015-0.51391
  -9  -3  -4   38.61    4.17  36-0.86131-0.61697 0.70072-0.45393-0.34209 0.01617
  -8  -2  -7   13.46    2.92  36-0.86027-0.44670 0.70378-0.11547-0.34108-0.60137
  -7  -4  -6   76.95    5.44  36-0.86261-0.14326 0.69680-0.62660-0.34337-0.28679
  -6  -4  -6    7.10    2.79  36-0.86065 0.04463 0.70267-0.69335-0.34145-0.30471
  -5  -4  -5  209.71    7.56  36-0.85735 0.21998 0.71201-0.83424-0.33829-0.14850
  -9  -2  -5    6.05    2.96  38-0.84907-0.67749 0.73283-0.22278-0.33079-0.24615
  -8  -3  -6    4.23    2.68  37-0.85178-0.40853 0.72635-0.40184-0.33320-0.35691
  -7  -4  -5    0.89    2.64  37-0.85467-0.15949 0.71912-0.72107-0.33581-0.12028
  -6  -4  -5   71.51    4.85  37-0.85124 0.02184 0.72768-0.78809-0.33271-0.13854
  -9  -2  -4   11.39    2.97  38-0.84007-0.69978 0.75227-0.31175-0.32312-0.07934
  -9  -1  -5    1.94    2.91  38-0.84029-0.74743 0.75184-0.04882-0.32330-0.32959
  -9   0  -5   81.73    5.34  38-0.84471-0.80536 0.74259 0.15162-0.32702-0.40279
  -8  -3  -5  112.32    6.29  39-0.83865-0.43457 0.75511-0.50097-0.32195-0.19403
  -9   1  -4    0.55    1.30  39-0.83295-0.89182 0.76592 0.25365-0.31732-0.31392
  -8  -3  -4    2.96    2.89  39-0.83254-0.45560 0.76665-0.57998-0.31700-0.02502
  -8  -2  -6    7.10    2.99  39-0.83348-0.48739 0.76494-0.24688-0.31775-0.45030
  -7  -3  -6    3.48    2.78  39-0.83441-0.23483 0.76323-0.49823-0.31849-0.38910
  -9  -1  -4   -0.07    2.37  40-0.82477-0.77861 0.78007-0.14561-0.31089-0.16833
  -8  -1  -6    7.36    2.63  40-0.82261-0.56148 0.78358-0.07283-0.30922-0.53344
  -8   0  -6    5.54    2.38  40-0.82434-0.62037 0.78077 0.12460-0.31056-0.60998
  -7  -3  -5    3.29    3.07  41-0.81695-0.26579 0.79236-0.59774-0.30493-0.22770
  -9   0  -3    3.98    2.21  41-0.80727-0.87179 0.80615-0.04896-0.29777-0.08279
  -7  -3  -4   15.06    3.28  41-0.80791-0.28887 0.80528-0.68012-0.29824-0.05984
  -8  -2  -4   31.56    3.91  42-0.79698-0.55250 0.81938-0.43977-0.29038-0.12858
  -8  -2  -3   -0.25    2.66  42-0.79389-0.57036 0.82310-0.51210-0.28819 0.04397
 -10  -1  -2   11.09    2.77   3-0.97595-0.84689 0.34974 0.20772 0.25387-0.37090
 -10  -2  -2    0.14    2.03   3-0.96945-0.79389 0.34802 0.01675 0.27779-0.31697
 -10   0  -1    0.38    1.29   3-0.97344-0.92388 0.34909 0.33229 0.26347-0.28074
  -9   1  -2    0.77    1.78   3-0.97173-0.78017 0.34864 0.53342 0.26972-0.55908
 -10  -1  -1    0.27    1.93   5-0.95554-0.87897 0.34417 0.14415 0.32096-0.26824
  -9  -2  -3    0.09    2.34   6-0.94988-0.59888 0.34254 0.02935 0.33636-0.57185
  -9  -1  -3   12.27    3.00   5-0.95756-0.65977 0.34474 0.21981 0.31521-0.61976
  -9   0  -2   31.67    3.62   6-0.94042-0.75217 0.33979 0.35052 0.36003-0.56819
  -6  -3  -4   19.44    3.07   6-0.94038 0.03696 0.33977-0.27536 0.36014-0.73484
  -9   1  -1    5.45    2.34   7-0.93557-0.83070 0.33835 0.47483 0.37135-0.48582
  -7  -2  -4    3.50    2.69   7-0.93618-0.22223 0.33854-0.02120 0.36995-0.80322
  -9  -2  -2    4.54    3.08   8-0.91485-0.65293 0.33210-0.02879 0.41486-0.47157
  -9  -1  -2    0.35    2.47   8-0.92037-0.70487 0.33378 0.16208 0.40392-0.54175
  -9   2   1    7.93    2.21   8-0.91901-0.93890 0.33337 0.53705 0.40667-0.24560
  -8  -1  -3   18.16    3.21   8-0.91780-0.50806 0.33300 0.17099 0.40906-0.73006
  -9   0  -1   35.29    3.85   9-0.90038-0.80675 0.32765 0.29374 0.44161-0.47617
  -9   1   0    2.73    2.23  10-0.89739-0.88707 0.32672 0.41852 0.44685-0.38208
  -9  -1  -1   22.90    3.54  11-0.88113-0.76405 0.32164 0.10464 0.47376-0.43126
  -8   0  -2   21.94    3.46  10-0.88324-0.61898 0.32231 0.30600 0.47041-0.69272
  -7  -2  -3  111.65    6.00  11-0.88000-0.29140 0.32129-0.07213 0.47555-0.73679
  -9   0   0    0.90    2.59  11-0.86375-0.86304 0.31616 0.23710 0.50007-0.35950
  -9   1   1    0.11    2.32  12-0.86372-0.93577 0.31615 0.36043 0.50011-0.26091
  -8  -1  -2   25.44    4.00  12-0.86368-0.57531 0.31614 0.11863 0.50016-0.64852
  -6  -2  -3    1.36    2.36  12-0.85854-0.12348 0.31451-0.12497 0.50753-0.78359
  -8   0  -1   80.19    5.46  14-0.82436-0.69155 0.30355 0.25548 0.55241-0.60243
  -8   2   1    6.57    2.49  15-0.80537-0.86513 0.29740 0.51164 0.57476-0.42822
  -8   3   3    5.48    2.31  15-0.80632-0.95281 0.29771 0.56789 0.57368-0.15567
  -7  -1  -2   47.94    4.36  14-0.80976-0.43854 0.29883 0.07490 0.56974-0.73205
  -8   1   0   27.56    3.79  15-0.80192-0.79054 0.29629 0.38809 0.57865-0.52960
  -6  -1  -2   76.15    5.04  16-0.76459-0.29196 0.28409 0.02829 0.61780-0.79587
  -8   2   2   -0.76    2.14  17-0.75836-0.92191 0.28204 0.45679 0.62387-0.31047
  -7   0  -1   79.52    5.46  17-0.74891-0.57617 0.27892 0.21905 0.63282-0.69690
  -8   1   5   20.78    3.21  19-0.69533-0.96781 0.26117 0.07817 0.67877 0.24018
  -7   1   0   31.77    3.86  19-0.70741-0.69374 0.26519 0.35736 0.66907-0.63601
  -7   2   1  182.14    7.54  20-0.69188-0.78576 0.26002 0.48720 0.68148-0.55123
  -6   0  -1  213.00    7.56  20-0.67785-0.45538 0.25534 0.18119 0.69220-0.77230
  -5   0  -1   38.72    3.82  22-0.61406-0.32831 0.23392 0.14160 0.73574-0.83164
  -5   0   0   55.83    4.04  27-0.47849-0.47761 0.18785 0.11906 0.80527-0.72749
  -6   1   2    3.04    2.94  29-0.43191-0.80694 0.17188 0.25158 0.82323-0.45705
  -6   1   3    3.56    3.65  31-0.37080-0.88287 0.15083 0.20339 0.84287-0.30212
  -5   1   1    4.16    2.32  30-0.39218-0.64065 0.15820 0.27295 0.83649-0.66086
  -5   0   1   72.63    4.60  31-0.35456-0.61594 0.14521 0.09300 0.84738-0.59586
  -4   5   9   11.11    2.92  32-0.33326-0.87064 0.13785 0.45346 0.85287 0.39613
  -5   1   2    2.75    2.78  33-0.28559-0.76125 0.12131 0.24045 0.86343-0.51404
  -5   0   2   38.29    3.84  34-0.25369-0.73119 0.11022 0.05935 0.86922-0.44323
  -4   4   9    0.81    2.42  34-0.24016-0.90300 0.10551 0.29295 0.87138 0.45548
  -4   5   8    7.08    2.61  34-0.26632-0.92345 0.11461 0.54552 0.86705 0.20720
  -3   5  10   -0.07    1.97  35-0.21852-0.81227 0.09796 0.36481 0.87446 0.52821
  -5   0   3   12.93    2.96  36-0.18392-0.81548 0.08587 0.01451 0.87846-0.27779
  -3   4  10   16.80    3.29  37-0.14072-0.82324 0.07074 0.19719 0.88190 0.60114
  -2   5  11   14.85    2.53  37-0.15469-0.69451 0.07564 0.25737 0.88097 0.68130
  -3   5   9   -0.65    2.14  38-0.11841-0.89735 0.06291 0.46886 0.88300 0.34300
  -2   4  11    4.89    2.09  39-0.10275-0.68695 0.05741 0.08196 0.88351 0.75608
  -2   6  10    9.52    2.68  38-0.12490-0.77251 0.06519 0.52783 0.88273 0.43262
  -3   5   8    7.45    3.27  40-0.06729-0.93100 0.04493 0.55463 0.88385 0.17448
  -3   4   9   -0.35    2.95  41-0.03364-0.92049 0.03306 0.30626 0.88314 0.41851
  -3   5   7   26.48    4.05  40-0.05063-0.93292 0.03906 0.62954 0.88363 0.00049
  -2   6   9   21.38    3.49  40-0.04715-0.83547 0.03783 0.62533 0.88355 0.25657
  -1   6  11    0.12    2.02  40-0.05150-0.67301 0.03937 0.42504 0.88365 0.58615
  -2   5  10   -1.14    2.20  41-0.01097-0.82904 0.02506 0.37706 0.88210 0.50312
  -6  -1  -7   32.80    4.23   3-0.79238-0.19442 0.81732-0.16034-0.32086-0.72850
  -6   1  -7   38.01    3.83   2-0.79350-0.31610 0.81324 0.22858-0.33051-0.87126
  -6   3  -6    0.38    1.35   2-0.79324-0.45012 0.81426 0.54062-0.32813-0.85275
  -4  -1  -7   14.75    3.06   3-0.79225 0.18873 0.81777-0.28394-0.31976-0.76041
  -7   3  -5    6.36    1.91   4-0.78917-0.66298 0.82618 0.52429-0.29818-0.69169
  -6   0  -7    1.66    2.40   3-0.79114-0.25693 0.82115 0.02924-0.31136-0.81419
  -5  -1  -7   -1.26    2.36   3-0.79054 0.00178 0.82280-0.23148-0.30714-0.75632
  -5   1  -7    3.21    2.65   4-0.78896-0.12852 0.82667 0.15475-0.29683-0.92058
  -4  -2  -6   24.46    3.44   4-0.78893 0.23387 0.82674-0.55463-0.29665-0.53373
  -7   1  -6   19.31    2.85   4-0.78660-0.52788 0.83152 0.20262-0.28309-0.72901
  -5   0  -7    2.05    2.36   4-0.78763-0.06910 0.82951-0.04044-0.28891-0.85245
  -4   0  -7   21.23    3.34   4-0.78825 0.12237 0.82822-0.10107-0.29257-0.86398
  -6   2  -6  116.68    6.01   5-0.77996-0.40644 0.84151 0.32559-0.25084-0.85211
  -3  -1  -6   30.12    3.43   5-0.78317 0.35641 0.83719-0.43367-0.26554-0.65600
  -6   1  -6   97.52    5.56   7-0.77151-0.35266 0.84992 0.12273-0.21731-0.80992
  -5   2  -6    0.57    2.41   8-0.76663-0.22704 0.85346 0.25184-0.20030-0.91737
  -7   3  -4    0.77    1.99   8-0.76021-0.70402 0.85709 0.42219-0.17969-0.64022
  -7   4  -3    5.71    2.60   9-0.75681-0.78704 0.85863 0.54959-0.16944-0.54872
  -6   3  -5    5.31    2.08   8-0.76347-0.49962 0.85537 0.43582-0.18994-0.81607
  -5   1  -6    1.33    2.53   8-0.76000-0.17293 0.85719 0.05618-0.17904-0.86436
  -4   0  -6   60.32    4.65   8-0.76114 0.08106 0.85662-0.19832-0.18257-0.79941
  -6   4  -4    8.48    2.68   9-0.75029-0.59016 0.86101 0.55391-0.15079-0.75567
  -6   5  -3   37.35    4.08  10-0.74877-0.66591 0.86146 0.67923-0.14664-0.66455
  -4   1  -6    0.19    2.49   9-0.75614 0.01456 0.85891-0.00688-0.16747-0.89169
  -6   2  -5   22.21    3.22  10-0.74469-0.45670 0.86252 0.23492-0.13574-0.79298
  -5   3  -5    0.16    2.37  11-0.73924-0.32640 0.86361 0.36050-0.12174-0.90115
  -3   0  -5    8.74    2.25  11-0.72907 0.22608 0.86478-0.33650-0.09715-0.72666
  -6   3  -4    1.76    2.29  12-0.71864-0.55832 0.86503 0.35846-0.07358-0.75874
  -5   2  -5    6.66    2.80  12-0.72191-0.29032 0.86505 0.17362-0.08081-0.86390
  -5   4  -4    1.50    2.07  13-0.71345-0.43381 0.86486 0.49033-0.06239-0.86170
  -4   1  -5   15.28    2.77  13-0.70698-0.04967 0.86439-0.08111-0.04888-0.83615
  -4   2  -5    0.50    2.12  13-0.70810-0.10977 0.86449 0.11195-0.05119-0.91037
  -6   4  -3    2.81    2.26  14-0.70012-0.65391 0.86362 0.48315-0.03502-0.69845
  -6   5  -2   25.58    3.18  14-0.69593-0.73308 0.86303 0.60880-0.02677-0.60949
  -5   5  -3    1.88    2.05  14-0.69694-0.52281 0.86318 0.61070-0.02875-0.80080
  -5   6  -2   14.97    2.76  14-0.69745-0.60482 0.86325 0.73956-0.02974-0.69713
  -5   3  -4   10.34    2.96  15-0.68195-0.40320 0.86044 0.30059-0.00034-0.84732
  -6   6   0    1.72    1.43  16-0.66447-0.85393 0.85606 0.66845 0.03072-0.39339
  -5   7   0    4.78    2.54  17-0.65946-0.73043 0.85460 0.80427 0.03926-0.49586
  -6   5  -1    2.19    2.12  18-0.64260-0.80130 0.84910 0.55251 0.06698-0.52833
  -5   4  -3   90.58    5.42  17-0.64871-0.51478 0.85119 0.43458 0.05710-0.80556
  -4   3  -4   -0.08    2.51  17-0.65432-0.23551 0.85302 0.24274 0.04787-0.91144
  -5   5  -2    1.05    2.59  19-0.62833-0.60823 0.84382 0.56555 0.08933-0.74012
  -5   6  -1   13.44    2.80  18-0.62953-0.68435 0.84429 0.69059 0.08748-0.64069
  -4   2  -4    5.35    2.31  18-0.64012-0.19133 0.84823 0.05907 0.07093-0.85841
  -4   6  -2   71.96    4.86  18-0.63970-0.47053 0.84808 0.69404 0.07159-0.81470
  -3   1  -4   79.55    4.58  18-0.64012 0.06015 0.84823-0.19561 0.07093-0.79646
  -3   2  -4   28.60    3.37  18-0.62971-0.01232 0.84436 0.00118 0.08721-0.88925
  -5   3  -3    4.61    2.39  19-0.61594-0.48390 0.83883 0.25349 0.10800-0.78134
  -4   8   1   18.32    2.73  19-0.61395-0.66056 0.83799 0.88238 0.11094-0.48379
  -5   7   1    0.55    1.93  20-0.60067-0.80335 0.83220 0.75563 0.13019-0.41741
  -4   4  -3   35.74    3.72  20-0.60589-0.36611 0.83452 0.38963 0.12270-0.88712
  -5   4  -2   16.63    3.04  21-0.57892-0.59678 0.82193 0.39481 0.16035-0.73606
  -4   3  -3    0.23    2.24  22-0.57364-0.33066 0.81930 0.20889 0.16745-0.85715
  -4   5  -2    2.87    2.48  22-0.57226-0.47513 0.81860 0.53180 0.16929-0.83795
  -5   5  -1    7.27    2.60  22-0.56044-0.69373 0.81253 0.52807 0.18480-0.66092
  -5   6   0    2.05    2.31  22-0.56512-0.76343 0.81496 0.65127 0.17871-0.55887
  -5   7   2   23.87    3.25  23-0.55239-0.86796 0.80826 0.71238 0.19515-0.30339
  -4   2  -3   81.62    4.86  22-0.55995-0.28737 0.81227 0.02560 0.18544-0.79690
  -4   6  -1   26.68    3.42  22-0.55745-0.56700 0.81096 0.66240 0.18866-0.75799
  -4   7   0    5.48    1.99  22-0.56830-0.63207 0.81660 0.78041 0.17453-0.64590
  -4   8   2    1.32    2.49  23-0.54870-0.74062 0.80627 0.84641 0.19983-0.39960
  -3   2  -3    0.50    1.90  24-0.53405-0.12054 0.79816-0.02137 0.21806-0.84524
  -3   3  -3    1.66    2.05  23-0.54491-0.17238 0.80420 0.16655 0.20460-0.91021
  -4   4  -2    1.32    2.11  24-0.52008-0.46469 0.79015 0.36610 0.23496-0.82657
  -3   8   1   22.46    3.01  24-0.52008-0.56515 0.79015 0.87038 0.23496-0.62432
  -3   9   3    9.34    2.18  24-0.52113-0.65221 0.79076 0.92348 0.23370-0.35008
  -4   7   1   57.06    4.34  25-0.49415-0.72012 0.77460 0.75345 0.26510-0.56178
  -4   8   3    2.85    2.06  25-0.49651-0.80729 0.77605 0.80835 0.26242-0.28848
  -3   6  -1   45.46    4.16  25-0.49507-0.43920 0.77517 0.63729 0.26405-0.84795
  -3   7   0    0.55    2.23  26-0.49146-0.51350 0.77294 0.75834 0.26814-0.75952
  -4   3  -2   95.44    5.36  26-0.48556-0.43819 0.76927 0.19301 0.27478-0.78873
  -4   5  -1    3.69    2.52  26-0.48611-0.57581 0.76961 0.50944 0.27416-0.76725
  -4   6   0    5.43    2.48  26-0.47613-0.66118 0.76331 0.64261 0.28521-0.68034
  -3   4  -2  158.72    6.74  26-0.47056-0.32454 0.75974 0.33427 0.29130-0.89668
  -3   9   4   30.92    3.38  27-0.46891-0.72000 0.75868 0.88798 0.29309-0.23575
  -4   8   4   28.35    3.42  27-0.46065-0.85901 0.75332 0.76026 0.30197-0.15137
  -4   4  -1    4.56    2.41  28-0.43096-0.56833 0.73346 0.35389 0.33287-0.74974
  -4   7   2   43.22    3.74  28-0.42920-0.79962 0.73225 0.72677 0.33465-0.45657
  -3   3  -2  309.01    8.90  28-0.43679-0.29612 0.73743 0.16326 0.32692-0.85707
  -3   5  -1    9.06    3.15  29-0.42049-0.45025 0.72624 0.49219 0.34340-0.85230
  -3   8   2    0.82    1.72  28-0.43970-0.65857 0.73940 0.85280 0.32393-0.53981
  -3   9   5   26.14    3.12  28-0.43505-0.76781 0.73624 0.83981 0.32871-0.09765
  -4   5   0  396.64   10.58  29-0.40145-0.67475 0.71285 0.49768 0.36209-0.67936
  -4   6   1   29.37    4.02  29-0.40013-0.75300 0.71191 0.62235 0.36336-0.58173
  -3   6   0    0.39    2.78  30-0.39770-0.54599 0.71017 0.62989 0.36570-0.78118
  -3   7   1    6.88    2.65  29-0.40191-0.62013 0.71318 0.75381 0.36164-0.67518
  -2   9   3    5.33    2.08  29-0.41029-0.57352 0.71911 0.93630 0.35349-0.48514
  -3   8   3    2.16    2.21  31-0.37171-0.74095 0.69129 0.83205 0.39015-0.43170
  -3   4  -1  282.59    8.52  31-0.36101-0.44832 0.68335 0.34188 0.39991-0.83127
  -2   8   2    5.88    2.50  32-0.34687-0.56124 0.67271 0.85800 0.41257-0.64310
  -1  10   5    3.85    2.04  31-0.35542-0.52803 0.67916 0.97176 0.40495-0.28162
  -3   3  -1  298.82    8.59  33-0.32081-0.42589 0.65269 0.17930 0.43517-0.79092
  -3   7   2    2.54    2.40  33-0.32143-0.71448 0.65317 0.74676 0.43465-0.57424
  -2   7   1   87.86    5.41  33-0.32079-0.51259 0.65267 0.75315 0.43519-0.76288
  -2   9   4    0.26    2.07  32-0.34104-0.65679 0.66827 0.91600 0.41771-0.38316
  -3   5   0  463.95   11.08  33-0.31696-0.56892 0.64968 0.49959 0.43843-0.77220
  -3   6   1   62.66    4.57  33-0.30383-0.65837 0.63936 0.63460 0.44941-0.68499
  -3   8   4    1.30    1.96  33-0.31856-0.80672 0.65093 0.80432 0.43708-0.30773
  -2   4  -1   70.03    4.57  33-0.30117-0.31701 0.63725 0.32661 0.45161-0.89848
  -1  10   6    0.15    1.57  33-0.30608-0.59129 0.64114 0.93728 0.44754-0.15579
  -2   9   5    0.07    1.97  34-0.29125-0.72166 0.62935 0.88707 0.45972-0.25149
  -3   4   0  138.27    6.04  35-0.25170-0.57163 0.59715 0.35909 0.49084-0.74842
  -3   7   3   67.73    4.75  35-0.25269-0.79904 0.59797 0.73090 0.49008-0.45384
  -2   8   3   24.06    3.37  35-0.26387-0.65818 0.60718 0.85409 0.48146-0.53846
  -2   9   6    3.68    2.02  35-0.26256-0.76340 0.60610 0.84220 0.48248-0.09409
  -2   9   7    5.52    2.16  35-0.26190-0.77863 0.60556 0.77418 0.48299 0.08038
  -3   5   1    2.89    2.46  36-0.21953-0.67897 0.57018 0.51143 0.51477-0.67576
  -3   6   2   15.31    3.41  36-0.22034-0.75551 0.57087 0.63343 0.51418-0.57540
  -2   5   0   46.26    3.88  36-0.23880-0.45585 0.58643 0.50223 0.50058-0.84936
  -2   7   2  172.36    7.17  36-0.22259-0.62408 0.57277 0.76392 0.51254-0.66518
  -1   9   4    5.29    2.22  36-0.23681-0.56960 0.58476 0.94038 0.50206-0.47768
  -2   6   1   66.98    4.78  37-0.21480-0.55665 0.56617 0.64684 0.51819-0.76974
  -2   8   4    9.96    2.84  37-0.19592-0.73988 0.54996 0.84141 0.53157-0.41395
   0  10   6    0.79    1.92  37-0.19276-0.51294 0.54722 0.97252 0.53377-0.25260
  -2   4   0   29.34    3.11  39-0.16519-0.46731 0.52309 0.37263 0.55251-0.82629
  -1   8   3   11.60    3.20  38-0.16822-0.56237 0.52577 0.87408 0.55049-0.62217
  -1   9   5    9.14    2.50  38-0.17265-0.64897 0.52967 0.92565 0.54752-0.34676
  -2   7   3    0.37    2.54  39-0.13993-0.71980 0.50057 0.76855 0.56895-0.54994
  -2   8   5   40.84    3.75  39-0.14779-0.80379 0.50762 0.81547 0.56391-0.27205
  -1   7   2  687.29   13.80  40-0.13502-0.52157 0.49615 0.78017 0.57207-0.74117
   0  10   7    1.50    1.84  39-0.15871-0.56088 0.51736 0.93268 0.55680-0.10119
   0  10   8    4.53    1.75  39-0.15326-0.57995 0.51250 0.86715 0.56037 0.06864
  -2   5   1  111.14    5.50  40-0.11969-0.58919 0.48224 0.53722 0.58164-0.75692
  -2   6   2  502.85   11.55  40-0.11231-0.67196 0.47549 0.66774 0.58616-0.66226
  -1   9   6    3.53    1.98  40-0.12999-0.70511 0.49160 0.89511 0.57524-0.20038
  -1   9   7    0.57    2.08  40-0.11178-0.73819 0.47501 0.84428 0.58648-0.03872
  -1   8   4   -0.51    2.45  41-0.08798-0.65625 0.45303 0.87854 0.60063-0.49918
   0   9   5   18.13    3.05  42-0.07207-0.55921 0.43817 0.95644 0.60977-0.42552
  -9   2  -1    5.06    1.78   2-0.92218-0.90667 0.58253 0.42338 0.15545-0.34280
  -9   2   0    4.01    1.93   4-0.89837-0.94521 0.57397 0.36386 0.22391-0.23647
  -8   3   2    0.32    2.11  12-0.78157-0.96359 0.52057 0.41227 0.43207-0.18727
  -7   5   4    2.74    1.45  13-0.75883-0.94554 0.50916 0.60998 0.46138-0.03710
  -7   4   4    0.90    2.05  18-0.65991-0.98326 0.45766 0.46876 0.56717-0.06609
  -6   4   4   16.42    3.47  24-0.49777-0.95500 0.36876 0.49691 0.69049-0.20572
  -4   6   8   65.57    4.79  29-0.35254-0.89863 0.28599 0.56813 0.76614 0.23131
  -3   7   9    0.04    1.50  29-0.35270-0.78464 0.28608 0.63110 0.76607 0.30797
  -2   7  10    3.75    1.91  32-0.23408-0.72414 0.21680 0.56997 0.80931 0.42719
  -3   6   9    1.51    2.03  33-0.20973-0.86476 0.20241 0.52160 0.81634 0.34046
  -2   7   7    0.39    2.46  35-0.13671-0.78105 0.15896 0.83490 0.83390-0.12425
  -2   7   8    0.52    2.15  35-0.13093-0.80003 0.15550 0.76932 0.83507 0.05555
  -3   5   6    0.02    2.72  38-0.03829-0.93078 0.09965 0.63851 0.84946-0.14565
  -1   7  10    6.50    2.29  38-0.04871-0.71923 0.10597 0.62061 0.84825 0.37495
  -2   5   4   43.96    4.14  40 0.01134-0.76203 0.06943 0.74431 0.85386-0.50702
  -2   6   6  462.50   11.41  39-0.00785-0.83300 0.08114 0.78773 0.85244-0.23357
  -1   7   9   63.89    4.91  40 0.00911-0.76389 0.07080 0.72393 0.85371 0.19536
  -2   6   7   29.18    3.77  40 0.01760-0.87272 0.06560 0.73465 0.85426-0.06260
  -2   6   8   -0.45    2.43  40 0.01343-0.88224 0.06815 0.66332 0.85400 0.11295
  -1   5  11   11.29    2.75  41 0.04332-0.70332 0.04985 0.22396 0.85548 0.69239
  -1   7   8    7.88    2.78  40 0.03053-0.77005 0.05769 0.80517 0.85495 0.01901
   0   7  11    0.26    1.70  40 0.01593-0.60693 0.06662 0.52892 0.85416 0.52785
  -1   6  10    9.59    3.12  42 0.07915-0.78546 0.02781 0.50503 0.85615 0.44339
  -2   5   5  162.11    6.80  42 0.08840-0.85324 0.02210 0.72254 0.85612-0.33517
  -2   5   9   72.29    5.16  42 0.07968-0.90193 0.02749 0.44154 0.85615 0.35995
   4   2   7    9.37    3.17   2 0.32014 0.22247-0.91874 0.57809 0.70837 0.29484
   4   2   6   23.38    3.32   4 0.31501 0.23991-0.93420 0.66317 0.68331 0.14644
   2  -5   7    0.72    1.29   5 0.30708 0.28497-0.95272-0.61595 0.64700 0.92075
   1  -3   8    2.68    2.53   6 0.30280-0.04017-0.96068-0.22880 0.62832 0.97840
   1  -5   7   19.29    3.17   7 0.29799 0.10033-0.96828-0.54016 0.60792 0.97775
   4   1   6    5.91    3.37   7 0.29577 0.32127-0.97137 0.50653 0.59872 0.30692
   1  -6   6    2.05    1.70   9 0.28279 0.19393-0.98514-0.64674 0.54680 0.93873
   1  -4   7   -0.16    2.25  10 0.27782 0.06215-0.98878-0.31873 0.52764 0.97974
   4   0   6   62.63    4.93  10 0.27969 0.39902-0.98750 0.32886 0.53482 0.44824
   0  -7   5   18.65    2.82  12 0.26268 0.09829-0.99555-0.69852 0.47128 0.93229
   1  -5   6   28.71    3.70  13 0.25401 0.16040-0.99697-0.44280 0.44015 0.97012
   1  -8   3   17.17    2.63  17 0.22471 0.41854-0.99167-0.82019 0.33945 0.77657
   1  -7   4    7.58    2.52  17 0.22449 0.34364-0.99158-0.69523 0.33871 0.87746
   2  -5   5    9.42    2.75  17 0.22560 0.39373-0.99202-0.44141 0.34242 0.87996
   0  -9   2    1.88    1.87  19 0.20908 0.32056-0.98370-0.89207 0.28811 0.74605
   1  -1   5    6.82    2.39  19 0.20906-0.02645-0.98369 0.38552 0.28805 0.64298
   2  -6   4    0.15    2.88  19 0.21068 0.48648-0.98465-0.56470 0.29329 0.82961
   2  -7   3    6.93    2.53  19 0.20657 0.56729-0.98213-0.70047 0.27997 0.74570
   2  -4   5   29.15    3.91  19 0.20728 0.35138-0.98258-0.25617 0.28225 0.86259
   1  -8   2    0.16    2.12  22 0.17514 0.48436-0.95681-0.78251 0.18091 0.76479
  -1 -10   0    0.06    2.08  25 0.14944 0.27912-0.92918-0.94203 0.10309 0.67589
   0  -9   1    2.88    2.17  24 0.15435 0.38905-0.93490-0.87234 0.11778 0.74287
   0  -8   2    2.66    2.37  25 0.14836 0.31928-0.92791-0.75637 0.09989 0.85985
  -2 -10   0    7.02    2.16  26 0.13200 0.10185-0.90736-0.90112 0.05169 0.74361
  -1  -9   1    4.52    2.49  26 0.13172 0.21970-0.90700-0.83821 0.05089 0.82667
   0 -10  -1    0.74    1.52  26 0.13309 0.50139-0.90880-0.95015 0.05489 0.53703
   1  -8   1   64.25    4.78  27 0.12828 0.54403-0.90242-0.77394 0.04088 0.72821
   1  -7   2    7.40    3.51  27 0.12793 0.46958-0.90194-0.65034 0.03985 0.82753
  -2 -11  -2    1.24    1.29  28 0.11036 0.21630-0.87714-0.98535-0.01067 0.53200
   0  -9   0   40.55    3.88  29 0.10543 0.45236-0.86980-0.86938-0.02466 0.71233
  -3 -11  -2    0.04    1.43  30 0.09564 0.04182-0.85472-0.94444-0.05223 0.59339
  -1 -10  -1    0.85    2.18  30 0.09539 0.34602-0.85434-0.94343-0.05291 0.65541
   0  -8   1   45.37    4.08  29 0.09706 0.38357-0.85695-0.75728-0.04824 0.83360
   1  -6   2   52.20    4.74  30 0.09078 0.44274-0.84701-0.51106-0.06581 0.85723
  -2 -10  -1    0.25    1.80  31 0.07624 0.17739-0.82301-0.91489-0.10602 0.73143
  -1  -9   0   -0.03    2.15  31 0.07884 0.28977-0.82741-0.84572-0.09886 0.80534
  -2 -11  -3    1.23    1.47  32 0.06272 0.27806-0.79949-0.99407-0.14287 0.49118
  -3 -11  -3    4.46    2.34  34 0.04572 0.10463-0.76832-0.96644-0.18849 0.55240
  -1 -10  -2    5.09    2.32  33 0.05130 0.40391-0.77875-0.95382-0.17359 0.60545
   0  -8   0   86.48    5.45  34 0.04819 0.44635-0.77296-0.77320-0.18191 0.79311
   0  -7   1    8.78    3.41  33 0.05130 0.36907-0.77875-0.64246-0.17359 0.88183
  -2 -11  -4    4.87    2.54  36 0.02455 0.33189-0.72710-0.99949-0.24418 0.41841
  -2 -10  -2    8.00    2.78  35 0.02682 0.23743-0.73165-0.93988-0.23826 0.68468
  -1  -9  -1   12.72    2.98  35 0.02948 0.35086-0.73695-0.87117-0.23130 0.76016
  -1  -8   0  133.58    6.65  36 0.02433 0.27885-0.72665-0.75772-0.24476 0.87198
  -3 -10  -2   13.71    2.96  36 0.01556 0.05810-0.70878-0.90138-0.26747 0.72891
  -2  -9  -1   26.04    3.83  37 0.01144 0.17668-0.70023-0.84678-0.27808 0.82248
  -3 -11  -4   19.56    3.20  37 0.00230 0.16175-0.68092-0.98392-0.30142 0.49079
   0  -7   0  254.35    8.77  38 0.00036 0.43241-0.67674-0.67636-0.30637 0.84181
  -4 -11  -4    8.61    2.55  38-0.00345-0.02636-0.66853-0.93461-0.31598 0.52472
  -2 -11  -5   -0.42    1.81  38-0.00627 0.37882-0.66237-0.99639-0.32311 0.32865
  -2 -10  -3    1.84    2.22  39-0.01666 0.29551-0.63930-0.96410-0.34914 0.62049
  -1  -9  -2   73.03    5.19  39-0.01577 0.40996-0.64130-0.89852-0.34692 0.70085
  -3 -11  -5    5.93    2.42  40-0.03228 0.21110-0.60342-0.99342-0.38775 0.40346
  -3 -10  -3   12.20    3.07  40-0.03176 0.12038-0.60462-0.93637-0.38650 0.67500
  -1  -8  -1   72.16    5.11  40-0.02629 0.34348-0.61734-0.79796-0.37303 0.82598
  -4 -11  -5   -0.15    1.96  41-0.04224 0.03284-0.57977-0.95717-0.41206 0.45010
  -2  -9  -2    0.96    2.87  41-0.03737 0.24081-0.59139-0.88714-0.40023 0.77013
  -2 -10  -4    3.18    2.58  42-0.05429 0.34969-0.55038-0.98394-0.44109 0.53661
  -4 -11  -3    1.27    2.11   4-0.35670 0.31556-0.67513-0.99900 0.02383 0.35612
  -5 -11  -4   -0.69    1.74   8-0.46560 0.25386-0.55595-0.98803-0.05712 0.28083
  -5 -11  -5    0.02    2.08  10-0.50228 0.29802-0.50982-0.96021-0.08601 0.13274
  -3 -10  -4    3.64    2.71   9-0.48749 0.58996-0.52883-0.94361-0.07424 0.18773
  -2  -9  -3    2.58    2.85   9-0.49593 0.71377-0.51806-0.89179-0.08094 0.27669
  -4 -10  -3   -0.07    2.45  10-0.51992 0.41683-0.48637-0.99389-0.10025 0.40377
  -1  -7  -1    8.44    3.27  10-0.52386 0.78013-0.48102-0.74131-0.10346 0.47875
   0  -5   0    5.62    2.28  10-0.52267 0.83258-0.48263-0.48258-0.10249 0.48321
  -6 -11  -6    0.58    2.12  12-0.55057 0.16947-0.44348-0.90122-0.12556 0.01410
  -6 -11  -5    9.26    2.35  11-0.53608 0.13825-0.46411-0.94780-0.11350 0.17521
  -7 -11  -6    7.01    2.22  12-0.56739-0.00525-0.41867-0.86350-0.13980 0.04382
  -4 -10  -4    9.11    3.00  12-0.55941 0.47046-0.43056-0.98147-0.13301 0.26369
  -2  -8  -2   24.96    3.92  12-0.56651 0.70727-0.42000-0.86475-0.13904 0.43306
  -4 -10  -5   20.67    3.39  13-0.58144 0.50660-0.39720-0.94538-0.15189 0.10742
  -3  -9  -3    4.68    2.93  13-0.57808 0.60444-0.40240-0.94598-0.14898 0.36045
  -1  -6  -1    7.63    2.55  15-0.61176 0.80663-0.34827-0.68040-0.17870 0.47845
 -10  -8  -6    0.16    1.29  25-0.77341-0.55372 0.01736-0.54060-0.35005 0.07582
 -10  -7  -6    1.30    1.79  30-0.81161-0.58267 0.18042-0.50603-0.41136 0.05755
  -4  -6  -2   58.31    4.25  30-0.81087 0.44621 0.17613-0.95179-0.40987 0.58236
  -5  -6  -2   44.30    3.93  32-0.82139 0.26595 0.24945-0.96456-0.43444 0.62287
  -6  -6  -2   15.77    3.25  33-0.82484 0.07902 0.28477-0.93827-0.44556 0.64927
 -10  -5  -5    0.39    2.44  37-0.82835-0.70496 0.39949-0.40771-0.47824 0.14592
  -9  -3  -8    2.51    1.77  42-0.80943-0.60918 0.56485-0.04274-0.51462-0.50887
 -10  -4  -5    4.50    2.61  10-0.99162-0.60180 0.39444-0.20982-0.04436-0.36417
  -4  -4  -5   78.57    4.79  11-0.99238 0.54670 0.41541-0.59839-0.02506-0.47795
 -10  -4  -4   -0.06    1.92  12-0.99207-0.61005 0.42830-0.31691-0.01287-0.22527
 -10  -3  -4    1.19    1.97  14-0.98900-0.68134 0.45735-0.14783 0.01558-0.32612
 -10  -2  -4    0.47    2.01  14-0.98781-0.74484 0.46395 0.03878 0.02225-0.40922
 -10  -3  -3    5.53    2.39  16-0.98276-0.70101 0.48452-0.24365 0.04360-0.18048
 -10  -2  -3    7.80    2.52  17-0.97689-0.76769 0.50163-0.07009 0.06205-0.27607
 -10  -1  -3    5.10    2.45  16-0.97825-0.82849 0.49804 0.12973 0.05813-0.35074
  -5  -3  -4   30.16    3.31  21-0.93871 0.22562 0.56390-0.56157 0.13622-0.52556
  -5   7   5    8.53    2.45  40-0.54144-0.92017 0.66852 0.64916 0.39962 0.01333
  -2   7   0   30.00    3.35   2-0.31319-0.50389 0.76456 0.71066 0.28520-0.78752
  -1  10   4    1.08    2.33   3-0.30265-0.56503 0.75508 0.96215 0.29787-0.34790
  -1   9   2    4.52    1.94   3-0.29495-0.48218 0.74807 0.91528 0.30700-0.62981
  -2   5  -1    8.10    2.47   4-0.26267-0.41585 0.71787 0.43929 0.34422-0.86769
  -1   7   0    2.56    2.32   5-0.25932-0.36595 0.71466 0.69948 0.34799-0.86653
  -1   8   1    5.19    2.74   4-0.26153-0.44034 0.71678 0.82039 0.34551-0.76461
  -2   6   0   20.37    3.07   6-0.23256-0.52251 0.68861 0.59328 0.37743-0.80316
  -1   5  -1    5.73    2.42   6-0.21645-0.27064 0.67253 0.42346 0.39465-0.93376
  -1   9   3   12.37    2.64   6-0.22070-0.57191 0.67681 0.91742 0.39014-0.53760
   0  10   4    0.44    2.15   7-0.21504-0.45970 0.67112 0.98083 0.39613-0.46091
  -1   6   0    1.47    1.89   8-0.17313-0.38991 0.62796 0.59251 0.43903-0.88081
  -1   8   2   27.39    3.44   8-0.17632-0.54036 0.63131 0.83827 0.43586-0.68149
  -1   7   1  207.99    7.81   9-0.16066-0.48054 0.61476 0.73033 0.45133-0.79442
   0   9   3   -2.25    2.45  10-0.14725-0.45215 0.60040 0.92626 0.46431-0.63242
   0  10   5   29.67    3.23   9-0.16124-0.53150 0.61538 0.97272 0.45076-0.34228
  -1   5   0  152.76    6.36  12-0.09686-0.40609 0.54489 0.48317 0.51090-0.87651
   0   8   2   45.00    4.06  11-0.11287-0.41347 0.56280 0.84570 0.49645-0.75757
   2  11   7    1.22    1.29  11-0.10400-0.29473 0.55291 0.96665 0.50449-0.15733
   0   9   4  178.75    7.38  12-0.07641-0.53978 0.52168 0.94144 0.52887-0.51709
   1  10   5   -0.23    1.82  12-0.08741-0.41429 0.53422 0.99226 0.51927-0.43344
  -1   6   1  178.34    6.88  13-0.06779-0.51138 0.51177 0.64002 0.53629-0.80317
   0   8   3    5.93    3.04  15-0.02566-0.51344 0.46235 0.87828 0.57119-0.65924
   1  10   6   13.88    2.57  14-0.03617-0.47939 0.47484 0.98300 0.56269-0.29571
   0   6   1    0.26    1.71  16-0.00327-0.38190 0.43545 0.65418 0.58880-0.87305
   0   7   2   68.67    4.87  16-0.00028-0.46450 0.43181 0.78335 0.59111-0.77639
   1   9   4   25.44    3.37  15-0.01045-0.41523 0.44413 0.95798 0.58322-0.58789
   1  10   7   14.52    2.82  15-0.00384-0.52576 0.43613 0.95178 0.58837-0.14629
   1  10   9    0.17    1.23  15-0.01285-0.54397 0.44702 0.80338 0.58134 0.20700
  -2   5   2  106.29    5.33  16 0.02040-0.74132 0.40649 0.54366 0.60674-0.60737
  -1   5   1    1.79    1.93  17 0.02035-0.53521 0.40655 0.55122 0.60671-0.79740
  -1   7   3   45.11    4.10  16 0.00781-0.67719 0.42197 0.78518 0.59728-0.59130
  -1   8   5   53.08    4.29  16 0.00870-0.76946 0.42087 0.84120 0.59796-0.32177
   0   9   6    3.19    2.72  17 0.02098-0.66460 0.40577 0.92023 0.60718-0.24851
   1  10   8   23.14    3.00  16 0.00482-0.55046 0.42562 0.89370 0.59500 0.02224
  -1   6   2   34.71    3.50  17 0.02844-0.62112 0.39653 0.68627 0.61268-0.70508
   0   8   4   91.38    5.69  18 0.04763-0.60271 0.37253 0.89776 0.62652-0.53908
   0   9   7   19.83    3.28  17 0.04347-0.70193 0.37777 0.87848 0.62356-0.09078
   2  10   6   -1.15    1.85  17 0.02754-0.35279 0.39765 0.99918 0.61202-0.36771
  -2   6   4  107.74    5.79  18 0.06009-0.87251 0.35677 0.64895 0.63525-0.36440
  -1   7   4  219.32    7.95  19 0.07131-0.75492 0.34244 0.79554 0.64295-0.46340
  -1   8   7   -0.06    2.03  18 0.05085-0.83987 0.36848 0.75887 0.62878-0.01270
   1   9   5   58.51    4.48  18 0.05592-0.49621 0.36207 0.97127 0.63234-0.46225
   2  10   7    9.54    2.59  19 0.06847-0.40513 0.34609 0.98113 0.64101-0.21641
  -2   5   3   48.59    4.04  20 0.09288-0.82841 0.31459 0.56710 0.65728-0.48443
   0   7   3  388.19   10.29  19 0.09123-0.56934 0.31674 0.82853 0.65620-0.66592
   2  10   8    5.08    2.01  19 0.08686-0.43992 0.32241 0.93630 0.65333-0.05292
   2  10   9    1.31    1.76  19 0.08181-0.44776 0.32894 0.86117 0.64999 0.12348
  -1   6   3   32.38    3.45  20 0.10995-0.71696 0.29222 0.72151 0.66821-0.58690
  -1   7   5   54.82    4.69  21 0.11851-0.81654 0.28091 0.78776 0.67355-0.32078
   0   6   2   65.59    4.28  20 0.10848-0.51068 0.29417 0.72771 0.66728-0.77595
   0   8   5    5.05    2.77  20 0.10404-0.67200 0.30000 0.90165 0.66447-0.40411
   1   8   4   21.39    3.66  21 0.11998-0.48252 0.27896 0.92984 0.67446-0.60280
   1   9   6    2.84    2.21  20 0.10404-0.55810 0.30000 0.96494 0.66447-0.32094
   2   9   5   63.83    4.99  20 0.11532-0.36344 0.28513 0.98661 0.67157-0.51719
   3  10   7    1.52    2.24  21 0.11939-0.26455 0.27974 0.98655 0.67409-0.26432
   3  10  10   -0.48    2.17  21 0.11959-0.31245 0.27948 0.78504 0.67421 0.25361
  -1   5   2   12.37    2.34  21 0.12322-0.65330 0.27465 0.61515 0.67644-0.69348
   0   8   6    3.86    2.86  22 0.14266-0.72493 0.24858 0.88490 0.68808-0.25452
   1   9   7   19.62    3.22  21 0.13468-0.60214 0.25933 0.93588 0.68336-0.16545
   1   9   9    5.34    2.08  21 0.13174-0.62833 0.26327 0.79517 0.68160 0.18398
  -1   7   6  135.09    6.53  22 0.14815-0.86034 0.24117 0.75864 0.69126-0.16466
   0   7   4    0.26    2.25  22 0.16301-0.65499 0.22093 0.85754 0.69971-0.53732
   0   8   7    9.25    3.12  23 0.16412-0.76014 0.21940 0.84405 0.70033-0.09133
   0   8   8   45.81    4.18  23 0.16401-0.77645 0.21955 0.77480 0.70027 0.08311
   1   7   3   16.20    2.92  22 0.16103-0.44766 0.22363 0.86029 0.69861-0.72463
   1   9   8    3.48    2.33  22 0.14493-0.62750 0.24553 0.88067 0.68940 0.00273
   3  10   8    1.78    1.89  22 0.14581-0.30612 0.24434 0.95309 0.68991-0.10633
   3  10   9    0.26    1.82  22 0.14815-0.32673 0.24117 0.89133 0.69126 0.06000
  -1   6   4  278.80    8.56  23 0.17490-0.79592 0.20457 0.73983 0.70624-0.45070
   1   8   5    1.42    2.93  23 0.18356-0.55964 0.19256 0.94772 0.71088-0.46645
   2   9   6    4.33    2.72  23 0.17055-0.43130 0.21056 0.99279 0.70388-0.37735
   2   9  10    2.84    2.27  24 0.18874-0.50711 0.18534 0.74259 0.71361 0.31037
   4  10   9    2.33    2.18  24 0.19104-0.17304 0.18213 0.88680 0.71481 0.02242
   4  10  10    0.44    1.38  23 0.17316-0.17083 0.20697 0.79017 0.70530 0.20973
  -1   5   3  338.44    9.11  25 0.20938-0.75391 0.15630 0.66416 0.72409-0.56651
   0   6   3   43.44    3.69  24 0.20250-0.61843 0.16603 0.78635 0.72066-0.65489
   2   9   7    1.26    2.73  25 0.20908-0.48311 0.15673 0.97406 0.72394-0.22283
   3   9  11   -0.06    1.25  24 0.20422-0.34948 0.16361 0.63776 0.72152 0.45515
  -1   6   5   32.88    3.73  25 0.22072-0.85593 0.14016 0.73565 0.72956-0.30141
   0   7   5  238.06    8.24  25 0.21845-0.72509 0.14340 0.86413 0.72848-0.39038
   1   8   6    3.69    2.85  25 0.22929-0.61898 0.12787 0.94226 0.73359-0.31392
   2   9   8   15.00    2.91  25 0.22242-0.51481 0.13773 0.92833 0.73037-0.05494
   2   9   9    5.78    2.28  25 0.21873-0.52455 0.14300 0.85342 0.72862 0.12181
   0   7   6   23.29    3.55  27 0.25442-0.77529 0.09136 0.84667 0.74474-0.23243
   1   7   4   21.04    3.25  26 0.24213-0.54308 0.10932 0.90669 0.73940-0.59093
   1   8   7    2.50    2.72  27 0.25443-0.65938 0.09134 0.91147 0.74474-0.15128
   1   8   9    0.97    2.31  26 0.24827-0.68524 0.10036 0.76920 0.74209 0.19121
   2   8   5    7.60    2.58  26 0.24716-0.43219 0.10199 0.97688 0.74161-0.51242
   4   9  11    0.39    2.27  27 0.25650-0.20663 0.08831 0.64884 0.74562 0.42202
  -1   5   4    8.41    2.27  27 0.27473-0.83252 0.06132 0.69067 0.75303-0.42185
   0   6   4   12.20    2.57  27 0.27550-0.70503 0.06018 0.82303 0.75333-0.51228
   0   7   7    2.24    2.94  27 0.27098-0.80523 0.06691 0.80604 0.75155-0.07415
   1   8   8    0.64    2.18  27 0.26160-0.68290 0.08079 0.85609 0.74774 0.01131
   3   9   7   -0.07    2.20  27 0.25994-0.34669 0.08324 0.99092 0.74705-0.26784
   3   9  10    7.20    2.27  27 0.25994-0.39181 0.08324 0.78379 0.74705 0.26103
   1   6   3   20.11    2.64  28 0.28166-0.50684 0.05097 0.84037 0.75571-0.70519
   1   7   5  203.09    7.52  29 0.30137-0.61754 0.02118 0.92582 0.76288-0.44087
   2   8   6   -0.87    2.88  29 0.29725-0.49658 0.02744 0.98119 0.76144-0.36290
   2   8  10    2.90    2.44  29 0.30088-0.55844 0.02191 0.71382 0.76272 0.33697
   3   9   8    3.52    2.11  28 0.28084-0.37955 0.05220 0.95269 0.75539-0.09704
   3   9   9    2.46    1.93  28 0.28166-0.39333 0.05097 0.88517 0.75571 0.07788
   5   9  11    0.10    1.22  28 0.28465-0.04373 0.04647 0.62819 0.75684 0.39295
   3   8  11   31.15    3.70  29 0.31779-0.39762-0.00402 0.60543 0.76835 0.49179
   4   9   8    1.24    2.56  30 0.31994-0.22698-0.00734 0.95011 0.76903-0.12496
   4   9  10    1.39    1.84  29 0.30678-0.24263 0.01290 0.79265 0.76474 0.22788
   0   6   5  497.55   11.27  30 0.32590-0.77028-0.01659 0.83074 0.77086-0.35692
   1   7   6    2.82    2.66  31 0.34068-0.66945-0.03974 0.91831 0.77514-0.27964
   2   8   7   28.76    3.66  30 0.32590-0.54109-0.01659 0.95786 0.77086-0.19288
   2   8   8    3.76    2.69  30 0.33778-0.56534-0.03517 0.90705 0.77433-0.02180
   2   8   9    2.09    2.40  30 0.33062-0.57267-0.02396 0.82736 0.77227 0.15377
   4   9   9    7.31    2.20  30 0.32431-0.24633-0.01413 0.88897 0.77038 0.04668
   5   9  10    4.18    2.00  30 0.33115-0.07649-0.02478 0.76589 0.77243 0.20895
   0   6   6   33.40    3.82  31 0.35600-0.81537-0.06405 0.80988 0.77913-0.19158
   1   6   4  315.43    8.88  31 0.35976-0.59868-0.07007 0.89176 0.78003-0.55530
   1   7   7   34.16    4.01  32 0.36123-0.70533-0.07243 0.88112 0.78038-0.10999
   1   7   8    2.05    3.19  31 0.36166-0.72083-0.07313 0.81636 0.78048 0.06482
   1   7   9   20.75    3.62  31 0.34727-0.72070-0.05015 0.72165 0.77691 0.24010
   3   8   6   98.67    5.56  31 0.34753-0.35733-0.05056 0.99924 0.77697-0.38759
   5   9   9    1.19    1.78  31 0.34598-0.07604-0.04811 0.86099 0.77657 0.02595
   2   7   5    1.31    2.00  32 0.36819-0.49127-0.08365 0.96990 0.78196-0.47660
   3   8   7   24.86    3.87  32 0.38039-0.40397-0.10348 0.98187 0.78449-0.22022
   3   8  10    0.24    2.23  32 0.36668-0.43626-0.08120 0.76018 0.78163 0.29502
   4   8  11    4.23    2.18  32 0.36617-0.25531-0.08038 0.62421 0.78151 0.46113
   3   8   8    7.28    2.65  33 0.39357-0.43046-0.12516 0.93568 0.78685-0.04936
   3   8   9   26.88    3.56  33 0.38964-0.44167-0.11866 0.86119 0.78619 0.12416
   5   8  11    1.79    1.97  33 0.39160-0.08846-0.12191 0.60391 0.78653 0.44084
   6   8  11   -0.34    1.35  33 0.39258 0.09744-0.12354 0.54839 0.78669 0.41965
   1   6   5   -0.01    1.81  34 0.41173-0.66416-0.15554 0.90965 0.78946-0.39188
   2   7   6   -0.05    2.15  34 0.40933-0.54631-0.15150 0.96842 0.78916-0.31356
   4   8   7    0.54    2.15  34 0.41578-0.24937-0.16240 0.98242 0.78994-0.24874
   4   8  10    1.50    2.13  34 0.41029-0.28423-0.15311 0.76534 0.78928 0.27962
   2   6   4    2.09    1.57  35 0.42664-0.47323-0.18092 0.94239 0.79099-0.58345
   2   7   7    3.82    2.87  35 0.43061-0.58238-0.18775 0.93615 0.79130-0.13728
   4   8   8   31.89    3.78  35 0.43154-0.27889-0.18936 0.93899 0.79137-0.07000
   4   8   9   16.34    3.04  35 0.42991-0.29124-0.18655 0.86761 0.79125 0.10368
   5   8  10    0.09    1.85  35 0.43409-0.12148-0.19377 0.75014 0.79154 0.25495
   6   8  10    0.49    2.28  35 0.43687 0.07204-0.19857 0.68801 0.79171 0.24561
   3   7   6   28.65    3.57  37 0.45947-0.40780-0.23835 0.99434 0.79225-0.32755
   4   7  11    5.09    2.39  36 0.44693-0.27488-0.21615 0.56682 0.79213 0.52732
   5   8   9    2.78    2.33  36 0.45190-0.12127-0.22491 0.84499 0.79223 0.08699
   5   7  11    5.66    2.24  37 0.47006-0.10238-0.25737 0.54759 0.79198 0.50969
   6   7  11    0.49    2.17  38 0.47397 0.08170-0.26446 0.49094 0.79178 0.49393
   2   6   5  156.14    6.40  38 0.47870-0.54131-0.27308 0.96530 0.79148-0.40865
   3   7   7    1.61    2.31  38 0.48148-0.44184-0.27817 0.96518 0.79127-0.15304
   4   7  10    1.85    2.93  39 0.49160-0.30335-0.29689 0.71508 0.79027 0.35437
   4   7   7    3.93    2.49  40 0.51535-0.28443-0.34194 0.96747 0.78636-0.16377
   4   7   8    3.77    3.30  41 0.52272-0.30577-0.35627 0.91093 0.78467 0.01115
   4   7   9    6.84    2.55  40 0.51377-0.31183-0.33889 0.82730 0.78669 0.18319
   5   7  10    0.03    2.25  40 0.51218-0.13775-0.33583 0.69960 0.78701 0.33550
   6   7  10    1.37    1.96  40 0.51614 0.05465-0.34347 0.63954 0.78619 0.32732
   3   6   5  151.85    6.38  41 0.52663-0.39866-0.36396 0.99538 0.78366-0.41623
   5   6  11    1.03    1.76  41 0.52759-0.10062-0.36585 0.46142 0.78340 0.59667
   5   7   8   55.81    4.93  42 0.54045-0.13433-0.39153 0.88641 0.77952 0.00291
   5   7   9   10.13    2.72  41 0.53365-0.14229-0.37788 0.80389 0.78168 0.17476
   6   6  11    6.07    2.28  41 0.52816 0.08811-0.36698 0.40287 0.78325 0.58038
   6   7   9    1.75    2.71  42 0.53860 0.04628-0.38780 0.75150 0.78013 0.15870
  -4 -11  -6   10.07    2.74   2-0.27608 0.27941-0.48465-0.98223-0.37384 0.23219
  -4 -11  -8   -0.46    1.96   3-0.29770 0.33421-0.45951-0.87233-0.38683-0.10120
  -4 -11  -7   30.44    3.53   3-0.30102 0.31849-0.45560-0.94356-0.38881 0.07393
  -5 -11  -6   20.14    3.00   4-0.31339 0.12566-0.44082-0.96653-0.39614 0.27562
  -3 -10  -5   75.36    5.35   5-0.33477 0.45222-0.41471-0.98977-0.40866 0.35029
  -5 -11  -8   -0.09    1.70   6-0.35497 0.20048-0.38933-0.87946-0.42032-0.05110
  -5 -11  -7    1.04    1.89   5-0.34675 0.17226-0.39974-0.93745-0.41560 0.11422
  -6 -11  -8    1.48    1.49   6-0.37808 0.02701-0.35945-0.84611-0.43342-0.02479
  -6 -11  -7    1.99    1.50   6-0.36677 0.00094-0.37420-0.89985-0.42704 0.14325
  -7  -9 -10    0.20    1.53  16-0.58238-0.05025-0.04303-0.58162-0.53581-0.40534
  -6  -9  -9    2.14    2.52  18-0.61350 0.15264 0.01691-0.76752-0.54838-0.23986
  -8  -7 -10    5.40    2.61  23-0.69581-0.25715 0.20466-0.38005-0.57407-0.50513
  -8  -6 -10    2.63    2.44  27-0.72935-0.28465 0.30315-0.28402-0.57887-0.57859
  -9  -6  -9    0.64    1.35  27-0.73457-0.48523 0.32065-0.30827-0.57905-0.38794
  -9  -5  -9    0.75    1.75  29-0.75406-0.52799 0.39515-0.18982-0.57738-0.46531
  -8  -6  -9   13.98    2.99  30-0.75751-0.27464 0.41050-0.46033-0.57653-0.40426
  -8  -5  -9    9.16    2.71  33-0.77244-0.31880 0.49336-0.34956-0.56859-0.49182
  -9  -2  -7   11.60    2.62  39-0.77893-0.71813 0.66793-0.02279-0.52936-0.39489
   0  -2   9   30.79    3.87   6-0.19918 0.19510-0.76759-0.23733 0.79547 0.92501
  -4  -6   6    3.03    1.83  13-0.22765-0.25169-0.83408-0.49073 0.60185 0.96399
  -4  -7   5   22.79    3.00  16-0.23371-0.16702-0.84281-0.60741 0.52210 0.94535
  -4  -5   6    3.54    2.30  16-0.23411-0.30727-0.84318-0.28979 0.51542 0.97355
  -5  -6   5    6.38    2.53  18-0.23602-0.42335-0.84426-0.34599 0.47838 0.92973
  -4  -8   4    4.29    2.57  18-0.23596-0.09034-0.84425-0.72949 0.47967 0.89173
  -4  -6   5   16.29    2.83  20-0.23842-0.22560-0.84220-0.41583 0.40749 0.98513
  -5  -7   4   -0.27    2.05  21-0.23896-0.33912-0.83989-0.47726 0.37820 0.93514
  -4  -7   4   18.56    3.02  22-0.23934-0.14895-0.83315-0.54890 0.32161 0.97226
  -4  -5   5    6.67    2.66  22-0.23930-0.28709-0.83606-0.22694 0.34320 0.97319
  -4  -4   5   58.50    4.68  23-0.23933-0.35012-0.83251-0.03760 0.31726 0.92258
  -5  -9   2    9.79    2.79  24-0.23906-0.18754-0.82636-0.74395 0.27981 0.83373
  -5  -8   3    1.22    2.11  23-0.23930-0.26492-0.83125-0.61435 0.30897 0.90340
  -5  -6   4    1.43    2.24  24-0.23916-0.40279-0.82791-0.29936 0.28860 0.94400
  -4  -8   3   32.98    3.50  24-0.23889-0.07274-0.82417-0.68273 0.26802 0.92851
  -4  -6   4   23.80    3.36  25-0.23809-0.21201-0.81587-0.37253 0.22787 0.99087
  -6  -8   2    3.82    2.26  26-0.23723-0.44398-0.80886-0.50557 0.19803 0.85696
  -5  -7   3    4.77    2.30  27-0.23683-0.32857-0.80588-0.44617 0.18616 0.94926
  -6 -10   0    0.32    1.30  28-0.23551-0.29169-0.79677-0.76356 0.15235 0.70291
  -6  -9   1    0.07    1.75  28-0.23548-0.36743-0.79656-0.64046 0.15164 0.80851
  -4  -5   4    1.50    2.44  27-0.23629-0.27605-0.80202-0.19095 0.17145 0.96975
  -4  -4   4   28.73    3.50  28-0.23547-0.33895-0.79649-0.00515 0.15139 0.91352
  -5  -8   2   13.42    2.82  29-0.23380-0.25561-0.78606-0.59014 0.11624 0.92228
  -5  -6   3  152.56    6.80  29-0.23353-0.39439-0.78445-0.27346 0.11109 0.94820
  -4  -7   3    0.07    2.48  28-0.23490-0.13622-0.79283-0.51584 0.13869 0.98325
  -2  -5   4   66.62    4.74  28-0.23488 0.10446-0.79271-0.32608 0.13826 0.97187
  -2  -4   4  130.03    6.17  29-0.23249 0.04029-0.77842-0.14623 0.09231 0.94148
  -1  -3   4   77.13    4.70  29-0.23276 0.16998-0.77998-0.01314 0.09709 0.84450
  -4  -6   3   26.96    3.66  30-0.22991-0.20652-0.76400-0.35570 0.05042 0.99208
  -6  -8   1   24.23    3.45  32-0.22723-0.43912-0.74988-0.49527 0.01265 0.86713
  -5  -7   2   75.52    5.06  32-0.22691-0.32483-0.74820-0.43432 0.00833 0.95371
  -4  -5   3   72.70    4.87  32-0.22616-0.27210-0.74437-0.18174-0.00136 0.96868
  -5  -6   2   17.92    3.10  34-0.22089-0.39333-0.71839-0.27099-0.06301 0.94861
  -3  -5   3   19.12    3.24  33-0.22328-0.08333-0.73001-0.25867-0.03627 0.98800
  -3  -4   3   -0.59    2.06  34-0.22013-0.14489-0.71477-0.08005-0.07112 0.94566
  -3  -3   3    8.03    1.80  34-0.22053-0.21030-0.71672 0.11513-0.06677 0.86561
  -2  -4   3   42.62    3.61  34-0.21913 0.04128-0.71002-0.14616-0.08156 0.94122
  -4  -6   2  115.19    5.95  35-0.21486-0.20742-0.69013-0.36027-0.12353 0.99189
  -6  -8   0  165.84    7.10  36-0.21122-0.44097-0.67348-0.50262-0.15663 0.86123
  -5  -7   1   21.78    3.47  37-0.21051-0.32710-0.67029-0.44283-0.16279 0.95072
  -4  -5   2   63.30    4.42  37-0.20887-0.27516-0.66297-0.19438-0.17674 0.97045
  -5  -6   1   29.33    3.61  39-0.20158-0.39729-0.63085-0.28972-0.23473 0.94665
  -3  -4   2  114.04    5.54  39-0.19905-0.15517-0.61991-0.10588-0.25343 0.95462
  -2  -4   2   -0.50    1.58  40-0.19742 0.03616-0.61286-0.17707-0.26523 0.95223
  -4  -5   1   59.79    4.13  42-0.18382-0.28576-0.55550-0.23339-0.35479 0.97415
   0   2  11    1.59    2.23   6 0.06830-0.35129-0.60868 0.23943 0.96736 0.79582
   0   1  11    8.13    2.56   7 0.08076-0.30104-0.64132 0.07978 0.95645 0.88300
   1   0  11    3.18    2.03   9 0.09511-0.06043-0.67797-0.13696 0.94160 0.95635
   1   2  11    4.23    2.43   8 0.08707-0.17755-0.65755 0.22572 0.95023 0.79852
   1   1  11    2.58    2.23   9 0.09764-0.12274-0.68435 0.05909 0.93871 0.88575
   0  -1  10    9.26    3.27  14 0.14463-0.22614-0.79591-0.08311 0.86984 0.94801
   0   0  10   29.35    4.04  14 0.14420-0.28752-0.79496 0.10874 0.87060 0.86998
   1  -1  10    9.06    3.14  15 0.15402-0.04377-0.81660-0.12530 0.85222 0.95033
   1   0  10    3.22    2.54  15 0.15569-0.10768-0.82022 0.07079 0.84894 0.87786
   1  -3   9   -0.70    1.74  18 0.18038 0.06647-0.87132-0.38341 0.79469 0.98654
   1  -2   9   15.23    3.08  20 0.19804-0.01112-0.90476-0.16187 0.74849 0.95671
   0  -5   7   46.29    3.94  25 0.23977-0.03062-0.96991-0.47639 0.60599 0.99572
   0  -6   6   39.22    3.79  28 0.25695 0.02593-0.98838-0.58364 0.52735 0.97611
   1  -9   1    1.27    1.55  39 0.30163 0.43307-0.96697-0.89970 0.15662 0.68641
  -3  -3  -8    0.35    3.10   8-0.73490 0.46148 0.70447-0.54954-0.57322-0.54461
  -8   1  -6    1.12    2.07  14-0.74570-0.76112 0.80973 0.28744-0.46067-0.53464
  -5   2  -7   24.80    3.21  18-0.73364-0.24839 0.86310 0.31138-0.36855-0.92427
  -6   4  -5    2.29    1.49  19-0.72604-0.59785 0.87672 0.60642-0.33598-0.74439
  -5   3  -6   -0.28    1.76  21-0.71409-0.33863 0.89072 0.40210-0.29421-0.90230
  -5   4  -5   10.84    2.74  23-0.69414-0.44033 0.90405 0.52025-0.23731-0.85854
  -3   0  -6  102.92    5.44  23-0.69862 0.20898 0.90179-0.30514-0.24917-0.74835
  -5   5  -4    2.59    2.07  25-0.68270-0.52774 0.90840 0.64069-0.20887-0.79180
  -4   2  -6   88.48    5.41  24-0.68615-0.12000 0.90728 0.13707-0.21720-0.91698
  -4   3  -5  117.30    6.07  28-0.64234-0.23982 0.91282 0.25567-0.12246-0.91353
  -4   7  -2    0.72    1.30  28-0.63833-0.53154 0.91259 0.82131-0.11471-0.70361
  -4   6  -3    9.41    2.42  29-0.63079-0.46479 0.91192 0.69860-0.10049-0.81630
  -3   1  -5   21.35    2.88  29-0.63009 0.06419 0.91184-0.19140-0.09920-0.80053
  -4   4  -4   44.30    3.98  31-0.60067-0.35783 0.90646 0.38612-0.04718-0.89061
  -4   5  -3   12.28    2.56  33-0.56896-0.46492 0.89688 0.52002 0.00408-0.84405
  -4   7  -1    8.49    2.26  33-0.56238-0.62318 0.89449 0.77171 0.01420-0.66062
  -3   3  -4   27.37    3.39  34-0.55022-0.15517 0.88976 0.14961 0.03249-0.91017
  -3   5  -3   28.78    3.58  35-0.52886-0.31553 0.88052 0.47608 0.06346-0.91921
  -3   6  -2    3.67    2.66  37-0.50047-0.41849 0.86662 0.61643 0.10257-0.86273
  -3   8   0   12.55    2.54  36-0.51372-0.55706 0.87332 0.85660 0.08459-0.64810
  -3   4  -3   -0.30    2.59  38-0.48371-0.29187 0.85764 0.30069 0.12470-0.90365
  -3   7  -1   19.17    2.79  37-0.49208-0.50338 0.86219 0.74266 0.11373-0.77399
  -3   5  -2    3.06    2.24  40-0.43552-0.41917 0.82911 0.45951 0.18478-0.86775
  -2   9   2    1.67    2.24  42-0.39799-0.57107 0.80441 0.91900 0.22842-0.53509
  -7 -10  -1   13.48    2.96   9-0.53622-0.16768-0.56737-0.86648 0.10538 0.59418
  -7  -9  -1    1.24    1.97  16-0.68218-0.08557-0.35496-0.88505-0.03921 0.66182
  -8  -9  -2    0.56    1.91  19-0.72965-0.20810-0.26311-0.85131-0.09701 0.56456
  -9  -9  -3    0.23    1.71  20-0.74888-0.36708-0.22058-0.76309-0.12293 0.43191
  -7  -8  -1   98.47    5.80  21-0.77135-0.05721-0.16545-0.88083-0.15579 0.70230
  -9  -9  -4    0.11    2.13  23-0.78443-0.31678-0.12982-0.78581-0.17660 0.31172
 -10  -8  -4    0.60    1.56  25-0.80898-0.55117-0.05278-0.60303-0.22044 0.29168
  -8  -8  -2    1.03    2.19  24-0.80415-0.19387-0.06928-0.85190-0.21118 0.60195
  -9  -8  -3    5.13    2.40  26-0.81676-0.36684-0.02431-0.76299-0.23626 0.46767
 -10  -8  -5    0.14    2.34  27-0.82508-0.52106 0.00938-0.59636-0.25469 0.15168
  -7  -7  -1   61.49    4.78  27-0.82590-0.06453 0.01293-0.86702-0.25662 0.72760
  -8  -8  -3    0.38    2.05  27-0.83053-0.15318 0.03389-0.88614-0.26793 0.48448
  -5  -6   0    0.14    2.13  27-0.82617 0.24715 0.01411-0.86772-0.25726 0.79206
  -8  -7  -2   40.80    4.19  29-0.84405-0.22321 0.10890-0.83238-0.30746 0.61938
  -7  -7  -2   49.86    4.38  30-0.84739-0.02901 0.13329-0.91825-0.31999 0.61639
  -7  -6  -1    8.73    2.76  32-0.85285-0.09831 0.18592-0.84725-0.34651 0.74161
  -6  -6  -1   33.58    3.81  32-0.85291 0.09255 0.18677-0.90923-0.34693 0.72571
  -4  -5  -1   29.50    3.05  34-0.85640 0.41621 0.27249-0.92401-0.38848 0.65850
  -5  -5  -1    3.79    2.31  36-0.85424 0.22115 0.33955-0.92933-0.41951 0.70594
  -6  -5  -1   45.55    3.96  37-0.85239 0.02974 0.36324-0.89292-0.43015 0.73292
  -2   7   6    8.59    2.85   4-0.11128-0.79112 0.23084 0.83181 0.78462-0.24231
  -1   8   8    4.32    2.43   4-0.09549-0.70761 0.20999 0.84707 0.79523 0.00451
   1   9  10    2.45    2.11   5-0.08078-0.42974 0.19054 0.79917 0.80468 0.23568
  -2   6   5   85.36    5.41   7-0.04047-0.78609 0.13702 0.80096 0.82852-0.38457
   0   8  10    0.75    1.94   7-0.03526-0.60478 0.13009 0.72788 0.83137 0.30111
   0   8   9   11.78    2.58   8-0.00561-0.62162 0.09050 0.83679 0.84670 0.10968
   1   8  11    3.47    2.35   8 0.00151-0.46434 0.08098 0.64659 0.85015 0.44061
  -1   7   7   85.84    5.38   9 0.01400-0.74052 0.06426 0.86851 0.85594-0.15611
   1   8  10    3.84    2.54  11 0.05576-0.50455 0.00809 0.78798 0.87329 0.24300
   0   7  10   40.55    3.90  12 0.08056-0.66083-0.02540 0.69210 0.88205 0.32282
   2   8  11    3.37    2.29  12 0.07835-0.35161-0.02241 0.69085 0.88132 0.39069
  -2   5   6   17.77    3.54  13 0.10097-0.87958-0.05305 0.72878 0.88840-0.19324
  -1   6   6   14.57    3.32  13 0.10223-0.75161-0.05475 0.86287 0.88876-0.28714
   2   7  12    0.36    1.68  13 0.10205-0.32574-0.05451 0.45853 0.88871 0.63517
  -2   4   4  152.77    6.32  13 0.11730-0.80464-0.07521 0.69593 0.89290-0.47143
  -1   6   7  239.54    8.45  14 0.12596-0.79061-0.08699 0.82665 0.89509-0.11962
  -1   6   9   25.91    3.52  13 0.11145-0.80572-0.06726 0.67060 0.89134 0.23143
   0   7   8   52.85    4.70  13 0.11788-0.66815-0.07600 0.87832 0.89305-0.03427
   0   7   9    0.93    2.37  13 0.11145-0.67486-0.06726 0.80059 0.89134 0.14294
   1   7  11   37.41    3.93  13 0.11672-0.52007-0.07441 0.61085 0.89275 0.47122
  -1   6   8    1.73    2.87  14 0.12986-0.80841-0.09229 0.76271 0.89602 0.05608
   1   7  10   31.62    4.05  15 0.17001-0.55604-0.14715 0.74909 0.90393 0.28850
   3   7  12    0.44    1.31  15 0.15913-0.19488-0.13225 0.47961 0.90210 0.60184
  -1   5   5   70.57    4.60  16 0.17553-0.74839-0.15471 0.83806 0.90476-0.40022
   0   6  10  210.65    7.92  16 0.17868-0.69723-0.15903 0.63227 0.90521 0.37632
   2   6  12    0.87    1.86  17 0.19408-0.35541-0.18019 0.39060 0.90711 0.69135
   2   7  11   79.67    5.07  16 0.19095-0.40068-0.17588 0.64807 0.90677 0.44362
   4   6  10   20.97    4.07  26 0.40278-0.15359-0.47217 0.69775 0.87747 0.34350
   5   5  11   15.69    3.30  28 0.42442 0.06325-0.50315 0.40698 0.86712 0.58799
   5   4  11    1.84    2.15  30 0.46883 0.08244-0.56733 0.27649 0.84002 0.69265
   5   3  11   22.50    3.69  32 0.49462 0.11612-0.60500 0.12126 0.82003 0.78905
   3   5   7    5.58    3.15  33 0.50903-0.34497-0.62621 0.92473 0.80724-0.01748
   4   5   9   64.31    5.60  32 0.50765-0.18241-0.62418 0.72405 0.80851 0.31579
   5   2  11    5.27    1.87  32 0.50005 0.17278-0.61297-0.06298 0.81535 0.86762
   5   4  10   16.92    3.12  34 0.53078 0.03263-0.65847 0.43684 0.78541 0.57273
   5   3  10    0.80    2.48  36 0.56298 0.06458-0.70692 0.29154 0.74628 0.68795
   6   2  10    1.48    2.05  36 0.56031 0.32071-0.70286 0.03281 0.74989 0.74473
   5   1  10   26.39    3.70  38 0.58277 0.16686-0.73719-0.06187 0.71704 0.86938
   5   2  10   -1.65    3.28  38 0.58032 0.10403-0.73341 0.13297 0.72093 0.78629
   4   4   8   18.21    3.53  38 0.58879-0.18654-0.74650 0.72288 0.70715 0.31871
  -2   5   7   12.63    3.44   4-0.16852-0.62385-0.31213 0.92028 0.99450-0.12532
  -2   5   8  292.44    9.04   4-0.16453-0.64261-0.31814 0.85844 0.99514 0.04622
   0   5  11    1.35    2.40   5-0.14156-0.32811-0.35234 0.56828 0.99794 0.53048
  -6  -8   3   13.10    2.51   4-0.48146-0.21253-0.67330-0.70895 0.36988 0.85576
  -7  -9   1    6.21    2.39   9-0.55183-0.24348-0.59440-0.78402 0.24833 0.72366
  -7  -8   2   21.76    3.06   9-0.55496-0.31685-0.59022-0.66336 0.24225 0.82885
  -6  -7   3   11.43    2.59  10-0.56666-0.18933-0.57403-0.61574 0.21899 0.93425
  -7  -9   0   10.35    2.24  14-0.62482-0.15783-0.47465-0.83316 0.08466 0.71617
  -7  -8   1  103.74    5.61  15-0.63161-0.22399-0.46024-0.72524 0.06620 0.83115
  -6  -7   2   77.98    4.91  15-0.63685-0.10494-0.44856-0.67300 0.05140 0.92691
  -8  -9  -1    7.77    2.16  17-0.65554-0.30129-0.40191-0.77908-0.00636 0.64391
  -8  -8   0   29.48    3.50  18-0.66153-0.37191-0.38489-0.67215-0.02691 0.76288
  -9  -9  -2   -0.25    1.13  18-0.66727-0.46407-0.36734-0.68282-0.04784 0.53242
  -9  -8  -1   10.38    2.41  19-0.67359-0.53599-0.34628-0.58058-0.07259 0.65211
  -7  -8   0    1.32    2.37  19-0.67614-0.16780-0.33717-0.77811-0.08319 0.80368
  -7  -7   1   -0.33    1.83  19-0.67359-0.23860-0.34628-0.64661-0.07260 0.89449
  -6  -6   2    6.72    2.43  19-0.67167-0.13352-0.35289-0.57561-0.06486 0.96634
  -6  -7   1   62.14    4.52  20-0.67973-0.04815-0.32361-0.72931-0.09884 0.90304
  -8  -8  -1    5.00    2.14  22-0.69327-0.32730-0.26123-0.72448-0.16898 0.73299
  -8  -7   0    1.02    2.18  22-0.69188-0.40588-0.26882-0.59258-0.16060 0.82145
  -5  -5   2   11.91    2.71  23-0.69445 0.01844-0.25453-0.54121-0.17634 0.98540
  -9  -8  -2   -0.45    2.19  24-0.69898-0.49476-0.22519-0.63496-0.20821 0.61885
  -7  -7   0    6.50    2.56  24-0.70016-0.20653-0.21624-0.70703-0.21781 0.86111
  -6  -7   0   61.06    4.81  25-0.70221-0.01182-0.19888-0.78419-0.23626 0.86573
  -6  -6   1    8.73    2.57  24-0.70025-0.09091-0.21553-0.64336-0.21856 0.94605
  -4  -4   2   22.30    2.90  25-0.70392 0.15888-0.18159-0.48233-0.25445 0.97064
  -8  -7  -1    4.43    2.82  27-0.70673-0.37663-0.13943-0.65265-0.29794 0.78434
  -9  -7  -2    0.24    1.75  28-0.70764-0.54581-0.10413-0.56246-0.33347 0.66728
  -7  -6   0   45.27    4.34  28-0.70762-0.25921-0.10630-0.62259-0.33131 0.90085
  -6  -6   0   36.49    3.98  29-0.70752-0.06865-0.07993-0.71103-0.35737 0.91133
  -5  -5   1    1.76    2.04  28-0.70761 0.04600-0.10702-0.62052-0.33059 0.96501
  -8  -6  -1    7.40    2.57  30-0.70553-0.43722-0.03231-0.56760-0.40331 0.81470
  -4  -4   1   25.88    2.87  31-0.70452 0.17346-0.01848-0.57729-0.41639 0.95875
  -6  -5   0   93.95    5.60  33-0.69897-0.13832 0.03373-0.63135-0.46469 0.94139
  -5  -5   0   17.75    2.86  33-0.69795 0.05195 0.04122-0.70028-0.47147 0.93227
  -3 -11  -6   12.18    2.84  25-0.22395 0.41765-0.55883-0.96890-0.31975 0.16131
  -1 -10  -9    0.72    1.55   3 0.01256 0.54506-0.44837-0.80249-0.57972-0.20817
   2  -7  -5   35.24    3.98   3-0.00236 0.89081-0.43030-0.70216-0.59132 0.22432
   0  -9  -8   10.51    2.58   5-0.04333 0.71636-0.37966-0.81029-0.62171-0.08380
   1  -8  -7    0.58    2.22   5-0.05109 0.84182-0.36989-0.75573-0.62723 0.00842
   1  -8  -6   11.95    2.98   5-0.04034 0.81298-0.38340-0.81180-0.61957 0.16968
   2  -6  -4  136.94    6.80   6-0.05965 0.87218-0.35905-0.64929-0.63323 0.36471
   2  -5  -3   71.39    4.70   7-0.09334 0.82855-0.31572-0.56729-0.65593 0.48396
  -1  -9  -9    4.73    2.96   9-0.13204 0.62827-0.26462-0.79513-0.68020-0.18404
   1  -7  -6  166.41    7.13   9-0.14868 0.85931-0.24219-0.75998-0.69004 0.16417
   0  -8  -8   51.98    4.45  10-0.16442 0.77479-0.22075-0.77612-0.69899-0.08272
  -1  -8  -9    1.33    2.81  14-0.24937 0.68321-0.10052-0.76486-0.74128-0.19999
   0  -7  -7    2.33    2.77  15-0.27153 0.80612-0.06787-0.80336-0.75052 0.06552
  -2  -8 -10    4.25    2.37  16-0.30197 0.55920-0.02203-0.71336-0.76193-0.33721
  -3  -8 -11   38.84    3.83  17-0.31692 0.39582 0.00091-0.60678-0.76695-0.49022
  -1  -7  -9   22.31    3.46  18-0.34780 0.71790 0.04923-0.72226-0.77603-0.24130
  -2  -7 -10   -1.12    2.94  21-0.39286 0.59261 0.12225-0.66786-0.78587-0.38433
  -3  -7 -11    2.90    2.32  21-0.40333 0.42074 0.13969-0.55138-0.78752-0.54661
  -1  -6  -8    9.85    3.64  24-0.45221 0.74729 0.22373-0.77130-0.79159-0.12896
  -2  -6  -9   10.23    3.69  27-0.50138 0.61825 0.31357-0.73279-0.78849-0.28763
  -4  -6 -11    4.60    2.31  27-0.50907 0.27266 0.32818-0.48556-0.78722-0.60712
  -3  -6 -10    9.86    2.92  28-0.52055 0.46112 0.35033-0.63646-0.78486-0.45222
  -1  -5  -7    6.27    2.52  29-0.53694 0.75570 0.38276-0.80562-0.78043-0.04224
  -4  -5 -11   16.70    3.00  30-0.55292 0.25431 0.41539-0.38079-0.77476-0.69542
  -2  -5  -9   21.89    3.87  31-0.56232 0.61813 0.43511-0.66043-0.77071-0.38326
  -3  -5 -10   17.59    3.29  31-0.57125 0.44940 0.45424-0.54844-0.76633-0.54678
  -2  -5  -8   48.99    4.44  32-0.58367 0.62337 0.48159-0.77494-0.75923-0.22056
  -5  -4 -11   -0.85    2.04  33-0.59409 0.04853 0.50529-0.22093-0.75225-0.77693
  -5  -3 -11   12.97    2.81  34-0.60596-0.00942 0.53328-0.04670-0.74294-0.86631
  -1  -4  -6  496.24   11.18  34-0.60596 0.74720 0.53328-0.83306-0.74294 0.01964
  -4  -4 -10    2.88    2.45  36-0.62891 0.25473 0.59132-0.43067-0.71964-0.65425
 -10  -8  -3    0.01    1.45   3-0.89541-0.47288-0.07911-0.65028 0.04893 0.19805
 -10  -7  -2   10.28    2.39   6-0.93570-0.51275 0.04035-0.64412 0.00107 0.34055
  -9  -7  -1   -1.49    1.96   6-0.93848-0.32722 0.05038-0.78786-0.00296 0.50592
 -10  -6  -1    2.80    1.78   8-0.95355-0.57386 0.11212-0.58914-0.02781 0.46919
  -8  -6   0    5.54    2.37  10-0.96510-0.19141 0.17429-0.84471-0.05289 0.63735
  -9  -6  -1    2.49    2.08  11-0.97172-0.36269 0.22474-0.76451-0.07330 0.49770
  -8  -5   0   -0.25    2.53  15-0.97709-0.23534 0.34263-0.82365-0.12118 0.62794
  -7  -5   0    2.05    2.95  16-0.97625-0.05447 0.36879-0.90742-0.13184 0.62523
  -5  -4   0   65.88    4.40  20-0.95687 0.24971 0.51185-0.97886-0.19042 0.57389
  -6  -4   0   28.27    3.40  21-0.94977 0.05090 0.54005-0.94507-0.20203 0.60138
  -5  -4  -1  788.97   13.80  23-0.93102 0.23713 0.59850-0.99591-0.22617 0.43526
   3   3   6  152.56    6.34   2 0.55057-0.24845-0.86723 0.85076 0.64164 0.12621
   4   3   7   95.79    5.62   2 0.55061-0.07177-0.86479 0.71779 0.64455 0.28217
   5   3   7   16.23    3.50   2 0.55064 0.12062-0.86233 0.65333 0.64744 0.26428
   6  -1   8    3.95    2.15   2 0.55059 0.54757-0.86642-0.24506 0.64261 0.73094
   4   3   6    0.36    1.67   3 0.54996-0.05562-0.88229 0.80455 0.62257 0.12908
   5  -2   8   20.58    3.40   4 0.54953 0.41581-0.88816-0.35366 0.61458 0.85335
   5   2   8   -0.73    3.00   3 0.55021 0.16528-0.87789 0.41371 0.62834 0.52899
   6   0   8    0.50    2.05   3 0.54995 0.48034-0.88248-0.02807 0.62232 0.67443
   6   1   8   -1.04    2.55   3 0.55024 0.41736-0.87712 0.15974 0.62934 0.58954
   5  -1   8   14.61    3.57   5 0.54625 0.35738-0.91294-0.13685 0.57643 0.81366
   5   0   8   32.59    4.39   6 0.54573 0.29557-0.91559 0.05847 0.57184 0.74329
   5   1   8    0.44    2.82   5 0.54768 0.22938-0.90445 0.24824 0.59040 0.64333
   5   2   7   45.18    5.00   5 0.54635 0.18609-0.91243 0.50963 0.57730 0.41033
   6  -2   7    2.46    2.08   5 0.54703 0.62500-0.90860-0.32811 0.58371 0.69428
   5  -3   7    0.99    2.72   6 0.54342 0.49960-0.92540-0.44367 0.55375 0.81703
   6   1   7   26.78    3.91   6 0.54533 0.43935-0.91751 0.26124 0.56844 0.48094
   5   2   6   75.15    5.08   7 0.54105 0.20512-0.93339 0.60076 0.53750 0.27660
   6  -1   7   39.84    4.04   7 0.54259 0.56687-0.92843-0.11392 0.54777 0.65338
   6   0   7    1.43    2.64   7 0.54217 0.50545-0.92983 0.07984 0.54493 0.57977
   5  -4   6    1.67    2.52   9 0.53600 0.58156-0.94610-0.54534 0.50795 0.76276
   5   1   7   -3.53    2.81   8 0.53868 0.25328-0.93990 0.35042 0.52302 0.53734
   5  -2   7   40.60    4.05   9 0.53404 0.44575-0.95006-0.22410 0.49754 0.79609
   5  -1   7    5.37    3.52  10 0.53060 0.38854-0.95595-0.02580 0.48058 0.73805
   5   0   7   -0.28    2.87   9 0.53230 0.32131-0.95318 0.17200 0.48879 0.64814
   6  -2   6  132.17    6.78  10 0.53103 0.65505-0.95528-0.21265 0.48262 0.62118
   5   1   6   24.75    4.22  10 0.52656 0.28233-0.96163 0.43383 0.46207 0.42907
   5  -3   6    0.37    2.68  12 0.51919 0.53673-0.96949-0.32353 0.43117 0.76584
   5   0   6   12.66    3.99  12 0.51389 0.35706-0.97365 0.25306 0.41065 0.55565
   5  -4   5   19.93    3.41  14 0.50536 0.62720-0.97840-0.44456 0.37987 0.71850
   5  -2   6   -0.05    2.69  13 0.50887 0.48288-0.97669-0.12127 0.39227 0.72481
   5  -1   6    0.80    2.84  13 0.50758 0.42248-0.97736 0.07135 0.38766 0.65256
   4   1   5  609.25   12.45  14 0.50378 0.12728-0.97906 0.58326 0.37440 0.35747
   5  -5   4    1.70    2.43  14 0.49869 0.70975-0.98080-0.56673 0.35727 0.64206
   5  -3   5   -0.06    2.56  16 0.48682 0.58157-0.98290-0.23991 0.31960 0.70103
   2  -8   2   12.83    2.59  21 0.42997 0.41692-0.96917-0.83775 0.16644 0.76309
  -5  -5   6   17.66    2.97   5-0.27450-0.45561-0.81084-0.26201 0.58333 0.92375
  -5  -4   6   10.68    2.48   6-0.27065-0.52285-0.81852-0.05961 0.55021 0.87905
  -6  -7   4    9.99    2.17   8-0.26098-0.50861-0.83025-0.42744 0.47696 0.84867
  -5  -5   5   14.55    2.64  10-0.25155-0.46530-0.83523-0.16944 0.41386 0.91794
  -5  -4   5   30.72    3.47  11-0.24930-0.52978-0.83574 0.02567 0.39969 0.85520
  -5  -5   4   23.61    3.17  15-0.22357-0.48002-0.82959-0.10514 0.25341 0.90434
  -4  -3   4    0.73    1.85  17-0.20998-0.42639-0.81999 0.21011 0.18449 0.80413
  -3  -2   4   75.46    4.62  18-0.20632-0.29941-0.81686 0.33920 0.16667 0.72976
  -5  -5   3   91.57    5.49  20-0.19064-0.49829-0.80115-0.06398 0.09319 0.88985
  -2   4   3   18.72    2.76   9-0.01530-0.65745-0.02449 0.71386 0.90630-0.65918
   1   6  12    0.73    2.12  12 0.05215-0.40381-0.12136 0.39347 0.92998 0.68609
   0   6  11    0.51    1.99  12 0.06213-0.59078-0.13565 0.53790 0.93264 0.52502
   1   5  12   -0.41    1.27  15 0.12735-0.42026-0.22876 0.31324 0.94450 0.74212
   1   4  12    2.52    1.49  17 0.17775-0.40624-0.30036 0.18542 0.94692 0.82058
  -4  -5   7   18.49    2.76  17-0.13855-0.41445-0.83521-0.36714 0.73129 0.92987
  -8  -1   4   46.27    4.59   3-0.56392-0.96124-0.07304 0.09633 0.86196 0.03452
  -7   0   7    7.43    1.97   4-0.51095-0.92631-0.10479 0.05283 0.89164 0.43534
  -7   0   6   27.61    3.75   7-0.44259-0.98272-0.14351 0.16028 0.92346 0.23027
  -7   0   5    0.93    3.20   8-0.41300-0.99360-0.15955 0.24437 0.93517 0.04370
  -7  -1   4   28.53    4.28   9-0.38118-0.95230-0.17635 0.13748 0.94649-0.06472
  -7  -1   5   43.87    4.58   8-0.38520-0.96243-0.17426 0.06683 0.94513 0.11003
  -6  -1   3  471.40   11.52  13-0.23543-0.89260-0.24785 0.21684 0.98265-0.29116
  -6  -1   4  120.61    6.44  14-0.19888-0.94364-0.26447 0.16460 0.98798-0.12303
  -6  -1   5    0.61    2.58  14-0.19247-0.96505-0.26733 0.10433 0.98877 0.04383
  -5  -1   3  150.82    6.60  18-0.05301-0.88356-0.32598 0.23364 0.99540-0.31945
  -9   2   2    0.47    1.62   7-0.89428-0.97609 0.32519 0.47445 0.45243-0.11670
  -1   4  -1   23.20    2.95   3 0.18992-0.61514 0.65181 0.25172 0.21178-0.67661
   0   2  -2  503.51   11.68   2 0.18240-0.27909 0.66536-0.14055 0.19642-0.69756
   0   3  -2  102.69    5.26   2 0.18721-0.34551 0.65673 0.06094 0.20624-0.78389
   1   4  -2   14.30    2.40   3 0.20232-0.23036 0.62871 0.22040 0.23725-0.90682
   1   6  -1   -0.63    1.98   4 0.20498-0.37295 0.62363 0.54112 0.24273-0.89375
  -1   2  -1  395.60   10.58   4 0.20775-0.50972 0.61827-0.10094 0.24847-0.55979
  -1   3  -1  296.38    8.59   4 0.20845-0.57223 0.61693 0.09369 0.24990-0.63748
   0   5  -1   61.73    4.15   4 0.21018-0.50601 0.61356 0.42162 0.25348-0.81002
   1   2  -2    4.07    2.11   4 0.21035-0.11403 0.61323-0.15097 0.25384-0.77072
   1   3  -2    2.51    1.75   4 0.21663-0.18261 0.60082 0.05500 0.26688-0.86018
   0   6   0  131.50    6.05   5 0.22657-0.59911 0.58065 0.57928 0.28758-0.74710
   2   6  -1   45.07    3.96   5 0.22927-0.20358 0.57507 0.53023 0.29322-0.95733
   0   1  -1  410.86   13.57   7 0.24543-0.29448 0.54046-0.27725 0.32721-0.57829
   0   4  -1  159.49    6.17   6 0.24224-0.47669 0.54744 0.29470 0.32048-0.80024
   1   5  -1    5.57    2.16   7 0.24601-0.35046 0.53917 0.43460 0.32845-0.90102
  -1   1   0  196.95   10.08   8 0.25908-0.51310 0.50967-0.25433 0.35621-0.41714
  -1   4   0  194.91    7.06   7 0.24862-0.68855 0.53338 0.30127 0.33398-0.62388
   0   3  -1  747.68   14.24   8 0.26497-0.43735 0.49591 0.15308 0.36881-0.77220
   0   5   0    4.95    2.03   9 0.27023-0.58041 0.48338 0.48187 0.38009-0.76236
   1   6   0    0.76    1.59   8 0.26733-0.44842 0.49031 0.60836 0.37387-0.84815
   1   7   1    5.22    2.24   9 0.27072-0.52702 0.48219 0.74091 0.38116-0.75921
   2   5  -1   71.16    4.41   8 0.26833-0.18141 0.48792 0.42397 0.37602-0.96363
  -1   3   0  120.16    5.88   9 0.27435-0.65227 0.47340 0.16832 0.38896-0.60240
   0   2  -1   28.38    3.45   9 0.27342-0.38403 0.47566-0.01981 0.38696-0.71375
   1   4  -1    6.87    1.88   9 0.27896-0.32163 0.46202 0.31793 0.39893-0.89452
  -1   2   0 1358.91   20.63  10 0.28625-0.60228 0.44366 0.00489 0.41475-0.55178
   2   6   0  123.09    5.89  10 0.29409-0.28356 0.42332 0.61319 0.43187-0.92200
   0   4   0   35.07    3.48  12 0.30763-0.55646 0.38662 0.38674 0.46173-0.76703
   1   1  -1   11.73    3.06  11 0.30319-0.16102 0.39887-0.19774 0.45190-0.71786
   1   3  -1   13.51    2.57  11 0.30442-0.28505 0.39552 0.19112 0.45461-0.87320
   2   4  -1    0.15    1.34  11 0.30073-0.15166 0.40556 0.30619 0.44648-0.95611
   2   7   1    6.79    1.98  11 0.30146-0.36731 0.40359 0.75794 0.44808-0.84077
   1   5   0  158.24    6.16  12 0.31004-0.42929 0.37988 0.52530 0.46708-0.86517
  -2  -3  -4  170.32    7.24   3-0.38876 0.24919 0.81391-0.99561-0.79622 0.35938
  -1  -3  -7    1.71    1.92   2-0.37967 0.47389 0.80061-0.83697-0.80977-0.16484
  -1  -3  -6  284.55    8.24   2-0.38571 0.46642 0.80945-0.91482-0.80087 0.00030
  -1  -3  -5   10.12    2.55   2-0.37786 0.44301 0.79793-0.97213-0.81238 0.18513
  -2  -3  -8   40.81    3.85   3-0.39196 0.31065 0.81855-0.72392-0.79125-0.34270
   0  -2  -7    6.85    2.30   3-0.39825 0.62208 0.82763-0.73237-0.78116-0.28604
  -2  -3  -7  115.34    5.62   4-0.40986 0.31345 0.84420-0.81854-0.76132-0.19814
  -2  -3  -5    7.48    2.53   5-0.41351 0.28847 0.84934-0.96234-0.75475 0.14362
  -2  -2  -2 6353.14   56.47   4-0.40806 0.17818 0.84165-0.96798-0.76451 0.59939
   0  -2  -6   77.04    4.73   5-0.41316 0.62336 0.84885-0.82166-0.75538-0.13772
   0  -2  -4   82.56    4.86   4-0.40594 0.58674 0.83864-0.94978-0.76820 0.22385
   1  -1  -3  176.92    7.58   4-0.41185 0.70747 0.84701-0.89515-0.75776 0.29544
  -2  -3  -6  352.44    9.36   5-0.41784 0.30715 0.85541-0.89921-0.74672-0.03848
   0  -2  -5   14.68    2.37   5-0.41726 0.61281 0.85459-0.89652-0.74781 0.02918
  -1  -2  -7   27.79    3.46   7-0.43660 0.47002 0.88109-0.72349-0.70880-0.34261
  -1  -2  -3    2.05    2.09   6-0.43338 0.40918 0.87676-0.99541-0.71570 0.36031
   1  -1  -5   41.22    3.47   6-0.43159 0.75653 0.87434-0.78406-0.71945-0.09081
   1  -1  -4    0.07    1.53   6-0.43187 0.74251 0.87471-0.85533-0.71887 0.09054
   0  -1  -7   39.22    3.86   7-0.44526 0.60751 0.89261-0.60193-0.68930-0.45399
   1   0  -1  853.72   24.30   7-0.44301 0.64811 0.88964-0.88265-0.69450 0.50451
  -1  -2  -6   24.42    2.83   8-0.45270 0.47078 0.90229-0.81435-0.67137-0.20515
  -2  -2  -7   10.90    2.45   9-0.46000 0.30127 0.91158-0.69312-0.65259-0.38272
  -1  -2  -5  304.08    8.60   9-0.46071 0.46500 0.91247-0.89333-0.65069-0.05209
  -1  -2  -4   36.16    3.45   9-0.45784 0.44778 0.90885-0.95858-0.65828 0.12945
  -1  -1  -1  247.32   14.86   9-0.46225 0.34724 0.91439-0.97761-0.64655 0.56378
   0  -1  -6   24.28    3.13  10-0.46653 0.61583 0.91968-0.69962-0.63466-0.33413
   0  -1  -2   11.27    2.97   9-0.45868 0.54928 0.90992-0.96531-0.65607 0.38430
  -2  -2  -3 1476.08   22.57  11-0.47495 0.25932 0.92979-0.98693-0.60973 0.27049
  -1  -1  -7  116.83    5.66  11-0.47455 0.44647 0.92932-0.57793-0.61097-0.51710
   0   0  -7    0.41    2.04  10-0.47452 0.57464 0.92929-0.44736-0.61106-0.60979
  -2  -2  -6  188.93    6.83  11-0.47655 0.30404 0.93167-0.78187-0.60473-0.25683
   0  -1  -5  146.60    6.17  11-0.48153 0.61517 0.93740-0.78590-0.58855-0.20633
  -2  -2  -5  263.97    8.15  12-0.48640 0.29954 0.94283-0.86218-0.57177-0.11560
  -2  -2  -4  196.09    7.47  12-0.48832 0.28699 0.94493-0.93317-0.56484 0.05164
   0  -1  -4  163.50    6.69  12-0.48927 0.60827 0.94595-0.86366-0.56136-0.05927
   0  -1  -3  247.04    8.75  12-0.48698 0.59144 0.94347-0.93016-0.56969 0.12325
   2  -4  -4  194.62    7.41   3-0.17651 0.86535-0.00939-0.60874-0.83009 0.40537
   0  -3  -1 1377.48   20.10   4-0.18611 0.38720 0.00275-0.51363-0.83256 0.88737
   1  -2  -1  105.03    6.09   4-0.18673 0.51703 0.00353-0.38244-0.83271 0.79519
   2  -3  -3  460.98   10.95   4-0.20309 0.81516 0.02434-0.51867-0.83655 0.51070
   2  -2  -2 1138.68   17.76   4-0.19133 0.72716 0.00937-0.38024-0.83383 0.60608
   0  -5  -3   36.76    3.40   5-0.21180 0.56620 0.03547-0.79454-0.83842 0.69725
   0  -4  -2   72.51    5.03   5-0.22526 0.50234 0.05274-0.68709-0.84107 0.79731
   1  -4  -3  100.67    5.49   6-0.23082 0.71414 0.05991-0.68698-0.84207 0.60849
   1  -5  -5   79.17    4.99   6-0.25141 0.82592 0.08657-0.76790-0.84534 0.33828
   1  -3  -2 1977.63   22.23   6-0.23779 0.64456 0.06891-0.57206-0.84326 0.70782
   0   1   0    0.14    1.79   7-0.25931 0.19869 0.09684 0.09751-0.84640 0.76865
  -1  -5  -3  531.83   11.80   9-0.30121 0.46451 0.15195-0.85047-0.85015 0.72482
  -1  -3  -1  106.31    6.63   8-0.29080 0.30101 0.13817-0.58789-0.84951 0.91993
   1  -5  -6    0.17    2.05   8-0.28437 0.87157 0.12969-0.74314-0.84902 0.17495
  -1  -4  -2   83.38    5.49  10-0.32251 0.40896 0.18033-0.75440-0.85079 0.82342
   0  -5  -4    6.18    2.18   9-0.30241 0.67068 0.15354-0.84455-0.85020 0.53513
   1  -4  -4   41.62    3.57   9-0.31135 0.80907 0.16543-0.72285-0.85056 0.44242
   1  -1  -1   89.40    6.58   9-0.31854 0.58643 0.17503-0.36076-0.85074 0.73708
   0  -4  -3    0.16    1.92  11-0.35042 0.64069 0.21793-0.77949-0.85026 0.63803
   0  -2  -1  522.40   14.27  11-0.35153 0.49067 0.21944-0.53749-0.85021 0.82833
   1  -4  -5   74.44    4.48  11-0.36096 0.87306 0.23226-0.72052-0.84964 0.26703
   1  -3  -3   55.29    4.29  11-0.35431 0.77550 0.22322-0.65692-0.85006 0.54011
   0  -3  -2   16.94    3.14  12-0.37577 0.59028 0.25251-0.69471-0.84835 0.72954
   1  -2  -2  469.76   11.61  12-0.37085 0.71527 0.24577-0.55546-0.84883 0.63727
   2   0  -6   50.39    4.04   9-0.14231 0.60949 0.93916-0.64804-0.67545-0.40132
   2   0  -5   44.99    3.67  11-0.18710 0.64027 0.95896-0.73781-0.63309-0.26899
   3   1  -5    5.98    2.14  10-0.18412 0.76611 0.95776-0.60363-0.63601-0.35809
   2   0  -2  457.87   11.83  11-0.19304 0.60328 0.96130-0.94647-0.62722 0.24657
   3   1  -1   32.82    3.49  11-0.19274 0.71821 0.96119-0.88399-0.62751 0.32912
   1   0  -6  123.37    5.80  12-0.22275 0.49915 0.97204-0.62062-0.59688-0.46398
   2   0  -4  287.92    8.34  12-0.21655 0.65478 0.96994-0.81744-0.60335-0.12486
   2   0  -3    1.31    1.59  12-0.22334 0.64888 0.97223-0.88888-0.59627 0.04391
   2   1  -6   41.69    3.68  12-0.22275 0.62848 0.97204-0.48768-0.59688-0.55611
   3   1  -4   17.17    2.38  12-0.22246 0.79116 0.97194-0.68735-0.59719-0.22271
  -2   3   1  822.26   14.14   2 0.06175-0.64458 0.35609 0.27833 0.63491-0.65944
  -2   2   1  258.35    8.83   4 0.10771-0.62878 0.29660 0.14480 0.66545-0.61322
  -2   4   2  273.41    8.16   3 0.09711-0.75603 0.31050 0.44879 0.65864-0.58570
  -1   4   1   11.51    2.72   3 0.10358-0.55765 0.30203 0.46289 0.66281-0.77822
   0   5   1   37.29    3.27   3 0.09622-0.41990 0.31166 0.58609 0.65807-0.86667
   1   0   0   26.13    5.58   3 0.09592 0.09447 0.31205-0.37291 0.65787-0.67375
  -2   1   1  396.27   12.56   5 0.12622-0.58524 0.27208-0.02380 0.67697-0.54785
   0   3   0  178.71    7.28   4 0.11278-0.29900 0.28992 0.29008 0.66864-0.89793
  -2   3   2  488.64   11.22   6 0.16868-0.76570 0.21457 0.35124 0.70168-0.55202
   1   3   0 1398.02   21.01   7 0.17663-0.17194 0.20360 0.31509 0.70604-0.95182
   1   6   2   70.73    4.64   7 0.17657-0.38481 0.20369 0.75765 0.70601-0.83321
  -1   3   1  200.44    7.29   7 0.18457-0.57618 0.19257 0.38012 0.71031-0.75004
   0   2   0   -0.10    2.36   7 0.18400-0.30355 0.19338 0.18782 0.71000-0.86311
   0   4   1  126.82    5.99   7 0.19659-0.45858 0.17578 0.52854 0.71658-0.84829
  -1   4   2  703.29   12.99   8 0.21829-0.68535 0.14506 0.55194 0.72740-0.66936
   0   5   2    0.19    2.04   9 0.21874-0.55372 0.14441 0.67724 0.72762-0.76426
  -2   2   2  895.86   16.54   9 0.23413-0.76935 0.12231 0.25055 0.73486-0.50861
  -1   2   1   82.97    5.77  11 0.26695-0.59657 0.07428 0.30526 0.74910-0.71244
   1   4   1  418.88   10.80  11 0.27824-0.34914 0.05747 0.58519 0.75360-0.90089
   0   3   1  838.09   16.16  12 0.30424-0.50465 0.01817 0.49301 0.76317-0.81839
   1   2   0    5.83    2.56  12 0.29401-0.22778 0.03373 0.29196 0.75954-0.92777
   1   5   2  601.47   12.24  12 0.29859-0.44517 0.02677 0.74049 0.76119-0.81118
   4   1   2   36.97    3.73   3 0.72287-0.04821-0.41891 0.22976-0.56159 0.77073
   5   1   2    0.88    1.77   2 0.73043 0.12660-0.41843 0.17116-0.55694 0.75189
   3   0   2  170.68    7.05   3 0.71021-0.16548-0.41959 0.09818-0.56910 0.87071
   3   2   1  115.92    6.29   3 0.71388-0.27783-0.41941 0.55268-0.56696 0.54188
   4   0   2  776.03   14.04   4 0.69640 0.04059-0.42015 0.03711-0.57693 0.86285
   5   0   2   92.78    5.04   3 0.71843 0.20962-0.41917-0.02498-0.56426 0.83402
   6   2   1   74.27    4.63   3 0.71752 0.29253-0.41922 0.36942-0.56480 0.49102
   1   0   1 3771.89   47.87   4 0.69001-0.51280-0.42037 0.29045-0.58043 0.73897
   2   2   0 1610.45   25.65   4 0.68749-0.42859-0.42044 0.68406-0.58180 0.39802
   4   2   1   40.75    3.86   4 0.67356-0.04693-0.42074 0.49295-0.58910 0.54792
   5   2   1    3.14    2.15   4 0.68241 0.13457-0.42056 0.43133-0.58450 0.52829
   6   1   1   11.66    2.90   4 0.67543 0.39574-0.42071 0.17761-0.58815 0.59157
   2   1   1 3248.10   34.84   5 0.65425-0.34765-0.42091 0.42254-0.59870 0.66534
   6   0   1  197.51    7.26   5 0.66309 0.47075-0.42087-0.01524-0.59438 0.67401
   6   2   0    8.07    2.42   5 0.65655 0.36676-0.42090 0.44000-0.59759 0.35015
   5   1   1   96.66    5.08   7 0.62036 0.25984-0.42054 0.23835-0.61410 0.63360
   5   0   1   33.14    3.71   7 0.59339 0.34887-0.41970 0.04434-0.62517 0.72070
   5   2   0  354.60    9.44   7 0.60245 0.23026-0.42003 0.50059-0.62156 0.38971
   6   1   0  329.06    9.19   7 0.59897 0.48706-0.41991 0.24630-0.62296 0.45131
   3   1   1  122.90    6.36   8 0.57927-0.08151-0.41908 0.35946-0.63058 0.68148
   3   2   0   79.16    5.42   8 0.57571-0.12554-0.41890 0.62142-0.63190 0.43224
   4   1   1   28.78    3.17   8 0.58246 0.10697-0.41923 0.29788-0.62938 0.66471
   4   2   0   20.27    3.04   8 0.56749 0.07359-0.41847 0.55980-0.63489 0.41911
   6  -1   0   26.50    3.36   8 0.58140 0.62893-0.41918-0.14119-0.62978 0.61110
   6   0   0  237.75    7.92   8 0.57429 0.57387-0.41883 0.05195-0.63243 0.53779
   1  -1   1 3798.25   42.66   9 0.55198-0.31282-0.41755 0.09479-0.64031 0.87510
   1   1   0 1520.58   40.46   9 0.55379-0.42410-0.41766 0.54947-0.63970 0.54788
   4  -1   1  105.15    5.45  10 0.53414 0.27870-0.41632-0.09068-0.64619 0.83423
   4   0   1  146.39    6.42  10 0.53511 0.21617-0.41639 0.10222-0.64588 0.75721
   6   1  -1    2.92    2.49   9 0.53882 0.55996-0.41666 0.31102-0.64468 0.30011
   2   0   1  153.17    7.81  10 0.51365-0.14515-0.41471 0.22327-0.65249 0.79524
   5   1   0  139.92    5.90  10 0.51999 0.37467-0.41523 0.30263-0.65059 0.49522
   6   0  -1  191.99    7.20  11 0.50228 0.66027-0.41372 0.11598-0.65578 0.38630
   3  -1   1   29.45    3.53  11 0.47786 0.14343-0.41139-0.03429-0.66240 0.86520
   3   0   1   17.35    3.13  11 0.49863 0.06065-0.41339 0.16122-0.65682 0.78378
   5  -1   0   70.36    4.61  11 0.47585 0.54276-0.41118-0.08858-0.66292 0.66006
   5   0   0   54.56    4.01  11 0.47772 0.47854-0.41137 0.10523-0.66244 0.58339
   6  -1  -1   26.38    3.10  11 0.49901 0.72569-0.41343-0.07794-0.65671 0.46385
   2  -1   1 1673.11   23.02  12 0.45925-0.02864-0.40942 0.02510-0.66703 0.88608
   6   0  -2   75.33    4.71  12 0.45188 0.72431-0.40859 0.17992-0.66877 0.22372
   0   0  -5  584.83   11.79   2 0.13392-0.06410 0.89539-0.55033-0.43529-0.43559
   1   0  -5   79.38    4.51   2 0.13660 0.12466 0.89430-0.61115-0.44239-0.44428
   1   1  -6   26.91    3.12   2 0.13899 0.07445 0.89326-0.34831-0.44872-0.68871
   2   1  -5   49.33    3.99   4 0.11036 0.28054 0.90228-0.48728-0.37264-0.60602
   0   0  -4  245.28    7.91   5 0.10140-0.04567 0.90367-0.62779-0.34869-0.34816
   0   1  -5 1160.67   16.82   6 0.09543-0.08739 0.90423-0.36634-0.33270-0.61442
   1   0  -4  266.69    8.17   5 0.10607 0.14096 0.90303-0.68845-0.36119-0.35147
   1   1  -5 1105.59   16.33   6 0.09635 0.10319 0.90416-0.42768-0.33516-0.62834
   2   0  -1  385.11   12.56   6 0.09545 0.30068 0.90423-0.95836-0.33276 0.12608
   3   2  -5   -0.38    1.54   5 0.10520 0.41497 0.90316-0.36161-0.35885-0.70877
  -1   0  -3  231.82    8.58   6 0.08816-0.23745 0.90452-0.63620-0.31321-0.19377
   1   0  -3  626.68   13.25   7 0.07718 0.15557 0.90418-0.75839-0.28367-0.25493
   2   2  -5   90.16    4.95   7 0.08224 0.24695 0.90446-0.29640-0.29728-0.75763
  -1   0  -2   75.22    6.24   8 0.06241-0.22563 0.90226-0.70244-0.24379-0.08890
   0   0  -3 6353.92   42.96   8 0.06882-0.02721 0.90330-0.69605-0.26112-0.26160
   1   2  -5   15.51    2.47   8 0.07092 0.06687 0.90357-0.23299-0.26677-0.77314
   2   1  -4  157.69    6.16   8 0.07032 0.30621 0.90350-0.55759-0.26516-0.53952
   2   3  -5   14.57    2.49   8 0.06852 0.19864 0.90326-0.10181-0.26031-0.87151
   3   1  -3  107.30    5.34   8 0.06792 0.48580 0.90317-0.68725-0.25869-0.38756
   3   2  -4   75.40    4.70   9 0.06095 0.44567 0.90198-0.42462-0.23985-0.65694
   1   0  -2 2539.38   30.81   9 0.05136 0.16729 0.89975-0.82269-0.21392-0.15080
   1   1  -4  564.62   11.69   9 0.05095 0.13420 0.89964-0.49188-0.21281-0.57601
   0   0  -2  885.09   19.14  11 0.03688-0.00939 0.89509-0.75657-0.17462-0.17466
   0   1  -4   59.16    4.24  10 0.04728-0.05314 0.89859-0.43033-0.20285-0.56983
   3   3  -4  114.88    5.63  11 0.03675 0.40855 0.89504-0.22411-0.17426-0.79878
   2   1  -3  447.43   10.69  11 0.02769 0.33455 0.89135-0.61403-0.14960-0.48091
   2   2  -4    0.02    1.35  11 0.03271 0.28182 0.89347-0.36153-0.16327-0.71216
   1   2  -4  698.22   12.86  12 0.01701 0.10640 0.88623-0.28593-0.12050-0.74466
   2   3   1   76.56    5.17   2 0.92808-0.74637-0.45920 0.84774 0.29538-0.38096
   4   5   4   95.36    5.22   2 0.92851-0.53007-0.47564 0.92107 0.29348-0.04171
   4   5   5    3.12    1.74   2 0.92835-0.54585-0.46772 0.84371 0.29441 0.13283
   3   4   2   63.46    4.24   3 0.92859-0.63162-0.48565 0.93699 0.29225-0.29612
   3   4   5   71.79    4.79   3 0.92827-0.67345-0.50676 0.75115 0.28947 0.22866
   1   2   2 3239.32   36.73   4 0.92701-0.88828-0.53183 0.71926 0.28584-0.10569
   1   2   3    2.85    2.67   5 0.92656-0.90230-0.53784 0.65702 0.28491 0.06863
   3   4   3    2.49    1.74   4 0.92728-0.64538-0.52789 0.90989 0.28643-0.11590
   3   4   4 1170.25   16.97   4 0.92687-0.65795-0.53385 0.84718 0.28553 0.05861
   5   5   3    1.01    1.44   4 0.92712-0.32360-0.53025 0.98307 0.28608-0.22373
   2   3   2 1593.09   21.32   5 0.92636-0.75839-0.54031 0.85983 0.28452-0.19617
   2   3   4  209.55    7.83   5 0.92537-0.78589-0.55093 0.73287 0.28281 0.15328
   5   5   4    0.02    1.90   5 0.92541-0.34270-0.55060 0.93618 0.28286-0.04953
   5   5   5  194.74    7.22   5 0.92598-0.35089-0.54464 0.86037 0.28383 0.12608
   2   3   3    0.97    1.89   6 0.92351-0.76989-0.56699 0.81777 0.28008-0.01790
   6   5   3    2.21    1.78   6 0.92342-0.12738-0.56764 0.95887 0.27997-0.23355
   6   5   4    0.40    2.21   7 0.92044-0.13983-0.58757 0.91030 0.27633-0.05538
   6   5   5  262.12    8.62   6 0.92117-0.15458-0.58315 0.83797 0.27716 0.11651
   4   4   2  315.08    8.78   7 0.91828-0.43003-0.59958 0.98973 0.27399-0.29413
   4   4   5   56.13    4.34   8 0.91512-0.46968-0.61482 0.79871 0.27087 0.23124
   4   4   3   10.21    2.73   8 0.91052-0.43612-0.63369 0.95474 0.26675-0.11198
   4   4   4 1252.14   17.36   9 0.90958-0.44957-0.63720 0.89007 0.26595 0.06211
   3   3   1  147.83    6.49   9 0.90754-0.53414-0.64444 0.97133 0.26427-0.36580
   5   4   2   14.43    2.68   9 0.90336-0.22287-0.65811 0.98670 0.26096-0.29718
   5   4   5  136.56    6.05  10 0.89872-0.26156-0.67175 0.79453 0.25748 0.22868
   3   3   2   49.02    3.94  11 0.88756-0.52845-0.69983 0.95773 0.24969-0.17737
   3   3   4   16.43    2.63  11 0.88708-0.55634-0.70092 0.82108 0.24938 0.17122
   5   4   3   79.08    4.68  11 0.89286-0.22713-0.68721 0.94709 0.25330-0.11557
   5   4   4  100.58    5.07  11 0.89151-0.24042-0.69053 0.88203 0.25237 0.05944
   6   4   3    5.30    2.34  11 0.88544-0.02845-0.70459 0.90336 0.24829-0.12550
   6   4   5   44.94    3.77  11 0.89014-0.06129-0.69383 0.75490 0.25143 0.21872
   3   3   3  376.55   10.04  12 0.88037-0.53530-0.71535 0.90467 0.24501 0.00115
   6   4   4   90.87    5.11  12 0.88341-0.04076-0.70898 0.83969 0.24697 0.04838
   2   3  -2   10.78    2.42   3 0.66933-0.44499 0.24910 0.34575 0.22527-0.83440
   4   6  -1    0.64    1.70   2 0.66205-0.25506 0.27247 0.71101 0.20585-0.90147
   3   7   1    9.39    2.23   3 0.67356-0.54915 0.23471 0.86619 0.23708-0.64478
   1   5   1    8.23    1.89   4 0.68235-0.81590 0.20253 0.63373 0.26310-0.48670
   2   6   1    5.30    2.05   4 0.68478-0.68933 0.19301 0.77495 0.27070-0.58555
   3   5  -1  348.12    9.29   4 0.68184-0.40427 0.20452 0.64674 0.26151-0.86445
   3   6   0   39.50    3.45   4 0.68308-0.48198 0.19974 0.77595 0.26534-0.77069
   1   4   0  382.85    9.71   5 0.68822-0.74620 0.17893 0.53343 0.28185-0.60243
   2   2  -2   85.08    4.99   5 0.69176-0.40633 0.16366 0.23871 0.29384-0.82606
   2   5   0   21.92    2.61   5 0.69194-0.62065 0.16286 0.68162 0.29446-0.70768
   4   5  -1   35.13    3.34   6 0.69647-0.22808 0.14189 0.64799 0.31072-0.93049
   4   6   0    7.58    2.34   6 0.69986-0.30711 0.12492 0.78887 0.32372-0.84510
   4   7   1    0.64    1.52   6 0.69477-0.37846 0.14996 0.88937 0.30449-0.72829
   1   2  -1  892.48   16.55   7 0.70430-0.62415 0.10056 0.29458 0.34214-0.68432
   3   4  -1    4.79    1.59   8 0.70911-0.37031 0.07045 0.58748 0.36451-0.89108
   3   6   1    0.70    1.60   8 0.70935-0.52207 0.06882 0.83787 0.36571-0.69695
   5   6   0    0.56    1.43   8 0.70686-0.12284 0.08511 0.76855 0.35367-0.89120
   2   3  -1  393.59   10.02   9 0.71277-0.50350 0.04354 0.48330 0.38414-0.81850
   2   5   1  537.49   11.46  10 0.71519-0.65813 0.02278 0.75252 0.39904-0.63782
   3   5   0    5.49    1.64   9 0.71241-0.44846 0.04640 0.73654 0.38207-0.81113
   4   7   2   15.22    2.49   9 0.71386-0.41231 0.03456 0.93584 0.39061-0.64019
   2   4   0  112.29    5.32  10 0.71709-0.58341 0.00392 0.64697 0.41241-0.74915
   0   2   1  305.33   11.84  11 0.72010-0.85857-0.03530 0.35309 0.43966-0.41762
   4   5   0   23.85    2.60  11 0.71971-0.26609-0.02918 0.75031 0.43546-0.87988
   4   6   1   24.26    2.91  11 0.71878-0.34094-0.01611 0.86202 0.42641-0.77392
   3   6   2    2.24    1.47  12 0.72112-0.54918-0.05449 0.89204 0.45274-0.60983
   5   6   1    9.83    2.13  12 0.72149-0.15191-0.06347 0.84827 0.45879-0.82189
   4  -2   1    1.69    1.71   2 0.45683 0.41829-0.59604-0.10531-0.49691 0.76167
   5  -2   0   93.56    5.48   2 0.44312 0.63825-0.58725-0.10391-0.50768 0.58021
   4  -4   0  341.53    9.67   3 0.43439 0.58075-0.58160-0.43546-0.51439 0.75667
   3  -2   1   21.15    3.45   4 0.39212 0.29197-0.55370-0.08578-0.54539 0.82520
   5  -3  -1   24.74    3.19   4 0.39354 0.76493-0.55466-0.26087-0.54439 0.51891
   2  -3   1  615.15   12.52   5 0.37702 0.17849-0.54353-0.22720-0.55587 0.92795
   4  -3   0  185.59    6.93   5 0.37702 0.57558-0.54353-0.27967-0.55587 0.72129
   2  -2   1 1230.66   17.68   6 0.34314 0.14957-0.52033-0.05687-0.57833 0.87354
   4  -4  -1   74.13    4.93   7 0.33324 0.69598-0.51345-0.43412-0.58463 0.65102
   4  -2   0  228.36    7.44   6 0.34208 0.54811-0.51960-0.11086-0.57901 0.66791
   4  -1   0   21.56    2.81   6 0.33820 0.48915-0.51690 0.07899-0.58149 0.59436
   1  -2   1  698.98   14.84   7 0.32543-0.02387-0.50800-0.00799-0.58951 0.90059
   3  -3   0   51.24    3.82   8 0.28342 0.47747-0.47822-0.28424-0.61455 0.79629
   3   0   0 4005.01   35.05   8 0.28704 0.28676-0.48082 0.29753-0.61247 0.56485
   4  -3  -1   22.69    3.43   9 0.27230 0.69375-0.47022-0.28427-0.62084 0.61189
   4  -4  -2   11.87    3.37  10 0.24558 0.79758-0.45080-0.42798-0.63539 0.52868
   3  -4  -1  227.23    7.66  10 0.22293 0.61473-0.43413-0.45266-0.64711 0.73082
   3  -2   0  377.30    9.51  10 0.24029 0.45837-0.44693-0.12261-0.63817 0.74318
   3  -1   0  478.08   11.16  10 0.23292 0.40330-0.44151 0.06501-0.64201 0.67075
   4  -2  -1   15.22    2.55  10 0.23403 0.67009-0.44232-0.11967-0.64143 0.55615
   2  -3   0   46.38    3.80  11 0.19317 0.37668-0.41192-0.28961-0.66171 0.85915
   2   0   0   78.03    6.37  11 0.19128 0.19127-0.41050 0.28798-0.66261 0.63112
   3  -5  -2    1.13    2.01  11 0.20585 0.70700-0.42142-0.59188-0.65560 0.64269
   4  -3  -2  102.63    5.68  12 0.18203 0.79878-0.40352-0.28141-0.66694 0.48248
   4  -4  -3   90.23    5.29  12 0.17445 0.88329-0.39779-0.41110-0.67043 0.38831
  -3   2  -5   20.30    2.74   2-0.38804-0.23732 0.98008-0.06378-0.20755-0.77090
  -2   2  -5   87.16    5.16   3-0.37996-0.05391 0.97498-0.12049-0.18215-0.81165
  -1   2  -5   12.29    2.49   2-0.38227 0.13891 0.97650-0.18360-0.18933-0.81922
  -3   0  -3    9.78    2.14   4-0.36292-0.16793 0.96235-0.57171-0.13112-0.34451
  -2   0  -3  917.13   15.41   5-0.35566 0.01564 0.95630-0.62673-0.11030-0.38138
  -2   1  -4   71.56    4.31   5-0.35265-0.03472 0.95368-0.36216-0.10179-0.64049
  -1   1  -4  179.17    6.65   5-0.35756 0.16164 0.95792-0.42749-0.11571-0.64231
   0   0  -1    6.56    3.50   6-0.34775 0.36156 0.94931-0.88017-0.08817-0.08685
  -3   0  -2  123.16    6.27   7-0.33388-0.21163 0.93613-0.61365-0.05060-0.25175
  -2   2  -4  486.37   10.74   7-0.33330-0.11515 0.93555-0.15075-0.04905-0.77022
  -2   3  -4   44.32    3.73   7-0.32976-0.17998 0.93201 0.04613-0.03971-0.85685
  -1   2  -4   42.03    3.47   7-0.33153 0.07420 0.93379-0.21043-0.04438-0.78995
   0   1  -3  210.63    8.01   7-0.32604 0.30659 0.92821-0.52831-0.03000-0.56884
  -3   1  -3    1.39    1.41   8-0.32075-0.27256 0.92270-0.33717-0.01636-0.53704
  -2   0  -2  151.50    7.10   8-0.31662-0.03780 0.91831-0.65736-0.00585-0.31179
  -1   3  -4    7.59    2.15   8-0.32317 0.00404 0.92525-0.00895-0.02259-0.88833
   1   1  -2 5921.55   46.69   8-0.31536 0.47262 0.91695-0.64721-0.00266-0.43790
  -2   1  -3  436.15   10.26   9-0.30304-0.09875 0.90330-0.38012 0.02802-0.59635
  -1   1  -3 1348.72   18.47   9-0.30260 0.09223 0.90280-0.44147 0.02908-0.61253
  -3   1  -2  407.55   10.62  12-0.27323-0.33400 0.86770-0.35210 0.09869-0.47736
  -2   2  -3   12.96    2.22  11-0.27676-0.18657 0.87209-0.15559 0.09056-0.73560
  -2   4  -3    0.70    1.67  11-0.28259-0.30597 0.87925 0.22407 0.07699-0.87479
   0   0   1    7.25    2.88  11-0.27810 0.26363 0.87374-0.94244 0.08746 0.08602
   0   2  -3  498.50   11.46  11-0.27776 0.19708 0.87333-0.28042 0.08824-0.76387
  -2   0  -1  118.20    7.41  12-0.26763-0.10102 0.86065-0.66841 0.11146-0.25505
  -2   3  -3   22.43    2.80  12-0.27187-0.25294 0.86600 0.04322 0.10180-0.82340
  -1   0  -1 2885.53   39.52  12-0.26609 0.08868 0.85869-0.72809 0.11494-0.27395
  -1   2  -3   22.82    2.71  12-0.26746-0.00407 0.86043-0.20668 0.11185-0.77172
  -1   4  -3   76.25    4.68  12-0.26541-0.12902 0.85782 0.18312 0.11648-0.93017
  -1  -4  -4  524.54   11.37   2-0.40519 0.51971 0.51805-0.95451-0.87814 0.50237
   0  -4  -7   27.11    3.34   2-0.40519 0.75534 0.51805-0.80811-0.87814-0.03632
   1  -2  -3 1624.74   21.19   2-0.40475 0.76312 0.51738-0.75875-0.87837 0.49259
   0  -2  -2 1012.37   19.84   4-0.43450 0.58726 0.56325-0.81232-0.86080 0.66492
   0  -3  -4   34.85    3.85   5-0.45032 0.69395 0.58781-0.89201-0.84969 0.38159
  -1  -4  -8    5.23    2.22   5-0.46120 0.63319 0.60477-0.76449-0.84125-0.23177
  -1  -4  -5    2.23    1.78   5-0.45181 0.58144 0.59013-0.95705-0.84857 0.29982
   1  -2  -4  953.67   15.86   5-0.46139 0.83422 0.60508-0.77702-0.84109 0.28080
   1  -1  -2 1068.99   20.27   5-0.46060 0.74252 0.60384-0.72105-0.84173 0.55399
  -2  -4  -4 1051.87   16.65   6-0.46826 0.39144 0.61581-0.99068-0.83541 0.47479
  -1  -4  -7  194.35    7.10   6-0.47348 0.63168 0.62400-0.85230-0.83089-0.06845
  -1  -3  -3 1307.17   19.08   6-0.47635 0.51427 0.62851-0.94054-0.82833 0.55032
   0  -3  -7   14.32    3.04   7-0.48262 0.77048 0.63838-0.73502-0.82255-0.16868
   0  -3  -5  130.68    6.07   7-0.48162 0.73992 0.63679-0.87181-0.82349 0.18101
   0  -1  -1  225.44   13.15   7-0.48107 0.55733 0.63592-0.76077-0.82401 0.72617
   0  -3  -6  131.47    5.82   7-0.49021 0.76300 0.65035-0.81592-0.81518-0.00180
  -2  -4  -8    1.32    2.34   9-0.50933 0.48776 0.68068-0.77803-0.79471-0.26098
  -2  -4  -5    3.39    2.52   9-0.50895 0.44571 0.68009-0.98454-0.79514 0.26177
  -1  -3  -8  205.30    7.75   9-0.52203 0.63242 0.70101-0.66516-0.77937-0.37073
  -1  -3  -4  140.03    6.10  10-0.53015 0.58237 0.71408-0.95688-0.76875 0.31604
   0  -2  -3  719.31   14.47  10-0.52575 0.69284 0.70699-0.88696-0.77459 0.40434
  -2  -3  -3    2.28    2.08  11-0.54533 0.39102 0.73871-0.98924-0.74689 0.48498
  -1  -2  -2 3914.97   38.91  12-0.55293 0.51454 0.75113-0.93869-0.73486 0.55467
   2  -1  -1  119.99    6.24   2 0.12795 0.33076 0.50564-0.75445-0.98660 0.85713
   3  -2  -3   92.15    4.90   2 0.12548 0.61473 0.50723-0.87202-0.98658 0.56904
   4  -2  -5   13.33    2.56   2 0.12877 0.83136 0.50511-0.79257-0.98661 0.20493
   5   0  -3    2.83    1.93   2 0.12466 0.87488 0.50776-0.60925-0.98657 0.38459
   4  -1  -3    0.71    1.56   3 0.09746 0.77271 0.52505-0.75744-0.98589 0.47712
   3  -1  -2  115.06    5.68   4 0.05726 0.60683 0.54972-0.79048-0.98340 0.66394
   3   1   0  217.42    8.63   4 0.07597 0.43629 0.53837-0.53124-0.98478 0.86112
   5   0  -4   10.59    2.39   4 0.07142 0.94179 0.54115-0.57225-0.98447 0.20919
   3  -2  -4  139.46    5.88   5 0.02791 0.72683 0.56707-0.86336-0.98046 0.38945
   3   0  -1  390.48   10.28   5 0.02999 0.55806 0.56586-0.68279-0.98070 0.75928
   4  -1  -4    2.99    2.44   5 0.02459 0.85920 0.56899-0.73243-0.98007 0.29745
   4   0  -2    3.91    1.71   5 0.04284 0.75154 0.55831-0.66532-0.98207 0.57008
   4   1  -1    1.45    1.57   5 0.02999 0.68734 0.56586-0.54942-0.98070 0.66738
   4  -1  -5  154.71    6.50   6-0.01261 0.91054 0.59010-0.68386-0.97489 0.11697
   2  -2  -3    7.48    2.46   7-0.02437 0.57404 0.59659-0.89948-0.97294 0.57180
   3  -2  -6   63.24    4.56   8-0.05173 0.83455 0.61134-0.76824-0.96782 0.02756
   3  -2  -5   32.23    3.44   7-0.03017 0.79875 0.59976-0.82628-0.97192 0.20637
   3  -1  -3   68.71    4.46   8-0.07450 0.75281 0.62323-0.79479-0.96294 0.46949
   4   0  -3   25.37    2.84   8-0.05670 0.86473 0.61395-0.65296-0.96680 0.38107
  -1   0   0   24.69    4.47   9-0.09558-0.09541 0.63396-0.57291-0.95792 0.97344
   4   0  -4   22.96    3.16   9-0.11178 0.93394 0.64199-0.61224-0.95373 0.19355
   4   1  -2  135.14    6.13   9-0.10936 0.84079 0.64080-0.55588-0.95438 0.46651
   2  -2  -4  514.81   11.05  10-0.13759 0.70085 0.65443-0.88922-0.94647 0.37142
   2  -1  -2   71.70    4.78  10-0.12032 0.59300 0.64615-0.82550-0.95141 0.64769
   3   0  -2   28.28    3.43  11-0.15062 0.75310 0.66055-0.70809-0.94252 0.54694
   4   0  -5    3.04    1.83  10-0.13020 0.96664 0.65091-0.55207-0.94863 0.01467
   2   1   0  646.45   17.58  11-0.15686 0.47763 0.66344-0.59463-0.94056 0.83265
   3  -1  -4    1.75    1.53  11-0.15235 0.84539 0.66136-0.76331-0.94197 0.27371
   2  -2  -5   90.81    4.88  12-0.19641 0.77420 0.68115-0.84651-0.92711 0.17756
   3  -1  -6   40.49    3.59  12-0.18665 0.90833 0.67688-0.64127-0.93060-0.08511
   3  -1  -5   78.47    4.57  12-0.18665 0.89377 0.67688-0.70996-0.93060 0.08874
   4   1  -3   77.79    4.53  12-0.18828 0.93410 0.67760-0.52314-0.93002 0.26787
   4   3   5  103.85    5.23   2 0.88847-0.38073-0.71249 0.70372 0.20387 0.37410
   0   0   2 1170.89   30.93   4 0.87299-0.90109-0.74124 0.60451 0.17452 0.17323
   2   2   1    0.92    2.14   3 0.87740-0.63320-0.73402 0.92901 0.18227-0.19223
   2   2   3 1992.66   23.92   4 0.87434-0.65841-0.73909 0.79681 0.17686 0.16134
   3   2   5   22.38    3.40   3 0.87546-0.49657-0.73726 0.59544 0.17882 0.49158
   5   3   5   45.36    4.22   4 0.87365-0.17404-0.74020 0.66930 0.17565 0.38704
   1   1   3  191.79    8.67   4 0.87216-0.78551-0.74252 0.66859 0.17312 0.25665
   2   2   2 9999.99   57.76   4 0.86563-0.63554-0.75203 0.87814 0.16238 0.00163
   4   3   2 1365.77   18.77   5 0.86349-0.31272-0.75493 0.95239 0.15900-0.10340
   4   3   4  612.85   12.06   4 0.87239-0.35022-0.74216 0.80172 0.17352 0.23014
   6   3   5   24.53    3.11   4 0.86929 0.02205-0.74684 0.61506 0.16831 0.37754
   4   3   3  968.81   15.60   5 0.86209-0.32567-0.75676 0.88497 0.15683 0.07289
   5   3   4   28.73    3.48   5 0.85514-0.14122-0.76532 0.76331 0.14637 0.24150
   1   1   2  398.37   13.50   7 0.84063-0.73955-0.78060 0.77520 0.12618 0.12980
   3   2   4  383.82   10.09   7 0.84230-0.44927-0.77899 0.70648 0.12841 0.36753
   4   2   5   -1.36    1.64   6 0.84625-0.28372-0.77504 0.57640 0.13377 0.51758
   5   3   3  173.13    6.77   6 0.84349-0.11574-0.77783 0.84490 0.13001 0.08346
   6   3   4   18.80    2.90   6 0.85209 0.05301-0.76878 0.70599 0.14198 0.22955
   1   1   1  295.94   13.50   8 0.82790-0.71262-0.79182 0.85518 0.10983-0.02773
   5   2   5  251.03    8.12   7 0.83216-0.07032-0.78826 0.52463 0.11518 0.52303
   6   2   5    1.60    1.93   7 0.83411 0.11849-0.78657 0.46000 0.11767 0.50705
   2   1   4  654.82   13.87   8 0.82497-0.56131-0.79415 0.59033 0.10623 0.48180
   3   2   3  139.03    6.25   9 0.81047-0.40342-0.80460 0.80108 0.08906 0.23275
   4   2   4    1.21    1.74   9 0.80733-0.22315-0.80664 0.67194 0.08548 0.39620
   6   2   4   55.68    4.48   9 0.80142 0.16583-0.81028 0.55433 0.07887 0.36847
   3   2   2 1096.14   17.50  10 0.78878-0.36730-0.81731 0.88227 0.06522 0.08276
   5   1   5    0.26    1.97  10 0.79315 0.02398-0.81499 0.36190 0.06987 0.64485
   5   2   4    7.67    2.08  10 0.79472-0.01972-0.81413 0.62005 0.07156 0.39182
   4   2   3 1239.91   17.20  11 0.77184-0.17339-0.82529 0.76038 0.04781 0.25799
   6   2   3    1.82    2.05  11 0.77564 0.20542-0.82363 0.63499 0.05164 0.22447
   2   1   3   15.84    3.02  12 0.75925-0.48150-0.83030 0.69411 0.03546 0.37949
   3   1   4  551.18   11.93  12 0.76299-0.30808-0.82889 0.56381 0.03908 0.53316
   5   2   3  740.66   13.26  12 0.76277 0.02723-0.82897 0.70311 0.03886 0.25058
   6   1   4   55.14    4.14  12 0.75659 0.27329-0.83127 0.38271 0.03290 0.49088
   1   3   2   16.18    2.87   2 0.93019-0.95388-0.20691 0.58773 0.19655-0.09216
   3   5   2  509.76   11.20   3 0.93658-0.70185-0.25434 0.89912 0.21109-0.29115
   4   6   3    2.65    1.90   3 0.93493-0.58482-0.24042 0.94797 0.20686-0.20548
   4   6   4   12.60    2.61   3 0.93770-0.60094-0.26491 0.90342 0.21429-0.03908
   2   4   2    7.26    2.34   4 0.93890-0.83276-0.27742 0.79082 0.21806-0.20674
   3   4   0   27.39    2.94   4 0.93926-0.61412-0.28160 0.87069 0.21931-0.57167
   3   5   3    8.39    2.47   5 0.94074-0.71942-0.30131 0.87779 0.22518-0.13256
   5   6   2   26.26    2.95   4 0.93933-0.38351-0.28244 0.99728 0.21956-0.40753
   2   3   0  464.19   11.36   5 0.94211-0.74618-0.32803 0.78564 0.23305-0.49258
   2   4   3  718.88   14.17   5 0.94142-0.84977-0.31277 0.75671 0.22857-0.04239
   4   5   1   21.47    2.53   5 0.94126-0.50083-0.30987 0.96213 0.22772-0.49847
   6   6   2   10.82    2.65   6 0.94241-0.19642-0.33706 0.99142 0.23568-0.44096
   5   6   3   24.37    2.93   6 0.94249-0.40163-0.34033 0.98688 0.23664-0.25079
   5   6   4    2.30    2.15   7 0.94274-0.41517-0.37085 0.94840 0.24542-0.08656
   3   4   1  270.25    8.25   8 0.94203-0.63130-0.39971 0.92074 0.25360-0.43150
   4   5   2  228.47    7.51   7 0.94225-0.51573-0.39402 0.97693 0.25200-0.34795
   5   5   1    0.54    2.12   8 0.94209-0.31010-0.39834 0.98641 0.25321-0.53803
   6   6   3  202.21    7.48   7 0.94210-0.20925-0.39809 0.98291 0.25314-0.28345
   2   2  -1 1104.63   19.47   8 0.94026-0.66875-0.42997 0.76313 0.26201-0.61905
   4   4   0   68.39    4.31   8 0.94148-0.42538-0.41130 0.93956 0.25684-0.62504
   6   6   4    1.12    2.26   8 0.94023-0.22178-0.43039 0.94695 0.26213-0.11779
   1   2   1    5.14    2.48   9 0.93929-0.88605-0.44161 0.69879 0.26522-0.25926
   4   5   3   39.28    3.37   9 0.93889-0.52655-0.44590 0.96014 0.26639-0.18794
   6   5   1   25.17    3.03   9 0.93974-0.11661-0.43653 0.96636 0.26383-0.56636
   5   5   2    7.29    1.85  10 0.93513-0.31632-0.47832 0.99993 0.27512-0.38739
   4   4   1   84.54    4.74  12 0.92719-0.42497-0.52545 0.98464 0.28746-0.48130
   6   5   2   63.14    4.49  11 0.92872-0.11928-0.51763 0.97839 0.28545-0.41410
   3   3   0   95.65    5.32  12 0.92683-0.53952-0.52720 0.92332 0.28789-0.56334
   3   1   3  562.84   12.31   2 0.83905-0.37007-0.60774 0.41091-0.27532 0.67425
   7   2   2    0.87    2.29   3 0.82893 0.35781-0.61110 0.43010-0.28404 0.37024
   2   1   2 1271.78   20.61   3 0.81705-0.52488-0.61466 0.54775-0.29385 0.53429
   6   1   3    4.60    2.82   4 0.80993 0.23328-0.61661 0.23451-0.29953 0.65210
   4   1   3  237.72    7.77   4 0.79685-0.13659-0.61987 0.36173-0.30958 0.69274
   4   2   2  818.98   14.32   4 0.79319-0.18031-0.62071 0.62432-0.31231 0.44467
   5   1   3    2.44    2.39   4 0.79062 0.06088-0.62128 0.30069-0.31421 0.68182
   6   2   2   41.91    3.75   4 0.79634 0.19888-0.61999 0.50208-0.30997 0.41025
   5   2   2  204.27    7.10   5 0.78053 0.02358-0.62338 0.56592-0.32151 0.43769
   4   0   3    7.65    2.07   6 0.75159-0.02840-0.62830 0.17556-0.34117 0.80146
   3   1   2  521.75   12.10   8 0.72034-0.23671-0.63197 0.50373-0.36054 0.58524
   6   1   2   78.07    4.79   7 0.74101 0.31631-0.62972 0.31857-0.34793 0.52428
   6   0   2   80.07    4.93   8 0.70965 0.41008-0.63288 0.12801-0.36678 0.61999
   2   0   2  203.10    8.76  10 0.67360-0.31892-0.63478 0.37465-0.38652 0.70332
   6  -1   1  184.77    7.32  12 0.61872 0.57772-0.63467 0.00528-0.41315 0.56833
   1   5   3  347.33    9.23   2 0.60714-0.76909-0.07314 0.77183 0.59221-0.46761
   3   7   4    9.08    2.22   2 0.60421-0.52147-0.06603 0.96045 0.59059-0.47638
   0   3   2   12.31    2.51   3 0.61907-0.83357-0.10283 0.54514 0.59861-0.47978
   2   5   2   31.79    3.39   3 0.62286-0.57949-0.11256 0.81918 0.60060-0.66584
   1   4   2   61.80    4.47   5 0.63611-0.72215-0.14779 0.72237 0.60732-0.58032
   2   4   1  613.54   12.94   5 0.63633-0.51729-0.14837 0.73060 0.60743-0.77061
   3   7   5    3.39    1.90   4 0.63243-0.56310-0.13780 0.96338 0.60549-0.31690
   1   5   4  121.12    5.58   5 0.64094-0.81680-0.16113 0.79106 0.60966-0.31093
   3   6   3    0.85    1.31   5 0.64230-0.48353-0.16495 0.93432 0.61031-0.59341
   4   7   4    6.90    2.24   5 0.63881-0.36479-0.15520 0.98786 0.60863-0.51060
   1   3   1   71.63    4.92   6 0.64966-0.65928-0.18609 0.63597 0.61374-0.68389
   0   3   3  349.69   10.36   7 0.66747-0.89636-0.24102 0.61503 0.62137-0.32802
   2   5   3    4.20    2.29   7 0.66933-0.63944-0.24714 0.88497 0.62210-0.51305
   4   7   5   25.73    3.00   7 0.66476-0.40359-0.23226 0.99563 0.62028-0.34850
   1   4   3  334.10    9.40   9 0.67964-0.77931-0.28258 0.78844 0.62584-0.42449
   3   6   4    1.60    1.46   8 0.67478-0.53019-0.26551 0.96579 0.62414-0.43297
   4   7   6    3.36    2.20   8 0.67833-0.43248-0.27792 0.97157 0.62539-0.17826
   2   5   4   28.08    2.93  10 0.69440-0.67924-0.33949 0.90805 0.63006-0.34734
   0   2   2 1307.12   22.61  11 0.69814-0.85094-0.35557 0.60457 0.63085-0.43533
   1   4   4  503.58   11.42  11 0.70117-0.81490-0.36915 0.80582 0.63137-0.25609
   3   6   6  132.47    6.07  11 0.69950-0.58276-0.36157 0.92479 0.63109-0.09284
   2   5   5   51.16    3.80  12 0.70613-0.70446-0.39292 0.89274 0.63193-0.17493
   1   4  -3  120.01    5.65   2 0.46949-0.48482 0.59915 0.31924-0.04247-0.80164
   2   5  -3    5.21    1.97   2 0.47004-0.35455 0.59578 0.45445-0.03558-0.90065
   0   1  -2 4261.38   37.08   4 0.47324-0.50803 0.57173-0.23956 0.01201-0.43699
   1   1  -3  368.72    9.75   3 0.47168-0.30104 0.58463-0.24533-0.01320-0.60147
   1   3  -3  607.15   12.04   4 0.47322-0.42633 0.57186 0.15389 0.01175-0.77943
   1   2  -3    8.81    1.99   4 0.47406-0.36597 0.56350-0.03055 0.02770-0.71837
   2   4  -3   39.82    3.66   4 0.47466-0.29801 0.55627 0.30052 0.04127-0.90085
   3   4  -3   -1.44    1.97   6 0.47593-0.10987 0.53423 0.25723 0.08144-0.95657
   4   4  -3  113.23    5.71   6 0.47600 0.08473 0.53238 0.20105 0.08474-0.97627
   2   2  -3   12.31    2.14   6 0.47623-0.17598 0.52452-0.05351 0.09860-0.80539
   2   3  -3   15.78    2.29   6 0.47607-0.23772 0.53037 0.13337 0.08832-0.87172
   3   2  -3   29.30    3.17   7 0.47640 0.01568 0.51296-0.10388 0.11865-0.84140
   2   5  -2   94.66    5.10   7 0.47641-0.37644 0.50665 0.47474 0.12940-0.89141
   3   3  -3    8.97    1.87   7 0.47641-0.04624 0.51166 0.09133 0.12086-0.91988
   3   5  -2   27.25    3.23   9 0.47551-0.18401 0.47270 0.44751 0.18534-0.96400
   2   4  -2   -0.68    1.73  10 0.47431-0.31397 0.45282 0.32899 0.21671-0.90036
   4   5  -2   42.36    3.65   9 0.47490 0.00894 0.46170 0.39641 0.20282-0.99693
   3   6  -1    4.16    2.33  11 0.47247-0.25663 0.43106 0.61346 0.24993-0.93057
   2   1  -2    4.46    1.91  11 0.47104-0.12339 0.41721-0.20727 0.27053-0.72747
   3   4  -2   97.95    5.05  11 0.47158-0.11797 0.42226 0.30437 0.26307-0.96471
   4   4  -2   20.18    2.72  11 0.47125 0.07463 0.41918 0.24558 0.26763-0.98498
   2  -2   0 1683.19   20.76   4 0.15042 0.35733-0.35749-0.15186-0.69887 0.82015
   3  -3  -1    9.37    2.34   3 0.15823 0.61688-0.36483-0.33158-0.69447 0.70261
   1  -3   0  220.68    7.81   4 0.13185 0.24624-0.33992-0.30077-0.70903 0.92261
   2  -4  -1   24.27    3.05   4 0.12941 0.51645-0.33761-0.48866-0.71034 0.80985
   2  -1   0  105.30    6.10   4 0.13116 0.31372-0.33926 0.02346-0.70941 0.75434
   3  -5  -3   49.35    4.07   4 0.12907 0.80020-0.33728-0.60419-0.71052 0.52079
   3  -4  -2   15.02    3.03   4 0.12367 0.72757-0.33215-0.48745-0.71338 0.62276
   3  -2  -1  811.72   14.20   5 0.10462 0.60828-0.31397-0.18680-0.72317 0.65376
   0  -3   0  280.09    9.68   6 0.08008 0.10688-0.29036-0.28924-0.73514 0.96447
   3  -1  -1   12.85    2.71   6 0.07832 0.57236-0.28867-0.01901-0.73597 0.59008
   1  -4  -1   16.82    3.36   8 0.03577 0.41837-0.24724-0.51783-0.75495 0.87089
   1  -2   0 2044.03   24.90   7 0.06111 0.25461-0.27197-0.17545-0.74391 0.88084
   2  -3  -1 1130.17   16.45   7 0.04023 0.54310-0.25161-0.38121-0.75306 0.77559
   3  -4  -3  236.67    8.04   8 0.03680 0.82975-0.24825-0.50010-0.75452 0.48818
   3  -3  -2    3.04    1.95   7 0.04632 0.74221-0.25755-0.36773-0.75045 0.58495
   1  -1   0  304.45   11.49   8 0.02058 0.23277-0.23229-0.02228-0.76120 0.82190
   0  -2   0   -0.76    3.28  10-0.01787 0.13961-0.19414-0.18555-0.77583 0.92754
   2  -4  -2  371.35    9.40   9 0.00013 0.66047-0.21205-0.54479-0.76920 0.69390
   3  -2  -2   20.65    3.41  10-0.01791 0.74498-0.19410-0.23764-0.77584 0.53292
   2  -2  -1  341.48    9.59  10-0.03762 0.55898-0.17437-0.26526-0.78266 0.72931
   3  -3  -3  104.36    5.63  10-0.04534 0.84888-0.16661-0.38860-0.78520 0.44334
  -1  -2   0    3.37    2.59  11-0.06368-0.00289-0.14809-0.17894-0.79097 0.96013
   0  -4  -1  199.98    7.59  11-0.05172 0.31538-0.16018-0.54380-0.78725 0.91861
   2  -5  -4   47.40    4.37  12-0.07466 0.82632-0.13696-0.67500-0.79422 0.44629
   0  -5  -2   -0.69    1.66  12-0.09073 0.42737-0.12058-0.70212-0.79873 0.83629
   1  -3  -1  274.57    8.59  12-0.07915 0.47167-0.13239-0.43949-0.79551 0.83464
  -2  -1  -6   55.29    4.14   3-0.24751 0.01287 0.97956-0.63710-0.57096-0.36643
  -1  -1  -6   10.43    2.04   2-0.24306 0.19963 0.97450-0.69346-0.59070-0.36233
  -1   0  -7   25.34    3.19   3-0.24751 0.15727 0.97956-0.43690-0.57098-0.63294
  -2   0  -7    3.83    1.90   3-0.24970-0.03244 0.98189-0.37667-0.56088-0.62844
  -1  -1  -2  236.40   10.42   3-0.24947 0.14814 0.98165-0.97559-0.56195 0.30501
  -2  -1  -5  133.68    6.11   5-0.25953 0.01022 0.99091-0.71706-0.51214-0.25107
  -2  -1  -2  758.80   19.89   4-0.25630-0.03587 0.98823-0.92076-0.52883 0.28748
  -1  -1  -5    0.78    1.39   4-0.25498 0.19728 0.98705-0.77429-0.53545-0.24395
   0   0  -6   20.10    2.75   4-0.25746 0.34394 0.98922-0.57628-0.52292-0.52221
  -1  -1  -4  982.26   15.89   5-0.26252 0.18975 0.99311-0.84929-0.49600-0.10898
  -1  -1  -3  132.94    6.88   5-0.26397 0.17678 0.99407-0.91886-0.48791 0.05717
  -2  -1  -4  384.31   10.36   6-0.26739 0.00366 0.99604-0.79090-0.46822-0.12103
  -2  -1  -3    8.28    2.73   7-0.26979-0.00761 0.99716-0.86034-0.45370 0.03872
  -2   0  -6  105.75    5.43   6-0.26810-0.02810 0.99640-0.46119-0.46399-0.55006
  -1   0  -6   41.48    3.61   6-0.26601 0.16111 0.99530-0.52137-0.47626-0.55312
   0   1  -6    0.26    1.72   7-0.27307 0.29892 0.99829-0.39780-0.43291-0.68453
  -2   1  -6   16.06    2.78   9-0.27919-0.07932 0.99892-0.26848-0.39069-0.69981
  -1   1  -6  252.31    8.20   8-0.27876 0.11194 0.99895-0.33108-0.39386-0.71163
  -2   0  -5  287.39    8.49   9-0.28261-0.02838 0.99824-0.53111-0.36438-0.47549
  -1   0  -5    4.05    1.69   9-0.28068 0.16091 0.99872-0.59262-0.37931-0.47643
   0   2  -6  548.14   11.98   9-0.28084 0.24469 0.99869-0.19943-0.37811-0.82018
  -2   1  -5    7.99    1.83  12-0.29323-0.07815 0.98879-0.32877-0.26539-0.65124
  -1   0  -4  268.02    8.22  12-0.29199 0.15759 0.99068-0.65357-0.27878-0.40241
  -1   1  -5    7.13    1.79  12-0.29293 0.11200 0.98928-0.39079-0.26874-0.66291
   2  -3  -4   32.96    3.63   2-0.11655 0.74291 0.37580-0.80284-0.97573 0.47597
   2  -3  -5    9.74    2.75   5-0.18089 0.82144 0.43212-0.79069-0.96404 0.29100
   0  -4  -4   11.09    2.33   5-0.19179 0.49727 0.44150-0.93937-0.96144 0.56953
   1  -4  -6    7.01    2.79   6-0.20862 0.73454 0.45587-0.87692-0.95705 0.20112
   1  -4  -7   70.13    4.62   6-0.22534 0.76602 0.47004-0.82186-0.95225 0.02254
   2  -3  -6   63.11    4.32   6-0.21209 0.86758 0.45884-0.74728-0.95609 0.10811
   1  -3  -4  125.42    5.90   8-0.26097 0.69524 0.49979-0.86545-0.94052 0.45679
   0  -4  -5  234.71    7.71   8-0.28239 0.60232 0.51741-0.94636-0.93243 0.36667
   0  -3  -3  310.74    9.63   9-0.28720 0.51560 0.52133-0.89427-0.93051 0.63608
   5   4   0   40.83    3.69   3 0.96197-0.25340-0.51796 0.98479-0.12364-0.26055
   5   4   1  557.65   11.58   4 0.95137-0.25736-0.54538 0.94261-0.12114-0.08848
   6   4   0   18.19    2.92   4 0.95258-0.05282-0.54244 0.94852-0.12142-0.27934
   6   4   1   14.16    2.76   5 0.94066-0.05472-0.56951 0.90561-0.11873-0.10673
   6   4   2   27.74    3.27   6 0.93949-0.06850-0.57198 0.83951-0.11847 0.06738
   7   4   2   12.38    2.69   5 0.94106 0.12159-0.56867 0.77432-0.11881 0.05160
   4   3   0   85.69    4.99   8 0.90126-0.32194-0.63941 0.97401-0.11052-0.18109
   4   3   1    0.50    1.47   9 0.89068-0.32542-0.65476 0.92054-0.10842-0.00976
   6   2  -1    0.78    1.95   4 0.53963 0.49957-0.25840 0.34601-0.75069 0.32878
   5   2  -1  292.77    8.60   7 0.45602 0.39121-0.25987 0.40891-0.77045 0.36489
   6   1  -2   26.80    3.44   7 0.44202 0.67262-0.25985 0.22347-0.77294 0.25238
   4   1   0   15.60    2.99   8 0.41061 0.29136-0.25960 0.20855-0.77774 0.63818
   5   1  -1   43.89    3.49   9 0.39029 0.51884-0.25927 0.21461-0.78028 0.45069
  -3   2  -2   73.12    4.42   3-0.19814-0.47067 0.85440-0.14543 0.10237-0.55737
  -2   0   0   47.88    6.49   4-0.19164-0.19124 0.84694-0.72349 0.11464-0.08456
  -1   3  -3  396.87    9.82   3-0.19269-0.13981 0.84816-0.00061 0.11266-0.84887
  -2   1  -2  403.21   10.34   4-0.18768-0.22825 0.84234-0.38816 0.12207-0.51593
   0   3  -3   82.08    4.74   4-0.18788 0.04645 0.84258-0.05678 0.12170-0.87389
  -2   4  -2    2.61    2.26   6-0.15880-0.44312 0.80733 0.22720 0.17520-0.79864
  -1   1  -2 1725.43   22.14   5-0.16386-0.06105 0.81364-0.42082 0.16603-0.57544
  -2   2  -2    0.96    1.51   6-0.15004-0.32806 0.79624-0.14898 0.19096-0.66098
  -2   3  -2   -0.36    1.77   7-0.14390-0.39125 0.78835 0.04327 0.20190-0.74591
  -1   5  -2    2.87    1.84   6-0.15085-0.32038 0.79729 0.36913 0.18949-0.90525
   0   5  -2    1.19    2.08   8-0.12719-0.15360 0.76633 0.33754 0.23130-0.96099
  -2   1  -1 1115.63   18.74   9-0.10853-0.32203 0.74088-0.35529 0.26346-0.48327
  -1   2  -2   17.50    2.57   8-0.11619-0.16984 0.75144-0.16604 0.25034-0.73609
  -1   3  -2   43.38    3.70   9-0.10784-0.23985 0.73991 0.03923 0.26464-0.82730
  -1   4  -2    3.69    1.66   8-0.12202-0.28666 0.75936 0.21302 0.24028-0.87976
   0   4  -2  467.46   10.77   9-0.09946-0.11779 0.72817 0.18238 0.27886-0.93308
;
_shelx_hkl_checksum              19308
loop_
_space_group_symop_operation_xyz
'x, y, z'
'-x, -y, -z'
loop_
_atom_site_label
_atom_site_type_symbol
_atom_site_fract_x
_atom_site_fract_y
_atom_site_fract_z
_atom_site_U_iso_or_equiv
_atom_site_adp_type
_atom_site_occupancy
_atom_site_site_symmetry_order
_atom_site_calc_flag
_atom_site_refinement_flags_adp
Li1 Li 0.6162(5) 0.2788(5) 0.2869(5) 0.0407(10) Uani 1 1 d .
O1 O 0.4576(2) 0.2262(3) 0.2243(3) 0.0501(6) Uani 1 1 d .
O2 O 0.5046(4) 0.3654(4) 0.4320(4) 0.0833(11) Uani 1 1 d .
N1 N 0.2223(3) -0.0496(3) 0.5975(3) 0.0547(7) Uani 1 1 d .
N2 N -0.1838(4) 0.4163(4) 0.5210(4) 0.0771(11) Uani 1 1 d .
N3 N -0.1258(4) 0.7256(4) 0.2084(4) 0.0785(11) Uani 1 1 d .
N4 N 0.2705(3) 0.5845(3) -0.0944(3) 0.0519(7) Uani 1 1 d .
C1 C 0.3272(3) 0.2020(3) 0.2331(3) 0.0340(6) Uani 1 1 d .
C2 C 0.3218(3) 0.0651(3) 0.2043(3) 0.0362(6) Uani 1 1 d .
C3 C 0.1725(4) 0.0632(4) 0.1806(3) 0.0486(7) Uani 1 1 d .
H3 H 0.0741 0.1473 0.1865 0.058 Uiso 1 1 calc U
C4 C 0.1716(6) -0.0651(5) 0.1481(4) 0.0712(11) Uani 1 1 d .
H4 H 0.0733 -0.0665 0.1297 0.085 Uiso 1 1 calc U
C5 C 0.3200(7) -0.1920(5) 0.1435(4) 0.0749(12) Uani 1 1 d .
H5 H 0.3196 -0.2793 0.1235 0.090 Uiso 1 1 calc U
C6 C 0.4657(6) -0.1903(4) 0.1678(4) 0.0653(10) Uani 1 1 d .
H6 H 0.5633 -0.2762 0.1641 0.078 Uiso 1 1 calc U
C7 C 0.4694(4) -0.0623(4) 0.1978(3) 0.0479(7) Uani 1 1 d .
H7 H 0.5690 -0.0609 0.2136 0.058 Uiso 1 1 calc U
C8 C 0.1678(3) 0.3196(3) 0.2757(3) 0.0333(6) Uani 1 1 d .
C9 C 0.0919(3) 0.2545(3) 0.4175(3) 0.0389(6) Uani 1 1 d .
C10 C -0.0606(4) 0.3459(4) 0.4745(3) 0.0495(8) Uani 1 1 d .
C11 C 0.1637(3) 0.0864(3) 0.5185(3) 0.0425(7) Uani 1 1 d .
C12 C 0.1179(3) 0.4829(3) 0.1672(3) 0.0373(6) Uani 1 1 d .
C13 C -0.0199(4) 0.6145(3) 0.1921(3) 0.0489(8) Uani 1 1 d .
C14 C 0.2049(3) 0.5337(3) 0.0235(3) 0.0386(6) Uani 1 1 d .
H2 H 0.395(5) 0.430(4) 0.449(4) 0.046 Uiso 1 1 d U
H21 H 0.541(5) 0.348(4) 0.492(4) 0.046 Uiso 1 1 d U
loop_
_atom_site_aniso_label
_atom_site_aniso_U_11
_atom_site_aniso_U_22
_atom_site_aniso_U_33
_atom_site_aniso_U_23
_atom_site_aniso_U_13
_atom_site_aniso_U_12
Li1 0.032(2) 0.038(2) 0.040(2) -0.0110(18) -0.0014(19) -0.0060(18)
O1 0.0291(10) 0.0563(12) 0.0675(14) -0.0295(10) -0.0014(9) -0.0117(9)
O2 0.0637(18) 0.102(2) 0.076(2) -0.0625(18) -0.0219(14) 0.0239(15)
N1 0.0473(14) 0.0441(13) 0.0451(14) -0.0074(11) -0.0001(12) -0.0012(11)
N2 0.0530(17) 0.0657(18) 0.0620(19) -0.0160(15) 0.0185(15) 0.0072(14)
N3 0.064(2) 0.0498(16) 0.081(2) -0.0173(15) 0.0025(17) 0.0080(14)
N4 0.0547(16) 0.0476(14) 0.0416(14) -0.0094(11) 0.0020(12) -0.0177(12)
C1 0.0277(12) 0.0356(12) 0.0336(12) -0.0113(10) -0.0028(10) -0.0076(10)
C2 0.0378(14) 0.0366(13) 0.0307(12) -0.0128(10) 0.0009(11) -0.0111(11)
C3 0.0514(17) 0.0511(17) 0.0444(15) -0.0129(13) -0.0101(14) -0.0209(14)
C4 0.102(3) 0.069(2) 0.063(2) -0.0181(18) -0.022(2) -0.048(2)
C5 0.124(4) 0.060(2) 0.057(2) -0.0309(17) 0.003(2) -0.044(2)
C6 0.086(3) 0.0476(17) 0.057(2) -0.0290(15) 0.0186(18) -0.0198(17)
C7 0.0481(16) 0.0413(15) 0.0459(15) -0.0199(12) 0.0061(13) -0.0084(12)
C8 0.0264(12) 0.0338(12) 0.0361(13) -0.0140(10) -0.0023(10) -0.0061(9)
C9 0.0302(13) 0.0353(13) 0.0350(13) -0.0095(10) 0.0021(11) -0.0021(10)
C10 0.0376(15) 0.0439(15) 0.0399(15) -0.0076(12) 0.0072(12) -0.0024(12)
C11 0.0354(14) 0.0404(14) 0.0354(13) -0.0088(11) 0.0010(11) -0.0053(11)
C12 0.0310(13) 0.0354(13) 0.0364(13) -0.0108(10) 0.0000(11) -0.0074(10)
C13 0.0440(16) 0.0345(13) 0.0474(16) -0.0099(12) -0.0027(13) 0.0002(12)
C14 0.0390(14) 0.0328(12) 0.0384(15) -0.0096(10) -0.0036(12) -0.0109(11)
loop_
_atom_type_symbol
_atom_type_description
_atom_type_scat_dispersion_real
_atom_type_scat_dispersion_imag
_atom_type_scat_source
C C 0.0181 0.0091 'International Tables Vol C Tables 4.2.6.8 and 6.1.1.4'
H H 0.0000 0.0000 'International Tables Vol C Tables 4.2.6.8 and 6.1.1.4'
Li Li 0.0008 0.0003 'International Tables Vol C Tables 4.2.6.8 and 6.1.1.4'
N N 0.0311 0.0180 'International Tables Vol C Tables 4.2.6.8 and 6.1.1.4'
O O 0.0492 0.0322 'International Tables Vol C Tables 4.2.6.8 and 6.1.1.4'
loop_
_geom_angle_atom_site_label_1
_geom_angle_atom_site_label_2
_geom_angle_atom_site_label_3
_geom_angle
_geom_angle_site_symmetry_1
_geom_angle_site_symmetry_3
O2 Li1 O1 107.2(2) . .
O2 Li1 N4 120.5(3) . 2_665
O1 Li1 N4 106.9(2) . 2_665
O2 Li1 N1 104.9(2) . 2_656
O1 Li1 N1 104.2(2) . 2_656
N4 Li1 N1 112.0(2) 2_665 2_656
C1 O1 Li1 155.8(2) . .
C11 N1 Li1 164.9(3) . 2_656
C14 N4 Li1 165.3(3) . 2_665
O1 C1 C2 122.2(2) . .
O1 C1 C8 117.9(2) . .
C2 C1 C8 119.8(2) . .
C3 C2 C7 120.5(3) . .
C3 C2 C1 120.7(2) . .
C7 C2 C1 118.9(3) . .
C4 C3 C2 119.5(3) . .
C3 C4 C5 119.2(4) . .
C6 C5 C4 121.2(3) . .
C5 C6 C7 120.4(3) . .
C6 C7 C2 119.2(3) . .
C9 C8 C12 127.7(2) . .
C9 C8 C1 116.6(2) . .
C12 C8 C1 115.7(2) . .
C8 C9 C11 120.8(2) . .
C8 C9 C10 124.0(2) . .
C11 C9 C10 115.2(2) . .
N2 C10 C9 178.7(4) . .
N1 C11 C9 178.8(3) . .
C8 C12 C14 122.4(2) . .
C8 C12 C13 123.7(2) . .
C14 C12 C13 113.9(2) . .
N3 C13 C12 176.6(4) . .
N4 C14 C12 176.0(3) . .
loop_
_geom_bond_atom_site_label_1
_geom_bond_atom_site_label_2
_geom_bond_distance
_geom_bond_site_symmetry_2
Li1 O2 1.858(5) .
Li1 O1 1.946(5) .
Li1 N4 2.044(5) 2_665
Li1 N1 2.047(5) 2_656
O1 C1 1.225(3) .
N1 C11 1.144(3) .
N1 Li1 2.047(5) 2_656
N2 C10 1.140(4) .
N3 C13 1.145(4) .
N4 C14 1.148(3) .
N4 Li1 2.044(5) 2_665
C1 C2 1.459(4) .
C1 C8 1.516(3) .
C2 C3 1.392(4) .
C2 C7 1.396(4) .
C3 C4 1.385(5) .
C4 C5 1.394(7) .
C5 C6 1.362(6) .
C6 C7 1.378(5) .
C8 C9 1.376(4) .
C8 C12 1.395(3) .
C9 C11 1.423(3) .
C9 C10 1.425(4) .
C12 C14 1.413(4) .
C12 C13 1.426(3) .
