#------------------------------------------------------------------------------
#$Date: 2019-11-23 21:42:49 +0200 (Sat, 23 Nov 2019) $
#$Revision: 235163 $
#$URL: file:///home/coder/svn-repositories/cod/cif/4/03/67/4036742.cif $
#------------------------------------------------------------------------------
#
# This file is available in the Crystallography Open Database (COD),
# http://www.crystallography.net/
#
# All data on this site have been placed in the public domain by the
# contributors.
#
data_4036742
loop_
_publ_author_name
'Mamane, V.'
'Peluso, P.'
'Aubert, E.'
'Cossu, S.'
'Pale, P.'
_publ_section_title
;
 Chiral Hexahalogenated 4,4'-Bipyridines.
;
_journal_issue                   11
_journal_name_full               'The Journal of organic chemistry'
_journal_page_first              4576
_journal_page_last               4587
_journal_paper_doi               10.1021/acs.joc.6b00413
_journal_volume                  81
_journal_year                    2016
_chemical_formula_moiety         'C10 H2 Br6 N2'
_chemical_formula_sum            'C10 H2 Br6 N2'
_chemical_formula_weight         629.60
_space_group_crystal_system      orthorhombic
_space_group_IT_number           19
_space_group_name_Hall           'P 2ac 2ab'
_space_group_name_H-M_alt        'P 21 21 21'
_atom_sites_solution_hydrogens   geom
_audit_creation_method           SHELXL-2014/7
_cell_angle_alpha                90
_cell_angle_beta                 90
_cell_angle_gamma                90
_cell_formula_units_Z            4
_cell_length_a                   7.64440(10)
_cell_length_b                   11.7708(2)
_cell_length_c                   16.6604(3)
_cell_measurement_reflns_used    9199
_cell_measurement_temperature    100(2)
_cell_measurement_theta_max      76.3234
_cell_measurement_theta_min      3.7521
_cell_volume                     1499.11(4)
_computing_cell_refinement
;
CrysAlisPro, Agilent Technologies,
Version 1.171.35.21 (release 20-01-2012 CrysAlis171 .NET)
(compiled Jan 23 2012,18:06:46)
;
_computing_data_collection
;
CrysAlisPro, Agilent Technologies,
Version 1.171.35.21 (release 20-01-2012 CrysAlis171 .NET)
(compiled Jan 23 2012,18:06:46)
;
_computing_data_reduction
;
CrysAlisPro, Agilent Technologies,
Version 1.171.35.21 (release 20-01-2012 CrysAlis171 .NET)
(compiled Jan 23 2012,18:06:46)
;
_computing_structure_refinement  'SHELXL-2014/7 (Sheldrick, 2014)'
_computing_structure_solution    'SIR_92 (Altomare et al., 1994)'
_diffrn_ambient_temperature      100(2)
_diffrn_measured_fraction_theta_full 1.000
_diffrn_measured_fraction_theta_max 0.999
_diffrn_measurement_device_type  'SuperNova, Dual, Mo at zero, Atlas'
_diffrn_measurement_method       'omega scans'
_diffrn_radiation_type           CuK\a
_diffrn_radiation_wavelength     1.54184
_diffrn_reflns_av_R_equivalents  0.0340
_diffrn_reflns_av_unetI/netI     0.0268
_diffrn_reflns_Laue_measured_fraction_full 1.000
_diffrn_reflns_Laue_measured_fraction_max 0.999
_diffrn_reflns_limit_h_max       9
_diffrn_reflns_limit_h_min       -9
_diffrn_reflns_limit_k_max       14
_diffrn_reflns_limit_k_min       -12
_diffrn_reflns_limit_l_max       20
_diffrn_reflns_limit_l_min       -20
_diffrn_reflns_number            11688
_diffrn_reflns_point_group_measured_fraction_full 1.000
_diffrn_reflns_point_group_measured_fraction_max 0.999
_diffrn_reflns_theta_full        67.684
_diffrn_reflns_theta_max         76.520
_diffrn_reflns_theta_min         4.600
_diffrn_source                   'Enhance (Cu) X-ray Source'
_exptl_absorpt_coefficient_mu    19.224
_exptl_absorpt_correction_T_max  0.278
_exptl_absorpt_correction_T_min  0.046
_exptl_absorpt_correction_type   analytical
_exptl_absorpt_process_details
;
CrysAlisPro, Agilent Technologies,
Version 1.171.35.21 (release 20-01-2012 CrysAlis171 .NET)
(compiled Jan 23 2012,18:06:46)
Analytical numeric absorption correction using a multifaceted crystal
			model based on expressions derived by R.C. Clark & J.S. Reid.
(Clark, R. C. & Reid, J. S. (1995). Acta Cryst. A51, 887-897)
;
_exptl_crystal_colour            colorless
_exptl_crystal_density_diffrn    2.790
_exptl_crystal_description       block
_exptl_crystal_F_000             1144
_exptl_crystal_size_max          0.2596
_exptl_crystal_size_mid          0.1546
_exptl_crystal_size_min          0.1213
_refine_diff_density_max         0.875
_refine_diff_density_min         -0.951
_refine_diff_density_rms         0.204
_refine_ls_abs_structure_details
;
 Flack x determined using 1306 quotients [(I+)-(I-)]/[(I+)+(I-)]
 (Parsons, Flack and Wagner, Acta Cryst. B69 (2013) 249-259).
;
_refine_ls_abs_structure_Flack   -0.01(3)
_refine_ls_extinction_method     none
_refine_ls_goodness_of_fit_ref   1.159
_refine_ls_hydrogen_treatment    constr
_refine_ls_matrix_type           full
_refine_ls_number_parameters     163
_refine_ls_number_reflns         3150
_refine_ls_number_restraints     0
_refine_ls_restrained_S_all      1.159
_refine_ls_R_factor_all          0.0290
_refine_ls_R_factor_gt           0.0287
_refine_ls_shift/su_max          0.003
_refine_ls_shift/su_mean         0.001
_refine_ls_structure_factor_coef Fsqd
_refine_ls_weighting_details
'w=1/[\s^2^(Fo^2^)+(0.0478P)^2^+2.3770P] where P=(Fo^2^+2Fc^2^)/3'
_refine_ls_weighting_scheme      calc
_refine_ls_wR_factor_gt          0.0754
_refine_ls_wR_factor_ref         0.0754
_reflns_Friedel_coverage         0.729
_reflns_Friedel_fraction_full    0.999
_reflns_Friedel_fraction_max     0.998
_reflns_number_gt                3139
_reflns_number_total             3150
_reflns_threshold_expression     'I > 2\s(I)'
_cod_data_source_file            jo6b00413_si_003.cif
_cod_data_source_block           shelx
_cod_database_code               4036742
_shelx_shelxl_version_number     2014/7
_shelx_space_group_comment
;
The symmetry employed for this shelxl refinement is uniquely defined
by the following loop, which should always be used as a source of
symmetry information in preference to the above space-group names.
They are only intended as comments.
;
_shelx_res_file
;

    shelx.res created by SHELXL-2014/7

TITL xall1 in P2(1)2(1)2(1)
CELL  1.54184   7.6444  11.7708  16.6604   90.000   90.000   90.000
ZERR     4.00   0.0001   0.0002   0.0003    0.000    0.000    0.000
LATT  -1
SYMM  1/2 - X, - Y, 1/2 + Z
SYMM  1/2 + X, 1/2 - Y, - Z
SYMM  - X, 1/2 + Y, 1/2 - Z
SFAC  C    H    N    BR
UNIT  40 8 8 24
MERG   2
OMIT    -1  14   1
EQIV $1 -x+1/2, -y, z-1/2
HTAB C12 Br1_$1
EQIV $2 x-1, y, z
HTAB C6 Br2_$2
HTAB C12 Br1_$1
HTAB C6 Br2_$2
FMAP   2
PLAN   25
ACTA
BOND   $H
CONF
LIST   4
WPDB  -2
L.S.   4
TEMP  -173.00
WGHT    0.047800    2.377000
FVAR       2.43222
BR6   4    0.090343    0.018426    0.161198    11.00000    0.02513    0.01681 =
         0.01748   -0.00054   -0.00241   -0.00164
BR5   4    0.174492    0.254311    0.456384    11.00000    0.02943    0.02483 =
         0.01694   -0.00407    0.00327   -0.00962
BR1   4    0.108516   -0.242876    0.465162    11.00000    0.02420    0.01223 =
         0.01836    0.00446   -0.00230    0.00184
BR2   4    0.340178   -0.072006    0.346997    11.00000    0.01173    0.01702 =
         0.02234    0.00212    0.00057    0.00325
BR4   4    0.399501    0.452257    0.353772    11.00000    0.02062    0.01659 =
         0.03334   -0.00234    0.00128   -0.00683
BR3   4   -0.260720    0.212476    0.328584    11.00000    0.01648    0.01527 =
         0.03020    0.00570   -0.00059    0.00521
N1    3   -0.154773   -0.087135    0.444887    11.00000    0.01669    0.01211 =
         0.01535    0.00157    0.00033   -0.00249
C2    1    0.008852   -0.107609    0.424416    11.00000    0.01416    0.01196 =
         0.01371    0.00132   -0.00377   -0.00213
N7    3    0.332597    0.316078    0.224223    11.00000    0.01612    0.01705 =
         0.02369    0.00537    0.00570   -0.00300
C11   1    0.171853    0.142901    0.222492    11.00000    0.01533    0.01087 =
         0.01905    0.00003   -0.00140   -0.00073
C4    1    0.032244    0.064554    0.347991    11.00000    0.01292    0.01198 =
         0.01490   -0.00273   -0.00061   -0.00169
C9    1    0.206651    0.242741    0.344392    11.00000    0.01700    0.01249 =
         0.01477    0.00088    0.00067   -0.00006
C8    1    0.301496    0.323296    0.301544    11.00000    0.01546    0.01049 =
         0.02291   -0.00036   -0.00217    0.00154
C5    1   -0.143355    0.081796    0.367487    11.00000    0.01600    0.00969 =
         0.01759   -0.00010    0.00113    0.00323
C3    1    0.109108   -0.036352    0.375807    11.00000    0.00809    0.01087 =
         0.01513   -0.00134    0.00056   -0.00109
C12   1    0.270469    0.226592    0.184522    11.00000    0.01745    0.01893 =
         0.01933    0.00294    0.00275   -0.00144
AFIX  43
H12   2    0.294069    0.219646    0.128753    11.00000   -1.20000
AFIX   0
C6    1   -0.229396    0.006947    0.416214    11.00000    0.01218    0.01411 =
         0.02149   -0.00085    0.00072    0.00009
AFIX  43
H6    2   -0.347404    0.022581    0.430271    11.00000   -1.20000
AFIX   0
C10   1    0.138128    0.150061    0.303391    11.00000    0.01119    0.01358 =
         0.01877    0.00249   -0.00027    0.00389
HKLF    4

REM  xall1 in P2(1)2(1)2(1)
REM R1 =  0.0287 for    3139 Fo > 4sig(Fo)  and  0.0290 for all    3150 data
REM    163 parameters refined using      0 restraints

END

WGHT      0.0481      2.2769

REM Highest difference peak  0.875,  deepest hole -0.951,  1-sigma level  0.204
Q1    1   0.2224 -0.0459  0.3523  11.00000  0.05    0.87
Q2    1  -0.0307 -0.0163  0.1633  11.00000  0.05    0.86
Q3    1  -0.0063 -0.2172  0.4618  11.00000  0.05    0.84
Q4    1  -0.0078 -0.2811  0.4609  11.00000  0.05    0.83
Q5    1   0.5091  0.4092  0.3570  11.00000  0.05    0.78
Q6    1  -0.0135  0.0556  0.1594  11.00000  0.05    0.76
Q7    1   0.5115  0.4816  0.3488  11.00000  0.05    0.70
Q8    1  -0.1559  0.2587  0.3331  11.00000  0.05    0.67
Q9    1   0.2861  0.2402  0.4497  11.00000  0.05    0.60
Q10   1  -0.3716  0.2407  0.3278  11.00000  0.05    0.59
Q11   1   0.1621 -0.0960  0.1607  11.00000  0.05    0.59
Q12   1  -0.3684  0.1873  0.3254  11.00000  0.05    0.59
Q13   1   0.1131  0.3804  0.3568  11.00000  0.05    0.58
Q14   1   0.0456 -0.1352  0.4619  11.00000  0.05    0.58
Q15   1   0.2871  0.2781  0.4589  11.00000  0.05    0.58
Q16   1  -0.4897  0.0829  0.3250  11.00000  0.05    0.58
Q17   1  -0.3106  0.3257  0.3190  11.00000  0.05    0.56
Q18   1   0.1671  0.3450  0.3393  11.00000  0.05    0.53
Q19   1  -0.0754 -0.1195  0.4278  11.00000  0.05    0.52
Q20   1   0.4124  0.0827  0.1715  11.00000  0.05    0.51
Q21   1   0.2095 -0.0222  0.1732  11.00000  0.05    0.50
Q22   1   0.1911  0.5718  0.3373  11.00000  0.05    0.50
Q23   1   0.2032  0.0454  0.1642  11.00000  0.05    0.50
Q24   1   0.0732 -0.1352  0.3595  11.00000  0.05    0.49
Q25   1   0.4238 -0.1615  0.3520  11.00000  0.05    0.49
;
_shelx_res_checksum              34636
_shelx_hkl_file
;
   0   0   216241.10  866.88
   0   0   4365487.0 11880.4
   0   0   6999999.0 11187.2
   0   0   8126942.0  4023.9
   0   0  10791390.0  9269.9
   0   0  12 1735.11  254.10
   0   0  1411269.88  606.47
   0   0  16185590.9  4352.7
   0   0  18 2521.16  134.01
   0   0  20 9513.19 3739.54
   0   1   1 7156.97 1565.96
   0   1   2  829.77  149.07
   0   1   3116319.2 31672.7
   0   1   469903.1013281.76
   0   1   5 5482.20  365.11
   0   1   6 7847.37  415.42
   0   1   7 2048.36  221.43
   0   1   828069.96  837.20
   0   1   971288.10 1678.48
   0   1  10  445.69  127.16
   0   1  11 9074.60  394.85
   0   1  12 3151.50  221.51
   0   1  13 2114.82   83.10
   0   1  14 5696.14  139.19
   0   1  15  400.12   75.84
   0   1  16  649.37   50.19
   0   1  1719744.27  261.70
   0   1  18 2576.41   76.02
   0   1  19 5447.34   89.93
   0   1  20 1482.19   66.47
   0   2   021125.80  882.19
   0   2   114693.65  203.87
   0   2   2228271.2  8529.6
   0   2   352356.20 1131.72
   0   2   4577764.7 18448.5
   0   2   5 2324.81  217.38
   0   2   635274.67 3250.90
   0   2   7  878.61  416.34
   0   2   8171263.6  8347.6
   0   2   950639.52 1242.36
   0   2  1011770.27  454.14
   0   2  1110784.75  330.32
   0   2  12170884.3  3366.7
   0   2  1321729.76  445.74
   0   2  14251532.8  3051.7
   0   2  1519164.76  278.91
   0   2  16 1606.23   73.21
   0   2  17  170.07   34.80
   0   2  18  583.27   73.01
   0   2  1910538.81  157.99
   0   2  2010192.60  149.46
   0   3   150021.31  789.71
   0   3   2159093.6  2639.2
   0   3   396929.38 2409.40
   0   3   4150903.3  5214.2
   0   3   5 6594.20  250.85
   0   3   6 1832.07  122.53
   0   3   7  223.45   63.76
   0   3   8142688.7  2889.8
   0   3   9152081.7  3048.0
   0   3  1030497.76  760.31
   0   3  11 4218.74  191.09
   0   3  12 5128.47  162.24
   0   3  1322861.74  417.65
   0   3  1441687.68  812.95
   0   3  1516067.76  242.56
   0   3  16 6600.58  144.28
   0   3  1718635.50  290.72
   0   3  18 1998.39   77.01
   0   3  1940662.85  525.57
   0   3  20 4657.42  125.95
   0   4   0699092.1  6118.3
   0   4   1184656.5  3045.8
   0   4   276833.54 1462.00
   0   4   318677.89  582.22
   0   4   4 2086.66  142.76
   0   4   5242703.6  4555.9
   0   4   6173785.6  3215.7
   0   4   729118.14  590.72
   0   4   849698.75  855.61
   0   4   918566.95  423.53
   0   4  10186148.8  3548.1
   0   4  1163623.94 2474.66
   0   4  12 4701.71  137.59
   0   4  13  181.44   47.13
   0   4  1492363.67 1314.32
   0   4  15 9855.05  179.40
   0   4  1664412.16  940.89
   0   4  17  213.40   32.34
   0   4  18 1958.18   60.87
   0   4  19  749.95   49.93
   0   4  20  492.79   56.05
   0   5   1  371.17   69.02
   0   5   245253.16  657.51
   0   5   3 2695.00  154.91
   0   5   4 4452.68  371.65
   0   5   512988.51  327.82
   0   5   622081.08  657.58
   0   5   7 1522.91  273.55
   0   5   833295.42 1051.00
   0   5   9  134.67  145.47
   0   5  10 1652.90  200.98
   0   5  1112592.41  200.41
   0   5  1245826.84  756.66
   0   5  13 1581.64   89.17
   0   5  14 2440.26   91.80
   0   5  15 7157.73  134.31
   0   5  16 3384.26   88.61
   0   5  17 5006.51  119.84
   0   5  1818738.01  347.96
   0   5  19  690.37   41.70
   0   6   0305501.1  5517.6
   0   6   1  529.33   65.42
   0   6   2179160.3  2536.4
   0   6   311142.63  800.19
   0   6   4 1304.53  229.60
   0   6   510521.22 1213.17
   0   6   623002.80 1605.77
   0   6   725007.02 1549.95
   0   6   8 3363.35  291.38
   0   6   972588.30 2818.66
   0   6  10162824.9  1704.5
   0   6  1118805.40  267.34
   0   6  1267022.85  825.56
   0   6  1365311.59  896.04
   0   6  1415705.58  306.23
   0   6  1511766.20  222.13
   0   6  1624280.76  338.35
   0   6  17 3532.32   93.54
   0   6  18 7316.38  177.08
   0   6  1925227.52  353.43
   0   7   1 5833.00  159.16
   0   7   2164361.0  2963.8
   0   7   3  686.72   80.97
   0   7   4121996.9  5360.9
   0   7   5  570.25  155.18
   0   7   6  315.03   85.94
   0   7   7 1824.02  129.64
   0   7   8146627.8  1668.4
   0   7   9 2651.01   87.13
   0   7  1026119.84  335.56
   0   7  11  160.30   40.01
   0   7  12 4990.01  136.73
   0   7  13 1067.70   61.19
   0   7  1464496.89  887.44
   0   7  15 4316.21  105.06
   0   7  1613673.64  215.05
   0   7  1713127.64  659.20
   0   7  18 5008.73  152.38
   0   8   0 8189.61  452.62
   0   8   1 2392.29  169.18
   0   8   2159759.0  4163.4
   0   8   3 6393.29  392.79
   0   8   4119580.0  3086.2
   0   8   539387.60 1167.68
   0   8   622685.81  379.37
   0   8   7 4161.09  120.46
   0   8   840100.41  506.08
   0   8   9 3262.21  106.18
   0   8  10 2228.05  111.34
   0   8  11  351.00   39.01
   0   8  1238141.39  498.58
   0   8  13  395.27   56.27
   0   8  1479167.44  935.29
   0   8  15 4415.25   97.08
   0   8  16 6938.73  151.94
   0   8  17 8978.42 1567.14
   0   9   1  286.00   93.97
   0   9   210633.98  211.82
   0   9   3 1614.24   79.74
   0   9   4  380.89   42.35
   0   9   514878.18  256.08
   0   9   6  699.74   57.08
   0   9   7  894.12   59.28
   0   9   8 3055.75  114.74
   0   9   9  242.60   54.30
   0   9  10  101.15   40.10
   0   9  1118732.04  291.05
   0   9  12 3013.84   88.87
   0   9  13 4985.35  119.28
   0   9  14  670.79   38.51
   0   9  1513240.76  244.25
   0   9  16 1045.55   69.18
   0  10   083209.35 1418.00
   0  10   1100670.1  1439.0
   0  10   253536.04  751.05
   0  10   3 3980.27  120.78
   0  10   4 4535.56  134.20
   0  10   5127212.1  1600.3
   0  10   6 1694.91  136.45
   0  10   725726.52  456.79
   0  10   8 6139.07  131.74
   0  10   9  581.20   47.92
   0  10  1061346.12  682.46
   0  10  1175880.85  814.57
   0  10  1288989.35  974.56
   0  10  1311522.97  191.41
   0  10  14  528.91   43.58
   0  10  15 9739.04  258.56
   0  11   1 1157.82   77.38
   0  11   2 6313.32  140.10
   0  11   3  487.17   53.01
   0  11   4  212.41   41.74
   0  11   5 4979.80  137.32
   0  11   6 8746.74  189.96
   0  11   7 1806.87   77.24
   0  11   8  463.56   49.09
   0  11   9  391.78   49.11
   0  11  10 1221.63   58.64
   0  11  11 1579.54   61.25
   0  11  1228533.42  361.97
   0  11  13  240.62   29.14
   0  11  14  919.51   67.07
   0  12   016452.28  357.13
   0  12   116892.41  270.36
   0  12   255584.63  712.29
   0  12   318318.13  258.35
   0  12   427778.71  397.36
   0  12   513732.04  208.68
   0  12   6 4945.22  126.45
   0  12   721937.21  358.52
   0  12   8 3749.17  124.08
   0  12   939375.77  618.00
   0  12  1014317.04  212.36
   0  12  11 9790.24  247.13
   0  12  1226118.56 1353.46
   0  13   120955.96  282.84
   0  13   233578.63  406.22
   0  13   337410.72  443.47
   0  13   4 5765.16  117.67
   0  13   5 9270.13  182.19
   0  13   6 4968.67  125.86
   0  13   718334.64  322.00
   0  13   840598.94  499.77
   0  13   924589.89  354.38
   0  13  10  752.82   42.18
   0  14   0  437.88   53.56
   0  14   112059.95 3420.72
   0  14   237374.02  562.81
   0  14   3  293.67   33.80
   0  14   418438.42  289.20
   0  14   551050.63  661.19
   0  14   612201.05  657.03
   0  14   7 1109.11   68.28
   1   0   111946.70  252.52
   1   0   235619.10  972.77
   1   0   378611.60 2186.56
   1   0   4179296.0  5484.1
   1   0   5182067.0 10249.6
   1   0   6 9691.93  492.45
   1   0   7136471.6  5392.2
   1   0   8182300.8  9369.5
   1   0   9 4939.49  319.18
   1   0  10160710.0  4862.3
   1   0  1110355.30  594.66
   1   0  1221869.20  933.42
   1   0  1312028.38  270.71
   1   0  1418719.25  359.16
   1   0  1520628.53  441.27
   1   0  16 8736.97  190.83
   1   0  1723572.71  375.31
   1   0  1880669.54  963.61
   1   0  19  241.22   41.56
   1   0  2025217.19  383.56
   1   1 -20 2586.32   66.99
   1   1 -1920628.98  313.26
   1   1 -18 4168.71   96.14
   1   1 -17  957.22   52.08
   1   1 -1614979.56  266.23
   1   1 -1533527.83  551.91
   1   1 -14 2866.39   98.68
   1   1 -1366341.71  874.16
   1   1 -1216253.96  516.09
   1   1 -1119329.40  876.60
   1   1 -1015664.00  805.42
   1   1  -926798.40 1184.00
   1   1  -810111.08  464.18
   1   1  -715085.61  942.44
   1   1  -655169.26 1523.80
   1   1  -5146350.0  4710.7
   1   1  -420998.40  859.86
   1   1  -313831.52  389.30
   1   1  -220764.87  454.33
   1   1  -1 4439.57  149.21
   1   1   0 6607.52  131.90
   1   1   1 7588.44  199.42
   1   1   222631.90  658.83
   1   1   311712.10  492.43
   1   1   419973.20  802.55
   1   1   5143451.5 17544.2
   1   1   650731.31 2910.61
   1   1   715040.09  608.16
   1   1   8 8881.65  441.73
   1   1   927044.74  842.77
   1   1  1015477.40  742.64
   1   1  1119172.00  843.15
   1   1  1215574.50  729.26
   1   1  1365963.07  883.68
   1   1  14 2868.94   87.32
   1   1  1534895.40  563.24
   1   1  1615176.89  233.02
   1   1  17 1112.63   55.45
   1   1  18 4415.05  135.37
   1   1  1920287.50  258.75
   1   1  20 2622.57   68.88
   1   2 -2012218.17  285.61
   1   2 -1939847.25  420.33
   1   2 -1823953.06  292.94
   1   2 -17 4008.05  100.23
   1   2 -1623343.36  369.37
   1   2 -15 5048.42  114.27
   1   2 -1429102.94  460.83
   1   2 -1331029.64  471.27
   1   2 -12 9471.12  368.46
   1   2 -1120758.10  595.46
   1   2 -1068643.80 1911.19
   1   2  -9136225.5  3288.6
   1   2  -817680.82  544.08
   1   2  -7123729.3  2621.4
   1   2  -6259776.3  5520.9
   1   2  -585296.86 1818.27
   1   2  -4442736.8 13107.3
   1   2  -3253768.5  7563.6
   1   2  -274024.88 1406.78
   1   2  -177355.41 1404.59
   1   2   0101736.2  1817.9
   1   2   176793.23 1150.16
   1   2   273933.29 1327.89
   1   2   3279810.5  5761.6
   1   2   4481312.0 11155.0
   1   2   598134.10 3173.09
   1   2   6275988.4 10250.1
   1   2   7129280.7  5018.8
   1   2   818930.27  929.59
   1   2   9137844.0  4081.1
   1   2  1070771.00 2148.62
   1   2  1121228.40  870.33
   1   2  12 9789.73  499.43
   1   2  1331499.84  700.67
   1   2  1428940.23  422.03
   1   2  15 5069.89  120.24
   1   2  1622073.04  324.28
   1   2  17 4242.51  111.31
   1   2  1824188.66  294.21
   1   2  1939508.93  406.87
   1   2  2012713.92  226.98
   1   3 -20 1387.68   69.84
   1   3 -1911108.12  154.65
   1   3 -1815781.75  245.34
   1   3 -17 1684.58   64.97
   1   3 -16 1107.97   58.16
   1   3 -1510454.75  189.41
   1   3 -1410412.79  190.04
   1   3 -1326317.73  461.65
   1   3 -1235179.61  861.36
   1   3 -1110157.37  376.41
   1   3 -1013248.03  439.38
   1   3  -925155.31  666.04
   1   3  -818205.93  536.83
   1   3  -7 7215.09  310.37
   1   3  -661156.10 2071.04
   1   3  -515757.84  491.08
   1   3  -4 9697.18  353.60
   1   3  -314095.94  335.54
   1   3  -239816.61  671.64
   1   3  -1 4003.63  113.65
   1   3   051599.76  794.94
   1   3   1 4988.96  132.26
   1   3   240097.40  780.98
   1   3   314041.27  382.77
   1   3   4 9635.38 2326.24
   1   3   515882.59 1294.64
   1   3   671130.35 8769.27
   1   3   7 7610.46  591.57
   1   3   821064.05 1339.21
   1   3   927572.24  669.01
   1   3  1014651.46  894.05
   1   3  1110935.06  371.35
   1   3  1234613.12  545.76
   1   3  1325237.19  471.43
   1   3  14 9971.14  222.06
   1   3  15 9677.80  190.79
   1   3  16 1379.45   77.29
   1   3  17 1588.14   76.73
   1   3  1816818.01  269.92
   1   3  1910605.78  178.92
   1   3  20 1469.86   78.52
   1   4 -2026643.40  880.32
   1   4 -19 7170.21  357.60
   1   4 -1814894.84  249.69
   1   4 -1765110.76  714.47
   1   4 -1629702.10  400.30
   1   4 -15 4603.07  160.26
   1   4 -1443804.36  618.58
   1   4 -1360295.97  898.34
   1   4 -12 9721.11  222.62
   1   4 -1139148.48 2517.89
   1   4 -10209551.8  4817.3
   1   4  -947235.80 3066.17
   1   4  -820670.75 1511.72
   1   4  -7188394.5  7439.6
   1   4  -6203684.2  8729.2
   1   4  -532100.90 1011.39
   1   4  -4346960.5 60764.3
   1   4  -388025.86 1728.29
   1   4  -210297.03  228.57
   1   4  -132269.74  504.07
   1   4   0177999.5  2385.1
   1   4   133322.74  580.31
   1   4   210709.55  268.65
   1   4   393523.95 1791.12
   1   4   4396478.1  7242.1
   1   4   531550.87  690.76
   1   4   6236242.5 34115.3
   1   4   7204821.0  4627.7
   1   4   822327.89  909.89
   1   4   954140.43 2372.68
   1   4  10218568.3  3916.2
   1   4  1141727.05  874.01
   1   4  1210394.67  230.16
   1   4  1358178.17  799.94
   1   4  1442326.25  616.63
   1   4  15 4999.61  191.17
   1   4  1629216.51  461.85
   1   4  1767297.90  905.65
   1   4  1814316.93  197.90
   1   4  19 8605.00  214.96
   1   4  2023405.50  436.99
   1   5 -19 4031.82  382.14
   1   5 -18 2147.90   65.66
   1   5 -17 3719.09   87.50
   1   5 -16 1839.55   68.04
   1   5 -15 6660.82  164.90
   1   5 -14 3889.24  112.03
   1   5 -1315060.36  362.41
   1   5 -1213008.53  283.88
   1   5 -11 4217.38  123.37
   1   5 -10 5938.75  258.33
   1   5  -912473.62  518.88
   1   5  -842867.34  947.66
   1   5  -7  562.37  149.19
   1   5  -616905.65  533.40
   1   5  -5 3297.75  163.02
   1   5  -410468.96  338.11
   1   5  -330297.53  610.34
   1   5  -270966.52 1073.48
   1   5  -111180.20  210.58
   1   5   063563.89  947.83
   1   5   111597.11  284.21
   1   5   267759.33 1109.76
   1   5   330026.15  665.48
   1   5   411196.42 1043.30
   1   5   5 5034.59 3556.13
   1   5   618628.03  480.99
   1   5   7 1319.72  111.81
   1   5   844381.66  915.35
   1   5   913873.73  535.41
   1   5  10 7172.21  275.79
   1   5  11 5178.72  103.43
   1   5  1212999.47  194.25
   1   5  1313532.41  273.65
   1   5  14 4292.54  178.67
   1   5  15 6271.58  133.38
   1   5  16 1515.27   68.43
   1   5  17 4196.95  131.01
   1   5  18 2282.47   87.86
   1   5  19 4347.41   91.52
   1   6 -19 7003.22  127.05
   1   6 -1846291.88  705.42
   1   6 -17  245.07   35.82
   1   6 -1619298.43  288.55
   1   6 -1532954.08  454.48
   1   6 -1434334.45  486.32
   1   6 -13 7959.56  155.90
   1   6 -1235278.78  516.86
   1   6 -1150352.08  721.41
   1   6 -1048262.53  718.56
   1   6  -9102309.0  2607.0
   1   6  -8150043.0  3776.6
   1   6  -772146.90 1919.71
   1   6  -666735.80 1807.85
   1   6  -5234724.0  6025.3
   1   6  -492002.80 2521.85
   1   6  -3210464.1  4013.0
   1   6  -2154646.1  2954.6
   1   6  -1144575.2  2693.8
   1   6   075768.66 1222.18
   1   6   1143775.2  2669.9
   1   6   2149861.7  2797.3
   1   6   3207676.7  3926.7
   1   6   492478.45 3225.48
   1   6   5242087.8  4447.9
   1   6   668841.33 3014.01
   1   6   774213.02 1460.46
   1   6   8152960.2  2786.8
   1   6   9100553.8  1848.3
   1   6  1048795.63  548.39
   1   6  1149644.81  535.64
   1   6  1236596.52  452.88
   1   6  13 7941.94  161.03
   1   6  1436573.34  519.70
   1   6  1532201.45  489.16
   1   6  1619154.39  447.44
   1   6  17  297.99   43.97
   1   6  1848826.17  599.81
   1   6  19 6204.91  181.36
   1   7 -1814189.95  740.44
   1   7 -17  530.00   35.14
   1   7 -16 3101.93   89.32
   1   7 -1524988.26  350.81
   1   7 -14 7911.19  172.21
   1   7 -13 2325.97   82.59
   1   7 -1225105.19  333.43
   1   7 -11 2681.23   84.91
   1   7 -10 7735.10  150.98
   1   7  -910814.28  198.79
   1   7  -837536.35  586.71
   1   7  -7 7865.17  428.65
   1   7  -648664.00 1408.95
   1   7  -533461.50 1071.71
   1   7  -452818.10 1544.75
   1   7  -3 7213.10  417.13
   1   7  -263539.10 2483.25
   1   7  -127713.97  611.07
   1   7   030616.56  579.72
   1   7   128605.34  548.71
   1   7   265186.23 1238.70
   1   7   3 7343.99  272.26
   1   7   456194.73 1212.77
   1   7   535290.37 1688.07
   1   7   650393.92 1920.01
   1   7   7 8448.39  296.22
   1   7   837822.73  570.05
   1   7   910393.12  198.20
   1   7  10 7419.45  156.31
   1   7  11 3186.17   94.29
   1   7  1223797.43  346.35
   1   7  13 2713.41   94.06
   1   7  14 8281.74  178.41
   1   7  1524233.45  381.39
   1   7  16 3098.99  123.71
   1   7  17  627.37   65.69
   1   7  1814686.08  232.09
   1   8 -1714845.53  201.76
   1   8 -1633906.78  390.63
   1   8 -1512398.62  223.75
   1   8 -1421088.89  463.60
   1   8 -13 4575.65  104.95
   1   8 -1225269.87  326.59
   1   8 -1112779.71  204.24
   1   8 -1030836.61  392.43
   1   8  -974484.66  906.96
   1   8  -8 4848.09  130.76
   1   8  -777451.55  959.74
   1   8  -6142821.9  1726.8
   1   8  -518300.90  711.69
   1   8  -496513.60 2598.87
   1   8  -337283.10 1197.76
   1   8  -2 7489.47  289.78
   1   8  -197117.79 1840.22
   1   8   083763.50 1354.89
   1   8   199823.74 1593.74
   1   8   2 7928.14  282.58
   1   8   340070.26  934.76
   1   8   4101953.9  1853.5
   1   8   519466.95  527.30
   1   8   6141384.5  1540.4
   1   8   777154.62  865.90
   1   8   8 4972.57  124.46
   1   8   977126.46  953.28
   1   8  1032354.88  454.56
   1   8  1113529.69  265.19
   1   8  1226222.26  438.73
   1   8  13 4964.69  121.20
   1   8  1421380.00  323.65
   1   8  1512178.66  191.76
   1   8  1634996.43  589.65
   1   8  1719672.74  315.81
   1   9 -16  264.46   31.57
   1   9 -15 1707.74   52.48
   1   9 -1423677.18  290.87
   1   9 -13 4118.06   98.15
   1   9 -1213855.43  225.02
   1   9 -1145248.26  562.44
   1   9 -10 1400.06   77.18
   1   9  -912496.57  252.51
   1   9  -866764.75  819.24
   1   9  -750026.77  682.41
   1   9  -6 5923.05  135.30
   1   9  -571690.36  793.57
   1   9  -420482.18  280.57
   1   9  -337164.87  428.16
   1   9  -262334.37  886.29
   1   9  -189817.41 1401.89
   1   9   0 5356.99  159.25
   1   9   186078.16 1299.15
   1   9   263064.81 1009.92
   1   9   334789.39  471.25
   1   9   420498.88  310.01
   1   9   571980.48  831.62
   1   9   6 6873.00  145.92
   1   9   752312.89  626.31
   1   9   867683.64  784.70
   1   9   912909.08  215.49
   1   9  10 1549.98   61.50
   1   9  1145322.56  526.35
   1   9  1213990.54  195.84
   1   9  13 4119.97  103.13
   1   9  1424366.55  376.16
   1   9  15 1712.95   97.07
   1   9  16  276.96   25.59
   1  10 -1521714.70  430.03
   1  10 -14  299.47   33.94
   1  10 -13 2792.55   73.80
   1  10 -12 9976.35  154.39
   1  10 -1129021.33  430.03
   1  10 -10  514.91   57.72
   1  10  -911909.26  212.44
   1  10  -8104786.3  1292.1
   1  10  -712117.82  241.29
   1  10  -617346.34  251.28
   1  10  -585777.25 1007.81
   1  10  -4 1797.89   74.26
   1  10  -3  999.18   86.21
   1  10  -2137886.4  1958.0
   1  10  -119801.12  431.81
   1  10   0 4427.97  157.77
   1  10   122152.16  482.92
   1  10   2136701.1  2222.3
   1  10   3 1131.16   53.97
   1  10   4 1744.34   72.60
   1  10   586342.17 1025.70
   1  10   618608.97  300.10
   1  10   713095.38  217.82
   1  10   8105760.5  1157.7
   1  10   911316.18  205.48
   1  10  10  358.97   44.93
   1  10  1129405.79  413.77
   1  10  12 9530.59  172.80
   1  10  13 2786.02   93.60
   1  10  14  383.85   30.07
   1  10  1522410.10  258.47
   1  11 -13 2377.53   71.82
   1  11 -1221077.72  314.16
   1  11 -11 5336.92  125.10
   1  11 -1035017.78  459.75
   1  11  -917138.16  316.61
   1  11  -810970.94  214.67
   1  11  -723461.55  357.93
   1  11  -629513.20  429.16
   1  11  -5 9883.81  179.15
   1  11  -446739.72  615.57
   1  11  -316026.73  296.59
   1  11  -233331.39  462.93
   1  11  -112073.48  230.85
   1  11   0 6921.49  216.33
   1  11   113419.32  271.20
   1  11   231134.96  429.77
   1  11   315469.54  418.91
   1  11   446649.64  727.57
   1  11   510069.76  202.39
   1  11   628727.31  417.36
   1  11   724087.32  322.98
   1  11   810286.91  166.14
   1  11   917213.94  230.47
   1  11  1032848.31  370.58
   1  11  11 5161.54   91.26
   1  11  1219919.65  245.23
   1  11  13 2291.64   83.05
   1  12 -12 3454.45  140.44
   1  12 -11 8077.74  178.54
   1  12 -10 1839.40  116.96
   1  12  -920856.27  323.42
   1  12  -841854.27  575.53
   1  12  -721931.81  545.93
   1  12  -637932.54  726.06
   1  12  -5 3842.11  111.07
   1  12  -4 5448.44  129.17
   1  12  -312904.17  219.16
   1  12  -222546.47  486.51
   1  12  -119024.11  408.15
   1  12   0 1446.36  106.27
   1  12   119040.25  331.16
   1  12   222170.40  435.28
   1  12   312756.34  260.66
   1  12   4 6226.73  161.29
   1  12   5 3450.45  119.30
   1  12   636713.93  522.59
   1  12   721637.64  346.67
   1  12   838991.12  485.84
   1  12   918586.59  234.09
   1  12  10 1527.52   60.38
   1  12  11 7605.40  180.14
   1  12  12 3182.87  124.26
   1  13  -9 2884.63   94.43
   1  13  -8 8717.18  193.09
   1  13  -729612.90  465.90
   1  13  -619300.89  645.42
   1  13  -511873.62  345.14
   1  13  -4 2325.89   73.66
   1  13  -314902.41  350.64
   1  13  -2 8430.13  215.67
   1  13  -122339.61  578.33
   1  13   021958.42  383.87
   1  13   122250.31  339.67
   1  13   2 8321.29  152.38
   1  13   314538.63  217.80
   1  13   4 2306.13   64.66
   1  13   512142.08  177.62
   1  13   617656.28  253.83
   1  13   725740.87  397.58
   1  13   8 8146.70  144.02
   1  13   9 2458.42   66.95
   1  14  -616317.30  302.08
   1  14  -5 4623.26  368.01
   1  14  -4 2672.30  221.61
   1  14  -3 7936.53  605.53
   1  14  -217930.00 3710.37
   1  14  -1  -24.45   12.92
   1  14   0 2197.05   81.50
   1  14   1 3303.09  122.05
   1  14   216815.46  228.35
   1  14   3 7777.42  166.40
   1  14   4 2716.48   88.85
   1  14   5 4482.89  143.14
   1  14   614887.48  663.29
   2   0   0182339.0  4809.3
   2   0   1 3723.41  110.55
   2   0   217295.10  330.71
   2   0   3695957.0  7612.7
   2   0   4 1129.93  135.49
   2   0   517395.60  725.57
   2   0   625692.20 1015.20
   2   0   7293512.0  8507.0
   2   0   859494.60 2145.95
   2   0   926773.30 1220.03
   2   0  10 3341.60  377.41
   2   0  11 6958.05  509.07
   2   0  12  597.61   60.57
   2   0  13338965.7  3677.1
   2   0  1417328.75  425.14
   2   0  1512036.85  279.80
   2   0  16  163.50   33.72
   2   0  17 5296.94  101.30
   2   0  18 5742.06  123.00
   2   0  1927515.50  454.59
   2   0  20   74.06   21.05
   2   1 -2011449.05  183.70
   2   1 -19  491.40   35.81
   2   1 -1821105.45  293.90
   2   1 -17 4541.06  106.89
   2   1 -16 1131.55   76.56
   2   1 -1529353.35  549.04
   2   1 -1416533.87  285.65
   2   1 -1314272.17  297.63
   2   1 -1216311.22  297.37
   2   1 -11 7664.83  333.65
   2   1 -1018790.75  573.30
   2   1  -980040.87 2278.39
   2   1  -871636.76 1554.87
   2   1  -7 9206.44  350.03
   2   1  -610434.25  507.63
   2   1  -593056.49 1840.34
   2   1  -448151.23  984.01
   2   1  -3 2215.62  320.81
   2   1  -289379.55 1231.79
   2   1  -1167800.2  3157.3
   2   1   0 3259.07  100.15
   2   1   1179150.0  4903.2
   2   1   295471.81 1822.59
   2   1   3 4094.66 2411.01
   2   1   451209.60 1469.62
   2   1   592450.00 2650.12
   2   1   611032.30  591.84
   2   1   7 9044.28  577.75
   2   1   871124.50 2483.91
   2   1   979160.70 2724.98
   2   1  1018333.00  906.40
   2   1  11 8176.24  558.59
   2   1  1215334.25  396.82
   2   1  1314372.16  247.20
   2   1  1416219.09  313.02
   2   1  1527288.62  364.20
   2   1  16 1312.67   60.83
   2   1  17 4342.74  118.05
   2   1  1820596.74  323.85
   2   1  19  489.85   34.46
   2   1  2011666.51  179.25
   2   2 -20   74.18   21.17
   2   2 -1914900.01  347.51
   2   2 -1820838.48  293.60
   2   2 -1740780.20  551.07
   2   2 -16 8394.77  177.61
   2   2 -1583578.00 1209.78
   2   2 -1415804.20  304.44
   2   2 -13 3883.77  121.06
   2   2 -1225073.89  361.34
   2   2 -11131543.0  2660.0
   2   2 -1033618.81 1097.60
   2   2  -9266958.2  5383.8
   2   2  -881464.58 1748.75
   2   2  -7108134.4  2248.3
   2   2  -6122567.3  2498.8
   2   2  -561599.30 1503.55
   2   2  -446472.92  978.14
   2   2  -361495.96 1207.15
   2   2  -2100504.4  1549.0
   2   2  -1548511.4  7489.4
   2   2   0261331.1  5274.1
   2   2   1546492.3  7346.2
   2   2   2108784.1  2094.2
   2   2   365951.29 1317.47
   2   2   446550.76 1304.45
   2   2   563439.70 1853.82
   2   2   6143834.0  4257.0
   2   2   7121512.0  3788.1
   2   2   889614.50 2997.68
   2   2   9287949.0  7945.3
   2   2  1037960.20 1415.21
   2   2  11136919.0  4009.8
   2   2  1223672.98  397.82
   2   2  13 3950.98  100.29
   2   2  1415078.60  339.72
   2   2  1582507.22  986.01
   2   2  16 8124.43  169.20
   2   2  1741655.83  589.02
   2   2  1820281.09  327.43
   2   2  1915131.17  213.27
   2   2  20   72.37   34.67
   2   3 -20  485.90   34.84
   2   3 -19 4623.25   93.88
   2   3 -18 3854.73  102.43
   2   3 -17 6607.71  143.66
   2   3 -1634439.94  597.58
   2   3 -1526474.47  387.78
   2   3 -14 3057.40  137.48
   2   3 -13  161.12   45.07
   2   3 -1213957.90  385.63
   2   3 -1153795.80 1567.77
   2   3 -10 2853.21  197.74
   2   3  -9100428.9  2604.0
   2   3  -8 2689.38  195.60
   2   3  -735205.82 1089.54
   2   3  -622963.60  615.40
   2   3  -5117836.3  3539.3
   2   3  -412663.24  391.67
   2   3  -355955.87 1111.17
   2   3  -2 5077.92  173.58
   2   3  -1133935.3  2581.7
   2   3   026863.49  705.71
   2   3   1145736.0  2293.2
   2   3   2 5318.93  157.25
   2   3   367086.16 1204.48
   2   3   414271.36  363.73
   2   3   5131411.5  2531.5
   2   3   623238.14  734.46
   2   3   739957.96 1878.90
   2   3   8 2572.31  171.59
   2   3   9114597.6  4290.7
   2   3  10 3221.97  194.50
   2   3  1157234.57 1497.48
   2   3  1212813.95  205.51
   2   3  13  274.97   31.10
   2   3  14 2664.55   87.13
   2   3  1523224.77  332.45
   2   3  1633027.45  417.65
   2   3  17 7231.87  132.12
   2   3  18 3660.65  111.54
   2   3  19 4920.30  100.25
   2   3  20  496.83   53.05
   2   4 -19 5993.10  120.11
   2   4 -1816590.22  230.89
   2   4 -1711265.52  234.37
   2   4 -16 8757.93  196.02
   2   4 -1512319.34  227.35
   2   4 -1414451.35  257.04
   2   4 -13130067.5  2191.9
   2   4 -1258838.41 1023.41
   2   4 -1195321.33 1702.15
   2   4 -10 8785.01  345.86
   2   4  -9 2772.18  191.57
   2   4  -877597.07 4289.10
   2   4  -774904.53 4432.84
   2   4  -6 7075.19  427.48
   2   4  -560740.92 3436.85
   2   4  -4 1833.87  130.07
   2   4  -3212338.0  4183.9
   2   4  -283125.66 1621.29
   2   4  -1155671.8  3032.5
   2   4   026489.52  472.93
   2   4   1169126.8  2700.2
   2   4   288147.61 1613.42
   2   4   3235284.0  4574.5
   2   4   4 2446.46  152.79
   2   4   568433.50 1323.38
   2   4   6 8198.16  286.69
   2   4   785824.32 2187.36
   2   4   882190.29 2101.02
   2   4   9 3487.58  161.70
   2   4  10 9709.85  329.82
   2   4  1193117.64 1170.09
   2   4  1250932.54  661.04
   2   4  13115052.6  1605.5
   2   4  1414321.08  221.11
   2   4  1511332.16  201.56
   2   4  16 8543.95  208.08
   2   4  1710697.99  202.66
   2   4  1817930.67  272.18
   2   4  19 6484.20  161.29
   2   5 -19  481.82   29.33
   2   5 -1827680.16  632.84
   2   5 -1714192.74  256.45
   2   5 -16 8231.84  231.41
   2   5 -1534136.67  493.18
   2   5 -1414909.83  333.04
   2   5 -1313974.97  264.15
   2   5 -1223876.64  380.85
   2   5 -1130156.43  560.99
   2   5 -1041751.02  943.99
   2   5  -933130.26 1751.89
   2   5  -826255.48 1270.59
   2   5  -742202.77 2115.18
   2   5  -6 1561.91  142.55
   2   5  -576037.44 5106.73
   2   5  -430228.36  595.25
   2   5  -320479.01  432.88
   2   5  -241478.83  735.79
   2   5  -1136441.9  2654.9
   2   5   0  599.55   67.97
   2   5   1144900.1  2297.5
   2   5   244896.44  790.13
   2   5   327343.98  784.21
   2   5   433801.65  730.31
   2   5   584222.67 1599.21
   2   5   6 1912.89  136.81
   2   5   746282.11  941.38
   2   5   827421.04  785.01
   2   5   934917.36  758.49
   2   5  1043635.57  562.08
   2   5  1130953.58  450.69
   2   5  1224295.59  437.17
   2   5  1313861.94  300.62
   2   5  1413896.21  240.75
   2   5  1534153.18  478.72
   2   5  16 8688.68  162.13
   2   5  1714367.97  223.30
   2   5  1830153.97  474.78
   2   5  19  501.89   41.60
   2   6 -18 6852.86  189.18
   2   6 -17 1062.68   62.88
   2   6 -1616293.20  289.92
   2   6 -1558151.81  808.38
   2   6 -14 3075.94  122.36
   2   6 -1361064.84 1198.04
   2   6 -1219666.02  276.38
   2   6 -1110503.51  194.69
   2   6 -1031548.06  587.42
   2   6  -927371.82  554.72
   2   6  -8 6766.54  404.03
   2   6  -726372.10  893.83
   2   6  -659501.00 1684.79
   2   6  -544492.90 1355.08
   2   6  -428142.10  971.65
   2   6  -393572.28 2142.54
   2   6  -215388.05  732.52
   2   6  -185431.78 1694.79
   2   6   034537.37  645.85
   2   6   185008.52 1700.47
   2   6   215503.48  430.77
   2   6   396705.76 2138.88
   2   6   430082.64  675.85
   2   6   546188.21 1054.97
   2   6   664517.98 1843.36
   2   6   730547.41 2116.32
   2   6   8 7641.35  408.82
   2   6   927573.26  355.35
   2   6  1033321.89  436.35
   2   6  1111322.64  228.70
   2   6  1219134.68  322.94
   2   6  1363364.69  818.74
   2   6  14 2806.48  102.71
   2   6  1553900.01  677.36
   2   6  1615136.62  298.77
   2   6  17 1123.73   51.09
   2   6  18 6792.21  133.10
   2   7 -18  212.85   34.32
   2   7 -1711842.08  192.38
   2   7 -16 8059.96  171.19
   2   7 -15 3343.74   98.68
   2   7 -1419037.45  294.16
   2   7 -13 2415.90   93.16
   2   7 -12 6420.78  142.37
   2   7 -1150884.64  599.86
   2   7 -10 9290.17  168.17
   2   7  -9 2197.48   98.79
   2   7  -818603.38  295.26
   2   7  -7 9556.76  228.39
   2   7  -6 5633.02  378.99
   2   7  -526566.10  927.63
   2   7  -448482.10 1482.77
   2   7  -317770.75  505.61
   2   7  -232187.94  767.85
   2   7  -156247.75 1565.37
   2   7   0 2399.08  229.74
   2   7   153081.81 1773.71
   2   7   232478.40 1032.16
   2   7   317238.10  683.04
   2   7   448105.40 1411.76
   2   7   528196.10  942.36
   2   7   6 7444.24  425.70
   2   7   710160.21  177.58
   2   7   819938.78  269.02
   2   7   9 2107.61   94.29
   2   7  1010132.13  200.04
   2   7  1151352.73  626.75
   2   7  12 6228.94  130.63
   2   7  13 1877.79   88.71
   2   7  1419227.07  294.33
   2   7  15 2944.61   94.13
   2   7  16 8194.41  157.80
   2   7  1712544.00  181.33
   2   7  18  277.17   41.81
   2   8 -1725242.05  852.34
   2   8 -16 5620.27  120.99
   2   8 -15 5055.98  157.53
   2   8 -1412685.24  252.63
   2   8 -1334139.89  486.24
   2   8 -1211341.17  180.66
   2   8 -1191545.52  993.07
   2   8 -1021234.88  275.76
   2   8  -937925.98  440.32
   2   8  -8 1254.85   56.82
   2   8  -743097.04  608.07
   2   8  -612849.55  200.86
   2   8  -518464.37  259.43
   2   8  -423848.32  339.69
   2   8  -3 6163.26  425.59
   2   8  -213641.07  484.39
   2   8  -1169278.2  4117.0
   2   8   0 1611.25  226.95
   2   8   1167215.0  4192.1
   2   8   213837.40  575.75
   2   8   3 6236.48  384.02
   2   8   423166.37 1013.73
   2   8   519383.85  321.99
   2   8   613455.70  194.95
   2   8   743346.49  489.84
   2   8   8 1358.71   80.01
   2   8   938422.23  452.15
   2   8  1020208.50  283.16
   2   8  1190929.94  956.16
   2   8  1212397.61  216.85
   2   8  1333689.91  418.81
   2   8  1413251.23  199.31
   2   8  15 4919.30  118.61
   2   8  16 5169.10   95.86
   2   8  1729130.18  399.22
   2   9 -16 7065.52  199.69
   2   9 -15 5055.48  252.29
   2   9 -14 3083.70   88.42
   2   9 -1314863.23  204.18
   2   9 -12 4144.98   93.55
   2   9 -1119477.25  261.34
   2   9 -1018303.69  283.84
   2   9  -9 9015.99  164.40
   2   9  -8 6139.66  142.22
   2   9  -711489.56  209.71
   2   9  -6 5494.23  124.60
   2   9  -5  755.65   65.71
   2   9  -417236.87  291.56
   2   9  -3 3083.67   88.60
   2   9  -210776.89  215.89
   2   9  -123067.56  365.74
   2   9   0 6717.85  207.45
   2   9   121519.11  464.23
   2   9   210479.82  192.56
   2   9   3 3484.84  105.53
   2   9   416288.31  237.02
   2   9   5  590.01   48.49
   2   9   6 5719.12  129.58
   2   9   711767.12  200.51
   2   9   8 6705.00  129.49
   2   9   9 8973.20  162.76
   2   9  1017818.19  229.28
   2   9  1119558.36  238.16
   2   9  12 4020.83   85.48
   2   9  1314975.84  250.26
   2   9  14 3698.99   87.47
   2   9  15 5343.91   98.34
   2   9  16 7517.36  146.75
   2  10 -14 9937.26  198.11
   2  10 -1347028.17  964.99
   2  10 -1210721.01  189.43
   2  10 -11 8046.07  166.45
   2  10 -10 1216.39   72.23
   2  10  -911420.94  240.24
   2  10  -865988.73  839.30
   2  10  -721839.42  345.72
   2  10  -610245.08  212.83
   2  10  -515081.36  249.28
   2  10  -4 9082.32  183.05
   2  10  -366234.96  862.06
   2  10  -268278.72  858.03
   2  10  -153139.53  791.89
   2  10   0 5011.79  185.44
   2  10   152071.90  817.09
   2  10   270681.24 1036.91
   2  10   370789.02 1090.55
   2  10   4 8783.39  151.76
   2  10   515871.99  224.22
   2  10   610821.68  172.16
   2  10   722979.48  290.34
   2  10   864018.40  679.32
   2  10   910604.82  154.67
   2  10  10 1250.62   47.72
   2  10  11 7307.84  121.11
   2  10  1210326.87  153.38
   2  10  1346301.64  532.80
   2  10  1410153.13  153.91
   2  11 -1320635.67  329.90
   2  11 -12  839.28   52.19
   2  11 -1111919.66  206.69
   2  11 -10 1807.06  105.78
   2  11  -936385.91  527.82
   2  11  -8 2053.84   81.80
   2  11  -714583.13  253.26
   2  11  -6 4829.11  129.54
   2  11  -510897.97  203.37
   2  11  -4 6092.98  136.09
   2  11  -381557.25 1036.53
   2  11  -2 2123.10   91.34
   2  11  -116629.44  242.39
   2  11   0 1313.12   86.50
   2  11   116507.61  327.65
   2  11   2 1936.48  172.28
   2  11   388479.26 1187.87
   2  11   4 6237.82  126.31
   2  11   511924.18  213.92
   2  11   6 4744.07  106.18
   2  11   714087.49  192.68
   2  11   8 2040.02   56.51
   2  11   933349.67  360.58
   2  11  10 1693.20   55.95
   2  11  1111138.60  150.98
   2  11  12  624.97   44.30
   2  11  1321009.83  335.37
   2  12 -1117408.17  822.53
   2  12 -1012674.91  204.66
   2  12  -9 2451.00   78.09
   2  12  -814925.44  257.96
   2  12  -7 4253.96  122.22
   2  12  -637777.27  532.31
   2  12  -5 6280.29  155.39
   2  12  -452696.07  806.47
   2  12  -320721.74  393.42
   2  12  -238839.85  628.81
   2  12  -128091.58  456.92
   2  12   0  286.14   51.99
   2  12   128223.76  451.07
   2  12   241771.50  690.22
   2  12   322976.15  431.28
   2  12   451661.67  615.51
   2  12   5 5511.77  109.79
   2  12   635085.02  434.23
   2  12   7 4015.48   89.22
   2  12   813522.01  171.04
   2  12   9 2237.47   64.87
   2  12  1011072.61  156.18
   2  12  1116056.78  964.19
   2  13  -9 4830.94  153.68
   2  13  -8  380.66   32.22
   2  13  -7  408.29   40.83
   2  13  -6 5733.58  160.19
   2  13  -529263.87  475.17
   2  13  -410751.11  268.19
   2  13  -3 5757.34  203.82
   2  13  -2 2573.13  225.28
   2  13  -124829.50 1405.58
   2  13   0 2847.28   95.03
   2  13   124457.72  415.90
   2  13   2 2999.10  101.38
   2  13   3 4597.66  128.70
   2  13   411256.46  235.11
   2  13   525691.76  359.44
   2  13   6 4953.24  118.27
   2  13   7  372.96   34.37
   2  13   8  296.41   50.20
   2  13   9 3794.64  357.20
   2  14  -5 3289.39  110.34
   2  14  -4 6916.56  476.57
   2  14  -3 4352.28  388.05
   2  14  -231905.60 5697.34
   2  14  -122367.10 6269.39
   2  14   011073.92 5155.65
   2  14   122939.41 1254.41
   2  14   231688.50 1091.85
   2  14   3 4054.38  106.82
   2  14   4 5551.96  115.96
   2  14   5 2914.18  112.85
   3   0   132073.45  615.07
   3   0   2125612.3  2298.0
   3   0   339624.93 1343.17
   3   0   4 1222.65   94.27
   3   0   5289926.1  5470.8
   3   0   6 6321.14  326.83
   3   0   727958.21 1200.52
   3   0   856855.72 1912.73
   3   0   9 4119.91  234.05
   3   0  10 6817.42  566.90
   3   0  1161429.38  901.93
   3   0  12 2908.23  151.90
   3   0  13 3013.47  139.49
   3   0  14  240.84   33.84
   3   0  1562882.40 1088.27
   3   0  16  619.20   45.56
   3   0  17 7097.62  159.83
   3   0  18  334.44   72.01
   3   0  19 3444.12  127.82
   3   1 -1920661.17  362.71
   3   1 -1821065.40  390.20
   3   1 -17 3210.62   86.77
   3   1 -16 7963.16  226.94
   3   1 -15 7293.30  240.75
   3   1 -1413484.90  272.56
   3   1 -1330987.85  492.65
   3   1 -1242410.37  577.62
   3   1 -1157200.78  775.32
   3   1 -10  653.37  102.55
   3   1  -941577.94 1942.13
   3   1  -833649.93 1719.10
   3   1  -714368.22  450.40
   3   1  -621215.85  569.06
   3   1  -5151691.6  3042.0
   3   1  -4 6202.98  197.33
   3   1  -351326.44  837.87
   3   1  -229011.81  567.08
   3   1  -129388.97  488.28
   3   1   031438.49 1015.27
   3   1   129562.65  557.60
   3   1   230455.84 1483.72
   3   1   353927.67 2231.12
   3   1   4 7366.83  296.06
   3   1   5156184.6  7121.4
   3   1   619290.72 1136.35
   3   1   713795.40 1130.73
   3   1   833031.70 1291.59
   3   1   939604.30 1565.35
   3   1  10  166.14  144.08
   3   1  1151668.50  866.49
   3   1  1239484.07  601.75
   3   1  1328939.34  512.34
   3   1  1412653.45  218.14
   3   1  15 6929.20  158.35
   3   1  16 7603.22  155.99
   3   1  17 3414.56   92.60
   3   1  1821048.21  334.28
   3   1  1921233.04  312.81
   3   2 -1927998.43 1368.28
   3   2 -18  779.73   40.43
   3   2 -1731801.78  442.82
   3   2 -1657834.23  739.61
   3   2 -15  581.06   78.12
   3   2 -1437391.37  560.07
   3   2 -1312359.08  245.82
   3   2 -1233806.95  505.39
   3   2 -1120816.61  324.57
   3   2 -1033918.56 2831.15
   3   2  -987943.64 3785.71
   3   2  -882789.37 4564.21
   3   2  -7108498.9  4983.5
   3   2  -698238.00 4630.63
   3   2  -523220.50  472.23
   3   2  -440555.52  677.71
   3   2  -377202.98 1239.59
   3   2  -267419.79 2121.50
   3   2  -132530.29  576.61
   3   2   075830.56 1998.34
   3   2   134972.95 1278.27
   3   2   267532.41 2461.63
   3   2   387613.04 1864.18
   3   2   439933.39  986.50
   3   2   522174.15 1001.62
   3   2   6100175.4  3153.7
   3   2   7111957.7  5425.7
   3   2   887400.23 5184.69
   3   2   991307.87 2895.69
   3   2  1032070.96  885.74
   3   2  1118197.02  329.74
   3   2  1231310.43  473.36
   3   2  1311294.45  225.57
   3   2  1436496.09  594.00
   3   2  15  409.92   49.32
   3   2  1654546.51  737.15
   3   2  1731243.29  574.06
   3   2  18  906.30   44.69
   3   2  1930353.30  448.66
   3   3 -1922265.08  698.39
   3   3 -18 4751.16   91.91
   3   3 -17 5145.07  110.00
   3   3 -1616252.68  282.77
   3   3 -15 7211.87  299.50
   3   3 -1427495.55  499.00
   3   3 -13 5399.39  145.40
   3   3 -12 4560.51  128.66
   3   3 -11 4183.12  152.22
   3   3 -10 5074.85  223.36
   3   3  -976343.8511067.72
   3   3  -8 3536.77  234.35
   3   3  -729707.24 1242.98
   3   3  -637308.84 1426.84
   3   3  -511127.43  378.61
   3   3  -447195.23  997.45
   3   3  -338349.78  687.85
   3   3  -2 6660.06  209.88
   3   3  -113139.27  309.28
   3   3   0 1924.88  130.26
   3   3   114753.43  725.30
   3   3   2 6640.78  356.61
   3   3   343287.62 1794.80
   3   3   448621.00 2895.55
   3   3   512376.10  371.06
   3   3   641254.17  742.78
   3   3   733263.61  726.75
   3   3   8 3716.04  198.56
   3   3   988021.82 1741.11
   3   3  10 4797.66  163.19
   3   3  11 3544.08   92.31
   3   3  12 4996.68  138.53
   3   3  13 4251.74   96.07
   3   3  1424526.11  441.19
   3   3  15 6078.32  162.50
   3   3  1615268.31  288.84
   3   3  17 5018.63  208.11
   3   3  18 5248.27  126.67
   3   3  1922137.65 4972.86
   3   4 -1912321.29  178.86
   3   4 -18  814.21   34.11
   3   4 -1718942.97  288.62
   3   4 -1611883.23  226.99
   3   4 -15 5689.30  214.91
   3   4 -14 6039.54  167.08
   3   4 -1320797.96  361.67
   3   4 -1220520.74  477.08
   3   4 -11  475.45   48.52
   3   4 -1054510.59  904.90
   3   4  -974733.66 3892.66
   3   4  -8 8187.54  580.50
   3   4  -7116859.3  6698.6
   3   4  -672417.77 5212.37
   3   4  -555487.85 3352.10
   3   4  -474231.52 1491.19
   3   4  -3311650.9  5681.7
   3   4  -210885.02  285.25
   3   4  -160631.36 1002.97
   3   4   068138.59 1617.04
   3   4   159949.65 2879.28
   3   4   210950.48  702.45
   3   4   3329003.2 13876.8
   3   4   481465.51 4979.97
   3   4   563236.84 2440.98
   3   4   682861.09 5130.51
   3   4   7133546.0 17310.0
   3   4   8 8850.43  378.24
   3   4   981853.01 2616.87
   3   4  1059350.79 1148.35
   3   4  11  499.35   86.03
   3   4  1217595.93  280.74
   3   4  1319443.21  359.87
   3   4  14 5208.42  122.97
   3   4  15 5301.87  159.98
   3   4  1611726.13  201.23
   3   4  1718517.74  256.19
   3   4  18  941.82   49.74
   3   4  1911785.60  275.14
   3   5 -1815731.92  236.16
   3   5 -17 9414.73  153.57
   3   5 -1610727.14  227.51
   3   5 -1517775.69  299.90
   3   5 -1410469.69  246.85
   3   5 -13 6191.46  190.50
   3   5 -1238447.04  627.32
   3   5 -1178955.53 1351.34
   3   5 -1010223.79  203.95
   3   5  -9 1006.53   66.63
   3   5  -827131.81 2186.99
   3   5  -710391.97  599.24
   3   5  -670993.4511132.07
   3   5  -5174663.5 22667.2
   3   5  -417943.06  509.76
   3   5  -311062.28  298.88
   3   5  -228077.40  566.07
   3   5  -147108.13  741.84
   3   5   0142003.5  2795.7
   3   5   144401.26  864.20
   3   5   226176.95 4347.91
   3   5   312470.20  600.58
   3   5   420819.50  839.46
   3   5   5196408.0  5430.2
   3   5   676480.00 2268.67
   3   5   711677.20  590.28
   3   5   829824.20 1053.86
   3   5   9 1172.22   57.18
   3   5  1010171.62  286.10
   3   5  1171024.51 1267.87
   3   5  1235066.10  553.44
   3   5  13 5422.26  125.17
   3   5  14 9592.25  168.73
   3   5  1516341.58  218.12
   3   5  1610353.43  155.33
   3   5  17 8770.16  152.29
   3   5  1816020.34  277.43
   3   6 -18 7408.76  121.59
   3   6 -1724808.57  297.74
   3   6 -16 5263.16  141.35
   3   6 -1545470.69  755.89
   3   6 -1424316.83  439.57
   3   6 -1312332.68  349.19
   3   6 -12 1986.60  111.66
   3   6 -1176791.08 1492.39
   3   6 -10 5009.57  202.46
   3   6  -9 4898.98  167.86
   3   6  -897708.93 1312.73
   3   6  -758733.91 1133.33
   3   6  -610136.10  518.80
   3   6  -5171311.0  4545.0
   3   6  -419488.40  772.03
   3   6  -319737.62  555.17
   3   6  -261957.78 1313.02
   3   6  -125237.76  657.87
   3   6   0  316.71  129.93
   3   6   125115.00  896.78
   3   6   262161.20 1822.27
   3   6   321672.10  839.54
   3   6   421078.30  841.90
   3   6   5177386.0  4754.9
   3   6   6 9832.59  526.57
   3   6   759900.64  804.46
   3   6   895892.37 1144.14
   3   6   9 5169.30  114.02
   3   6  10 4789.76  149.71
   3   6  1172869.06 1001.85
   3   6  12 1702.18   66.93
   3   6  1312444.96  187.76
   3   6  1422316.34  288.93
   3   6  1541373.27  493.37
   3   6  16 5078.09  103.81
   3   6  1723802.95  322.24
   3   6  18 7054.89  195.37
   3   7 -1712811.98  167.98
   3   7 -16  964.88   49.53
   3   7 -15 6303.37  164.09
   3   7 -1416932.20  309.05
   3   7 -1311979.54  326.06
   3   7 -12 4870.21  133.12
   3   7 -11 8114.91  162.87
   3   7 -10 3909.10  111.95
   3   7  -972505.67 1054.14
   3   7  -820540.53  346.98
   3   7  -784018.95 1044.35
   3   7  -6 1518.78   66.42
   3   7  -511416.98  224.57
   3   7  -4 9188.73  516.01
   3   7  -358713.15 1266.40
   3   7  -225869.49  685.39
   3   7  -179524.96 1654.40
   3   7   0  966.44  305.84
   3   7   175987.40 2122.29
   3   7   226117.40  933.41
   3   7   358867.10 1736.29
   3   7   4 9798.11  530.53
   3   7   511301.85  378.71
   3   7   6 1279.23   71.82
   3   7   785760.70  944.47
   3   7   819607.58  289.88
   3   7   970643.43  911.67
   3   7  10 3357.92  106.77
   3   7  11 7323.81  149.40
   3   7  12 4514.01  121.41
   3   7  1310799.43  193.13
   3   7  1416165.88  239.62
   3   7  15 6065.63  110.41
   3   7  16  998.95   40.98
   3   7  1713118.88  638.42
   3   8 -16  144.03   20.74
   3   8 -15 9187.59  215.36
   3   8 -14 9793.16  236.08
   3   8 -1324649.07  376.93
   3   8 -1224476.69  390.85
   3   8 -11 9616.63  160.41
   3   8 -1017956.47  253.54
   3   8  -9104387.1  1205.2
   3   8  -820325.48  292.25
   3   8  -7108116.3  1233.1
   3   8  -640489.43  522.73
   3   8  -5 7557.37  143.99
   3   8  -484434.94  955.53
   3   8  -3183135.7  2243.1
   3   8  -241583.51  612.27
   3   8  -195744.01 1168.25
   3   8   011127.47  214.64
   3   8   1101964.6  1268.7
   3   8   241785.62  524.15
   3   8   3193817.1  2240.8
   3   8   483848.17  928.11
   3   8   5 7570.92  146.62
   3   8   642918.33  500.13
   3   8   7110444.0  1304.1
   3   8   819888.63  285.28
   3   8   9100041.9  1108.6
   3   8  1016843.16  314.87
   3   8  11 9374.69  165.34
   3   8  1224574.50  332.36
   3   8  1323899.64  294.81
   3   8  14 9521.26  145.27
   3   8  15 8307.37  119.38
   3   8  16   91.49   16.32
   3   9 -1515356.36  248.99
   3   9 -1414961.37  496.59
   3   9 -13 3112.12   94.96
   3   9 -1219889.30  413.27
   3   9 -1124832.94  358.86
   3   9 -1023275.47  293.32
   3   9  -9  796.89   46.31
   3   9  -8 3644.74  103.15
   3   9  -714685.02  403.30
   3   9  -673450.53  948.68
   3   9  -556013.80  747.63
   3   9  -444326.31  594.94
   3   9  -3 3700.52  117.74
   3   9  -212475.97  268.72
   3   9  -1 3313.36   99.42
   3   9   0111979.0  1243.7
   3   9   1 3213.48   94.58
   3   9   213134.73  215.73
   3   9   3 3922.36  114.69
   3   9   444248.16  605.91
   3   9   556717.90  682.00
   3   9   677430.82  923.35
   3   9   714353.78  230.89
   3   9   8 3578.26   82.11
   3   9   9  854.66   41.23
   3   9  1024686.55  318.38
   3   9  1125387.00  291.73
   3   9  1219828.56  248.83
   3   9  13 2918.78   70.26
   3   9  1415818.86  260.22
   3   9  1514156.69  234.44
   3  10 -14  268.72   38.32
   3  10 -13  378.93   94.93
   3  10 -12 7077.30  203.84
   3  10 -1111698.41  230.81
   3  10 -1031673.66  413.49
   3  10  -9 2222.34   77.14
   3  10  -830373.33  393.06
   3  10  -724040.31  376.94
   3  10  -611508.37  222.72
   3  10  -545197.75  651.90
   3  10  -4 3214.00  118.44
   3  10  -3 5078.45  135.99
   3  10  -220092.05  346.93
   3  10  -1 8725.91  186.95
   3  10   036124.37  454.56
   3  10   1 7814.87  146.63
   3  10   221849.64  318.41
   3  10   3 4988.70  135.51
   3  10   4 3353.75  110.01
   3  10   545559.51  584.16
   3  10   611551.44  179.59
   3  10   724270.86  286.27
   3  10   828816.41  308.50
   3  10   9 1988.69   86.68
   3  10  1028649.90  349.85
   3  10  1110948.79  189.64
   3  10  12 6593.22  102.78
   3  10  13  280.40   30.14
   3  10  14  383.97   57.88
   3  11 -12 6096.99 1469.78
   3  11 -11 6474.87  149.83
   3  11 -10 3323.29  116.54
   3  11  -9 6514.67  134.99
   3  11  -830297.99  566.38
   3  11  -782314.66 1171.05
   3  11  -6 1404.29   68.20
   3  11  -5 4226.37  141.25
   3  11  -418431.94  301.52
   3  11  -310049.13  205.96
   3  11  -233512.80  477.66
   3  11  -146150.70  540.61
   3  11   0 2528.39   88.99
   3  11   146555.02  567.99
   3  11   233200.71  431.44
   3  11   3 9969.67  188.24
   3  11   417827.92  268.63
   3  11   5 4267.11  110.93
   3  11   6 1527.27   67.62
   3  11   777179.77  915.72
   3  11   826945.47  333.88
   3  11   9 6014.92  115.02
   3  11  10 3097.60   65.34
   3  11  11 6719.18  272.72
   3  11  12 6069.11  132.47
   3  12 -1010947.48  706.33
   3  12  -910342.00  373.14
   3  12  -8 9305.63  172.63
   3  12  -715135.20  269.05
   3  12  -616378.77  323.18
   3  12  -518178.82  458.04
   3  12  -452902.05 1205.64
   3  12  -334525.04  642.83
   3  12  -236861.28  515.91
   3  12  -1 2006.55   89.26
   3  12   0  268.52   49.35
   3  12   1 1833.04   81.11
   3  12   235626.43  611.55
   3  12   333300.20  608.21
   3  12   452497.09  637.03
   3  12   517270.09  226.48
   3  12   615220.11  203.24
   3  12   713629.22  180.16
   3  12   8 8289.84  135.44
   3  12   9 8674.42  217.00
   3  12  10 8820.25  213.26
   3  13  -721039.07  844.93
   3  13  -6 6080.93  138.76
   3  13  -5  875.21   46.73
   3  13  -4 1719.88   79.10
   3  13  -314770.78  904.73
   3  13  -2  468.62  502.16
   3  13  -1 9627.58  221.59
   3  13   013423.76  397.89
   3  13   1 8655.44  276.40
   3  13   2  726.02   50.79
   3  13   313523.29  373.68
   3  13   4 1525.56   65.53
   3  13   5  645.98   43.46
   3  13   6 5371.58  111.32
   3  13   718758.34  983.04
   3  14  -2 5139.92  150.89
   3  14  -1 5605.41  164.17
   3  14   0 1421.27   80.03
   3  14   1 5645.33  163.68
   3  14   2 5037.04  148.35
   4   0   0232239.0  5694.9
   4   0   117919.12  357.04
   4   0   227075.75  610.84
   4   0   3 8701.37  306.74
   4   0   4 6781.10  279.71
   4   0   5 6532.33  294.81
   4   0   630679.36  795.72
   4   0   7 1238.21  161.46
   4   0   820102.76 1504.74
   4   0   935606.73 3683.41
   4   0  10136313.8  2192.9
   4   0  11 2106.62   83.51
   4   0  1240955.77  706.64
   4   0  13  604.57   45.03
   4   0  14 4910.39  129.00
   4   0  15 8714.04  175.27
   4   0  1644575.79  626.36
   4   0  17 4081.92  119.01
   4   0  18 4628.06   99.72
   4   0  19 3818.20  467.26
   4   1 -19 1993.31   95.13
   4   1 -18  954.46   41.50
   4   1 -17 9384.58  183.14
   4   1 -1613316.85  268.53
   4   1 -1563774.41  752.56
   4   1 -1421052.48  310.49
   4   1 -13  454.53   66.78
   4   1 -1215760.29  319.29
   4   1 -1161922.96 1059.58
   4   1 -1072262.64 1106.89
   4   1  -973931.80 2493.08
   4   1  -822330.00  994.74
   4   1  -733479.10 1250.94
   4   1  -616352.70  749.73
   4   1  -5174280.0  4894.1
   4   1  -414862.70  649.77
   4   1  -340335.10 1255.37
   4   1  -268862.63 1345.60
   4   1  -1151919.7  2894.6
   4   1   0148689.0  3742.7
   4   1   1153050.3  4726.3
   4   1   272635.70 2486.16
   4   1   343524.14 2360.00
   4   1   414528.27  652.92
   4   1   5178380.9  9001.1
   4   1   616474.76  666.48
   4   1   733642.71 1849.05
   4   1   822173.53 2000.57
   4   1   970709.6012749.84
   4   1  1064384.85 1012.74
   4   1  1161576.69  845.46
   4   1  1215307.87  282.77
   4   1  13  303.54   50.93
   4   1  1422532.69  334.40
   4   1  1562291.84  870.42
   4   1  1613941.25  237.90
   4   1  17 9393.94  251.58
   4   1  18  777.76   46.02
   4   1  19 1483.07  202.68
   4   2 -1812987.76  187.28
   4   2 -17 4905.71   96.78
   4   2 -16  456.69   43.52
   4   2 -15 2073.65   87.86
   4   2 -1421526.01  351.52
   4   2 -13 7707.98  171.33
   4   2 -1298158.81 1644.44
   4   2 -1121115.38  353.20
   4   2 -1027071.82  463.35
   4   2  -920414.66  443.81
   4   2  -813325.90  729.15
   4   2  -728681.40 1129.86
   4   2  -6156630.0  4434.3
   4   2  -536814.50 1248.24
   4   2  -4212775.0  5691.7
   4   2  -314890.34  440.06
   4   2  -2183273.2  3511.2
   4   2  -146251.18  969.00
   4   2   085914.35 2465.81
   4   2   151860.32 2610.68
   4   2   2194034.1  7833.4
   4   2   315118.97  943.75
   4   2   4222260.3  8590.2
   4   2   538194.42 1678.75
   4   2   6166782.1  7137.2
   4   2   730046.25 2162.32
   4   2   812950.78  867.61
   4   2   919287.06  496.96
   4   2  1027306.87  457.82
   4   2  1119110.72  355.97
   4   2  1292087.53 1111.10
   4   2  13 7663.33  166.92
   4   2  1419045.36  288.52
   4   2  15 2123.60  108.34
   4   2  16  429.98   34.95
   4   2  17 5187.41  118.14
   4   2  1813379.00  227.37
   4   3 -18 6441.14  130.68
   4   3 -17 7973.63  129.43
   4   3 -16 5518.58  114.19
   4   3 -1515767.29  294.73
   4   3 -1457149.45  832.51
   4   3 -13 8561.82  272.01
   4   3 -1225025.47  533.76
   4   3 -1120173.56  347.45
   4   3 -10 3301.92  129.26
   4   3  -9 5417.47  164.72
   4   3  -826336.10 1127.16
   4   3  -713656.50  706.65
   4   3  -6 4249.42  361.55
   4   3  -560053.30 1820.66
   4   3  -450373.50 1540.01
   4   3  -3  248.12   55.17
   4   3  -264139.87 1302.65
   4   3  -199705.88 1844.78
   4   3   0 5403.13  254.28
   4   3   1119628.5 13697.5
   4   3   273847.97 3955.72
   4   3   3  273.32   76.83
   4   3   452640.75 3294.99
   4   3   568821.77 5158.37
   4   3   6 4883.52  273.79
   4   3   715517.79  815.03
   4   3   827028.75 1927.38
   4   3   9 5444.88  227.60
   4   3  10 3745.54  171.82
   4   3  1118298.04  321.65
   4   3  1222771.89  324.35
   4   3  13 8513.03  172.83
   4   3  1453835.11  639.44
   4   3  1514349.75  219.06
   4   3  16 5540.75  118.24
   4   3  17 7529.78  140.44
   4   3  18 5799.98  136.04
   4   4 -18 4093.65  126.65
   4   4 -17 1035.34   44.12
   4   4 -1617592.65  287.81
   4   4 -1529585.28  389.71
   4   4 -14 9348.88  170.66
   4   4 -1332639.44  551.01
   4   4 -1228581.49  449.10
   4   4 -1112955.15  415.95
   4   4 -1036070.10 1811.23
   4   4  -973611.67 3824.14
   4   4  -8 2971.54  177.20
   4   4  -717929.40  834.82
   4   4  -6  799.61  109.12
   4   4  -522696.32  610.18
   4   4  -4 4532.95  229.67
   4   4  -337959.11  712.23
   4   4  -252603.13 1033.15
   4   4  -153159.23  917.59
   4   4   035603.40 1732.09
   4   4   150105.76 3171.27
   4   4   257770.95 8793.14
   4   4   341917.68 2566.40
   4   4   4 5711.22  399.53
   4   4   526123.87 1792.47
   4   4   6 3112.34  224.07
   4   4   720416.50 1278.24
   4   4   8 2408.37   84.86
   4   4   974866.28 1030.97
   4   4  1032119.43  494.54
   4   4  1110902.76  213.32
   4   4  1226014.85  369.61
   4   4  1329867.02  372.68
   4   4  14 8400.07  166.44
   4   4  1526912.75  412.68
   4   4  1617070.27  277.59
   4   4  17 1122.67   52.25
   4   4  18 4593.22  153.99
   4   5 -17 2289.87   68.84
   4   5 -1617478.73  276.53
   4   5 -1527887.03  356.30
   4   5 -1416476.18  221.14
   4   5 -13 2529.88  122.66
   4   5 -1231169.18  636.72
   4   5 -11  922.53   83.66
   4   5 -1099441.00 1851.43
   4   5  -919599.29  560.99
   4   5  -856873.30 1498.74
   4   5  -7 2458.71   92.14
   4   5  -613811.77  264.23
   4   5  -514241.30  455.03
   4   5  -454749.50 1648.51
   4   5  -3  508.99   94.90
   4   5  -2110930.7  2216.8
   4   5  -128917.61  754.19
   4   5   0130601.4  5388.7
   4   5   128397.33 1656.15
   4   5   2111373.0  3113.5
   4   5   3  501.95  157.83
   4   5   456624.80 1789.72
   4   5   516205.60  762.65
   4   5   614081.49  314.49
   4   5   7 2703.46  115.06
   4   5   852392.18  799.68
   4   5   917853.97  413.25
   4   5  1091258.33 1214.03
   4   5  11  884.75   61.22
   4   5  1227579.14  473.82
   4   5  13 2561.63   93.40
   4   5  1415037.30  262.47
   4   5  1524994.12  398.17
   4   5  1616701.01  275.11
   4   5  17 2459.41   75.53
   4   6 -17 1637.99   50.06
   4   6 -16 8284.02  173.53
   4   6 -15 4641.27  124.19
   4   6 -1410568.57  180.26
   4   6 -1329379.39  473.65
   4   6 -1230827.45  615.98
   4   6 -11 9450.12  203.57
   4   6 -1026070.73  411.26
   4   6  -914687.05  321.39
   4   6  -8 5600.69  160.41
   4   6  -763253.16  789.96
   4   6  -6 1177.14  108.16
   4   6  -534736.86  565.10
   4   6  -417024.74  277.48
   4   6  -351059.02 2094.98
   4   6  -253395.50 1187.69
   4   6  -193484.50 1919.48
   4   6   038912.60 1288.07
   4   6   194123.80 2653.96
   4   6   255665.90 1711.07
   4   6   350936.90 1616.63
   4   6   417734.67  325.37
   4   6   536460.30  512.23
   4   6   6  681.82   55.96
   4   6   761985.26  819.35
   4   6   8 5439.79  147.25
   4   6   914729.34  259.15
   4   6  1024893.76  350.35
   4   6  11 8751.04  235.79
   4   6  1229817.04  379.57
   4   6  1326841.26  319.56
   4   6  14 9456.92  148.14
   4   6  15 4312.97   84.76
   4   6  16 7248.08  226.03
   4   6  17 1636.84   89.83
   4   7 -1612936.68  433.86
   4   7 -15 5141.28  124.26
   4   7 -1418123.34  266.56
   4   7 -1313591.92  233.77
   4   7 -12 9660.56  190.07
   4   7 -1114023.41  252.06
   4   7 -1024829.27  386.03
   4   7  -916663.63  331.14
   4   7  -817007.47  307.82
   4   7  -7 5963.71  146.70
   4   7  -6 2035.57   85.97
   4   7  -5 2329.52   91.40
   4   7  -421001.87  303.54
   4   7  -310700.77  183.59
   4   7  -218390.85  312.96
   4   7  -117761.15  255.37
   4   7   064255.12  700.32
   4   7   116452.61  243.72
   4   7   219231.13  322.71
   4   7   311450.91  194.11
   4   7   422019.50  316.18
   4   7   5 2134.25  110.89
   4   7   6 2066.45   91.17
   4   7   7 5511.62  148.17
   4   7   817203.13  322.77
   4   7   915117.74  254.26
   4   7  1023877.35  329.22
   4   7  1113415.18  186.97
   4   7  12 9064.23  146.57
   4   7  1312393.32  170.48
   4   7  1416510.84  223.47
   4   7  15 4492.23   86.94
   4   7  1613263.99  546.27
   4   8 -15 3943.87   86.02
   4   8 -1439386.64  446.76
   4   8 -1320527.92  311.06
   4   8 -12 9039.09  153.46
   4   8 -11 8938.67  162.05
   4   8 -10  689.11   64.97
   4   8  -928221.33  380.62
   4   8  -817953.95  361.89
   4   8  -775230.98  889.46
   4   8  -6  869.49   56.36
   4   8  -5 3111.61  103.03
   4   8  -439908.06  505.78
   4   8  -3 4601.65  113.62
   4   8  -220886.05  331.55
   4   8  -144394.72  623.54
   4   8   0 3835.60  104.87
   4   8   145734.56  609.11
   4   8   220648.79  287.57
   4   8   3 4217.25  112.15
   4   8   439761.80  478.33
   4   8   5 3074.99  116.95
   4   8   6  452.93   49.81
   4   8   774999.19  890.31
   4   8   817311.40  298.63
   4   8   926155.67  403.92
   4   8  10  705.55   46.70
   4   8  11 8516.56  141.01
   4   8  12 8325.15  141.14
   4   8  1319310.95  287.28
   4   8  1439128.40  493.50
   4   8  15 3389.26   90.28
   4   9 -14 7505.34  193.46
   4   9 -13 6116.71  109.87
   4   9 -1248779.26  594.05
   4   9 -11 7114.93  140.20
   4   9 -1026830.40  364.49
   4   9  -9 9729.97  169.65
   4   9  -8 1085.19   63.33
   4   9  -7  879.75   51.36
   4   9  -620345.19  355.27
   4   9  -527110.87  372.95
   4   9  -451436.15  699.29
   4   9  -329220.33  392.56
   4   9  -246619.68  780.63
   4   9  -1 4527.81  134.68
   4   9   0  835.39   61.82
   4   9   1 4288.52  105.42
   4   9   244523.37  513.38
   4   9   330618.30  375.28
   4   9   449651.84  620.57
   4   9   525548.00  361.89
   4   9   620564.01  301.97
   4   9   7 1028.41   66.70
   4   9   8 1079.56   53.70
   4   9   9 9529.10  165.85
   4   9  1027013.89  352.30
   4   9  11 6909.23  158.53
   4   9  1248814.27  623.36
   4   9  13 6013.39  110.66
   4   9  14 7944.59  213.37
   4  10 -12 3777.85  100.13
   4  10 -1113935.10  242.16
   4  10 -1012167.52  203.28
   4  10  -9 1454.58   65.43
   4  10  -8 3009.73  104.16
   4  10  -7 4642.46  187.33
   4  10  -614288.58  285.21
   4  10  -510438.27  284.85
   4  10  -4 2280.48   91.84
   4  10  -3 3071.78  100.28
   4  10  -2 3170.11   88.61
   4  10  -1 4148.07  104.08
   4  10   0111309.8  1315.5
   4  10   1 4103.66  109.87
   4  10   2 2907.87   89.58
   4  10   3 3041.84  106.67
   4  10   4 2369.81   81.87
   4  10   5 9355.69  167.94
   4  10   614218.59  215.28
   4  10   7 4456.03  103.65
   4  10   8 3140.88   81.95
   4  10   9 1339.28   65.10
   4  10  1012081.27  245.45
   4  10  1116308.37  248.04
   4  10  12 3865.72   90.05
   4  11 -1113074.90  285.79
   4  11 -1040807.70  729.55
   4  11  -9 2898.84  109.80
   4  11  -8 7714.47  181.65
   4  11  -7  327.30   48.27
   4  11  -621266.84  399.06
   4  11  -5 1985.72   92.40
   4  11  -412961.09  262.45
   4  11  -323979.70  391.57
   4  11  -217513.40  302.54
   4  11  -1 1706.35   60.34
   4  11   085101.21  894.98
   4  11   1 1559.50   68.08
   4  11   217917.56  303.35
   4  11   324761.65  474.35
   4  11   412385.72  203.06
   4  11   5 1802.61   71.49
   4  11   620953.14  297.38
   4  11   7  340.77   47.03
   4  11   8 7161.28  149.41
   4  11   9 2779.48  100.89
   4  11  1037888.35  473.38
   4  11  1112906.90  272.72
   4  12  -812796.44  204.06
   4  12  -732240.54  642.45
   4  12  -6 8710.91  193.86
   4  12  -512074.13  327.33
   4  12  -4 4655.18  138.68
   4  12  -324462.69  401.66
   4  12  -2 5000.50  248.73
   4  12  -127462.65  578.50
   4  12   030507.04  562.58
   4  12   127523.04  481.60
   4  12   2 5103.26  134.70
   4  12   324226.59  327.66
   4  12   4 4366.10  115.80
   4  12   511037.92  181.55
   4  12   6 8087.39  154.97
   4  12   728089.08  818.41
   4  13  -5  177.85   36.13
   4  13  -417369.40  365.46
   4  13  -3 4462.04  142.79
   4  13  -234683.70  614.53
   4  13  -1 5981.45  191.27
   4  13   0 3915.00  155.87
   4  13   1 6249.47  201.99
   4  13   234546.90  632.93
   4  13   3 4650.30  164.32
   4  13   416216.80  337.94
   4  13   5  219.33   34.60
   5   0   114227.10  653.14
   5   0   2164288.0  4462.2
   5   0   3 3935.77  335.02
   5   0   434496.00 1205.23
   5   0   5 5131.60  416.58
   5   0   6 7857.87  524.00
   5   0   738255.55  757.41
   5   0   8138802.5  2369.3
   5   0   9   72.40   32.91
   5   0  1022702.47  687.22
   5   0  11  456.14   86.83
   5   0  12  277.69   37.75
   5   0  1333655.48  488.60
   5   0  14 9539.23  180.61
   5   0  15  284.90   37.14
   5   0  1614904.43  304.81
   5   0  17 5823.61  128.28
   5   1 -17 6277.39  118.06
   5   1 -16 6799.74  141.50
   5   1 -1520054.82  430.14
   5   1 -14 1317.84   57.44
   5   1 -13 1310.76   61.34
   5   1 -12 2993.27   93.43
   5   1 -1117880.00  285.81
   5   1 -1033762.40  533.81
   5   1  -9 8261.95  213.70
   5   1  -873909.73 1167.02
   5   1  -731387.29  682.56
   5   1  -635843.00 1310.37
   5   1  -5 9324.99  545.48
   5   1  -445088.50 1458.87
   5   1  -3 3603.67  326.05
   5   1  -234235.90 1157.70
   5   1  -115820.38  547.23
   5   1   013021.53  373.02
   5   1   116831.65  574.91
   5   1   235999.74  825.11
   5   1   3 4407.85  233.19
   5   1   445713.23 1043.50
   5   1   5 8924.84  369.64
   5   1   638076.30 1370.60
   5   1   731388.51  686.05
   5   1   873969.74 1137.00
   5   1   9 7992.59  242.85
   5   1  1030059.18  565.46
   5   1  1117012.21  325.46
   5   1  12 3037.17  119.26
   5   1  13 1598.03   73.50
   5   1  14 1487.86   68.52
   5   1  1519488.52  299.96
   5   1  16 6425.60  151.57
   5   1  17 6775.80  151.20
   5   2 -1716730.70  308.66
   5   2 -1619756.71  280.71
   5   2 -15 1107.17   46.92
   5   2 -1412680.90  205.62
   5   2 -13 6502.17  137.25
   5   2 -1213984.24  212.09
   5   2 -1124669.30  343.51
   5   2 -10 3712.37  119.76
   5   2  -9 2632.13  104.30
   5   2  -8 9972.50  201.77
   5   2  -715543.31  333.33
   5   2  -657499.57  938.43
   5   2  -5 6062.97  436.57
   5   2  -417789.70  765.26
   5   2  -3 3167.95  300.32
   5   2  -2 5408.31  254.11
   5   2  -1 2002.82  441.55
   5   2   0 7665.52  312.16
   5   2   1 1989.35  474.01
   5   2   2 5104.70  543.36
   5   2   3 4100.66  262.98
   5   2   420551.94 1172.69
   5   2   5 6616.64  371.74
   5   2   653472.64 1118.27
   5   2   716104.32  470.68
   5   2   8 9462.35  313.77
   5   2   9 2240.45  146.66
   5   2  10 3256.96  192.37
   5   2  1122755.49  451.28
   5   2  1212493.15  254.54
   5   2  13 6464.96  144.96
   5   2  1411926.75  188.77
   5   2  15 1066.41   49.32
   5   2  1618907.28  635.37
   5   2  1717557.76  431.13
   5   3 -1714880.00  451.47
   5   3 -16 9549.86  187.72
   5   3 -1520766.82  351.86
   5   3 -1416259.23  273.46
   5   3 -13 2913.46   80.48
   5   3 -1229202.81  480.51
   5   3 -1138470.34  599.45
   5   3 -1023390.27  393.74
   5   3  -929126.38  543.53
   5   3  -8 5328.83  216.09
   5   3  -737884.12  632.01
   5   3  -6142862.3  3908.7
   5   3  -569365.12 1233.35
   5   3  -4125706.0  3507.8
   5   3  -3 8449.44  478.21
   5   3  -218801.50 1148.49
   5   3  -180423.25 3264.95
   5   3   011040.04  849.45
   5   3   183548.82 4475.41
   5   3   219843.94 1027.91
   5   3   310290.09  593.09
   5   3   4142414.0 21531.4
   5   3   564519.46 2558.47
   5   3   6143238.6  2399.7
   5   3   736971.79 1011.90
   5   3   8 5250.87  188.53
   5   3   925613.12  499.52
   5   3  1021116.80  428.32
   5   3  1134249.03  592.02
   5   3  1227083.89  420.90
   5   3  13 2583.57  100.35
   5   3  1415535.81  232.91
   5   3  1519126.41  321.68
   5   3  16 9700.06  215.67
   5   3  1714842.82  272.41
   5   4 -17 2582.37   82.66
   5   4 -1619017.71  323.68
   5   4 -15 3424.45   89.98
   5   4 -14 5840.90  117.18
   5   4 -1330762.52  372.44
   5   4 -12  519.36   47.53
   5   4 -11  847.72   56.17
   5   4 -10 9687.74  299.45
   5   4  -916970.91  902.15
   5   4  -828608.98  912.06
   5   4  -742468.55  799.87
   5   4  -627687.11  591.23
   5   4  -5 9532.36  213.47
   5   4  -4 5782.03  142.49
   5   4  -3102927.4 17001.6
   5   4  -241079.67 2364.84
   5   4  -122207.58 1558.46
   5   4   026011.05 1329.24
   5   4   122435.84 1883.94
   5   4   232991.00 6234.91
   5   4   3109808.0 15567.0
   5   4   4 6866.47  198.43
   5   4   5 9078.49  247.09
   5   4   627501.32  528.01
   5   4   743895.66  720.34
   5   4   825657.08  521.77
   5   4   917438.69  346.09
   5   4  10 9232.63  223.96
   5   4  11  679.93   63.50
   5   4  12  340.15   49.76
   5   4  1328954.35  476.42
   5   4  14 5398.18  154.87
   5   4  15 3244.52   91.79
   5   4  1619138.95  271.32
   5   4  17 2835.50  113.84
   5   5 -16 4917.62  106.50
   5   5 -1517764.53  281.35
   5   5 -14 9508.24  147.55
   5   5 -13 7806.89  144.60
   5   5 -1210403.50  191.14
   5   5 -11 2359.11   86.19
   5   5 -1019918.88  358.87
   5   5  -9 8283.29  186.43
   5   5  -8150998.1  1950.4
   5   5  -7 6945.20  160.42
   5   5  -6 8422.11  182.42
   5   5  -531283.56  508.83
   5   5  -4  622.59   90.48
   5   5  -319046.96  325.27
   5   5  -2167835.0  2288.5
   5   5  -114182.47  259.32
   5   5   0  219.15   37.57
   5   5   114944.38  261.57
   5   5   2165823.5  2226.7
   5   5   319360.38  342.15
   5   5   4  545.10  130.01
   5   5   530244.27  463.43
   5   5   6 8493.97  195.76
   5   5   7 6832.28  172.21
   5   5   8143626.4  2018.7
   5   5   9 7491.71  320.42
   5   5  1018994.45  398.67
   5   5  11 2521.95  132.78
   5   5  12 9899.75  190.63
   5   5  13 6841.89  157.48
   5   5  14 9160.93  219.40
   5   5  1516347.16  254.66
   5   5  16 4554.00  405.22
   5   6 -15 5116.69  148.43
   5   6 -14 3482.42   81.62
   5   6 -13 1037.81   48.50
   5   6 -1215609.52  260.77
   5   6 -1133199.03  539.52
   5   6 -1023452.52  340.43
   5   6  -9 4031.84  118.56
   5   6  -831634.32  482.86
   5   6  -7 1059.47   74.25
   5   6  -644678.99  613.00
   5   6  -524392.09  386.33
   5   6  -432750.49  503.98
   5   6  -317335.85  308.33
   5   6  -234638.54  483.94
   5   6  -112212.98  277.06
   5   6   040025.99  663.29
   5   6   112320.22  193.47
   5   6   235831.65  538.29
   5   6   317220.43  288.56
   5   6   433361.08  465.79
   5   6   524884.97  435.94
   5   6   644195.24  735.24
   5   6   7 1083.68   70.94
   5   6   828516.05  456.40
   5   6   9 3807.79  134.23
   5   6  1020701.12  372.23
   5   6  1130206.81  459.14
   5   6  1214824.27  242.01
   5   6  13  992.94   50.09
   5   6  14 3756.12  110.37
   5   6  15 5128.85  138.12
   5   7 -14 8933.90  200.93
   5   7 -13 8069.42  161.14
   5   7 -1253229.63  591.63
   5   7 -11 2474.41   87.93
   5   7 -1031514.90  436.28
   5   7  -926582.18  402.64
   5   7  -8 2854.66  132.30
   5   7  -731088.96  482.32
   5   7  -6166744.5  2110.8
   5   7  -5 4210.78  221.62
   5   7  -484361.99  990.32
   5   7  -340535.30  611.80
   5   7  -225164.95  417.00
   5   7  -131993.75  445.78
   5   7   049137.31  601.96
   5   7   131496.85  399.16
   5   7   225176.34  349.64
   5   7   337940.11  489.99
   5   7   486736.55 1122.50
   5   7   5 4297.10  132.24
   5   7   6162278.3  1870.6
   5   7   729785.23  461.81
   5   7   8 2459.61   99.22
   5   7   924906.19  353.33
   5   7  1029843.69  449.37
   5   7  11 2604.35   86.56
   5   7  1251154.42  660.68
   5   7  13 7859.73  127.18
   5   7  14 9650.80  377.94
   5   8 -13  697.66   34.93
   5   8 -12 2518.22   92.07
   5   8 -11 8460.08  180.91
   5   8 -1028936.45  437.42
   5   8  -919041.43  339.65
   5   8  -8 2133.75  107.56
   5   8  -7 5473.25  175.62
   5   8  -644811.91  624.27
   5   8  -5 9818.35  197.42
   5   8  -440420.11  592.55
   5   8  -3 6685.50  149.59
   5   8  -2 1015.50   67.87
   5   8  -1 4053.68  103.62
   5   8   028024.90  431.00
   5   8   1 4319.95  132.15
   5   8   2 1202.05   59.43
   5   8   3 7044.30  159.35
   5   8   439291.75  491.92
   5   8   5 9346.55  190.20
   5   8   643347.49  591.76
   5   8   7 5074.88  143.27
   5   8   8 1811.70   84.97
   5   8   917337.58  269.69
   5   8  1026566.67  342.02
   5   8  11 8056.32  138.40
   5   8  12 2661.25   79.33
   5   8  13  953.51   41.13
   5   9 -12 2520.96  259.68
   5   9 -11 2074.77   62.53
   5   9 -10 3986.65  124.47
   5   9  -912071.21  243.23
   5   9  -876356.98 1171.45
   5   9  -713420.23  358.61
   5   9  -615261.65  335.78
   5   9  -5 2733.64  102.31
   5   9  -4 2597.68  105.40
   5   9  -338519.39  632.22
   5   9  -256077.42  637.31
   5   9  -1 6088.07  129.66
   5   9   0  194.55   48.54
   5   9   1 5892.40  130.69
   5   9   257631.03  629.34
   5   9   338273.38  440.16
   5   9   4 2742.12   85.76
   5   9   5 2680.73   91.51
   5   9   613942.06  299.23
   5   9   713281.10  262.42
   5   9   869014.59 1139.72
   5   9   911232.58  199.24
   5   9  10 3614.13   96.88
   5   9  11 2064.97   65.87
   5   9  12 2519.84   66.20
   5  10 -1121663.80  415.23
   5  10 -1014611.92  247.22
   5  10  -919837.14  342.76
   5  10  -8 3333.25  109.27
   5  10  -726403.87  402.04
   5  10  -620865.55  413.70
   5  10  -546731.87  773.69
   5  10  -433974.46  511.24
   5  10  -361718.07 1056.52
   5  10  -215048.91  320.50
   5  10  -129391.86  387.28
   5  10   017658.77  251.77
   5  10   129983.76  374.94
   5  10   214898.02  220.55
   5  10   363487.69  690.61
   5  10   430962.30  399.23
   5  10   541415.03  495.33
   5  10   619122.68  291.05
   5  10   723696.02  422.21
   5  10   8 3205.69  136.60
   5  10   917902.33  357.50
   5  10  1013820.17  247.30
   5  10  1120722.80  393.84
   5  11  -812678.39  221.08
   5  11  -7 9460.17  202.50
   5  11  -616023.35  524.05
   5  11  -533973.51  535.28
   5  11  -418477.66  347.76
   5  11  -3 5102.17  178.03
   5  11  -2 6394.27  128.44
   5  11  -134507.41  421.33
   5  11   0 2600.52   90.64
   5  11   134710.75  498.19
   5  11   2 6357.15  159.88
   5  11   3 5470.83  165.15
   5  11   416573.87  454.09
   5  11   530590.93  475.07
   5  11   615414.75  697.10
   5  11   7 8654.72  470.48
   5  11   812308.74  589.27
   5  12  -5 2742.50  112.49
   5  12  -4 7551.12  486.34
   5  12  -3 1127.76   77.45
   5  12  -2  277.95   73.00
   5  12  -1 9478.04  177.06
   5  12   0 4142.78 7302.35
   5  12   1 5185.18 8796.80
   5  12   2  332.50   53.95
   5  12   3 1015.47  107.62
   5  12   4 6012.20  442.72
   5  12   5 1798.75   89.57
   6   0   016588.98  761.44
   6   0   1 4406.90  166.65
   6   0   215453.92  386.91
   6   0   379904.82 1681.84
   6   0   420471.01  473.77
   6   0   5  248.83   42.41
   6   0   658803.50 1142.90
   6   0   732264.88  584.83
   6   0   8  616.54   77.63
   6   0   921364.84  370.79
   6   0  10  212.71   47.49
   6   0  11  252.86   63.35
   6   0  1232448.10  706.72
   6   0  1332179.25  497.89
   6   0  14 8623.77  168.96
   6   0  15  118.33   25.36
   6   0  16  909.73   55.92
   6   1 -16 9289.26  260.13
   6   1 -15 1262.38   56.78
   6   1 -1433685.89  576.13
   6   1 -1352159.35  748.20
   6   1 -1247913.27  973.55
   6   1 -1121013.58  413.59
   6   1 -1020660.78  450.79
   6   1  -9 1976.64   99.77
   6   1  -884140.33 1158.20
   6   1  -711598.95  264.23
   6   1  -628236.76  979.53
   6   1  -5 3124.72  171.33
   6   1  -446386.30  631.65
   6   1  -3116324.3  1389.3
   6   1  -2123542.8  1723.2
   6   1  -1 8326.05  207.11
   6   1   040595.11  656.01
   6   1   1 7799.26  297.60
   6   1   2119850.0  2328.3
   6   1   3109590.2  2738.4
   6   1   443641.20  704.14
   6   1   5 3425.23  257.12
   6   1   629997.15  666.32
   6   1   712899.99  316.78
   6   1   884190.76 1289.86
   6   1   9 1987.47  161.32
   6   1  1019932.10  446.78
   6   1  1119099.68  336.82
   6   1  1249315.80  662.79
   6   1  1348943.61  626.85
   6   1  1432009.69  457.14
   6   1  15 1305.84   62.39
   6   1  16 9932.91  375.16
   6   2 -16 1647.60  131.05
   6   2 -15 1025.46   49.27
   6   2 -14 3454.51   87.12
   6   2 -13 4224.22  117.86
   6   2 -12 7029.04  162.01
   6   2 -1130188.94  456.70
   6   2 -10 7964.05  200.40
   6   2  -9 2005.27  100.70
   6   2  -8  829.34   75.51
   6   2  -722386.35  450.07
   6   2  -6 4723.58  135.67
   6   2  -5 8126.70  193.14
   6   2  -4  877.63   64.47
   6   2  -3  713.73   52.30
   6   2  -2 1995.67   92.58
   6   2  -130150.65  548.14
   6   2   0 3364.37  116.05
   6   2   131803.19  737.26
   6   2   2 1956.85   97.06
   6   2   3  669.10   59.11
   6   2   4  948.93  108.29
   6   2   5 8325.77  306.82
   6   2   6 4351.00  222.93
   6   2   724130.48  481.07
   6   2   8  626.11   64.88
   6   2   9 2250.91  162.00
   6   2  10 8053.74  236.25
   6   2  1129495.47  453.71
   6   2  12 6593.11  150.17
   6   2  13 4157.81  139.38
   6   2  14 3251.53  110.49
   6   2  15  967.17   52.91
   6   2  16 1854.06  102.26
   6   3 -15 1235.02   57.33
   6   3 -1428920.68  406.50
   6   3 -13  562.97   41.30
   6   3 -12 7497.23  156.27
   6   3 -1177237.08  987.60
   6   3 -1017017.23  345.28
   6   3  -915854.16  347.12
   6   3  -872650.47 1034.27
   6   3  -7 5779.56  165.99
   6   3  -6 3883.30  112.39
   6   3  -510332.61  194.26
   6   3  -455671.58 1031.50
   6   3  -3 7817.98  211.92
   6   3  -283492.75 1746.81
   6   3  -185356.69 1242.76
   6   3   027069.17  507.30
   6   3   192242.87 1298.99
   6   3   286660.09 1260.63
   6   3   3 7697.45  223.15
   6   3   457476.93  970.66
   6   3   510360.81  293.16
   6   3   6 3749.93  241.95
   6   3   7 5959.26  201.40
   6   3   867614.74 2084.38
   6   3   915159.50  515.49
   6   3  1016182.91  937.14
   6   3  1174391.23 1200.98
   6   3  12 7169.34  224.27
   6   3  13  480.73   47.41
   6   3  1428848.63  407.74
   6   3  15 1244.64   67.11
   6   4 -15 6779.21  390.86
   6   4 -14 1762.81   62.88
   6   4 -13 6143.23  121.24
   6   4 -1233502.69  421.29
   6   4 -11 4839.07  127.46
   6   4 -10 6269.07  153.93
   6   4  -9 3627.71  137.80
   6   4  -813415.78  328.57
   6   4  -7 2893.12  114.59
   6   4  -653106.69  653.66
   6   4  -5 1031.93  104.85
   6   4  -430365.00  509.70
   6   4  -331493.19  518.72
   6   4  -242119.87  652.07
   6   4  -1 2210.86   98.14
   6   4   087909.02 1402.74
   6   4   1 2552.51  147.77
   6   4   243467.82  765.07
   6   4   330470.86  605.33
   6   4   430597.25  549.80
   6   4   5 1040.60   74.70
   6   4   655177.52  781.67
   6   4   7 2965.94  119.91
   6   4   813035.40  306.02
   6   4   9 3581.59  166.26
   6   4  10 6227.56  226.10
   6   4  11 4529.43  156.53
   6   4  1232535.37  498.17
   6   4  13 6010.14  153.62
   6   4  14 1606.37   59.60
   6   4  15 6693.67  122.21
   6   5 -14 2642.03   93.98
   6   5 -1336512.82  491.90
   6   5 -1213182.92  205.06
   6   5 -11 5522.25  131.41
   6   5 -1015354.98  260.90
   6   5  -9 4674.17  188.63
   6   5  -8 8144.86  250.53
   6   5  -733226.42  630.35
   6   5  -6 5983.07  167.92
   6   5  -5 3138.06  106.70
   6   5  -4  824.29   62.09
   6   5  -390134.11 1107.91
   6   5  -228785.42  524.01
   6   5  -1 6010.75  152.22
   6   5   056944.20  858.17
   6   5   1 5839.96  253.46
   6   5   227342.86  489.59
   6   5   393968.16 1330.80
   6   5   4  626.70   57.40
   6   5   5 3326.17  114.57
   6   5   6 6165.55  157.27
   6   5   730625.40  547.57
   6   5   8 7375.45  192.75
   6   5   9 3801.32  125.70
   6   5  1013151.21  261.25
   6   5  11 5060.89  135.18
   6   5  1212171.34  239.03
   6   5  1335526.65  475.70
   6   5  14 2514.38   66.62
   6   6 -14 1150.52   73.93
   6   6 -1314422.69  269.28
   6   6 -1210821.86  212.59
   6   6 -1111618.58  302.35
   6   6 -1040529.06  738.16
   6   6  -9 3510.95  120.96
   6   6  -8 3574.81  131.76
   6   6  -729015.07  476.54
   6   6  -620490.61  317.68
   6   6  -511097.09  215.98
   6   6  -420116.54  304.10
   6   6  -315495.59  249.84
   6   6  -2  576.31   52.33
   6   6  -125619.92  446.87
   6   6   041923.80  614.14
   6   6   127641.88  456.50
   6   6   2  684.96  112.08
   6   6   315136.44  287.99
   6   6   419064.14  332.32
   6   6   510433.37  215.92
   6   6   618750.29  377.37
   6   6   725152.33  410.28
   6   6   8 2989.47  114.13
   6   6   9 3270.06  124.92
   6   6  1034396.10  508.06
   6   6  1110701.86  175.87
   6   6  12 9999.51  193.73
   6   6  1313728.24  212.72
   6   6  14 1177.90   53.39
   6   7 -1314306.80  310.09
   6   7 -1226133.37  353.32
   6   7 -1133552.87  470.22
   6   7 -1012818.22  257.77
   6   7  -9  949.06   64.71
   6   7  -8 3835.91  127.11
   6   7  -7 2465.58  108.55
   6   7  -616357.22  311.49
   6   7  -510491.88  197.97
   6   7  -415124.71  253.78
   6   7  -314593.28  295.33
   6   7  -212520.98  259.28
   6   7  -131834.37  487.71
   6   7   0 5717.17  173.83
   6   7   129943.63  551.55
   6   7   213853.53  264.97
   6   7   314194.58  268.03
   6   7   414446.77  276.89
   6   7   5 9425.56  209.92
   6   7   616154.57  282.26
   6   7   7 2477.56  107.06
   6   7   8 3526.60  137.02
   6   7   9 1061.17   81.62
   6   7  1011099.54  218.98
   6   7  1129824.99  367.98
   6   7  1224273.22  318.05
   6   7  1312375.01  231.22
   6   8 -11 7349.63  157.91
   6   8 -10 1297.06   66.67
   6   8  -9 2224.05   79.17
   6   8  -8 8246.66  227.34
   6   8  -711304.91  216.05
   6   8  -6 9648.04  212.93
   6   8  -5 7879.46  153.07
   6   8  -4 3344.63   98.49
   6   8  -3 1799.32   74.49
   6   8  -211373.76  221.86
   6   8  -129549.54  433.64
   6   8   0 3866.70  120.17
   6   8   130734.19  511.25
   6   8   211089.81  268.75
   6   8   3 1694.35   93.06
   6   8   4 3552.53  129.29
   6   8   5 7416.93  176.70
   6   8   6 9108.02  175.96
   6   8   710329.80  208.18
   6   8   8 7618.01  164.30
   6   8   9 2269.43   92.21
   6   8  10 1183.60   50.70
   6   8  11 6760.87  157.11
   6   9 -10 8402.91  300.59
   6   9  -947627.41 2000.99
   6   9  -824825.27  412.43
   6   9  -7 6315.89  152.21
   6   9  -6  926.86   55.92
   6   9  -515826.24  257.79
   6   9  -4 9474.95  178.38
   6   9  -3 7374.10  144.33
   6   9  -246419.60  565.40
   6   9  -160434.79  778.93
   6   9   013905.19  207.28
   6   9   161399.04  764.96
   6   9   247258.76  951.44
   6   9   3 7315.71  166.70
   6   9   4 9024.52  193.19
   6   9   515129.73  237.82
   6   9   6  888.20   80.50
   6   9   7 5976.31  179.83
   6   9   823622.25  400.40
   6   9   946819.49  956.65
   6   9  10 7226.66  145.44
   6  10  -815048.82  544.09
   6  10  -7 7229.53  187.63
   6  10  -6 2955.17   87.77
   6  10  -5 4991.99  120.38
   6  10  -4  325.62   39.66
   6  10  -3 2371.80   96.31
   6  10  -2 4240.57  134.06
   6  10  -1 2574.32   94.79
   6  10   0 2788.26   96.71
   6  10   1 2433.10   77.87
   6  10   2 3789.93  117.26
   6  10   3 2456.87   64.75
   6  10   4  330.87   31.06
   6  10   5 4670.87  145.69
   6  10   6 2751.89   87.92
   6  10   7 6901.66  360.65
   6  10   814941.34  661.09
   6  11  -5 2339.06  104.06
   6  11  -4 3076.34  128.41
   6  11  -330530.50  555.55
   6  11  -212955.30  299.94
   6  11  -1 4370.34  206.95
   6  11   0 2234.86   77.45
   6  11   1 3966.21  272.82
   6  11   211139.50  275.46
   6  11   327032.00  504.12
   6  11   4 2581.98  111.97
   6  11   5 1936.91   89.32
   7   0   1 1064.71   93.39
   7   0   225932.93  510.52
   7   0   3  185.12   67.54
   7   0   427989.44  986.60
   7   0   515471.02  343.26
   7   0   6  279.72  107.31
   7   0   7  240.08  215.95
   7   0   819543.46  505.38
   7   0   9 5966.57  203.82
   7   0  1064856.62 1050.30
   7   0  1111114.22  292.23
   7   0  12  391.93   57.48
   7   0  13 2286.67  101.18
   7   0  14 7775.13  239.86
   7   1 -14 8996.49  258.12
   7   1 -13 4059.21  349.56
   7   1 -12 1351.23   71.37
   7   1 -11 8852.01  178.50
   7   1 -1010579.26  213.54
   7   1  -9 7091.20  157.79
   7   1  -8 8990.26  215.80
   7   1  -765987.47  921.23
   7   1  -6 7541.07  266.62
   7   1  -540296.58  804.77
   7   1  -426941.09  600.91
   7   1  -3 9992.38  228.74
   7   1  -212977.25  367.70
   7   1  -112927.81  297.20
   7   1   017714.63  411.23
   7   1   114056.52  422.86
   7   1   213739.24  399.72
   7   1   310450.91  350.32
   7   1   423664.02  633.06
   7   1   541312.30  842.05
   7   1   6 7936.52  308.56
   7   1   766866.59 1189.68
   7   1   8 9049.61  288.46
   7   1   9 6983.44  248.50
   7   1  1010943.77  236.90
   7   1  11 8914.56  258.56
   7   1  12  991.16   81.56
   7   1  13 4600.01  144.35
   7   1  14 7736.33  397.27
   7   2 -1410973.60  276.39
   7   2 -13 4063.20 1188.84
   7   2 -12  747.37   44.78
   7   2 -1110030.60  183.94
   7   2 -10 2937.25   93.00
   7   2  -9 1648.39   90.03
   7   2  -8  263.48   53.22
   7   2  -721170.18  348.85
   7   2  -6 6279.66  186.16
   7   2  -512074.50  274.02
   7   2  -4 4028.88  171.50
   7   2  -3 3548.10  139.46
   7   2  -2 8345.34  207.21
   7   2  -123701.20  662.81
   7   2   0 4334.52  141.91
   7   2   126069.71  642.38
   7   2   2 9223.45  339.56
   7   2   3 3006.06  142.45
   7   2   4 4177.46  173.13
   7   2   512754.31  456.39
   7   2   6 6472.86  214.21
   7   2   721465.33  435.83
   7   2   8  602.46  112.04
   7   2   9 1393.28   91.65
   7   2  10 3152.71  160.00
   7   2  1110603.42  279.68
   7   2  12  981.62   78.76
   7   2  13 4838.19  145.09
   7   2  1410713.97  633.38
   7   3 -13 1063.78   98.33
   7   3 -1213235.83  245.06
   7   3 -11 8140.23  214.74
   7   3 -10  454.82   53.76
   7   3  -957758.45  770.84
   7   3  -819316.08  350.18
   7   3  -7102917.4  1365.7
   7   3  -617453.30  348.69
   7   3  -5 4013.28  124.56
   7   3  -413576.33  324.64
   7   3  -334925.84  647.90
   7   3  -217804.90  485.69
   7   3  -176317.95 1410.04
   7   3   0  973.43   75.54
   7   3   179352.10 1141.42
   7   3   217842.76  333.37
   7   3   333446.60  562.64
   7   3   413216.87  406.33
   7   3   5 3625.61  465.59
   7   3   616556.41  448.81
   7   3   798659.15 2658.77
   7   3   817541.84  534.04
   7   3   958537.39 1015.22
   7   3  10  593.70   52.46
   7   3  11 8556.95  213.57
   7   3  1214488.49  299.67
   7   3  13 1005.70   64.11
   7   4 -13  296.00   51.74
   7   4 -12 1752.82   67.42
   7   4 -11 7495.00  171.73
   7   4 -1019097.27  302.15
   7   4  -9 2829.01  109.25
   7   4  -8 3014.41  141.25
   7   4  -7  892.95   94.14
   7   4  -6 2207.00  108.75
   7   4  -5 7051.74  168.47
   7   4  -4 7695.56  249.91
   7   4  -3  665.06   83.94
   7   4  -2 6218.29  182.93
   7   4  -1 1551.54   91.70
   7   4   0  346.12   56.24
   7   4   1 1786.69  103.29
   7   4   2 5925.76  180.14
   7   4   3  333.78   65.25
   7   4   4 7809.23  218.79
   7   4   5 7348.39  205.74
   7   4   6 2131.19  107.61
   7   4   7  708.95   64.21
   7   4   8 3213.27  143.00
   7   4   9 2601.70  116.17
   7   4  1018085.35  353.26
   7   4  11 6757.12  197.70
   7   4  12 1799.48  189.63
   7   4  13  394.53   55.68
   7   5 -12 9241.43  190.86
   7   5 -1122901.09  397.57
   7   5 -10 6655.96  169.39
   7   5  -913082.23  273.47
   7   5  -821662.73  402.92
   7   5  -740441.83  704.60
   7   5  -6 7769.00  202.72
   7   5  -5109780.8  1827.2
   7   5  -4 5790.55  139.44
   7   5  -340379.56  662.61
   7   5  -218721.19  365.06
   7   5  -110099.98  222.27
   7   5   0 5925.24  164.30
   7   5   1 9253.84  205.34
   7   5   219309.69  379.76
   7   5   337248.58  602.24
   7   5   4 5618.12  190.74
   7   5   5104020.0  1358.6
   7   5   6 6887.81  200.12
   7   5   738433.79  637.19
   7   5   819214.37  546.60
   7   5   911181.31  233.12
   7   5  10 5753.35  198.97
   7   5  1122274.51  586.48
   7   5  12 9681.54  530.23
   7   6 -11  229.40   30.26
   7   6 -10  806.05   57.71
   7   6  -914113.00  296.19
   7   6  -8  316.06   51.64
   7   6  -716350.88  338.29
   7   6  -6  910.22   73.35
   7   6  -5 9641.97  201.41
   7   6  -4 1885.40   83.47
   7   6  -351658.00  815.55
   7   6  -2 2347.49   91.53
   7   6  -125802.35  398.16
   7   6   0  197.86   47.52
   7   6   125600.86  440.19
   7   6   2 2029.44  113.39
   7   6   353742.68  762.75
   7   6   4 1897.84   90.76
   7   6   5 9097.65  215.62
   7   6   6  651.91   63.82
   7   6   715599.79  318.66
   7   6   8  317.62   49.54
   7   6   912221.93  277.59
   7   6  10  752.92   52.44
   7   6  11  255.69   29.49
   7   7 -1019768.41  316.73
   7   7  -945989.46  668.12
   7   7  -8 3623.26  128.39
   7   7  -750345.54  659.80
   7   7  -658117.10  773.01
   7   7  -5 2433.99   97.55
   7   7  -450786.50  701.35
   7   7  -338808.49  471.64
   7   7  -235152.58  476.16
   7   7  -118477.80  303.94
   7   7   049653.93  911.86
   7   7   118246.44  433.60
   7   7   233261.54  566.82
   7   7   336546.09  600.02
   7   7   448067.71  728.62
   7   7   5 2535.65  122.28
   7   7   656073.64  791.31
   7   7   745192.93  728.06
   7   7   8 3037.05  123.34
   7   7   940081.48  578.90
   7   7  1018037.01  241.73
   7   8  -8  296.16   32.00
   7   8  -7 9614.37  172.20
   7   8  -616697.11  265.06
   7   8  -5 8142.95  199.79
   7   8  -410654.88  236.68
   7   8  -3 5190.08  104.93
   7   8  -2 8572.21  168.70
   7   8  -1 1365.29   62.87
   7   8   0 9024.25  196.95
   7   8   1 1362.42   63.96
   7   8   2 7932.55  175.43
   7   8   3 5422.27  134.91
   7   8   4 9187.55  193.34
   7   8   5 7140.41  149.24
   7   8   615262.64  253.38
   7   8   7 8722.76  163.39
   7   8   8  223.39   23.49
   7   9  -6 5487.89  286.82
   7   9  -526022.02  805.00
   7   9  -4 4743.92  122.94
   7   9  -323411.95  494.98
   7   9  -2 4303.15  288.86
   7   9  -1 4307.18  253.22
   7   9   010965.76  426.01
   7   9   1 4237.13  172.52
   7   9   2 3808.02  158.24
   7   9   323942.15  434.82
   7   9   4 4508.74   89.44
   7   9   528060.86  397.49
   7   9   6 5019.84  119.90
   7  10  -218402.50  360.39
   7  10  -113838.80  295.08
   7  10   011027.26  189.00
   7  10   112487.40  285.97
   7  10   215510.20  323.98
   8   0   010934.11  731.69
   8   0   1  278.37   77.67
   8   0   2  756.00  207.78
   8   0   3  480.52  112.79
   8   0   4 3855.39  201.11
   8   0   5 1989.74  107.30
   8   0   6 7993.11  789.48
   8   0   7  647.17  156.30
   8   0   8  660.96   81.28
   8   0   9   54.45   38.42
   8   0  10   81.31  111.18
   8   0  11  271.70   44.67
   8   1 -1147795.20  904.46
   8   1 -1011099.01  801.09
   8   1  -931766.50  858.41
   8   1  -8 1214.19   99.24
   8   1  -721648.30  765.27
   8   1  -6 1972.81  101.31
   8   1  -579577.98 1833.40
   8   1  -4 1506.01  108.54
   8   1  -350280.45 2035.93
   8   1  -212186.95  274.95
   8   1  -167929.32 1072.74
   8   1   023062.10  539.67
   8   1   166297.71 1143.76
   8   1   213303.74  280.61
   8   1   349620.77  913.95
   8   1   4 2013.67  131.94
   8   1   579127.20 1778.98
   8   1   6 2280.80  221.50
   8   1   720205.23  747.52
   8   1   8 1024.45   64.44
   8   1   930086.56  975.32
   8   1  1011415.22  829.22
   8   1  1142501.9013416.29
   8   2 -11 1991.37  123.03
   8   2 -10  783.07   62.66
   8   2  -910584.66  263.19
   8   2  -8 7699.83  298.09
   8   2  -714004.89  302.96
   8   2  -612170.56  280.14
   8   2  -5 6912.18  230.98
   8   2  -4  280.76   73.68
   8   2  -316929.98  378.42
   8   2  -2 3040.72  135.29
   8   2  -112409.52  281.92
   8   2   0 2379.23  118.74
   8   2   112307.24  274.62
   8   2   2 3361.85  135.99
   8   2   316376.25  398.08
   8   2   4  321.44   74.33
   8   2   5 6592.52  236.45
   8   2   611172.95  682.69
   8   2   713023.00  297.64
   8   2   8 7451.91  175.42
   8   2   9 9848.54  238.58
   8   2  10  831.10   50.94
   8   2  11 1697.97  106.61
   8   3 -10 8616.02  198.26
   8   3  -9 7881.21  213.65
   8   3  -8 6629.75  167.79
   8   3  -7  597.98   62.42
   8   3  -623215.99  416.43
   8   3  -520463.11  433.94
   8   3  -452186.40  741.43
   8   3  -311092.27  276.33
   8   3  -235762.40  639.31
   8   3  -128760.13  522.66
   8   3   012747.51  275.12
   8   3   130022.33  482.29
   8   3   236649.56  549.73
   8   3   310263.85  368.90
   8   3   447711.65  899.49
   8   3   519033.57  553.94
   8   3   619021.48  851.54
   8   3   7  526.22   63.62
   8   3   8 7447.49  317.33
   8   3   9 7785.41  369.59
   8   3  10 8720.69  507.17
   8   4 -10 7077.80  223.21
   8   4  -9 6736.50  169.56
   8   4  -8 9629.57  254.38
   8   4  -7 6730.92  176.18
   8   4  -6 5354.97  164.83
   8   4  -5 7085.19  172.94
   8   4  -412521.16  227.68
   8   4  -312207.38  239.75
   8   4  -218849.72  343.13
   8   4  -112128.32  259.41
   8   4   0 5498.23  150.88
   8   4   112307.00  243.98
   8   4   218439.39  490.60
   8   4   311579.86  341.09
   8   4   411668.97  336.54
   8   4   5 5985.01  208.94
   8   4   6 5509.89  188.81
   8   4   7 5209.88  182.89
   8   4   8 9001.85  219.84
   8   4   9 7373.40  172.68
   8   4  10 7319.42  209.34
   8   5  -9  222.62   29.13
   8   5  -8 7124.45  189.00
   8   5  -714104.69  314.06
   8   5  -6 7992.84  191.76
   8   5  -5 1891.43   79.10
   8   5  -4 9700.79  247.61
   8   5  -325815.41  462.71
   8   5  -214785.69  254.47
   8   5  -1 8447.01  196.09
   8   5   059911.46  736.12
   8   5   1 8509.65  206.32
   8   5   213987.79  317.47
   8   5   324304.99  513.79
   8   5   4 8761.55  253.25
   8   5   5 1902.91   95.59
   8   5   6 6738.72  546.72
   8   5   711744.66  466.88
   8   5   8 5192.79  142.86
   8   5   9  202.50   42.82
   8   6  -8  183.59   30.23
   8   6  -713418.20  524.94
   8   6  -6  329.70   37.87
   8   6  -5 3970.16  126.88
   8   6  -4 1180.77   72.51
   8   6  -318541.14  328.53
   8   6  -2 1139.08   68.27
   8   6  -116952.33  305.34
   8   6   0  244.09   53.03
   8   6   115916.52  382.96
   8   6   2 1186.13   86.81
   8   6   315171.28  673.03
   8   6   4  970.40   87.56
   8   6   5 3536.19  151.55
   8   6   6  454.88   75.14
   8   6   710318.20  303.31
   8   6   8  178.37   38.03
   8   7  -6  847.61   71.90
   8   7  -5 6885.95  239.94
   8   7  -411184.85  230.15
   8   7  -3 8201.37  210.27
   8   7  -2 7124.31  197.95
   8   7  -137774.47  726.18
   8   7   0 6595.92  188.62
   8   7   133704.14 1145.84
   8   7   2 5953.57  210.72
   8   7   3 6760.16  218.80
   8   7   4 9828.59  334.30
   8   7   5 6113.77  269.10
   8   7   6  673.12   63.38
   8   8  -2  729.46   67.16
   8   8  -112965.20  315.80
   8   8   0  266.88   53.46
   8   8   111219.65 1985.64
   8   8   2  699.91   53.47
   9   0   1  250.84   55.58
   9   0   2 1869.21  145.92
   9   0   3  899.01   72.06
   9   0   4  435.88  105.63
   9   0   5  137.10   55.60
   9   0   6 2090.15  112.18
   9   0   7  110.95   33.12
   9   1  -714741.26  918.27
   9   1  -6 9141.95 2354.93
   9   1  -5 6770.33  840.99
   9   1  -4 1515.34  111.57
   9   1  -314380.26  341.06
   9   1  -225649.05 4735.57
   9   1  -117170.72  358.92
   9   1   0  143.09   39.97
   9   1   123425.95  969.29
   9   1   230426.08  818.91
   9   1   313699.67  505.66
   9   1   4 1556.91  112.67
   9   1   5 7370.00  224.73
   9   1   6 9202.87  231.97
   9   1   716267.80  439.69
   9   2  -6 4282.70 2166.50
   9   2  -5 4618.23 2167.58
   9   2  -4 8291.67  435.92
   9   2  -3   95.76   39.52
   9   2  -220332.18  460.87
   9   2  -1 5515.98  228.67
   9   2   0 7867.93  247.75
   9   2   1 5574.75  221.86
   9   2   220693.41  443.95
   9   2   3  192.01   61.26
   9   2   411890.34  466.36
   9   2   5 5998.62  211.94
   9   2   6 5172.41  496.28
   9   3  -653306.60 1000.53
   9   3  -5 4843.58  224.99
   9   3  -432833.80 5491.21
   9   3  -3 6443.66  200.26
   9   3  -2 6491.11  176.47
   9   3  -1 1256.52   67.52
   9   3   0   96.65   31.05
   9   3   1 1248.61   88.42
   9   3   2 5755.29  197.08
   9   3   3 6386.21  320.15
   9   3   433433.80 1323.63
   9   3   5 5091.60 1367.77
   9   3   653190.30  995.92
   9   4  -4  953.01   64.82
   9   4  -3 6631.43  183.94
   9   4  -2 1522.56   87.75
   9   4  -1 3573.83  149.15
   9   4   0 1339.23   95.09
   9   4   1 3993.76  128.38
   9   4   2 1588.05   93.65
   9   4   3 6342.95  348.80
   9   4   4  894.02   97.74
   9   5  -249126.60  934.04
   9   5  -117623.70  458.15
   9   5   022709.39  537.91
   9   5   118165.47  334.78
   9   5   250388.51 1037.08
   0   0   0    0.00    0.00
;
_shelx_hkl_checksum              4797
loop_
_space_group_symop_operation_xyz
'x, y, z'
'-x+1/2, -y, z+1/2'
'x+1/2, -y+1/2, -z'
'-x, y+1/2, -z+1/2'
loop_
_atom_site_label
_atom_site_type_symbol
_atom_site_fract_x
_atom_site_fract_y
_atom_site_fract_z
_atom_site_U_iso_or_equiv
_atom_site_adp_type
_atom_site_occupancy
_atom_site_site_symmetry_order
_atom_site_calc_flag
_atom_site_refinement_flags_posn
_atom_site_refinement_flags_adp
Br6 Br 0.09034(9) 0.01843(5) 0.16120(4) 0.01981(16) Uani 1 1 d . .
Br5 Br 0.17449(10) 0.25431(6) 0.45638(4) 0.02373(17) Uani 1 1 d . .
Br1 Br 0.10852(9) -0.24288(5) 0.46516(4) 0.01826(16) Uani 1 1 d . .
Br2 Br 0.34018(8) -0.07201(5) 0.34700(4) 0.01703(15) Uani 1 1 d . .
Br4 Br 0.39950(9) 0.45226(5) 0.35377(4) 0.02352(16) Uani 1 1 d . .
Br3 Br -0.26072(9) 0.21248(5) 0.32858(4) 0.02065(17) Uani 1 1 d . .
N1 N -0.1548(7) -0.0871(4) 0.4449(3) 0.0147(10) Uani 1 1 d . .
C2 C 0.0089(8) -0.1076(5) 0.4244(4) 0.0133(11) Uani 1 1 d . .
N7 N 0.3326(8) 0.3161(5) 0.2242(4) 0.0190(10) Uani 1 1 d . .
C11 C 0.1719(9) 0.1429(5) 0.2225(4) 0.0151(11) Uani 1 1 d . .
C4 C 0.0322(8) 0.0646(5) 0.3480(3) 0.0133(10) Uani 1 1 d . .
C9 C 0.2067(8) 0.2427(5) 0.3444(4) 0.0148(11) Uani 1 1 d . .
C8 C 0.3015(8) 0.3233(5) 0.3015(4) 0.0163(12) Uani 1 1 d . .
C5 C -0.1434(8) 0.0818(5) 0.3675(4) 0.0144(11) Uani 1 1 d . .
C3 C 0.1091(7) -0.0364(5) 0.3758(3) 0.0114(10) Uani 1 1 d . .
C12 C 0.2705(9) 0.2266(5) 0.1845(4) 0.0186(12) Uani 1 1 d . .
H12 H 0.2941 0.2196 0.1288 0.022 Uiso 1 1 calc R U
C6 C -0.2294(8) 0.0069(5) 0.4162(4) 0.0159(11) Uani 1 1 d . .
H6 H -0.3474 0.0226 0.4303 0.019 Uiso 1 1 calc R U
C10 C 0.1381(8) 0.1501(5) 0.3034(4) 0.0145(11) Uani 1 1 d . .
loop_
_atom_site_aniso_label
_atom_site_aniso_U_11
_atom_site_aniso_U_22
_atom_site_aniso_U_33
_atom_site_aniso_U_23
_atom_site_aniso_U_13
_atom_site_aniso_U_12
Br6 0.0251(3) 0.0168(3) 0.0175(3) -0.0005(2) -0.0024(3) -0.0016(2)
Br5 0.0294(4) 0.0248(3) 0.0169(3) -0.0041(2) 0.0033(3) -0.0096(3)
Br1 0.0242(3) 0.0122(3) 0.0184(3) 0.0045(2) -0.0023(2) 0.0018(2)
Br2 0.0117(3) 0.0170(3) 0.0223(3) 0.0021(2) 0.0006(2) 0.0033(2)
Br4 0.0206(3) 0.0166(3) 0.0333(3) -0.0023(3) 0.0013(3) -0.0068(3)
Br3 0.0165(3) 0.0153(3) 0.0302(3) 0.0057(2) -0.0006(3) 0.0052(2)
N1 0.017(2) 0.012(2) 0.015(2) 0.0016(18) 0.0003(19) -0.0025(19)
C2 0.014(3) 0.012(3) 0.014(3) 0.001(2) -0.004(2) -0.002(2)
N7 0.016(2) 0.017(3) 0.024(3) 0.005(2) 0.006(2) -0.003(2)
C11 0.015(3) 0.011(3) 0.019(3) 0.000(2) -0.001(2) -0.001(2)
C4 0.013(3) 0.012(2) 0.015(3) -0.003(2) -0.001(2) -0.002(2)
C9 0.017(3) 0.012(2) 0.015(3) 0.001(2) 0.001(2) 0.000(2)
C8 0.015(3) 0.010(3) 0.023(3) 0.000(2) -0.002(2) 0.002(2)
C5 0.016(3) 0.010(2) 0.018(3) 0.000(2) 0.001(2) 0.003(2)
C3 0.008(2) 0.011(2) 0.015(2) -0.001(2) 0.001(2) -0.001(2)
C12 0.017(3) 0.019(3) 0.019(3) 0.003(2) 0.003(2) -0.001(2)
C6 0.012(3) 0.014(3) 0.021(3) -0.001(2) 0.001(2) 0.000(2)
C10 0.011(3) 0.014(3) 0.019(3) 0.002(2) 0.000(2) 0.004(2)
loop_
_atom_type_symbol
_atom_type_description
_atom_type_scat_dispersion_real
_atom_type_scat_dispersion_imag
_atom_type_scat_source
C C 0.0181 0.0091 'International Tables Vol C Tables 4.2.6.8 and 6.1.1.4'
H H 0.0000 0.0000 'International Tables Vol C Tables 4.2.6.8 and 6.1.1.4'
N N 0.0311 0.0180 'International Tables Vol C Tables 4.2.6.8 and 6.1.1.4'
Br Br -0.6763 1.2805 'International Tables Vol C Tables 4.2.6.8 and 6.1.1.4'
loop_
_geom_angle_atom_site_label_1
_geom_angle_atom_site_label_2
_geom_angle_atom_site_label_3
_geom_angle
C2 N1 C6 117.7(5)
N1 C2 C3 124.1(6)
N1 C2 Br1 116.3(4)
C3 C2 Br1 119.6(5)
C8 N7 C12 118.3(6)
C10 C11 C12 120.2(6)
C10 C11 Br6 121.0(5)
C12 C11 Br6 118.8(5)
C5 C4 C3 116.7(5)
C5 C4 C10 122.7(5)
C3 C4 C10 120.6(5)
C10 C9 C8 118.6(6)
C10 C9 Br5 119.6(5)
C8 C9 Br5 121.8(5)
N7 C8 C9 123.6(6)
N7 C8 Br4 115.4(5)
C9 C8 Br4 120.9(5)
C6 C5 C4 120.5(5)
C6 C5 Br3 119.9(5)
C4 C5 Br3 119.6(4)
C2 C3 C4 118.1(5)
C2 C3 Br2 122.1(4)
C4 C3 Br2 119.9(4)
N7 C12 C11 121.8(6)
N7 C12 H12 119.1
C11 C12 H12 119.1
N1 C6 C5 122.8(6)
N1 C6 H6 118.6
C5 C6 H6 118.6
C11 C10 C9 117.3(6)
C11 C10 C4 123.3(6)
C9 C10 C4 119.3(5)
loop_
_geom_bond_atom_site_label_1
_geom_bond_atom_site_label_2
_geom_bond_distance
Br6 C11 1.891(6)
Br5 C9 1.887(6)
Br1 C2 1.891(6)
Br2 C3 1.878(6)
Br4 C8 1.903(6)
Br3 C5 1.895(6)
N1 C2 1.319(9)
N1 C6 1.334(8)
C2 C3 1.395(8)
N7 C8 1.313(9)
N7 C12 1.331(9)
C11 C10 1.375(9)
C11 C12 1.392(9)
C4 C5 1.396(8)
C4 C3 1.404(8)
C4 C10 1.490(8)
C9 C10 1.390(9)
C9 C8 1.391(9)
C5 C6 1.367(9)
C12 H12 0.9500
C6 H6 0.9500
loop_
_geom_torsion_atom_site_label_1
_geom_torsion_atom_site_label_2
_geom_torsion_atom_site_label_3
_geom_torsion_atom_site_label_4
_geom_torsion
C6 N1 C2 C3 1.0(9)
C6 N1 C2 Br1 -179.2(4)
C12 N7 C8 C9 -0.2(10)
C12 N7 C8 Br4 178.7(5)
C10 C9 C8 N7 -1.0(10)
Br5 C9 C8 N7 177.3(5)
C10 C9 C8 Br4 -179.9(4)
Br5 C9 C8 Br4 -1.6(7)
C3 C4 C5 C6 4.6(8)
C10 C4 C5 C6 -172.5(6)
C3 C4 C5 Br3 -177.3(4)
C10 C4 C5 Br3 5.6(8)
N1 C2 C3 C4 1.2(9)
Br1 C2 C3 C4 -178.7(4)
N1 C2 C3 Br2 -178.6(4)
Br1 C2 C3 Br2 1.5(7)
C5 C4 C3 C2 -3.9(8)
C10 C4 C3 C2 173.3(5)
C5 C4 C3 Br2 175.9(4)
C10 C4 C3 Br2 -6.9(7)
C8 N7 C12 C11 1.2(10)
C10 C11 C12 N7 -1.0(10)
Br6 C11 C12 N7 -179.6(5)
C2 N1 C6 C5 -0.3(9)
C4 C5 C6 N1 -2.6(9)
Br3 C5 C6 N1 179.3(4)
C12 C11 C10 C9 -0.3(9)
Br6 C11 C10 C9 178.3(4)
C12 C11 C10 C4 179.3(6)
Br6 C11 C10 C4 -2.0(8)
C8 C9 C10 C11 1.2(9)
Br5 C9 C10 C11 -177.1(5)
C8 C9 C10 C4 -178.4(5)
Br5 C9 C10 C4 3.2(8)
C5 C4 C10 C11 -99.9(7)
C3 C4 C10 C11 83.1(8)
C5 C4 C10 C9 79.7(8)
C3 C4 C10 C9 -97.3(7)
