#------------------------------------------------------------------------------
#$Date: 2019-11-11 21:20:42 +0200 (Mon, 11 Nov 2019) $
#$Revision: 227404 $
#$URL: file:///home/coder/svn-repositories/cod/cif/4/03/60/4036030.cif $
#------------------------------------------------------------------------------
#
# This file is available in the Crystallography Open Database (COD),
# http://www.crystallography.net/
#
# All data on this site have been placed in the public domain by the
# contributors.
#
data_4036030
loop_
_publ_author_name
'Rizzo, Antonio'
'Mayer, Robert J.'
'Trauner, Dirk'
_publ_section_title
;
 Biomimetic Approach Toward Enterocin and Deoxyenterocin.
;
_journal_issue                   3
_journal_name_full               'The Journal of organic chemistry'
_journal_page_first              1162
_journal_page_last               1175
_journal_paper_doi               10.1021/acs.joc.8b02273
_journal_volume                  84
_journal_year                    2019
_chemical_formula_moiety         'C7 H6 N2 O3'
_chemical_formula_sum            'C7 H6 N2 O3'
_chemical_formula_weight         166.14
_space_group_crystal_system      triclinic
_space_group_IT_number           2
_space_group_name_Hall           '-P 1'
_space_group_name_H-M_alt        'P -1'
_atom_sites_solution_hydrogens   geom
_audit_block_code                C7H6N2O3_tv041_trauner
_audit_creation_method           SHELXL-2014
_audit_update_record             03-Feb-15
_cell_angle_alpha                80.562(2)
_cell_angle_beta                 80.636(2)
_cell_angle_gamma                80.130(2)
_cell_formula_units_Z            2
_cell_length_a                   3.7834(3)
_cell_length_b                   9.5523(6)
_cell_length_c                   10.0933(7)
_cell_measurement_reflns_used    2628
_cell_measurement_temperature    100(2)
_cell_measurement_theta_max      26.1985
_cell_measurement_theta_min      3.2112
_cell_volume                     351.09(4)
_computing_cell_refinement       'APEX2 v2012.4-3 (Bruker AXS)'
_computing_data_collection       'Bruker Instrument Service v3.0.21'
_computing_data_reduction        'SAINT V8.18C (Bruker AXS Inc., 2011)'
_computing_structure_refinement
;

Sheldrick, G. M. (2008).

<i>Acta Cryst.</i> A<b>64</b>, 112--122.

;
_computing_structure_solution
;

A. Altomare, M. C. Burla, M. Camalli, G. L. Cascarano, C. Giacovazzo, A.

Guagliardi, A. G. G. Moliterni, G. Polidori, R. Spagna: SIR97: a new tool for

crystal structure determination and refinement; J. Appl. Crystallogr. 1999,

32, 115-119.

;
_diffrn_ambient_temperature      100(2)
_diffrn_detector_area_resol_mean 10.4167
_diffrn_measured_fraction_theta_full 0.998
_diffrn_measured_fraction_theta_max 0.997
_diffrn_measurement_device       'fixed-chi three-circle diffractometer'
_diffrn_measurement_device_type  'Bruker D8Venture'
_diffrn_measurement_method       'mix of phi and omega scans'
_diffrn_radiation_collimation    'focusing mirrors'
_diffrn_radiation_monochromator  'focusing mirrors'
_diffrn_radiation_type           MoK\a
_diffrn_radiation_wavelength     0.71073
_diffrn_reflns_av_R_equivalents  0.0256
_diffrn_reflns_av_unetI/netI     0.0228
_diffrn_reflns_Laue_measured_fraction_full 0.998
_diffrn_reflns_Laue_measured_fraction_max 0.997
_diffrn_reflns_limit_h_max       4
_diffrn_reflns_limit_h_min       -4
_diffrn_reflns_limit_k_max       11
_diffrn_reflns_limit_k_min       -11
_diffrn_reflns_limit_l_max       11
_diffrn_reflns_limit_l_min       -12
_diffrn_reflns_number            5996
_diffrn_reflns_point_group_measured_fraction_full 0.998
_diffrn_reflns_point_group_measured_fraction_max 0.997
_diffrn_reflns_theta_full        25.240
_diffrn_reflns_theta_max         26.40
_diffrn_reflns_theta_min         3.211
_diffrn_source                   'rotating anode (TXS)'
_diffrn_source_current           50
_diffrn_source_power             2.5
_diffrn_source_type              'Bruker TXS'
_diffrn_source_voltage           50
_exptl_absorpt_coefficient_mu    0.126
_exptl_absorpt_correction_T_max  0.9585
_exptl_absorpt_correction_T_min  0.8994
_exptl_absorpt_correction_type   multi-scan
_exptl_absorpt_process_details   'SADABS V2014/4 (Bruker AXS Inc.)'
_exptl_crystal_colour            orange
_exptl_crystal_density_diffrn    1.572
_exptl_crystal_density_method    'not measured'
_exptl_crystal_description       rod
_exptl_crystal_F_000             172
_exptl_crystal_size_max          0.100
_exptl_crystal_size_mid          0.030
_exptl_crystal_size_min          0.030
_refine_diff_density_max         0.218
_refine_diff_density_min         -0.182
_refine_diff_density_rms         0.043
_refine_ls_extinction_method     none
_refine_ls_goodness_of_fit_ref   1.083
_refine_ls_hydrogen_treatment    constr
_refine_ls_matrix_type           full
_refine_ls_number_parameters     110
_refine_ls_number_reflns         1426
_refine_ls_number_restraints     0
_refine_ls_restrained_S_all      1.083
_refine_ls_R_factor_all          0.0409
_refine_ls_R_factor_gt           0.0320
_refine_ls_shift/su_max          0.001
_refine_ls_shift/su_mean         0.000
_refine_ls_structure_factor_coef Fsqd
_refine_ls_weighting_details
'w=1/[\s^2^(Fo^2^)+(0.0466P)^2^+0.0901P] where P=(Fo^2^+2Fc^2^)/3'
_refine_ls_weighting_scheme      calc
_refine_ls_wR_factor_gt          0.0860
_refine_ls_wR_factor_ref         0.0902
_reflns_d_resolution_high        0.8010
_reflns_Friedel_coverage         0.000
_reflns_number_gt                1191
_reflns_number_total             1426
_reflns_threshold_expression     'I > 2\s(I)'
_cod_data_source_file            jo8b02273_si_001.cif
_cod_data_source_block           tv041
_cod_database_code               4036030
_shelx_space_group_comment
;

The symmetry employed for this shelxl refinement is uniquely defined

by the following loop, which should always be used as a source of

symmetry information in preference to the above space-group names.

They are only intended as comments.

;
_shelxl_version_number           2014-3
_shelx_res_file
;

TITL                                tv041 in P-1 (2) sir97

CELL   0.71069 3.7834    9.5523   10.0933   80.5622   80.6362   80.1302

ZERR         2 0.0003    0.0006    0.0007    0.0020    0.0021    0.0021

LATT  1

SFAC    C   H   N   O

UNIT    14  12   4   6

OMIT 0 1 0

LIST 4 ! automatically inserted. Change 6 to 4 for CHECKCIF!!

MERG      2

L.S.      10

BOND  $H

CONF

TEMP  -173

ACTA

FMAP      2

PLAN     -25



WGHT    0.046600    0.090100

FVAR       0.91575

C1    1    0.604761    0.712047    0.520350    11.00000    0.02059    0.01512 =

         0.01665   -0.00202   -0.00404    0.00085

AFIX  43

H1    2    0.753595    0.644073    0.575119    11.00000   -1.20000

AFIX   0

C2    1    0.607010    0.698705    0.380260    11.00000    0.01389    0.01422 =

         0.01746   -0.00382   -0.00070   -0.00270

C3    1    0.448688    0.794185    0.285848    11.00000    0.01592    0.01376 =

         0.01716   -0.00361   -0.00140   -0.00095

AFIX  43

H3    2    0.314879    0.882824    0.308179    11.00000   -1.20000

AFIX   0

C4    1    0.485848    0.759647    0.152017    11.00000    0.01286    0.01498 =

         0.01701    0.00063   -0.00356   -0.00399

C5    1    0.672863    0.631452    0.119754    11.00000    0.01655    0.01761 =

         0.01342   -0.00293   -0.00170   -0.00305

AFIX  43

H5    2    0.694175    0.609597    0.030040    11.00000   -1.20000

AFIX   0

C6    1    0.835605    0.530757    0.220655    11.00000    0.01563    0.01699 =

         0.01534   -0.00387   -0.00038   -0.00369

C7    1    0.354920    0.839583   -0.073758    11.00000    0.01999    0.01999 =

         0.01456   -0.00282   -0.00520   -0.00036

AFIX 137

H7A   2    0.221881    0.922142   -0.125289    11.00000   -1.50000

H7B   2    0.253204    0.752799   -0.077354    11.00000   -1.50000

H7C   2    0.610806    0.827707   -0.113208    11.00000   -1.50000

AFIX   0

N1    3    0.395093    0.818927    0.570452    11.00000    0.02393    0.01985 =

         0.01212   -0.00164   -0.00516   -0.00255

N2    3    0.208960    0.912221    0.612664    11.00000    0.03440    0.02573 =

         0.01814   -0.00725   -0.00622    0.00512

O1    4    0.797995    0.570877    0.350788    11.00000    0.02042    0.01417 =

         0.01459   -0.00255   -0.00368    0.00139

O2    4    1.007746    0.412560    0.209676    11.00000    0.02445    0.01476 =

         0.01897   -0.00369   -0.00294    0.00337

O3    4    0.323784    0.863305    0.065592    11.00000    0.02145    0.01556 =

         0.01475   -0.00179   -0.00571    0.00121

HKLF      4



REM                                 tv041 in P-1 (2) sir97

REM R1 =  0.0320 for    1191 Fo > 4sig(Fo)  and  0.0409 for all    1426 data

REM    110 parameters refined using      0 restraints



END



WGHT      0.0466      0.0901



REM Highest difference peak  0.218,  deepest hole -0.182,  1-sigma level  0.043

Q1    1   0.5361  0.6844  0.1390  11.00000  0.05    0.22

Q2    1   0.5578  0.6903  0.4514  11.00000  0.05    0.22

Q3    1   0.4019  0.7610  0.2292  11.00000  0.05    0.21

Q4    1   0.8094  0.6048  0.1575  11.00000  0.05    0.21

Q5    1   0.4435  0.7243  0.3453  11.00000  0.05    0.20

Q6    1   0.1622  0.9220 -0.0919  11.00000  0.05    0.18

Q7    1   0.6352  0.6555  0.3808  11.00000  0.05    0.17

Q8    1   0.9708  0.5174  0.4003  11.00000  0.05    0.16

Q9    1   0.5962  0.7590  0.3156  11.00000  0.05    0.16

Q10   1   0.6594  0.6820  0.5480  11.00000  0.05    0.15

Q11   1   0.6888  0.5733  0.1724  11.00000  0.05    0.15

Q12   1   0.4479  0.7958  0.1170  11.00000  0.05    0.14

Q13   1   0.0699  0.9273  0.1032  11.00000  0.05    0.13

Q14   1   0.3799  0.7234  0.5637  11.00000  0.05    0.13

Q15   1   0.1878  0.9711  0.0963  11.00000  0.05    0.12

Q16   1  -0.0113  1.0060  0.3420  11.00000  0.05    0.12

Q17   1   1.1737  0.3844  0.1524  11.00000  0.05    0.12

Q18   1  -0.0652  0.9768 -0.2222  11.00000  0.05    0.12

Q19   1   1.0984  0.4556  0.1328  11.00000  0.05    0.12

Q20   1   0.8301  0.5601  0.2814  11.00000  0.05    0.11

Q21   1   0.1091  0.8040  0.1180  11.00000  0.05    0.11

Q22   1   0.0179  0.8989  0.6986  11.00000  0.05    0.11

Q23   1   1.0592  0.4803  0.2063  11.00000  0.05    0.11

Q24   1   0.8266  0.5818 -0.0344  11.00000  0.05    0.10

Q25   1   0.9993  0.3482  0.3024  11.00000  0.05    0.10

;
_shelx_title
'                                tv041 in P-1 (2) sir97'
_shelx_refln_list_code           4
_shelx_f_calc_maximum            105.90
_shelx_f_squared_multiplier      1.000
_shelx_hkl_file
;

  -1   0   0 880.255 24.2923   2

  -1   0   0 818.083 24.2501   3

  -1   0   0 900.547 24.2983   1

   1   0   0 875.429 24.2903   2

   1   0   0 878.276 24.3016   1

   1   0   0 853.802 24.2689   3

  -2   0   0 19.8478 1.10122   2

  -2   0   0 19.4019 1.02633   3

  -2   0   0 18.7542 1.11828   1

   2   0   0 18.7236 1.07468   1

   2   0   0 19.2572 1.02098   3

   2   0   0 19.8183 1.15620   2

  -3   0   0 21.2892 1.63448   1

  -3   0   0 25.1897 1.59902   2

  -3   0   0 24.0315 1.57803   3

   3   0   0 26.7814 1.73217   1

   3   0   0 26.2880 1.71478   2

   3   0   0 29.5162 1.59454   3

  -4   0   0 9.08693 1.66339   3

  -4   0   0 8.14847 1.74729   2

   4   0   0 6.06582 2.20970   2

   4   0   0 11.5597 1.71340   1

   4  -1   0 0.82898 1.40103   1

   4  -1   0 -0.9146 2.00635   2

  -4   1   0 -0.1063 1.51830   3

  -4   1   0 1.12171 1.59946   2

   3  -1   0 -0.0350 1.42011   1

   3  -1   0 1.25594 1.03912   2

  -3   1   0 -0.4224 0.81409   2

  -3   1   0 2.52406 0.94208   3

  -3   1   0 1.27538 0.98718   1

   2  -1   0 11.3635 0.85721   2

   2  -1   0 9.96309 0.89195   1

  -2   1   0 10.2947 0.87836   3

  -2   1   0 10.0647 0.78904   2

  -2   1   0 7.07445 0.96973   1

   1  -1   0 686.346 18.4399   1

   1  -1   0 639.639 18.3642   2

  -1   1   0 626.163 18.3704   2

  -1   1   0 670.289 18.4236   1

  -1   1   0 653.513 18.3780   3

   0  -1   0 -0.0131 0.08118   1

  -1  -1   0 236.932 6.91109   2

  -1  -1   0 250.390 6.87079   1

  -1  -1   0 228.996 6.86208   3

   1   1   0 256.182 6.88279   1

   1   1   0 246.119 6.91487   2

   1   1   0 228.140 6.86899   3

  -2  -1   0 72.1201 2.51086   2

  -2  -1   0 72.9268 2.46460   1

  -2  -1   0 74.7801 2.44617   3

   2   1   0 77.0480 2.50386   1

   2   1   0 75.1068 2.54480   2

   2   1   0 73.0481 2.46434   3

  -3  -1   0 8.47011 1.10225   2

  -3  -1   0 9.29236 1.04553   3

   3   1   0 10.5432 1.23388   2

   3   1   0 8.55058 1.14859   1

   3   1   0 10.9476 1.11754   3

  -4  -1   0 3.73964 1.60329   2

  -4  -1   0 1.48700 1.49529   3

   4   1   0 4.62777 1.47987   1

   4   1   0 2.14145 1.53382   3

   4  -2   0 18.8036 2.08223   1

   4  -2   0 16.3197 2.38227   2

  -4   2   0 16.4517 1.57403   3

  -4   2   0 14.9505 1.88996   2

  -4   2   0 16.7381 1.99519   3

   3  -2   0 37.8012 2.11220   2

   3  -2   0 35.5042 2.00657   1

  -3   2   0 37.3945 1.98509   3

  -3   2   0 33.4911 2.08369   1

  -3   2   0 36.2775 1.69254   3

  -3   2   0 37.2093 1.99069   2

   2  -2   0 5.26854 0.66912   2

   2  -2   0 5.02927 0.73389   1

  -2   2   0 4.53107 0.75115   1

  -2   2   0 5.18287 0.54885   3

  -2   2   0 5.47461 0.64053   2

  -2   2   0 5.92241 0.73040   3

   1  -2   0 111.663 3.29306   2

   1  -2   0 113.450 3.38977   1

  -1   2   0 113.809 3.39386   1

  -1   2   0 109.105 3.29748   3

  -1   2   0 109.918 3.30328   2

   0  -2   0 364.693 10.2532   3

   0   2   0 361.072 10.2160   2

   0   2   0 373.065 10.2558   3

   0   2   0 356.843 10.2153   1

  -1  -2   0 9870.89 273.952   3

  -1  -2   0 9745.86 273.529   1

  -1  -2   0 9627.55 274.133   2

   1   2   0 9818.24 273.990   3

   1   2   0 9999.99 273.626   1

   1   2   0 9794.17 274.041   2

  -2  -2   0 841.535 24.7753   2

  -2  -2   0 889.342 24.6774   1

  -2  -2   0 900.894 24.6980   3

   2   2   0 887.935 24.7855   2

   2   2   0 858.976 24.7027   1

   2   2   0 879.056 24.7198   3

  -3  -2   0 4.53348 0.97070   3

  -3  -2   0 3.51645 0.98594   2

  -3  -2   0 2.80770 0.87705   1

   3   2   0 4.26401 1.10934   2

   3   2   0 3.78575 0.97665   1

   3   2   0 4.73871 0.94475   3

  -4  -2   0 5.00774 1.66076   3

  -4  -2   0 6.24184 1.69951   2

   4   2   0 7.33331 1.60584   3

   4   2   0 6.56679 1.48225   1

   4  -3   0 1.49686 1.68014   1

   4  -3   0 4.22054 2.23806   2

  -4   3   0 1.99075 1.94491   3

  -4   3   0 3.87536 1.41807   3

  -4   3   0 3.88653 1.80427   2

   3  -3   0 5.68043 1.22546   1

   3  -3   0 4.30373 1.20293   2

  -3   3   0 5.55572 1.22135   3

  -3   3   0 7.80366 1.14915   2

  -3   3   0 7.00874 0.91573   3

  -3   3   0 4.62463 1.29241   1

   2  -3   0 66.1351 2.32163   2

   2  -3   0 68.8790 2.52245   1

  -2   3   0 66.9023 2.48808   1

  -2   3   0 68.3739 2.45384   3

  -2   3   0 68.2769 2.35742   2

  -2   3   0 66.4212 2.27299   3

   1  -3   0 67.3710 2.19021   3

   1  -3   0 66.9313 2.14167   2

   1  -3   0 69.9422 2.29314   1

  -1   3   0 68.2321 2.28773   1

  -1   3   0 68.8614 2.14822   2

  -1   3   0 67.9475 2.17997   3

   0  -3   0 569.706 15.5116   1

   0  -3   0 555.779 15.5136   2

   0  -3   0 556.686 15.5723   3

   0   3   0 543.304 15.5143   2

   0   3   0 551.435 15.5673   3

   0   3   0 539.819 15.5132   1

  -1  -3   0 25.6508 1.03926   2

  -1  -3   0 24.6449 1.04480   3

  -1  -3   0 24.9577 0.91463   1

   1   3   0 23.7295 1.00552   3

   1   3   0 26.4646 1.07259   2

   1   3   0 25.2223 0.91338   1

  -2  -3   0 16.5368 1.06093   2

  -2  -3   0 13.6434 1.03713   3

  -2  -3   0 15.2721 0.96694   1

   2   3   0 15.0686 0.99123   3

   2   3   0 15.0985 1.12359   2

   2   3   0 17.0360 0.95881   1

  -3  -3   0 6.66565 1.04393   3

  -3  -3   0 6.86617 1.08800   2

  -3  -3   0 6.28608 0.96862   1

   3   3   0 6.87645 1.16060   2

   3   3   0 6.29832 0.95962   1

   3   3   0 7.61685 1.00784   3

  -4  -3   0 10.6731 1.85216   3

  -4  -3   0 13.3409 1.81598   2

   4   3   0 15.6595 1.84314   1

   4   3   0 10.4103 1.71538   3

   4  -4   0 2.77720 1.97672   1

  -4   4   0 0.74469 1.42994   3

  -4   4   0 6.20351 1.96866   2

   3  -4   0 -1.9249 1.16939   1

   3  -4   0 -0.1377 1.14932   2

  -3   4   0 -0.8724 1.25462   3

  -3   4   0 -0.5490 0.83097   3

  -3   4   0 -1.0649 1.36258   1

  -3   4   0 0.47619 0.98219   2

   2  -4   0 149.442 4.85313   1

   2  -4   0 153.019 4.61375   2

  -2   4   0 149.702 4.62835   2

  -2   4   0 148.830 4.77290   3

  -2   4   0 158.383 4.63763   3

  -2   4   0 145.876 4.80888   1

   1  -4   0 34.4831 1.32255   2

   1  -4   0 35.3503 1.48334   1

   1  -4   0 35.3361 1.41812   3

  -1   4   0 37.8735 1.55151   1

  -1   4   0 36.7651 1.38528   3

   0  -4   0 254.466 7.11344   2

   0  -4   0 247.793 7.09836   1

   0  -4   0 241.050 7.18196   3

   0   4   0 252.163 7.12126   1

   0   4   0 247.682 7.11535   2

   0   4   0 245.017 7.18006   3

  -1  -4   0 35.5993 1.36074   2

  -1  -4   0 34.0217 1.18845   1

  -1  -4   0 33.2248 1.39261   3

   1   4   0 35.5772 1.17867   1

   1   4   0 33.7654 1.42165   2

   1   4   0 31.8257 1.33155   3

  -2  -4   0 1331.96 37.2875   3

  -2  -4   0 1356.79 37.3875   2

  -2  -4   0 1320.61 37.1512   1

   2   4   0 1349.80 37.2003   1

   2   4   0 1349.86 37.3193   3

   2   4   0 1248.69 37.3141   2

  -3  -4   0 656.115 18.5176   2

  -3  -4   0 661.981 18.2712   1

  -3  -4   0 605.537 18.3120   3

   3   4   0 625.495 18.4511   2

   3   4   0 644.924 18.4018   3

   3   4   0 636.029 18.3321   1

  -4  -4   0 0.15616 1.48975   2

  -4  -4   0 -0.2833 1.73751   3

   4   4   0 1.37059 1.60416   1

   4   4   0 1.06483 1.51750   3

   3  -5   0 7.11654 1.50271   1

   3  -5   0 7.01479 1.42365   2

  -3   5   0 7.06201 1.14664   3

  -3   5   0 6.97794 1.22396   2

  -3   5   0 6.87962 1.70362   3

   2  -5   0 30.1704 1.58134   2

   2  -5   0 36.4086 1.84061   1

  -2   5   0 32.1104 1.98910   1

  -2   5   0 34.0876 1.59775   3

   1  -5   0 195.381 5.79763   2

   1  -5   0 200.607 5.91690   3

   1  -5   0 200.628 5.93589   1

   1  -5   0 190.135 5.73969   2

  -1   5   0 202.359 5.88871   3

  -1   5   0 196.880 5.94178   1

   0  -5   0 49.6459 1.65930   1

   0  -5   0 49.3666 1.67311   2

   0   5   0 47.3009 1.69532   2

   0   5   0 47.5578 1.74162   1

   0   5   0 49.3703 1.78952   3

  -1  -5   0 118.915 3.75244   2

   1   5   0 121.247 3.78707   2

   1   5   0 124.513 3.79006   3

   1   5   0 117.177 3.56152   1

  -2  -5   0 106.801 3.58409   2

  -2  -5   0 105.830 3.55872   3

  -2  -5   0 106.006 3.34676   1

   2   5   0 105.376 3.52694   3

   2   5   0 107.711 3.36350   1

   2   5   0 106.371 3.61627   2

  -3  -5   0 -0.4062 1.14233   3

  -3  -5   0 -1.1982 1.02878   1

  -3  -5   0 1.67779 0.97304   2

   3   5   0 0.94543 1.08230   3

   3   5   0 -0.6967 0.90885   1

   3   5   0 -0.2738 1.11461   2

  -4  -5   0 29.5864 2.75251   2

   4   5   0 21.4715 2.13111   1

   4   5   0 36.7707 2.58752   3

   3  -6   0 -0.3080 1.39881   2

   3  -6   0 -1.6350 1.73199   1

  -3   6   0 1.83002 1.95512   3

  -3   6   0 -0.5279 1.09545   3

   2  -6   0 3.97754 1.16517   1

   2  -6   0 4.34014 0.90046   2

   2  -6   0 5.78769 0.76231   2

  -2   6   0 5.56650 0.90512   3

  -2   6   0 5.52126 1.38305   1

   1  -6   0 178.657 5.34053   2

   1  -6   0 175.532 5.49199   3

   1  -6   0 177.760 5.47210   1

   1  -6   0 182.286 5.27162   2

  -1   6   0 177.171 5.50972   1

  -1   6   0 178.342 5.43543   3

   0  -6   0 45.0597 1.66233   2

   0  -6   0 43.3576 1.80734   3

   0   6   0 46.0506 1.73623   2

   0   6   0 44.9119 1.77359   1

   0   6   0 45.1774 1.74790   3

  -1  -6   0 80.6399 2.70190   2

  -1  -6   0 80.0685 2.78464   3

   1   6   0 80.0017 2.48241   1

   1   6   0 78.1685 2.71247   3

   1   6   0 78.8073 2.58540   1

  -2  -6   0 3.37164 0.88193   2

  -2  -6   0 2.76685 0.82883   3

  -2  -6   0 2.42094 0.79538   1

   2   6   0 3.98130 0.96511   2

   2   6   0 3.78196 0.78246   3

   2   6   0 3.05672 0.62223   1

  -3  -6   0 223.492 7.04909   2

  -3  -6   0 217.165 6.75854   1

  -3  -6   0 203.004 6.92572   3

   3   6   0 204.324 7.07411   2

   3   6   0 230.783 6.81182   1

   3   6   0 238.725 7.00676   3

   4   6   0 323.363 9.96465   1

   4   6   0 312.963 9.99411   3

   3  -7   0 16.2382 2.10592   2

   3  -7   0 17.7658 2.33866   1

  -3   7   0 19.1150 2.73796   3

  -3   7   0 18.8294 1.76049   3

   2  -7   0 12.1443 1.17863   2

   2  -7   0 13.4728 1.20375   2

   2  -7   0 14.6725 1.62520   1

  -2   7   0 12.1921 1.26336   3

  -2   7   0 13.6686 1.81413   1

   1  -7   0 17.4778 1.27736   1

   1  -7   0 15.4901 1.33087   2

   1  -7   0 17.6275 1.43575   3

   1  -7   0 16.4323 1.04631   2

  -1   7   0 16.0512 1.36767   1

  -1   7   0 15.2869 1.29506   3

   0  -7   0 110.788 3.80606   3

   0  -7   0 115.788 3.57615   2

   0   7   0 112.823 3.67082   1

   0   7   0 113.885 3.65480   2

   0   7   0 110.753 3.71282   3

  -1  -7   0 0.40050 0.75742   3

  -1  -7   0 0.54154 0.65323   2

   1   7   0 0.14078 0.85801   2

   1   7   0 0.26895 0.41915   1

   1   7   0 0.17154 0.56047   3

   1   7   0 0.28713 0.70082   1

  -2  -7   0 54.8716 2.16564   1

  -2  -7   0 54.9543 2.51798   3

  -2  -7   0 53.2870 2.41315   2

   2   7   0 57.2960 2.07354   1

   2   7   0 54.6130 2.61708   2

   2   7   0 54.7249 2.34007   3

  -3  -7   0 71.4632 3.03517   1

  -3  -7   0 72.5629 3.31439   2

   3   7   0 72.7888 3.16094   3

   3   7   0 69.8440 2.94619   1

  -4  -7   0 -4.3950 1.85964   2

   4   7   0 -1.2503 1.75981   1

   4   7   0 1.65794 1.94797   3

   2  -8   0 0.28218 0.79884   2

   2  -8   0 1.05310 1.12843   2

   2  -8   0 1.89394 1.53401   1

  -2   8   0 -0.1599 1.06415   3

  -2   8   0 1.47258 1.85483   1

   1  -8   0 0.55981 0.63690   2

   1  -8   0 -0.2693 0.92905   2

   1  -8   0 -0.2557 0.95279   1

   1  -8   0 0.26205 1.27451   3

  -1   8   0 0.38378 0.94109   3

  -1   8   0 0.32277 1.22207   1

   0  -8   0 34.6367 1.60222   2

   0  -8   0 29.9534 1.99651   3

   0   8   0 29.1373 1.71487   3

  -1  -8   0 1.38481 0.84322   2

  -1  -8   0 0.33354 0.88622   3

   1   8   0 0.31272 0.89351   1

   1   8   0 0.52412 1.02956   2

   1   8   0 -0.1445 0.72107   3

   1   8   0 0.95202 0.53815   1

  -2  -8   0 0.82057 1.06420   2

  -2  -8   0 4.26809 1.32693   3

   2   8   0 1.38361 0.76643   1

   2   8   0 1.81620 1.43348   2

   2   8   0 1.62916 0.89259   3

  -3  -8   0 -1.1665 1.44566   2

  -3  -8   0 -0.7497 1.44664   1

   3   8   0 -0.5078 1.33290   1

   3   8   0 -1.1928 1.15068   3

   2  -9   0 7.93071 1.90447   1

  -2   9   0 8.94697 1.59547   3

   1  -9   0 2.39762 0.85573   2

   1  -9   0 1.79878 1.19838   2

   1  -9   0 3.36702 1.64944   3

   1  -9   0 2.92292 1.18500   1

  -1   9   0 2.31657 1.59580   1

  -1   9   0 0.99932 1.12528   3

   0  -9   0 5.17968 0.93294   2

   0  -9   0 3.67096 1.34189   3

   0   9   0 3.72375 0.97861   3

   0   9   0 5.27351 0.78144   1

   0   9   0 4.06793 1.27546   1

  -1  -9   0 12.3137 1.31175   2

  -1  -9   0 9.49083 1.50364   3

   1   9   0 10.8450 1.23283   3

   1   9   0 12.6340 0.94158   1

   1   9   0 13.3044 1.64931   2

   1   9   0 11.1607 1.40280   1

  -2  -9   0 18.7412 1.82657   2

   2   9   0 13.3449 1.96709   2

   2   9   0 18.5749 1.49413   1

   2   9   0 17.4917 1.60675   1

   2   9   0 19.1423 1.66076   3

  -3  -9   0 41.9241 3.20649   2

   3   9   0 38.6347 2.75186   3

   3   9   0 41.3103 2.53562   1

   1 -10   0 0.41750 1.34305   1

   1 -10   0 0.62564 0.99137   2

  -1  10   0 -1.5502 1.25335   3

  -1  10   0 1.06557 1.87864   1

   0 -10   0 6.41624 1.17787   2

   0  10   0 5.83608 0.97357   1

   0  10   0 6.13626 1.32924   3

   0  10   0 7.65105 1.61027   1

  -1 -10   0 -0.0497 1.22337   2

   1  10   0 2.36832 1.13001   3

   1  10   0 -0.8439 0.78281   1

   1  10   0 0.11347 1.67084   2

   1  10   0 1.28809 1.41032   1

  -2 -10   0 4.49700 1.75535   2

   2  10   0 3.90867 1.09393   1

   2  10   0 4.32644 1.71910   1

   2  10   0 5.38976 1.34154   3

  -3 -10   0 0.42741 2.28682   2

   3  10   0 3.24381 2.47475   3

   3  10   0 1.42520 1.57822   1

   0 -11   0 1.77214 1.36410   2

   0  11   0 -0.9776 1.09593   1

   0  11   0 -0.6261 1.46982   3

  -1 -11   0 20.6457 1.92967   2

   1  11   0 18.7384 1.37120   1

   1  11   0 18.3693 1.88120   3

   1  11   0 14.3250 2.48697   2

  -2 -11   0 -2.1410 1.91649   2

   2  11   0 1.85599 1.46966   3

   2  11  -1 2.50356 1.48067   1

  -2 -11   1 5.35420 2.07089   2

   1  11  -1 2.90410 1.46915   3

   1  11  -1 3.99728 2.29931   2

   1  11  -1 2.81371 1.25659   1

  -1 -11   1 4.32670 1.61097   2

   0  11  -1 63.7303 2.87094   1

   0  11  -1 61.8663 3.36486   3

   0 -11   1 62.3689 2.94887   2

   2  10  -1 1.09653 1.23589   1

   2  10  -1 2.91158 1.29044   3

   2  10  -1 -0.9263 1.96857   1

  -2 -10   1 2.67068 1.65695   2

   1  10  -1 292.821 8.24962   1

   1  10  -1 282.018 8.68892   3

   1  10  -1 272.870 8.58735   1

   1  10  -1 262.735 8.64505   2

  -1 -10   1 271.061 8.92432   2

   0  10  -1 127.754 4.63638   3

   0  10  -1 124.923 4.96033   1

   0  10  -1 130.301 4.25908   1

   0 -10   1 128.249 4.28458   2

  -1  10  -1 29.4627 2.23876   3

  -1  10  -1 23.9468 2.62664   1

   3   9  -1 -1.4356 1.56376   3

   3   9  -1 -0.4001 1.47318   1

  -3  -9   1 0.39851 1.87707   2

   2   9  -1 6.80987 1.63313   1

   2   9  -1 10.6047 1.37159   3

   2   9  -1 5.36278 1.92532   2

   2   9  -1 9.88777 1.21844   1

  -2  -9   1 8.82277 1.52425   2

   1   9  -1 22.1366 1.44530   1

   1   9  -1 21.5163 1.76270   1

   1   9  -1 20.6628 1.73974   3

   1   9  -1 23.2683 1.87565   2

  -1  -9   1 23.2288 1.84642   2

   0   9  -1 37.5779 2.60808   1

   0   9  -1 38.1408 1.76389   1

   0   9  -1 39.4113 2.14051   3

   0  -9   1 38.2702 1.83066   2

   0  -9   1 32.8592 2.39307   3

  -1   9  -1 54.2267 2.62605   3

  -1   9  -1 45.9269 3.22090   1

   1  -9   1 51.2362 2.23176   2

   1  -9   1 53.5506 2.61381   1

   1  -9   1 52.1682 3.26795   3

   1  -9   1 51.0505 1.95806   2

  -2   9  -1 51.9067 2.99583   3

   2  -9   1 56.2609 3.47347   1

   3   8  -1 5.60705 1.44119   1

   3   8  -1 7.35892 1.45950   3

  -3  -8   1 8.44172 1.84461   1

  -3  -8   1 5.03781 1.64653   2

   2   8  -1 -1.0178 0.78847   1

   2   8  -1 0.40485 0.89808   3

   2   8  -1 -0.8209 1.43685   2

  -2  -8   1 0.11006 1.12287   3

  -2  -8   1 0.02206 1.11613   2

   1   8  -1 31.0416 2.03836   2

   1   8  -1 34.1210 2.00884   1

   1   8  -1 31.1852 1.49409   1

   1   8  -1 30.1664 1.74558   3

  -1  -8   1 33.2005 1.81813   2

  -1  -8   1 28.0574 1.95856   3

   0   8  -1 427.695 12.5455   3

   0   8  -1 422.175 12.2595   2

   0   8  -1 426.480 12.4083   1

   0  -8   1 432.150 12.2223   2

   0  -8   1 415.865 12.5397   3

  -1   8  -1 315.424 9.65219   1

  -1   8  -1 316.262 9.54388   3

   1  -8   1 313.272 9.11968   2

   1  -8   1 317.020 9.64938   3

   1  -8   1 315.143 9.24688   2

   1  -8   1 333.448 9.55312   1

  -2   8  -1 62.0078 2.80685   3

  -2   8  -1 54.2269 3.58900   1

   2  -8   1 58.4907 2.10780   2

   2  -8   1 61.9763 3.17059   1

   2  -8   1 56.8645 1.97377   2

   4   7  -1 33.1008 2.60974   1

   3   7  -1 -0.3726 1.17613   1

   3   7  -1 -2.2484 1.12563   3

  -3  -7   1 0.39323 1.37447   2

  -3  -7   1 1.98056 1.51170   1

   2   7  -1 0.35604 0.72462   1

   2   7  -1 -0.1188 0.78618   3

   2   7  -1 -1.4613 1.05925   2

  -2  -7   1 -0.0398 0.87694   1

  -2  -7   1 0.85961 0.99236   3

  -2  -7   1 0.54829 0.95061   2

   1   7  -1 23.1495 1.16745   1

   1   7  -1 21.8759 1.59297   2

   1   7  -1 20.7159 1.31131   3

  -1  -7   1 22.1511 1.39079   2

  -1  -7   1 21.9828 1.62538   3

   0   7  -1 16.8576 1.31092   1

   0   7  -1 14.2997 1.17480   2

   0   7  -1 13.5644 1.21310   3

   0  -7   1 16.8452 1.32792   3

   0  -7   1 13.1900 0.99169   2

  -1   7  -1 36.9935 1.86334   3

  -1   7  -1 39.2835 2.20250   1

   1  -7   1 36.5838 1.58087   2

   1  -7   1 38.2805 1.42325   2

   1  -7   1 39.0005 1.93771   1

   1  -7   1 38.7337 2.09377   3

  -2   7  -1 2.13920 1.69058   1

   2  -7   1 2.61809 1.29801   1

   2  -7   1 2.10854 0.55555   2

   2  -7   1 3.07352 0.74176   2

  -3   7  -1 41.9527 2.70201   3

  -3   7  -1 34.9962 3.29542   3

   3  -7   1 43.8617 3.51381   1

   4   6  -1 27.2638 2.50651   3

   4   6  -1 21.6047 2.19778   1

  -4  -6   1 25.4301 2.44184   2

   3   6  -1 65.3331 2.77424   1

   3   6  -1 65.6158 2.78248   3

   3   6  -1 64.3181 3.71598   2

  -3  -6   1 62.6966 3.02463   3

  -3  -6   1 59.4352 2.89139   2

  -3  -6   1 63.0705 2.88419   1

   2   6  -1 8.38813 0.84985   1

   2   6  -1 9.04003 1.23025   2

   2   6  -1 10.2338 1.04732   3

  -2  -6   1 8.65547 0.94964   1

  -2  -6   1 10.4481 1.17611   2

  -2  -6   1 9.05811 1.14250   3

   1   6  -1 2.92725 0.64570   3

   1   6  -1 2.38227 0.48741   1

   1   6  -1 2.71374 0.70564   1

  -1  -6   1 2.40724 0.61327   2

  -1  -6   1 2.95826 0.80766   3

   0   6  -1 63.3532 2.20833   2

   0   6  -1 65.2519 2.36459   3

   0   6  -1 66.8453 2.38905   1

   0  -6   1 66.1564 2.16215   2

   0  -6   1 66.8291 2.44066   3

  -1   6  -1 216.529 6.65182   1

  -1   6  -1 224.297 6.60108   3

   1  -6   1 218.208 6.26560   2

   1  -6   1 218.692 6.60069   1

   1  -6   1 212.617 6.30660   2

   1  -6   1 218.136 6.63696   3

  -2   6  -1 643.100 19.2115   1

  -2   6  -1 692.116 19.0944   3

   2  -6   1 654.160 18.7375   2

   2  -6   1 671.815 18.7355   2

  -3   6  -1 63.9683 4.00263   3

  -3   6  -1 61.4207 2.89786   3

   3  -6   1 62.1861 2.81283   2

   3  -6   1 67.3372 3.51716   1

   4   5  -1 50.2073 3.18330   1

   4   5  -1 52.4681 3.15696   3

  -4  -5   1 47.4700 3.29515   2

   3   5  -1 208.217 6.60518   3

   3   5  -1 198.909 6.71201   2

  -3  -5   1 215.105 6.68628   2

  -3  -5   1 206.872 6.45445   1

  -3  -5   1 205.552 6.54906   3

   2   5  -1 9.14240 0.89090   3

   2   5  -1 10.8999 1.12001   2

   2   5  -1 9.36209 0.81012   1

  -2  -5   1 9.80765 1.05630   2

  -2  -5   1 10.4811 0.89619   1

  -2  -5   1 9.42103 1.04233   3

   1   5  -1 1.62322 0.59159   2

   1   5  -1 3.48577 0.44538   1

   1   5  -1 2.64825 0.56112   3

  -1  -5   1 1.87654 0.54890   2

  -1  -5   1 2.77516 0.64308   3

   0   5  -1 0.34713 0.54288   1

   0   5  -1 0.19074 0.44685   3

   0   5  -1 -0.2010 0.38756   2

   0  -5   1 0.02454 0.33861   2

   0  -5   1 0.88562 0.55978   3

  -1   5  -1 7.14643 0.74271   3

   1  -5   1 6.68432 0.50607   2

   1  -5   1 4.88220 0.72612   1

   1  -5   1 7.10871 0.52777   2

   1  -5   1 6.31401 0.81163   3

  -2   5  -1 3.54599 1.17860   1

  -2   5  -1 3.28012 0.81391   3

   2  -5   1 3.20628 0.98197   1

   2  -5   1 3.10144 0.63965   2

  -3   5  -1 28.6647 1.82343   2

  -3   5  -1 27.6945 2.30872   3

  -3   5  -1 23.3626 1.90518   3

   3  -5   1 29.5447 2.23815   1

   3  -5   1 28.0920 1.98296   2

   4   4  -1 11.8329 1.88684   3

   4   4  -1 12.9193 1.91478   1

  -4  -4   1 10.6381 1.88491   2

  -4  -4   1 8.48829 2.11616   3

   3   4  -1 146.559 4.85593   1

   3   4  -1 157.030 4.95258   3

   3   4  -1 144.296 5.05461   2

  -3  -4   1 151.612 4.88631   1

  -3  -4   1 148.883 4.96801   3

  -3  -4   1 152.310 5.04481   2

   2   4  -1 310.694 8.90756   3

   2   4  -1 306.615 8.98043   2

   2   4  -1 304.426 8.81909   1

  -2  -4   1 304.703 8.90104   3

  -2  -4   1 292.753 8.97000   2

  -2  -4   1 299.214 8.78411   1

   1   4  -1 15.7539 0.91082   3

   1   4  -1 17.2505 0.78643   1

   1   4  -1 16.7448 1.01683   2

  -1  -4   1 15.2517 0.95951   3

  -1  -4   1 16.5588 0.96361   2

  -1  -4   1 14.7135 0.83361   1

   0   4  -1 32.2609 1.29916   1

   0   4  -1 30.8847 1.25840   3

   0   4  -1 30.0130 1.12987   2

   0  -4   1 32.4271 1.11964   2

   0  -4   1 30.5862 1.30368   3

  -1   4  -1 38.8060 1.50605   3

  -1   4  -1 36.3018 1.63680   1

   1  -4   1 37.2571 1.20992   2

   1  -4   1 40.2540 1.59016   1

   1  -4   1 37.2901 1.54314   3

   1  -4   1 36.4341 1.25529   2

  -2   4  -1 19.4825 1.22070   3

  -2   4  -1 19.5837 1.06817   2

  -2   4  -1 20.6396 1.52976   1

   2  -4   1 18.7956 1.47443   1

   2  -4   1 20.2117 1.10011   2

  -3   4  -1 763.069 21.5477   3

  -3   4  -1 710.043 21.7506   1

  -3   4  -1 782.565 21.4855   2

  -3   4  -1 746.776 21.6902   3

   3  -4   1 765.834 21.8437   1

  -4   4  -1 63.1193 5.01612   2

  -4   4  -1 62.5035 3.18994   3

   4  -4   1 54.4040 3.88727   1

   4   3  -1 36.3121 2.64280   3

   4   3  -1 33.0748 2.61758   1

  -4  -3   1 32.8545 2.74231   3

  -4  -3   1 32.1236 2.64742   2

   3   3  -1 43.4242 2.03528   1

   3   3  -1 39.5296 1.93741   3

   3   3  -1 35.0334 2.10117   2

  -3  -3   1 40.3770 1.99578   3

  -3  -3   1 37.0893 1.93920   1

  -3  -3   1 38.7396 2.03429   2

   2   3  -1 826.207 22.9251   1

   2   3  -1 808.188 22.9330   3

   2   3  -1 800.806 23.0187   2

  -2  -3   1 804.481 22.9159   3

  -2  -3   1 815.751 23.0524   2

   1   3  -1 9.74319 0.75922   2

   1   3  -1 9.88033 0.65778   3

   1   3  -1 9.39581 0.55928   1

  -1  -3   1 10.1172 0.71469   2

  -1  -3   1 9.00013 0.74356   3

  -1  -3   1 9.29721 0.61765   1

   0   3  -1 1.16442 0.24863   2

   0   3  -1 0.54333 0.34239   1

   0   3  -1 1.30452 0.31430   3

   0  -3   1 0.97547 0.21731   2

   0  -3   1 1.38774 0.39028   3

  -1   3  -1 49.4296 1.82399   1

  -1   3  -1 47.9218 1.68633   3

   1  -3   1 47.8582 1.49058   2

   1  -3   1 48.7739 1.76106   1

   1  -3   1 47.9356 1.71698   3

  -2   3  -1 53.1055 1.83333   2

  -2   3  -1 52.6814 2.13453   3

  -2   3  -1 50.6099 1.90063   3

  -2   3  -1 50.5713 2.15093   1

   2  -3   1 49.7390 1.81581   2

   2  -3   1 50.5598 2.11574   1

  -3   3  -1 0.17922 1.18541   1

  -3   3  -1 1.23325 1.24076   3

  -3   3  -1 -0.2593 0.85521   2

  -3   3  -1 0.21120 0.82022   3

   3  -3   1 2.24579 1.06451   1

   3  -3   1 0.96262 0.97480   2

  -4   3  -1 46.7754 3.67046   3

  -4   3  -1 58.9085 3.17260   2

  -4   3  -1 51.9651 2.78811   3

   4  -3   1 46.7890 3.11332   1

   4   2  -1 17.1782 1.82261   1

   4   2  -1 18.4064 1.84725   3

  -4  -2   1 18.6626 1.98852   2

  -4  -2   1 16.5110 1.91089   3

   3   2  -1 2.45746 0.85469   1

   3   2  -1 1.52643 0.98040   2

   3   2  -1 1.43201 0.81417   3

  -3  -2   1 0.90761 0.86482   1

  -3  -2   1 2.37304 0.98356   2

  -3  -2   1 0.27234 0.83732   3

   2   2  -1 421.973 12.4317   3

   2   2  -1 446.993 12.4820   1

   2   2  -1 440.043 12.5605   2

  -2  -2   1 441.284 12.5775   2

  -2  -2   1 407.860 12.5739   1

  -2  -2   1 450.901 12.4249   3

   1   2  -1 562.498 15.6809   1

   1   2  -1 543.160 15.7433   2

   1   2  -1 571.513 15.7053   3

  -1  -2   1 559.496 15.7003   3

  -1  -2   1 555.031 15.6677   1

  -1  -2   1 551.719 15.7544   2

   0   2  -1 211.303 6.13653   1

   0   2  -1 209.413 6.15307   3

   0  -2   1 217.481 6.06903   2

   0  -2   1 221.864 6.16884   3

  -1   2  -1 6.41269 0.59794   1

  -1   2  -1 7.01751 0.55756   3

   1  -2   1 5.98452 0.38723   2

   1  -2   1 6.42402 0.60274   1

  -2   2  -1 12.9736 1.05119   1

  -2   2  -1 13.4728 0.87279   2

  -2   2  -1 13.9233 0.87390   3

  -2   2  -1 12.7402 1.11960   3

   2  -2   1 13.7963 1.09256   1

   2  -2   1 13.1515 0.91182   2

  -3   2  -1 0.95638 0.71468   3

  -3   2  -1 0.25271 1.10358   1

  -3   2  -1 -0.2993 1.04703   3

  -3   2  -1 -0.6915 0.80099   2

   3  -2   1 1.40640 0.93065   1

   3  -2   1 -0.0718 0.94947   2

  -4   2  -1 433.527 13.0159   3

  -4   2  -1 433.426 12.8166   3

  -4   2  -1 443.969 12.9875   2

   4  -2   1 425.315 12.9964   2

   4  -2   1 433.555 13.2331   1

   4   1  -1 9.54464 1.56732   3

   4   1  -1 12.7275 1.72013   1

  -4  -1   1 9.79106 1.62679   3

  -4  -1   1 12.6341 1.86138   2

   3   1  -1 45.5512 2.01764   3

   3   1  -1 48.4909 2.20274   1

   3   1  -1 44.8292 2.38653   2

  -3  -1   1 45.1444 2.01305   3

  -3  -1   1 47.7891 2.31487   2

  -3  -1   1 49.6869 2.14660   1

   2   1  -1 88.0216 3.04141   2

   2   1  -1 96.0933 2.99524   1

   2   1  -1 88.3699 2.87006   3

  -2  -1   1 91.6928 2.85367   3

  -2  -1   1 88.2140 3.07625   1

  -2  -1   1 93.6773 3.05240   2

   1   1  -1 1451.32 39.9489   1

   1   1  -1 1353.74 39.7589   2

   1   1  -1 1454.71 40.0935   3

  -1  -1   1 1416.10 39.9133   2

  -1  -1   1 1390.20 39.7056   1

  -1  -1   1 1472.56 40.1344   3

   0   1  -1 180.139 4.99164   1

   0   1  -1 178.212 4.93813   2

   0  -1   1 172.337 4.93848   2

   0  -1   1 171.497 4.99082   3

  -1   1  -1 107.286 3.19018   3

  -1   1  -1 103.049 3.04199   2

  -1   1  -1 106.524 3.19249   1

   1  -1   1 102.679 3.17362   1

   1  -1   1 105.087 3.04472   2

  -2   1  -1 3.73185 0.89502   1

  -2   1  -1 3.80886 0.69454   3

  -2   1  -1 3.98661 0.55965   2

   2  -1   1 3.23744 0.54327   2

   2  -1   1 4.24768 0.69938   1

  -3   1  -1 21.8165 1.75061   3

  -3   1  -1 25.5023 1.58390   2

  -3   1  -1 23.1591 1.76655   1

   3  -1   1 21.6645 2.23812   1

   3  -1   1 25.6289 1.72179   2

  -4   1  -1 0.15487 1.49695   2

  -4   1  -1 -0.4737 1.69185   3

   4  -1   1 2.47990 1.37924   1

   4  -1   1 -0.7240 1.83718   2

   4   0  -1 19.4932 1.92851   1

  -4   0   1 19.5603 1.81147   3

  -4   0   1 18.8542 2.00921   2

   3   0  -1 109.414 3.90985   2

   3   0  -1 108.794 3.68911   3

  -3   0   1 120.194 3.98958   2

  -3   0   1 108.349 3.82367   3

   2   0  -1 31.7981 1.39136   1

   2   0  -1 30.4663 1.43006   2

   2   0  -1 31.2639 1.26997   3

  -2   0   1 32.5676 1.46257   2

  -2   0   1 32.2840 1.24082   3

  -2   0   1 25.6425 1.94687   1

   1   0  -1 513.212 14.7930   2

   1   0  -1 510.719 14.7655   1

   1   0  -1 526.259 14.6882   3

  -1   0   1 534.981 14.8124   2

  -1   0   1 535.604 14.7629   1

  -1   0   1 525.268 14.6803   3

  -1   0  -1 825.062 22.6999   2

  -1   0  -1 780.313 22.7477   3

  -1   0  -1 828.778 22.7459   1

   1   0   1 819.573 22.7630   3

   1   0   1 826.585 22.7525   1

   1   0   1 788.405 22.6901   2

  -2   0  -1 26.1760 1.16274   2

  -2   0  -1 25.2351 1.27159   3

  -2   0  -1 24.8702 1.32505   1

   2   0   1 27.2494 1.27298   1

   2   0   1 26.0852 1.27067   3

   2   0   1 27.6894 1.24532   2

  -3   0  -1 14.1720 1.24127   2

  -3   0  -1 11.1003 1.17111   3

  -3   0  -1 13.7783 1.29525   1

   3   0   1 14.8238 1.26416   3

   3   0   1 15.8698 1.35250   2

   3   0   1 9.41336 1.16826   1

  -4   0  -1 -1.1237 1.41707   2

  -4   0  -1 -0.8880 1.53754   3

   4   0   1 1.39097 1.43381   1

   4   0   1 -0.5707 1.80215   2

   4  -1  -1 11.5597 1.68494   1

  -4   1   1 11.4659 1.61313   3

  -4   1   1 14.9757 2.02966   2

   3  -1  -1 37.6883 1.98050   1

   3  -1  -1 38.1325 2.24596   2

  -3   1   1 38.0523 2.10493   2

  -3   1   1 35.8706 2.15529   1

  -3   1   1 41.2524 1.83125   3

   2  -1  -1 32.4017 1.46968   2

   2  -1  -1 33.4942 1.45568   1

  -2   1   1 33.9128 1.53943   1

  -2   1   1 33.3571 1.50273   2

  -2   1   1 33.4743 1.30114   3

   1  -1  -1 462.246 13.0858   2

   1  -1  -1 459.949 13.0708   1

  -1   1   1 454.179 13.0891   2

  -1   1   1 477.469 13.0675   1

  -1   1   1 458.207 12.9587   3

  -1  -1  -1 917.274 25.3903   3

  -1  -1  -1 884.501 25.3737   2

  -1  -1  -1 894.116 25.3405   1

   1   1   1 894.594 25.3727   2

   1   1   1 934.017 25.4032   3

   1   1   1 914.493 25.3538   1

  -2  -1  -1 122.159 3.98589   3

  -2  -1  -1 133.494 4.02031   1

  -2  -1  -1 135.319 4.04049   2

   2   1   1 133.920 4.05551   3

   2   1   1 128.400 4.00400   2

   2   1   1 126.325 4.01394   1

  -3  -1  -1 0.25154 0.86196   1

  -3  -1  -1 0.34446 0.81473   2

  -3  -1  -1 0.55165 0.83663   3

   3   1   1 -0.3330 0.77375   1

   3   1   1 1.09052 0.96520   2

   3   1   1 1.56635 0.82480   3

  -4  -1  -1 4.26402 1.58646   3

  -4  -1  -1 4.93692 1.65384   2

   4   1   1 1.70453 1.99890   2

   4   1   1 6.14662 1.58155   1

   4   1   1 4.15078 1.47697   3

   4  -2  -1 9.93257 1.83722   1

  -4   2   1 7.48797 1.67366   3

  -4   2   1 8.61266 1.89710   2

  -4   2   1 6.34688 1.23059   3

   3  -2  -1 118.759 4.14954   1

   3  -2  -1 114.379 4.16045   2

  -3   2   1 116.916 4.12492   1

  -3   2   1 120.574 4.11276   2

  -3   2   1 117.305 3.82921   3

  -3   2   1 113.301 3.69438   3

   2  -2  -1 297.583 8.72070   2

   2  -2  -1 306.156 8.79921   1

  -2   2   1 306.180 8.54535   3

  -2   2   1 293.700 8.73865   2

  -2   2   1 289.632 8.72633   1

  -2   2   1 295.994 8.58478   3

   1  -2  -1 110.239 3.31346   1

   1  -2  -1 107.943 3.30865   2

  -1   2   1 106.454 3.30878   2

  -1   2   1 109.678 3.29637   1

  -1   2   1 110.131 3.16946   3

   0  -2  -1 50.5051 1.52847   3

   0  -2  -1 48.4814 1.56744   2

   0  -2  -1 50.4730 1.47046   1

   0   2   1 51.3773 1.46775   1

   0   2   1 50.1052 1.58376   2

   0   2   1 50.2707 1.52421   3

  -1  -2  -1 143.501 4.21289   3

  -1  -2  -1 148.039 4.11578   1

  -1  -2  -1 142.056 4.21903   2

   1   2   1 140.444 4.22315   2

   1   2   1 145.914 4.12747   1

   1   2   1 138.295 4.21019   3

  -2  -2  -1 494.554 13.8608   3

  -2  -2  -1 496.260 13.8057   1

  -2  -2  -1 476.524 13.8878   2

   2   2   1 489.791 13.8861   2

   2   2   1 467.538 13.8673   3

   2   2   1 484.585 13.8308   1

  -3  -2  -1 18.5296 1.57670   1

  -3  -2  -1 19.0881 1.44076   2

  -3  -2  -1 20.8975 1.51835   3

   3   2   1 19.5801 1.42307   1

   3   2   1 17.9048 1.58051   2

   3   2   1 18.2940 1.46571   3

  -4  -2  -1 3.95115 1.65444   3

  -4  -2  -1 5.86881 1.65976   2

   4   2   1 3.66859 1.50059   3

   4   2   1 6.72509 1.57216   1

   4  -3  -1 18.9980 2.32093   1

  -4   3   1 14.2521 1.48172   3

  -4   3   1 20.2787 2.29487   2

   3  -3  -1 15.1929 1.55977   2

   3  -3  -1 18.2730 1.61903   1

  -3   3   1 19.6257 1.79242   2

  -3   3   1 17.2201 1.26006   3

  -3   3   1 17.4596 1.35629   3

  -3   3   1 20.9451 1.77123   1

   2  -3  -1 59.4893 2.27890   2

   2  -3  -1 63.9926 2.38441   1

  -2   3   1 61.5801 2.38397   1

  -2   3   1 62.3196 2.18698   3

  -2   3   1 61.9589 2.05648   3

  -2   3   1 61.6897 2.29275   2

   1  -3  -1 81.6540 2.56060   1

   1  -3  -1 75.9717 2.52107   2

   1  -3  -1 75.5304 2.41060   3

  -1   3   1 77.1100 2.51646   1

  -1   3   1 80.0682 2.53321   2

  -1   3   1 82.9444 2.41440   3

   0  -3  -1 470.051 13.1092   3

   0  -3  -1 464.943 13.1271   2

   0   3   1 462.133 13.0300   1

   0   3   1 457.707 13.1295   2

   0   3   1 470.915 13.1076   3

  -1  -3  -1 11.2778 0.70032   3

  -1  -3  -1 12.5384 0.70948   2

  -1  -3  -1 10.6446 0.50251   1

   1   3   1 11.1247 0.74197   2

   1   3   1 11.4792 0.66358   3

   1   3   1 10.7981 0.51469   1

  -2  -3  -1 426.632 12.7544   3

  -2  -3  -1 452.413 12.6355   1

  -2  -3  -1 449.714 12.8048   2

   2   3   1 451.235 12.8412   2

   2   3   1 424.349 12.7536   3

   2   3   1 458.743 12.6820   1

  -3  -3  -1 35.0209 1.86248   2

  -3  -3  -1 34.4906 1.91899   3

  -3  -3  -1 35.0429 1.76194   1

   3   3   1 35.4196 1.89021   3

   3   3   1 32.2961 1.92480   2

   3   3   1 36.0193 1.86458   1

  -4  -3  -1 -1.8021 1.63422   3

  -4  -3  -1 1.85797 1.46631   2

   4   3   1 0.41418 1.52833   3

   4   3   1 2.34893 1.54225   1

   4  -4  -1 9.07765 2.21631   1

  -4   4   1 10.5390 2.17432   2

   3  -4  -1 32.5494 2.36150   2

   3  -4  -1 34.6655 2.34431   1

  -3   4   1 32.6290 1.69544   3

  -3   4   1 33.8763 2.17767   2

  -3   4   1 31.3659 2.53596   1

  -3   4   1 33.0621 2.11363   3

   2  -4  -1 219.294 6.46875   2

   2  -4  -1 206.231 6.54793   1

  -2   4   1 211.802 6.41773   3

  -2   4   1 220.876 6.31768   3

  -2   4   1 207.881 6.54368   1

  -2   4   1 220.748 6.49883   2

   1  -4  -1 147.925 4.47385   1

   1  -4  -1 151.621 4.39078   3

   1  -4  -1 143.404 4.45174   2

  -1   4   1 145.932 4.45554   1

  -1   4   1 148.333 4.36671   3

   0  -4  -1 346.831 10.2947   2

   0  -4  -1 361.322 10.1972   1

   0  -4  -1 366.712 10.3084   3

   0   4   1 372.329 10.3102   3

   0   4   1 359.935 10.2063   1

   0   4   1 361.967 10.3155   2

  -1  -4  -1 15.9995 0.67713   1

  -1  -4  -1 17.4081 0.94059   2

  -1  -4  -1 16.5018 0.96239   3

   1   4   1 17.8358 0.68397   1

   1   4   1 16.6695 0.89264   3

   1   4   1 15.6143 0.99570   2

  -2  -4  -1 48.0769 1.89624   3

  -2  -4  -1 51.6939 1.95799   2

  -2  -4  -1 52.3731 1.77343   1

   2   4   1 48.5500 1.91981   3

   2   4   1 47.2050 1.76374   1

   2   4   1 48.6914 2.00456   2

  -3  -4  -1 81.8361 2.97049   1

  -3  -4  -1 76.8437 3.01596   3

   3   4   1 82.1249 3.09270   3

   3   4   1 81.4607 3.18959   2

   3   4   1 79.4110 2.98971   1

  -4  -4  -1 -1.0589 1.44776   2

   4   4   1 -0.4140 1.57088   3

   4   4   1 0.29574 1.41032   1

   3  -5  -1 10.2111 1.65104   1

   3  -5  -1 10.4965 1.66772   2

  -3   5   1 8.18480 1.49770   3

  -3   5   1 12.7752 1.18314   3

  -3   5   1 12.6332 1.47733   2

   2  -5  -1 -0.2454 0.90415   1

   2  -5  -1 0.15979 0.84942   2

  -2   5   1 1.42028 0.76886   2

  -2   5   1 -0.7982 0.98542   1

  -2   5   1 1.23743 0.60367   3

   1  -5  -1 11.3955 0.83962   3

   1  -5  -1 10.3792 0.87304   2

   1  -5  -1 12.1259 0.90750   1

   1  -5  -1 9.39895 0.82914   2

  -1   5   1 11.7877 0.91897   1

  -1   5   1 11.0850 0.78035   3

   0  -5  -1 187.469 5.53319   3

   0  -5  -1 190.595 5.50190   2

   0  -5  -1 182.425 5.37782   1

   0   5   1 189.607 5.52241   3

   0   5   1 182.258 5.51319   2

   0   5   1 184.786 5.40401   1

  -1  -5  -1 50.4338 1.87356   2

  -1  -5  -1 49.5155 1.89456   3

   1   5   1 50.6838 1.85674   3

   1   5   1 53.1507 1.96523   2

   1   5   1 52.2944 1.60983   1

  -2  -5  -1 2.88255 0.69417   3

  -2  -5  -1 3.48952 0.59539   1

  -2  -5  -1 1.54432 0.63622   2

   2   5   1 3.19388 0.81062   2

   2   5   1 3.79318 0.57330   1

   2   5   1 2.40707 0.59521   3

  -3  -5  -1 72.0669 2.76231   1

  -3  -5  -1 74.2088 2.99227   2

  -3  -5  -1 65.5454 2.86655   3

   3   5   1 70.6161 2.88150   3

   3   5   1 67.9659 2.98144   2

   3   5   1 69.9936 2.73327   1

  -4  -5  -1 2.06011 1.70906   2

   4   5   1 2.39982 1.68979   1

   4   5   1 1.79901 1.76114   3

   3  -6  -1 -1.1083 1.61125   2

   3  -6  -1 -0.0047 1.72391   1

  -3   6   1 0.57195 1.69911   3

  -3   6   1 0.38318 1.04580   3

   2  -6  -1 103.270 3.72326   1

  -2   6   1 100.550 3.37854   3

  -2   6   1 102.523 3.81889   1

   1  -6  -1 131.297 4.08164   1

   1  -6  -1 127.573 4.05915   3

   1  -6  -1 125.925 4.07125   2

   1  -6  -1 130.105 3.97038   2

  -1   6   1 126.184 4.07263   1

  -1   6   1 126.729 3.99102   3

   0  -6  -1 0.31689 0.37876   1

   0  -6  -1 -0.1618 0.44016   2

   0   6   1 -0.8052 0.58552   2

   0   6   1 0.40169 0.49116   3

   0   6   1 -0.3777 0.49891   1

  -1  -6  -1 401.452 11.2115   2

  -1  -6  -1 376.627 11.1966   3

   1   6   1 392.528 10.9075   1

   1   6   1 396.970 11.2321   2

   1   6   1 369.665 11.1865   3

   1   6   1 379.864 10.9509   1

  -2  -6  -1 10.9513 0.81443   1

  -2  -6  -1 10.8321 1.13034   3

  -2  -6  -1 11.4349 1.11474   2

   2   6   1 9.08184 0.76107   1

   2   6   1 8.43576 1.22803   2

   2   6   1 10.0558 0.96605   3

  -3  -6  -1 3.41989 1.17192   2

  -3  -6  -1 3.62093 1.11815   1

  -3  -6  -1 2.78973 1.36346   3

   3   6   1 5.65656 1.19607   3

   3   6   1 5.27914 1.07033   1

   3   6   1 3.34241 1.47076   2

  -4  -6  -1 0.80437 1.66704   2

   4   6   1 4.85282 1.80748   1

   4   6   1 4.93845 1.84498   3

   3  -7  -1 1.32221 1.95068   1

  -3   7   1 -0.3962 1.23324   3

   2  -7  -1 0.26376 1.28890   1

   2  -7  -1 -0.0014 1.15080   2

   2  -7  -1 0.31761 0.83490   2

  -2   7   1 0.72365 0.83581   3

  -2   7   1 0.00328 1.48369   1

   1  -7  -1 42.7559 2.11883   3

   1  -7  -1 44.6968 2.01758   1

   1  -7  -1 48.6045 1.85084   2

   1  -7  -1 45.9120 2.08762   2

  -1   7   1 46.5696 1.93572   3

  -1   7   1 40.4020 2.06053   1

   0  -7  -1 8.02732 0.80248   2

   0  -7  -1 8.24575 0.97370   3

   0   7   1 9.05508 0.89313   3

   0   7   1 7.73078 0.81906   1

  -1  -7  -1 150.471 4.66301   2

  -1  -7  -1 143.894 4.68875   3

   1   7   1 144.565 4.66205   3

   1   7   1 142.787 4.39516   1

   1   7   1 146.814 4.71985   2

   1   7   1 151.045 4.30428   1

  -2  -7  -1 2.62877 0.95984   2

  -2  -7  -1 2.55523 0.70011   1

  -2  -7  -1 3.19445 1.05071   3

   2   7   1 3.12919 0.92424   3

   2   7   1 2.20178 0.62605   1

   2   7   1 3.41690 1.12057   2

  -3  -7  -1 1.91644 1.20918   2

  -3  -7  -1 4.36327 1.22263   1

   3   7   1 4.57773 1.11271   1

   3   7   1 3.09477 1.21980   3

  -4  -7  -1 5.99975 1.95683   2

   4   7   1 6.02589 1.95009   1

   4   7   1 8.12520 2.12065   3

   2  -8  -1 13.2181 1.81894   1

   2  -8  -1 13.4537 1.59402   2

   2  -8  -1 11.6270 1.23368   2

  -2   8   1 12.7908 1.35444   3

  -2   8   1 9.35298 1.98553   1

   1  -8  -1 106.874 4.59563   2

   1  -8  -1 118.514 3.85804   2

   1  -8  -1 121.581 4.18847   3

   1  -8  -1 127.221 4.00201   1

  -1   8   1 113.083 4.09295   1

  -1   8   1 120.947 4.00581   3

   0  -8  -1 48.4177 2.28285   3

   0  -8  -1 53.0530 2.09952   2

   0   8   1 52.5338 2.24196   3

   0   8   1 47.9531 2.08607   1

  -1  -8  -1 16.4052 1.43516   2

  -1  -8  -1 14.0000 1.33652   3

   1   8   1 16.1350 0.90218   1

   1   8   1 18.0284 1.51770   2

   1   8   1 16.3589 1.57741   3

   1   8   1 16.9823 1.26742   1

  -2  -8  -1 155.945 5.11948   2

  -2  -8  -1 151.176 5.22886   3

   2   8   1 149.275 5.21828   2

   2   8   1 155.103 5.10280   3

   2   8   1 155.818 4.69044   1

  -3  -8  -1 9.07022 1.62981   2

  -3  -8  -1 10.7079 1.47191   1

   3   8   1 8.90391 1.33764   1

   3   8   1 7.09963 1.34838   3

   2  -9  -1 0.49102 1.11761   2

   2  -9  -1 0.49827 1.70008   1

  -2   9   1 -2.4727 2.28309   1

  -2   9   1 -0.7380 1.26571   3

   1  -9  -1 0.55644 1.34994   2

   1  -9  -1 0.08738 1.50851   3

   1  -9  -1 0.38120 0.90868   2

   1  -9  -1 1.17262 1.10138   1

  -1   9   1 -1.2901 1.01241   3

  -1   9   1 -0.2397 1.43783   1

   0  -9  -1 40.4737 1.95357   2

   0  -9  -1 35.0464 2.33528   3

   0   9   1 39.1659 2.06968   1

   0   9   1 37.7056 1.96415   3

  -1  -9  -1 3.06798 1.33037   3

  -1  -9  -1 3.62690 1.11309   2

   1   9   1 2.99175 0.59199   1

   1   9   1 2.55112 0.98650   3

   1   9   1 3.48817 1.43461   2

   1   9   1 1.74325 0.95197   1

  -2  -9  -1 54.6572 2.80332   2

   2   9   1 48.2875 2.55362   1

   2   9   1 54.5055 2.48480   3

   2   9   1 54.1849 2.09661   1

   2   9   1 45.5430 3.19492   2

  -3  -9  -1 4.46830 1.72365   2

   3   9   1 3.16642 1.35664   1

   3   9   1 5.63991 1.45774   3

   1 -10  -1 5.95457 1.41660   1

   1 -10  -1 10.6296 1.34770   2

   1 -10  -1 5.71435 2.12505   3

   1 -10  -1 8.69515 1.83589   2

  -1  10   1 5.16234 1.84928   1

  -1  10   1 7.77932 1.49152   3

   0 -10  -1 47.1716 3.60407   3

   0 -10  -1 50.2837 2.36631   2

   0  10   1 46.5806 1.97680   1

   0  10   1 47.1348 2.51752   3

   0  10   1 43.1090 2.53364   1

  -1 -10  -1 45.3091 2.54594   2

   1  10   1 46.7039 3.14302   2

   1  10   1 50.1829 2.53149   3

   1  10   1 47.9940 1.86943   1

   1  10   1 45.9975 2.39531   1

  -2 -10  -1 5.96245 1.66907   2

   2  10   1 3.80830 2.17012   1

   2  10   1 5.73318 1.00040   1

   2  10   1 6.45159 1.32193   3

  -3 -10  -1 27.1592 2.82391   2

   3  10   1 41.4053 3.21494   1

   3  10   1 37.6422 2.96771   3

  -1  11   1 3.57325 1.66422   3

   0 -11  -1 4.74448 2.65607   2

   0 -11  -1 1.37824 2.16458   2

   0  11   1 1.68589 0.98923   1

   0  11   1 1.10902 1.38686   3

  -1 -11  -1 5.86229 1.61822   2

   1  11   1 5.89090 2.40404   2

   1  11   1 7.53654 0.97981   1

  -2 -11  -1 4.71855 2.01905   2

   2  11   1 3.38297 1.54880   3

   1  11  -2 48.7956 3.06835   3

   1  11  -2 55.0138 2.78528   1

  -1 -11   2 53.1658 3.18921   2

   0  11  -2 1.78685 3.29797   1

   0  11  -2 0.95013 1.63440   3

   0  11  -2 1.95129 1.39089   1

   2  10  -2 39.7809 2.54909   1

   2  10  -2 39.4338 2.52521   3

   2  10  -2 37.5811 3.02253   1

  -2 -10   2 41.9042 3.14537   2

   1  10  -2 9.46347 2.11680   1

   1  10  -2 9.56129 1.29907   1

   1  10  -2 7.12184 1.89390   2

   1  10  -2 8.19334 1.33361   3

  -1 -10   2 8.91957 1.53135   2

   0  10  -2 16.9375 1.48417   1

   0  10  -2 12.0892 2.26592   1

   0  10  -2 15.3212 1.74516   3

   0 -10   2 14.5388 1.29975   2

  -1  10  -2 -1.4214 1.55117   3

   3   9  -2 0.64974 1.68938   3

   3   9  -2 1.70704 1.70658   1

  -3  -9   2 -1.0593 2.20025   2

   2   9  -2 8.85673 1.93278   1

   2   9  -2 5.61789 1.99272   2

   2   9  -2 7.91858 1.32817   1

   2   9  -2 8.26151 1.40376   3

  -2  -9   2 6.26153 1.61084   2

   1   9  -2 192.418 6.48819   1

   1   9  -2 203.801 6.48158   3

   1   9  -2 195.288 6.42445   2

   1   9  -2 204.419 6.15352   1

  -1  -9   2 202.988 6.32253   2

   0   9  -2 244.856 7.30917   2

   0   9  -2 247.021 7.65102   3

   0   9  -2 247.739 7.32673   1

   0   9  -2 227.725 7.73033   1

   0  -9   2 244.175 7.22597   2

  -1   9  -2 -1.9896 1.08546   3

  -1   9  -2 0.68691 1.97893   1

   1  -9   2 0.26502 0.89785   2

  -2   9  -2 0.06009 1.47072   3

   2  -9   2 -1.3407 1.90098   1

   3   8  -2 -1.8037 1.35376   1

   3   8  -2 -1.2312 1.49856   3

  -3  -8   2 -1.0520 1.80096   2

   2   8  -2 14.0365 1.81472   2

   2   8  -2 18.0309 1.56973   3

   2   8  -2 21.1517 1.47478   1

  -2  -8   2 17.8335 1.75453   2

   1   8  -2 7.16983 1.04885   3

   1   8  -2 5.37726 0.84349   1

   1   8  -2 5.51620 1.20168   2

   1   8  -2 4.70952 1.34920   1

  -1  -8   2 4.40286 0.98500   2

  -1  -8   2 2.22207 1.18055   3

   0   8  -2 96.0167 3.17368   1

   0   8  -2 90.6907 3.64415   1

   0   8  -2 93.8936 3.45401   3

   0   8  -2 94.5526 3.18104   2

   0  -8   2 93.0742 3.53663   3

   0  -8   2 91.4402 3.07345   2

  -1   8  -2 78.4367 2.99023   3

  -1   8  -2 78.1253 3.55737   1

   1  -8   2 76.2235 2.35020   2

   1  -8   2 66.3855 3.33535   1

   1  -8   2 75.4227 3.41852   3

  -2   8  -2 0.59692 1.35707   3

   2  -8   2 0.99574 1.62317   1

   3   7  -2 1.09377 1.27661   1

   3   7  -2 1.88106 1.36695   3

  -3  -7   2 1.87131 1.46445   2

  -3  -7   2 -0.7659 1.66017   1

   2   7  -2 6.26606 1.37570   2

   2   7  -2 10.4572 1.19672   3

   2   7  -2 7.61784 0.98584   1

  -2  -7   2 5.83292 1.26854   3

   1   7  -2 23.0771 1.23649   1

   1   7  -2 19.8683 1.55305   3

   1   7  -2 20.2880 1.72968   1

   1   7  -2 22.0703 1.62212   2

  -1  -7   2 20.3802 1.59396   3

  -1  -7   2 24.8954 1.48346   2

   0   7  -2 115.813 4.02899   1

   0   7  -2 118.207 3.70242   2

   0   7  -2 115.619 3.93099   3

   0  -7   2 118.768 4.04613   3

   0  -7   2 121.946 3.66814   2

  -1   7  -2 584.875 16.9404   3

  -1   7  -2 563.330 16.9182   1

   1  -7   2 586.882 16.9529   3

   1  -7   2 611.962 16.8914   1

   1  -7   2 575.648 16.3596   2

  -2   7  -2 0.82957 1.03793   3

  -2   7  -2 0.13277 1.68524   1

   2  -7   2 3.78824 1.40565   1

  -3   7  -2 1.78528 1.61748   3

   3  -7   2 0.83364 2.12156   1

   4   6  -2 19.4500 2.29682   3

   4   6  -2 21.1132 2.49574   1

  -4  -6   2 22.8886 2.55085   2

   3   6  -2 49.6209 2.52853   1

   3   6  -2 52.2175 2.49592   3

  -3  -6   2 44.6756 2.94058   3

  -3  -6   2 53.2034 2.72852   2

  -3  -6   2 49.1772 2.63658   1

   2   6  -2 8.73059 0.94150   1

   2   6  -2 7.63374 0.97413   3

   2   6  -2 9.47919 1.22145   2

  -2  -6   2 12.8254 1.34344   3

  -2  -6   2 9.19795 1.07021   1

  -2  -6   2 11.3383 1.25364   2

   1   6  -2 45.3855 2.73310   2

   1   6  -2 52.7207 2.04813   3

   1   6  -2 52.3845 1.88871   1

  -1  -6   2 54.3149 2.22597   3

  -1  -6   2 53.1313 2.04979   2

   0   6  -2 37.4893 1.46776   2

   0   6  -2 37.6191 1.80231   1

   0   6  -2 36.0029 1.60961   3

   0  -6   2 36.1779 1.39504   2

   0  -6   2 36.8041 1.78135   3

  -1   6  -2 184.263 5.88623   1

  -1   6  -2 190.942 5.83229   3

   1  -6   2 188.026 5.31753   2

   1  -6   2 196.041 5.85446   1

   1  -6   2 188.669 5.87112   3

   1  -6   2 181.482 5.32239   2

  -2   6  -2 107.953 4.06993   1

  -2   6  -2 102.948 3.66397   3

   2  -6   2 95.0328 3.79155   1

  -3   6  -2 5.85605 2.56894   3

  -3   6  -2 1.33748 1.29479   3

   3  -6   2 -0.5366 1.70099   1

   4   5  -2 42.6989 3.06330   3

   4   5  -2 40.0602 3.22478   1

  -4  -5   2 40.3394 3.33902   2

   3   5  -2 1.08951 1.01122   3

   3   5  -2 -1.0662 1.21590   2

   3   5  -2 -0.4600 0.98630   1

  -3  -5   2 0.78033 1.39339   3

  -3  -5   2 1.00077 1.09944   2

  -3  -5   2 0.31496 1.23613   1

   2   5  -2 3.72655 0.75349   3

   2   5  -2 3.17767 0.68864   1

   2   5  -2 3.20110 0.95798   2

  -2  -5   2 3.79068 0.94432   2

  -2  -5   2 2.41030 0.74045   1

  -2  -5   2 2.77110 0.86614   3

   1   5  -2 10.5245 0.85510   2

   1   5  -2 7.98537 0.76729   3

   1   5  -2 9.02561 0.69222   1

  -1  -5   2 9.41314 0.83002   2

  -1  -5   2 8.98774 0.88854   3

   0   5  -2 10.9592 0.75159   2

   0   5  -2 11.4856 0.91317   3

   0   5  -2 10.8793 0.93477   1

   0  -5   2 11.8155 0.69584   2

   0  -5   2 9.78782 0.89137   3

  -1   5  -2 62.0721 2.30290   3

  -1   5  -2 65.9443 2.47152   1

   1  -5   2 64.9476 2.37353   1

   1  -5   2 63.0673 2.37737   3

  -2   5  -2 583.566 16.6114   3

  -2   5  -2 569.289 16.7317   1

   2  -5   2 567.392 16.1324   2

   2  -5   2 586.039 16.7311   1

  -3   5  -2 22.7412 1.98913   3

  -3   5  -2 24.4985 2.48287   3

   3  -5   2 19.7654 1.55879   2

   3  -5   2 24.5833 2.10450   1

   4   4  -2 0.81347 1.53913   1

   4   4  -2 -0.6687 1.58323   3

  -4  -4   2 4.27417 1.76939   2

  -4  -4   2 -0.4184 2.11754   3

   3   4  -2 15.4447 1.36092   3

   3   4  -2 11.9972 1.57887   2

   3   4  -2 18.2461 1.50192   1

  -3  -4   2 18.3006 1.53870   1

  -3  -4   2 17.8945 1.59070   2

  -3  -4   2 17.7019 1.55098   3

   2   4  -2 48.9231 2.12311   2

   2   4  -2 53.1791 2.02900   3

   2   4  -2 54.1116 1.98415   1

  -2  -4   2 54.0147 2.21915   2

  -2  -4   2 54.0539 2.14461   3

  -2  -4   2 54.7396 2.04801   1

   1   4  -2 246.095 7.39989   3

   1   4  -2 258.192 7.40706   2

   1   4  -2 244.820 7.30297   1

  -1  -4   2 255.987 7.42912   3

  -1  -4   2 254.861 7.32564   1

  -1  -4   2 256.309 7.41764   2

   0   4  -2 283.364 8.42712   1

   0   4  -2 296.900 8.47092   3

   0   4  -2 290.309 8.26749   2

   0  -4   2 300.435 8.27964   2

   0  -4   2 283.778 8.46829   3

  -1   4  -2 149.597 4.50999   3

  -1   4  -2 144.967 4.60109   1

   1  -4   2 146.581 4.68899   3

   1  -4   2 142.113 4.50307   1

  -2   4  -2 100.215 3.31363   3

  -2   4  -2 97.2269 2.93711   2

  -2   4  -2 93.5295 3.49272   1

   2  -4   2 95.0656 2.90713   2

   2  -4   2 99.7347 3.42929   1

  -3   4  -2 17.4059 1.96603   3

  -3   4  -2 14.4017 1.38833   3

  -3   4  -2 16.0814 1.82657   1

  -3   4  -2 17.9110 1.44097   2

   3  -4   2 17.9198 1.74163   1

   3  -4   2 15.7594 1.21881   2

  -4   4  -2 16.7081 1.99002   3

  -4   4  -2 18.9662 2.17734   2

   4  -4   2 14.8247 2.49244   1

   4   3  -2 -1.2351 1.51181   3

   4   3  -2 -0.1545 1.48237   1

  -4  -3   2 -1.3180 1.56750   2

  -4  -3   2 0.36031 1.91023   3

   3   3  -2 31.5498 2.11414   2

   3   3  -2 34.2090 1.83442   3

   3   3  -2 34.2196 1.83642   1

  -3  -3   2 34.1607 2.04546   3

  -3  -3   2 32.6237 2.04183   1

  -3  -3   2 34.3537 2.13099   2

   2   3  -2 112.216 3.78470   2

   2   3  -2 114.763 3.61976   1

   2   3  -2 116.484 3.60055   3

  -2  -3   2 112.698 3.61827   3

  -2  -3   2 111.856 3.74204   2

  -2  -3   2 113.769 3.61061   1

   1   3  -2 74.9772 2.54899   2

   1   3  -2 78.5444 2.53495   3

   1   3  -2 79.2253 2.48351   1

  -1  -3   2 81.1642 2.60161   2

  -1  -3   2 82.0309 2.57319   3

  -1  -3   2 76.9481 2.48891   1

   0   3  -2 2.57249 0.42800   3

   0   3  -2 3.62117 0.33393   2

   0   3  -2 3.04092 0.52671   1

   0  -3   2 2.92418 0.48554   3

   0  -3   2 4.02996 0.33406   2

  -1   3  -2 12.3200 1.00515   1

  -1   3  -2 13.2653 0.88613   3

   1  -3   2 11.3406 0.83609   3

   1  -3   2 10.8589 0.88977   1

  -2   3  -2 57.5683 1.89501   2

  -2   3  -2 56.3436 2.36947   1

  -2   3  -2 59.6397 2.40922   3

  -2   3  -2 58.6063 2.15258   3

   2  -3   2 57.1385 2.30531   1

   2  -3   2 56.8203 1.88312   2

  -3   3  -2 220.051 6.54395   2

  -3   3  -2 215.603 6.98438   3

  -3   3  -2 206.509 6.90433   1

  -3   3  -2 219.999 6.72059   3

   3  -3   2 218.375 6.54532   2

   3  -3   2 220.044 6.92973   1

  -4   3  -2 75.0906 3.36438   3

  -4   3  -2 75.3191 3.43202   2

  -4   3  -2 72.2587 4.38492   3

   4  -3   2 71.0320 3.71677   1

   4   2  -2 21.0365 1.87892   3

   4   2  -2 19.5333 2.07814   1

  -4  -2   2 21.0847 2.17270   2

  -4  -2   2 23.1413 2.13813   3

   3   2  -2 18.3141 1.47645   1

   3   2  -2 17.1355 1.36952   3

   3   2  -2 16.8775 1.50657   2

  -3  -2   2 18.0394 1.54945   3

  -3  -2   2 16.0035 1.48658   2

   2   2  -2 0.87714 0.69301   2

   2   2  -2 1.33606 0.45926   3

   2   2  -2 1.10192 0.49332   1

  -2  -2   2 0.80279 0.52357   3

  -2  -2   2 1.68040 0.55052   1

  -2  -2   2 0.74358 0.57528   2

   1   2  -2 4.74717 0.44653   3

   1   2  -2 4.11468 0.52925   2

   1   2  -2 4.19213 0.43299   1

  -1  -2   2 4.64393 0.52817   2

  -1  -2   2 3.96985 0.45074   1

  -1  -2   2 4.84523 0.49347   3

   0   2  -2 1512.17 41.8024   3

   0   2  -2 1456.15 41.5196   2

   0   2  -2 1478.68 41.4282   1

   0  -2   2 1483.73 41.6950   3

   0  -2   2 1486.17 41.6932   2

  -1   2  -2 594.802 16.8622   1

  -1   2  -2 578.987 16.8204   3

  -1   2  -2 581.662 16.5761   2

   1  -2   2 601.766 16.5727   2

   1  -2   2 617.756 16.8734   1

  -2   2  -2 99.1848 3.71772   3

  -2   2  -2 107.430 3.22423   2

  -2   2  -2 109.268 3.40503   3

  -2   2  -2 102.210 3.51431   1

   2  -2   2 109.984 3.51658   1

   2  -2   2 104.491 3.21565   2

  -3   2  -2 8.09375 1.39430   3

  -3   2  -2 7.90757 0.97093   2

  -3   2  -2 7.13920 1.03590   3

  -3   2  -2 7.71224 1.35486   1

   3  -2   2 7.58658 1.18745   1

  -4   2  -2 -0.8849 1.31795   3

  -4   2  -2 1.74590 1.76640   2

  -4   2  -2 -0.2727 2.06547   3

   4  -2   2 -0.5691 1.77491   2

   4  -2   2 3.87457 1.64683   1

   4   1  -2 9.94731 1.56207   3

   4   1  -2 10.3331 1.70741   1

  -4  -1   2 10.1443 2.01356   2

  -4  -1   2 9.50422 1.56260   3

   3   1  -2 2.89779 0.90856   1

   3   1  -2 2.85579 1.21568   2

   3   1  -2 2.24226 0.78489   3

  -3  -1   2 2.41003 0.99679   1

   2   1  -2 5.54790 0.66566   1

   2   1  -2 6.64850 0.57991   3

   2   1  -2 4.97199 0.77427   2

  -2  -1   2 4.31144 0.68378   1

  -2  -1   2 5.13758 0.55754   3

  -2  -1   2 6.68909 0.80466   2

   1   1  -2 962.390 26.8945   1

   1   1  -2 964.328 26.9572   2

   1   1  -2 962.745 26.9198   3

  -1  -1   2 953.507 26.8268   3

  -1  -1   2 986.438 26.9833   2

  -1  -1   2 929.279 26.8748   1

   0   1  -2 304.892 8.42663   3

   0   1  -2 293.078 8.37940   2

   0  -1   2 293.665 8.42078   3

   0  -1   2 297.196 8.39943   2

  -1   1  -2 42.5217 1.58748   3

  -1   1  -2 41.9602 1.55784   1

  -1   1  -2 45.6118 1.49242   3

   1  -1   2 42.9313 1.31706   2

   1  -1   2 41.4292 1.50907   1

  -2   1  -2 14.2854 1.20104   3

  -2   1  -2 14.0518 1.14061   1

  -2   1  -2 13.1922 0.82158   2

   2  -1   2 14.1927 0.90543   2

   2  -1   2 13.9294 1.01386   1

  -3   1  -2 34.7563 1.73759   2

  -3   1  -2 31.1084 1.94132   1

  -3   1  -2 33.5558 2.13038   3

   3  -1   2 33.0963 1.88958   2

  -4   1  -2 49.8780 3.38739   3

  -4   1  -2 45.6415 2.79711   2

  -4   1  -2 49.2321 2.59606   3

   4  -1   2 42.2292 3.25266   2

   4  -1   2 55.8653 3.01764   1

   4   0  -2 109.480 4.38546   1

  -4   0   2 108.235 4.14450   3

  -4   0   2 120.511 4.82136   2

   3   0  -2 65.2083 2.40126   3

   3   0  -2 62.7167 2.79810   2

   3   0  -2 69.5298 2.70104   1

  -3   0   2 61.8723 2.69503   1

  -3   0   2 63.1491 2.35598   3

  -3   0   2 62.1526 3.04253   2

   2   0  -2 75.6547 2.36743   3

   2   0  -2 71.8105 2.52871   1

   2   0  -2 73.0293 2.61329   2

  -2   0   2 72.7096 2.62344   2

  -2   0   2 75.3150 2.55618   1

  -2   0   2 76.8429 2.34079   3

   1   0  -2 21.8406 0.87259   1

   1   0  -2 20.2369 0.97475   2

  -1   0   2 21.0999 0.73289   3

  -1   0   2 22.4038 0.88368   1

  -1   0   2 21.5940 0.99883   2

   0   0  -2 -0.0191 0.16423   1

   0   0  -2 -0.2165 0.23027   2

   0   0  -2 -0.0844 0.18308   3

   0   0   2 0.08518 0.21113   2

  -1   0  -2 1536.60 43.5377   3

  -1   0  -2 1585.73 43.7940   2

  -1   0  -2 1539.29 43.4935   1

   1   0   2 1601.07 43.7296   3

   1   0   2 1545.90 43.5000   1

   1   0   2 1537.27 43.6061   2

  -2   0  -2 126.235 3.72495   2

  -2   0  -2 118.102 3.83058   3

  -2   0  -2 117.126 3.82614   1

   2   0   2 120.999 3.71552   2

   2   0   2 122.197 3.86929   3

   2   0   2 121.262 3.82809   1

  -3   0  -2 82.1852 3.16405   3

  -3   0  -2 85.9174 4.00633   1

  -3   0  -2 85.5674 3.00887   2

   3   0   2 81.3140 3.09338   3

   3   0   2 89.0170 3.22258   1

   3   0   2 83.3077 3.07683   2

  -4   0  -2 3.15091 1.73752   3

  -4   0  -2 0.73291 1.43653   2

   4   0   2 3.16241 1.80020   2

   4   0   2 3.76060 1.45510   1

   4  -1  -2 -1.6825 1.51411   1

  -4   1   2 0.00091 1.71467   2

   3  -1  -2 12.2082 1.55274   2

   3  -1  -2 15.4445 1.42364   1

  -3   1   2 15.0583 1.52831   2

  -3   1   2 10.5325 1.26720   1

  -3   1   2 13.1041 0.99731   3

   2  -1  -2 63.5676 2.25950   1

   2  -1  -2 63.2525 2.35882   2

  -2   1   2 61.8506 2.25855   1

  -2   1   2 61.3057 1.97988   3

  -2   1   2 63.3374 2.31701   2

   1  -1  -2 5.84318 0.59723   2

   1  -1  -2 5.15797 0.45827   1

  -1   1   2 5.16427 0.53206   2

  -1   1   2 5.01784 0.24565   3

  -1   1   2 4.00857 0.42289   1

   0  -1  -2 1327.43 35.8250   3

   0  -1  -2 1263.74 35.9606   2

   0  -1  -2 1162.03 35.8390   1

   0   1   2 1271.28 35.6143   1

   0   1   2 1339.09 35.8226   3

  -1  -1  -2 1.81884 0.32712   1

  -1  -1  -2 2.84010 0.34921   2

  -1  -1  -2 1.61996 0.36862   3

   1   1   2 2.87022 0.36255   2

   1   1   2 2.84458 0.40524   3

   1   1   2 2.03437 0.34506   1

  -2  -1  -2 4.86146 0.68457   1

  -2  -1  -2 4.66410 0.69183   3

  -2  -1  -2 5.51360 0.59841   2

   2   1   2 6.15129 0.70991   2

   2   1   2 5.62955 0.75986   3

   2   1   2 5.90000 0.73198   1

  -3  -1  -2 2.09089 0.90090   3

  -3  -1  -2 3.44778 0.89792   2

  -3  -1  -2 1.50886 1.00768   1

   3   1   2 0.94976 0.92679   2

   3   1   2 1.26031 0.85257   1

   3   1   2 2.32362 0.87169   3

  -4  -1  -2 3.33493 1.73260   3

  -4  -1  -2 4.56818 1.43924   2

   4   1   2 6.98123 1.52374   1

   4   1   2 6.74418 1.55950   3

   4   1   2 6.33537 1.96492   2

   4  -2  -2 5.52715 1.75329   1

  -4   2   2 4.91246 1.15014   3

  -4   2   2 6.14498 2.07306   2

   3  -2  -2 104.596 3.83070   1

   3  -2  -2 104.042 4.03886   2

  -3   2   2 107.639 3.86787   1

  -3   2   2 111.350 3.88864   2

  -3   2   2 102.387 3.40699   3

  -3   2   2 107.202 3.34826   3

   2  -2  -2 275.648 7.99161   1

   2  -2  -2 258.255 7.96209   2

  -2   2   2 270.755 7.66317   3

  -2   2   2 271.532 8.00647   2

  -2   2   2 268.471 7.67789   3

   1  -2  -2 17.5113 0.95318   2

   1  -2  -2 18.7105 0.89279   1

  -1   2   2 17.7216 0.59194   3

  -1   2   2 16.3978 0.62075   3

  -1   2   2 15.8024 0.82552   1

  -1   2   2 17.6082 0.93093   2

   0  -2  -2 1.77397 0.36264   3

   0  -2  -2 1.57983 0.16367   1

   0  -2  -2 2.00666 0.33373   2

   0   2   2 1.67320 0.21011   3

   0   2   2 1.50058 0.14840   1

  -1  -2  -2 41.9479 1.44324   2

  -1  -2  -2 40.9081 1.31231   1

  -1  -2  -2 38.0733 1.42490   3

   1   2   2 42.4931 1.32648   1

   1   2   2 42.7121 1.45598   3

   1   2   2 40.8212 1.44463   2

  -2  -2  -2 312.849 8.98644   3

  -2  -2  -2 308.631 8.96419   2

  -2  -2  -2 313.649 8.89595   1

   2   2   2 310.907 9.02557   3

   2   2   2 302.280 8.95748   2

   2   2   2 298.380 8.91008   1

  -3  -2  -2 0.06320 0.84091   3

  -3  -2  -2 -0.2725 0.87677   1

  -3  -2  -2 -1.1354 0.74211   2

   3   2   2 -0.3019 0.81189   1

   3   2   2 0.63950 0.87138   3

   3   2   2 0.72908 0.96913   2

  -4  -2  -2 68.3181 3.63791   3

  -4  -2  -2 82.3990 3.51526   2

   4   2   2 73.7538 3.96271   2

   4   2   2 78.5877 3.45050   1

   4   2   2 82.1776 3.62606   3

   4  -3  -2 7.75670 2.01101   1

  -4   3   2 6.82803 2.24922   2

   3  -3  -2 6.40272 1.49196   2

   3  -3  -2 7.65926 1.35646   1

  -3   3   2 6.66563 0.93281   3

  -3   3   2 6.68562 1.37032   1

  -3   3   2 8.33504 0.79894   3

  -3   3   2 11.2112 1.49208   2

   2  -3  -2 0.03733 0.68159   1

   2  -3  -2 -0.3623 0.68690   2

  -2   3   2 -0.6416 0.59722   2

  -2   3   2 0.29155 0.47428   3

  -2   3   2 -0.1081 0.76720   1

  -2   3   2 0.14233 0.34761   3

   1  -3  -2 423.225 12.2041   2

   1  -3  -2 429.095 12.1364   1

   1  -3  -2 430.631 11.9704   3

  -1   3   2 430.648 11.9645   3

  -1   3   2 414.258 12.0974   1

  -1   3   2 427.222 12.2203   2

   0  -3  -2 0.57654 0.25987   3

   0  -3  -2 0.56366 0.31672   2

   0  -3  -2 0.58806 0.19123   1

   0   3   2 0.47288 0.22103   3

   0   3   2 0.29749 0.15661   1

  -1  -3  -2 328.647 9.45805   2

  -1  -3  -2 330.656 9.43622   3

  -1  -3  -2 333.590 9.24248   1

   1   3   2 321.332 9.29261   1

   1   3   2 324.381 9.46269   2

   1   3   2 336.863 9.45880   3

  -2  -3  -2 125.139 4.05922   3

  -2  -3  -2 130.029 4.04092   2

  -2  -3  -2 128.306 3.88855   1

   2   3   2 134.058 4.08181   3

   2   3   2 123.835 4.26497   2

   2   3   2 127.830 3.91998   1

  -3  -3  -2 7.63360 1.07615   2

  -3  -3  -2 7.32381 1.14511   3

  -3  -3  -2 8.17593 1.10868   1

   3   3   2 7.17645 1.01954   1

   3   3   2 8.04144 1.17128   3

   3   3   2 7.46217 1.25071   2

  -4  -3  -2 11.0691 1.73757   2

  -4  -3  -2 7.19375 2.08774   3

   4   3   2 11.3101 1.74783   3

   4   3   2 12.1334 1.77486   1

   3  -4  -2 7.24645 1.41762   1

   3  -4  -2 10.4759 1.70547   2

  -3   4   2 11.3462 1.48508   2

  -3   4   2 10.1306 0.90088   3

  -3   4   2 10.7284 1.12440   3

  -3   4   2 6.43040 1.64449   1

   2  -4  -2 51.4824 2.17330   1

   2  -4  -2 49.1838 2.21169   2

  -2   4   2 48.0560 2.11500   2

  -2   4   2 47.2474 1.85656   3

  -2   4   2 50.3289 1.72387   3

  -2   4   2 48.2159 2.15396   1

   1  -4  -2 523.109 15.2041   1

   1  -4  -2 533.434 15.0841   3

   1  -4  -2 527.034 15.2813   2

  -1   4   2 551.955 15.0786   3

  -1   4   2 540.929 15.1786   1

   0  -4  -2 1.43056 0.27238   1

   0  -4  -2 1.20281 0.40517   3

   0  -4  -2 1.47123 0.43057   2

   0   4   2 1.22055 0.35055   3

   0   4   2 1.35257 0.26610   1

  -1  -4  -2 113.868 3.55953   2

  -1  -4  -2 115.484 3.52565   3

  -1  -4  -2 115.645 3.25109   1

   1   4   2 115.291 3.58545   2

   1   4   2 109.252 3.52110   3

  -2  -4  -2 49.5290 1.95745   3

  -2  -4  -2 47.1285 1.93383   2

  -2  -4  -2 51.9547 1.75372   1

   2   4   2 52.1166 1.80078   1

   2   4   2 52.0574 1.99084   3

   2   4   2 50.4079 2.02971   2

  -3  -4  -2 23.0211 2.53665   2

  -3  -4  -2 19.1983 1.63587   3

  -3  -4  -2 24.0362 1.63030   1

   3   4   2 21.5530 1.67043   2

   3   4   2 22.8690 1.72094   3

   3   4   2 22.1089 1.57865   1

  -4  -4  -2 13.1751 1.81812   2

  -4  -4  -2 11.7261 2.06911   1

   4   4   2 12.5559 1.95870   3

   4   4   2 12.7848 1.79479   1

   3  -5  -2 12.9282 1.88003   2

   3  -5  -2 15.6776 1.79666   1

  -3   5   2 15.2014 1.41794   3

  -3   5   2 14.9205 1.34941   3

  -3   5   2 16.0609 2.86970   2

   2  -5  -2 19.2413 1.46902   2

   2  -5  -2 20.0866 1.49519   1

  -2   5   2 18.4678 1.05259   3

  -2   5   2 19.0083 1.46288   1

  -2   5   2 16.0529 1.51066   2

  -2   5   2 16.2826 1.41058   3

   1  -5  -2 12.2598 1.02062   2

   1  -5  -2 14.4472 1.00273   1

   1  -5  -2 12.6199 0.90480   3

  -1   5   2 12.5475 1.03649   1

  -1   5   2 12.8851 0.79638   3

   0  -5  -2 446.244 12.4468   1

   0  -5  -2 442.691 12.6631   2

   0  -5  -2 425.502 12.5935   3

   0   5   2 449.100 12.6029   3

   0   5   2 448.428 12.4485   1

  -1  -5  -2 0.25222 0.45796   2

  -1  -5  -2 -0.4586 0.50118   3

   1   5   2 0.48658 0.43642   3

   1   5   2 0.19982 0.55048   2

  -2  -5  -2 37.9477 1.66172   2

  -2  -5  -2 35.8378 1.37931   1

  -2  -5  -2 34.0544 1.65964   3

   2   5   2 37.0076 1.42081   1

   2   5   2 36.0563 1.82662   2

   2   5   2 34.1325 1.59878   3

  -3  -5  -2 98.9426 3.59257   2

  -3  -5  -2 105.336 3.38867   1

  -3  -5  -2 95.4734 3.61568   3

   3   5   2 95.5997 3.40741   1

   3   5   2 93.7035 3.53091   3

   3   5   2 91.5085 3.60327   2

  -4  -5  -2 3.75378 1.68559   2

  -4  -5  -2 5.45096 1.97534   1

   4   5   2 7.07219 1.86315   3

   4   5   2 4.00470 1.66311   1

   3  -6  -2 53.5724 3.31563   1

   3  -6  -2 50.7711 3.38494   2

  -3   6   2 50.6822 2.25050   3

  -3   6   2 54.4344 3.57706   2

   2  -6  -2 -0.3919 1.11033   2

   2  -6  -2 -0.8626 1.05090   1

  -2   6   2 -0.0031 0.60605   3

  -2   6   2 -0.2303 1.17507   1

   1  -6  -2 26.9523 1.43154   3

   1  -6  -2 28.9577 1.41937   2

   1  -6  -2 26.5135 1.45107   1

   1  -6  -2 30.4684 1.67116   2

  -1   6   2 27.2732 1.26127   3

  -1   6   2 29.2507 1.51221   1

   0  -6  -2 298.251 8.70030   2

   0  -6  -2 299.027 8.67172   3

   0  -6  -2 299.672 8.46634   1

   0   6   2 303.528 8.47956   1

   0   6   2 287.081 8.63855   3

  -1  -6  -2 8.61084 0.81725   2

  -1  -6  -2 8.99418 0.96817   3

   1   6   2 7.45901 0.77305   3

   1   6   2 9.60582 0.97771   2

   1   6   2 6.88779 0.43908   1

   1   6   2 7.12406 0.57597   1

  -2  -6  -2 47.7394 2.15944   3

  -2  -6  -2 47.3331 1.69608   1

  -2  -6  -2 46.6429 2.03904   2

   2   6   2 47.3845 1.72445   1

   2   6   2 48.7759 2.04996   3

   2   6   2 48.6015 2.13856   2

  -3  -6  -2 16.0479 1.29713   1

  -3  -6  -2 15.1098 1.51818   3

  -3  -6  -2 15.3162 1.47022   2

   3   6   2 18.3414 1.38224   1

   3   6   2 13.1050 1.62446   2

   3   6   2 17.2975 1.49750   3

  -4  -6  -2 4.27329 1.85874   2

  -4  -6  -2 1.67479 2.02891   1

   4   6   2 4.46339 1.72287   1

   4   6   2 7.92312 1.96439   3

   3  -7  -2 -0.8417 2.05179   1

   2  -7  -2 1.96051 1.36439   2

   2  -7  -2 0.45969 0.98275   2

  -2   7   2 2.95920 0.85760   3

  -2   7   2 3.30930 1.56433   1

   1  -7  -2 0.15021 0.67811   2

   1  -7  -2 -0.7426 0.75388   1

   1  -7  -2 0.77836 1.01532   2

   1  -7  -2 0.39547 0.84182   3

  -1   7   2 -0.3655 1.40902   1

  -1   7   2 0.23530 0.63214   3

   0  -7  -2 -0.2882 0.61082   2

   0  -7  -2 0.45452 0.73244   3

   0   7   2 0.15799 0.52863   1

   0   7   2 0.47526 0.55249   3

  -1  -7  -2 87.9900 3.12155   3

  -1  -7  -2 90.7838 3.09154   2

   1   7   2 84.9699 2.66206   1

   1   7   2 87.2504 2.58717   1

   1   7   2 87.3310 3.15617   2

   1   7   2 87.6478 3.04775   3

  -2  -7  -2 13.4027 0.99493   1

  -2  -7  -2 15.0794 1.38946   3

  -2  -7  -2 14.7803 1.37013   2

   2   7   2 15.0708 1.93337   3

   2   7   2 14.4557 0.98053   1

   2   7   2 15.2598 1.48063   2

  -3  -7  -2 4.91958 1.34356   2

  -3  -7  -2 5.53851 1.11751   1

   3   7   2 5.30867 1.21265   3

   3   7   2 5.82727 1.10132   1

  -4  -7  -2 25.8657 2.54240   1

  -4  -7  -2 35.0601 2.79480   2

   4   7   2 28.9917 2.34837   1

   4   7   2 29.2969 2.65790   3

   2  -8  -2 13.9854 1.86976   2

   2  -8  -2 15.1577 1.79723   1

   2  -8  -2 11.0941 1.35086   2

  -2   8   2 11.0878 1.23855   3

  -2   8   2 11.3682 1.99518   1

   1  -8  -2 33.4317 1.88561   1

   1  -8  -2 35.3333 2.33286   2

   1  -8  -2 34.0730 2.07822   3

   1  -8  -2 34.5810 1.85055   2

  -1   8   2 35.8702 1.79276   3

  -1   8   2 37.2523 2.06014   1

   0  -8  -2 45.9173 2.01317   2

   0  -8  -2 42.8649 2.20564   3

   0   8   2 42.5467 1.95609   3

   0   8   2 42.6487 1.76093   1

  -1  -8  -2 47.8999 2.12306   2

  -1  -8  -2 46.1582 2.21996   3

   1   8   2 49.2490 1.56590   1

   1   8   2 46.2991 1.71647   1

   1   8   2 48.3247 2.29976   2

   1   8   2 48.9839 2.09592   3

  -2  -8  -2 25.6030 2.06967   3

  -2  -8  -2 25.4807 1.89575   2

   2   8   2 25.0460 1.74299   3

   2   8   2 30.0127 1.32122   1

   2   8   2 25.2221 2.13360   2

  -3  -8  -2 8.35254 1.59782   2

  -3  -8  -2 5.35199 1.23133   1

   3   8   2 4.81561 1.15734   1

   3   8   2 7.57349 1.48260   3

   2  -9  -2 5.58605 1.78525   1

   2  -9  -2 8.63241 1.48238   2

  -2   9   2 7.26299 2.37209   1

  -2   9   2 6.07849 1.39104   3

   1  -9  -2 4.57588 1.11992   2

   1  -9  -2 7.22429 1.20410   1

   1  -9  -2 5.83317 1.58862   3

   1  -9  -2 6.46131 1.61988   2

  -1   9   2 8.24709 1.21324   3

  -1   9   2 5.18990 1.36130   1

   0  -9  -2 12.4168 1.54485   3

   0  -9  -2 11.7973 1.25440   2

   0   9   2 13.0848 1.08635   1

  -1  -9  -2 4.29043 1.27100   3

  -1  -9  -2 4.58693 1.36790   2

   1   9   2 6.93855 1.55512   2

   1   9   2 5.56079 0.78884   1

   1   9   2 5.94532 0.54608   1

   1   9   2 7.28368 1.07303   3

  -2  -9  -2 4.62448 1.33716   2

   2   9   2 3.03454 0.94392   1

   2   9   2 4.23024 1.17676   3

   2   9   2 2.42775 1.67436   2

   2   9   2 3.20107 0.71145   1

  -3  -9  -2 19.5104 2.20418   2

   3   9   2 19.8523 1.58115   1

   3   9   2 20.5418 1.99244   3

   1 -10  -2 -0.2862 1.98656   3

   1 -10  -2 -1.3654 1.21356   1

   1 -10  -2 -0.6145 1.25242   2

   1 -10  -2 -0.5058 1.89455   2

  -1  10   2 -0.4797 1.23864   3

  -1  10   2 0.89860 1.61952   1

   0 -10  -2 73.5942 3.06088   2

   0 -10  -2 75.7605 3.80445   2

   0 -10  -2 66.2597 3.58510   3

   0  10   2 72.2150 2.46396   1

   0  10   2 74.8377 3.11386   3

   0  10   2 69.1601 2.83144   1

  -1 -10  -2 30.3335 2.27126   2

   1  10   2 33.3673 2.13217   3

   1  10   2 27.6086 1.61631   1

   1  10   2 26.0595 2.27879   2

   1  10   2 28.7110 1.24322   1

  -2 -10  -2 4.82362 1.66640   2

   2  10   2 3.97319 0.81673   1

   2  10   2 5.85297 1.35965   1

   2  10   2 4.61186 1.40833   3

  -3 -10  -2 15.5282 2.33149   2

   3  10   2 17.4891 2.02764   3

   1 -11  -2 10.2027 1.84044   2

  -1  11   2 11.3580 1.83890   3

   0 -11  -2 14.6974 1.75390   2

   0 -11  -2 10.0164 2.46888   2

   0  11   2 12.8511 1.70391   3

  -1 -11  -2 11.6697 1.79371   2

   1  11   2 16.7836 1.85943   3

  -2 -11  -2 -0.1196 1.72931   2

   2  11   2 0.46001 1.58704   3

   2  10  -3 4.96398 1.62920   1

   2  10  -3 6.14424 1.80031   3

  -2 -10   3 2.70079 1.94836   2

   1  10  -3 109.017 3.85291   1

   1  10  -3 86.8143 4.97940   1

   1  10  -3 105.413 4.12011   3

   1  10  -3 97.6501 4.40675   2

  -1 -10   3 105.775 4.03550   2

   0  10  -3 46.3204 3.42040   1

   0  10  -3 46.5883 2.50867   1

   0  10  -3 39.6999 2.56882   3

   0 -10   3 49.2469 2.29157   2

  -1  10  -3 11.8054 1.94503   3

   2   9  -3 6.62165 2.23412   1

   2   9  -3 4.94921 1.33526   1

   2   9  -3 6.45489 1.40228   3

  -2  -9   3 7.43309 1.81449   2

   1   9  -3 136.713 5.34357   1

   1   9  -3 153.246 4.76963   1

   1   9  -3 146.182 5.07941   2

   1   9  -3 136.771 4.93312   3

  -1  -9   3 146.341 4.89109   2

   0   9  -3 1.58086 1.07847   3

   0   9  -3 1.21236 1.07252   2

   0   9  -3 1.70959 1.01480   1

   0   9  -3 3.13385 1.92963   1

   0  -9   3 1.72949 0.82718   2

  -1   9  -3 0.66162 1.28364   3

  -2   9  -3 12.2328 2.01038   3

   2  -9   3 13.0835 2.13815   1

   3   8  -3 87.8577 3.85224   1

   3   8  -3 92.2251 4.07676   3

  -3  -8   3 94.4283 4.53286   2

   2   8  -3 33.6136 2.06132   1

   2   8  -3 30.5032 2.42701   2

   2   8  -3 29.1665 2.14640   3

  -2  -8   3 34.0084 2.48298   2

   1   8  -3 2.44840 0.89189   3

   1   8  -3 2.27903 1.19863   2

   1   8  -3 1.44780 0.85958   1

   1   8  -3 2.91946 1.53689   1

  -1  -8   3 2.00034 1.00131   2

  -1  -8   3 1.01952 1.23951   3

   0   8  -3 151.139 5.29727   1

   0   8  -3 155.225 5.04498   3

   0   8  -3 153.368 4.82467   1

   0   8  -3 153.138 4.68365   2

   0  -8   3 145.892 5.15744   3

   0  -8   3 150.477 4.62361   2

  -1   8  -3 17.7743 2.16643   1

  -1   8  -3 19.4500 1.66191   3

   1  -8   3 15.3890 1.55461   1

   1  -8   3 15.1737 2.07444   3

  -2   8  -3 51.9654 2.93636   3

   2  -8   3 55.3849 3.22293   1

   3   7  -3 1.13398 1.42967   1

   3   7  -3 0.91482 1.34287   3

  -3  -7   3 0.65327 1.56431   2

   2   7  -3 25.3528 1.72096   1

   2   7  -3 23.1705 1.79600   3

   2   7  -3 23.3103 1.99299   2

  -2  -7   3 22.8817 2.06442   2

  -2  -7   3 21.0322 1.87919   3

   1   7  -3 1.29652 1.21370   1

   1   7  -3 1.81771 1.03008   2

   1   7  -3 0.50713 0.79342   3

   1   7  -3 1.05290 0.74722   1

  -1  -7   3 1.79817 0.86519   2

  -1  -7   3 -0.1956 0.98687   3

   0   7  -3 151.238 4.60635   2

   0   7  -3 149.881 4.98627   3

   0   7  -3 161.109 4.77295   1

   0   7  -3 148.341 5.00713   1

   0  -7   3 153.334 4.57923   2

   0  -7   3 148.488 5.01348   3

  -1   7  -3 29.0405 2.36365   1

  -1   7  -3 33.8408 1.90869   3

   1  -7   3 31.2916 2.10274   3

  -2   7  -3 4.01340 1.23602   3

   2  -7   3 1.94088 1.46739   1

  -3   7  -3 3.94645 1.73076   3

   3  -7   3 -0.1886 2.08325   1

   3   6  -3 1.78709 1.27082   3

   3   6  -3 2.91656 1.33757   1

  -3  -6   3 -0.0920 1.78145   3

  -3  -6   3 3.01089 1.55631   2

   2   6  -3 274.323 8.69963   2

   2   6  -3 301.318 8.57941   1

  -2  -6   3 278.737 8.53218   1

  -2  -6   3 308.325 8.83600   2

  -2  -6   3 272.831 8.67458   3

   1   6  -3 41.7752 1.86697   3

   1   6  -3 43.7445 1.71558   1

   1   6  -3 38.0120 1.87798   2

   1   6  -3 43.5131 2.02403   1

  -1  -6   3 39.5486 1.99498   3

  -1  -6   3 40.5140 1.83241   2

   0   6  -3 21.3341 1.28164   3

   0   6  -3 23.2179 1.55738   1

   0   6  -3 21.7885 1.13667   2

   0   6  -3 20.8404 1.19498   1

   0  -6   3 22.2138 1.04457   2

   0  -6   3 20.0035 1.56159   3

  -1   6  -3 108.542 3.86789   1

  -1   6  -3 103.545 3.59191   3

   1  -6   3 99.9897 3.55215   1

   1  -6   3 103.834 3.71711   3

  -2   6  -3 8.40104 1.27707   3

  -2   6  -3 9.15493 1.63655   1

   2  -6   3 9.50058 1.40433   1

  -3   6  -3 101.245 4.04533   3

   3  -6   3 101.282 4.47841   1

   4   5  -3 6.95850 2.01973   3

   4   5  -3 5.50443 2.20437   1

  -4  -5   3 1.42017 2.11644   2

   3   5  -3 24.5301 1.96556   3

   3   5  -3 25.0344 1.84161   1

  -3  -5   3 24.0356 1.97737   2

  -3  -5   3 27.8656 1.99041   1

  -3  -5   3 23.9496 1.97886   3

   2   5  -3 3.56698 0.81069   3

   2   5  -3 3.87977 0.82608   1

   2   5  -3 4.56301 1.05447   2

  -2  -5   3 3.53549 1.00106   2

  -2  -5   3 4.87964 0.97336   1

  -2  -5   3 4.01889 0.97838   3

   1   5  -3 140.779 4.39414   3

   1   5  -3 143.225 4.27281   1

   1   5  -3 135.961 4.33374   2

  -1  -5   3 131.358 4.38536   3

  -1  -5   3 142.058 4.35698   2

   0   5  -3 0.65008 0.53766   3

   0   5  -3 0.38676 0.71967   1

   0   5  -3 0.76778 0.42933   2

   0  -5   3 0.77662 0.37887   2

   0  -5   3 0.38632 0.68416   3

  -1   5  -3 51.7243 2.13841   3

  -1   5  -3 57.4942 2.43881   1

   1  -5   3 56.4282 2.42462   3

   1  -5   3 57.8286 2.19889   1

  -2   5  -3 180.132 5.97284   1

  -2   5  -3 181.341 5.76855   3

   2  -5   3 186.590 5.90949   1

  -3   5  -3 9.21978 2.45977   3

  -3   5  -3 10.1152 1.55515   3

   3  -5   3 7.56936 0.75364   2

   3  -5   3 12.3419 1.71976   1

   4   4  -3 5.73071 1.80888   3

   4   4  -3 -0.7974 1.67406   1

  -4  -4   3 4.00890 2.33682   3

  -4  -4   3 4.27200 1.90799   2

   3   4  -3 2.05272 0.98605   3

   3   4  -3 2.39364 1.10031   1

   3   4  -3 1.96357 1.30634   2

  -3  -4   3 2.22281 1.25587   3

  -3  -4   3 0.75524 1.12400   2

  -3  -4   3 4.50656 1.27209   1

   2   4  -3 11.5029 0.95613   3

   2   4  -3 10.7112 0.96400   1

   2   4  -3 12.1270 1.20703   2

  -2  -4   3 9.91779 1.12514   2

  -2  -4   3 9.38567 0.96205   1

  -2  -4   3 8.39448 0.99054   3

   1   4  -3 773.571 21.3924   1

   1   4  -3 763.394 21.4614   3

   1   4  -3 754.504 21.4281   2

  -1  -4   3 751.513 21.4567   2

  -1  -4   3 736.116 21.5923   3

  -1  -4   3 765.423 21.4125   1

   0   4  -3 130.102 3.75671   2

   0   4  -3 126.635 3.96984   3

   0   4  -3 124.338 3.98556   1

   0  -4   3 127.962 3.76970   2

  -1   4  -3 71.2037 2.50330   3

  -1   4  -3 71.9248 2.66306   1

   1  -4   3 69.9536 2.55787   1

   1  -4   3 74.1736 2.57601   3

  -2   4  -3 28.2422 1.89053   1

  -2   4  -3 29.8336 1.58191   3

   2  -4   3 35.7424 1.89039   1

  -3   4  -3 50.1539 2.44279   3

  -3   4  -3 44.4913 3.19555   3

  -3   4  -3 48.7825 1.88189   2

   3  -4   3 46.5299 2.70831   1

   3  -4   3 43.4686 1.86818   2

  -4   4  -3 65.5593 3.58089   3

   4  -4   3 81.9888 5.35227   1

   4   3  -3 -1.1654 1.65449   1

   4   3  -3 1.34347 1.63815   3

  -4  -3   3 0.60760 1.97167   3

  -4  -3   3 1.76105 1.93229   2

   3   3  -3 23.4097 2.12865   2

   3   3  -3 29.3397 1.90115   1

   3   3  -3 30.2262 1.77613   3

  -3  -3   3 28.8805 1.95081   2

  -3  -3   3 25.3104 2.00664   3

  -3  -3   3 26.0904 1.89003   1

   2   3  -3 42.3812 1.95606   2

   2   3  -3 40.7670 1.68618   1

   2   3  -3 38.3996 1.62579   3

  -2  -3   3 42.8603 1.88571   1

  -2  -3   3 40.9291 1.99706   3

  -2  -3   3 42.2173 1.94642   2

   1   3  -3 -0.1610 0.37308   3

   1   3  -3 0.46925 0.52659   2

   1   3  -3 0.86135 0.39139   1

  -1  -3   3 0.87209 0.47390   1

  -1  -3   3 -0.3386 0.45466   2

  -1  -3   3 0.61993 0.53104   3

   0   3  -3 275.333 7.82402   2

   0   3  -3 281.617 8.00705   3

   0   3  -3 266.134 7.99125   1

   0  -3   3 276.783 8.01573   3

   0  -3   3 275.375 7.84365   2

  -1   3  -3 60.6601 2.24045   1

  -1   3  -3 59.0738 2.12585   3

   1  -3   3 61.0052 2.19091   1

   1  -3   3 61.3782 2.18680   3

  -2   3  -3 3.47258 1.04522   3

  -2   3  -3 3.11185 1.00130   1

  -2   3  -3 4.08623 0.40495   2

  -2   3  -3 4.58413 0.76024   3

   2  -3   3 4.00659 0.87606   1

   2  -3   3 4.37709 0.41446   2

  -3   3  -3 169.507 5.95963   1

  -3   3  -3 161.903 6.54401   3

  -3   3  -3 183.197 6.06621   3

  -3   3  -3 179.518 5.34696   2

   3  -3   3 177.394 5.33979   2

   3  -3   3 179.487 5.84669   1

  -4   3  -3 -0.3440 1.57031   3

  -4   3  -3 0.69651 1.39153   2

   4  -3   3 -0.9576 1.71636   1

   4   2  -3 14.2514 1.73745   3

   4   2  -3 17.8985 2.02433   1

  -4  -2   3 11.3942 1.96454   3

  -4  -2   3 12.2564 2.16787   2

   3   2  -3 4.23437 0.90396   3

   3   2  -3 2.88126 1.22692   2

   3   2  -3 3.68995 0.95952   1

  -3  -2   3 6.02446 1.24559   2

  -3  -2   3 3.60004 1.03652   3

  -3  -2   3 3.42085 1.02513   1

   2   2  -3 4.20225 0.57071   3

   2   2  -3 4.20268 0.63586   1

   2   2  -3 1.44131 0.78149   2

  -2  -2   3 3.58909 0.64058   3

  -2  -2   3 3.20850 0.66482   1

  -2  -2   3 4.04505 0.80681   2

   1   2  -3 16.3112 0.81341   3

   1   2  -3 14.5050 0.98487   2

   1   2  -3 14.6252 0.79118   1

  -1  -2   3 13.9827 0.85897   3

  -1  -2   3 14.2293 0.85904   1

  -1  -2   3 13.1814 0.90897   2

   0   2  -3 1134.75 31.2694   1

   0   2  -3 1106.92 31.2090   1

   0   2  -3 1093.51 31.2526   3

   0   2  -3 1114.69 31.2389   2

   0  -2   3 1083.72 31.1632   2

   0  -2   3 1157.13 31.2698   3

  -1   2  -3 542.685 14.8954   2

  -1   2  -3 515.453 14.9005   2

  -1   2  -3 530.855 15.2090   3

  -1   2  -3 541.527 15.2516   1

   1  -2   3 542.976 15.2347   1

  -2   2  -3 21.4142 0.91510   2

  -2   2  -3 19.8685 1.19031   3

  -2   2  -3 20.8359 1.54674   3

  -2   2  -3 19.9263 1.53243   1

   2  -2   3 20.0165 1.27085   1

   2  -2   3 20.6510 0.94860   2

  -3   2  -3 14.4523 1.62108   1

  -3   2  -3 10.0019 1.57026   3

  -3   2  -3 13.2047 1.05103   2

  -3   2  -3 10.9848 1.15124   3

   3  -2   3 12.5238 1.12523   2

   3  -2   3 11.6045 1.31830   1

  -4   2  -3 34.0582 2.51301   2

  -4   2  -3 29.1427 2.46620   3

   4  -2   3 33.2023 2.52880   1

   4  -2   3 29.6613 2.28122   2

   4   1  -3 12.7388 1.59455   3

   4   1  -3 15.2300 1.99095   1

  -4  -1   3 12.5706 2.06835   2

   3   1  -3 -0.0401 0.87500   1

   3   1  -3 -0.4589 1.10105   2

   3   1  -3 0.51331 0.72472   3

  -3  -1   3 -0.4562 1.03603   2

  -3  -1   3 -0.1930 0.83708   3

  -3  -1   3 -0.7227 1.06195   1

   2   1  -3 15.7723 1.27806   2

   2   1  -3 15.9957 0.87305   3

   2   1  -3 17.5490 1.04806   1

  -2  -1   3 16.4921 1.10514   1

  -2  -1   3 17.0677 0.96870   3

  -2  -1   3 16.1275 1.18449   2

   1   1  -3 8.17069 0.54245   3

   1   1  -3 8.01486 0.72493   2

   1   1  -3 8.06576 0.64965   1

  -1  -1   3 8.20707 0.64624   1

  -1  -1   3 6.22619 0.67121   2

  -1  -1   3 7.26183 0.58733   3

   0   1  -3 240.036 6.76435   3

   0   1  -3 227.086 6.73536   2

   0   1  -3 236.363 6.73792   1

   0  -1   3 228.711 6.75481   3

   0  -1   3 244.942 6.76079   2

  -1   1  -3 53.2276 1.76891   3

  -1   1  -3 49.7188 1.88310   3

  -1   1  -3 49.7104 1.82437   1

  -1   1  -3 52.2566 1.55971   2

   1  -1   3 50.0836 1.57326   2

   1  -1   3 50.2218 1.80703   1

  -2   1  -3 211.580 6.23908   3

  -2   1  -3 193.101 6.13964   1

  -2   1  -3 204.401 5.91024   2

   2  -1   3 198.376 6.14911   1

   2  -1   3 206.269 5.91924   2

  -3   1  -3 -0.0891 0.73334   2

  -3   1  -3 0.34418 1.00416   1

  -3   1  -3 -0.9182 1.11172   3

   3  -1   3 0.26324 1.00997   1

   3  -1   3 0.72333 1.58341   2

  -4   1  -3 71.9053 3.20312   3

  -4   1  -3 71.8785 3.33977   2

   4  -1   3 71.8237 3.60823   1

   4  -1   3 67.1583 3.62804   2

   4   0  -3 4.95767 1.56008   1

  -4   0   3 4.32770 1.83347   2

   3   0  -3 45.8120 2.69722   2

   3   0  -3 47.6140 1.91863   3

   3   0  -3 47.0791 2.33214   1

  -3   0   3 43.5366 2.37286   1

  -3   0   3 47.9432 1.94409   3

  -3   0   3 51.1572 2.59590   2

   2   0  -3 11.4810 0.71499   3

   2   0  -3 11.9589 1.06010   2

   2   0  -3 11.2696 0.91982   1

  -2   0   3 11.4246 0.91818   1

  -2   0   3 12.7655 0.75381   3

  -2   0   3 11.4712 1.06180   2

   1   0  -3 176.344 5.36509   2

   1   0  -3 183.325 5.09504   3

   1   0  -3 174.508 5.24576   1

  -1   0   3 185.566 5.39797   2

  -1   0   3 173.966 5.23566   1

  -1   0   3 181.130 5.10402   3

   0   0  -3 4.88593 0.36298   1

   0   0  -3 5.98665 0.48763   2

   0   0  -3 5.35865 0.38742   3

   0   0   3 5.85031 0.48265   2

  -1   0  -3 253.623 7.51838   1

  -1   0  -3 259.210 7.42577   2

  -1   0  -3 262.770 7.60235   3

   1   0   3 256.587 7.43375   2

   1   0   3 272.618 7.53792   1

  -2   0  -3 571.795 16.1423   2

   2   0   3 562.521 16.1379   2

   2   0   3 575.824 16.3605   3

   2   0   3 569.235 16.2880   1

  -3   0  -3 2.58626 1.13409   3

  -3   0  -3 4.05040 1.20634   1

  -3   0  -3 3.94706 0.82388   2

   3   0   3 3.75966 0.99338   2

   3   0   3 4.43215 1.02293   1

  -4   0  -3 9.73150 1.63248   2

  -4   0  -3 6.57914 2.07432   3

   4   0   3 6.31990 1.83112   2

   4   0   3 10.8781 1.78054   1

   4  -1  -3 21.3030 2.17946   1

  -4   1   3 18.3814 2.33116   2

   3  -1  -3 30.6331 2.25093   2

   3  -1  -3 29.1960 2.00526   1

  -3   1   3 30.9857 1.45013   3

  -3   1   3 30.2519 1.89243   1

  -3   1   3 38.0563 2.14870   2

   2  -1  -3 10.7981 1.03260   2

   2  -1  -3 9.77829 0.89146   1

  -2   1   3 10.3522 1.01858   2

  -2   1   3 9.10591 0.58882   3

  -2   1   3 8.45813 0.82760   1

   1  -1  -3 3.35168 0.66334   2

   1  -1  -3 3.06142 0.43990   1

  -1   1   3 3.55393 0.47488   1

  -1   1   3 4.52274 0.63200   2

   0  -1  -3 22.1595 0.77411   1

   0  -1  -3 23.6254 0.83020   3

   0  -1  -3 21.1862 0.95900   2

   0   1   3 22.5989 0.78726   1

   0   1   3 22.1743 0.96008   2

  -1  -1  -3 463.445 13.2560   1

  -1  -1  -3 478.565 13.3572   3

  -1  -1  -3 459.177 13.2642   2

   1   1   3 466.559 13.2766   2

   1   1   3 483.249 13.3710   3

   1   1   3 465.176 13.2546   1

  -2  -1  -3 10.2023 0.78841   2

  -2  -1  -3 10.3000 0.92192   1

   2   1   3 9.19942 0.86718   3

   2   1   3 10.6171 0.88687   1

   2   1   3 8.68109 0.76697   2

  -3  -1  -3 135.885 4.76330   3

  -3  -1  -3 144.801 4.79200   1

  -3  -1  -3 150.347 4.70229   2

   3   1   3 149.069 4.87386   3

   3   1   3 145.608 4.76346   1

   3   1   3 146.429 4.74552   2

  -4  -1  -3 0.11987 1.39330   2

  -4  -1  -3 2.10890 2.12688   3

   4   1   3 2.35821 1.80758   2

   4   1   3 1.19819 1.44049   1

   4   1   3 0.05396 1.54969   3

   4  -2  -3 5.78900 2.12624   1

  -4   2   3 4.82842 2.20017   2

   3  -2  -3 1.67721 1.38058   2

   3  -2  -3 3.35529 1.10951   1

  -3   2   3 1.09610 1.14751   1

  -3   2   3 1.91411 0.52983   3

  -3   2   3 -0.7484 1.11887   2

  -3   2   3 1.35542 0.62298   3

   2  -2  -3 125.822 3.93481   1

   2  -2  -3 121.642 4.04327   2

  -2   2   3 119.245 3.46040   3

  -2   2   3 117.102 3.83765   1

  -2   2   3 118.822 4.04119   2

   1  -2  -3 61.4126 2.17466   2

   1  -2  -3 63.1321 2.03453   1

  -1   2   3 57.8214 2.15556   2

  -1   2   3 59.5781 1.99406   1

   0  -2  -3 432.195 12.0675   1

   0  -2  -3 402.023 12.2643   2

   0  -2  -3 446.223 12.1024   3

   0   2   3 431.124 12.0656   1

   0   2   3 440.980 12.1207   3

  -1  -2  -3 0.24802 0.32218   2

  -1  -2  -3 -0.1714 0.36279   3

  -1  -2  -3 0.04954 0.29981   1

   1   2   3 0.53928 0.27853   1

   1   2   3 0.27941 0.39864   2

   1   2   3 0.37452 0.36235   3

  -2  -2  -3 5.44627 0.68696   1

  -2  -2  -3 5.08935 0.64815   2

  -2  -2  -3 5.63069 0.78820   3

   2   2   3 5.79473 0.68661   1

   2   2   3 5.41784 0.74257   2

   2   2   3 6.75788 0.78358   3

  -3  -2  -3 225.750 6.92753   2

  -3  -2  -3 220.438 6.88253   1

  -3  -2  -3 228.274 7.03075   3

   3   2   3 229.968 6.96460   2

   3   2   3 232.835 6.98274   1

   3   2   3 220.990 7.03996   3

  -4  -2  -3 5.12283 1.49294   2

   4   2   3 3.60868 1.45168   1

   4   2   3 3.88329 1.56637   3

   4   2   3 3.14432 1.99754   2

   4  -3  -3 15.6069 2.38143   1

  -4   3   3 17.9950 2.56440   2

   3  -3  -3 39.0629 2.43334   1

   3  -3  -3 35.6501 2.82256   2

  -3   3   3 43.3763 2.61184   2

  -3   3   3 39.6701 1.44664   3

  -3   3   3 30.2857 2.29985   1

  -3   3   3 37.1815 1.51813   3

   2  -3  -3 15.9402 1.42898   2

   2  -3  -3 18.2259 1.34300   1

  -2   3   3 18.3657 1.45906   2

  -2   3   3 17.0881 0.72215   3

  -2   3   3 17.3524 1.39139   1

   1  -3  -3 0.26449 0.57305   2

   1  -3  -3 0.60814 0.42449   1

  -1   3   3 0.29283 0.51169   2

  -1   3   3 0.47785 0.17531   3

  -1   3   3 -0.2019 0.43271   1

   0  -3  -3 12.3667 0.60486   3

   0  -3  -3 13.2465 0.84331   2

   0  -3  -3 11.6404 0.52797   1

   0  -3  -3 12.7064 0.87989   2

   0   3   3 12.7766 0.60896   3

   0   3   3 11.0633 0.47444   1

  -1  -3  -3 28.2899 1.18162   2

  -1  -3  -3 26.3650 1.14895   3

  -1  -3  -3 27.0801 0.92127   1

   1   3   3 27.8987 1.23056   2

   1   3   3 26.1500 1.08230   1

   1   3   3 27.7493 1.16744   3

  -2  -3  -3 73.1985 2.58463   3

  -2  -3  -3 74.4461 2.57981   2

  -2  -3  -3 71.1837 2.41441   1

   2   3   3 75.8434 2.45382   1

   2   3   3 74.1901 2.58214   2

   2   3   3 73.3742 2.59674   3

  -3  -3  -3 4.48904 1.05409   1

  -3  -3  -3 4.73093 1.07998   3

  -3  -3  -3 5.30846 1.06716   2

   3   3   3 7.55664 1.13910   3

   3   3   3 6.65878 1.07400   1

   3   3   3 6.27710 1.19462   2

  -4  -3  -3 33.0577 2.54081   1

  -4  -3  -3 37.1772 2.71306   2

   4   3   3 37.4221 2.61344   3

   4   3   3 38.4096 2.76868   1

   3  -4  -3 49.2126 3.12951   2

   3  -4  -3 61.4868 2.96538   1

  -3   4   3 53.5066 1.95094   3

  -3   4   3 55.5646 2.87892   2

  -3   4   3 51.7523 1.84960   3

   2  -4  -3 22.2778 1.54634   1

   2  -4  -3 20.2097 1.80131   2

  -2   4   3 21.1296 0.85723   3

  -2   4   3 23.4261 1.52336   2

  -2   4   3 20.2685 1.57048   1

  -2   4   3 20.3408 0.99229   3

   1  -4  -3 113.899 3.53653   1

   1  -4  -3 113.348 3.33785   3

   1  -4  -3 114.064 3.73928   2

  -1   4   3 112.545 3.68776   2

  -1   4   3 110.860 3.48794   1

  -1   4   3 117.668 3.32554   3

   0  -4  -3 10.4080 0.69179   3

   0  -4  -3 7.98996 0.69926   2

   0   4   3 8.66028 0.43056   1

   0   4   3 7.99093 0.61231   3

  -1  -4  -3 62.9469 2.14749   3

  -1  -4  -3 64.0952 1.80217   1

  -1  -4  -3 61.4163 2.17966   2

   1   4   3 62.1513 2.16071   3

   1   4   3 63.6287 2.27249   2

   1   4   3 64.1497 1.82162   1

  -2  -4  -3 26.0670 1.40191   3

  -2  -4  -3 26.6032 1.16500   1

  -2  -4  -3 26.8897 1.40785   2

   2   4   3 26.8254 1.20305   1

   2   4   3 27.9509 1.36877   3

   2   4   3 28.3432 1.54835   2

  -3  -4  -3 3.97914 1.03032   3

  -3  -4  -3 4.09668 1.02996   1

  -3  -4  -3 4.37818 1.61613   2

   3   4   3 4.22212 1.67482   3

   3   4   3 5.13040 0.97937   1

   3   4   3 2.68097 1.12261   2

  -4  -4  -3 48.2525 3.25751   1

  -4  -4  -3 52.4716 3.11000   2

   4   4   3 51.6302 3.17600   3

   4   4   3 50.4368 2.95609   1

   3  -5  -3 64.0102 3.65995   2

   3  -5  -3 64.0130 3.30150   1

  -3   5   3 71.0583 2.49718   3

  -3   5   3 76.6051 3.46174   2

  -3   5   3 71.7487 2.34641   3

   2  -5  -3 33.4102 1.96185   1

   2  -5  -3 32.0011 2.13284   2

  -2   5   3 32.3942 1.25911   3

  -2   5   3 33.0141 1.99473   2

  -2   5   3 31.4499 1.47715   3

  -2   5   3 32.7383 2.02289   1

   1  -5  -3 8.78141 0.76256   3

   1  -5  -3 8.33871 0.76113   1

   1  -5  -3 9.43459 1.05197   2

  -1   5   3 7.63931 0.76793   1

  -1   5   3 9.21468 0.63733   3

   0  -5  -3 28.6218 1.21241   3

   0  -5  -3 28.2088 1.28304   2

   0  -5  -3 28.6474 0.98322   1

   0   5   3 27.4006 1.15387   3

   0   5   3 28.3223 0.95063   1

  -1  -5  -3 10.6232 0.89174   3

  -1  -5  -3 9.74051 0.91638   2

   1   5   3 10.1794 0.94406   2

   1   5   3 10.2472 0.87671   3

  -2  -5  -3 -0.2989 0.71941   3

  -2  -5  -3 0.34605 0.43599   1

  -2  -5  -3 0.28631 0.60339   2

   2   5   3 -0.0343 0.44641   1

   2   5   3 -0.0145 0.53516   3

   2   5   3 0.58230 0.83393   2

  -3  -5  -3 0.70778 0.97928   2

  -3  -5  -3 -0.3419 0.92492   1

  -3  -5  -3 1.09660 0.97899   3

   3   5   3 1.79699 0.90174   1

   3   5   3 1.95035 0.96713   3

   3   5   3 -1.6399 1.08546   2

  -4  -5  -3 -0.2397 1.51780   2

  -4  -5  -3 2.01299 1.88779   1

   4   5   3 2.86582 1.71860   3

   4   5   3 4.33985 1.63543   1

   3  -6  -3 1.47535 2.13770   2

   3  -6  -3 4.31294 1.73337   1

  -3   6   3 4.39734 1.71886   2

   2  -6  -3 185.389 6.06066   2

   2  -6  -3 183.170 5.91949   1

  -2   6   3 183.721 5.89720   1

  -2   6   3 186.048 5.44126   3

  -2   6   3 181.757 5.59432   3

   1  -6  -3 52.7350 2.03174   1

   1  -6  -3 51.6260 2.36733   2

   1  -6  -3 50.8391 1.93320   3

   1  -6  -3 51.9626 2.14147   2

  -1   6   3 51.6930 2.01687   1

  -1   6   3 53.0659 1.84211   3

   0  -6  -3 18.1933 0.78771   1

   0  -6  -3 18.1254 1.12563   3

   0  -6  -3 18.4530 1.11863   2

   0   6   3 21.3522 1.04519   3

   0   6   3 18.4748 0.78778   1

  -1  -6  -3 3.12111 0.65180   2

  -1  -6  -3 3.38119 0.77927   3

   1   6   3 2.79883 0.85156   2

   1   6   3 3.00816 0.63642   3

  -2  -6  -3 -0.0240 0.77344   3

  -2  -6  -3 0.09514 0.42558   1

  -2  -6  -3 0.49556 0.70592   2

   2   6   3 1.04565 0.94841   2

   2   6   3 -0.2094 0.44104   1

   2   6   3 0.43398 0.69285   3

  -3  -6  -3 41.7262 2.29788   2

  -3  -6  -3 43.8918 2.06651   1

  -3  -6  -3 39.9661 2.26784   3

   3   6   3 41.4122 2.06753   1

   3   6   3 41.6361 2.67256   2

   3   6   3 45.5164 2.23344   3

  -4  -6  -3 4.50737 2.00034   1

  -4  -6  -3 4.71812 1.78702   2

   4   6   3 11.6842 2.04355   3

   4   6   3 5.51297 1.70366   1

   3  -7  -3 16.8676 3.46637   2

   3  -7  -3 19.5566 2.45730   1

   2  -7  -3 127.684 4.77954   2

  -2   7   3 127.560 3.97657   3

  -2   7   3 122.675 4.51215   1

   1  -7  -3 36.1918 1.74329   3

   1  -7  -3 33.5926 1.80569   2

   1  -7  -3 32.6630 2.20106   2

   1  -7  -3 33.1502 1.72113   1

  -1   7   3 35.1338 1.54516   3

  -1   7   3 33.5238 1.74032   1

   0  -7  -3 59.8912 2.27756   2

   0  -7  -3 55.9790 1.81335   1

   0  -7  -3 57.1985 2.22964   3

   0   7   3 56.1598 2.11725   3

   0   7   3 54.6374 1.82817   1

  -1  -7  -3 22.6623 1.37703   2

  -1  -7  -3 21.4535 1.42801   3

   1   7   3 20.0977 1.27365   3

   1   7   3 21.4566 1.62908   2

  -2  -7  -3 10.1883 1.71847   2

  -2  -7  -3 10.0371 1.22378   3

  -2  -7  -3 9.74958 0.63828   1

   2   7   3 8.83003 0.67837   1

   2   7   3 7.82839 1.18310   3

   2   7   3 10.8007 1.32183   2

  -3  -7  -3 4.56342 1.21140   2

  -3  -7  -3 6.82449 1.09119   1

   3   7   3 7.30669 1.24242   3

   3   7   3 6.06781 1.06143   1

  -4  -7  -3 2.56834 2.01473   1

  -4  -7  -3 -0.2100 1.77986   2

   4   7   3 3.90267 2.00998   3

   4   7   3 3.06055 1.76496   1

   2  -8  -3 0.47536 1.87066   2

   2  -8  -3 -0.4047 1.51894   1

  -2   8   3 -1.1991 0.90281   3

  -2   8   3 0.22542 1.74615   1

   1  -8  -3 217.265 6.73290   3

   1  -8  -3 226.249 6.83689   2

   1  -8  -3 221.707 7.05855   2

   1  -8  -3 223.935 6.67498   1

  -1   8   3 211.485 6.61562   3

  -1   8   3 218.033 6.65132   1

   0  -8  -3 2.42780 0.89280   2

   0  -8  -3 4.53452 1.10988   3

   0   8   3 3.39487 0.84438   3

   0   8   3 2.64654 0.58097   1

  -1  -8  -3 -0.0193 0.87738   2

  -1  -8  -3 2.05994 0.98325   3

   1   8   3 1.45031 0.76176   3

   1   8   3 0.89267 1.16209   2

  -2  -8  -3 2.67059 1.05150   2

   2   8   3 2.84304 1.00786   3

   2   8   3 0.58255 0.50929   1

   2   8   3 1.76032 1.35644   2

  -3  -8  -3 -1.7346 1.24658   1

  -3  -8  -3 3.53215 1.31750   2

   3   8   3 0.22810 1.14495   3

   3   8   3 -1.2608 0.96624   1

   2  -9  -3 37.7458 3.41403   2

   2  -9  -3 43.8536 3.06578   1

   2  -9  -3 47.0774 2.85454   2

  -2   9   3 34.7560 2.80373   1

  -2   9   3 45.5528 2.39156   3

   1  -9  -3 61.9932 3.04538   3

   1  -9  -3 66.7221 2.69752   1

   1  -9  -3 59.7109 3.52736   2

   1  -9  -3 63.8540 2.88565   2

  -1   9   3 60.0325 2.83983   1

  -1   9   3 67.5562 2.67697   3

   0  -9  -3 60.2241 3.25465   2

   0  -9  -3 60.1287 2.91516   3

   0  -9  -3 64.8181 2.68699   2

   0   9   3 63.9618 2.59106   3

   0   9   3 59.6144 2.41577   1

  -1  -9  -3 24.4268 1.97100   2

  -1  -9  -3 25.6604 2.23413   3

   1   9   3 26.2757 2.13726   2

   1   9   3 28.7638 1.89257   3

  -2  -9  -3 1.28131 1.18417   2

   2   9   3 0.03571 0.58095   1

   2   9   3 -0.6903 1.03473   3

   2   9   3 0.31237 2.65128   2

  -3  -9  -3 0.36994 1.57695   2

   3   9   3 1.08674 1.07646   1

   3   9   3 0.03962 1.32176   3

   1 -10  -3 2.05724 1.91128   3

   1 -10  -3 0.75818 2.15687   2

   1 -10  -3 0.49354 1.26562   1

   1 -10  -3 0.46517 1.43289   2

  -1  10   3 2.08315 1.29176   3

   0 -10  -3 111.092 4.48968   3

   0 -10  -3 110.071 4.75219   2

   0 -10  -3 113.289 4.13084   2

   0  10   3 107.026 3.51712   1

   0  10   3 118.143 4.09716   3

   0  10   3 109.247 3.37460   1

  -1 -10  -3 26.6972 2.22336   2

   1  10   3 29.7256 2.61109   2

   1  10   3 30.9289 2.21228   3

  -2 -10  -3 3.76093 1.55631   2

   2  10   3 3.76006 1.32561   3

  -3 -10  -3 0.54110 1.83531   2

   3  10   3 -1.7702 1.57234   3

   0 -11  -3 3.06716 1.63678   2

   0 -11  -3 1.16291 2.55529   2

   0  11   3 4.98557 1.59123   3

  -1 -11  -3 80.8311 3.66453   2

   1  11   3 77.0944 3.61667   3

  -2 -11  -3 4.02420 1.97880   2

   2  11   3 5.55280 1.70643   3

   1  10  -4 -2.5138 1.34908   3

   1  10  -4 -0.3862 1.49499   1

  -1 -10   4 -0.9302 1.59268   2

   0  10  -4 0.63362 1.34736   3

   0  10  -4 1.75851 1.39224   1

   2   9  -4 1.19150 1.41744   1

   2   9  -4 0.42773 1.97676   3

  -2  -9   4 -1.6027 1.68369   2

   1   9  -4 -2.1506 2.31005   1

   1   9  -4 0.66627 1.19323   1

   1   9  -4 -0.1276 1.63666   2

   1   9  -4 -0.6138 1.06161   3

  -1  -9   4 -1.1081 1.25027   2

   0   9  -4 33.1548 2.09513   1

   0   9  -4 29.5115 1.90783   2

   0   9  -4 25.1948 2.98728   1

   0   9  -4 29.0757 2.07701   3

   0  -9   4 30.5409 1.66066   2

  -1   9  -4 -0.8446 1.36173   3

   3   8  -4 38.6213 2.70375   1

   3   8  -4 39.6736 2.94059   3

  -3  -8   4 32.6588 3.03038   2

   2   8  -4 5.35311 1.42368   3

   2   8  -4 6.08030 2.09794   2

   2   8  -4 4.48887 1.24723   1

  -2  -8   4 6.46240 1.59181   2

   1   8  -4 9.42156 1.12708   1

   1   8  -4 9.97891 1.32863   3

   1   8  -4 7.26719 1.42206   2

   1   8  -4 10.3132 1.82551   1

  -1  -8   4 10.6484 1.30099   2

   0   8  -4 21.3218 2.15172   1

   0   8  -4 19.2934 1.78448   3

   0   8  -4 22.7325 1.55677   2

   0   8  -4 25.1490 1.74130   1

   0  -8   4 23.5314 1.37814   2

  -1   8  -4 21.4987 2.84565   1

  -1   8  -4 24.4751 2.06643   3

  -2   8  -4 106.696 4.35648   3

   2  -8   4 103.244 4.35919   1

   3   7  -4 18.0071 1.99949   3

   3   7  -4 17.0171 1.86362   1

  -3  -7   4 14.2912 2.39729   2

   2   7  -4 10.7026 1.76506   2

   2   7  -4 12.4818 1.40721   3

   2   7  -4 14.3356 1.39214   1

  -2  -7   4 13.5754 1.94770   3

  -2  -7   4 13.4017 1.68519   2

   1   7  -4 10.8884 1.21812   3

   1   7  -4 14.8753 1.40589   2

   1   7  -4 15.6702 1.74286   1

  -1  -7   4 14.2591 1.24983   2

  -1  -7   4 10.9598 1.45130   3

   0   7  -4 10.4526 0.90993   2

   0   7  -4 11.2202 1.20912   1

   0   7  -4 10.7977 1.12532   3

   0   7  -4 9.85702 1.66780   1

   0  -7   4 10.3446 1.37202   3

   0  -7   4 10.5720 0.84290   2

  -1   7  -4 56.2458 2.55147   3

  -1   7  -4 55.5220 3.22428   1

   1  -7   4 54.1460 2.72517   3

  -2   7  -4 -0.7501 1.22618   3

   2  -7   4 -0.2886 1.49581   1

   3   6  -4 7.70586 1.46277   1

   3   6  -4 7.94420 1.50070   3

  -3  -6   4 9.89723 1.87077   2

  -3  -6   4 9.06202 3.40234   3

   2   6  -4 62.7990 2.50598   1

   2   6  -4 58.2177 3.02168   2

   2   6  -4 64.2881 2.66750   3

  -2  -6   4 61.0203 2.76865   1

  -2  -6   4 61.1439 2.93718   3

  -2  -6   4 63.2032 2.89211   2

   1   6  -4 49.4553 2.17207   2

   1   6  -4 45.0341 2.04124   3

   1   6  -4 49.1527 2.37753   1

   1   6  -4 44.2934 1.92085   1

  -1  -6   4 45.2324 2.21638   3

  -1  -6   4 46.4135 2.08784   2

   0   6  -4 11.0331 1.07662   3

   0   6  -4 12.6575 1.40510   1

   0   6  -4 12.0622 0.98311   1

   0   6  -4 9.82254 0.79584   2

   0  -6   4 11.9850 1.27314   3

   0  -6   4 10.9409 0.91408   2

  -1   6  -4 49.2129 2.54411   1

  -1   6  -4 49.5915 2.13168   3

   1  -6   4 38.5307 2.58046   1

   1  -6   4 46.2351 2.31409   3

  -2   6  -4 29.4047 1.92335   3

  -2   6  -4 31.2566 2.46087   1

   2  -6   4 28.3551 2.12174   1

  -3   6  -4 55.0347 3.21044   3

   3  -6   4 57.6865 3.52492   1

   3   5  -4 8.07772 1.38786   3

   3   5  -4 7.19748 1.31835   1

  -3  -5   4 6.69128 1.67626   2

  -3  -5   4 7.51812 1.72698   3

   2   5  -4 0.80405 0.81195   3

   2   5  -4 0.59679 0.83015   1

   2   5  -4 0.41979 1.14255   2

  -2  -5   4 -0.4351 1.07090   3

  -2  -5   4 -0.2169 0.98936   1

  -2  -5   4 0.60883 1.11130   2

   1   5  -4 85.6853 2.97191   3

   1   5  -4 84.0595 2.85662   1

   1   5  -4 80.1740 2.94668   2

  -1  -5   4 85.6745 3.08716   3

  -1  -5   4 85.8651 2.96656   2

   0   5  -4 23.6895 1.12204   2

   0   5  -4 25.0432 1.57553   1

   0   5  -4 23.2888 1.31505   3

   0   5  -4 24.7653 1.19617   1

   0  -5   4 23.9253 1.09659   2

   0  -5   4 25.1504 1.46350   3

  -1   5  -4 10.2404 1.30393   1

  -1   5  -4 8.49867 0.95788   3

   1  -5   4 8.74189 1.13396   3

   1  -5   4 9.77023 1.09453   1

  -2   5  -4 22.5365 1.88000   1

  -2   5  -4 20.4122 1.71070   3

   2  -5   4 22.7807 1.76033   1

  -3   5  -4 7.70289 1.51656   3

   3  -5   4 6.68010 1.65730   1

   4   4  -4 -0.3595 1.80811   3

   4   4  -4 -1.6032 2.01106   1

   3   4  -4 31.0739 1.98174   3

   3   4  -4 29.8777 2.14470   1

  -3  -4   4 28.6475 2.42542   3

  -3  -4   4 32.9942 2.30470   2

   2   4  -4 5.92610 0.83345   3

   2   4  -4 7.32451 0.89092   1

   2   4  -4 7.65067 1.18907   2

  -2  -4   4 7.71721 1.11789   3

  -2  -4   4 7.38876 1.00011   1

  -2  -4   4 7.08525 1.08749   2

   1   4  -4 45.8696 1.79235   3

   1   4  -4 41.5628 2.03168   2

   1   4  -4 43.3679 1.72099   1

  -1  -4   4 46.3600 1.91293   3

  -1  -4   4 43.7338 1.84387   2

   0   4  -4 302.861 8.99082   1

   0   4  -4 301.949 8.72918   2

   0   4  -4 302.744 8.96799   3

   0   4  -4 314.480 8.88770   1

   0  -4   4 306.255 8.99323   3

   0  -4   4 306.833 8.76549   2

  -1   4  -4 36.4737 1.60943   3

  -1   4  -4 36.1995 1.88449   1

   1  -4   4 38.0116 1.66101   1

   1  -4   4 35.1179 1.70343   3

  -2   4  -4 15.3510 1.51349   1

  -2   4  -4 16.7772 1.35059   3

  -3   4  -4 3.79962 1.22475   3

  -3   4  -4 -0.1719 2.02059   3

   3  -4   4 1.77254 0.53467   2

   3  -4   4 5.21650 1.41258   1

   4   3  -4 -0.4242 1.81390   1

   4   3  -4 0.42762 1.72541   3

  -4  -3   4 0.94920 2.08385   2

   3   3  -4 23.2165 1.71689   3

   3   3  -4 26.1512 1.79900   1

  -3  -3   4 22.4738 2.01698   3

  -3  -3   4 23.9392 2.13473   2

  -3  -3   4 21.5496 2.33326   1

   2   3  -4 9.66967 1.17589   2

   2   3  -4 9.59347 0.93854   1

   2   3  -4 10.9444 0.99157   3

  -2  -3   4 10.8773 1.15289   2

  -2  -3   4 13.1287 1.07970   3

  -2  -3   4 11.9237 1.00311   1

   1   3  -4 145.166 4.44806   3

   1   3  -4 147.723 4.54885   2

   1   3  -4 144.017 4.43850   1

  -1  -3   4 141.412 4.44470   1

  -1  -3   4 149.628 4.50118   3

  -1  -3   4 147.101 4.55969   2

   0   3  -4 291.372 8.67785   1

   0   3  -4 282.927 8.56648   1

   0   3  -4 293.436 8.48329   2

   0   3  -4 310.919 8.67401   3

   0  -3   4 305.224 8.68096   3

   0  -3   4 297.657 8.51236   2

  -1   3  -4 12.1779 0.91265   3

  -1   3  -4 13.8794 1.14680   1

   1  -3   4 11.8352 0.95518   1

   1  -3   4 11.5362 1.01923   3

  -2   3  -4 0.59122 1.03191   3

  -2   3  -4 2.17913 0.70394   3

  -2   3  -4 1.82300 1.05003   1

   2  -3   4 1.78141 0.80489   1

  -3   3  -4 0.69579 0.67409   2

  -3   3  -4 1.06396 1.77244   1

  -3   3  -4 0.89360 0.99932   3

  -3   3  -4 0.42206 1.74223   3

   3  -3   4 1.14732 0.75594   2

   3  -3   4 -0.4751 1.17266   1

  -4   3  -4 25.6614 2.25952   3

   4  -3   4 23.8818 2.44415   1

   4   2  -4 3.23784 1.50446   3

   4   2  -4 4.87694 1.86044   1

  -4  -2   4 -2.3497 1.97053   2

   3   2  -4 10.4915 1.07285   3

   3   2  -4 8.98560 1.56606   2

   3   2  -4 10.3107 1.25187   1

  -3  -2   4 9.14584 1.40728   2

  -3  -2   4 7.87804 1.28505   1

  -3  -2   4 7.41977 1.15890   3

   2   2  -4 124.004 4.29752   2

   2   2  -4 133.256 4.18088   1

   2   2  -4 131.666 4.00094   3

  -2  -2   4 128.815 4.04064   3

  -2  -2   4 128.123 4.14044   1

  -2  -2   4 135.738 4.36907   2

   1   2  -4 21.7523 1.02004   3

   1   2  -4 21.9203 1.02114   1

   1   2  -4 21.1600 1.25925   2

  -1  -2   4 22.2884 1.32862   1

  -1  -2   4 23.4582 1.19571   2

  -1  -2   4 22.1509 1.08866   3

   0   2  -4 0.95560 0.41162   3

   0   2  -4 0.45962 0.56508   1

   0   2  -4 0.32440 0.38876   2

   0   2  -4 -0.1412 0.34251   1

   0  -2   4 0.62610 0.49813   3

   0  -2   4 0.38444 0.38255   2

  -1   2  -4 614.485 17.5791   3

  -1   2  -4 604.061 17.5986   1

  -1   2  -4 631.800 17.2836   2

   1  -2   4 620.282 17.5832   1

  -2   2  -4 19.8550 1.65319   1

  -2   2  -4 20.5452 1.27701   3

  -2   2  -4 20.6495 0.88252   2

  -2   2  -4 18.6674 1.60385   3

   2  -2   4 20.1038 1.33502   1

   2  -2   4 20.0661 0.92109   2

  -3   2  -4 0.92575 1.39603   3

  -3   2  -4 0.30589 1.30223   1

  -3   2  -4 -0.4892 0.81062   3

  -3   2  -4 0.56424 0.73534   2

   3  -2   4 -1.3986 1.02964   1

   3  -2   4 0.11385 0.82531   2

  -4   2  -4 1.14189 1.37030   2

  -4   2  -4 2.67430 1.52246   3

   4  -2   4 1.53411 1.70170   1

   4   1  -4 0.99139 1.64218   1

   4   1  -4 -1.1336 1.93706   3

  -4  -1   4 -3.0207 1.99107   2

   3   1  -4 7.83235 1.14412   1

   3   1  -4 3.39258 1.33873   2

   3   1  -4 6.25761 0.89619   3

  -3  -1   4 7.04448 1.32221   1

  -3  -1   4 6.97732 0.98002   3

  -3  -1   4 9.17536 1.41960   2

   2   1  -4 56.3131 2.42675   2

   2   1  -4 58.4140 2.22898   1

   2   1  -4 59.6907 1.98556   3

  -2  -1   4 60.6197 2.23645   1

  -2  -1   4 59.8105 2.03435   3

  -2  -1   4 60.6433 2.40947   2

   1   1  -4 41.4023 1.42086   3

   1   1  -4 42.7413 1.54176   1

   1   1  -4 41.2326 1.67274   2

  -1  -1   4 42.7710 1.56477   1

  -1  -1   4 37.8764 1.65173   2

  -1  -1   4 41.6044 1.46764   3

   0   1  -4 651.809 17.7109   3

   0   1  -4 620.904 17.6987   2

   0   1  -4 604.343 17.6688   1

   0  -1   4 646.578 17.7243   2

   0  -1   4 613.079 17.6928   3

  -1   1  -4 200.149 5.89872   2

  -1   1  -4 210.691 5.87208   2

  -1   1  -4 209.367 6.08021   3

  -1   1  -4 208.357 6.18484   3

  -1   1  -4 198.572 6.08996   1

   1  -1   4 201.816 6.06648   1

  -2   1  -4 20.8981 1.43315   3

  -2   1  -4 22.2416 1.23432   3

  -2   1  -4 21.1527 0.97507   2

  -2   1  -4 21.1840 1.40506   1

   2  -1   4 20.5196 1.05067   2

   2  -1   4 20.6457 1.28017   1

  -3   1  -4 7.12835 1.35166   1

  -3   1  -4 7.01394 1.51282   3

  -3   1  -4 7.48362 0.91839   2

   3  -1   4 8.36725 1.05715   2

   3  -1   4 7.81100 1.23110   1

  -4   1  -4 -0.2921 1.37909   2

  -4   1  -4 1.49390 1.40370   3

   4  -1   4 1.41002 1.74015   2

   4  -1   4 1.01380 1.67655   1

   4   0  -4 0.61973 1.60282   1

  -4   0   4 -0.3936 1.96157   2

   3   0  -4 7.02479 0.81810   3

   3   0  -4 5.18106 1.11903   1

   3   0  -4 6.64834 1.55931   2

  -3   0   4 6.54763 1.29172   1

  -3   0   4 7.49430 1.42817   2

  -3   0   4 7.42539 0.84482   3

   2   0  -4 23.1830 0.94146   3

   2   0  -4 22.9421 1.53048   2

   2   0  -4 21.5911 1.25801   1

  -2   0   4 23.0190 0.97650   3

  -2   0   4 20.2687 1.48720   2

  -2   0   4 20.0980 1.25657   1

   1   0  -4 192.779 5.47132   3

   1   0  -4 184.874 5.63284   1

   1   0  -4 197.699 5.81820   2

  -1   0   4 192.960 5.63491   1

  -1   0   4 190.967 5.48321   3

  -1   0   4 190.220 5.79885   2

   0   0  -4 415.082 11.5015   1

   0   0  -4 421.386 11.5092   3

   0   0  -4 393.659 11.7187   2

   0   0   4 393.773 11.5917   2

  -1   0  -4 9.95444 0.85566   3

  -1   0  -4 8.57773 0.62224   2

   1   0   4 10.2155 0.75475   1

  -2   0  -4 302.634 8.56305   2

  -2   0  -4 284.581 8.72236   1

  -2   0  -4 300.705 8.85255   3

   2   0   4 295.353 8.57994   2

   2   0   4 299.547 8.74188   1

  -3   0  -4 2.08268 0.83671   2

  -3   0  -4 2.40639 1.18513   1

  -3   0  -4 -0.7097 1.17549   3

   3   0   4 0.80265 0.95610   2

   3   0   4 0.39621 0.98292   1

  -4   0  -4 1.73889 1.60451   2

   4   0   4 -1.5426 1.59692   1

   4   0   4 1.52884 1.80488   2

   4  -1  -4 1.16057 1.85227   1

  -4   1   4 -2.2132 2.05799   2

   3  -1  -4 9.86720 1.30337   1

   3  -1  -4 13.0352 1.82560   2

  -3   1   4 10.7042 0.95920   3

  -3   1   4 6.91773 1.31097   1

  -3   1   4 12.1533 1.60856   2

   2  -1  -4 10.9303 0.97759   1

   2  -1  -4 10.0793 1.10101   2

  -2   1   4 9.87411 0.51245   3

  -2   1   4 10.8293 1.16018   2

  -2   1   4 12.1028 1.02663   1

   1  -1  -4 1.14129 0.15645   3

   1  -1  -4 1.13923 0.41901   1

   1  -1  -4 1.26912 0.63541   2

  -1   1   4 1.07607 0.55393   2

  -1   1   4 1.64759 0.43940   1

   0  -1  -4 231.884 6.58190   1

   0  -1  -4 232.692 6.61819   3

   0  -1  -4 229.677 6.75931   2

   0   1   4 226.855 6.75733   2

  -1  -1  -4 411.093 11.7176   1

  -1  -1  -4 411.713 11.7252   2

  -1  -1  -4 406.029 11.8105   3

   1   1   4 399.868 11.8196   3

   1   1   4 418.536 11.7070   1

   1   1   4 423.274 11.7459   2

  -2  -1  -4 1.25863 0.72143   3

  -2  -1  -4 0.85976 0.65144   1

  -2  -1  -4 0.97657 0.47963   2

   2   1   4 1.04926 0.61349   3

   2   1   4 0.93295 0.61023   2

   2   1   4 0.10593 0.55875   1

  -3  -1  -4 41.2269 1.96654   2

  -3  -1  -4 42.6013 2.31142   1

  -3  -1  -4 41.7938 2.30687   3

   3   1   4 40.4286 2.14806   1

   3   1   4 40.4205 2.25545   3

   3   1   4 41.3239 2.11559   2

  -4  -1  -4 2.36602 1.43148   2

   4   1   4 0.82752 1.58108   1

   4   1   4 1.99958 1.87035   2

   4  -2  -4 1.93090 2.04190   1

  -4   2   4 0.78910 2.32490   2

   3  -2  -4 18.0148 2.04080   2

   3  -2  -4 18.6351 1.71475   1

  -3   2   4 13.6040 1.69552   2

  -3   2   4 11.9286 1.57511   1

   2  -2  -4 3.37505 0.75078   1

   2  -2  -4 4.80286 1.01250   2

  -2   2   4 3.77221 0.86686   1

  -2   2   4 3.70627 0.92492   2

   1  -2  -4 2.48348 0.72565   2

   1  -2  -4 3.67108 0.53900   1

  -1   2   4 3.19816 0.65104   2

  -1   2   4 3.93624 0.51979   1

   0  -2  -4 17.6316 0.76345   3

   0  -2  -4 16.7814 1.05157   2

   0  -2  -4 17.2263 0.69538   1

   0   2   4 19.2607 0.79777   3

   0   2   4 16.6269 0.73061   1

  -1  -2  -4 987.625 27.3752   2

  -1  -2  -4 961.357 27.2449   1

  -1  -2  -4 957.460 27.3694   3

   1   2   4 948.303 27.2300   1

   1   2   4 984.289 27.3823   2

   1   2   4 1000.07 27.4202   3

  -2  -2  -4 -0.0258 0.67919   3

  -2  -2  -4 0.87727 0.63462   1

  -2  -2  -4 -0.4845 0.51296   2

   2   2   4 -0.7167 0.48875   1

   2   2   4 0.81167 0.66395   2

   2   2   4 -0.5860 0.57858   3

  -3  -2  -4 27.2728 1.70298   2

  -3  -2  -4 24.3167 1.76713   3

  -3  -2  -4 19.4116 1.55089   1

   3   2   4 23.2897 1.90383   2

   3   2   4 24.8711 1.77625   1

   3   2   4 25.8227 1.83416   3

  -4  -2  -4 12.4807 1.75789   2

   4   2   4 12.6103 1.89540   3

   4   2   4 11.4643 1.77852   1

   4   2   4 9.28169 2.00513   2

   3  -3  -4 1.67003 1.81079   2

   3  -3  -4 0.44596 1.22330   1

  -3   3   4 0.86755 1.33436   2

   2  -3  -4 37.2557 1.86148   1

   2  -3  -4 40.1947 2.22995   2

  -2   3   4 38.3576 1.79103   1

  -2   3   4 36.7743 1.95921   2

   1  -3  -4 2.30310 0.49602   1

   1  -3  -4 4.11141 0.76724   2

  -1   3   4 3.15809 0.51311   1

  -1   3   4 3.59097 0.67980   2

   0  -3  -4 123.282 3.61495   1

   0  -3  -4 121.125 3.95195   2

   0  -3  -4 124.839 3.66736   3

   0  -3  -4 128.233 3.92604   2

   0   3   4 126.237 3.70421   3

   0   3   4 125.290 3.60900   1

  -1  -3  -4 389.547 11.3126   2

  -1  -3  -4 394.615 11.2787   3

  -1  -3  -4 388.369 11.0719   1

   1   3   4 397.574 11.3347   2

   1   3   4 389.819 11.0595   1

   1   3   4 398.527 11.3162   3

  -2  -3  -4 77.2407 2.67910   2

  -2  -3  -4 80.6498 2.80686   3

  -2  -3  -4 75.8176 2.56632   1

   2   3   4 79.1903 2.56731   1

   2   3   4 78.7350 2.75177   2

   2   3   4 74.2169 2.74876   3

  -3  -3  -4 22.3980 1.77269   1

  -3  -3  -4 27.4851 1.64421   2

  -3  -3  -4 25.0318 1.83736   3

   3   3   4 22.5944 1.96855   2

   3   3   4 22.8993 1.68308   1

   3   3   4 24.2014 2.47972   3

  -4  -3  -4 28.0947 2.53626   2

  -4  -3  -4 26.2479 2.45241   1

   4   3   4 32.5428 2.55265   3

   4   3   4 29.5091 2.26171   1

   3  -4  -4 7.31233 1.61952   1

   3  -4  -4 5.27193 2.07003   2

  -3   4   4 7.25592 1.65054   2

   2  -4  -4 18.7759 1.65442   2

   2  -4  -4 18.4392 1.56236   1

  -2   4   4 19.7201 1.56615   1

  -2   4   4 17.6961 1.50825   2

   1  -4  -4 0.87767 0.74953   2

   1  -4  -4 1.22945 0.26416   3

   1  -4  -4 0.89822 0.50484   1

  -1   4   4 1.13977 0.52846   1

  -1   4   4 0.49491 0.43889   3

  -1   4   4 1.53842 0.65432   2

   0  -4  -4 2.80006 0.61336   2

   0  -4  -4 2.80368 0.42394   3

   0  -4  -4 3.31082 0.33353   1

   0  -4  -4 3.74582 0.73465   2

   0   4   4 2.65833 0.29403   1

   0   4   4 2.66435 0.41233   3

  -1  -4  -4 17.6991 1.02643   2

  -1  -4  -4 17.3632 0.59532   1

  -1  -4  -4 16.2833 1.02957   3

   1   4   4 16.4779 1.01821   3

  -2  -4  -4 526.191 14.8790   1

  -2  -4  -4 538.658 15.1734   3

  -2  -4  -4 518.288 15.1457   2

   2   4   4 518.887 15.1740   2

   2   4   4 523.746 15.2068   3

   2   4   4 531.242 14.9220   1

  -3  -4  -4 3.58146 1.03817   3

  -3  -4  -4 3.41959 1.06688   1

   3   4   4 3.66633 1.08708   3

   3   4   4 3.77883 1.32639   2

   3   4   4 3.52163 0.97221   1

  -4  -4  -4 3.24796 1.58246   2

  -4  -4  -4 -0.4430 1.89448   1

   4   4   4 1.22169 1.59677   3

   4   4   4 -1.4564 1.50753   1

   3  -5  -4 37.8505 2.93979   1

  -3   5   4 34.1160 2.94211   2

   2  -5  -4 1.86380 1.01643   1

   2  -5  -4 0.24165 1.25229   2

  -2   5   4 0.65218 1.06888   1

  -2   5   4 2.28238 1.15367   2

   1  -5  -4 21.9988 0.95615   3

   1  -5  -4 20.0594 1.55767   2

   1  -5  -4 20.6850 1.21622   1

  -1   5   4 22.3648 1.18811   1

  -1   5   4 21.8124 0.89675   3

   0  -5  -4 4.29986 0.37185   1

   0  -5  -4 3.41792 0.63958   2

   0  -5  -4 5.08527 0.59216   3

   0  -5  -4 5.54952 0.85802   2

   0   5   4 4.60433 0.32459   1

   0   5   4 3.30859 0.47049   3

  -1  -5  -4 81.0009 3.54543   3

  -1  -5  -4 96.7644 3.19208   2

   1   5   4 99.2314 3.28725   2

   1   5   4 100.965 3.15391   3

  -2  -5  -4 131.776 4.40170   3

  -2  -5  -4 139.627 4.44921   2

  -2  -5  -4 140.330 4.04933   1

   2   5   4 142.965 4.47887   3

   2   5   4 131.164 4.48394   2

   2   5   4 136.759 4.09973   1

  -3  -5  -4 21.2932 1.68391   2

  -3  -5  -4 23.6165 1.76667   3

  -3  -5  -4 20.5405 1.66042   1

   3   5   4 18.3595 1.73284   2

   3   5   4 21.5352 1.69641   3

   3   5   4 21.0517 1.59797   1

  -4  -5  -4 12.7449 1.99495   2

  -4  -5  -4 10.3599 2.01829   1

   4   5   4 11.6869 1.79258   1

   4   5   4 14.6346 2.08814   3

   3  -6  -4 73.9357 3.97046   1

  -3   6   4 77.0592 4.02143   2

   2  -6  -4 1.27619 1.50219   2

   2  -6  -4 -0.0743 1.12847   1

  -2   6   4 -0.5505 1.18954   1

  -2   6   4 0.99153 0.65627   3

  -2   6   4 0.39475 0.41390   3

   1  -6  -4 0.72517 0.81873   2

   1  -6  -4 0.51883 0.56338   3

   1  -6  -4 1.84990 0.70146   1

   1  -6  -4 1.88838 1.04298   2

  -1   6   4 0.82922 0.68963   1

  -1   6   4 1.11093 0.46170   3

   0  -6  -4 20.9565 1.20034   3

   0  -6  -4 21.0308 1.26141   2

   0  -6  -4 20.1009 0.81170   1

   0  -6  -4 20.8784 1.65473   2

   0   6   4 19.4952 0.74778   1

   0   6   4 19.4337 1.08531   3

  -1  -6  -4 -0.1155 0.60355   2

  -1  -6  -4 0.24490 0.64942   3

   1   6   4 -0.0982 0.53769   3

   1   6   4 -0.6053 0.73934   2

  -2  -6  -4 6.44130 0.98866   3

  -2  -6  -4 6.80136 0.51597   1

  -2  -6  -4 6.23816 0.93302   2

   2   6   4 6.13058 1.14518   2

   2   6   4 5.00813 0.89105   3

   2   6   4 5.98896 0.55529   1

  -3  -6  -4 152.514 4.62165   1

  -3  -6  -4 148.811 5.05911   2

  -3  -6  -4 140.148 5.07534   3

   3   6   4 150.439 4.68971   1

   3   6   4 138.534 5.08016   2

   3   6   4 145.673 5.01890   3

  -4  -6  -4 22.2207 2.35316   2

  -4  -6  -4 19.4990 2.21004   1

   4   6   4 19.6089 1.99000   1

   4   6   4 30.2069 2.67039   3

   2  -7  -4 7.33334 1.91214   2

   2  -7  -4 6.46918 2.47347   1

  -2   7   4 7.15979 0.74630   3

  -2   7   4 8.25796 1.09244   3

  -2   7   4 6.58452 1.55676   1

   1  -7  -4 44.5127 1.96645   1

   1  -7  -4 43.9974 2.20222   2

   1  -7  -4 42.8478 1.88163   3

   1  -7  -4 44.8718 2.68081   2

  -1   7   4 45.5076 1.73531   3

  -1   7   4 41.7493 1.89422   1

   0  -7  -4 2.58447 0.39731   1

   0  -7  -4 2.91161 1.16401   2

   0  -7  -4 2.31108 0.80989   3

   0  -7  -4 1.43410 0.79345   2

   0   7   4 2.25993 0.65272   3

   0   7   4 1.47306 0.33387   1

  -1  -7  -4 13.1731 1.20809   2

  -1  -7  -4 12.6483 1.14776   3

   1   7   4 13.0788 1.18385   3

   1   7   4 14.1288 1.39482   2

  -2  -7  -4 17.8197 1.62384   3

  -2  -7  -4 20.5126 1.53029   2

   2   7   4 18.1396 1.49021   3

   2   7   4 18.6606 1.60421   2

  -3  -7  -4 15.8167 1.22645   1

  -3  -7  -4 12.9025 1.53140   2

   3   7   4 15.9924 1.25619   1

   3   7   4 17.9702 1.69941   3

  -4  -7  -4 20.1687 2.50519   2

   4   7   4 22.1859 2.53013   3

   4   7   4 13.2781 1.90734   1

   2  -8  -4 26.7978 2.12779   1

   2  -8  -4 21.3558 2.58613   2

   2  -8  -4 24.5948 2.05999   2

  -2   8   4 21.5714 2.07363   1

  -2   8   4 26.9115 1.55523   3

   1  -8  -4 29.2780 2.71012   2

   1  -8  -4 28.0378 1.86927   3

   1  -8  -4 28.3774 1.76442   1

   1  -8  -4 22.9149 2.66258   2

  -1   8   4 29.6185 1.56321   3

   0  -8  -4 32.0498 2.41264   2

   0  -8  -4 29.6130 1.91166   3

   0  -8  -4 30.3408 1.91115   2

   0   8   4 30.0020 1.09132   1

   0   8   4 33.4068 1.68777   3

  -1  -8  -4 50.8041 2.49209   3

   1   8   4 53.6867 2.29473   3

   1   8   4 47.5441 2.53490   2

  -2  -8  -4 0.99216 1.02311   2

  -2  -8  -4 0.26780 1.22673   3

   2   8   4 2.01491 1.02516   3

   2   8   4 1.23920 1.25673   2

  -3  -8  -4 0.24475 1.32699   2

  -3  -8  -4 0.34859 0.91456   1

   3   8   4 0.10320 1.16100   3

   3   8   4 0.38095 0.90536   1

   2  -9  -4 20.7695 2.20966   1

   2  -9  -4 28.2742 2.33842   2

   1  -9  -4 0.26620 1.19409   2

   1  -9  -4 -0.9477 1.93011   2

   1  -9  -4 1.36518 1.07439   1

   1  -9  -4 -0.1842 1.34828   3

  -1   9   4 -0.2265 0.94282   3

  -1   9   4 -0.0655 1.11934   1

   0  -9  -4 99.7787 3.75523   3

   0  -9  -4 98.9005 3.74713   2

   0  -9  -4 94.8608 4.10775   2

   0   9   4 97.9196 2.91438   1

   0   9   4 103.997 3.57896   3

  -1  -9  -4 14.5167 1.73456   3

  -1  -9  -4 15.1998 1.56143   2

   1   9   4 14.5880 1.89723   2

   1   9   4 13.1624 1.44695   3

  -2  -9  -4 7.32229 1.40319   2

   2   9   4 8.37567 1.34033   3

  -3  -9  -4 5.79794 1.70716   2

   3   9   4 7.77483 1.66371   3

   1 -10  -4 2.49364 1.55748   2

   1 -10  -4 2.51586 1.27067   1

   1 -10  -4 1.59593 2.58493   2

   1 -10  -4 1.87838 1.83585   3

  -1  10   4 2.75732 1.31259   3

   0 -10  -4 46.2163 2.72041   2

   0 -10  -4 41.1826 3.75175   2

   0 -10  -4 48.6630 3.13543   3

   0  10   4 48.5193 2.54562   3

  -1 -10  -4 20.1375 2.32335   3

  -1 -10  -4 28.7302 2.12665   2

   1  10   4 23.1612 2.11399   3

  -2 -10  -4 25.1812 2.27958   2

   2  10   4 19.0582 1.84051   3

  -3 -10  -4 0.60794 2.01484   2

   3  10   4 1.42753 1.80808   3

   0 -11  -4 0.61955 1.57400   2

   0  11   4 0.94287 1.50929   3

  -1 -11  -4 65.5133 3.45949   2

   1  11   4 64.5178 3.32339   3

  -2 -11  -4 0.49572 1.95509   2

   2  11   4 2.75389 1.78460   3

   2   9  -5 0.77351 1.70356   1

   2   9  -5 1.49939 1.69596   3

  -2  -9   5 2.01052 2.01948   2

   1   9  -5 3.59011 1.82259   2

   1   9  -5 1.09240 1.31713   1

   1   9  -5 2.74556 1.36936   3

  -1  -9   5 2.08143 1.49523   2

   0   9  -5 12.7174 1.59347   3

   0   9  -5 13.0569 1.63901   1

  -1   9  -5 4.58219 1.67259   3

   2   8  -5 2.81898 1.57406   3

   2   8  -5 0.50332 1.43566   1

  -2  -8   5 1.50975 1.73915   2

   1   8  -5 -1.6958 1.12261   3

   1   8  -5 -1.8743 1.09210   1

   1   8  -5 0.22028 1.48240   2

  -1  -8   5 1.18109 1.20650   2

   0   8  -5 2.10600 1.06662   1

   0   8  -5 -0.0327 0.97265   3

   0   8  -5 0.95840 0.94782   2

   0  -8   5 0.49150 0.77190   2

  -1   8  -5 3.05538 1.25823   3

  -2   8  -5 16.9140 2.10137   3

   2  -8   5 20.0460 2.38725   1

   3   7  -5 20.1151 2.19947   3

   3   7  -5 17.0168 2.09471   1

  -3  -7   5 18.3857 2.63232   2

   2   7  -5 2.08222 1.24504   3

   2   7  -5 1.79120 1.20213   1

   2   7  -5 0.80209 1.84061   2

  -2  -7   5 1.76608 1.43767   2

   1   7  -5 0.73913 1.64270   1

   1   7  -5 0.02299 0.94732   3

   1   7  -5 0.69323 1.25338   2

   1   7  -5 -1.8673 0.85091   1

  -1  -7   5 0.01061 1.01996   2

  -1  -7   5 -0.4957 1.41944   3

   0   7  -5 1.46848 1.69909   1

   0   7  -5 2.19905 0.93006   1

   0   7  -5 0.33046 0.91598   3

   0   7  -5 1.42608 0.78535   2

   0  -7   5 2.67522 1.35837   3

   0  -7   5 2.53192 0.70305   2

  -1   7  -5 4.11518 1.86636   1

  -1   7  -5 1.36643 1.07955   3

  -2   7  -5 7.73871 1.56169   3

   2  -7   5 7.10973 1.73386   1

   3   6  -5 4.10972 1.57270   1

   3   6  -5 1.74031 1.48751   3

  -3  -6   5 1.27506 1.84770   2

   2   6  -5 22.7088 1.71830   3

   2   6  -5 15.8628 1.93028   2

   2   6  -5 21.1792 1.76315   1

  -2  -6   5 18.4319 1.80564   2

  -2  -6   5 17.9715 1.98087   3

   1   6  -5 15.4883 1.67653   1

   1   6  -5 14.6824 1.17381   1

   1   6  -5 13.4369 1.30204   3

   1   6  -5 12.8895 1.32879   2

  -1  -6   5 12.7241 1.24113   2

  -1  -6   5 10.4147 1.41562   3

   0   6  -5 11.5389 0.90312   2

   0   6  -5 10.9440 1.48849   1

   0   6  -5 10.7717 1.13570   3

   0  -6   5 13.4370 1.41631   3

   0  -6   5 12.2995 1.04449   2

  -1   6  -5 6.90521 1.60930   1

  -1   6  -5 5.57500 1.05911   3

   1  -6   5 3.37044 1.21677   3

  -2   6  -5 0.91119 1.16870   3

   2  -6   5 -1.5047 1.30059   1

  -3   6  -5 1.22650 1.78538   3

   3  -6   5 -1.2860 1.98235   1

   3   5  -5 5.85152 1.48169   3

   3   5  -5 2.83419 1.33158   1

  -3  -5   5 2.32812 1.83932   3

  -3  -5   5 2.31736 1.67362   2

   2   5  -5 68.2354 2.74813   1

   2   5  -5 72.6883 2.76523   3

   2   5  -5 68.5002 3.21572   2

  -2  -5   5 69.8215 2.98567   2

  -2  -5   5 65.0663 3.04398   3

  -2  -5   5 61.7691 2.79661   1

   1   5  -5 1.41321 0.70884   1

   1   5  -5 1.87706 0.94734   2

   1   5  -5 1.31830 0.80290   3

  -1  -5   5 0.60416 0.82752   2

  -1  -5   5 1.34305 0.99381   3

   0   5  -5 8.02537 0.94297   3

   0   5  -5 8.58546 0.75141   2

   0   5  -5 7.41537 0.80658   1

   0   5  -5 8.58893 1.30170   1

   0  -5   5 7.24016 1.02085   3

   0  -5   5 10.3896 0.90797   2

  -1   5  -5 21.0151 1.62734   1

  -1   5  -5 17.4309 2.15924   3

   1  -5   5 19.4176 1.72234   3

   1  -5   5 19.2028 1.58754   1

  -2   5  -5 0.13676 1.47084   1

  -2   5  -5 -0.2483 0.99487   3

   2  -5   5 0.28581 1.15600   1

  -3   5  -5 30.7644 2.63874   3

   3  -5   5 34.9991 2.60304   1

   3   4  -5 19.0048 1.58423   3

   3   4  -5 18.3808 1.71143   1

  -3  -4   5 21.2165 1.96614   3

  -3  -4   5 21.3495 2.09716   2

   2   4  -5 3.33931 0.87035   1

   2   4  -5 3.20018 0.85268   3

   2   4  -5 1.64528 1.24427   2

  -2  -4   5 3.06058 1.31161   2

  -2  -4   5 2.42561 1.64273   1

  -2  -4   5 2.32536 1.06999   3

   1   4  -5 43.3954 1.99667   2

   1   4  -5 45.3455 1.80083   1

   1   4  -5 40.8017 1.82425   3

  -1  -4   5 44.5287 1.96429   2

  -1  -4   5 39.2466 1.89432   3

   0   4  -5 20.5660 1.25527   3

   0   4  -5 23.4566 1.16283   2

   0   4  -5 23.8307 1.16482   1

   0   4  -5 21.7268 1.48051   1

   0  -4   5 21.7355 1.12809   2

   0  -4   5 21.8970 1.36767   3

  -1   4  -5 27.2823 1.44448   3

  -1   4  -5 23.8585 1.83794   1

   1  -4   5 25.1890 1.51532   1

   1  -4   5 24.6224 1.56083   3

  -2   4  -5 6.83544 1.47361   1

  -2   4  -5 7.11306 1.10467   3

   2  -4   5 9.92359 1.27156   1

  -3   4  -5 1.82126 1.24893   3

   3  -4   5 1.08226 1.46316   1

   3   3  -5 25.2108 1.82148   3

   3   3  -5 25.1626 1.91359   1

  -3  -3   5 28.3120 2.31474   2

  -3  -3   5 24.4930 2.23529   3

   2   3  -5 30.7605 2.04304   2

   2   3  -5 33.4125 1.59068   3

   2   3  -5 34.0796 1.73200   1

  -2  -3   5 29.5151 1.80098   3

  -2  -3   5 34.7729 2.10609   2

  -2  -3   5 29.9478 1.73438   1

   1   3  -5 92.0451 3.13148   2

   1   3  -5 91.1021 2.97075   1

   1   3  -5 92.4838 2.98617   3

  -1  -3   5 88.4508 3.06512   3

  -1  -3   5 87.2788 3.08280   2

  -1  -3   5 89.8740 3.01975   1

   0   3  -5 7.66998 0.76477   3

   0   3  -5 8.23166 0.94545   1

   0   3  -5 6.82455 0.67691   2

   0   3  -5 7.85944 0.68419   1

   0  -3   5 5.35223 0.78402   3

   0  -3   5 7.62555 0.68044   2

  -1   3  -5 0.56477 0.53796   3

  -1   3  -5 -0.9998 0.86482   1

  -1   3  -5 -0.1716 0.25972   2

  -1   3  -5 -0.0965 0.25193   2

   1  -3   5 0.57094 0.62027   1

  -2   3  -5 9.20118 1.06972   3

  -2   3  -5 7.84341 1.35985   1

  -2   3  -5 8.29457 1.39839   3

   2  -3   5 8.76457 1.27722   1

  -3   3  -5 1.21661 0.60754   2

  -3   3  -5 0.11120 1.95909   3

  -3   3  -5 0.55681 1.09427   3

   3  -3   5 0.69504 0.68123   2

   3  -3   5 0.43010 1.24438   1

  -4   3  -5 16.6814 2.09446   3

   4  -3   5 21.5097 2.92512   1

   3   2  -5 19.3711 1.63056   1

   3   2  -5 22.9140 1.57229   3

  -3  -2   5 21.2167 1.89908   3

  -3  -2   5 19.8256 1.88642   2

   2   2  -5 150.720 5.18845   2

   2   2  -5 138.844 4.66584   1

   2   2  -5 147.768 4.49633   3

  -2  -2   5 146.608 4.56103   3

  -2  -2   5 153.517 4.94850   2

  -2  -2   5 146.566 4.73171   1

   1   2  -5 5.25636 0.57743   3

   1   2  -5 4.73192 0.59756   1

   1   2  -5 3.29638 0.80238   2

  -1  -2   5 3.75159 0.63934   3

  -1  -2   5 4.10687 0.73822   2

  -1  -2   5 4.56712 0.75587   1

   0   2  -5 5.16750 0.80833   1

   0   2  -5 4.87494 0.61040   3

   0   2  -5 4.46712 0.54253   1

   0   2  -5 4.31664 0.59415   2

   0  -2   5 4.43582 0.68914   3

   0  -2   5 4.71390 0.59078   2

  -1   2  -5 0.77685 0.80024   1

  -1   2  -5 0.25674 0.28880   2

  -1   2  -5 -0.1737 0.47131   3

  -1   2  -5 0.21704 0.37535   2

   1  -2   5 0.33684 0.54848   1

  -2   2  -5 5.59936 0.48311   2

  -2   2  -5 5.03780 1.18462   3

  -2   2  -5 5.73754 0.87383   3

  -2   2  -5 6.06057 1.14908   1

   2  -2   5 3.36261 0.85789   1

  -3   2  -5 0.75365 0.94954   3

  -3   2  -5 0.31401 0.70360   2

  -3   2  -5 0.58634 1.64569   1

  -3   2  -5 0.52241 1.57295   3

   3  -2   5 -1.1635 1.19272   1

   3  -2   5 -0.0545 0.80059   2

  -4   2  -5 10.1726 1.53107   2

  -4   2  -5 9.47454 1.74195   3

   4  -2   5 14.9511 2.32551   1

   3   1  -5 9.54908 1.32703   1

   3   1  -5 8.89157 0.95734   3

  -3  -1   5 9.68554 1.06681   3

  -3  -1   5 9.26476 1.57156   2

   2   1  -5 5.69427 1.17055   2

   2   1  -5 5.46458 0.60628   3

   2   1  -5 5.46880 0.82666   1

  -2  -1   5 5.16067 0.92200   1

  -2  -1   5 5.16463 1.02853   2

  -2  -1   5 7.33865 0.73943   3

   1   1  -5 262.941 7.47595   3

   1   1  -5 267.165 7.60152   1

   1   1  -5 251.749 7.71221   2

  -1  -1   5 254.415 7.49309   3

  -1  -1   5 267.197 7.77687   2

  -1  -1   5 252.790 7.58117   1

   0   1  -5 47.0766 1.71373   1

   0   1  -5 45.3032 1.59807   3

   0   1  -5 41.0675 1.53990   1

   0   1  -5 40.3776 1.64802   2

   0  -1   5 43.8877 1.65499   2

   0  -1   5 41.7723 1.61759   3

  -1   1  -5 96.8221 3.07449   3

  -1   1  -5 92.4208 2.91853   2

  -1   1  -5 87.4667 3.13102   1

  -1   1  -5 96.2809 2.86631   2

   1  -1   5 95.0256 3.07587   1

  -2   1  -5 10.7559 0.99037   3

  -2   1  -5 12.9392 0.82959   2

  -2   1  -5 14.0727 1.37779   3

  -2   1  -5 15.0967 1.28105   1

   2  -1   5 13.2594 1.10851   1

   2  -1   5 13.2639 0.97827   2

  -3   1  -5 -0.3402 1.40941   3

  -3   1  -5 0.37802 0.89967   3

  -3   1  -5 -0.1459 0.73495   2

  -3   1  -5 0.17715 1.38084   1

   3  -1   5 -0.4186 0.90786   2

   3  -1   5 0.40074 1.14275   1

  -4   1  -5 12.3196 1.76361   3

  -4   1  -5 8.59533 1.55607   2

   4  -1   5 8.67285 2.08282   2

   4  -1   5 9.78868 1.94260   1

   3   0  -5 30.9736 1.43132   3

   3   0  -5 31.5257 2.04879   1

  -3   0   5 33.9833 2.33998   2

  -3   0   5 31.3473 1.47136   3

   2   0  -5 -0.0913 0.65070   1

   2   0  -5 0.34546 0.37268   3

   2   0  -5 0.86250 0.95292   2

  -2   0   5 0.80885 0.73321   1

  -2   0   5 -0.6896 0.73008   2

  -2   0   5 0.24154 0.43404   3

   1   0  -5 692.615 19.5907   1

   1   0  -5 675.038 19.7380   2

   1   0  -5 709.151 19.4176   3

  -1   0   5 672.991 19.4186   3

  -1   0   5 702.106 19.8010   2

  -1   0   5 701.628 19.5819   1

   0   0  -5 15.7134 0.83137   3

   0   0  -5 16.5172 1.08080   2

   0   0  -5 15.9173 0.80609   1

   0   0   5 15.3926 1.01062   2

  -1   0  -5 13.2835 1.09222   1

  -1   0  -5 13.2804 0.79835   2

  -1   0  -5 11.8952 0.90265   3

  -1   0  -5 14.3943 1.07797   3

  -1   0  -5 13.6273 0.92427   2

   1   0   5 13.6871 0.94369   1

  -2   0  -5 17.1493 0.96830   2

  -2   0  -5 14.4013 1.20525   1

  -2   0  -5 16.1309 1.42544   3

   2   0   5 15.2074 1.04825   2

   2   0   5 14.9682 1.14816   1

  -3   0  -5 0.02977 0.81766   2

  -3   0  -5 2.06201 1.35892   1

  -3   0  -5 1.89181 1.26469   3

   3   0   5 -0.6498 0.97649   2

   3   0   5 -0.2663 0.97120   1

  -4   0  -5 5.66154 1.82084   2

   4   0   5 3.63129 1.76833   1

   4   0   5 1.76815 1.90375   2

   3  -1  -5 -0.3242 1.12808   1

  -3   1   5 0.81141 1.36928   2

   2  -1  -5 46.9513 2.31586   2

   2  -1  -5 48.7599 2.04641   1

  -2   1   5 45.6005 2.09733   1

  -2   1   5 54.1997 2.33850   2

   1  -1  -5 0.52634 0.74553   2

   1  -1  -5 0.80157 0.42781   1

   1  -1  -5 0.70966 0.29391   3

  -1   1   5 0.41234 0.58293   2

  -1   1   5 0.40062 0.57391   1

   0  -1  -5 668.622 19.4720   2

   0  -1  -5 696.624 19.2856   1

   0  -1  -5 686.276 19.2805   3

   0  -1  -5 686.998 19.3213   3

   0   1   5 689.461 19.4859   2

  -1  -1  -5 42.5506 1.58284   2

  -1  -1  -5 40.7457 1.63411   1

  -1  -1  -5 39.8363 1.90794   3

   1   1   5 44.5459 1.57067   1

  -2  -1  -5 104.363 3.61241   3

  -2  -1  -5 102.914 3.51488   1

  -2  -1  -5 102.659 3.29878   2

   2   1   5 101.281 3.53313   3

   2   1   5 105.265 3.37038   2

   2   1   5 103.635 3.41536   1

  -3  -1  -5 8.60135 1.32976   3

  -3  -1  -5 7.70368 1.33652   1

  -3  -1  -5 9.29390 1.09067   2

   3   1   5 8.32164 1.28340   1

   3   1   5 8.49268 1.27164   2

   3   1   5 7.27113 1.23221   3

  -4  -1  -5 -0.3661 1.46642   2

   4   1   5 -0.4957 1.67433   1

   4   1   5 1.08161 1.91878   2

   3  -2  -5 1.85589 1.31520   1

  -3   2   5 3.41927 1.56405   2

   2  -2  -5 79.4541 2.92375   1

   2  -2  -5 78.9943 3.20041   2

  -2   2   5 82.4645 2.96117   1

  -2   2   5 85.7902 3.21044   2

   1  -2  -5 39.4292 1.88023   2

   1  -2  -5 40.9116 1.55955   1

  -1   2   5 42.0598 1.58648   1

  -1   2   5 41.7905 1.85891   2

   0  -2  -5 954.574 26.0936   1

   0  -2  -5 899.670 26.3397   2

   0  -2  -5 940.320 26.1108   3

  -1  -2  -5 0.01518 0.46886   1

  -1  -2  -5 0.38127 0.57288   3

  -1  -2  -5 0.26763 0.45325   2

   1   2   5 0.19080 0.48122   3

  -2  -2  -5 0.40814 0.73494   3

  -2  -2  -5 -0.5209 0.67026   1

  -2  -2  -5 -0.0255 0.53258   2

   2   2   5 0.18752 0.56404   1

   2   2   5 -0.5213 0.63119   3

   2   2   5 -0.6139 0.73012   2

  -3  -2  -5 3.83101 1.22340   1

  -3  -2  -5 3.15028 1.08687   3

  -3  -2  -5 3.89691 0.94869   2

   3   2   5 1.75206 1.00496   1

   3   2   5 3.36277 1.20627   2

   3   2   5 3.48568 1.14254   3

  -4  -2  -5 0.59821 1.47150   2

   4   2   5 -0.8289 2.03798   2

   4   2   5 2.15601 1.65384   3

   4   2   5 2.96537 1.73277   1

   3  -3  -5 38.9982 2.67482   1

  -3   3   5 42.1970 2.96642   2

   2  -3  -5 0.64946 1.15171   2

   2  -3  -5 0.02082 0.86322   1

  -2   3   5 2.66911 0.99003   1

  -2   3   5 0.32875 1.62427   2

   1  -3  -5 85.7867 2.72782   1

   1  -3  -5 79.1702 2.99690   2

  -1   3   5 82.0547 2.69203   1

  -1   3   5 85.2256 3.01349   2

   0  -3  -5 34.3962 1.28306   3

   0  -3  -5 36.4353 1.23145   1

   0   3   5 36.0468 1.33205   3

   0   3   5 35.5017 1.24355   1

  -1  -3  -5 302.747 8.89275   2

  -1  -3  -5 306.196 8.66518   1

  -1  -3  -5 302.680 8.84470   3

   1   3   5 304.670 8.95590   2

   1   3   5 302.738 8.88211   3

  -2  -3  -5 105.063 3.73909   3

  -2  -3  -5 114.424 3.68794   2

  -2  -3  -5 115.570 3.57234   1

   2   3   5 112.403 3.79804   3

   2   3   5 117.890 3.57022   1

   2   3   5 111.214 3.73824   2

  -3  -3  -5 24.7417 1.99621   3

  -3  -3  -5 22.2074 1.86098   1

  -3  -3  -5 22.8155 1.74152   2

   3   3   5 23.7299 1.83351   2

   3   3   5 18.3887 1.48753   1

   3   3   5 21.1346 1.69600   3

  -4  -3  -5 1.40046 1.62204   2

  -4  -3  -5 -0.5756 2.27655   1

   4   3   5 -0.3708 1.64238   1

   4   3   5 -5.1291 1.38544   3

   3  -4  -5 13.4950 1.94503   1

  -3   4   5 11.8818 2.04772   2

   2  -4  -5 83.5818 3.21712   1

   2  -4  -5 83.8636 3.51007   2

  -2   4   5 90.8419 3.44257   2

  -2   4   5 84.1887 3.19274   1

   1  -4  -5 168.401 5.37541   2

   1  -4  -5 162.953 5.01865   1

  -1   4   5 165.063 4.97112   1

  -1   4   5 168.412 5.33501   2

   0  -4  -5 60.9841 2.25541   2

   0  -4  -5 58.3488 1.87411   1

   0  -4  -5 58.5039 2.36930   2

   0  -4  -5 61.8991 1.97869   3

   0   4   5 60.1900 1.86567   1

   0   4   5 60.4079 2.00588   3

  -1  -4  -5 187.715 5.20670   1

  -1  -4  -5 186.624 5.54301   3

  -1  -4  -5 182.409 5.24934   1

  -1  -4  -5 183.189 5.62086   2

   1   4   5 183.363 5.65695   2

   1   4   5 178.634 5.56912   3

  -2  -4  -5 32.7359 1.63581   2

  -2  -4  -5 29.1732 1.36904   1

  -2  -4  -5 30.7655 1.58634   3

   2   4   5 29.1741 1.31374   1

   2   4   5 30.4897 1.67612   2

   2   4   5 30.6331 1.67388   3

  -3  -4  -5 7.53297 1.17907   2

  -3  -4  -5 7.79234 1.29527   3

  -3  -4  -5 8.12462 1.21086   1

   3   4   5 6.56356 1.21513   3

   3   4   5 7.49839 1.06984   1

   3   4   5 9.06283 1.41558   2

  -4  -4  -5 1.34455 1.74027   2

  -4  -4  -5 1.31017 2.09957   1

   4   4   5 0.73676 1.67987   3

   4   4   5 1.44706 1.67182   1

   3  -5  -5 15.3697 2.10490   1

  -3   5   5 14.6219 2.26257   2

   2  -5  -5 138.998 5.16386   2

   2  -5  -5 142.017 4.72096   1

  -2   5   5 132.188 4.62503   1

  -2   5   5 144.998 4.94961   2

   1  -5  -5 7.62274 0.57338   3

   1  -5  -5 8.59394 0.84330   1

   1  -5  -5 7.58339 1.21949   2

  -1   5   5 8.96248 0.82294   1

   0  -5  -5 50.6233 1.79342   3

   0  -5  -5 48.8805 2.17422   2

   0  -5  -5 50.3342 1.60374   1

   0  -5  -5 51.2914 2.06989   2

   0   5   5 48.5767 1.55694   1

   0   5   5 49.0082 1.76687   3

  -1  -5  -5 88.3975 3.02391   2

  -1  -5  -5 86.4346 2.92426   3

   1   5   5 83.9931 3.07892   2

   1   5   5 86.6213 2.93476   3

  -2  -5  -5 37.6539 1.43792   1

  -2  -5  -5 43.3482 2.75881   3

  -2  -5  -5 39.4128 1.85872   2

   2   5   5 38.0413 1.44928   1

   2   5   5 41.2639 1.96509   3

   2   5   5 37.6483 1.95120   2

  -3  -5  -5 139.253 4.37931   1

  -3  -5  -5 138.559 4.67253   2

  -3  -5  -5 121.468 4.66270   3

   3   5   5 137.644 4.40996   1

   3   5   5 136.751 4.74956   3

   3   5   5 134.224 4.80485   2

  -4  -5  -5 0.20921 1.69177   2

  -4  -5  -5 -2.5681 1.89978   1

   4   5   5 2.48851 1.76595   3

   4   5   5 0.51788 1.62334   1

   3  -6  -5 4.55791 2.14263   1

  -3   6   5 4.33124 2.20543   2

   2  -6  -5 0.54412 1.43546   1

   2  -6  -5 3.18146 1.89615   2

  -2   6   5 1.38552 1.32457   1

   1  -6  -5 211.267 6.91152   2

   1  -6  -5 216.191 6.25715   3

   1  -6  -5 211.670 6.48110   1

   1  -6  -5 218.520 6.81776   2

  -1   6   5 223.018 6.26388   3

  -1   6   5 217.982 6.40472   1

   0  -6  -5 98.4616 3.47013   2

   0  -6  -5 100.331 3.67743   2

   0  -6  -5 102.000 2.98137   1

   0  -6  -5 100.716 3.25229   3

   0   6   5 99.8876 2.93020   1

   0   6   5 103.961 3.24606   3

  -1  -6  -5 59.3377 2.33752   2

  -1  -6  -5 56.2381 2.24801   3

   1   6   5 57.1489 2.21913   3

   1   6   5 57.5350 2.49681   2

  -2  -6  -5 2.43309 1.02996   3

  -2  -6  -5 2.91870 0.40640   1

   2   6   5 1.81715 0.90400   3

   2   6   5 2.11680 1.03891   2

   2   6   5 2.91923 0.40988   1

  -3  -6  -5 43.5730 2.43154   2

   3   6   5 43.0776 2.36358   3

   3   6   5 40.2888 2.01443   1

   3   6   5 37.9631 2.64447   2

  -4  -6  -5 8.21221 2.05804   1

  -4  -6  -5 6.91024 1.93349   2

   4   6   5 9.55417 1.86079   1

   4   6   5 8.68897 1.93295   3

   2  -7  -5 48.7019 3.75212   2

   2  -7  -5 54.0495 2.82914   1

  -2   7   5 52.5904 2.96600   1

   1  -7  -5 147.209 5.34559   2

   1  -7  -5 146.035 4.48638   3

   1  -7  -5 149.206 4.65287   1

   1  -7  -5 148.810 5.03569   2

  -1   7   5 145.061 4.55546   1

  -1   7   5 148.336 4.45156   3

   0  -7  -5 0.49076 1.17852   2

   0  -7  -5 0.07785 0.79157   2

   0   7   5 -0.4134 0.62002   3

   0   7   5 0.15871 0.27146   1

  -1  -7  -5 40.5821 2.09819   2

  -1  -7  -5 45.5184 2.16141   3

   1   7   5 44.1279 1.98821   3

  -2  -7  -5 57.4354 2.75763   3

  -2  -7  -5 59.6399 2.55994   2

   2   7   5 62.3855 2.67803   3

   2   7   5 57.3921 2.79206   2

  -3  -7  -5 12.3210 1.61007   2

  -3  -7  -5 11.1394 1.06048   1

   3   7   5 10.2622 1.07926   1

   3   7   5 12.9433 1.63457   3

   4   7   5 77.2235 3.96454   3

   2  -8  -5 2.06746 1.65529   1

   2  -8  -5 3.68492 1.71722   2

  -2   8   5 3.68573 1.83662   1

   1  -8  -5 2.00567 0.99299   3

   1  -8  -5 1.25852 1.25570   2

   1  -8  -5 0.55845 0.97739   1

   1  -8  -5 2.11108 1.83081   2

  -1   8   5 2.02077 0.78774   3

   0  -8  -5 159.968 5.15498   3

   0  -8  -5 158.475 5.73611   2

   0  -8  -5 160.120 5.35908   2

   0   8   5 168.180 5.10227   3

  -1  -8  -5 0.87433 1.16755   3

  -1  -8  -5 2.07746 1.01538   2

   1   8   5 2.23932 0.93687   3

  -2  -8  -5 60.0545 2.88699   3

  -2  -8  -5 63.6457 2.76426   2

   2   8   5 63.3770 2.84570   3

   2   8   5 59.1678 3.06307   2

  -3  -8  -5 0.62847 1.30209   2

  -3  -8  -5 2.48861 0.80646   1

   3   8   5 2.92248 1.43130   3

   3   8   5 2.03394 0.82988   1

   1  -9  -5 42.4656 2.49006   3

   1  -9  -5 42.8974 2.23001   1

   1  -9  -5 43.3346 2.72451   2

   1  -9  -5 38.3748 3.16545   2

  -1   9   5 33.8772 2.89299   1

  -1   9   5 44.5472 2.14126   3

   0  -9  -5 38.0661 2.45761   3

   0  -9  -5 33.8450 3.06470   2

   0  -9  -5 38.4101 2.41035   2

   0   9   5 40.6339 2.11754   3

  -1  -9  -5 22.9860 1.84111   2

  -1  -9  -5 26.2518 2.01905   3

   1   9   5 21.2057 1.85795   3

  -2  -9  -5 65.2961 3.04772   2

   2   9   5 67.6449 3.15210   3

  -3  -9  -5 31.9265 2.75516   2

   3   9   5 29.8695 2.59388   3

   1 -10  -5 2.50443 1.64277   2

  -1  10   5 1.35186 1.31281   3

   0 -10  -5 16.8157 1.93159   2

   0 -10  -5 15.5218 1.99862   3

   0  10   5 15.7093 1.58199   3

  -1 -10  -5 50.5278 2.88616   2

   1  10   5 45.3347 2.62501   3

  -2 -10  -5 23.8451 2.20985   2

   2  10   5 21.1867 2.08530   3

  -3 -10  -5 48.1174 3.37026   2

   3  10   5 46.0579 3.28746   3

   0 -11  -5 19.5351 2.24934   2

   0 -11  -5 10.5187 2.62022   3

   0  11   5 13.6879 1.82616   3

  -1 -11  -5 -1.5251 1.66077   2

   1  11   5 0.38615 1.53576   3

  -2 -11  -5 36.0262 3.15125   2

   2  11   5 39.6716 3.37565   3

   1   9  -6 30.8850 2.28354   1

   1   9  -6 26.5608 2.31030   3

  -1  -9   6 26.4377 2.38882   2

   0   9  -6 3.56077 1.49167   1

   0   9  -6 4.90812 1.63134   3

   2   8  -6 20.6042 2.12251   1

   2   8  -6 18.9134 2.17924   3

  -2  -8   6 14.1465 2.29521   2

   1   8  -6 21.9760 1.91660   3

   1   8  -6 21.6475 1.77614   1

   1   8  -6 22.8103 2.13376   2

  -1  -8   6 22.8873 1.92171   2

   0   8  -6 10.2920 1.51457   3

   0   8  -6 10.6851 1.48862   2

   0   8  -6 10.1541 1.43931   1

   0  -8   6 11.3711 1.06025   2

  -1   8  -6 9.40937 1.67035   3

   2   7  -6 20.0822 1.95035   3

   2   7  -6 21.3383 1.91974   1

  -2  -7   6 19.9291 2.25663   2

   1   7  -6 0.75550 1.47915   2

   1   7  -6 1.25731 1.19541   3

   1   7  -6 1.36068 1.06286   1

  -1  -7   6 1.61278 1.25149   2

   0   7  -6 42.6140 2.27704   3

   0   7  -6 40.7930 1.93976   2

   0   7  -6 42.6475 2.12152   1

   0  -7   6 42.3547 1.89915   2

  -1   7  -6 10.8516 1.47256   3

  -2   7  -6 63.5881 3.40808   3

   2  -7   6 67.8638 3.56360   1

   3   6  -6 2.51159 1.71573   3

   3   6  -6 2.31089 1.72468   1

  -3  -6   6 4.93988 2.50344   2

   2   6  -6 4.82938 1.20811   1

   2   6  -6 2.59900 1.95334   2

   2   6  -6 5.31708 1.29339   3

  -2  -6   6 5.31532 1.63002   2

  -2  -6   6 5.76985 2.03088   3

   1   6  -6 42.7855 2.02508   1

   1   6  -6 40.8545 2.15213   3

   1   6  -6 41.6080 2.36898   2

   1   6  -6 41.0247 2.88459   1

  -1  -6   6 39.9443 2.29034   2

  -1  -6   6 40.0245 2.69373   3

   0   6  -6 11.8201 1.34259   3

   0   6  -6 12.7888 1.17122   1

   0   6  -6 12.2879 1.74366   1

   0   6  -6 11.4862 1.00541   2

   0  -6   6 11.4819 1.55024   3

   0  -6   6 15.2681 1.24182   2

  -1   6  -6 39.1342 2.20419   3

  -1   6  -6 39.2452 2.82036   1

  -2   6  -6 3.27131 1.34592   3

   2  -6   6 6.85804 1.62325   1

   3   5  -6 3.09426 1.54647   3

   3   5  -6 -0.0580 1.45666   1

  -3  -5   6 2.98919 2.14076   2

  -3  -5   6 -1.2038 2.21103   3

   2   5  -6 15.1203 1.94171   2

   2   5  -6 22.3870 1.69736   1

   2   5  -6 22.0040 1.81713   3

  -2  -5   6 20.6332 1.93666   3

  -2  -5   6 22.1054 1.94157   2

   1   5  -6 68.7863 2.67076   1

   1   5  -6 64.2492 3.46359   3

   1   5  -6 71.9193 2.90289   2

  -1  -5   6 67.3037 3.00447   3

  -1  -5   6 72.5877 2.85967   2

   0   5  -6 -0.6359 1.23301   1

   0   5  -6 -0.2074 0.69172   2

   0   5  -6 -0.0878 0.68173   1

   0   5  -6 -0.7221 0.90891   3

   0  -5   6 0.27650 1.02576   3

   0  -5   6 0.32549 0.65146   2

  -1   5  -6 14.9263 1.69098   1

  -1   5  -6 13.0363 1.29493   3

   1  -5   6 13.0336 1.42877   3

  -2   5  -6 46.6835 2.44669   3

   2  -5   6 49.5978 2.68806   1

  -3   5  -6 37.7412 2.94139   3

   3  -5   6 38.7057 3.12779   1

   3   4  -6 10.6466 2.50744   3

   3   4  -6 9.65301 1.59533   1

  -3  -4   6 8.86927 1.91341   3

  -3  -4   6 12.8025 2.08428   2

   2   4  -6 47.0281 2.15490   3

   2   4  -6 40.8757 2.08587   1

   2   4  -6 45.2972 2.68983   2

  -2  -4   6 47.0489 2.28700   1

  -2  -4   6 44.8210 2.49713   3

  -2  -4   6 43.6434 2.65847   2

   1   4  -6 9.28222 1.42453   1

   1   4  -6 10.4156 1.06268   3

   1   4  -6 9.40432 1.26326   2

  -1  -4   6 10.9365 1.30392   3

  -1  -4   6 10.3463 1.18756   2

   0   4  -6 49.5964 2.10198   3

   0   4  -6 48.4547 1.94963   2

   0   4  -6 52.0539 1.98596   1

   0   4  -6 48.1580 2.34304   1

   0  -4   6 52.1437 2.31411   3

   0  -4   6 51.1079 1.95132   2

  -1   4  -6 12.4872 1.48844   1

   1  -4   6 14.7051 1.31529   3

  -2   4  -6 102.211 4.14101   1

  -2   4  -6 98.5535 3.70525   3

  -2   4  -6 104.156 4.29121   3

   2  -4   6 105.223 3.79925   1

  -3   4  -6 -0.5906 1.30423   3

   3  -4   6 0.06423 1.38482   1

   3   3  -6 108.677 4.18941   1

   3   3  -6 119.463 4.01404   3

  -3  -3   6 110.217 4.26627   3

   2   3  -6 8.76063 1.08485   1

   2   3  -6 10.3444 1.53141   2

   2   3  -6 10.4437 1.02736   3

  -2  -3   6 8.28897 1.39847   2

  -2  -3   6 9.84974 1.28956   1

  -2  -3   6 9.21077 1.24962   3

   1   3  -6 25.2964 1.36116   1

   1   3  -6 23.5503 1.33283   3

   1   3  -6 25.2504 1.77412   2

  -1  -3   6 22.7573 1.60850   2

  -1  -3   6 24.2880 1.62835   3

   0   3  -6 226.946 6.75934   3

   0   3  -6 222.490 6.60828   2

   0   3  -6 223.912 6.67689   1

   0   3  -6 219.841 6.86685   1

   0  -3   6 226.304 6.79475   3

   0  -3   6 220.897 6.63996   2

  -1   3  -6 1.55603 0.70000   3

  -1   3  -6 3.35707 1.09660   1

  -1   3  -6 3.08181 0.47389   2

  -1   3  -6 3.15581 0.40599   2

  -2   3  -6 2.24818 1.34628   3

  -2   3  -6 0.37599 0.82440   3

  -2   3  -6 0.78633 1.29088   1

   2  -3   6 -0.3686 0.96311   1

  -3   3  -6 83.4553 2.57713   2

  -3   3  -6 91.8143 3.62928   3

   3  -3   6 88.0990 3.65964   1

   3   2  -6 2.08676 0.98292   3

   3   2  -6 3.60217 1.22263   1

  -3  -2   6 1.42245 1.26471   3

  -3  -2   6 6.07155 1.55624   2

   2   2  -6 40.9961 1.70171   3

   2   2  -6 39.7549 1.89185   1

   2   2  -6 40.7028 2.37188   2

  -2  -2   6 37.2705 2.02193   1

  -2  -2   6 39.5367 2.34712   2

  -2  -2   6 38.1059 1.89656   3

   1   2  -6 133.178 4.05239   3

   1   2  -6 124.387 4.27092   2

   1   2  -6 131.036 4.12562   1

  -1  -2   6 123.514 4.12075   1

  -1  -2   6 134.088 4.11239   3

  -1  -2   6 133.955 4.33026   2

   0   2  -6 3.66313 0.58862   1

   0   2  -6 2.62006 0.87205   1

   0   2  -6 2.24561 0.57425   3

   0   2  -6 2.97775 0.69893   2

   0  -2   6 5.23306 0.69692   2

   0  -2   6 4.05521 0.77069   3

  -1   2  -6 49.5748 2.20918   1

  -1   2  -6 52.5572 2.11786   3

  -1   2  -6 53.8894 1.86560   2

  -1   2  -6 52.8447 1.77038   2

  -2   2  -6 43.6193 2.86905   3

  -2   2  -6 49.3045 2.46962   1

  -2   2  -6 48.7077 1.80738   2

  -2   2  -6 51.4454 2.60058   3

  -2   2  -6 52.1128 1.67769   2

   2  -2   6 50.9938 2.25629   1

  -3   2  -6 85.1629 2.88937   2

  -3   2  -6 88.2977 3.50961   3

   3  -2   6 90.3449 3.72847   1

  -4   2  -6 -1.3389 1.67664   3

   4  -2   6 1.79654 2.06286   1

   3   1  -6 15.5368 1.12369   3

   3   1  -6 13.1916 1.53923   1

  -3  -1   6 15.5956 1.85933   2

  -3  -1   6 14.7635 1.22997   3

   2   1  -6 218.908 6.61458   1

   2   1  -6 207.809 6.82239   2

   2   1  -6 217.463 6.25044   3

  -2  -1   6 202.374 6.52949   1

  -2  -1   6 217.471 6.30350   3

  -2  -1   6 216.288 6.84058   2

   1   1  -6 0.31730 0.45043   3

   1   1  -6 0.58184 0.81322   2

   1   1  -6 1.04936 0.53077   1

  -1  -1   6 0.25087 0.69960   2

  -1  -1   6 0.97766 0.57690   3

  -1  -1   6 0.20290 0.60425   1

   0   1  -6 120.251 3.75384   2

   0   1  -6 117.348 3.65011   3

   0   1  -6 115.177 3.61663   1

   0   1  -6 111.804 3.76602   1

   0  -1   6 116.755 3.73680   2

  -1   1  -6 231.363 6.74588   2

  -1   1  -6 223.170 6.67353   2

  -1   1  -6 229.230 6.88126   3

  -1   1  -6 230.103 6.95274   1

  -1   1  -6 233.740 7.26734   3

  -2   1  -6 0.24365 1.08895   1

  -2   1  -6 0.91302 0.63942   3

  -2   1  -6 -0.3616 1.14036   3

  -2   1  -6 -0.4009 0.47362   2

   2  -1   6 0.28010 0.76925   1

  -3   1  -6 1.57438 1.65178   1

  -3   1  -6 2.67210 0.83947   2

  -3   1  -6 5.00192 1.77109   3

  -3   1  -6 3.37598 0.99311   3

   3  -1   6 -0.4049 1.12148   1

   3  -1   6 1.30022 0.98970   2

  -4   1  -6 62.5519 3.32926   3

  -4   1  -6 66.3335 3.09853   2

   4  -1   6 63.2288 3.95033   1

   3   0  -6 77.1651 3.32170   1

  -3   0   6 74.6654 3.49599   2

  -3   0   6 70.2221 2.34051   3

   2   0  -6 0.96092 1.14164   2

   2   0  -6 1.18603 0.84281   1

   2   0  -6 1.81962 0.42229   3

  -2   0   6 1.22398 0.89222   1

  -2   0   6 1.75408 0.50364   3

  -2   0   6 1.65484 1.00493   2

   1   0  -6 21.8718 1.18974   1

   1   0  -6 22.6405 0.96606   3

  -1   0   6 22.0719 1.46965   2

  -1   0   6 23.2137 1.25852   1

   0   0  -6 97.0386 3.25114   2

   0   0  -6 96.9585 3.05421   1

   0   0  -6 95.9981 3.04772   3

   0   0   6 96.8013 3.23601   2

  -1   0  -6 174.034 5.40599   2

  -1   0  -6 176.276 5.54592   3

  -1   0  -6 184.716 5.34276   2

  -1   0  -6 179.677 5.44296   3

  -2   0  -6 54.3410 2.44825   1

  -2   0  -6 56.5481 2.51514   3

  -2   0  -6 54.8773 2.02116   2

   2   0   6 58.1418 2.30636   1

  -3   0  -6 35.6059 1.84806   2

  -3   0  -6 33.9608 2.64228   1

  -3   0  -6 34.9057 2.40827   3

   3   0   6 29.8027 2.01743   2

   3   0   6 37.8558 2.29402   1

  -4   0  -6 23.0866 1.98881   2

  -4   0  -6 25.6933 2.34778   3

   4   0   6 21.4614 2.33084   1

   4   0   6 21.5342 2.27963   2

   3  -1  -6 4.76978 1.51461   1

  -3   1   6 8.32985 1.85413   2

   2  -1  -6 22.4519 1.83355   2

  -2   1   6 19.8736 1.47180   1

  -2   1   6 20.4390 1.73904   2

   1  -1  -6 190.375 5.63622   1

   1  -1  -6 185.332 5.39201   3

   1  -1  -6 190.118 5.35050   3

   1  -1  -6 184.399 5.87170   2

  -1   1   6 187.468 5.62844   1

  -1   1   6 184.590 5.88347   2

   0  -1  -6 177.125 5.04537   3

   0  -1  -6 176.920 4.98157   1

   0  -1  -6 173.119 4.97370   3

   0  -1  -6 137.880 5.68015   2

  -1  -1  -6 267.851 7.76275   2

  -1  -1  -6 265.624 7.67748   2

  -1  -1  -6 269.055 7.70208   1

  -1  -1  -6 240.329 8.24445   3

  -2  -1  -6 42.7747 1.74924   2

  -2  -1  -6 41.4496 2.18978   3

  -2  -1  -6 42.4764 2.06243   1

   2   1   6 43.2034 1.91150   2

   2   1   6 42.4361 1.86809   1

  -3  -1  -6 3.68223 1.49223   1

  -3  -1  -6 4.76464 1.01197   2

  -3  -1  -6 4.89107 1.38433   3

   3   1   6 3.07035 1.19160   2

  -4  -1  -6 6.29315 1.60572   2

   4   1   6 7.00368 1.89516   1

   4   1   6 5.58297 2.08309   2

   3  -2  -6 299.467 9.38704   1

   2  -2  -6 179.099 6.06964   2

  -2   2   6 186.597 6.11017   2

  -2   2   6 188.972 5.81778   1

   1  -2  -6 48.5679 1.88562   1

   1  -2  -6 50.8180 2.36582   2

  -1   2   6 49.6631 1.92407   1

  -1   2   6 51.5915 2.19116   2

   0  -2  -6 2.21739 0.41302   1

   0  -2  -6 3.55357 0.82635   2

   0  -2  -6 2.75913 0.52714   3

   0  -2  -6 3.31375 0.43329   3

  -1  -2  -6 1.62201 0.64833   3

  -1  -2  -6 1.85314 0.63105   1

  -1  -2  -6 1.19490 0.56445   2

   1   2   6 1.84158 0.60012   3

  -2  -2  -6 321.876 9.25666   2

  -2  -2  -6 298.032 9.35878   3

   2   2   6 319.831 9.20924   1

   2   2   6 309.070 9.43664   3

   2   2   6 323.031 9.31317   2

  -3  -2  -6 23.2776 1.83500   1

  -3  -2  -6 23.6352 1.92034   3

  -3  -2  -6 25.5420 1.75493   2

   3   2   6 20.1172 1.70700   2

   3   2   6 23.1594 1.84816   3

   3   2   6 23.6592 1.93586   1

  -4  -2  -6 13.5408 1.92414   2

   4   2   6 10.2346 2.39000   2

   4   2   6 10.4687 1.95395   1

   3  -3  -6 60.0989 3.31645   1

  -3   3   6 63.3924 3.71016   2

   2  -3  -6 9.69450 1.63240   1

   2  -3  -6 12.3229 1.69807   2

  -2   3   6 15.1312 1.62449   2

  -2   3   6 11.4668 1.31137   1

   1  -3  -6 17.4366 1.45007   2

   1  -3  -6 18.8373 1.13442   1

  -1   3   6 16.0554 1.14217   1

  -1   3   6 16.9154 1.39817   2

   0  -3  -6 71.0282 2.29719   3

   0  -3  -6 71.7291 2.70979   2

   0  -3  -6 71.0251 2.24678   1

  -1  -3  -6 397.599 11.8622   3

  -1  -3  -6 404.349 11.9268   2

  -1  -3  -6 424.064 11.6351   1

  -1  -3  -6 407.846 11.7113   1

   1   3   6 421.659 11.9396   3

  -2  -3  -6 135.261 4.32193   1

  -2  -3  -6 137.442 4.40555   2

  -2  -3  -6 134.750 4.78685   3

   2   3   6 136.518 4.54990   3

   2   3   6 137.963 4.51826   2

   2   3   6 140.979 4.25544   1

  -3  -3  -6 5.41510 1.15072   2

  -3  -3  -6 2.85591 1.31429   3

  -3  -3  -6 3.93389 1.35741   1

   3   3   6 4.11662 1.09368   1

   3   3   6 4.23952 1.40827   2

   3   3   6 4.11005 1.15672   3

  -4  -3  -6 2.61342 1.65737   2

   4   3   6 2.12404 1.73642   3

   4   3   6 2.62712 1.69692   1

   3  -4  -6 14.0107 2.11688   1

  -3   4   6 15.0557 2.34461   2

   2  -4  -6 305.655 9.78214   2

  -2   4   6 314.267 9.40485   1

  -2   4   6 325.843 9.81659   2

   1  -4  -6 439.356 12.6125   1

   1  -4  -6 435.717 12.9543   2

  -1   4   6 441.683 12.5566   1

   0  -4  -6 135.159 4.35910   2

   0  -4  -6 132.535 4.00584   3

   0  -4  -6 132.016 4.45809   2

   0  -4  -6 137.808 3.95940   1

   0   4   6 130.909 4.05674   3

  -1  -4  -6 3.72424 0.73344   2

  -1  -4  -6 3.15965 0.35198   1

  -1  -4  -6 3.13236 0.87486   3

  -1  -4  -6 2.68574 0.52104   1

   1   4   6 2.74603 0.69163   3

  -2  -4  -6 2.51386 0.73359   1

  -2  -4  -6 4.07354 0.87620   2

  -2  -4  -6 1.70706 0.89546   3

   2   4   6 3.34076 0.95370   3

   2   4   6 4.47968 1.06669   2

   2   4   6 3.34155 0.62997   1

  -3  -4  -6 155.476 5.75582   3

  -3  -4  -6 184.016 5.76594   2

  -3  -4  -6 180.594 5.56820   1

   3   4   6 173.966 5.88773   2

   3   4   6 174.508 5.54208   1

   3   4   6 176.101 5.84913   3

  -4  -4  -6 -0.1150 1.73368   2

  -4  -4  -6 -0.7496 2.11038   1

   4   4   6 -0.9679 1.66052   1

   4   4   6 -3.0587 1.56608   3

   3  -5  -6 16.1839 2.30192   1

  -3   5   6 22.6727 2.72788   2

   2  -5  -6 21.0587 2.32409   2

   2  -5  -6 17.6516 1.80309   1

  -2   5   6 16.7148 1.57263   1

  -2   5   6 22.9032 1.97561   2

   1  -5  -6 68.6930 2.41248   1

   1  -5  -6 64.4901 2.94501   2

  -1   5   6 61.3037 2.54436   1

   0  -5  -6 -0.4998 0.97442   2

   0  -5  -6 -0.0049 0.63666   2

   0  -5  -6 0.21386 0.39050   1

   0  -5  -6 0.18832 0.55138   3

   0   5   6 0.61040 0.52021   3

  -1  -5  -6 10.2545 0.56187   1

  -1  -5  -6 10.0027 1.00336   2

  -1  -5  -6 8.28171 0.59234   1

  -1  -5  -6 11.8121 0.99861   3

   1   5   6 11.8623 1.02288   3

  -2  -5  -6 201.029 6.29481   2

  -2  -5  -6 195.960 5.84131   1

  -2  -5  -6 204.164 6.32998   3

   2   5   6 206.992 6.39973   3

   2   5   6 192.949 6.37716   2

   2   5   6 203.199 5.84219   1

  -3  -5  -6 15.7554 1.38574   1

  -3  -5  -6 18.0791 1.65868   2

  -3  -5  -6 16.2506 2.12456   3

   3   5   6 15.5222 1.85136   2

   3   5   6 14.8257 1.61653   3

   3   5   6 16.8984 1.33234   1

  -4  -5  -6 1.31226 1.94889   2

  -4  -5  -6 5.46283 2.16425   1

   4   5   6 3.00231 1.74010   1

   4   5   6 4.52017 1.82474   3

   2  -6  -6 5.71458 1.44470   1

  -2   6   6 6.37028 1.46006   1

   1  -6  -6 135.898 3.91156   3

   1  -6  -6 138.064 4.30653   1

   1  -6  -6 134.218 4.64957   2

   1  -6  -6 129.341 4.86835   2

  -1   6   6 134.992 4.10109   3

   0  -6  -6 766.365 21.4854   3

   0  -6  -6 762.146 21.2105   1

   0  -6  -6 776.473 21.7658   2

   0  -6  -6 727.410 21.8173   2

   0   6   6 752.491 21.4217   3

  -1  -6  -6 145.526 4.55537   3

  -1  -6  -6 138.292 4.63946   2

   1   6   6 139.701 4.56011   3

  -2  -6  -6 8.06207 1.17243   2

  -2  -6  -6 7.30866 0.49824   1

  -2  -6  -6 9.34693 1.35255   3

   2   6   6 6.01624 1.23296   2

  -3  -6  -6 -0.1535 0.96602   1

  -3  -6  -6 -0.4231 1.17743   2

   3   6   6 -0.8673 1.16733   3

   3   6   6 0.21660 0.88980   1

  -4  -6  -6 54.7042 3.65404   2

   4   6   6 56.8777 3.64363   3

   4   6   6 51.4992 3.27506   1

   2  -7  -6 4.96433 1.61601   1

  -2   7   6 3.28284 1.67742   1

   1  -7  -6 7.26377 1.93695   2

   1  -7  -6 4.09130 0.96394   1

   1  -7  -6 3.49248 0.70711   3

   1  -7  -6 4.82681 1.31371   2

  -1   7   6 4.15228 0.64100   3

   0  -7  -6 131.273 4.93940   3

   0  -7  -6 138.599 5.08582   2

   0  -7  -6 148.905 4.79642   2

   0   7   6 137.116 4.38503   3

  -1  -7  -6 23.8817 1.87831   3

  -1  -7  -6 23.2711 1.64753   2

   1   7   6 25.9084 1.68808   3

  -2  -7  -6 -0.2568 1.26501   3

  -2  -7  -6 1.35540 1.00407   2

   2   7   6 0.02903 1.29878   2

   2   7   6 1.18130 1.06893   3

  -3  -7  -6 43.5693 2.54963   2

  -3  -7  -6 41.7508 1.92919   1

   3   7   6 44.3202 1.94744   1

   3   7   6 45.0855 2.81572   3

  -4  -7  -6 -2.4093 1.98806   2

   2  -8  -6 15.5031 2.07853   1

   2  -8  -6 13.9502 2.24765   2

   1  -8  -6 -0.3544 0.91547   3

   1  -8  -6 -0.1930 1.03716   1

   1  -8  -6 1.91937 1.40561   2

  -1   8   6 -0.4371 0.73747   3

   0  -8  -6 20.2672 1.47109   3

   0  -8  -6 19.5408 1.68067   2

   0  -8  -6 18.2034 2.19912   2

   0   8   6 16.2420 1.50391   3

  -1  -8  -6 615.763 17.8689   3

  -1  -8  -6 608.120 18.0414   2

   1   8   6 635.062 17.9272   3

  -2  -8  -6 125.661 4.53472   2

  -2  -8  -6 114.198 4.48269   3

   2   8   6 130.286 4.55639   3

  -3  -8  -6 21.7407 2.07399   2

   3   8   6 21.0759 2.15592   3

   1  -9  -6 2.06223 1.55208   2

   1  -9  -6 -0.8997 1.12810   1

  -1   9   6 -0.0046 0.97310   3

   0  -9  -6 34.5069 2.44979   3

   0  -9  -6 34.8055 2.52741   2

   0   9   6 34.5744 2.14025   3

  -1  -9  -6 90.9278 3.66898   2

  -1  -9  -6 85.3333 3.80150   3

   1   9   6 86.8078 3.51895   3

  -2  -9  -6 14.4275 1.71262   2

   2   9   6 16.4718 1.80799   3

  -3  -9  -6 3.45420 1.65712   2

   3   9   6 2.79956 1.80205   3

   1 -10  -6 10.3952 2.08353   2

   0 -10  -6 0.39291 1.64005   2

   0 -10  -6 -0.0031 1.75952   3

   0  10   6 0.04934 1.55318   3

  -1 -10  -6 2.32879 1.57237   2

  -1 -10  -6 2.07012 2.02726   3

   1  10   6 3.23790 1.50144   3

  -2 -10  -6 263.542 8.70971   2

   2  10   6 278.004 8.79545   3

  -1 -11  -6 19.6902 2.33156   2

   1  11   6 18.7296 2.15316   3

   1   8  -7 -0.9881 1.62614   3

   1   8  -7 -0.8001 1.52598   1

   0   8  -7 19.9663 1.91171   1

   0   8  -7 16.3050 1.87827   3

  -1   8  -7 2.75042 1.53618   1

  -1   8  -7 3.53663 1.69356   3

   2   7  -7 15.3183 1.96062   1

   2   7  -7 13.4262 1.97533   3

  -2  -7   7 15.8934 2.32553   2

   1   7  -7 29.3202 2.26928   1

   1   7  -7 33.2933 2.87879   2

   1   7  -7 29.1007 2.29524   3

  -1  -7   7 31.4517 2.53798   2

   0   7  -7 111.641 3.80803   2

   0   7  -7 111.830 4.34931   3

   0   7  -7 122.383 4.20853   1

   0  -7   7 113.751 3.79998   2

  -1   7  -7 -1.1946 1.28634   3

  -2   7  -7 10.7504 2.05533   3

   2   6  -7 42.3154 2.73231   3

   2   6  -7 41.0653 2.49679   1

  -2  -6   7 47.1323 3.34208   2

   1   6  -7 28.6708 2.52618   2

   1   6  -7 24.7207 1.96717   1

   1   6  -7 28.5340 2.19622   3

  -1  -6   7 26.0088 2.27852   2

   0   6  -7 2.52836 1.22599   3

   0   6  -7 0.86314 0.96384   1

   0   6  -7 1.86704 0.96256   2

   0  -6   7 2.83421 0.87656   2

  -1   6  -7 58.0586 2.82238   3

  -2   6  -7 8.83386 1.60012   3

   2  -6   7 9.08747 1.80574   1

   2   5  -7 2.43337 1.28970   3

   2   5  -7 2.02572 1.16090   1

  -2  -5   7 1.64368 1.63318   2

  -2  -5   7 1.86074 1.80901   3

   1   5  -7 18.2739 1.72609   2

   1   5  -7 16.7010 1.37092   1

   1   5  -7 20.3453 1.77914   3

  -1  -5   7 18.3535 1.63147   2

  -1  -5   7 21.2585 1.95146   3

   0   5  -7 15.9996 1.33641   1

   0   5  -7 17.2597 1.50831   3

   0   5  -7 19.4076 1.94195   1

   0   5  -7 16.8799 1.50073   2

   0  -5   7 15.6041 1.39022   2

   0  -5   7 17.0494 1.65535   3

  -1   5  -7 159.174 5.93503   1

  -1   5  -7 159.436 5.21558   3

   1  -5   7 145.143 5.29744   3

  -2   5  -7 4.24045 1.33604   3

   2  -5   7 4.93106 1.39798   1

  -3   5  -7 0.51633 1.82341   3

   3  -5   7 -2.5304 2.00307   1

   3   4  -7 26.1581 2.00563   3

   3   4  -7 21.0169 2.11653   1

  -3  -4   7 17.0292 2.50120   2

   2   4  -7 1.19047 1.05211   3

   2   4  -7 0.30524 1.01772   1

   2   4  -7 1.46962 2.00677   2

  -2  -4   7 2.15520 1.53010   2

  -2  -4   7 0.71229 1.51197   3

   1   4  -7 159.554 5.39575   2

   1   4  -7 166.676 5.25306   3

   1   4  -7 162.091 5.19706   1

  -1  -4   7 168.305 5.42721   2

  -1  -4   7 161.466 5.40269   3

   0   4  -7 87.8393 3.41430   3

   0   4  -7 86.3243 3.00402   1

   0   4  -7 81.3555 2.99531   2

   0   4  -7 87.0754 3.56529   1

   0  -4   7 85.4603 2.98550   2

   0  -4   7 83.2354 3.32084   3

  -1   4  -7 0.15363 0.87821   3

  -1   4  -7 0.17332 0.46343   2

  -1   4  -7 0.12435 0.39825   2

  -1   4  -7 0.47288 1.45442   1

  -2   4  -7 53.9586 2.58277   3

   2  -4   7 58.4963 2.83819   1

  -3   4  -7 2.82674 1.62262   3

   3  -4   7 0.66646 1.66167   1

   3   3  -7 0.12072 1.25097   3

   3   3  -7 0.51607 1.36870   1

  -3  -3   7 -1.2289 1.99165   2

   2   3  -7 -0.8996 0.83532   3

   2   3  -7 -2.4269 1.51163   2

   2   3  -7 -1.0952 0.94590   1

  -2  -3   7 -0.7608 1.24729   2

  -2  -3   7 -0.6031 1.21236   3

   1   3  -7 36.3443 1.77532   1

   1   3  -7 40.2641 1.85018   3

   1   3  -7 35.4984 2.33311   2

  -1  -3   7 39.6202 2.08930   3

  -1  -3   7 40.7453 2.18451   2

   0   3  -7 4.97061 0.85939   3

   0   3  -7 6.38450 1.25017   1

   0   3  -7 5.29469 0.81669   1

   0   3  -7 6.06971 0.95732   2

   0  -3   7 5.69909 0.87694   2

   0  -3   7 6.17417 1.09762   3

  -1   3  -7 13.4171 0.90662   2

  -1   3  -7 12.8164 1.89238   3

  -1   3  -7 15.5499 1.57065   1

  -1   3  -7 14.3687 1.05845   2

  -2   3  -7 81.0003 3.18252   3

  -2   3  -7 84.0702 3.74204   1

  -2   3  -7 78.0244 3.88331   3

   2  -3   7 83.9664 3.31478   1

  -3   3  -7 25.3046 2.09571   3

   3  -3   7 29.5261 2.37326   1

   3   2  -7 7.08112 1.15934   3

   3   2  -7 4.55677 1.45708   1

  -3  -2   7 5.28387 1.87799   2

   2   2  -7 5.61940 1.09432   1

   2   2  -7 7.21239 0.88579   3

   2   2  -7 7.63922 1.73478   2

  -2  -2   7 5.07263 1.34529   2

  -2  -2   7 6.28468 1.16551   3

  -2  -2   7 4.77856 1.40882   1

   1   2  -7 42.5173 1.80203   3

   1   2  -7 42.3335 2.31758   2

  -1  -2   7 44.4577 1.97151   3

  -1  -2   7 39.9450 2.11251   2

   0   2  -7 417.404 13.3492   2

   0   2  -7 469.532 13.2082   3

   0   2  -7 444.124 13.2792   1

   0   2  -7 454.728 13.1513   1

   0  -2   7 481.157 13.2329   2

   0  -2   7 468.414 13.2203   3

  -1   2  -7 146.525 4.36225   2

  -1   2  -7 140.379 4.42493   2

  -1   2  -7 145.376 4.66754   3

  -2   2  -7 25.6535 1.17116   2

  -2   2  -7 24.2052 1.39453   2

  -2   2  -7 27.4949 2.10565   1

  -2   2  -7 25.9132 1.76057   3

  -2   2  -7 27.8590 2.53759   3

   2  -2   7 25.9111 1.92964   1

  -3   2  -7 17.2813 1.28899   2

  -3   2  -7 20.1630 1.81601   3

   3  -2   7 16.4884 1.91479   1

   3   1  -7 3.08240 1.41312   1

   3   1  -7 4.23331 1.35927   3

  -3  -1   7 7.19235 1.80836   2

   2   1  -7 28.0779 2.36982   2

   2   1  -7 28.4113 1.85328   1

   2   1  -7 26.9513 1.32322   3

  -2  -1   7 26.6496 1.56068   3

  -2  -1   7 29.9131 2.16480   2

  -2  -1   7 24.7839 2.04402   1

   1   1  -7 28.4006 1.50555   1

   1   1  -7 30.9254 1.93002   2

   1   1  -7 33.3632 1.41918   3

  -1  -1   7 31.7872 1.64370   1

  -1  -1   7 30.4248 1.88427   2

  -1  -1   7 30.9453 1.52702   3

   0   1  -7 106.891 3.62526   1

   0   1  -7 104.978 3.57322   2

   0   1  -7 104.984 3.37626   1

   0   1  -7 101.325 3.39770   3

   0  -1   7 104.659 3.53887   2

  -1   1  -7 0.13614 1.02170   1

  -1   1  -7 -0.0444 0.95848   3

  -1   1  -7 0.40933 0.75023   2

  -1   1  -7 -1.1039 0.59954   3

  -1   1  -7 0.48194 0.53501   2

  -2   1  -7 9.91490 0.81543   2

  -2   1  -7 12.0671 1.61145   3

  -2   1  -7 11.7275 1.64306   1

  -2   1  -7 9.32103 1.08189   3

  -2   1  -7 9.33752 1.03156   2

   2  -1   7 9.69878 1.27727   1

  -3   1  -7 19.8442 1.69700   3

  -3   1  -7 17.0956 1.48484   2

   3  -1   7 13.6191 1.67785   1

   3   0  -7 3.79876 1.56173   1

  -3   0   7 4.18402 1.77616   2

   2   0  -7 5.84944 1.10614   1

   2   0  -7 3.28120 0.50147   3

   2   0  -7 2.37878 1.29626   2

  -2   0   7 3.86992 1.28651   2

  -2   0   7 4.39148 1.18175   1

   1   0  -7 1.07319 1.00041   2

   1   0  -7 1.19160 0.47951   3

   1   0  -7 0.36366 0.61357   1

  -1   0   7 1.08649 0.83168   2

  -1   0   7 0.97732 0.84714   1

   0   0  -7 192.271 5.97013   2

   0   0  -7 193.970 5.78931   1

   0   0  -7 186.993 5.90675   3

   0   0  -7 193.858 5.94357   1

   0   0  -7 195.429 5.79029   3

   0   0   7 197.582 5.99494   2

  -1   0  -7 498.050 14.1587   3

  -1   0  -7 502.737 14.1305   2

  -1   0  -7 484.372 14.2507   3

  -1   0  -7 490.306 14.0500   2

  -1   0  -7 475.671 14.1586   1

  -2   0  -7 207.221 6.60288   3

  -2   0  -7 209.615 6.12511   2

  -2   0  -7 198.119 6.56691   3

  -2   0  -7 206.271 6.49896   1

   2   0   7 198.287 6.34329   1

  -3   0  -7 55.7962 3.44100   1

  -3   0  -7 53.0329 2.62989   3

  -3   0  -7 56.0182 2.36559   2

   3   0   7 54.3739 2.69460   2

   3   0   7 54.1412 2.79942   1

  -4   0  -7 11.2972 1.96301   3

  -4   0  -7 9.27592 1.75733   2

   4   0   7 3.87350 2.07667   1

   3  -1  -7 212.081 7.39276   1

  -3   1   7 245.156 7.93676   2

   2  -1  -7 24.1962 1.80557   1

   2  -1  -7 20.4669 1.92733   2

  -2   1   7 25.6239 1.97486   2

  -2   1   7 22.0322 1.66671   1

   1  -1  -7 98.2734 3.64537   2

   1  -1  -7 95.9856 3.24692   1

   1  -1  -7 97.7784 2.92103   3

   1  -1  -7 96.1952 3.00573   3

  -1   1   7 95.2998 3.24331   1

  -1   1   7 98.7796 3.56171   2

   0  -1  -7 52.8364 2.12888   3

   0  -1  -7 55.1205 2.41535   2

   0  -1  -7 57.7007 1.98309   1

   0  -1  -7 57.0186 1.97124   3

  -1  -1  -7 53.7353 2.34365   3

  -1  -1  -7 56.0113 2.07377   3

  -1  -1  -7 56.5316 2.27157   1

  -1  -1  -7 52.8222 2.28573   2

  -1  -1  -7 55.1089 2.09468   2

  -2  -1  -7 5.50678 1.19606   3

  -2  -1  -7 6.36102 0.84044   2

  -2  -1  -7 4.79545 1.13928   1

   2   1   7 6.92710 0.98782   1

  -3  -1  -7 0.30600 1.67310   1

  -3  -1  -7 0.52606 0.96661   2

   3   1   7 -0.0919 1.26554   1

   3   1   7 0.15398 1.33537   2

  -4  -1  -7 1.11029 1.67044   2

   4   1   7 1.51457 2.16314   2

   4   1   7 -0.4243 1.81921   1

   3  -2  -7 15.6226 1.98406   1

  -3   2   7 14.4143 2.27033   2

   2  -2  -7 0.62513 1.42893   2

   2  -2  -7 -0.3364 0.98967   1

  -2   2   7 -0.6059 1.14734   1

  -2   2   7 0.38801 1.11625   2

   1  -2  -7 7.92369 0.83909   1

   1  -2  -7 9.76373 0.53446   3

   1  -2  -7 10.0406 1.35746   2

  -1   2   7 8.63810 0.98038   1

  -1   2   7 9.75552 1.16745   2

   0  -2  -7 0.21917 0.58301   3

   0  -2  -7 0.37069 0.83357   2

   0  -2  -7 0.20583 0.43870   1

   0  -2  -7 0.50603 0.44740   3

  -1  -2  -7 124.419 4.11702   2

  -1  -2  -7 130.770 4.32643   2

  -1  -2  -7 129.651 3.91373   1

  -1  -2  -7 131.015 4.11834   1

  -1  -2  -7 127.341 4.19328   3

  -2  -2  -7 144.061 4.60027   1

  -2  -2  -7 134.886 4.68777   3

  -2  -2  -7 137.308 4.48241   2

   2   2   7 143.211 4.46127   1

  -3  -2  -7 249.373 8.00253   1

  -3  -2  -7 245.643 8.40536   3

  -3  -2  -7 265.699 7.84493   2

   3   2   7 260.640 7.97624   2

   3   2   7 250.802 8.25089   1

  -4  -2  -7 50.5430 3.13969   2

   4   2   7 44.2711 3.95093   2

   3  -3  -7 38.4687 2.80103   1

  -3   3   7 44.1858 3.31341   2

   2  -3  -7 545.723 15.4793   1

  -2   3   7 502.905 15.3598   1

  -2   3   7 544.267 15.8414   2

   1  -3  -7 40.1892 2.29878   2

   1  -3  -7 40.4616 1.75959   1

  -1   3   7 38.7588 1.82912   1

   0  -3  -7 83.8090 3.18806   2

   0  -3  -7 82.3828 2.71437   3

   0  -3  -7 84.3337 2.66498   1

  -1  -3  -7 0.64820 0.73014   1

  -1  -3  -7 -0.2714 0.66976   2

  -1  -3  -7 0.49777 0.78850   3

  -1  -3  -7 0.82667 0.42201   1

  -1  -3  -7 0.46929 0.95337   2

   1   3   7 0.38181 0.72316   3

  -2  -3  -7 1.52679 1.01214   3

  -2  -3  -7 1.39343 1.10330   1

  -2  -3  -7 3.44254 0.85718   2

   2   3   7 1.52203 0.69469   1

   2   3   7 2.18011 0.96714   3

   2   3   7 1.96723 1.04168   2

  -3  -3  -7 48.2529 4.05308   3

  -3  -3  -7 37.8122 2.52651   1

  -3  -3  -7 36.2528 2.18789   2

   3   3   7 32.9266 2.25996   3

   3   3   7 35.0592 2.64172   2

   3   3   7 35.1034 2.21813   1

  -4  -3  -7 11.1904 2.01304   2

   4   3   7 7.63388 2.15927   3

   4   3   7 15.2208 2.14596   1

   3  -4  -7 0.59368 1.96698   1

  -3   4   7 4.88409 2.31335   2

   2  -4  -7 38.1153 2.30778   1

  -2   4   7 35.7894 2.41315   1

  -2   4   7 39.6001 2.79414   2

   1  -4  -7 21.8062 1.37756   1

   1  -4  -7 18.8156 1.75594   2

  -1   4   7 20.4837 1.48432   1

   0  -4  -7 24.1303 1.10402   1

   0  -4  -7 25.0838 1.54800   2

   0  -4  -7 25.5972 1.98978   2

   0  -4  -7 22.0910 1.20454   3

  -1  -4  -7 0.98722 0.39169   1

  -1  -4  -7 1.55733 0.72703   2

  -1  -4  -7 0.37203 0.80432   3

  -1  -4  -7 1.21931 0.65097   1

   1   4   7 0.69720 0.75294   3

  -2  -4  -7 12.9461 1.42578   3

  -2  -4  -7 13.5057 1.12837   1

  -2  -4  -7 13.9984 1.28486   2

   2   4   7 11.4330 1.41165   2

   2   4   7 12.4864 0.91159   1

   2   4   7 11.4642 1.37011   3

  -3  -4  -7 8.92928 1.32430   2

  -3  -4  -7 6.19832 1.42567   1

   3   4   7 7.55575 1.22586   1

   3   4   7 6.86153 2.78810   2

   3   4   7 9.18690 1.46945   3

  -4  -4  -7 214.847 7.28938   2

  -4  -4  -7 206.785 7.52245   1

   4   4   7 208.955 7.41935   3

   4   4   7 221.173 7.17976   1

   2  -5  -7 4.22342 1.42020   1

  -2   5   7 4.70690 1.60656   2

  -2   5   7 4.77274 1.45097   1

   1  -5  -7 722.221 20.3852   1

   1  -5  -7 706.615 20.8470   2

  -1   5   7 721.340 20.3055   1

   0  -5  -7 84.5234 2.61547   1

   0  -5  -7 82.4726 3.35791   2

   0  -5  -7 85.6370 2.72903   3

   0  -5  -7 69.6513 3.66820   2

   0   5   7 83.7288 2.76788   3

  -1  -5  -7 23.3951 0.88924   1

  -1  -5  -7 21.8647 1.56668   2

  -1  -5  -7 23.8500 1.62125   3

  -1  -5  -7 22.6805 1.10004   1

   1   5   7 23.4897 1.55059   3

  -2  -5  -7 20.5395 1.66800   3

  -2  -5  -7 18.4513 1.26576   1

  -2  -5  -7 19.9552 1.67446   2

   2   5   7 17.3190 1.68054   2

  -3  -5  -7 2.76923 1.23750   1

  -3  -5  -7 3.05912 1.30798   2

   3   5   7 3.11618 1.04289   1

   3   5   7 3.06601 2.05909   2

   3   5   7 0.64820 1.25393   3

  -4  -5  -7 32.0474 2.75915   2

  -4  -5  -7 34.7666 3.15856   1

   4   5   7 36.4274 3.07506   1

   4   5   7 38.0890 3.33317   3

   2  -6  -7 26.7769 2.03549   1

  -2   6   7 21.0181 1.92688   1

   1  -6  -7 20.8787 1.61316   1

   1  -6  -7 15.8076 2.03892   2

   1  -6  -7 19.4535 1.72811   2

  -1   6   7 21.7779 1.54288   1

   0  -6  -7 20.4596 1.71604   2

   0  -6  -7 21.5924 1.41419   3

   0  -6  -7 18.6374 1.05674   1

   0  -6  -7 20.4229 1.77107   2

   0   6   7 20.0412 1.31501   3

  -1  -6  -7 14.3898 1.34189   2

  -1  -6  -7 13.8808 1.28462   3

   1   6   7 12.3505 1.28034   3

  -2  -6  -7 -0.5867 0.44842   1

  -2  -6  -7 -0.8552 1.19717   3

  -2  -6  -7 0.29204 0.32553   1

  -2  -6  -7 0.87838 0.99485   2

   2   6   7 0.23670 1.23657   2

   2   6   7 -0.7083 1.09581   3

  -3  -6  -7 -0.5266 1.09045   1

  -3  -6  -7 -1.2173 1.25315   2

   3   6   7 1.08181 1.34032   3

   3   6   7 -0.4308 0.91171   1

  -4  -6  -7 0.28686 2.11899   2

   4   6   7 1.49355 2.74757   3

   4   6   7 -1.0807 1.74056   1

   2  -7  -7 11.3469 1.89649   1

  -2   7   7 6.69736 1.88557   1

   1  -7  -7 0.93562 1.33822   2

   1  -7  -7 0.14770 0.98659   1

   1  -7  -7 -0.2422 0.45195   3

  -1   7   7 0.31045 0.93527   1

   0  -7  -7 426.681 11.9469   1

   0  -7  -7 448.837 12.7167   2

   0  -7  -7 393.366 12.7799   2

   0  -7  -7 420.646 12.4161   3

   0   7   7 427.519 12.2690   3

  -1  -7  -7 183.511 5.79299   2

  -1  -7  -7 169.667 5.60146   3

   1   7   7 169.538 5.60460   3

  -2  -7  -7 7.13803 1.60564   3

  -2  -7  -7 4.79101 1.19175   2

   2   7   7 5.84571 1.38087   3

  -3  -7  -7 9.47529 1.65991   2

  -3  -7  -7 13.1751 1.06751   1

   3   7   7 13.4219 1.83973   3

   3   7   7 12.9800 1.01838   1

   1  -8  -7 29.8070 2.05850   1

   1  -8  -7 32.2709 2.74859   2

  -1   8   7 29.8774 2.14839   1

  -1   8   7 29.4334 1.70863   3

   0  -8  -7 1.01536 1.16925   2

   0  -8  -7 0.61328 1.10745   3

   0   8   7 3.19348 1.02178   3

  -1  -8  -7 0.47924 1.43799   3

  -1  -8  -7 1.61841 1.16854   2

   1   8   7 -0.2819 1.13805   3

  -2  -8  -7 0.28671 1.24320   2

   2   8   7 2.31057 1.43090   3

  -3  -8  -7 2.11799 1.73142   2

   3   8   7 1.10741 1.69535   3

   1  -9  -7 2.13535 1.67409   2

   0  -9  -7 0.51029 1.37785   2

   0  -9  -7 2.14252 1.47679   3

   0   9   7 2.36188 1.20224   3

  -1  -9  -7 105.828 4.48962   3

  -1  -9  -7 115.352 4.44492   2

   1   9   7 117.337 4.27417   3

  -2  -9  -7 198.930 6.82121   2

   2   9   7 209.286 6.96303   3

  -3  -9  -7 1.68070 1.79200   2

   3   9   7 4.85640 2.10293   3

   0 -10  -7 12.7132 2.01483   2

   0  10   7 20.3704 1.95367   3

  -1 -10  -7 40.3323 3.98196   3

  -1 -10  -7 34.0037 2.86430   2

   1  10   7 37.1214 2.86414   3

  -2 -10  -7 -1.2330 1.64775   2

   2  10   7 -0.3169 1.89334   3

   1   7  -8 2.03699 1.60926   3

   1   7  -8 1.60004 1.53465   1

  -1  -7   8 3.51008 1.84420   2

   0   7  -8 -0.3995 1.50504   3

   0   7  -8 -0.3376 1.33700   1

  -1   7  -8 7.58530 1.53387   1

  -1   7  -8 7.21457 1.66514   3

   2   6  -8 -0.1414 1.67077   1

   2   6  -8 -3.1237 1.64950   3

  -2  -6   8 -0.3172 2.13088   2

   1   6  -8 14.4981 1.85534   3

   1   6  -8 12.0104 2.03452   2

   1   6  -8 9.75059 1.51317   1

  -1  -6   8 12.7960 1.87753   2

   0   6  -8 68.8857 3.16750   3

   0   6  -8 62.9683 2.74032   1

   0   6  -8 51.4802 3.54036   2

   0  -6   8 63.6446 2.69616   2

  -1   6  -8 -1.1070 1.05099   1

  -1   6  -8 -0.4383 1.28791   3

  -2   6  -8 20.2636 2.18926   3

   2   5  -8 229.223 7.65875   1

   2   5  -8 251.879 7.67212   3

  -2  -5   8 241.883 8.13279   2

   1   5  -8 200.122 6.49321   3

   1   5  -8 205.085 6.73737   2

   1   5  -8 200.771 6.39307   1

  -1  -5   8 197.738 7.02954   2

   0   5  -8 38.4907 2.20259   3

   0   5  -8 33.3141 2.43971   2

   0   5  -8 35.5858 2.03714   1

   0  -5   8 35.0698 2.05053   2

  -1   5  -8 13.4341 1.27335   1

  -1   5  -8 13.1333 1.58387   3

  -2   5  -8 -0.3493 1.29772   3

   2   4  -8 64.7686 2.86496   3

   2   4  -8 61.7889 2.83874   1

  -2  -4   8 58.2591 3.46251   3

  -2  -4   8 62.6696 3.62683   2

   1   4  -8 6.63942 1.10436   1

   1   4  -8 6.84724 1.73365   2

   1   4  -8 6.47136 1.19316   3

  -1  -4   8 6.05216 1.61901   3

   0   4  -8 7.97815 1.27019   3

   0   4  -8 7.97418 1.03554   1

   0   4  -8 6.92574 1.22783   2

   0   4  -8 6.42800 1.71384   1

   0  -4   8 6.52724 1.43915   3

   0  -4   8 7.58874 1.08393   2

  -1   4  -8 49.7025 1.72877   2

  -1   4  -8 46.2843 1.87974   2

  -1   4  -8 45.8338 2.50397   3

  -2   4  -8 18.7037 1.75618   3

   2  -4   8 13.1911 1.70252   1

  -3   4  -8 44.0460 3.22681   3

   3  -4   8 39.3420 3.03921   1

   2   3  -8 8.88699 1.22038   3

   2   3  -8 10.9804 1.46176   1

  -2  -3   8 12.5832 1.68294   3

  -2  -3   8 14.9708 2.12615   2

   1   3  -8 318.266 9.37109   1

   1   3  -8 316.050 9.60409   2

   1   3  -8 328.389 9.33876   3

  -1  -3   8 292.040 9.98425   2

  -1  -3   8 306.563 9.41226   3

   0   3  -8 484.519 13.9092   1

   0   3  -8 474.070 13.8652   2

   0   3  -8 489.444 13.9959   3

   0   3  -8 467.875 14.1100   1

   0  -3   8 476.793 13.9223   2

   0  -3   8 480.146 14.0263   3

  -1   3  -8 124.066 3.90500   2

  -1   3  -8 125.930 4.29985   3

  -1   3  -8 119.270 4.50408   1

  -1   3  -8 122.579 3.83097   2

  -2   3  -8 28.8149 2.00340   3

   2  -3   8 29.0458 2.09204   1

  -3   3  -8 0.61843 1.48884   3

   3  -3   8 -0.1236 1.69328   1

   3   2  -8 -1.2507 2.13314   1

  -3  -2   8 0.27334 2.21361   2

   2   2  -8 25.8212 1.62843   3

   2   2  -8 25.1947 1.87175   1

  -2  -2   8 24.0063 2.17054   2

  -2  -2   8 22.3479 2.06141   3

   1   2  -8 39.4415 2.67213   2

   1   2  -8 41.2364 1.89304   3

   1   2  -8 40.8576 1.98827   1

  -1  -2   8 40.3004 2.12427   3

  -1  -2   8 38.3579 3.19298   2

   0   2  -8 1.94084 0.74395   1

   0   2  -8 2.34346 0.85570   3

   0   2  -8 3.59846 1.32841   1

   0   2  -8 3.22137 1.13474   2

   0  -2   8 2.77146 0.93208   2

  -1   2  -8 -0.6768 1.39187   3

  -1   2  -8 2.19390 0.92855   2

  -1   2  -8 -0.2868 1.27467   1

  -1   2  -8 0.72624 1.02880   3

  -1   2  -8 0.90867 0.68863   2

  -2   2  -8 33.3289 2.61489   3

  -2   2  -8 34.2233 1.75368   2

  -2   2  -8 31.6813 1.44287   2

  -2   2  -8 32.3055 1.97357   3

  -2   2  -8 28.6095 2.38970   1

   2  -2   8 36.4771 2.11050   1

  -3   2  -8 27.9480 2.19437   3

  -3   2  -8 27.4064 1.50393   2

   3  -2   8 21.4336 2.13267   1

   3   1  -8 12.7638 2.22153   1

  -3  -1   8 18.5492 2.54826   2

   2   1  -8 1.51502 0.70264   3

   2   1  -8 -0.4461 1.08958   1

  -2  -1   8 0.68715 1.36365   2

   1   1  -8 12.8970 1.18917   1

   1   1  -8 13.2459 1.15309   3

   1   1  -8 13.3792 1.67558   2

   0   1  -8 156.584 4.99906   1

   0   1  -8 154.803 5.27486   1

   0   1  -8 168.696 5.04012   3

   0   1  -8 163.284 5.23949   2

   0  -1   8 155.635 5.17237   2

  -1   1  -8 924.260 25.7573   3

  -1   1  -8 925.803 25.5592   2

  -1   1  -8 880.206 25.6022   1

  -1   1  -8 904.982 25.8983   3

  -1   1  -8 861.407 25.7744   1

  -1   1  -8 923.891 25.6170   2

  -2   1  -8 166.267 6.28615   3

  -2   1  -8 170.106 5.51976   3

  -2   1  -8 162.121 5.80795   1

  -2   1  -8 167.709 5.10865   2

  -2   1  -8 166.710 5.28623   2

   2  -1   8 171.447 5.52521   1

  -3   1  -8 6.54507 1.39670   3

  -3   1  -8 8.35251 1.14011   2

   3  -1   8 4.29015 1.56056   1

   3   0  -8 24.1975 2.34866   1

  -3   0   8 24.3367 2.56481   2

   2   0  -8 1.35432 1.12472   1

   2   0  -8 1.10547 0.50950   3

  -2   0   8 2.14022 1.40207   2

   1   0  -8 18.7644 1.14548   3

   1   0  -8 21.1636 1.59826   1

   1   0  -8 23.3379 1.91727   2

  -1   0   8 19.6012 1.49838   1

  -1   0   8 24.0199 1.91224   2

   0   0  -8 0.48902 0.61915   1

   0   0  -8 -0.1676 0.97475   1

   0   0  -8 0.81080 0.62739   3

   0   0  -8 -0.0259 1.03250   2

   0   0  -8 1.65268 0.99396   3

  -1   0  -8 7.83297 1.38927   1

  -1   0  -8 7.43117 0.84450   1

  -1   0  -8 6.46945 0.92906   3

  -1   0  -8 9.05135 0.97632   2

  -1   0  -8 8.09227 1.19220   2

  -1   0  -8 7.86326 1.33064   3

  -2   0  -8 44.0971 2.59313   3

  -2   0  -8 42.6314 1.89424   2

  -2   0  -8 42.1537 2.75139   1

  -2   0  -8 40.9023 2.09527   3

  -2   0  -8 42.3272 2.33654   2

   2   0   8 39.8977 3.14042   1

  -3   0  -8 20.0735 1.77557   2

  -3   0  -8 18.5359 1.73918   3

   3   0   8 19.1987 1.96726   1

   3  -1  -8 12.3567 1.99550   1

  -3   1   8 15.2605 2.38981   2

   2  -1  -8 24.2100 1.98987   1

  -2   1   8 27.4667 2.24314   2

   1  -1  -8 10.3461 0.87500   3

   1  -1  -8 9.98121 0.81785   3

   1  -1  -8 8.20974 1.47252   2

   1  -1  -8 10.1925 1.07535   1

  -1   1   8 12.8440 1.29430   1

  -1   1   8 10.3544 1.35905   2

   0  -1  -8 0.20668 1.01541   1

   0  -1  -8 -0.6304 0.56501   3

   0  -1  -8 1.13179 0.85929   3

   0  -1  -8 0.13669 0.58918   1

   0  -1  -8 1.71912 1.07114   2

  -1  -1  -8 6.67496 1.25575   1

  -1  -1  -8 5.30120 1.13792   2

  -1  -1  -8 6.63806 0.90992   2

  -1  -1  -8 5.83363 1.11753   3

  -1  -1  -8 6.91230 0.79252   1

  -1  -1  -8 6.72287 0.90416   3

  -2  -1  -8 904.719 24.8404   2

  -2  -1  -8 843.704 25.1190   3

  -2  -1  -8 886.526 24.9593   2

  -2  -1  -8 855.860 24.9706   1

   2   1   8 881.057 24.8958   1

  -3  -1  -8 143.668 5.60086   1

  -3  -1  -8 157.565 4.95096   2

   3   1   8 144.811 5.12267   1

  -4  -1  -8 -0.7335 1.82956   2

  -4  -1  -8 2.98653 1.83028   3

   4   1   8 -2.7260 1.99095   1

   3  -2  -8 10.1714 2.13423   1

  -3   2   8 13.4880 3.06959   2

  -2   2   8 45.2216 2.90492   1

  -2   2   8 52.9002 2.89329   2

   1  -2  -8 1.51424 1.23289   2

   1  -2  -8 1.52237 0.82976   1

   1  -2  -8 2.90833 0.47196   3

   1  -2  -8 2.11290 0.36524   3

  -1   2   8 3.26321 1.09361   2

  -1   2   8 2.88400 1.07541   1

   0  -2  -8 4.93946 0.69061   1

   0  -2  -8 3.37960 0.81919   3

   0  -2  -8 4.35914 1.25147   2

   0  -2  -8 3.98437 0.66321   3

  -1  -2  -8 54.4883 1.98052   1

  -1  -2  -8 53.0335 2.36633   1

  -1  -2  -8 54.3117 2.26073   2

  -1  -2  -8 54.2305 2.61266   2

  -1  -2  -8 50.0311 2.36603   3

  -2  -2  -8 16.1780 1.71638   3

  -2  -2  -8 16.4169 1.56725   1

  -2  -2  -8 15.1647 1.26362   2

   2   2   8 16.6335 1.27837   1

  -3  -2  -8 57.3080 3.42596   1

  -3  -2  -8 50.1074 2.95843   2

   3   2   8 53.7097 2.80528   1

   3   2   8 53.2409 3.28052   2

  -4  -2  -8 2.19623 2.01094   2

   4   2   8 0.43682 2.05270   1

   2  -3  -8 4.95875 1.27034   1

  -2   3   8 1.54135 1.46416   1

  -2   3   8 4.88305 1.52631   2

   1  -3  -8 33.9686 2.45008   2

   1  -3  -8 32.5954 1.76654   1

  -1   3   8 35.6994 1.95984   1

  -1   3   8 33.9467 2.25855   2

   0  -3  -8 11.0847 0.94368   3

   0  -3  -8 10.8032 0.84901   1

   0  -3  -8 10.5055 1.39647   2

   0  -3  -8 12.5601 0.97696   3

  -1  -3  -8 0.73644 1.02196   3

  -1  -3  -8 2.08507 0.88611   2

  -1  -3  -8 1.39230 1.12104   2

  -1  -3  -8 1.64475 0.58211   1

  -1  -3  -8 2.16188 0.97217   1

  -2  -3  -8 9.17896 1.46352   3

  -2  -3  -8 7.11250 1.27931   1

  -2  -3  -8 9.01044 1.19256   2

   2   3   8 9.94768 1.39285   3

  -3  -3  -8 435.833 13.0405   1

  -3  -3  -8 447.158 13.0190   2

   3   3   8 435.800 12.9310   1

   3   3   8 438.567 13.3714   3

  -4  -3  -8 144.336 5.63989   2

   2  -4  -8 -0.4418 1.38005   1

  -2   4   8 2.49402 1.60836   1

  -2   4   8 1.42986 1.47556   2

   1  -4  -8 34.1215 2.58182   2

   1  -4  -8 35.5644 1.84076   1

  -1   4   8 36.0356 1.92999   1

   0  -4  -8 24.6192 1.39411   3

   0  -4  -8 24.4315 1.73406   2

   0  -4  -8 26.3977 1.28018   1

   0  -4  -8 24.4919 2.01262   2

  -1  -4  -8 -0.3568 1.27165   2

  -1  -4  -8 2.31191 0.88287   1

  -1  -4  -8 1.70051 0.50266   1

  -1  -4  -8 1.78720 1.01726   3

  -1  -4  -8 0.85956 0.87970   2

   1   4   8 1.94423 0.94032   3

  -2  -4  -8 50.4613 2.41593   1

  -2  -4  -8 55.5101 2.52409   2

  -2  -4  -8 51.4008 2.76523   3

   2   4   8 56.1084 2.67812   3

  -3  -4  -8 1.85090 1.26028   2

  -3  -4  -8 0.57361 1.57606   1

   3   4   8 0.43559 1.37828   3

   3   4   8 2.28632 1.86863   2

   3   4   8 0.75066 1.18823   1

  -4  -4  -8 14.7367 2.32221   2

   4   4   8 18.9820 3.60787   3

   4   4   8 12.3270 2.14488   1

   2  -5  -8 27.4249 2.08831   1

  -2   5   8 27.0228 2.20974   1

   1  -5  -8 16.6321 1.32447   1

  -1   5   8 12.7770 1.28511   1

   0  -5  -8 57.6046 2.67046   2

   0  -5  -8 57.1515 2.18786   3

   0  -5  -8 59.4957 3.16881   2

   0  -5  -8 60.5428 2.09029   1

  -1  -5  -8 0.80732 1.00475   3

  -1  -5  -8 0.41948 1.35344   2

  -1  -5  -8 0.40582 0.43904   1

  -1  -5  -8 1.67910 0.94043   2

  -1  -5  -8 0.42861 0.75735   1

   1   5   8 0.68804 0.91041   3

  -2  -5  -8 -0.0286 0.85210   1

  -2  -5  -8 -0.5331 0.96351   2

  -2  -5  -8 -0.0883 1.35090   3

   2   5   8 0.28694 1.12965   3

  -3  -5  -8 3.73907 1.44581   1

  -3  -5  -8 1.21446 1.44963   2

   3   5   8 2.15491 1.48237   3

   3   5   8 3.62450 1.11099   1

   2  -6  -8 20.2743 2.07541   1

  -2   6   8 18.4918 2.08044   1

   1  -6  -8 7.23164 1.17862   1

   1  -6  -8 10.5490 1.55334   2

  -1   6   8 5.43764 1.17197   1

   0  -6  -8 6.31753 1.77465   2

   0  -6  -8 6.89352 0.74856   1

   0  -6  -8 7.59099 0.99047   3

   0  -6  -8 5.43031 1.15373   2

   0   6   8 5.02931 0.91093   3

  -1  -6  -8 72.7967 2.92617   3

  -1  -6  -8 69.9787 2.15406   1

  -1  -6  -8 74.3013 3.01520   2

  -1  -6  -8 69.8469 3.39442   2

   1   6   8 65.6393 2.86861   3

  -2  -6  -8 1.49301 0.96579   1

  -2  -6  -8 1.73116 1.54714   3

  -2  -6  -8 2.32235 0.45217   1

  -2  -6  -8 0.76085 1.06787   2

   2   6   8 2.06701 1.32421   3

  -3  -6  -8 17.6514 1.93497   2

   3   6   8 21.5120 1.70975   1

   3   6   8 20.9965 2.24802   3

   1  -7  -8 1.45421 1.55183   2

   1  -7  -8 0.05757 1.11482   1

  -1   7   8 0.96726 1.15802   1

   0  -7  -8 61.6670 2.08761   1

   0  -7  -8 60.6977 3.09705   3

   0  -7  -8 63.3763 2.18640   1

   0  -7  -8 62.5192 2.88803   2

   0   7   8 59.4590 2.48595   3

  -1  -7  -8 43.2480 2.35266   2

  -1  -7  -8 46.1524 2.54617   3

   1   7   8 45.5288 2.40244   3

  -2  -7  -8 1.62734 1.16107   2

  -2  -7  -8 3.27139 1.72701   3

   2   7   8 1.42648 1.35895   3

  -3  -7  -8 1.82975 1.72111   2

   3   7   8 1.60809 1.66803   3

   1  -8  -8 58.6141 3.61443   2

   1  -8  -8 56.3617 2.72845   1

   0  -8  -8 15.4207 1.49687   3

   0  -8  -8 16.8337 1.88690   2

   0   8   8 17.9712 1.47056   3

  -1  -8  -8 2.80642 1.60026   3

  -1  -8  -8 2.63698 1.20520   2

   1   8   8 2.77822 2.28128   3

   2   8   8 58.2997 3.29530   3

  -3  -8  -8 -0.6628 2.07185   2

   3   8   8 0.24689 1.89111   3

   0  -9  -8 1.29283 1.53961   2

   0   9   8 0.23683 1.29566   3

  -1  -9  -8 40.5271 2.68601   2

  -1  -9  -8 42.6880 3.35568   3

   1   9   8 44.4531 2.76440   3

  -2  -9  -8 8.60482 1.73541   2

   2   9   8 6.96306 1.98316   3

  -1 -10  -8 1.18041 1.89407   2

   1  10   8 5.31175 1.76982   3

   1   6  -9 7.82082 1.63671   1

   1   6  -9 10.0721 1.95751   3

  -1  -6   9 7.16038 1.90929   2

   0   6  -9 7.26063 1.73197   3

   0   6  -9 10.8623 1.57605   1

  -1   6  -9 16.3753 2.15126   3

  -1   6  -9 15.1548 1.75807   1

   1   5  -9 3.80008 1.59371   3

   1   5  -9 1.18496 2.16285   2

   1   5  -9 1.13221 1.22018   1

  -1  -5   9 2.68117 1.67566   2

   0   5  -9 33.0043 2.50203   2

   0   5  -9 33.1700 2.17383   1

   0   5  -9 30.9042 2.50382   3

   0  -5   9 31.8874 2.26626   2

  -1   5  -9 2.69628 1.22456   1

  -1   5  -9 -0.9602 1.41615   3

  -2   5  -9 16.9644 2.02073   3

   2   4  -9 38.0385 2.78533   1

   2   4  -9 42.5225 2.71284   3

  -2  -4   9 42.4698 3.85234   2

   1   4  -9 65.8704 2.99750   3

   1   4  -9 61.3358 2.85775   1

  -1  -4   9 62.2916 3.53686   3

  -1  -4   9 66.2486 3.38743   2

   0   4  -9 35.0261 2.54851   2

   0   4  -9 31.2288 2.28877   3

   0   4  -9 34.1078 2.04389   1

   0  -4   9 30.2094 2.69401   3

   0  -4   9 29.5865 2.17830   2

  -1   4  -9 14.0854 1.29102   2

  -1   4  -9 18.5591 1.78548   3

  -1   4  -9 13.8545 1.18950   2

  -1   4  -9 15.8226 1.45705   1

  -2   4  -9 6.58013 1.54810   3

   2   3  -9 8.01403 1.63005   1

   2   3  -9 6.49051 1.36099   3

  -2  -3   9 8.29012 2.18052   2

   1   3  -9 179.144 5.71849   1

   1   3  -9 173.155 6.21647   2

  -1  -3   9 172.474 6.00597   2

  -1  -3   9 173.004 5.82145   3

   0   3  -9 7.28359 1.10997   1

   0   3  -9 7.61014 1.31415   3

   0   3  -9 8.60312 1.49939   2

   0  -3   9 7.91274 1.26001   2

  -1   3  -9 18.2407 1.72811   3

  -1   3  -9 17.4562 1.40984   2

  -1   3  -9 19.6279 1.40781   2

  -1   3  -9 19.2359 1.58862   1

  -2   3  -9 7.13159 1.55495   3

  -2   3  -9 7.30020 0.78886   2

  -3   3  -9 6.33485 2.79260   3

   3  -3   9 6.92333 2.32497   1

   2   2  -9 22.1566 1.81338   3

   2   2  -9 25.8226 2.15290   1

  -2  -2   9 20.7748 2.33380   2

   1   2  -9 13.4514 1.34630   1

   1   2  -9 12.7357 1.22478   3

   1   2  -9 12.0786 1.94713   2

  -1  -2   9 15.7182 1.82718   2

   0   2  -9 167.556 5.26892   3

   0   2  -9 164.233 5.41724   2

   0   2  -9 154.994 5.12878   1

   0   2  -9 153.949 5.66895   1

  -1   2  -9 47.5212 2.09589   2

  -1   2  -9 49.1513 2.28629   1

  -1   2  -9 48.4091 2.84038   2

  -1   2  -9 44.7591 3.24860   3

  -1   2  -9 48.8775 2.34838   3

  -1   2  -9 43.4961 2.92868   1

  -2   2  -9 13.1607 1.30841   2

  -2   2  -9 11.5879 1.54998   3

  -2   2  -9 15.2671 1.27000   2

  -3   2  -9 0.66815 1.46963   3

   3  -2   9 1.52781 1.98902   1

   2   1  -9 3.64701 0.87530   3

   2   1  -9 3.19258 1.29693   1

  -2  -1   9 2.29128 1.70861   2

   1   1  -9 9.52245 1.04544   3

   1   1  -9 9.80010 1.85386   2

   1   1  -9 8.88242 1.18989   1

  -1  -1   9 12.6807 1.63323   2

   0   1  -9 282.525 8.78415   2

   0   1  -9 298.896 8.58967   1

   0   1  -9 275.791 8.79946   1

   0   1  -9 286.931 8.57436   3

   0   1  -9 284.826 8.82713   3

  -1   1  -9 -0.6806 0.83623   2

  -1   1  -9 0.76445 1.57179   3

  -1   1  -9 0.06926 0.94334   3

  -1   1  -9 -0.2512 0.82891   1

  -1   1  -9 0.60613 1.20672   2

  -1   1  -9 -0.6848 1.48824   1

  -2   1  -9 11.3484 1.08115   2

  -2   1  -9 6.79296 2.16976   1

  -2   1  -9 7.17550 1.33880   3

  -3   1  -9 6.57656 1.50662   3

  -3   1  -9 6.18308 1.20434   2

   3  -1   9 7.10127 1.83142   1

   2   0  -9 17.0127 1.01288   3

   2   0  -9 18.2985 1.81761   1

  -2   0   9 15.1256 2.02803   2

   1   0  -9 34.1405 1.66056   3

   1   0  -9 35.7029 2.10321   3

   1   0  -9 37.4646 2.03825   1

   1   0  -9 34.5005 2.90872   2

  -1   0   9 40.9254 2.42097   2

   0   0  -9 5.01906 0.88447   3

   0   0  -9 7.50943 1.34692   3

   0   0  -9 4.68001 1.50907   1

   0   0  -9 6.27170 1.54708   2

  -1   0  -9 136.795 5.04704   1

  -1   0  -9 147.620 4.81683   3

  -1   0  -9 143.761 5.13293   1

  -1   0  -9 149.019 4.98806   2

  -1   0  -9 137.539 5.03927   3

  -1   0  -9 151.512 4.74317   2

  -2   0  -9 7.65616 1.90179   3

  -2   0  -9 9.36889 1.51793   2

  -2   0  -9 10.8719 1.14211   2

  -2   0  -9 11.5993 1.43844   3

  -2   0  -9 13.3388 2.14996   1

  -3   0  -9 16.3952 2.07408   2

  -3   0  -9 23.5401 2.01721   2

  -3   0  -9 20.1919 1.91944   3

   3   0   9 21.4664 2.17857   1

   2  -1  -9 17.9292 1.79202   1

  -2   1   9 19.1296 2.11195   2

   1  -1  -9 12.1880 1.01682   3

   1  -1  -9 7.75460 1.72389   2

   1  -1  -9 13.5999 1.33182   1

   1  -1  -9 12.4021 1.07837   3

  -1   1   9 13.4569 1.55499   1

  -1   1   9 12.5818 1.57126   2

   0  -1  -9 39.7307 2.63594   2

   0  -1  -9 40.5480 2.51695   1

   0  -1  -9 41.2528 1.86871   1

   0  -1  -9 38.8214 1.80658   3

   0  -1  -9 39.8508 2.21198   3

  -1  -1  -9 168.404 5.75781   1

  -1  -1  -9 179.467 5.38613   1

  -1  -1  -9 169.392 5.52664   3

  -1  -1  -9 179.554 5.56992   2

  -1  -1  -9 171.759 5.80429   3

  -1  -1  -9 173.278 5.79418   2

  -2  -1  -9 24.9068 1.77498   2

  -2  -1  -9 19.0957 2.06022   3

  -2  -1  -9 24.1992 2.25824   1

  -2  -1  -9 24.1010 1.87395   3

  -2  -1  -9 21.3152 1.90883   2

  -3  -1  -9 13.6867 1.53834   2

  -3  -1  -9 9.50186 1.48367   3

   3   1   9 13.8201 1.87852   1

   2  -2  -9 5.75043 1.60575   1

  -2   2   9 6.66944 1.69169   2

   1  -2  -9 45.0731 1.53050   3

   1  -2  -9 46.5296 2.17248   1

   1  -2  -9 41.8986 3.34115   2

   1  -2  -9 44.7944 1.65725   3

  -1   2   9 45.0044 2.72980   2

  -1   2   9 41.9541 2.39951   1

   0  -2  -9 17.7906 1.26312   3

   0  -2  -9 18.2025 1.65192   1

   0  -2  -9 19.0360 2.05729   3

   0  -2  -9 17.3288 1.31285   1

   0  -2  -9 16.0269 1.79425   2

  -1  -2  -9 17.3930 1.51207   2

  -1  -2  -9 17.8812 1.27962   1

  -1  -2  -9 16.6161 1.59360   3

  -1  -2  -9 15.5869 1.72842   2

  -1  -2  -9 16.6908 1.44597   3

  -1  -2  -9 16.3135 1.62295   1

  -2  -2  -9 40.7276 2.79274   2

  -2  -2  -9 38.2276 2.73502   1

  -2  -2  -9 40.7882 2.17804   2

  -2  -2  -9 36.1320 2.81119   3

  -3  -2  -9 4.79155 1.38677   2

  -3  -2  -9 5.90891 2.39910   1

   3   2   9 5.43087 1.58373   1

   2  -3  -9 1.69724 1.43022   1

  -2   3   9 0.92753 1.70739   2

  -1   3   9 64.3664 2.81086   1

   0  -3  -9 24.4893 2.04796   1

   0  -3  -9 24.5752 1.36787   3

   0  -3  -9 20.6956 1.95579   2

   0  -3  -9 22.3491 1.97817   2

   0  -3  -9 22.4110 1.39459   1

   0  -3  -9 23.1760 1.59446   3

  -1  -3  -9 36.5380 2.68855   2

  -1  -3  -9 35.3203 1.61431   1

  -1  -3  -9 35.6140 2.24462   1

  -1  -3  -9 37.2696 2.24220   3

  -1  -3  -9 31.3706 1.95435   2

  -2  -3  -9 16.2047 1.97431   2

  -2  -3  -9 17.9107 1.54343   2

  -2  -3  -9 15.7719 1.84124   3

  -2  -3  -9 21.4492 1.80941   1

  -3  -3  -9 76.3121 4.09898   1

  -3  -3  -9 74.7102 3.37264   2

   3   3   9 71.4182 3.23928   1

   2  -4  -9 12.5820 1.85349   1

  -2   4   9 13.4093 2.08178   2

   1  -4  -9 1.33481 1.04107   1

  -1   4   9 3.35130 1.30423   1

   0  -4  -9 77.2852 2.61154   3

   0  -4  -9 73.4432 2.64274   1

   0  -4  -9 78.1912 3.29258   2

   0  -4  -9 72.7695 3.02277   1

   0  -4  -9 75.7753 2.71217   3

  -1  -4  -9 6.59033 1.25555   1

  -1  -4  -9 6.07805 1.60052   2

  -1  -4  -9 6.49013 1.27695   2

  -1  -4  -9 6.71547 0.75767   1

  -1  -4  -9 5.20391 1.28059   3

  -2  -4  -9 34.4112 2.26395   2

  -2  -4  -9 33.0172 2.79051   3

  -2  -4  -9 33.3827 2.34600   1

  -2  -4  -9 36.7943 1.65384   1

   2   4   9 31.2201 2.37590   3

  -3  -4  -9 2.06761 1.88419   1

  -3  -4  -9 2.70565 1.58387   2

   3   4   9 5.46948 1.68579   3

   3   4   9 0.91362 1.30335   1

   2  -5  -9 3.58898 1.85529   1

   1  -5  -9 2.71354 1.12070   1

  -1   5   9 0.31098 1.28825   1

   0  -5  -9 78.5673 3.30764   2

   0  -5  -9 81.3073 2.74959   1

   0  -5  -9 78.7143 2.82164   3

  -1  -5  -9 11.4394 1.43410   3

  -1  -5  -9 12.7949 2.02847   2

  -1  -5  -9 11.9579 1.42331   2

  -1  -5  -9 12.1101 1.19678   1

  -1  -5  -9 13.6261 1.00385   1

   1   5   9 13.7239 1.40856   3

  -2  -5  -9 35.1486 2.07522   1

  -2  -5  -9 31.5832 2.80046   3

  -2  -5  -9 34.6759 1.53427   1

  -2  -5  -9 33.7496 2.32529   2

   2   5   9 30.6702 2.48470   3

  -3  -5  -9 -1.0686 1.60663   1

  -3  -5  -9 1.22047 1.50590   2

   3   5   9 0.12775 1.68395   3

   1  -6  -9 6.59606 1.57915   2

   1  -6  -9 5.17716 1.30904   1

  -1   6   9 3.88518 1.38307   1

   0  -6  -9 11.1401 1.16206   3

   0  -6  -9 10.9951 0.96337   1

   0  -6  -9 10.1493 1.25426   1

   0  -6  -9 9.57594 1.45238   2

  -1  -6  -9 43.5525 2.48080   3

  -1  -6  -9 45.4596 2.50972   2

  -1  -6  -9 39.8578 1.46298   1

  -1  -6  -9 40.0964 1.75878   1

   1   6   9 39.1140 2.37533   3

  -2  -6  -9 13.3135 1.70705   2

  -2  -6  -9 12.5956 1.05300   1

  -2  -6  -9 12.0143 0.92290   1

  -2  -6  -9 14.0017 2.09792   3

   2   6   9 13.6330 1.82990   3

  -3  -6  -9 21.8170 2.23905   2

   3   6   9 21.2957 2.48183   3

   1  -7  -9 -0.0935 1.30759   1

   1  -7  -9 -2.3025 1.71162   2

   0  -7  -9 -0.6261 0.73559   1

   0  -7  -9 0.20978 1.27033   2

   0  -7  -9 0.40827 1.00069   1

   0   7   9 0.01106 1.04345   3

  -1  -7  -9 28.7598 2.14161   3

  -1  -7  -9 28.7521 2.31868   2

   1   7   9 26.9717 2.26836   3

  -2  -7  -9 -0.4207 1.41084   2

   2   7   9 -1.2029 1.46786   3

  -3  -7  -9 31.6763 2.85657   2

   0  -8  -9 3.33412 1.57129   2

   0   8   9 4.05201 1.28881   3

  -1  -8  -9 24.7091 2.06489   2

  -1  -8  -9 21.6564 2.17088   3

   1   8   9 17.8887 1.84973   3

  -2  -8  -9 9.84475 1.75066   2

   2   8   9 7.67501 1.95557   3

   0  -9  -9 11.7795 2.19241   2

  -1  -9  -9 2.67392 1.59591   2

  -1  -9  -9 5.25207 2.27677   3

   1   9   9 3.84918 1.71890   3

  -2  -9  -9 1.56263 1.69209   2

   2   9   9 2.95015 2.05239   3

   0   5 -10 9.06531 1.95481   3

   0   5 -10 5.74268 1.48451   1

  -1   5 -10 4.69793 1.86014   3

  -1   5 -10 -0.2372 1.39716   1

   1   4 -10 -1.8202 1.27338   1

   1   4 -10 0.03847 1.51747   3

  -1  -4  10 -3.3814 1.77294   2

   0   4 -10 18.4663 1.92187   3

   0   4 -10 19.7793 1.77685   1

   0   4 -10 22.9374 2.21257   2

  -1   4 -10 4.98512 1.65879   3

  -1   4 -10 6.94771 1.61488   2

  -1   4 -10 6.00241 1.43240   1

  -2   4 -10 4.63451 1.93296   3

   1   3 -10 26.2816 2.27449   3

   1   3 -10 26.2361 1.97827   1

  -1  -3  10 28.3358 2.46018   2

   0   3 -10 0.08369 1.09570   1

   0   3 -10 0.43021 1.78502   2

   0   3 -10 1.04941 1.24479   3

  -1   3 -10 19.2257 1.78597   2

  -1   3 -10 20.3105 1.72573   1

  -1   3 -10 18.6749 1.71193   2

  -1   3 -10 19.9064 1.90152   3

  -2   3 -10 2.65011 1.59398   3

   2   2 -10 3.94951 1.86215   1

  -2  -2  10 2.37019 2.24289   2

   1   2 -10 18.1996 1.65412   1

   1   2 -10 19.1025 1.59649   3

  -1  -2  10 22.7740 2.30563   2

   0   2 -10 17.2415 1.64246   3

   0   2 -10 13.4282 1.41070   1

   0   2 -10 16.0129 2.04417   2

  -1   2 -10 12.9056 1.33511   2

  -1   2 -10 11.5891 1.68429   2

  -1   2 -10 10.4193 1.54359   3

  -1   2 -10 10.2129 1.35401   1

  -2   2 -10 20.5222 2.04653   3

  -2   2 -10 18.7814 1.62196   2

   2   1 -10 26.1574 2.28222   1

  -2  -1  10 31.7729 3.03947   2

   1   1 -10 2.45753 1.21328   1

   1   1 -10 -0.6954 1.67037   3

   1   1 -10 -0.1314 0.97830   3

  -1  -1  10 0.24125 1.52675   2

   0   1 -10 3.25204 1.16141   3

   0   1 -10 3.92107 1.79630   3

   0   1 -10 3.59765 1.81947   2

   0   1 -10 5.70248 1.17144   1

  -1   1 -10 16.7409 1.45265   1

  -1   1 -10 17.3030 3.51044   1

  -1   1 -10 16.0674 2.39309   3

  -1   1 -10 21.3956 1.73369   3

  -1   1 -10 15.2250 1.41300   2

  -1   1 -10 14.8574 1.80210   2

  -2   1 -10 39.6068 2.58002   3

  -2   1 -10 35.3021 2.72079   2

  -2   1 -10 40.3593 2.14224   2

  -3   1 -10 4.16334 1.76712   3

   3  -1  10 2.11026 2.16991   1

   2   0 -10 29.2002 2.34769   1

  -2   0  10 20.5358 2.63123   2

   1   0 -10 3.26633 0.90562   3

   1   0 -10 -0.0290 1.11048   1

   1   0 -10 2.65524 1.37482   3

  -1   0  10 1.45604 1.69110   2

   0   0 -10 0.17537 1.84466   1

   0   0 -10 2.72260 1.82784   2

   0   0 -10 -0.3546 0.97208   1

   0   0 -10 0.35043 0.89220   3

   0   0 -10 1.53777 1.55717   3

  -1   0 -10 53.3411 3.29815   1

  -1   0 -10 57.5609 2.67780   3

  -1   0 -10 59.7713 2.47382   1

  -1   0 -10 60.8619 3.25703   2

  -1   0 -10 59.5955 2.71570   2

  -1   0 -10 57.3743 3.51472   3

  -2   0 -10 1.65806 1.69470   2

  -2   0 -10 1.77009 1.29156   3

  -2   0 -10 1.59342 1.10986   2

  -3   0 -10 32.1502 2.47982   2

  -3   0 -10 35.1486 2.88697   3

   3   0  10 31.4422 2.59731   1

  -2   1  10 58.9115 3.76533   2

   1  -1 -10 24.2563 1.42453   3

   1  -1 -10 24.9495 1.83228   1

   1  -1 -10 23.8621 1.86726   3

  -1   1  10 27.7416 2.32422   2

   0  -1 -10 4.04213 0.94314   3

   0  -1 -10 5.93485 1.40777   3

   0  -1 -10 5.59019 1.87261   2

   0  -1 -10 6.94433 1.90082   1

   0  -1 -10 4.08316 1.08133   1

  -1  -1 -10 0.91718 1.06112   3

  -1  -1 -10 1.48514 1.75277   1

  -1  -1 -10 1.70649 1.72202   2

  -1  -1 -10 2.27111 0.96941   1

  -1  -1 -10 2.01845 1.68050   3

  -2  -1 -10 41.9910 3.16484   2

  -2  -1 -10 35.1807 2.84898   1

  -2  -1 -10 38.5609 2.34861   2

  -2  -1 -10 42.8593 2.51182   3

  -3  -1 -10 31.3922 2.49995   2

  -3  -1 -10 21.6123 2.71127   2

  -3  -1 -10 31.3837 2.72749   3

   3   1  10 32.6307 2.48570   1

   2  -2 -10 2.11729 1.69344   1

  -2   2  10 2.06449 1.98303   2

   1  -2 -10 28.4275 1.48626   3

   1  -2 -10 28.4934 1.26187   3

   1  -2 -10 33.2195 2.06950   1

   0  -2 -10 3.82215 0.89334   3

   0  -2 -10 2.22416 1.20065   3

   0  -2 -10 2.02239 1.72451   1

   0  -2 -10 1.87954 1.66781   2

  -1  -2 -10 14.0058 1.90781   1

  -1  -2 -10 11.2453 1.71298   3

  -1  -2 -10 14.4255 1.57384   3

  -1  -2 -10 14.1009 1.23700   1

  -1  -2 -10 10.3739 2.03115   2

  -1  -2 -10 14.1559 1.48971   2

  -2  -2 -10 54.7939 2.74928   2

  -2  -2 -10 58.1460 2.84994   3

  -2  -2 -10 53.2078 3.61757   2

  -2  -2 -10 54.6147 3.63923   1

  -3  -2 -10 3.63531 1.60302   2

  -3  -2 -10 4.93721 1.59819   3

   3   2  10 4.53651 1.65393   1

   2  -3 -10 20.2287 2.29058   1

  -2   3  10 15.6744 2.78825   2

   1  -3 -10 20.7090 1.65387   1

   0  -3 -10 31.8552 2.59579   1

   0  -3 -10 31.8907 2.05673   3

   0  -3 -10 30.8249 1.69981   3

   0  -3 -10 28.9787 1.80767   1

   0  -3 -10 34.3398 2.47252   2

  -1  -3 -10 5.96009 0.94261   1

  -1  -3 -10 6.51811 1.67022   1

  -1  -3 -10 5.53496 1.59067   3

  -1  -3 -10 2.16584 1.81383   2

  -1  -3 -10 3.54417 1.27095   2

  -1  -3 -10 5.73893 1.09708   3

  -2  -3 -10 2.30244 0.99448   1

  -2  -3 -10 1.75907 1.84490   1

  -2  -3 -10 -0.4132 2.01512   2

  -2  -3 -10 3.68872 1.34905   2

  -3  -3 -10 15.7751 1.92046   2

  -3  -3 -10 21.3626 2.87884   1

   1  -4 -10 3.98426 1.31633   1

  -1   4  10 -0.1677 1.57542   1

   0  -4 -10 8.39894 1.51983   2

   0  -4 -10 8.45576 1.66915   1

   0  -4 -10 8.18684 0.96187   3

   0  -4 -10 8.04458 1.36822   3

   0  -4 -10 10.5416 1.10329   1

  -1  -4 -10 15.3728 1.11550   1

  -1  -4 -10 12.1374 2.40037   2

  -1  -4 -10 11.8657 1.66877   1

  -1  -4 -10 14.0941 1.73457   3

  -1  -4 -10 16.0046 1.71198   2

  -2  -4 -10 7.50127 1.57152   2

  -2  -4 -10 5.69465 1.71050   1

  -2  -4 -10 8.06711 1.05726   1

  -3  -4 -10 9.26550 2.38699   1

  -3  -4 -10 9.48532 1.85237   2

   1  -5 -10 19.0625 1.68703   1

  -1   5  10 13.3588 1.82502   1

   0  -5 -10 -0.2316 0.81238   3

   0  -5 -10 -0.5552 0.84905   1

   0  -5 -10 -0.7201 1.01885   3

   0  -5 -10 -1.5070 1.49033   1

   0  -5 -10 1.57128 1.26875   2

  -1  -5 -10 51.0832 2.87096   3

  -1  -5 -10 51.9493 2.02045   1

  -1  -5 -10 49.8582 2.72119   2

  -1  -5 -10 50.4889 3.10768   1

  -2  -5 -10 -0.3865 1.36445   2

  -2  -5 -10 1.68643 0.83849   1

  -2  -5 -10 0.07868 1.53104   1

   2   5  10 -0.2086 1.58302   3

  -3  -5 -10 2.10919 1.86847   2

   3   5  10 -0.5779 2.10024   3

   1  -6 -10 34.1981 3.16299   2

   0  -6 -10 4.06582 1.19911   3

   0  -6 -10 1.75827 1.74841   1

   0  -6 -10 2.77847 1.48729   2

   0  -6 -10 2.01428 0.97583   1

  -1  -6 -10 -0.2390 1.37466   2

  -1  -6 -10 1.24109 1.13627   1

  -1  -6 -10 -1.6704 1.54152   3

  -1  -6 -10 0.19894 0.64854   1

   1   6  10 0.48543 1.42612   3

  -2  -6 -10 14.8858 1.92059   2

  -2  -6 -10 15.2919 1.21489   1

   2   6  10 22.0541 2.27011   3

  -3  -6 -10 1.45534 2.12587   2

   3   6  10 -0.0822 2.27719   3

   0  -7 -10 25.1203 2.23535   2

  -1  -7 -10 8.97681 1.92271   3

  -1  -7 -10 6.17470 1.61637   2

   1   7  10 8.46223 1.69512   3

  -2  -7 -10 32.4986 2.94120   2

   2   7  10 37.5213 3.17676   3

   0  -8 -10 16.5058 2.22581   2

  -1  -8 -10 -1.5220 1.46059   2

  -1  -8 -10 2.43469 2.13605   3

   1   8  10 0.37786 1.71204   3

  -2  -8 -10 1.06156 1.82160   2

   2   8  10 0.54059 2.03635   3

   0   3 -11 23.4540 2.12040   3

   0   3 -11 17.7506 1.80121   1

   0   3 -11 17.8143 2.62984   2

  -1   3 -11 58.5595 2.94074   2

  -1   3 -11 62.4650 3.19265   1

  -1   3 -11 58.0219 3.50577   3

   1   2 -11 5.56344 1.50321   3

   1   2 -11 8.23970 1.65016   1

  -1  -2  11 11.0152 2.31559   2

   0   2 -11 4.66891 2.33357   2

   0   2 -11 4.79980 1.40241   1

   0   2 -11 4.53967 1.48891   3

   0   2 -11 6.06212 3.05787   3

  -1   2 -11 -0.9947 1.92014   2

  -1   2 -11 -0.0048 1.59026   3

  -1   2 -11 0.49027 1.37117   1

  -1   2 -11 -1.6292 1.33605   2

  -2   2 -11 53.3650 3.48837   3

  -2   2 -11 46.5364 2.90722   1

   1   1 -11 8.00963 1.71391   1

   1   1 -11 8.72964 1.41130   3

  -1  -1  11 5.37947 2.17339   2

   0   1 -11 2.11368 1.32629   3

   0   1 -11 1.79073 2.22230   3

   0   1 -11 4.52722 2.29062   2

   0   1 -11 2.88189 1.29864   1

  -1   1 -11 36.0555 2.43544   1

  -1   1 -11 32.0761 2.96203   2

  -1   1 -11 35.6281 2.67087   2

  -1   1 -11 34.0380 2.59152   3

  -2   1 -11 23.1608 2.30304   3

  -2   1 -11 24.2552 2.19608   2

  -2   1 -11 19.1256 1.95714   1

   1   0 -11 7.18711 1.65017   1

   1   0 -11 6.14583 1.18631   3

  -1   0  11 8.55605 2.07097   2

   0   0 -11 1.37328 2.86151   2

   0   0 -11 2.76322 1.25169   1

   0   0 -11 5.07900 1.96942   3

  -1   0 -11 -0.9477 1.28112   3

  -1   0 -11 -0.7106 1.33372   2

  -1   0 -11 0.25096 1.23976   1

  -1   0 -11 -0.5241 2.06378   2

  -1   0 -11 1.79165 2.31595   3

  -2   0 -11 -0.7741 1.39457   1

  -2   0 -11 -0.7069 1.50418   3

  -2   0 -11 -1.0598 2.12349   2

  -2   0 -11 1.60642 1.42111   2

   1  -1 -11 17.7194 1.86309   1

   0  -1 -11 1.92661 1.70763   3

   0  -1 -11 1.67611 1.08927   3

   0  -1 -11 1.87829 1.17032   1

  -1  -1 -11 -1.1545 1.17322   1

  -1  -1 -11 0.09307 1.19689   3

  -1  -1 -11 1.36871 2.39349   1

  -1  -1 -11 0.49513 1.99867   3

  -1  -1 -11 1.40026 2.13502   2

  -1  -1 -11 1.04907 1.36443   2

  -2  -1 -11 16.0247 2.53546   2

  -2  -1 -11 16.8272 1.68159   1

  -2  -1 -11 14.1920 1.74484   2

  -2  -1 -11 13.6252 1.82863   3

   1  -2 -11 3.46859 1.54474   1

   0  -2 -11 4.20929 2.26309   1

   0  -2 -11 -0.4680 1.52653   3

   0  -2 -11 0.12890 1.12174   1

   0  -2 -11 -0.1101 0.99794   3

   0  -2 -11 1.90972 1.56466   2

  -1  -2 -11 7.60149 2.43829   2

  -1  -2 -11 8.31736 2.25372   1

  -1  -2 -11 6.33384 1.97465   3

  -1  -2 -11 9.49511 1.65518   2

  -1  -2 -11 7.10672 1.21753   1

  -1  -2 -11 5.54092 1.29169   3

  -2  -2 -11 7.67353 2.75497   1

  -2  -2 -11 6.51499 1.59654   2

  -2  -2 -11 7.14139 1.41117   1

  -2  -2 -11 6.05387 1.66060   3

  -2  -2 -11 6.15087 2.55774   2

   1  -3 -11 17.7174 1.80862   1

   0  -3 -11 29.0784 2.11188   1

   0  -3 -11 34.0929 2.73545   1

   0  -3 -11 33.7725 2.86903   2

   0  -3 -11 32.9283 2.38946   3

   0  -3 -11 30.1966 1.87410   3

  -1  -3 -11 1.10342 1.86585   3

  -1  -3 -11 1.74564 2.07277   1

  -1  -3 -11 0.51513 1.51563   2

  -1  -3 -11 -0.2463 1.19624   3

  -2  -3 -11 16.3269 1.52445   1

  -2  -3 -11 11.0180 2.52332   1

  -2  -3 -11 15.8521 1.87110   3

  -2  -3 -11 15.0141 1.90407   2

   0  -4 -11 6.62081 2.14978   1

   0  -4 -11 5.92051 1.06871   3

   0  -4 -11 5.27584 1.69659   2

   0  -4 -11 9.11677 1.44080   3

  -1  -4 -11 0.86519 1.94817   1

  -1  -4 -11 1.31826 1.16520   3

  -1  -4 -11 2.02852 0.99833   1

  -1  -4 -11 0.90349 1.54987   2

  -1  -4 -11 -0.4142 1.79298   3

  -2  -4 -11 16.8277 2.32207   1

  -2  -4 -11 19.1943 1.48563   1

  -2  -4 -11 16.9821 1.95006   2

   0  -5 -11 28.8418 1.80805   3

   0  -5 -11 30.8253 2.47851   1

   0  -5 -11 28.7678 2.01325   1

   0  -5 -11 24.2581 2.31122   2

  -1  -5 -11 12.1583 1.81702   2

  -1  -5 -11 14.4979 2.04113   3

  -1  -5 -11 13.5715 1.92476   1

  -1  -5 -11 13.5866 1.19890   1

  -2  -5 -11 2.48210 1.85943   2

  -2  -5 -11 0.21443 1.00527   1

   0  -6 -11 40.4050 2.37216   1

   0  -6 -11 34.5294 2.92502   2

  -1  -6 -11 26.3531 2.38276   2

  -1  -6 -11 29.8042 2.44519   3

  -2  -6 -11 -3.1664 1.72529   2

  -1  -7 -11 23.9901 2.40260   2

   0   1 -12 18.1340 1.99835   3

   0   1 -12 17.6910 1.99592   1

  -1   1 -12 35.5411 2.83224   1

  -1   1 -12 37.1626 3.07398   3

  -1   1 -12 35.8294 3.00093   2

   0   0 -12 23.4946 3.70709   3

   0   0 -12 23.0300 2.39847   2

   0   0 -12 28.1517 2.22729   1

   0   0 -12 25.2567 2.02275   3

  -1   0 -12 0.93299 1.72251   2

  -1   0 -12 1.76184 1.55751   3

  -1   0 -12 4.02195 2.82308   2

  -1   0 -12 1.85380 1.64069   1

   0  -1 -12 18.3302 1.78414   3

   0  -1 -12 17.5580 1.86191   1

   0  -1 -12 17.0286 2.27577   2

  -1  -1 -12 15.9085 1.84829   3

  -1  -1 -12 17.0054 2.07418   2

  -1  -1 -12 12.6189 1.70865   1

  -2  -1 -12 36.4406 3.29862   3

  -2  -1 -12 36.9934 3.08176   2

  -2  -1 -12 36.7020 2.94186   1

   0  -2 -12 25.1414 2.18568   3

   0  -2 -12 25.1087 2.59863   2

   0  -2 -12 30.3985 2.14522   1

  -1  -2 -12 10.4810 3.05415   3

  -1  -2 -12 13.0260 1.60404   1

  -1  -2 -12 14.1736 2.10736   2

  -1  -2 -12 8.95443 1.63378   3

  -2  -2 -12 5.55955 2.00606   3

  -2  -2 -12 3.80555 1.88578   2

  -2  -2 -12 6.48351 1.69603   1

   0  -3 -12 3.35211 2.09927   2

   0  -3 -12 1.27385 1.29707   3

   0  -3 -12 0.68147 1.44384   1

  -1  -3 -12 7.66032 1.60385   3

  -1  -3 -12 11.4870 2.04709   2

  -1  -3 -12 8.83650 2.50227   3

  -1  -3 -12 12.8372 2.95517   1

  -1  -3 -12 9.61271 1.50539   1

  -2  -3 -12 5.07923 1.89307   3

  -2  -3 -12 -0.7255 1.48141   1

  -2  -3 -12 0.48972 1.91720   2

   0  -4 -12 4.62005 2.01579   2

   0  -4 -12 7.94109 1.55644   1

  -1  -4 -12 12.2268 2.10227   2

  -1  -4 -12 13.7438 1.50684   1

  -1  -4 -12 9.58801 1.66079   3

  -1  -4 -12 11.3470 2.50493   3

  -1  -5 -12 3.53581 1.53830   3

  -1  -5 -12 -0.2364 1.85553   2

  -1  -5 -12 2.84842 1.78354   1

   0   0   0    0.00    0.00   0



 _exptl_absorpt_process_details 'SADABS 2014/4'

 _exptl_absorpt_correction_type   multiscan

 _exptl_absorpt_correction_T_max  0.9585

 _exptl_absorpt_correction_T_min  0.8994

 _exptl_special_details

 The following wavelength and cell were deduced by SADABS from the

 direction cosines etc. They are given here for emergency use only:

 CELL 0.71084    3.779    9.544   10.082   80.572   80.643   80.148

;
_shelx_hkl_checksum              54200
loop_
_space_group_symop_operation_xyz
'x, y, z'
'-x, -y, -z'
loop_
_atom_site_label
_atom_site_type_symbol
_atom_site_fract_x
_atom_site_fract_y
_atom_site_fract_z
_atom_site_U_iso_or_equiv
_atom_site_adp_type
_atom_site_occupancy
_atom_site_site_symmetry_order
_atom_site_calc_flag
_atom_site_refinement_flags_posn
_atom_site_refinement_flags_adp
C1 C 0.6048(4) 0.71205(14) 0.52035(13) 0.0177(3) Uani 1 1 d . .
H1 H 0.7536 0.6441 0.5751 0.021 Uiso 1 1 calc R U
C2 C 0.6070(3) 0.69870(13) 0.38026(13) 0.0151(3) Uani 1 1 d . .
C3 C 0.4487(3) 0.79419(13) 0.28585(12) 0.0157(3) Uani 1 1 d . .
H3 H 0.3149 0.8828 0.3082 0.019 Uiso 1 1 calc R U
C4 C 0.4858(3) 0.75965(13) 0.15202(12) 0.0149(3) Uani 1 1 d . .
C5 C 0.6729(3) 0.63145(13) 0.11975(12) 0.0157(3) Uani 1 1 d . .
H5 H 0.6942 0.6096 0.0300 0.019 Uiso 1 1 calc R U
C6 C 0.8356(3) 0.53076(14) 0.22065(13) 0.0159(3) Uani 1 1 d . .
C7 C 0.3549(4) 0.83958(14) -0.07376(12) 0.0181(3) Uani 1 1 d . .
H7A H 0.2219 0.9221 -0.1253 0.027 Uiso 1 1 calc R U
H7B H 0.2532 0.7528 -0.0774 0.027 Uiso 1 1 calc R U
H7C H 0.6108 0.8277 -0.1132 0.027 Uiso 1 1 calc R U
N1 N 0.3951(3) 0.81893(12) 0.57045(10) 0.0185(3) Uani 1 1 d . .
N2 N 0.2090(4) 0.91222(13) 0.61266(12) 0.0265(3) Uani 1 1 d . .
O1 O 0.7980(2) 0.57088(9) 0.35079(8) 0.0167(2) Uani 1 1 d . .
O2 O 1.0077(2) 0.41256(9) 0.20968(9) 0.0200(2) Uani 1 1 d . .
O3 O 0.3238(2) 0.86330(9) 0.06559(9) 0.0174(2) Uani 1 1 d . .
loop_
_atom_site_aniso_label
_atom_site_aniso_U_11
_atom_site_aniso_U_22
_atom_site_aniso_U_33
_atom_site_aniso_U_23
_atom_site_aniso_U_13
_atom_site_aniso_U_12
C1 0.0206(7) 0.0151(6) 0.0167(6) -0.0020(5) -0.0040(5) 0.0009(5)
C2 0.0139(6) 0.0142(6) 0.0175(6) -0.0038(5) -0.0007(5) -0.0027(5)
C3 0.0159(6) 0.0138(6) 0.0172(6) -0.0036(5) -0.0014(5) -0.0010(5)
C4 0.0129(6) 0.0150(6) 0.0170(6) 0.0006(5) -0.0036(5) -0.0040(5)
C5 0.0165(6) 0.0176(7) 0.0134(6) -0.0029(5) -0.0017(5) -0.0030(5)
C6 0.0156(6) 0.0170(7) 0.0153(6) -0.0039(5) -0.0004(5) -0.0037(5)
C7 0.0200(7) 0.0200(7) 0.0146(6) -0.0028(5) -0.0052(5) -0.0004(5)
N1 0.0239(6) 0.0198(6) 0.0121(5) -0.0016(4) -0.0052(4) -0.0025(5)
N2 0.0344(7) 0.0257(7) 0.0181(6) -0.0072(5) -0.0062(5) 0.0051(5)
O1 0.0204(5) 0.0142(5) 0.0146(5) -0.0026(4) -0.0037(4) 0.0014(4)
O2 0.0245(5) 0.0148(5) 0.0190(5) -0.0037(4) -0.0029(4) 0.0034(4)
O3 0.0215(5) 0.0156(5) 0.0148(5) -0.0018(4) -0.0057(4) 0.0012(4)
loop_
_atom_type_symbol
_atom_type_description
_atom_type_scat_dispersion_real
_atom_type_scat_dispersion_imag
_atom_type_scat_source
C C 0.0033 0.0016 'International Tables Vol C Tables 4.2.6.8 and 6.1.1.4'
H H 0.0000 0.0000 'International Tables Vol C Tables 4.2.6.8 and 6.1.1.4'
N N 0.0061 0.0033 'International Tables Vol C Tables 4.2.6.8 and 6.1.1.4'
O O 0.0106 0.0060 'International Tables Vol C Tables 4.2.6.8 and 6.1.1.4'
loop_
_geom_angle_atom_site_label_1
_geom_angle_atom_site_label_2
_geom_angle_atom_site_label_3
_geom_angle
N1 C1 C2 118.68(12)
N1 C1 H1 120.7
C2 C1 H1 120.7
C3 C2 O1 121.69(11)
C3 C2 C1 127.73(12)
O1 C2 C1 110.58(11)
C2 C3 C4 118.64(11)
C2 C3 H3 120.7
C4 C3 H3 120.7
O3 C4 C5 125.32(11)
O3 C4 C3 113.70(11)
C5 C4 C3 120.99(11)
C4 C5 C6 119.89(12)
C4 C5 H5 120.1
C6 C5 H5 120.1
O2 C6 O1 114.51(11)
O2 C6 C5 128.41(12)
O1 C6 C5 117.08(11)
O3 C7 H7A 109.5
O3 C7 H7B 109.5
H7A C7 H7B 109.5
O3 C7 H7C 109.5
H7A C7 H7C 109.5
H7B C7 H7C 109.5
N2 N1 C1 178.95(13)
C2 O1 C6 121.70(10)
C4 O3 C7 117.74(10)
loop_
_geom_bond_atom_site_label_1
_geom_bond_atom_site_label_2
_geom_bond_distance
C1 N1 1.2994(17)
C1 C2 1.4389(17)
C1 H1 0.9500
C2 C3 1.3462(18)
C2 O1 1.3595(15)
C3 C4 1.4219(17)
C3 H3 0.9500
C4 O3 1.3416(16)
C4 C5 1.3656(17)
C5 C6 1.4217(18)
C5 H5 0.9500
C6 O2 1.2152(15)
C6 O1 1.4064(15)
C7 O3 1.4439(14)
C7 H7A 0.9800
C7 H7B 0.9800
C7 H7C 0.9800
N1 N2 1.1329(16)
loop_
_geom_torsion_atom_site_label_1
_geom_torsion_atom_site_label_2
_geom_torsion_atom_site_label_3
_geom_torsion_atom_site_label_4
_geom_torsion
N1 C1 C2 C3 8.9(2)
N1 C1 C2 O1 -170.97(11)
O1 C2 C3 C4 -0.38(18)
C1 C2 C3 C4 179.74(12)
C2 C3 C4 O3 -178.77(11)
C2 C3 C4 C5 1.07(18)
O3 C4 C5 C6 179.42(11)
C3 C4 C5 C6 -0.39(18)
C4 C5 C6 O2 179.46(12)
C4 C5 C6 O1 -0.90(17)
C3 C2 O1 C6 -0.97(17)
C1 C2 O1 C6 178.92(10)
O2 C6 O1 C2 -178.71(10)
C5 C6 O1 C2 1.61(16)
C5 C4 O3 C7 -1.43(17)
C3 C4 O3 C7 178.40(10)
loop_
_refln_index_h
_refln_index_k
_refln_index_l
_refln_F_squared_calc
_refln_F_squared_meas
_refln_F_squared_sigma
_refln_observed_status
1 0 0 1094.69 1035.63 11.82 o
2 0 0 25.34 23.02 0.53 o
3 0 0 26.56 30.71 1.07 o
4 0 0 8.92 11.17 1.20 o
-4 1 0 1.29 0.37 0.95 o
-3 1 0 1.68 1.11 0.55 o
-2 1 0 11.96 11.99 0.55 o
-1 1 0 818.10 782.05 11.11 o
1 1 0 287.83 288.07 5.21 o
2 1 0 98.90 88.48 1.21 o
3 1 0 10.95 11.48 0.60 o
4 1 0 2.27 3.59 0.91 o
-4 2 0 19.61 19.87 1.03 o
-3 2 0 44.10 43.34 0.96 o
-2 2 0 6.85 6.29 0.32 o
-1 2 0 143.88 133.05 1.78 o
0 2 0 458.86 434.05 6.10 o
1 2 0 11214.43 11699.14 133.33 o
2 2 0 1013.70 1045.53 12.04 o
3 2 0 4.45 4.79 0.47 o
4 2 0 6.03 7.67 0.96 o
-4 3 0 3.59 3.68 0.94 o
-3 3 0 3.33 7.47 0.64 o
-2 3 0 82.07 80.45 1.17 o
-1 3 0 82.50 81.32 1.07 o
0 3 0 711.56 659.39 7.56 o
1 3 0 35.90 29.94 0.48 o
2 3 0 18.74 18.55 0.50 o
3 3 0 7.66 8.08 0.50 o
4 3 0 14.67 15.29 1.36 o
-4 4 0 3.01 3.59 1.60 o
-3 4 0 0.06 -0.53 0.53 o
-2 4 0 177.76 180.16 2.30 o
-1 4 0 36.42 42.82 0.76 o
0 4 0 306.52 295.89 3.47 o
1 4 0 42.44 40.70 0.63 o
2 4 0 1518.53 1582.76 18.15 o
3 4 0 758.48 761.85 8.95 o
4 4 0 0.02 0.71 0.94 o
-3 5 0 6.97 8.37 0.72 o
-2 5 0 39.09 39.62 1.41 o
-1 5 0 224.43 235.71 2.86 o
0 5 0 54.78 58.05 0.91 o
1 5 0 146.83 143.59 2.22 o
2 5 0 135.50 126.84 1.70 o
3 5 0 0.28 0.01 0.50 o
4 5 0 36.87 35.37 4.32 o
-3 6 0 0.73 -0.31 0.86 o
-2 6 0 6.51 6.25 0.51 o
-1 6 0 200.21 212.71 2.64 o
0 6 0 48.72 53.61 0.93 o
1 6 0 104.94 94.86 1.41 o
2 6 0 4.23 3.89 0.38 o
3 6 0 235.04 262.82 6.09 o
4 6 0 393.87 379.52 8.41 o
-3 7 0 20.80 21.52 1.28 o
-2 7 0 16.39 15.60 0.72 o
-1 7 0 18.91 19.58 0.62 o
0 7 0 126.59 134.64 1.96 o
1 7 0 0.33 0.36 0.29 o
2 7 0 64.17 65.73 1.13 o
3 7 0 84.91 85.37 1.85 o
4 7 0 0.00 -1.64 1.74 o
-2 8 0 1.27 0.88 0.60 o
-1 8 0 0.18 0.22 0.45 o
0 8 0 36.34 37.84 2.05 o
1 8 0 1.20 0.69 0.37 o
2 8 0 1.29 2.23 0.54 o
3 8 0 0.02 -0.79 0.79 o
-2 9 0 6.90 10.20 1.46 o
-1 9 0 2.69 2.68 0.57 o
0 9 0 4.26 5.61 0.53 o
1 9 0 13.57 14.15 0.62 o
2 9 0 19.05 21.36 0.92 o
3 9 0 43.26 48.41 1.92 o
-1 10 0 0.00 0.11 0.76 o
0 10 0 7.29 7.59 0.72 o
1 10 0 0.26 0.54 0.60 o
2 10 0 3.75 5.42 0.83 o
3 10 0 4.38 1.94 1.37 o
0 11 0 0.04 -0.01 0.95 o
1 11 0 23.73 22.26 1.15 o
2 11 0 0.21 0.14 2.38 o
-2 -11 1 5.34 4.40 1.70 o
-1 -11 1 3.95 4.07 0.92 o
0 -11 1 73.47 74.83 2.09 o
-2 -10 1 1.07 1.90 0.93 o
-1 -10 1 309.65 330.39 5.39 o
0 -10 1 150.65 152.69 2.69 o
1 -10 1 35.84 32.69 3.29 o
-3 -9 1 0.36 -0.63 1.11 o
-2 -9 1 11.05 10.91 1.03 o
-1 -9 1 25.48 26.42 0.91 o
0 -9 1 43.52 44.91 1.11 o
1 -9 1 61.44 61.59 1.23 o
2 -9 1 50.45 64.21 2.71 o
-3 -8 1 7.78 8.05 0.94 o
-2 -8 1 0.18 -0.32 0.54 o
-1 -8 1 40.90 37.42 0.88 o
0 -8 1 490.08 506.80 6.61 o
1 -8 1 375.17 379.76 4.60 o
2 -8 1 76.47 69.94 1.56 o
-4 -7 1 58.76 39.47 3.11 o
-3 -7 1 0.14 -0.27 0.86 o
-2 -7 1 0.00 0.06 0.43 o
-1 -7 1 27.20 26.33 0.74 o
0 -7 1 16.51 17.68 0.89 o
1 -7 1 44.44 45.33 0.87 o
2 -7 1 3.09 2.99 0.49 o
3 -7 1 43.02 48.54 2.84 o
-4 -6 1 31.52 29.49 1.79 o
-3 -6 1 77.42 75.71 1.45 o
-2 -6 1 11.46 11.03 0.51 o
-1 -6 1 4.00 3.14 0.33 o
0 -6 1 84.20 78.28 1.23 o
1 -6 1 264.52 260.03 3.17 o
2 -6 1 774.79 793.98 11.48 o
3 -6 1 79.80 75.59 1.91 o
-4 -5 1 64.08 59.87 2.21 o
-3 -5 1 260.96 246.92 3.52 o
-2 -5 1 12.07 11.71 0.46 o
-1 -5 1 2.85 3.31 0.34 o
0 -5 1 0.17 0.23 0.23 o
1 -5 1 6.45 7.92 0.37 o
2 -5 1 2.45 3.85 0.50 o
3 -5 1 32.03 32.82 1.08 o
-4 -4 1 13.59 13.49 1.16 o
-3 -4 1 185.25 179.15 2.41 o
-2 -4 1 360.52 361.53 4.33 o
-1 -4 1 20.76 19.21 0.44 o
0 -4 1 36.61 37.28 0.65 o
1 -4 1 48.55 44.89 0.69 o
2 -4 1 23.77 23.57 0.66 o
3 -4 1 875.26 899.85 11.93 o
4 -4 1 73.34 71.85 3.08 o
-4 -3 1 39.17 40.16 1.59 o
-3 -3 1 49.28 46.78 1.11 o
-2 -3 1 914.72 967.32 12.25 o
-1 -3 1 13.34 11.41 0.32 o
0 -3 1 2.44 1.30 0.15 o
1 -3 1 52.87 57.63 0.90 o
2 -3 1 61.17 61.10 0.96 o
3 -3 1 1.37 0.83 0.48 o
4 -3 1 61.98 61.83 2.98 o
-4 -2 1 20.81 21.12 1.13 o
-3 -2 1 1.09 1.75 0.43 o
-2 -2 1 526.94 519.21 6.98 o
-1 -2 1 671.96 664.68 7.65 o
0 -2 1 281.45 256.54 3.66 o
1 -2 1 4.31 7.61 0.30 o
2 -2 1 21.85 15.98 0.47 o
3 -2 1 0.07 0.33 0.44 o
4 -2 1 494.49 517.58 6.94 o
-4 -1 1 15.47 13.37 1.04 o
-3 -1 1 54.07 55.99 1.05 o
-2 -1 1 112.71 108.65 1.50 o
-1 -1 1 1661.10 1698.08 19.44 o
0 -1 1 218.88 209.42 2.96 o
1 -1 1 140.18 125.11 1.67 o
2 -1 1 4.24 4.53 0.35 o
3 -1 1 29.81 28.54 1.00 o
4 -1 1 0.01 0.58 0.94 o
-4 0 1 24.80 23.05 1.32 o
-3 0 1 137.69 133.19 2.93 o
-2 0 1 37.07 37.28 0.82 o
-1 0 1 672.41 625.47 7.18 o
1 0 1 977.75 968.18 11.07 o
2 0 1 32.78 31.34 0.61 o
3 0 1 19.80 15.95 1.01 o
4 0 1 0.15 -0.33 0.91 o
-4 1 1 11.82 14.97 1.27 o
-3 1 1 44.49 45.89 1.09 o
-2 1 1 35.15 39.75 0.77 o
-1 1 1 525.61 551.56 6.96 o
1 1 1 1058.12 1081.33 12.35 o
2 1 1 160.78 155.09 2.30 o
3 1 1 1.07 0.66 0.41 o
4 1 1 4.63 5.30 0.87 o
-4 2 1 9.43 9.43 0.95 o
-3 2 1 132.74 139.29 1.95 o
-2 2 1 368.16 355.78 4.23 o
-1 2 1 122.39 129.90 1.75 o
0 2 1 80.48 59.92 0.74 o
1 2 1 167.54 170.73 2.04 o
2 2 1 560.28 578.48 6.75 o
3 2 1 24.94 22.80 0.73 o
4 2 1 6.53 6.24 0.95 o
-4 3 1 19.41 20.43 2.22 o
-3 3 1 17.95 21.47 0.80 o
-2 3 1 64.65 73.75 1.10 o
-1 3 1 83.14 94.18 1.43 o
0 3 1 548.02 554.74 6.99 o
1 3 1 12.59 13.36 0.30 o
2 3 1 507.21 529.79 6.45 o
3 3 1 40.10 41.48 0.91 o
4 3 1 0.38 0.90 0.96 o
-4 4 1 10.46 11.78 1.85 o
-3 4 1 39.24 39.42 1.05 o
-2 4 1 246.01 256.07 3.15 o
-1 4 1 183.62 175.92 2.36 o
0 4 1 405.27 431.28 5.00 o
1 4 1 20.75 20.01 0.40 o
2 4 1 58.68 59.05 0.94 o
3 4 1 94.59 95.81 1.63 o
4 4 1 0.54 -0.46 1.01 o
-3 5 1 12.08 13.60 0.94 o
-2 5 1 1.42 0.57 0.48 o
-1 5 1 7.53 13.19 0.42 o
0 5 1 198.13 222.05 2.67 o
1 5 1 65.64 61.16 0.97 o
2 5 1 3.04 3.67 0.32 o
3 5 1 85.22 83.67 1.39 o
4 5 1 0.02 2.49 1.18 o
-3 6 1 0.08 0.01 0.85 o
-2 6 1 126.67 121.65 2.50 o
-1 6 1 149.48 152.65 1.97 o
0 6 1 0.13 -0.09 0.25 o
1 6 1 455.23 460.90 5.76 o
2 6 1 13.63 12.17 0.50 o
3 6 1 3.77 5.15 0.59 o
4 6 1 2.75 4.11 1.56 o
-3 7 1 0.00 0.32 1.24 o
-2 7 1 0.63 0.37 0.55 o
-1 7 1 59.85 53.87 1.18 o
0 7 1 12.17 9.85 0.52 o
1 7 1 164.85 174.96 2.22 o
2 7 1 3.79 3.28 0.41 o
3 7 1 3.52 4.34 0.71 o
4 7 1 6.91 8.09 1.38 o
-2 8 1 14.56 14.72 0.81 o
-1 8 1 146.96 141.70 2.78 o
0 8 1 60.65 60.35 1.59 o
1 8 1 18.76 19.45 0.62 o
2 8 1 181.09 183.22 2.70 o
3 8 1 12.41 10.79 0.85 o
-2 9 1 0.02 -0.41 0.85 o
-1 9 1 0.00 0.12 0.56 o
0 9 1 49.47 45.81 1.23 o
1 9 1 3.15 3.45 0.46 o
2 9 1 62.16 62.34 2.06 o
3 9 1 5.74 5.37 1.03 o
-1 10 1 10.01 9.71 0.98 o
0 10 1 53.43 56.05 1.31 o
1 10 1 53.16 56.55 1.28 o
2 10 1 6.78 6.88 0.81 o
3 10 1 35.61 42.78 4.50 o
-1 11 1 3.43 4.26 1.98 o
0 11 1 2.55 2.29 0.87 o
1 11 1 8.66 8.38 0.94 o
2 11 1 4.56 4.73 1.47 o
-1 -11 2 65.32 62.75 2.07 o
0 -11 2 2.98 1.84 1.20 o
-2 -10 2 46.55 47.31 1.65 o
-1 -10 2 11.29 10.50 0.83 o
0 -10 2 18.03 18.17 0.97 o
1 -10 2 0.79 -1.69 1.85 o
-3 -9 2 0.80 0.66 1.26 o
-2 -9 2 8.99 9.14 0.85 o
-1 -9 2 226.37 238.52 3.40 o
0 -9 2 284.14 289.48 3.97 o
1 -9 2 0.40 -0.56 0.96 o
2 -9 2 0.04 -0.66 1.39 o
-3 -8 2 0.00 -1.05 1.05 o
-2 -8 2 20.31 22.04 1.41 o
-1 -8 2 5.49 6.33 0.60 o
0 -8 2 113.89 111.37 1.62 o
1 -8 2 95.46 89.95 1.85 o
2 -8 2 0.02 0.93 1.24 o
-3 -7 2 0.40 1.30 0.85 o
-2 -7 2 10.25 9.61 1.18 o
-1 -7 2 26.09 26.39 0.86 o
0 -7 2 137.42 141.00 2.06 o
1 -7 2 677.83 697.44 8.96 o
2 -7 2 1.14 1.88 1.24 o
3 -7 2 0.39 1.64 1.53 o
-4 -6 2 28.43 25.19 1.68 o
-3 -6 2 55.13 59.80 1.44 o
-2 -6 2 11.91 11.63 0.77 o
-1 -6 2 64.96 62.31 1.24 o
0 -6 2 42.59 43.86 0.85 o
1 -6 2 236.79 224.34 2.76 o
2 -6 2 113.45 121.63 3.90 o
3 -6 2 2.12 2.04 1.90 o
-4 -5 2 49.07 49.06 2.21 o
-3 -5 2 0.32 0.33 0.55 o
-2 -5 2 3.71 3.85 0.39 o
-1 -5 2 11.18 10.97 0.43 o
0 -5 2 13.15 13.25 0.44 o
1 -5 2 73.02 76.29 1.42 o
2 -5 2 658.43 687.51 9.87 o
3 -5 2 27.55 26.76 1.23 o
-4 -4 2 0.30 1.20 1.13 o
-3 -4 2 20.68 20.12 0.97 o
-2 -4 2 66.06 63.52 1.02 o
-1 -4 2 305.71 301.44 3.59 o
0 -4 2 347.37 347.23 4.47 o
1 -4 2 168.92 173.93 2.73 o
2 -4 2 121.24 115.84 1.70 o
3 -4 2 19.72 19.65 0.75 o
4 -4 2 19.97 20.43 1.51 o
-4 -3 2 0.15 -0.75 0.95 o
-3 -3 2 39.14 40.08 0.97 o
-2 -3 2 131.94 135.58 1.78 o
-1 -3 2 93.63 94.03 1.24 o
0 -3 2 5.54 4.15 0.31 o
1 -3 2 14.56 14.29 0.58 o
2 -3 2 68.87 68.74 1.04 o
3 -3 2 257.45 258.75 3.29 o
4 -3 2 94.36 87.91 2.19 o
-4 -2 2 26.42 25.33 1.23 o
-3 -2 2 19.08 20.63 0.79 o
-2 -2 2 0.21 1.32 0.26 o
-1 -2 2 6.76 5.29 0.23 o
0 -2 2 1771.60 1769.04 22.20 o
1 -2 2 650.55 709.83 8.93 o
2 -2 2 132.29 126.08 1.85 o
3 -2 2 8.26 9.14 0.61 o
4 -2 2 1.23 0.89 0.96 o
-4 -1 2 13.80 11.87 1.00 o
-3 -1 2 2.29 3.08 0.56 o
-2 -1 2 5.80 6.78 0.42 o
-1 -1 2 1118.27 1144.81 13.10 o
0 -1 2 357.87 354.48 5.01 o
1 -1 2 51.27 51.24 0.79 o
2 -1 2 18.68 16.53 0.53 o
3 -1 2 41.21 39.67 1.14 o
4 -1 2 60.36 58.47 2.15 o
-4 0 2 129.69 133.98 4.26 o
-3 0 2 72.30 76.66 1.28 o
-2 0 2 84.88 88.72 1.22 o
-1 0 2 26.72 25.60 0.47 o
0 0 2 0.14 -0.06 0.11 o
1 0 2 1852.96 1857.81 21.23 o
2 0 2 148.70 144.41 1.85 o
3 0 2 103.61 100.76 1.57 o
4 0 2 2.68 3.16 0.94 o
-4 1 2 0.19 -1.06 1.35 o
-3 1 2 14.40 15.90 0.95 o
-2 1 2 68.72 74.63 1.18 o
-1 1 2 5.45 5.96 0.26 o
0 1 2 1532.44 1521.40 29.25 o
1 1 2 2.71 2.89 0.27 o
2 1 2 6.21 6.54 0.34 o
3 1 2 1.43 2.39 0.44 o
4 1 2 7.49 6.92 0.86 o
-4 2 2 7.41 6.35 1.04 o
-3 2 2 126.75 126.62 1.80 o
-2 2 2 296.73 320.85 4.19 o
-1 2 2 24.57 20.57 0.43 o
0 2 2 0.60 1.94 0.11 o
1 2 2 53.54 49.17 0.68 o
2 2 2 370.63 367.12 4.36 o
3 2 2 0.21 -0.11 0.41 o
4 2 2 91.03 92.58 2.80 o
-4 3 2 8.53 8.79 1.79 o
-3 3 2 9.58 9.53 0.72 o
-2 3 2 0.58 -0.07 0.26 o
-1 3 2 443.00 507.94 5.89 o
0 3 2 0.21 0.57 0.11 o
1 3 2 394.36 392.70 4.57 o
2 3 2 156.24 153.04 1.97 o
3 3 2 8.87 9.11 0.55 o
4 3 2 14.46 13.07 1.09 o
-3 4 2 11.44 11.86 0.81 o
-2 4 2 55.76 58.58 0.98 o
-1 4 2 578.51 638.64 8.09 o
0 4 2 0.94 1.61 0.17 o
1 4 2 139.13 135.95 1.86 o
2 4 2 59.91 60.43 0.93 o
3 4 2 26.51 26.40 0.84 o
4 4 2 14.07 15.07 1.13 o
-3 5 2 18.15 17.83 0.90 o
-2 5 2 20.77 21.85 0.70 o
-1 5 2 20.44 15.48 0.50 o
0 5 2 463.91 527.80 6.69 o
1 5 2 0.06 0.16 0.29 o
2 5 2 42.66 42.84 0.76 o
3 5 2 114.15 115.80 1.97 o
4 5 2 6.05 6.11 1.06 o
-3 6 2 60.02 61.98 1.77 o
-2 6 2 0.04 -0.38 0.52 o
-1 6 2 30.63 33.56 0.71 o
0 6 2 330.99 354.97 4.58 o
1 6 2 5.95 9.17 0.51 o
2 6 2 56.17 56.87 0.94 o
3 6 2 20.79 19.29 0.75 o
4 6 2 3.79 5.79 1.24 o
-3 7 2 0.00 -1.00 2.45 o
-2 7 2 3.05 2.55 0.66 o
-1 7 2 0.04 0.10 0.39 o
0 7 2 0.42 0.23 0.35 o
1 7 2 100.21 104.38 1.42 o
2 7 2 16.04 17.26 0.61 o
3 7 2 5.61 6.52 0.71 o
4 7 2 36.03 35.64 1.84 o
-2 8 2 17.54 14.73 0.95 o
-1 8 2 45.26 41.86 0.96 o
0 8 2 50.85 51.86 1.17 o
1 8 2 55.14 57.14 0.95 o
2 8 2 27.10 32.38 1.21 o
3 8 2 6.08 7.72 0.99 o
-2 9 2 7.84 8.51 0.99 o
-1 9 2 8.13 7.81 0.64 o
0 9 2 17.62 14.95 0.86 o
1 9 2 6.15 7.09 0.51 o
2 9 2 3.80 4.16 0.55 o
3 9 2 22.40 23.83 1.29 o
-1 10 2 0.01 -0.54 0.70 o
0 10 2 88.10 85.92 1.50 o
1 10 2 33.95 34.71 1.24 o
2 10 2 4.51 5.55 0.70 o
3 10 2 20.62 19.92 1.82 o
-1 11 2 13.94 12.89 1.55 o
0 11 2 17.95 15.78 1.42 o
1 11 2 18.66 17.41 3.05 o
2 11 2 1.10 0.22 1.39 o
-2 -10 3 7.26 5.64 1.22 o
-1 -10 3 121.11 122.56 3.93 o
0 -10 3 54.32 54.77 1.82 o
1 -10 3 16.00 14.08 2.32 o
-2 -9 3 8.52 7.48 0.95 o
-1 -9 3 168.30 172.27 3.32 o
0 -9 3 2.22 2.09 0.57 o
1 -9 3 0.08 0.79 1.53 o
2 -9 3 14.99 15.08 1.75 o
-3 -8 3 107.25 108.81 2.84 o
-2 -8 3 38.12 38.07 1.37 o
-1 -8 3 3.06 2.36 0.51 o
0 -8 3 180.90 180.87 2.40 o
1 -8 3 20.30 20.47 1.15 o
2 -8 3 57.16 63.88 2.59 o
-3 -7 3 0.14 1.08 0.99 o
-2 -7 3 30.19 27.82 1.00 o
-1 -7 3 1.49 1.23 0.44 o
0 -7 3 183.14 181.67 2.34 o
1 -7 3 39.26 37.98 1.51 o
2 -7 3 2.97 3.70 1.24 o
3 -7 3 1.58 2.47 2.47 o
-3 -6 3 1.21 2.38 0.86 o
-2 -6 3 336.82 343.10 8.52 o
-1 -6 3 45.95 49.30 0.97 o
0 -6 3 23.01 25.81 0.61 o
1 -6 3 118.78 123.87 2.19 o
2 -6 3 8.44 10.72 0.98 o
3 -6 3 108.28 120.75 3.58 o
-4 -5 3 6.12 5.68 1.76 o
-3 -5 3 31.45 29.99 1.04 o
-2 -5 3 3.99 4.87 0.45 o
-1 -5 3 173.54 165.58 2.37 o
0 -5 3 0.28 0.76 0.27 o
1 -5 3 66.42 66.56 1.45 o
2 -5 3 211.67 217.90 4.05 o
3 -5 3 10.58 10.73 1.05 o
-4 -4 3 8.28 3.81 1.45 o
-3 -4 3 3.21 2.79 0.56 o
-2 -4 3 11.55 12.41 0.59 o
-1 -4 3 899.36 903.50 10.45 o
0 -4 3 142.43 151.92 2.31 o
1 -4 3 78.22 85.65 1.53 o
2 -4 3 34.34 37.44 2.55 o
3 -4 3 54.36 55.87 1.35 o
4 -4 3 76.24 85.21 9.80 o
-4 -3 3 1.58 0.71 1.06 o
-3 -3 3 27.35 32.96 1.21 o
-2 -3 3 52.12 49.04 0.89 o
-1 -3 3 0.53 0.44 0.23 o
0 -3 3 307.37 328.09 4.23 o
1 -3 3 60.77 72.17 1.30 o
2 -3 3 4.82 4.97 0.29 o
3 -3 3 210.01 209.90 3.21 o
4 -3 3 1.04 -0.17 1.06 o
-4 -2 3 15.61 17.18 1.52 o
-3 -2 3 5.68 4.87 0.51 o
-2 -2 3 3.80 4.43 0.37 o
-1 -2 3 19.85 17.41 0.42 o
0 -2 3 1246.60 1330.35 15.21 o
1 -2 3 598.53 637.74 8.05 o
2 -2 3 23.61 24.58 0.56 o
3 -2 3 13.76 14.67 0.67 o
4 -2 3 37.62 37.61 1.46 o
-4 -1 3 16.38 16.11 1.27 o
-3 -1 3 0.01 -0.20 0.44 o
-2 -1 3 20.14 19.74 0.51 o
-1 -1 3 9.52 9.24 0.31 o
0 -1 3 282.56 280.95 3.60 o
1 -1 3 49.06 60.78 0.84 o
2 -1 3 230.37 242.03 3.32 o
3 -1 3 0.04 0.03 0.53 o
4 -1 3 82.94 84.51 2.05 o
-4 0 3 2.12 5.58 1.42 o
-3 0 3 58.03 56.43 1.10 o
-2 0 3 15.37 14.08 0.43 o
-1 0 3 219.88 213.77 2.55 o
0 0 3 5.92 6.49 0.27 o
1 0 3 294.48 311.33 4.00 o
2 0 3 647.59 679.52 9.68 o
3 0 3 0.86 4.58 0.54 o
4 0 3 12.54 10.77 1.33 o
-4 1 3 20.00 23.91 1.90 o
-3 1 3 38.06 37.93 1.48 o
-2 1 3 10.39 11.36 0.46 o
-1 1 3 4.65 4.28 0.31 o
0 1 3 24.56 26.77 0.45 o
1 1 3 560.26 559.81 6.47 o
2 1 3 13.05 11.68 0.45 o
3 1 3 169.85 173.51 2.32 o
4 1 3 1.27 1.26 0.86 o
-4 2 3 6.07 6.34 1.82 o
-3 2 3 2.37 1.82 0.47 o
-2 2 3 147.33 143.69 2.05 o
-1 2 3 73.95 72.25 1.24 o
0 2 3 513.58 514.18 6.57 o
1 2 3 0.22 0.27 0.16 o
2 2 3 5.19 6.78 0.35 o
3 2 3 269.51 270.03 3.39 o
4 2 3 5.58 4.81 0.95 o
-4 3 3 18.46 20.03 2.08 o
-3 3 3 47.09 45.42 1.69 o
-2 3 3 20.10 20.66 0.60 o
-1 3 3 0.14 0.40 0.17 o
0 3 3 10.59 14.39 0.38 o
1 3 3 30.61 32.45 0.54 o
2 3 3 91.91 87.90 1.23 o
3 3 3 2.80 7.14 0.53 o
4 3 3 42.97 43.55 1.58 o
-3 4 3 66.44 64.34 1.97 o
-2 4 3 25.78 25.26 0.60 o
-1 4 3 129.21 135.76 1.71 o
0 4 3 11.70 10.47 0.57 o
1 4 3 77.74 75.37 0.99 o
2 4 3 34.26 32.26 0.65 o
3 4 3 5.07 5.01 0.56 o
4 4 3 61.09 60.56 1.86 o
-3 5 3 90.54 83.85 2.51 o
-2 5 3 44.68 38.64 0.83 o
-1 5 3 13.67 10.38 0.41 o
0 5 3 35.16 33.72 0.58 o
1 5 3 11.83 12.18 0.54 o
2 5 3 0.60 0.16 0.27 o
3 5 3 0.76 0.77 0.56 o
4 5 3 2.08 2.62 1.00 o
-3 6 3 5.25 4.21 1.26 o
-2 6 3 233.66 219.46 3.08 o
-1 6 3 57.57 62.05 0.99 o
0 6 3 20.03 22.50 0.56 o
1 6 3 3.98 3.69 0.43 o
2 6 3 0.10 0.26 0.28 o
3 6 3 51.99 50.69 1.09 o
4 6 3 8.63 8.76 2.00 o
-3 7 3 19.46 22.35 2.39 o
-2 7 3 166.32 150.37 3.02 o
-1 7 3 44.27 40.81 0.86 o
0 7 3 73.03 67.44 1.08 o
1 7 3 24.94 25.52 0.84 o
2 7 3 10.68 11.29 0.46 o
3 7 3 7.39 7.58 0.68 o
4 7 3 3.43 2.72 1.12 o
-2 8 3 0.10 -0.50 0.79 o
-1 8 3 281.29 262.08 3.29 o
0 8 3 2.37 3.75 0.49 o
1 8 3 2.53 1.31 0.54 o
2 8 3 3.15 2.00 0.57 o
3 8 3 0.21 0.06 1.16 o
-2 9 3 42.69 51.02 2.53 o
-1 9 3 87.51 76.16 1.46 o
0 9 3 75.14 73.83 1.46 o
1 9 3 31.90 31.58 1.22 o
2 9 3 0.03 0.18 0.55 o
3 9 3 0.25 0.65 0.88 o
-1 10 3 2.24 1.38 0.80 o
0 10 3 136.63 132.65 1.93 o
1 10 3 35.98 34.80 1.60 o
2 10 3 4.49 4.48 1.20 o
3 10 3 0.21 -0.84 1.42 o
0 11 3 6.11 4.03 1.24 o
1 11 3 92.50 94.18 3.07 o
2 11 3 3.50 5.81 1.54 o
-1 -10 4 0.67 -1.01 1.01 o
0 -10 4 0.69 1.42 1.15 o
-2 -9 4 1.15 0.07 1.13 o
-1 -9 4 0.18 -0.63 0.71 o
0 -9 4 36.95 35.97 1.20 o
1 -9 4 0.26 -1.01 1.62 o
-3 -8 4 38.59 44.60 2.31 o
-2 -8 4 6.30 6.56 0.90 o
-1 -8 4 12.11 11.50 0.72 o
0 -8 4 28.44 27.18 0.97 o
1 -8 4 26.91 28.06 1.99 o
2 -8 4 115.25 125.21 3.67 o
-3 -7 4 18.57 20.06 1.41 o
-2 -7 4 16.93 15.63 0.85 o
-1 -7 4 17.32 15.96 1.14 o
0 -7 4 11.54 12.64 0.53 o
1 -7 4 70.78 66.00 1.92 o
2 -7 4 0.00 -0.65 1.13 o
-3 -6 4 11.69 10.09 1.05 o
-2 -6 4 75.10 73.93 1.35 o
-1 -6 4 55.57 55.43 1.03 o
0 -6 4 12.34 13.35 0.50 o
1 -6 4 58.71 55.67 2.42 o
2 -6 4 30.38 35.25 1.47 o
3 -6 4 60.14 67.10 2.83 o
-3 -5 4 9.71 8.88 0.89 o
-2 -5 4 0.16 0.39 0.47 o
-1 -5 4 91.08 100.54 1.58 o
0 -5 4 27.76 28.89 0.61 o
1 -5 4 9.97 11.02 0.66 o
2 -5 4 30.37 26.12 1.23 o
3 -5 4 9.46 8.67 1.33 o
-4 -4 4 0.44 -1.13 1.60 o
-3 -4 4 39.11 36.70 1.31 o
-2 -4 4 8.11 8.49 0.48 o
-1 -4 4 57.21 52.83 0.99 o
0 -4 4 348.39 364.79 4.33 o
1 -4 4 45.92 43.54 1.02 o
2 -4 4 20.10 19.29 1.20 o
3 -4 4 2.26 3.16 1.28 o
-4 -3 4 0.00 0.35 1.28 o
-3 -3 4 27.50 28.34 1.05 o
-2 -3 4 15.67 13.29 0.56 o
-1 -3 4 190.86 173.92 2.19 o
0 -3 4 329.57 354.31 4.19 o
1 -3 4 10.76 14.68 0.59 o
2 -3 4 2.59 1.99 0.51 o
3 -3 4 1.16 0.80 0.47 o
4 -3 4 32.11 29.66 1.98 o
-4 -2 4 2.05 2.50 2.35 o
-3 -2 4 10.14 11.04 0.61 o
-2 -2 4 160.85 155.44 2.03 o
-1 -2 4 26.47 26.38 0.55 o
0 -2 4 0.41 0.48 0.20 o
1 -2 4 693.89 736.88 10.44 o
2 -2 4 28.50 24.07 0.57 o
3 -2 4 0.21 -0.03 0.45 o
4 -2 4 1.58 2.11 1.04 o
-4 -1 4 1.02 -1.10 1.26 o
-3 -1 4 8.48 8.39 0.66 o
-2 -1 4 68.35 70.78 1.07 o
-1 -1 4 53.47 49.38 0.75 o
0 -1 4 754.47 748.71 10.48 o
1 -1 4 234.82 244.39 2.94 o
2 -1 4 20.07 25.16 0.58 o
3 -1 4 9.59 9.15 0.62 o
4 -1 4 0.41 1.04 0.91 o
-4 0 4 2.13 0.20 1.48 o
-3 0 4 7.79 8.22 0.52 o
-2 0 4 29.97 26.47 0.64 o
-1 0 4 225.21 228.49 2.74 o
0 0 4 445.84 484.76 8.44 o
1 0 4 13.20 11.30 0.60 o
2 0 4 348.55 353.82 4.63 o
3 0 4 0.91 1.24 0.60 o
4 0 4 0.25 0.64 1.20 o
-4 1 4 0.91 -0.52 2.01 o
-3 1 4 10.86 12.60 1.02 o
-2 1 4 12.19 12.50 0.44 o
-1 1 4 0.36 1.44 0.16 o
0 1 4 260.95 274.68 3.98 o
1 1 4 492.92 491.22 5.72 o
2 1 4 0.89 1.01 0.29 o
3 1 4 46.99 49.23 1.06 o
4 1 4 1.60 2.07 1.10 o
-4 2 4 3.06 1.67 1.83 o
-3 2 4 18.32 18.75 1.91 o
-2 2 4 4.15 4.63 0.52 o
-1 2 4 4.59 4.22 0.35 o
0 2 4 20.25 20.95 0.46 o
1 2 4 1085.66 1160.82 13.31 o
2 2 4 0.00 -0.10 0.31 o
3 2 4 31.73 28.93 0.98 o
4 2 4 15.04 13.94 1.10 o
-3 3 4 0.26 1.09 0.96 o
-2 3 4 42.82 45.38 1.16 o
-1 3 4 3.77 3.83 0.39 o
0 3 4 162.86 148.91 1.82 o
1 3 4 450.59 468.71 5.47 o
2 3 4 103.22 92.62 1.31 o
3 3 4 29.30 29.05 0.90 o
4 3 4 36.30 34.87 1.46 o
-3 4 4 8.64 8.18 1.20 o
-2 4 4 21.29 22.26 0.94 o
-1 4 4 1.31 1.27 0.21 o
0 4 4 2.65 3.51 0.20 o
1 4 4 22.36 20.40 0.50 o
2 4 4 621.25 627.58 7.34 o
3 4 4 5.32 4.27 0.58 o
4 4 4 0.30 0.79 1.10 o
-3 5 4 43.19 43.03 2.48 o
-2 5 4 2.57 1.54 0.66 o
-1 5 4 27.05 25.78 0.59 o
0 5 4 4.88 5.25 0.37 o
1 5 4 128.18 114.16 4.21 o
2 5 4 162.71 163.75 2.10 o
3 5 4 27.05 25.23 0.82 o
4 5 4 14.89 14.86 1.17 o
-3 6 4 92.43 90.04 3.37 o
-2 6 4 0.01 0.52 0.38 o
-1 6 4 1.38 1.31 0.31 o
0 6 4 26.25 23.95 0.49 o
1 6 4 0.02 -0.15 0.37 o
2 6 4 7.37 7.48 0.36 o
3 6 4 186.26 174.74 2.44 o
4 6 4 29.68 27.19 2.49 o
-2 7 4 11.98 8.80 0.64 o
-1 7 4 61.07 52.36 0.97 o
0 7 4 2.72 2.53 0.26 o
1 7 4 14.18 15.74 0.73 o
2 7 4 25.26 22.49 0.93 o
3 7 4 16.98 18.83 0.91 o
4 7 4 17.92 21.95 3.00 o
-2 8 4 34.81 29.84 1.34 o
-1 8 4 33.50 33.78 1.05 o
0 8 4 38.25 36.81 0.86 o
1 8 4 60.83 60.83 1.78 o
2 8 4 1.27 1.39 0.67 o
3 8 4 0.01 0.34 0.62 o
-2 9 4 27.86 29.68 4.47 o
-1 9 4 0.00 0.14 0.57 o
0 9 4 121.16 118.35 1.89 o
1 9 4 18.20 17.09 0.97 o
2 9 4 9.87 9.43 1.16 o
3 9 4 8.05 8.29 1.42 o
-1 10 4 3.65 2.80 0.83 o
0 10 4 58.87 55.92 1.75 o
1 10 4 28.66 29.50 2.86 o
2 10 4 27.95 26.11 3.65 o
3 10 4 0.50 1.24 1.60 o
0 11 4 0.04 0.94 1.30 o
1 11 4 72.96 77.51 2.86 o
2 11 4 3.22 2.00 1.57 o
-2 -9 5 2.85 1.66 1.23 o
-1 -9 5 3.35 2.73 0.87 o
0 -9 5 14.00 15.36 1.36 o
1 -9 5 3.86 5.46 1.99 o
-2 -8 5 1.82 1.88 1.08 o
-1 -8 5 0.01 -0.76 0.86 o
0 -8 5 0.84 0.99 0.55 o
1 -8 5 5.18 3.64 1.50 o
2 -8 5 20.23 21.96 1.88 o
-3 -7 5 25.49 22.13 1.57 o
-2 -7 5 1.28 2.00 0.82 o
-1 -7 5 0.05 -0.34 0.54 o
0 -7 5 1.77 2.16 0.45 o
1 -7 5 3.40 2.83 1.64 o
2 -7 5 12.17 8.91 1.38 o
-3 -6 5 2.96 2.88 1.11 o
-2 -6 5 24.27 23.57 1.36 o
-1 -6 5 16.28 16.00 0.67 o
0 -6 5 15.78 14.07 0.61 o
1 -6 5 8.01 6.43 1.05 o
2 -6 5 0.18 -0.28 1.44 o
3 -6 5 0.13 0.04 1.58 o
-3 -5 5 5.03 4.28 0.95 o
-2 -5 5 81.48 80.95 1.48 o
-1 -5 5 1.77 1.55 0.45 o
0 -5 5 8.08 10.14 0.44 o
1 -5 5 25.91 23.32 1.04 o
2 -5 5 0.00 0.04 0.80 o
3 -5 5 41.91 39.41 2.52 o
-3 -4 5 23.95 23.63 1.08 o
-2 -4 5 3.69 3.33 0.52 o
-1 -4 5 51.69 51.01 1.25 o
0 -4 5 30.34 26.65 0.60 o
1 -4 5 33.58 30.39 0.94 o
2 -4 5 10.60 9.77 1.17 o
3 -4 5 1.52 1.77 1.13 o
-3 -3 5 33.32 30.67 1.22 o
-2 -3 5 36.50 38.40 1.07 o
-1 -3 5 111.48 107.64 1.48 o
0 -3 5 7.07 8.77 0.40 o
1 -3 5 0.02 -0.02 0.28 o
2 -3 5 12.04 10.32 0.75 o
3 -3 5 1.04 0.88 0.46 o
4 -3 5 23.82 22.18 2.88 o
-3 -2 5 29.43 25.07 1.03 o
-2 -2 5 184.62 175.59 2.31 o
-1 -2 5 4.45 5.36 0.33 o
0 -2 5 4.88 5.53 0.30 o
1 -2 5 0.85 0.28 0.22 o
2 -2 5 6.53 6.43 0.43 o
3 -2 5 0.03 0.18 0.48 o
4 -2 5 13.47 13.42 1.84 o
-3 -1 5 11.08 11.11 0.70 o
-2 -1 5 6.39 7.05 0.40 o
-1 -1 5 293.16 309.46 3.70 o
0 -1 5 54.17 51.62 1.16 o
1 -1 5 112.51 111.87 1.72 o
2 -1 5 15.48 15.64 0.51 o
3 -1 5 0.00 0.00 0.48 o
4 -1 5 10.71 12.02 1.08 o
-3 0 5 40.01 37.71 1.02 o
-2 0 5 0.62 0.28 0.27 o
-1 0 5 800.05 825.82 9.54 o
0 0 5 26.50 18.92 0.54 o
1 0 5 16.56 15.91 0.46 o
2 0 5 17.73 18.76 0.60 o
3 0 5 0.12 0.52 0.63 o
4 0 5 4.91 4.46 1.26 o
-3 1 5 0.47 0.23 1.04 o
-2 1 5 63.95 58.30 1.84 o
-1 1 5 0.60 0.72 0.24 o
0 1 5 740.03 817.76 10.33 o
1 1 5 48.99 50.33 1.12 o
2 1 5 122.34 123.27 1.68 o
3 1 5 10.04 10.00 0.61 o
4 1 5 0.01 0.01 1.14 o
-3 2 5 3.69 3.06 1.20 o
-2 2 5 104.58 97.41 1.83 o
-1 2 5 52.88 49.06 1.01 o
0 2 5 1023.30 1111.73 18.02 o
1 2 5 0.27 0.25 0.29 o
2 2 5 0.03 -0.20 0.31 o
3 2 5 4.20 3.91 0.53 o
4 2 5 1.27 1.53 1.01 o
-3 3 5 44.70 48.29 2.37 o
-2 3 5 0.42 1.14 0.64 o
-1 3 5 103.33 99.22 1.70 o
0 3 5 44.34 42.48 0.76 o
1 3 5 344.82 362.31 4.72 o
2 3 5 130.77 134.80 1.79 o
3 3 5 25.37 26.24 0.88 o
4 3 5 0.01 -1.44 1.44 o
-3 4 5 13.76 15.24 1.68 o
-2 4 5 104.65 102.09 1.99 o
-1 4 5 210.14 198.06 3.08 o
0 4 5 74.29 71.66 0.99 o
1 4 5 216.19 219.15 2.66 o
2 4 5 37.47 36.20 0.74 o
3 4 5 11.04 9.25 0.59 o
4 4 5 2.42 1.43 1.06 o
-3 5 5 18.06 17.93 1.84 o
-2 5 5 169.49 166.39 2.89 o
-1 5 5 8.87 9.74 0.46 o
0 5 5 59.62 59.32 0.87 o
1 5 5 110.75 103.05 1.78 o
2 5 5 47.46 46.48 0.95 o
3 5 5 160.49 161.07 2.34 o
4 5 5 2.05 0.26 1.04 o
-3 6 5 7.58 5.30 1.83 o
-2 6 5 1.25 1.87 1.03 o
-1 6 5 269.90 258.37 3.17 o
0 6 5 127.99 120.43 1.57 o
1 6 5 70.49 68.63 1.38 o
2 6 5 3.39 3.28 0.31 o
3 6 5 51.15 49.34 1.45 o
4 6 5 10.72 10.12 1.16 o
-2 7 5 63.45 62.45 2.14 o
-1 7 5 175.66 175.78 2.30 o
0 7 5 0.01 0.07 0.28 o
1 7 5 48.54 51.86 1.57 o
2 7 5 75.85 70.78 1.61 o
3 7 5 13.53 13.56 0.75 o
4 7 5 97.08 92.09 4.73 o
-2 8 5 4.39 3.72 1.19 o
-1 8 5 2.98 1.88 0.56 o
0 8 5 197.54 193.19 3.17 o
1 8 5 2.39 2.13 0.71 o
2 8 5 74.80 73.64 1.72 o
3 8 5 3.25 2.46 0.59 o
-1 9 5 50.73 49.98 1.53 o
0 9 5 45.33 45.87 1.46 o
1 9 5 26.86 28.03 1.56 o
2 9 5 74.85 79.24 2.61 o
3 9 5 35.97 36.81 2.25 o
-1 10 5 0.73 2.22 1.22 o
0 10 5 20.15 19.08 1.24 o
1 10 5 59.90 57.03 3.10 o
2 10 5 26.70 26.85 1.81 o
3 10 5 54.25 56.15 2.81 o
0 11 5 17.72 18.55 3.06 o
1 11 5 0.21 -0.63 1.34 o
2 11 5 39.92 45.09 2.75 o
-1 -9 6 34.11 33.60 1.70 o
0 -9 6 5.56 5.01 1.31 o
-2 -8 6 21.02 22.02 1.94 o
-1 -8 6 27.79 26.58 1.15 o
0 -8 6 15.22 12.87 0.79 o
1 -8 6 10.22 11.22 1.99 o
-2 -7 6 21.47 24.48 1.40 o
-1 -7 6 2.67 1.51 0.73 o
0 -7 6 55.58 50.15 1.22 o
1 -7 6 14.47 12.94 1.76 o
2 -7 6 74.26 78.35 2.94 o
-3 -6 6 3.27 3.65 1.30 o
-2 -6 6 6.28 5.81 0.81 o
-1 -6 6 52.40 49.12 1.14 o
0 -6 6 10.10 15.12 0.62 o
1 -6 6 57.66 46.72 2.07 o
2 -6 6 6.36 6.20 2.14 o
-3 -5 6 3.83 1.49 1.26 o
-2 -5 6 25.39 24.98 1.17 o
-1 -5 6 84.59 82.78 1.62 o
0 -5 6 0.03 -0.16 0.39 o
1 -5 6 21.39 16.15 1.00 o
2 -5 6 65.79 57.30 2.16 o
3 -5 6 46.23 45.55 2.56 o
-3 -4 6 12.81 12.51 1.16 o
-2 -4 6 54.01 53.47 1.15 o
-1 -4 6 9.83 12.12 0.66 o
0 -4 6 58.80 60.01 1.02 o
1 -4 6 13.97 16.48 1.32 o
2 -4 6 133.23 122.19 2.36 o
3 -4 6 0.30 -0.33 1.13 o
-3 -3 6 128.48 135.01 3.88 o
-2 -3 6 12.48 11.42 0.60 o
-1 -3 6 29.72 28.92 0.81 o
0 -3 6 255.34 266.42 3.27 o
1 -3 6 3.74 3.54 0.36 o
2 -3 6 1.48 0.74 0.62 o
3 -3 6 117.14 103.57 2.70 o
-3 -2 6 2.83 3.88 1.06 o
-2 -2 6 49.05 47.06 0.97 o
-1 -2 6 155.49 155.26 2.13 o
0 -2 6 4.90 4.43 0.46 o
1 -2 6 54.69 62.57 1.17 o
2 -2 6 60.01 59.65 1.15 o
3 -2 6 108.96 104.36 2.28 o
4 -2 6 0.04 0.08 1.87 o
-3 -1 6 18.65 17.77 0.81 o
-2 -1 6 250.27 254.81 3.19 o
-1 -1 6 0.56 0.68 0.28 o
0 -1 6 127.50 138.72 1.97 o
1 -1 6 254.88 273.58 3.68 o
2 -1 6 0.05 0.15 0.37 o
3 -1 6 2.55 2.60 0.76 o
4 -1 6 80.44 76.66 2.35 o
-3 0 6 85.94 87.22 2.38 o
-2 0 6 1.00 1.87 0.32 o
-1 0 6 27.56 26.83 0.70 o
0 0 6 112.28 115.30 1.87 o
1 0 6 215.95 213.25 3.24 o
2 0 6 63.54 66.73 1.37 o
3 0 6 34.54 41.18 1.20 o
4 0 6 27.98 27.49 1.32 o
-3 1 6 6.16 7.97 2.12 o
-2 1 6 25.19 24.81 1.14 o
-1 1 6 211.88 223.20 2.73 o
0 1 6 194.99 201.94 8.71 o
1 1 6 300.30 312.27 6.62 o
2 1 6 51.41 50.72 1.03 o
3 1 6 5.83 5.06 0.73 o
4 1 6 6.35 7.58 1.26 o
-3 2 6 337.65 357.11 11.19 o
-2 2 6 217.06 220.72 4.13 o
-1 2 6 62.86 59.63 1.23 o
0 2 6 3.52 3.47 0.33 o
1 2 6 2.03 1.93 0.36 o
2 2 6 377.00 375.34 5.11 o
3 2 6 30.83 27.78 0.89 o
4 2 6 14.19 14.06 1.42 o
-3 3 6 69.23 73.46 2.95 o
-2 3 6 12.44 14.74 1.10 o
-1 3 6 23.93 20.77 0.75 o
0 3 6 69.11 84.92 1.65 o
1 3 6 460.44 490.61 6.30 o
2 3 6 166.58 163.70 2.17 o
3 3 6 6.03 5.07 0.60 o
4 3 6 3.48 2.93 1.17 o
-3 4 6 14.93 17.29 1.87 o
-2 4 6 375.48 376.12 6.65 o
-1 4 6 511.65 523.49 8.75 o
0 4 6 166.85 159.54 2.22 o
1 4 6 3.26 3.69 0.29 o
2 4 6 3.84 3.94 0.40 o
3 4 6 206.83 208.25 3.27 o
4 4 6 0.35 -1.03 1.03 o
-3 5 6 21.92 23.16 3.87 o
-2 5 6 24.71 23.10 1.65 o
-1 5 6 79.11 77.71 2.27 o
0 5 6 0.19 0.21 0.29 o
1 5 6 13.23 12.06 0.66 o
2 5 6 232.93 239.40 3.00 o
3 5 6 20.53 19.46 0.78 o
4 5 6 5.19 4.21 1.13 o
-2 6 6 7.49 7.22 1.22 o
-1 6 6 162.43 160.82 2.31 o
0 6 6 859.28 903.22 11.49 o
1 6 6 168.28 168.47 3.16 o
2 6 6 7.93 8.98 0.70 o
3 6 6 0.04 -0.31 0.61 o
4 6 6 59.76 64.68 2.42 o
-2 7 6 4.37 4.95 1.39 o
-1 7 6 3.62 5.09 0.55 o
0 7 6 164.81 166.09 3.53 o
1 7 6 28.61 29.12 1.19 o
2 7 6 1.15 0.78 0.68 o
3 7 6 54.94 51.85 1.32 o
4 7 6 0.45 -2.37 2.37 o
-2 8 6 18.31 17.68 1.82 o
-1 8 6 0.00 0.06 0.56 o
0 8 6 21.42 22.34 0.99 o
1 8 6 723.87 739.21 12.35 o
2 8 6 147.77 147.46 5.08 o
3 8 6 20.07 25.55 1.78 o
-1 9 6 0.22 0.25 0.89 o
0 9 6 35.51 41.28 1.62 o
1 9 6 98.82 104.67 2.52 o
2 9 6 16.03 18.44 1.48 o
3 9 6 2.48 3.75 1.45 o
-1 10 6 11.07 12.40 2.48 o
0 10 6 0.08 0.18 1.13 o
1 10 6 2.60 3.09 1.14 o
2 10 6 310.94 323.03 8.62 o
1 11 6 23.13 22.88 1.89 o
-1 -8 7 0.21 -1.06 1.33 o
0 -8 7 24.64 21.81 2.18 o
1 -8 7 1.32 3.73 1.36 o
-2 -7 7 16.75 17.71 1.42 o
-1 -7 7 41.29 36.45 1.47 o
0 -7 7 141.93 136.99 2.57 o
1 -7 7 0.23 -1.42 1.53 o
2 -7 7 11.85 12.82 2.45 o
-2 -6 7 50.40 51.33 1.92 o
-1 -6 7 32.20 32.04 1.32 o
0 -6 7 2.51 2.43 0.59 o
1 -6 7 76.49 69.23 3.37 o
2 -6 7 8.31 10.67 1.43 o
-2 -5 7 2.19 2.41 0.84 o
-1 -5 7 22.92 22.37 0.88 o
0 -5 7 21.87 20.09 0.74 o
1 -5 7 207.70 184.36 5.30 o
2 -5 7 4.27 5.48 1.15 o
3 -5 7 3.04 -1.12 1.82 o
-3 -4 7 23.15 27.00 3.02 o
-2 -4 7 0.88 1.29 0.69 o
-1 -4 7 196.19 195.19 2.84 o
0 -4 7 101.28 101.51 1.55 o
1 -4 7 0.12 0.22 0.33 o
2 -4 7 71.70 66.90 2.71 o
3 -4 7 1.39 2.10 1.38 o
-3 -3 7 0.05 -0.08 1.00 o
-2 -3 7 0.09 -0.57 0.57 o
-1 -3 7 44.31 46.05 1.21 o
0 -3 7 5.46 6.78 0.46 o
1 -3 7 17.65 16.72 0.71 o
2 -3 7 112.18 97.73 2.08 o
3 -3 7 32.74 32.57 2.52 o
-3 -2 7 6.04 7.35 0.97 o
-2 -2 7 6.75 7.58 0.58 o
-1 -2 7 50.37 50.63 1.21 o
0 -2 7 533.98 544.92 9.14 o
1 -2 7 169.02 171.86 3.08 o
2 -2 7 29.44 30.74 0.80 o
3 -2 7 24.16 21.40 1.22 o
-3 -1 7 5.05 5.78 1.33 o
-2 -1 7 32.87 32.61 0.86 o
-1 -1 7 38.81 37.13 0.79 o
0 -1 7 131.88 124.65 1.87 o
1 -1 7 0.40 -0.05 0.38 o
2 -1 7 11.94 12.00 0.55 o
3 -1 7 22.21 20.52 1.78 o
-3 0 7 2.93 4.74 1.40 o
-2 0 7 3.78 4.61 0.55 o
-1 0 7 0.95 1.11 0.36 o
0 0 7 228.95 230.63 2.87 o
1 0 7 573.85 584.84 7.55 o
2 0 7 241.27 243.39 3.42 o
3 0 7 63.33 65.20 1.45 o
4 0 7 9.51 10.76 2.16 o
-3 1 7 252.92 272.65 19.72 o
-2 1 7 25.47 27.62 1.26 o
-1 1 7 113.62 115.65 1.58 o
0 1 7 64.20 66.65 1.25 o
1 1 7 77.77 65.52 1.18 o
2 1 7 6.42 7.33 0.60 o
3 1 7 0.06 0.29 0.74 o
4 1 7 1.41 0.84 1.28 o
-3 2 7 17.70 18.03 1.78 o
-2 2 7 0.25 -0.03 0.68 o
-1 2 7 11.91 11.12 0.44 o
0 2 7 0.21 0.39 0.31 o
1 2 7 154.23 153.44 2.20 o
2 2 7 169.96 166.99 2.72 o
3 2 7 303.56 304.04 4.31 o
4 2 7 55.77 57.61 3.74 o
-3 3 7 48.01 48.95 3.41 o
-2 3 7 604.46 633.64 15.66 o
-1 3 7 48.76 47.44 1.32 o
0 3 7 87.93 99.57 1.95 o
1 3 7 0.51 0.55 0.31 o
2 3 7 3.27 2.51 0.44 o
3 3 7 41.92 43.53 1.75 o
4 3 7 12.81 14.50 2.41 o
-3 4 7 1.94 3.06 2.56 o
-2 4 7 44.90 45.01 1.71 o
-1 4 7 24.60 24.65 1.04 o
0 4 7 31.00 28.51 0.84 o
1 4 7 1.50 1.18 0.32 o
2 4 7 15.64 15.21 0.59 o
3 4 7 9.86 9.59 0.78 o
4 4 7 247.70 254.33 4.38 o
-2 5 7 5.18 5.45 1.02 o
-1 5 7 829.86 854.95 14.12 o
0 5 7 98.77 98.58 2.28 o
1 5 7 26.51 27.55 0.66 o
2 5 7 21.44 22.71 0.92 o
3 5 7 3.60 2.99 0.69 o
4 5 7 40.88 41.96 1.82 o
-2 6 7 31.33 28.72 3.43 o
-1 6 7 24.37 24.01 1.27 o
0 6 7 25.82 23.87 0.74 o
1 6 7 14.63 16.18 0.90 o
2 6 7 0.04 -0.09 0.32 o
3 6 7 0.01 -0.38 0.66 o
4 6 7 0.09 0.05 1.44 o
-2 7 7 8.75 11.46 2.77 o
-1 7 7 0.00 0.15 0.43 o
0 7 7 504.75 505.95 7.72 o
1 7 7 200.67 207.82 5.22 o
2 7 7 8.04 6.97 0.94 o
3 7 7 14.98 15.17 0.80 o
-1 8 7 34.68 35.85 1.24 o
0 8 7 1.83 2.01 0.91 o
1 8 7 0.40 0.72 0.85 o
2 8 7 0.37 1.46 1.21 o
3 8 7 1.35 1.92 1.44 o
-1 9 7 1.13 2.55 2.00 o
0 9 7 2.07 2.02 0.92 o
1 9 7 130.81 135.02 3.83 o
2 9 7 222.08 243.42 6.17 o
3 9 7 1.70 3.75 1.89 o
0 10 7 16.14 20.91 4.57 o
1 10 7 40.80 43.76 2.15 o
2 10 7 2.49 -0.96 1.48 o
-1 -7 8 2.03 2.77 1.13 o
0 -7 8 0.02 -0.44 1.19 o
1 -7 8 7.20 8.85 1.35 o
-2 -6 8 0.40 -1.23 1.23 o
-1 -6 8 13.79 14.62 1.07 o
0 -6 8 81.21 75.06 3.12 o
1 -6 8 0.05 -0.96 0.97 o
2 -6 8 23.60 24.16 2.61 o
-2 -5 8 276.70 287.76 6.53 o
-1 -5 8 239.91 239.69 3.96 o
0 -5 8 39.89 42.67 1.29 o
1 -5 8 17.05 15.88 1.18 o
2 -5 8 0.37 -0.42 1.55 o
-2 -4 8 71.81 74.18 1.87 o
-1 -4 8 8.65 7.78 0.80 o
0 -4 8 9.57 8.88 0.60 o
1 -4 8 61.64 56.92 1.49 o
2 -4 8 21.44 19.49 3.29 o
3 -4 8 44.41 49.71 2.80 o
-2 -3 8 12.02 13.59 1.32 o
-1 -3 8 356.04 373.51 6.07 o
0 -3 8 553.28 571.11 6.80 o
1 -3 8 143.03 146.80 2.45 o
2 -3 8 33.39 34.49 1.73 o
3 -3 8 0.03 0.32 1.33 o
-3 -2 8 0.33 -0.60 1.83 o
-2 -2 8 30.00 29.39 1.13 o
-1 -2 8 47.81 48.19 1.20 o
0 -2 8 3.44 3.17 0.50 o
1 -2 8 1.22 0.88 0.52 o
2 -2 8 41.10 39.26 1.02 o
3 -2 8 34.25 31.36 2.14 o
-3 -1 8 23.81 18.84 3.45 o
-2 -1 8 0.54 0.87 0.65 o
-1 -1 8 15.73 15.67 0.89 o
0 -1 8 184.47 190.86 2.98 o
1 -1 8 1033.37 1078.18 12.51 o
2 -1 8 193.76 199.82 2.70 o
3 -1 8 8.82 8.55 1.32 o
-3 0 8 21.32 28.93 2.07 o
-2 0 8 0.74 1.64 0.53 o
-1 0 8 21.74 24.82 1.11 o
0 0 8 0.63 0.68 0.42 o
1 0 8 9.36 9.31 0.51 o
2 0 8 50.88 50.24 1.15 o
3 0 8 20.56 23.00 1.25 o
-3 1 8 17.52 16.34 1.83 o
-2 1 8 28.04 30.70 1.94 o
-1 1 8 11.67 12.43 0.52 o
0 1 8 0.01 0.41 0.42 o
1 1 8 7.70 7.76 0.48 o
2 1 8 1024.68 1043.49 13.31 o
3 1 8 180.09 178.22 5.21 o
4 1 8 0.17 -0.10 1.79 o
-3 2 8 12.44 13.67 2.09 o
-2 2 8 57.91 58.88 4.58 o
-1 2 8 2.94 2.88 0.35 o
0 2 8 4.13 5.10 0.47 o
1 2 8 64.35 63.63 1.22 o
2 2 8 20.44 19.16 0.85 o
3 2 8 61.25 63.76 1.84 o
4 2 8 2.77 1.58 1.71 o
-2 3 8 4.48 4.73 1.22 o
-1 3 8 39.26 40.57 1.23 o
0 3 8 11.40 13.53 0.59 o
1 3 8 2.11 1.94 0.45 o
2 3 8 10.86 10.58 0.79 o
3 3 8 503.44 523.96 7.80 o
4 3 8 171.16 172.12 6.73 o
-2 4 8 1.58 1.30 1.02 o
-1 4 8 43.50 42.28 1.41 o
0 4 8 31.60 30.09 0.91 o
1 4 8 1.90 1.78 0.39 o
2 4 8 61.58 63.71 1.68 o
3 4 8 1.27 1.35 0.75 o
4 4 8 15.99 17.53 1.88 o
-2 5 8 34.27 32.48 1.81 o
-1 5 8 14.73 17.77 2.30 o
0 5 8 69.50 70.09 1.45 o
1 5 8 0.06 0.82 0.36 o
2 5 8 0.07 -0.12 0.61 o
3 5 8 5.10 3.31 0.80 o
-2 6 8 28.92 23.17 1.75 o
-1 6 8 7.56 9.28 1.59 o
0 6 8 7.12 7.74 0.53 o
1 6 8 88.28 84.07 1.48 o
2 6 8 2.19 2.29 0.43 o
3 6 8 22.73 24.16 1.33 o
-1 7 8 1.06 0.90 0.85 o
0 7 8 70.17 73.58 1.31 o
1 7 8 56.33 53.59 1.67 o
2 7 8 2.21 2.38 0.94 o
3 7 8 0.20 2.05 1.43 o
-1 8 8 58.91 68.21 2.60 o
0 8 8 19.13 20.06 1.09 o
1 8 8 2.60 3.25 1.06 o
2 8 8 63.17 69.52 3.93 o
3 8 8 0.05 -0.22 1.67 o
0 9 8 1.70 0.86 1.18 o
1 9 8 48.00 50.76 1.99 o
2 9 8 8.73 9.51 1.56 o
1 10 8 4.45 3.95 2.46 o
-1 -6 9 11.27 10.06 1.25 o
0 -6 9 8.84 11.42 2.15 o
1 -6 9 21.97 18.68 1.62 o
-1 -5 9 4.25 2.60 0.93 o
0 -5 9 37.18 38.54 1.40 o
1 -5 9 1.60 1.19 2.18 o
2 -5 9 20.51 20.23 2.41 o
-2 -4 9 45.01 48.76 2.07 o
-1 -4 9 76.42 76.23 1.88 o
0 -4 9 35.17 38.42 1.23 o
1 -4 9 17.85 18.19 1.11 o
2 -4 9 9.34 7.85 1.85 o
-2 -3 9 7.89 8.86 1.12 o
-1 -3 9 203.97 208.21 3.54 o
0 -3 9 7.63 9.29 0.76 o
1 -3 9 24.26 22.28 0.90 o
2 -3 9 7.73 8.66 0.84 o
3 -3 9 5.18 7.94 2.13 o
-2 -2 9 24.33 27.54 1.68 o
-1 -2 9 16.63 16.05 0.89 o
0 -2 9 190.73 191.37 3.93 o
1 -2 9 55.06 56.68 1.23 o
2 -2 9 17.35 16.36 1.19 o
3 -2 9 0.11 1.23 1.41 o
-2 -1 9 4.08 3.89 0.80 o
-1 -1 9 13.42 11.98 0.79 o
0 -1 9 346.76 341.20 4.65 o
1 -1 9 0.17 -0.11 0.51 o
2 -1 9 13.60 11.70 2.02 o
3 -1 9 7.83 7.77 1.00 o
-2 0 9 21.08 20.30 0.97 o
-1 0 9 45.49 43.40 1.25 o
0 0 9 7.11 6.99 0.73 o
1 0 9 175.66 172.68 2.67 o
2 0 9 12.17 12.88 0.95 o
3 0 9 19.73 24.73 1.45 o
-2 1 9 21.28 22.00 1.63 o
-1 1 9 15.12 14.83 0.65 o
0 1 9 53.14 47.74 1.14 o
1 1 9 208.40 207.37 2.74 o
2 1 9 29.69 27.46 1.16 o
3 1 9 14.65 14.83 1.57 o
-2 2 9 6.76 7.42 1.39 o
-1 2 9 59.32 53.27 1.01 o
0 2 9 24.66 21.05 0.82 o
1 2 9 23.85 20.16 0.73 o
2 2 9 50.15 46.88 1.54 o
3 2 9 4.88 6.28 1.14 o
-2 3 9 1.41 1.61 1.31 o
-1 3 9 81.06 76.75 3.35 o
0 3 9 30.69 27.62 0.80 o
1 3 9 50.69 41.84 1.10 o
2 3 9 25.24 21.68 1.36 o
3 3 9 85.04 88.08 2.42 o
-2 4 9 14.22 15.46 1.65 o
-1 4 9 3.15 2.66 1.20 o
0 4 9 98.86 90.01 1.51 o
1 4 9 10.22 7.65 0.60 o
2 4 9 44.73 41.11 1.16 o
3 4 9 3.03 3.25 0.94 o
-2 5 9 4.17 4.28 2.21 o
-1 5 9 4.32 1.90 1.43 o
0 5 9 97.51 95.01 2.02 o
1 5 9 15.42 15.24 0.65 o
2 5 9 43.27 40.28 1.12 o
3 5 9 0.40 0.14 1.10 o
-1 6 9 4.41 6.32 0.97 o
0 6 9 11.31 12.70 0.70 o
1 6 9 54.08 48.99 1.31 o
2 6 9 17.31 15.14 0.69 o
3 6 9 28.74 25.74 1.98 o
-1 7 9 0.32 -1.25 1.32 o
0 7 9 0.00 -0.08 0.57 o
1 7 9 30.36 33.63 1.54 o
2 7 9 0.01 -0.96 1.21 o
3 7 9 33.77 37.77 3.41 o
0 8 9 5.17 4.46 1.19 o
1 8 9 27.15 25.67 1.95 o
2 8 9 10.50 10.74 1.56 o
0 9 9 12.64 14.05 2.61 o
1 9 9 3.54 4.50 1.24 o
2 9 9 3.12 2.61 1.56 o
0 -5 10 8.68 8.74 1.98 o
1 -5 10 1.92 2.24 2.94 o
-1 -4 10 0.34 -1.02 1.02 o
0 -4 10 24.78 24.20 1.40 o
1 -4 10 5.35 7.27 1.07 o
2 -4 10 4.83 5.53 2.30 o
-1 -3 10 28.45 32.01 1.52 o
0 -3 10 0.31 0.61 0.89 o
1 -3 10 21.65 23.29 1.06 o
2 -3 10 1.65 3.16 1.90 o
-2 -2 10 4.41 3.86 1.71 o
-1 -2 10 24.10 23.41 1.43 o
0 -2 10 19.18 18.42 1.23 o
1 -2 10 13.50 13.64 0.87 o
2 -2 10 18.98 23.24 1.52 o
-2 -1 10 31.39 33.91 3.35 o
-1 -1 10 0.00 0.63 0.75 o
0 -1 10 3.52 5.29 0.83 o
1 -1 10 18.85 20.41 0.89 o
2 -1 10 44.85 46.38 1.68 o
3 -1 10 2.76 3.87 1.63 o
-2 0 10 26.05 31.11 5.17 o
-1 0 10 2.74 2.39 0.77 o
0 0 10 0.09 0.80 0.65 o
1 0 10 69.99 69.67 1.42 o
2 0 10 3.50 1.99 0.90 o
3 0 10 33.63 39.13 1.82 o
-2 1 10 60.04 70.25 4.49 o
-1 1 10 33.24 29.70 1.06 o
0 1 10 8.00 5.96 0.68 o
1 1 10 2.66 2.00 0.69 o
2 1 10 46.92 47.53 1.91 o
3 1 10 34.19 35.91 2.33 o
-2 2 10 0.26 2.50 1.54 o
-1 2 10 37.88 35.09 1.61 o
0 2 10 5.38 3.39 0.73 o
1 2 10 14.87 16.12 0.78 o
2 2 10 63.65 66.23 1.87 o
3 2 10 5.62 5.22 1.11 o
-2 3 10 16.73 22.26 2.72 o
-1 3 10 28.12 24.69 1.97 o
0 3 10 49.74 37.28 1.09 o
1 3 10 8.49 6.35 0.66 o
2 3 10 1.58 2.48 0.82 o
3 3 10 21.65 21.32 3.33 o
-1 4 10 1.13 2.51 2.48 o
0 4 10 12.42 10.66 0.66 o
1 4 10 19.18 17.33 0.93 o
2 4 10 9.47 9.00 0.93 o
3 4 10 12.47 11.21 1.75 o
-1 5 10 17.15 20.18 3.40 o
0 5 10 0.00 -0.35 0.54 o
1 5 10 72.16 60.90 1.53 o
2 5 10 2.13 0.61 0.71 o
3 5 10 1.03 1.01 1.66 o
-1 6 10 34.18 40.78 3.77 o
0 6 10 4.01 3.26 0.75 o
1 6 10 0.00 0.13 0.56 o
2 6 10 21.57 19.98 2.43 o
3 6 10 2.70 0.85 1.85 o
0 7 10 22.24 29.96 2.67 o
1 7 10 8.69 9.45 1.19 o
2 7 10 45.14 41.73 2.99 o
0 8 10 21.64 19.68 2.65 o
1 8 10 0.00 0.22 1.18 o
2 8 10 0.58 0.97 1.62 o
0 -3 11 23.60 23.86 2.22 o
1 -3 11 62.35 71.28 2.20 o
-1 -2 11 11.36 9.69 1.57 o
0 -2 11 5.21 5.82 1.07 o
1 -2 11 0.15 -0.63 0.90 o
2 -2 11 61.41 59.10 4.07 o
-1 -1 11 10.35 9.48 1.16 o
0 -1 11 2.76 3.26 0.96 o
1 -1 11 37.05 41.37 1.58 o
2 -1 11 25.75 26.40 1.73 o
-1 0 11 8.12 8.33 1.04 o
0 0 11 2.49 3.79 1.18 o
1 0 11 0.00 -0.20 0.80 o
2 0 11 1.67 -0.18 0.92 o
-1 1 11 19.07 21.13 2.22 o
0 1 11 2.01 2.16 0.86 o
1 1 11 1.50 0.42 0.74 o
2 1 11 17.39 18.17 1.12 o
-1 2 11 1.95 4.14 1.84 o
0 2 11 1.10 0.91 0.87 o
1 2 11 6.56 8.80 0.79 o
2 2 11 10.34 8.00 0.96 o
-1 3 11 19.27 21.13 2.16 o
0 3 11 36.37 37.66 1.23 o
1 3 11 0.48 0.74 0.93 o
2 3 11 15.20 18.32 1.11 o
0 4 11 5.92 8.35 0.91 o
1 4 11 0.28 1.32 0.72 o
2 4 11 18.37 21.62 1.26 o
0 5 11 31.09 33.86 1.27 o
1 5 11 18.20 16.08 0.97 o
2 5 11 0.16 1.20 1.35 o
0 6 11 37.74 45.66 3.50 o
1 6 11 26.75 33.56 2.06 o
2 6 11 0.27 -2.06 2.06 o
1 7 11 26.45 28.61 2.87 o
0 -1 12 20.03 21.36 1.68 o
1 -1 12 39.18 43.11 2.04 o
0 0 12 24.39 30.42 1.43 o
1 0 12 0.92 2.31 1.07 o
0 1 12 21.32 21.17 1.34 o
1 1 12 16.97 18.06 1.45 o
2 1 12 42.77 43.79 2.13 o
0 2 12 33.07 32.63 2.11 o
1 2 12 10.49 14.33 1.34 o
2 2 12 3.83 6.47 1.27 o
0 3 12 0.81 1.88 1.05 o
1 3 12 10.89 11.74 1.03 o
2 3 12 0.62 1.69 1.89 o
0 4 12 8.43 8.23 1.98 o
1 4 12 16.64 14.45 1.09 o
1 5 12 4.52 2.57 1.26 o
