#------------------------------------------------------------------------------
#$Date: 2019-11-23 17:53:45 +0200 (Sat, 23 Nov 2019) $
#$Revision: 234309 $
#$URL: file:///home/coder/svn-repositories/cod/cif/4/03/61/4036149.cif $
#------------------------------------------------------------------------------
#
# This file is available in the Crystallography Open Database (COD),
# http://www.crystallography.net/
#
# All data on this site have been placed in the public domain by the
# contributors.
#
data_4036149
loop_
_publ_author_name
'Lebel, H\'el\`ene'
'Piras, Henri'
_publ_section_title
;
 Stereoselective synthesis of chiral sulfilimines from
 N-mesyloxycarbamates: metal-nitrenes versus metal-nitrenoids species.
;
_journal_issue                   7
_journal_name_full               'The Journal of organic chemistry'
_journal_page_first              3572
_journal_page_last               3585
_journal_paper_doi               10.1021/acs.joc.5b00256
_journal_volume                  80
_journal_year                    2015
_chemical_absolute_configuration rmad
_chemical_formula_moiety         'C14 H18 Cl3 N O2 S'
_chemical_formula_sum            'C14 H18 Cl3 N O2 S'
_chemical_formula_weight         370.70
_space_group_crystal_system      monoclinic
_space_group_IT_number           4
_space_group_name_Hall           'P 2yb'
_space_group_name_H-M_alt        'P 1 21 1'
_atom_sites_solution_hydrogens   geom
_atom_sites_solution_primary     direct
_audit_creation_date             2013-08-22
_audit_creation_method
;
  Olex2 1.2
  (compiled Apr 23 2013 17:59:47, GUI svn.r4466)
;
_cell_angle_alpha                90
_cell_angle_beta                 105.9270(10)
_cell_angle_gamma                90
_cell_formula_units_Z            2
_cell_length_a                   10.7230(4)
_cell_length_b                   6.0550(2)
_cell_length_c                   13.7208(5)
_cell_measurement_reflns_used    9935
_cell_measurement_temperature    150
_cell_measurement_theta_max      70.067
_cell_measurement_theta_min      3.349
_cell_volume                     856.66(5)
_computing_cell_refinement
;
SAINT (2013) V8.30C; Integration Software for Single Crystal Data.
Bruker AXS Inc., Madison, WI 53719-1173.
;
_computing_data_collection
;
APEX 2 (2013) Bruker AXS Inc., Madison, WI 53719-1173.
;
_computing_data_reduction
;
SAINT (2013) V8.30C; Integration Software for Single Crystal Data.
Bruker AXS Inc., Madison, WI 53719-1173.
;
_computing_molecular_graphics
;
O. V. Dolomanov, L. J. Bourhis, R. J. Gildea, J. A. K. Howard and H. Puschmann,
OLEX2: a complete structure solution, refinement and analysis program.
J. Appl. Cryst. (2009). 42, 339-341.
;
_computing_publication_material
;
O. V. Dolomanov, L. J. Bourhis, R. J. Gildea, J. A. K. Howard and H. Puschmann,
OLEX2: a complete structure solution, refinement and analysis program.
J. Appl. Cryst. (2009). 42, 339-341.
;
_computing_structure_refinement
;
XL, G.M. Sheldrick, Acta Cryst.
(2008). A64, 112-122
;
_computing_structure_solution
;
XS, G.M. Sheldrick, Acta Cryst.
(2008). A64, 112-122
;
_diffrn_ambient_temperature      150
_diffrn_detector                 'CCD area detector'
_diffrn_detector_area_resol_mean 8.3
_diffrn_detector_type            'Bruker Platinum 135 CCD Area Detector'
_diffrn_measured_fraction_theta_full 0.999
_diffrn_measured_fraction_theta_max 0.997
_diffrn_measurement_device       'k-geometry diffractometer'
_diffrn_measurement_device_type  'Bruker Microstar X8'
_diffrn_measurement_method       '\w scans'
_diffrn_radiation_collimation    'Focusing mirrors'
_diffrn_radiation_monochromator  'Helios Mirror Optics'
_diffrn_radiation_probe          x-ray
_diffrn_radiation_type           CuK\a
_diffrn_radiation_wavelength     1.54178
_diffrn_reflns_av_R_equivalents  0.0522
_diffrn_reflns_av_unetI/netI     0.0367
_diffrn_reflns_Laue_measured_fraction_full 0.999
_diffrn_reflns_Laue_measured_fraction_max 0.997
_diffrn_reflns_limit_h_max       13
_diffrn_reflns_limit_h_min       -13
_diffrn_reflns_limit_k_max       6
_diffrn_reflns_limit_k_min       -7
_diffrn_reflns_limit_l_max       16
_diffrn_reflns_limit_l_min       -16
_diffrn_reflns_number            19044
_diffrn_reflns_point_group_measured_fraction_full 0.890
_diffrn_reflns_point_group_measured_fraction_max 0.884
_diffrn_reflns_theta_full        67.679
_diffrn_reflns_theta_max         70.262
_diffrn_reflns_theta_min         3.350
_diffrn_source                   'Rotating-anode X-ray tube'
_diffrn_source_target            Cu
_diffrn_source_type              'Bruker Microstar/FR591 generator'
_exptl_absorpt_coefficient_mu    6.010
_exptl_absorpt_correction_T_max  0.7533
_exptl_absorpt_correction_T_min  0.4551
_exptl_absorpt_correction_type   multi-scan
_exptl_absorpt_process_details
;
SADABS-2012/1 (Bruker,2012) was used for absorption correction.
wR2(int) was 0.1373 before and 0.0827 after correction.
The Ratio of minimum to maximum transmission is 0.6041.
The \l/2 correction factor is 0.0015.
;
_exptl_crystal_colour            colourless
_exptl_crystal_colour_primary    colourless
_exptl_crystal_density_diffrn    1.437
_exptl_crystal_description       PLATELET
_exptl_crystal_F_000             384
_exptl_crystal_size_max          0.2
_exptl_crystal_size_mid          0.1
_exptl_crystal_size_min          0.04
_refine_diff_density_max         0.275
_refine_diff_density_min         -0.211
_refine_diff_density_rms         0.055
_refine_ls_abs_structure_details
;
 Flack x determined using 1078 quotients [(I+)-(I-)]/[(I+)+(I-)]
 (Parsons and Flack (2004), Acta Cryst. A60, s61).
;
_refine_ls_abs_structure_Flack   0.083(9)
_refine_ls_extinction_method     none
_refine_ls_goodness_of_fit_ref   1.068
_refine_ls_hydrogen_treatment    constr
_refine_ls_matrix_type           full
_refine_ls_number_parameters     194
_refine_ls_number_reflns         2881
_refine_ls_number_restraints     1
_refine_ls_restrained_S_all      1.068
_refine_ls_R_factor_all          0.0283
_refine_ls_R_factor_gt           0.0281
_refine_ls_shift/su_max          0.001
_refine_ls_shift/su_mean         0.000
_refine_ls_structure_factor_coef Fsqd
_refine_ls_weighting_details
'w=1/[\s^2^(Fo^2^)+(0.0534P)^2^] where P=(Fo^2^+2Fc^2^)/3'
_refine_ls_weighting_scheme      calc
_refine_ls_wR_factor_gt          0.0717
_refine_ls_wR_factor_ref         0.0720
_reflns_Friedel_coverage         0.611
_reflns_Friedel_fraction_full    0.755
_reflns_Friedel_fraction_max     0.747
_reflns_number_gt                2853
_reflns_number_total             2881
_reflns_threshold_expression     'I > 2\s(I)'
_iucr_refine_instructions_details
;
TITL HELE53 in P21 #4
CELL 1.54178 10.723 6.055 13.7208 90 105.927 90
ZERR 2 0.0004 0.0002 0.0005 0 0.001 0
LATT -1
SYMM -X,0.5+Y,-Z
 
SFAC C H N O S Cl
UNIT 28 36 2 4 2 6
 
L.S. 10
PLAN  -4
SIZE 0.04 0.1 0.2
TEMP -123
HTAB
BOND $H
CONF
fmap 2
acta
REM <HKL>D:/RXtravail/HELE53/HELE53.hkl</HKL>
 
WGHT    0.053400
FVAR       0.25607
CL1   6    0.045804    0.886528    0.773760    11.00000    0.03484    0.03707 =
         0.03931   -0.00908    0.01763   -0.00240
CL2   6   -0.021682    0.783667    0.561519    11.00000    0.02315    0.03761 =
         0.03264    0.00517    0.00145    0.00608
CL3   6    0.055590    0.434649    0.707888    11.00000    0.02529    0.02716 =
         0.03586    0.00351    0.00651   -0.00338
S1    5    0.637569    0.784446    0.936584    11.00000    0.02350    0.02010 =
         0.02877    0.00252    0.00009   -0.00243
O1    4    0.457359    0.929312    0.756127    11.00000    0.02759    0.03143 =
         0.03347    0.00895    0.00148   -0.00577
O2    4    0.300009    0.702856    0.780294    11.00000    0.02142    0.03203 =
         0.02078    0.00142    0.00162   -0.00348
N1    3    0.491192    0.681623    0.892207    11.00000    0.02264    0.02553 =
         0.02537    0.00191    0.00223   -0.00227
C1    1    0.424894    0.786639    0.806801    11.00000    0.02162    0.02231 =
         0.02571   -0.00211    0.00442   -0.00003
C2    1    0.225740    0.754497    0.679690    11.00000    0.02048    0.02549 =
         0.02181    0.00080    0.00236   -0.00027
AFIX  13
H2    2    0.236819    0.914856    0.666752    11.00000   -1.20000
AFIX   0
C3    1    0.083737    0.713285    0.680035    11.00000    0.02299    0.02460 =
         0.02726    0.00041    0.00515    0.00052
C4    1    0.270965    0.619706    0.602694    11.00000    0.01591    0.02731 =
         0.02355    0.00021    0.00298   -0.00251
C5    1    0.326920    0.413486    0.628804    11.00000    0.02313    0.02924 =
         0.02851    0.00100    0.00599    0.00059
AFIX  43
H5    2    0.330745    0.352386    0.693332    11.00000   -1.20000
AFIX   0
C6    1    0.377266    0.295966    0.561491    11.00000    0.02337    0.03357 =
         0.03930   -0.00593    0.00647   -0.00150
AFIX  43
H6    2    0.416165    0.155614    0.579983    11.00000   -1.20000
AFIX   0
C7    1    0.370387    0.385017    0.466826    11.00000    0.02749    0.04606 =
         0.03511   -0.01439    0.01248   -0.00588
AFIX  43
H7    2    0.404810    0.305629    0.420382    11.00000   -1.20000
AFIX   0
C8    1    0.313432    0.589215    0.440212    11.00000    0.03072    0.04707 =
         0.02499   -0.00210    0.00735   -0.00863
AFIX  43
H8    2    0.308264    0.648825    0.375176    11.00000   -1.20000
AFIX   0
C9    1    0.263918    0.707465    0.507424    11.00000    0.02249    0.03153 =
         0.02709    0.00047    0.00320   -0.00402
AFIX  43
H9    2    0.225269    0.847918    0.488720    11.00000   -1.20000
AFIX   0
C10   1    0.662483    0.725824    1.067867    11.00000    0.03301    0.03734 =
         0.02674   -0.00387    0.00120    0.00559
AFIX 137
H10A  2    0.604942    0.818666    1.094933    11.00000   -1.50000
H10B  2    0.752910    0.756692    1.104517    11.00000   -1.50000
H10C  2    0.643294    0.569888    1.076322    11.00000   -1.50000
AFIX   0
C11   1    0.749019    0.589437    0.898716    11.00000    0.02410    0.03081 =
         0.03488    0.00572    0.00907   -0.00001
C12   1    0.723489    0.352915    0.923769    11.00000    0.04351    0.02709 =
         0.06369    0.00187    0.02475    0.00271
AFIX 137
H12A  2    0.633990    0.313011    0.888219    11.00000   -1.50000
H12B  2    0.736558    0.338442    0.997028    11.00000   -1.50000
H12C  2    0.783408    0.254311    0.902262    11.00000   -1.50000
AFIX   0
C13   1    0.885993    0.665953    0.953496    11.00000    0.02384    0.05528 =
         0.04065    0.01146    0.00537   -0.00192
AFIX 137
H13A  2    0.902908    0.637964    1.026314    11.00000   -1.50000
H13B  2    0.894052    0.824419    0.942018    11.00000   -1.50000
H13C  2    0.948941    0.584588    0.927318    11.00000   -1.50000
AFIX   0
C14   1    0.721093    0.620572    0.784182    11.00000    0.03331    0.06338 =
         0.03385    0.00003    0.01010    0.00027
AFIX 137
H14A  2    0.782177    0.531933    0.759019    11.00000   -1.50000
H14B  2    0.730956    0.776790    0.769155    11.00000   -1.50000
H14C  2    0.632241    0.572953    0.750942    11.00000   -1.50000
AFIX   0
HKLF 4
 
REM  HELE53 in P21 #4
REM R1 =  0.0281 for    2853 Fo > 4sig(Fo)  and  0.0283 for all    2881 data
REM    194 parameters refined using      1 restraints
 
END  
     
WGHT      0.0533      0.0000 

REM Instructions for potential hydrogen bonds
EQIV $1 -x+1, y+1/2, -z+2
HTAB C10 N1_$1

REM Highest difference peak  0.275,  deepest hole -0.211,  1-sigma level  0.055
Q1    1  -0.0766  0.8921  0.6017  11.00000  0.05    0.28
Q2    1   0.6954  0.6796  0.9151  11.00000  0.05    0.27
Q3    1   0.0182  0.9135  0.5212  11.00000  0.05    0.27
Q4    1   0.1023  0.3227  0.6734  11.00000  0.05    0.26

REM The information below was added by Olex2.
REM
REM R1 = 0.0281 for 2853 Fo > 4sig(Fo) and 0.0283 for all 19067 data
REM n/a parameters refined using n/a restraints
REM Highest difference peak 0.28, deepest hole -0.21
REM Mean Shift 0, Max Shift 0.

REM +++ Tabular Listing of Refinement Information +++
REM R1_all = 0.0283
REM R1_gt = 0.0281
REM wR_ref = 0.0720
REM GOOF = 1.068
REM Shift_max = 0
REM Shift_mean = 0
REM Reflections_all = 19067
REM Reflections_gt = 2853
REM Parameters = n/a
REM Hole = 0.28
REM Peak = -0.21
REM Flack = n/a

;
_cod_data_source_file            jo5b00256_si_002.cif
_cod_data_source_block           hele53
_cod_depositor_comments
;
The following automatic conversions were performed:

data item '_diffrn_radiation_probe' value 'X-ray' was changed to
'x-ray' in accordance with the
/home/saulius/struct/COD-crude-data/automatic-downloads/DataCite-retrospective/ACS/depositions/lib/dictionaries/cif_core.dic
dictionary named 'cif_core.dic' version 2.4.2 last updated on
2011-04-26.

Automatic conversion script
Id: cif_fix_values 6909 2019-04-08 15:41:33Z antanas 
;
_cod_database_code               4036149
_olex2_refinement_description
;
1. Fixed Uiso
 At 1.2 times of:
  All C(H) groups
 At 1.5 times of:
  All C(H,H,H) groups
2.a Ternary CH refined with riding coordinates:
 C2(H2)
2.b Aromatic/amide H refined with riding coordinates:
 C5(H5), C6(H6), C7(H7), C8(H8), C9(H9)
2.c Idealised Me refined as rotating group:
 C10(H10A,H10B,H10C), C12(H12A,H12B,H12C), C13(H13A,H13B,H13C), C14(H14A,H14B,
 H14C)
;
_shelx_estimated_absorpt_t_max   0.795
_shelx_estimated_absorpt_t_min   0.379
_shelx_space_group_comment
;
The symmetry employed for this shelxl refinement is uniquely defined
by the following loop, which should always be used as a source of
symmetry information in preference to the above space-group names.
They are only intended as comments.
;
_shelxl_version_number           2013-3
loop_
_space_group_symop_operation_xyz
'x, y, z'
'-x, y+1/2, -z'
loop_
_atom_site_label
_atom_site_type_symbol
_atom_site_fract_x
_atom_site_fract_y
_atom_site_fract_z
_atom_site_U_iso_or_equiv
_atom_site_adp_type
_atom_site_occupancy
_atom_site_site_symmetry_order
_atom_site_calc_flag
_atom_site_refinement_flags_posn
_atom_site_refinement_flags_adp
Cl1 Cl 0.04580(6) 0.88653(11) 0.77376(5) 0.03560(17) Uani 1 1 d . .
Cl2 Cl -0.02168(5) 0.78367(11) 0.56152(4) 0.03237(16) Uani 1 1 d . .
Cl3 Cl 0.05559(5) 0.43465(10) 0.70789(4) 0.02981(16) Uani 1 1 d . .
S1 S 0.63757(5) 0.78445(9) 0.93658(4) 0.02553(16) Uani 1 1 d . .
O1 O 0.45736(16) 0.9293(3) 0.75613(13) 0.0322(4) Uani 1 1 d . .
O2 O 0.30001(15) 0.7029(3) 0.78029(12) 0.0256(4) Uani 1 1 d . .
N1 N 0.49119(18) 0.6816(4) 0.89221(15) 0.0254(4) Uani 1 1 d . .
C1 C 0.4249(2) 0.7866(4) 0.80680(17) 0.0236(4) Uani 1 1 d . .
C2 C 0.2257(2) 0.7545(4) 0.67969(16) 0.0233(5) Uani 1 1 d . .
H2 H 0.2368 0.9149 0.6668 0.028 Uiso 1 1 calc R U
C3 C 0.0837(2) 0.7133(4) 0.68004(18) 0.0253(5) Uani 1 1 d . .
C4 C 0.2710(2) 0.6197(4) 0.60269(17) 0.0227(5) Uani 1 1 d . .
C5 C 0.3269(2) 0.4135(5) 0.62880(18) 0.0272(5) Uani 1 1 d . .
H5 H 0.3307 0.3524 0.6933 0.033 Uiso 1 1 calc R U
C6 C 0.3773(2) 0.2960(5) 0.56149(19) 0.0325(5) Uani 1 1 d . .
H6 H 0.4162 0.1556 0.5800 0.039 Uiso 1 1 calc R U
C7 C 0.3704(2) 0.3850(5) 0.4668(2) 0.0355(6) Uani 1 1 d . .
H7 H 0.4048 0.3056 0.4204 0.043 Uiso 1 1 calc R U
C8 C 0.3134(2) 0.5892(5) 0.44021(19) 0.0343(6) Uani 1 1 d . .
H8 H 0.3083 0.6488 0.3752 0.041 Uiso 1 1 calc R U
C9 C 0.2639(2) 0.7075(5) 0.50742(18) 0.0277(5) Uani 1 1 d . .
H9 H 0.2253 0.8479 0.4887 0.033 Uiso 1 1 calc R U
C10 C 0.6625(2) 0.7258(5) 1.06787(17) 0.0337(6) Uani 1 1 d . .
H10A H 0.6049 0.8187 1.0949 0.051 Uiso 1 1 calc R U
H10B H 0.7529 0.7567 1.1045 0.051 Uiso 1 1 calc R U
H10C H 0.6433 0.5699 1.0763 0.051 Uiso 1 1 calc R U
C11 C 0.7490(2) 0.5894(5) 0.8987(2) 0.0297(5) Uani 1 1 d . .
C12 C 0.7235(3) 0.3529(5) 0.9238(3) 0.0428(7) Uani 1 1 d . .
H12A H 0.6340 0.3130 0.8882 0.064 Uiso 1 1 calc R U
H12B H 0.7366 0.3384 0.9970 0.064 Uiso 1 1 calc R U
H12C H 0.7834 0.2543 0.9023 0.064 Uiso 1 1 calc R U
C13 C 0.8860(2) 0.6660(6) 0.9535(2) 0.0406(7) Uani 1 1 d . .
H13A H 0.9029 0.6380 1.0263 0.061 Uiso 1 1 calc R U
H13B H 0.8941 0.8244 0.9420 0.061 Uiso 1 1 calc R U
H13C H 0.9489 0.5846 0.9273 0.061 Uiso 1 1 calc R U
C14 C 0.7211(3) 0.6206(6) 0.7842(2) 0.0433(7) Uani 1 1 d . .
H14A H 0.7822 0.5319 0.7590 0.065 Uiso 1 1 calc R U
H14B H 0.7310 0.7768 0.7692 0.065 Uiso 1 1 calc R U
H14C H 0.6322 0.5730 0.7509 0.065 Uiso 1 1 calc R U
loop_
_atom_site_aniso_label
_atom_site_aniso_U_11
_atom_site_aniso_U_22
_atom_site_aniso_U_33
_atom_site_aniso_U_23
_atom_site_aniso_U_13
_atom_site_aniso_U_12
Cl1 0.0348(3) 0.0371(4) 0.0393(3) -0.0091(3) 0.0176(2) -0.0024(3)
Cl2 0.0232(3) 0.0376(3) 0.0326(3) 0.0052(3) 0.0014(2) 0.0061(2)
Cl3 0.0253(3) 0.0272(3) 0.0359(3) 0.0035(2) 0.0065(2) -0.0034(2)
S1 0.0235(3) 0.0201(3) 0.0288(3) 0.0025(2) 0.0001(2) -0.0024(2)
O1 0.0276(8) 0.0314(10) 0.0335(9) 0.0089(8) 0.0015(7) -0.0058(8)
O2 0.0214(8) 0.0320(9) 0.0208(7) 0.0014(7) 0.0016(6) -0.0035(7)
N1 0.0226(9) 0.0255(10) 0.0254(9) 0.0019(8) 0.0022(7) -0.0023(8)
C1 0.0216(9) 0.0223(11) 0.0257(10) -0.0021(10) 0.0044(8) 0.0000(10)
C2 0.0205(10) 0.0255(12) 0.0218(10) 0.0008(10) 0.0024(8) -0.0003(9)
C3 0.0230(10) 0.0246(12) 0.0273(11) 0.0004(9) 0.0051(8) 0.0005(9)
C4 0.0159(9) 0.0273(13) 0.0236(11) 0.0002(10) 0.0030(8) -0.0025(9)
C5 0.0231(10) 0.0292(13) 0.0285(11) 0.0010(10) 0.0060(8) 0.0006(10)
C6 0.0234(10) 0.0336(14) 0.0393(13) -0.0059(12) 0.0065(9) -0.0015(11)
C7 0.0275(11) 0.0461(17) 0.0351(13) -0.0144(13) 0.0125(10) -0.0059(12)
C8 0.0307(12) 0.0471(17) 0.0250(12) -0.0021(11) 0.0073(10) -0.0086(12)
C9 0.0225(10) 0.0315(13) 0.0271(11) 0.0005(10) 0.0032(8) -0.0040(10)
C10 0.0330(12) 0.0373(15) 0.0267(11) -0.0039(11) 0.0012(9) 0.0056(11)
C11 0.0241(11) 0.0308(14) 0.0349(13) 0.0057(11) 0.0091(10) 0.0000(11)
C12 0.0435(15) 0.0271(15) 0.0637(19) 0.0019(14) 0.0248(14) 0.0027(12)
C13 0.0238(12) 0.0553(18) 0.0406(14) 0.0115(14) 0.0054(11) -0.0019(13)
C14 0.0333(13) 0.063(2) 0.0339(14) 0.0000(14) 0.0101(11) 0.0003(14)
loop_
_atom_type_symbol
_atom_type_description
_atom_type_scat_dispersion_real
_atom_type_scat_dispersion_imag
_atom_type_scat_source
C C 0.0181 0.0091 'International Tables Vol C Tables 4.2.6.8 and 6.1.1.4'
H H 0.0000 0.0000 'International Tables Vol C Tables 4.2.6.8 and 6.1.1.4'
N N 0.0311 0.0180 'International Tables Vol C Tables 4.2.6.8 and 6.1.1.4'
O O 0.0492 0.0322 'International Tables Vol C Tables 4.2.6.8 and 6.1.1.4'
S S 0.3331 0.5567 'International Tables Vol C Tables 4.2.6.8 and 6.1.1.4'
Cl Cl 0.3639 0.7018 'International Tables Vol C Tables 4.2.6.8 and 6.1.1.4'
loop_
_geom_angle_atom_site_label_1
_geom_angle_atom_site_label_2
_geom_angle_atom_site_label_3
_geom_angle
N1 S1 C10 99.33(12)
N1 S1 C11 106.19(11)
C10 S1 C11 103.13(12)
C1 O2 C2 114.65(17)
C1 N1 S1 111.41(16)
O1 C1 O2 121.2(2)
O1 C1 N1 131.6(2)
N1 C1 O2 107.23(19)
O2 C2 H2 108.8
O2 C2 C3 104.52(17)
O2 C2 C4 110.85(19)
C3 C2 H2 108.8
C4 C2 H2 108.8
C4 C2 C3 114.79(19)
Cl2 C3 Cl1 107.87(13)
Cl2 C3 Cl3 108.99(13)
Cl3 C3 Cl1 108.47(13)
C2 C3 Cl1 109.03(17)
C2 C3 Cl2 110.00(16)
C2 C3 Cl3 112.37(17)
C5 C4 C2 120.2(2)
C5 C4 C9 119.5(2)
C9 C4 C2 120.2(2)
C4 C5 H5 119.7
C6 C5 C4 120.6(2)
C6 C5 H5 119.7
C5 C6 H6 120.2
C5 C6 C7 119.5(3)
C7 C6 H6 120.2
C6 C7 H7 120.0
C8 C7 C6 120.0(2)
C8 C7 H7 120.0
C7 C8 H8 119.7
C7 C8 C9 120.6(2)
C9 C8 H8 119.7
C4 C9 H9 120.1
C8 C9 C4 119.7(3)
C8 C9 H9 120.1
S1 C10 H10A 109.5
S1 C10 H10B 109.5
S1 C10 H10C 109.5
H10A C10 H10B 109.5
H10A C10 H10C 109.5
H10B C10 H10C 109.5
C12 C11 S1 111.60(18)
C12 C11 C13 112.6(2)
C12 C11 C14 110.7(3)
C13 C11 S1 106.0(2)
C13 C11 C14 111.1(2)
C14 C11 S1 104.49(19)
C11 C12 H12A 109.5
C11 C12 H12B 109.5
C11 C12 H12C 109.5
H12A C12 H12B 109.5
H12A C12 H12C 109.5
H12B C12 H12C 109.5
C11 C13 H13A 109.5
C11 C13 H13B 109.5
C11 C13 H13C 109.5
H13A C13 H13B 109.5
H13A C13 H13C 109.5
H13B C13 H13C 109.5
C11 C14 H14A 109.5
C11 C14 H14B 109.5
C11 C14 H14C 109.5
H14A C14 H14B 109.5
H14A C14 H14C 109.5
H14B C14 H14C 109.5
loop_
_geom_bond_atom_site_label_1
_geom_bond_atom_site_label_2
_geom_bond_distance
Cl1 C3 1.791(3)
Cl2 C3 1.759(2)
Cl3 C3 1.774(3)
S1 N1 1.642(2)
S1 C10 1.783(2)
S1 C11 1.853(3)
O1 C1 1.218(3)
O2 C1 1.384(3)
O2 C2 1.426(3)
N1 C1 1.351(3)
C2 H2 1.0000
C2 C3 1.544(3)
C2 C4 1.516(3)
C4 C5 1.389(4)
C4 C9 1.394(3)
C5 H5 0.9500
C5 C6 1.387(4)
C6 H6 0.9500
C6 C7 1.389(4)
C7 H7 0.9500
C7 C8 1.383(5)
C8 H8 0.9500
C8 C9 1.383(4)
C9 H9 0.9500
C10 H10A 0.9800
C10 H10B 0.9800
C10 H10C 0.9800
C11 C12 1.515(4)
C11 C13 1.527(3)
C11 C14 1.529(4)
C12 H12A 0.9800
C12 H12B 0.9800
C12 H12C 0.9800
C13 H13A 0.9800
C13 H13B 0.9800
C13 H13C 0.9800
C14 H14A 0.9800
C14 H14B 0.9800
C14 H14C 0.9800
loop_
_geom_torsion_atom_site_label_1
_geom_torsion_atom_site_label_2
_geom_torsion_atom_site_label_3
_geom_torsion_atom_site_label_4
_geom_torsion
S1 N1 C1 O1 5.1(4)
S1 N1 C1 O2 -174.79(15)
O2 C2 C3 Cl1 59.0(2)
O2 C2 C3 Cl2 177.07(15)
O2 C2 C3 Cl3 -61.3(2)
O2 C2 C4 C5 28.2(3)
O2 C2 C4 C9 -147.9(2)
N1 S1 C11 C12 -48.6(2)
N1 S1 C11 C13 -171.54(17)
N1 S1 C11 C14 71.1(2)
C1 O2 C2 C3 -162.16(19)
C1 O2 C2 C4 73.6(3)
C2 O2 C1 O1 14.6(3)
C2 O2 C1 N1 -165.43(19)
C2 C4 C5 C6 -175.2(2)
C2 C4 C9 C8 175.7(2)
C3 C2 C4 C5 -90.0(3)
C3 C2 C4 C9 93.9(3)
C4 C2 C3 Cl1 -179.39(16)
C4 C2 C3 Cl2 -61.3(2)
C4 C2 C3 Cl3 60.3(2)
C4 C5 C6 C7 -0.6(4)
C5 C4 C9 C8 -0.4(3)
C5 C6 C7 C8 -0.1(4)
C6 C7 C8 C9 0.6(4)
C7 C8 C9 C4 -0.3(4)
C9 C4 C5 C6 0.9(3)
C10 S1 N1 C1 151.60(18)
C10 S1 C11 C12 55.4(2)
C10 S1 C11 C13 -67.6(2)
C10 S1 C11 C14 175.0(2)
C11 S1 N1 C1 -101.70(18)
loop_
_refln_index_h
_refln_index_k
_refln_index_l
_refln_F_squared_meas
_refln_F_squared_sigma
1 0 0 5.8 0.59
1 0 0 6.79 0.59
1 0 0 6.76 0.55
-1 0 0 7.39 0.55
-1 0 0 7.28 0.59
-1 0 0 6.91 0.58
-1 0 0 6.42 0.55
1 0 0 6.9 0.57
1 0 0 7.06 0.55
-1 0 0 7.02 0.59
-2 0 0 13.89 1.15
-2 0 0 14.31 1.24
-2 0 0 14.52 1.21
2 0 0 13.73 1.15
2 0 0 14.03 1.22
-2 0 0 13.67 1.23
2 0 0 15.27 1.16
3 0 0 1000 73.94
3 0 0 882.78 69.98
-3 0 0 763.29 70.06
3 0 0 893.93 69.67
-3 0 0 899.98 73.11
-3 0 0 862.58 75.12
-3 0 0 889.75 74.62
4 0 0 82.67 6.37
-4 0 0 75.26 6.79
-4 0 0 75.17 6.83
4 0 0 77.47 6.33
-4 0 0 86.25 6.67
4 0 0 88.71 6.73
-4 0 0 75.32 6.38
5 0 0 14.13 1.19
-5 0 0 15.17 1.27
-5 0 0 13.92 1.28
5 0 0 13.17 1.17
5 0 0 15.85 1.27
-5 0 0 14.07 1.2
6 0 0 1.3 0.16
-6 0 0 1.45 0.21
6 0 0 1.57 0.2
-6 0 0 1.56 0.22
-6 0 0 1.55 0.19
6 0 0 1.57 0.17
6 0 0 1.19 0.15
6 0 0 1.24 0.14
7 0 0 24.33 1.95
7 0 0 23.47 1.8
7 0 0 23.1 1.57
7 0 0 20.47 1.65
7 0 0 25.86 2.08
-7 0 0 22.81 1.86
-7 0 0 23.04 1.96
-7 0 0 25.41 2.12
7 0 0 23.33 1.78
-7 0 0 26.51 2.09
8 0 0 0.37 0.11
8 0 0 0.2 0.08
-8 0 0 0.29 0.1
-8 0 0 0.32 0.13
-8 0 0 0.32 0.11
8 0 0 0.26 0.1
8 0 0 0.58 0.11
8 0 0 0.24 0.08
-8 0 0 0.35 0.14
8 0 0 0.26 0.08
9 0 0 18.73 1.16
9 0 0 18.53 1.31
9 0 0 14.82 1.41
-9 0 0 15.47 1.42
-9 0 0 17.57 1.54
-9 0 0 15.41 1.53
10 0 0 30.98 2.2
10 0 0 28.17 2.22
10 0 0 28.57 1.95
11 0 0 0.05 0.08
-11 0 0 -0.01 0.11
11 0 0 0.05 0.07
11 0 0 0.1 0.08
-12 0 0 9.11 0.81
-12 0 0 8.94 0.78
12 0 0 10.11 0.7
-12 0 0 12.18 0.77
12 0 0 8.36 0.78
12 0 0 11.59 0.79
0 -1 0 -0.75 0.03
0 -1 0 -0.69 0.02
0 1 0 -0.74 0.02
0 1 0 -0.74 0.02
-1 -1 0 8.18 0.83
-1 -1 0 7.79 0.85
-1 1 0 9.16 0.81
1 1 0 10.4 0.82
-1 1 0 9.49 0.74
1 1 0 9.4 0.8
1 1 0 9.72 0.78
-1 1 0 9.24 0.78
1 1 0 9.49 0.73
-2 -1 0 68.09 5.57
-2 -1 0 66.59 5.75
2 -1 0 67.68 5.34
2 -1 0 67.16 5.32
-2 -1 0 63.9 5.33
-2 -1 0 60.79 5.69
2 1 0 66.38 5.33
2 1 0 70.05 5.51
-2 1 0 64.42 5.35
-2 1 0 71.37 5.58
2 1 0 73.21 5.63
-3 -1 0 138.9 11.64
-3 -1 0 146.17 11.4
-3 -1 0 127.44 10.91
-3 -1 0 153.15 11.75
3 -1 0 141.61 10.91
3 -1 0 117.4 10.86
3 1 0 132.68 11.28
3 1 0 134.28 10.9
-3 1 0 146.56 11.4
3 1 0 146.15 11.52
-3 1 0 140.23 11.62
-3 1 0 129.31 10.93
3 1 0 136.58 10.86
-4 -1 0 81.8 6.82
-4 -1 0 73.25 6.51
-4 1 0 83.65 6.53
4 1 0 87.1 6.52
4 1 0 78.46 6.73
4 1 0 86.31 6.89
4 1 0 80.47 6.49
-4 1 0 76.54 6.93
-4 1 0 89.4 6.82
5 -1 0 125.35 11.47
-5 -1 0 129.63 11.54
-5 -1 0 149.93 12.07
5 1 0 152.74 12.19
-5 1 0 159.87 12.29
-5 1 0 159.68 12.07
5 1 0 138.73 11.48
-5 1 0 143.48 11.56
5 1 0 149.02 11.54
-6 -1 0 114.9 9.2
6 -1 0 104.28 7.07
6 -1 0 93.71 7.47
-6 -1 0 106.79 8.78
6 -1 0 106.71 8.1
6 -1 0 111.96 8.79
6 -1 0 112.62 8.02
6 1 0 104.41 8.77
-6 1 0 116.74 8.37
-6 1 0 119.16 9.2
-6 1 0 121.6 8.81
-6 1 0 114.39 9.36
6 1 0 96.76 8.71
6 1 0 120.16 9.28
7 -1 0 1.64 0.19
7 -1 0 1.77 0.23
-7 -1 0 1.61 0.21
-7 -1 0 1.83 0.27
7 -1 0 1.83 0.22
7 -1 0 1.68 0.21
7 -1 0 1.66 0.21
-7 -1 0 1.78 0.27
7 1 0 1.88 0.22
-7 1 0 2.31 0.26
-7 1 0 2.1 0.24
7 1 0 2.26 0.26
-7 1 0 2.54 0.3
7 1 0 1.94 0.21
7 1 0 1.79 0.18
-7 1 0 2.07 0.26
8 -1 0 1.31 0.19
8 -1 0 1.19 0.17
8 -1 0 1.05 0.17
8 -1 0 1.05 0.16
8 -1 0 1.02 0.19
-8 -1 0 1.23 0.24
-8 -1 0 1.19 0.25
8 1 0 0.94 0.14
8 1 0 0.77 0.17
8 1 0 1.04 0.16
-8 1 0 0.91 0.21
-8 1 0 0.96 0.19
-8 1 0 0.95 0.18
8 1 0 0.98 0.15
8 1 0 1.09 0.17
8 1 0 0.87 0.16
9 -1 0 43.47 3.25
9 -1 0 47.61 3.23
9 -1 0 40.94 3
9 -1 0 42.55 2.85
9 1 0 39.86 2.82
9 1 0 44.13 3.24
9 1 0 44.19 3.21
-10 -1 0 1.86 0.33
10 -1 0 1.68 0.23
10 -1 0 1.84 0.21
10 -1 0 1.46 0.21
-10 -1 0 1.52 0.27
10 -1 0 1.61 0.24
-10 -1 0 1.59 0.27
10 1 0 1.68 0.2
10 1 0 1.92 0.22
10 1 0 1.76 0.22
11 -1 0 2.18 0.27
-11 -1 0 2.89 0.4
11 -1 0 2.71 0.25
-11 -1 0 2.42 0.28
11 -1 0 2.27 0.26
-11 -1 0 2.25 0.29
11 1 0 2.51 0.26
11 1 0 2.79 0.27
11 1 0 2.3 0.23
12 -1 0 14.57 0.97
-12 -1 0 14.25 1.04
-12 -1 0 13.66 1.11
12 -1 0 15.26 1.1
-12 1 0 12.46 1.08
12 1 0 13.26 1.09
12 1 0 15.53 1.1
-12 1 0 15.39 1.05
0 2 0 492.6 41.68
0 2 0 491.61 37.54
0 2 0 511 40.84
-1 -2 0 65.96 6.25
-1 -2 0 70.78 6.33
1 2 0 81.73 6.07
-1 2 0 71.15 5.87
1 2 0 80.63 6.21
-1 2 0 73.37 5.59
1 2 0 75.57 5.87
-1 2 0 67.28 6.11
1 2 0 74.19 5.57
-1 2 0 78.22 6.08
-2 -2 0 233.44 21.81
-2 -2 0 267.94 22.02
2 2 0 271.51 20.46
2 2 0 271.12 21.2
-2 2 0 247.58 20.49
-2 2 0 236.25 21.36
2 2 0 285.77 21.67
-2 2 0 256.19 19.49
-3 -2 0 155.64 12.26
-3 -2 0 138.49 12.12
-3 -2 0 128.02 11.85
3 2 0 146.43 11.74
-3 2 0 146.35 10.83
-3 2 0 141.68 11.86
3 2 0 147.52 11.99
-3 2 0 145.46 11.38
3 2 0 140.31 11.36
-4 -2 0 5.81 0.65
-4 -2 0 7.05 0.73
-4 -2 0 6.1 0.68
4 2 0 7.27 0.63
4 2 0 7.7 0.64
-4 2 0 7.84 0.64
-4 2 0 7.43 0.66
4 2 0 6.95 0.62
-4 2 0 7.26 0.62
4 2 0 8.18 0.67
-5 -2 0 68.47 6.45
5 -2 0 70.98 5.37
5 -2 0 68.9 5.72
5 -2 0 63.98 4.98
-5 -2 0 84.06 6.63
-5 -2 0 65.54 5.89
5 2 0 87.27 6.18
-5 2 0 84.75 6.46
5 2 0 81.13 6.15
-5 2 0 84.99 5.9
5 2 0 86.58 6.53
5 2 0 80.11 6.37
-6 -2 0 10.27 0.95
6 -2 0 9.72 0.88
6 -2 0 8.37 0.78
-6 -2 0 11.32 1.03
-6 -2 0 9.15 0.96
6 -2 0 9.96 0.8
6 -2 0 9.21 0.85
6 -2 0 11.23 0.77
6 -2 0 10.53 0.83
-6 2 0 11.51 0.9
6 2 0 10.87 0.92
6 2 0 11.81 0.99
-6 2 0 11.9 0.98
6 2 0 11.46 0.93
7 -2 0 25.34 1.95
-7 -2 0 30.16 2.16
-7 -2 0 24.2 2.06
-7 -2 0 24.65 2.33
7 -2 0 30.38 1.83
7 -2 0 28.4 2.06
-7 -2 0 30.49 2.22
-7 -2 0 26.67 1.97
7 -2 0 28.06 2.09
-7 -2 0 28.06 2.42
7 -2 0 27.69 1.91
-7 2 0 26.44 2.24
7 2 0 25 2.21
-7 2 0 26.57 2.13
7 2 0 26.1 2.34
-7 2 0 23.45 2.32
-8 -2 0 52.38 4.22
-8 -2 0 49.15 3.57
8 -2 0 47.65 3.33
8 -2 0 47.62 3.39
8 -2 0 52.47 3.59
-8 -2 0 43.38 4.09
-8 -2 0 53.04 3.41
8 -2 0 50.74 3.64
-8 -2 0 49.59 3.78
8 -2 0 56.09 3.18
8 2 0 43.13 3.87
8 2 0 46.11 3.69
8 2 0 48.33 3.12
-8 2 0 41.4 4.08
-8 2 0 45.97 3.91
8 2 0 46.55 4.11
-8 2 0 44.84 3.72
9 -2 0 8.91 0.75
-9 -2 0 8.07 0.78
-9 -2 0 8.34 0.82
9 -2 0 8.39 0.69
-9 -2 0 9.71 0.88
9 -2 0 8.07 0.76
-9 -2 0 9.62 0.78
9 -2 0 8.83 0.67
9 2 0 8.14 0.62
9 2 0 9.44 0.72
9 2 0 10.09 0.75
9 2 0 8 0.73
-10 -2 0 32.16 2.33
10 -2 0 29.17 1.99
10 -2 0 26.89 2.07
-10 -2 0 30.64 2.13
10 -2 0 31.16 2.25
10 -2 0 26.87 2.25
10 2 0 31.73 2.22
10 2 0 31.84 2.25
10 2 0 26.79 1.94
11 -2 0 9.38 0.77
-11 -2 0 10.94 0.83
11 -2 0 10.07 0.84
-11 -2 0 10.37 0.9
11 -2 0 10.66 0.75
11 2 0 11.99 0.84
11 2 0 10.23 0.83
-12 -2 0 9.02 0.68
12 -2 0 8.76 0.64
12 2 0 9.71 0.72
0 3 0 -0.06 0.03
0 3 0 -0.06 0.04
0 3 0 -0.06 0.03
-1 3 0 12.7 1.1
-1 3 0 12.43 1
1 3 0 11.84 0.98
1 3 0 13.5 1.08
-1 3 0 11.23 1.03
1 3 0 14.07 1.14
1 3 0 13.68 1.09
-1 3 0 13.33 1.14
-2 -3 0 60.81 5.97
2 3 0 74.67 5.79
2 3 0 78.22 5.94
-2 3 0 70.95 5.35
-2 3 0 64.16 5.6
2 3 0 75.85 5.62
-2 3 0 67.72 5.81
-3 -3 0 13.13 1.14
3 -3 0 12.96 1.08
3 -3 0 13.9 0.97
3 -3 0 13.08 1.25
-3 -3 0 13.5 1.2
3 -3 0 13.77 1.04
3 -3 0 13.25 1.04
-3 -3 0 14.02 1.29
-3 -3 0 13.82 1.13
3 -3 0 14.05 0.98
3 -3 0 13.36 1.11
3 -3 0 13.43 1.11
3 -3 0 13.68 1.03
3 3 0 15.41 1.22
3 3 0 15.43 1.27
3 3 0 16.88 1.21
-3 3 0 14.8 1.2
-3 3 0 16.75 1.28
-3 3 0 15.46 1.16
-4 -3 0 0.18 0.09
4 -3 0 0.12 0.09
4 -3 0 0.12 0.09
-4 -3 0 0.3 0.12
4 -3 0 0.22 0.1
4 -3 0 0.49 0.13
4 -3 0 0.22 0.12
-4 -3 0 0.47 0.17
4 -3 0 0.28 0.1
4 -3 0 0.35 0.11
-4 -3 0 0.17 0.12
4 -3 0 0.17 0.11
4 -3 0 0.17 0.09
-4 -3 0 0.23 0.12
4 -3 0 0.37 0.12
4 -3 0 0.15 0.1
4 -3 0 0.23 0.09
-4 -3 0 0.21 0.12
4 -3 0 0.79 0.14
4 -3 0 0.27 0.11
4 3 0 0.47 0.12
-4 3 0 0.41 0.1
4 3 0 0.38 0.09
4 3 0 0.5 0.13
-4 3 0 0.32 0.1
4 3 0 0.37 0.08
5 -3 0 21.17 1.58
-5 -3 0 18.18 1.56
5 -3 0 20.32 1.32
-5 -3 0 21.4 1.51
-5 -3 0 20.73 1.57
5 -3 0 19.23 1.46
-5 -3 0 21.26 1.84
5 -3 0 20.46 1.4
5 -3 0 17.93 1.4
-5 -3 0 21.63 1.65
-5 -3 0 22.07 1.71
5 -3 0 21.21 1.51
5 -3 0 20.36 1.43
5 -3 0 21.06 1.6
5 3 0 20.81 1.68
-5 3 0 19.92 1.69
5 3 0 17.2 1.7
5 3 0 21.43 1.78
-5 3 0 19.03 1.62
5 3 0 19.32 1.68
6 -3 0 7.86 0.6
6 -3 0 8.07 0.75
-6 -3 0 7.42 0.73
6 -3 0 7.96 0.65
6 -3 0 7.67 0.66
6 -3 0 7.07 0.73
6 -3 0 8.66 0.69
-6 -3 0 8.23 0.86
6 -3 0 8.51 0.7
-6 -3 0 8.78 0.84
-6 -3 0 8.29 0.84
-6 3 0 8.78 0.75
-6 3 0 9.08 0.78
6 3 0 9.13 0.78
6 3 0 9.16 0.83
6 3 0 8.08 0.77
7 -3 0 14.63 1.12
-7 -3 0 15.9 1.34
7 -3 0 13.38 1.04
7 -3 0 15.29 1.07
7 -3 0 14.55 1.2
-7 -3 0 11.66 1.15
7 -3 0 14.47 1.21
-7 -3 0 13.57 1.38
7 -3 0 16.2 1.12
-7 -3 0 15.34 1.32
-7 3 0 13.64 1.26
7 3 0 14.67 1.27
7 3 0 14.86 1.34
-7 3 0 14.73 1.22
-8 -3 0 2.73 0.41
8 -3 0 2.82 0.36
8 -3 0 2.53 0.3
8 -3 0 2.16 0.29
-8 -3 0 2.85 0.51
-8 -3 0 2.85 0.48
8 -3 0 2.78 0.31
8 -3 0 2.62 0.34
9 -3 0 36.01 2.61
9 -3 0 35.27 2.49
-9 -3 0 37.38 2.96
-9 -3 0 40.24 2.93
9 -3 0 36.92 2.82
-9 -3 0 39.34 2.7
9 3 0 40.01 2.83
9 3 0 38.24 2.78
9 3 0 34.19 2.89
10 -3 0 5.38 0.46
-10 -3 0 5.19 0.47
10 -3 0 5.19 0.41
-10 -3 0 5.29 0.55
10 -3 0 5.07 0.41
10 3 0 4.38 0.43
10 3 0 3.99 0.41
11 -3 0 12.1 0.96
11 -3 0 12.42 1.03
-11 -3 0 13.53 1.08
11 -3 0 13.43 0.92
-11 -3 0 13.8 0.99
11 3 0 14.86 1.03
11 3 0 14.42 1.04
0 -4 0 6.92 0.63
0 -4 0 6.82 0.5
0 -4 0 6.14 0.56
0 -4 0 7.88 0.64
0 -4 0 7.78 0.6
0 -4 0 6.66 0.65
0 -4 0 6.82 0.65
0 -4 0 6.18 0.52
0 -4 0 7.12 0.56
0 -4 0 8.95 0.63
0 -4 0 7.32 0.56
0 -4 0 7.4 0.56
0 -4 0 6.77 0.58
0 4 0 6.31 0.64
0 4 0 7.4 0.68
0 4 0 7.39 0.65
-1 -4 0 9.29 0.87
-1 -4 0 11.45 0.96
-1 -4 0 10.43 0.91
1 -4 0 10.22 0.76
1 -4 0 10.31 0.88
1 -4 0 11.65 0.85
-1 -4 0 10.86 0.79
-1 -4 0 11.16 0.91
1 -4 0 10.98 0.8
1 -4 0 12.28 0.84
1 -4 0 11.05 0.9
1 -4 0 10.17 0.82
1 -4 0 10.32 0.84
1 -4 0 10.67 0.86
1 -4 0 11.84 0.95
-1 -4 0 10.54 0.79
1 -4 0 11.3 0.85
-1 -4 0 11.29 0.87
1 -4 0 11.43 0.91
1 -4 0 12.05 0.82
-1 -4 0 9.28 0.82
1 4 0 11.88 0.96
-1 4 0 11.54 1.02
-1 4 0 12.18 0.98
1 4 0 10.86 1
1 4 0 11.68 0.96
-1 4 0 10.14 0.87
2 -4 0 9.85 0.73
-2 -4 0 10.64 0.89
2 -4 0 10.38 0.78
2 -4 0 10.22 0.86
2 -4 0 11.01 0.86
2 -4 0 9.3 0.82
2 -4 0 8.98 0.83
-2 -4 0 8.78 0.72
2 -4 0 10.64 0.85
2 -4 0 10.52 0.89
2 -4 0 10.93 0.82
2 -4 0 10.53 0.8
2 -4 0 10.03 0.8
-2 -4 0 9.11 0.79
2 -4 0 9.4 0.78
-2 -4 0 9.54 0.88
-2 -4 0 9.44 0.81
-2 4 0 11.16 0.98
-2 4 0 10.89 0.94
2 4 0 10.92 0.91
-2 4 0 10.93 0.85
2 4 0 11.93 0.91
2 4 0 11.08 0.96
3 -4 0 11.15 0.93
-3 -4 0 11.62 1
3 -4 0 12.62 0.85
3 -4 0 11.51 0.94
3 -4 0 12.07 0.84
-3 -4 0 10.76 0.89
3 -4 0 11.22 0.97
3 -4 0 11.44 0.89
3 -4 0 11.85 0.96
3 -4 0 11.43 0.92
3 -4 0 10.64 0.99
3 -4 0 12.28 0.89
-3 -4 0 12.1 1.06
3 -4 0 11.24 0.98
-3 -4 0 10.69 0.89
-3 -4 0 11.7 1.01
3 -4 0 10.21 0.87
3 -4 0 11.24 0.89
3 4 0 12.1 1.01
-3 4 0 12.39 0.97
3 4 0 12.3 1.05
-3 4 0 12.24 1.07
3 4 0 12.57 1.07
-4 -4 0 12.04 0.96
-4 -4 0 12.45 1.07
4 -4 0 13.53 0.97
4 -4 0 12.36 0.88
-4 -4 0 12.12 1.09
4 -4 0 14.2 0.92
4 -4 0 11.94 0.98
-4 -4 0 12.11 0.97
4 -4 0 11.33 1.06
4 -4 0 12.5 1.04
4 -4 0 13.32 1.02
-4 -4 0 12.98 1.15
4 -4 0 12.12 0.93
4 -4 0 12.35 0.94
4 -4 0 12.38 1.02
4 -4 0 11.96 1.04
-4 4 0 13.91 1.16
-4 4 0 11.4 1.04
4 4 0 12.3 1.14
4 4 0 11.27 1.09
4 4 0 12.4 1.08
-5 -4 0 69.4 4.75
5 -4 0 64.46 4.71
-5 -4 0 55.9 4.34
5 -4 0 64.93 4.43
5 -4 0 59.55 4.23
5 -4 0 61.09 4.34
5 -4 0 61.76 4.45
5 -4 0 66.72 4.66
-5 -4 0 71.57 4.95
-5 -4 0 66.1 4.55
5 -4 0 67.02 4.13
5 -4 0 64.25 4.24
5 -4 0 60.17 3.91
5 4 0 59.77 5.33
5 4 0 62.09 5.05
5 4 0 53.65 5.03
-5 4 0 64.16 5.28
-5 4 0 57.06 4.83
6 -4 0 11.59 0.8
6 -4 0 9.76 0.73
6 -4 0 9.63 0.83
-6 -4 0 10.9 0.99
6 -4 0 10.52 0.77
6 -4 0 9.07 0.74
-6 -4 0 8.89 0.81
6 -4 0 9.35 0.83
-6 -4 0 11.53 0.86
-6 -4 0 10.04 0.95
6 -4 0 9.48 0.67
6 4 0 7.06 0.83
6 4 0 8.53 0.84
6 4 0 8.51 0.89
-6 4 0 8.15 0.91
-6 4 0 7.45 0.85
-6 4 0 8.87 0.84
7 -4 0 4.44 0.4
7 -4 0 4.96 0.45
-7 -4 0 4.52 0.7
7 -4 0 4.18 0.43
7 -4 0 4.16 0.48
-7 -4 0 5.58 0.6
7 -4 0 4.8 0.45
-7 -4 0 3.12 0.52
8 -4 0 33.01 2.4
-8 -4 0 32.69 2.44
8 -4 0 33.9 2.37
8 -4 0 32.17 2.55
-8 -4 0 36.67 2.73
8 -4 0 29.19 2.27
-8 -4 0 38.62 2.71
8 -4 0 34.91 2.27
9 -4 0 16.35 1.09
-9 -4 0 16.23 1.19
9 -4 0 15.56 1.21
-9 -4 0 17.41 1.31
-9 -4 0 18.45 1.34
9 -4 0 15.82 1.13
9 -4 0 14.3 1.13
9 4 0 13.94 1.22
9 4 0 13.34 1.16
9 4 0 15.55 1.2
10 -4 0 1.41 0.17
10 -4 0 1.62 0.18
10 -4 0 1.29 0.18
-10 -4 0 1.5 0.26
-10 -4 0 1.65 0.21
10 4 0 1.67 0.18
10 4 0 1.34 0.16
0 -5 0 0.05 0.09
0 -5 0 0.09 0.1
0 -5 0 0.16 0.1
0 -5 0 0.13 0.12
0 -5 0 0.02 0.07
0 -5 0 0.05 0.1
0 -5 0 -0.02 0.08
0 -5 0 0.08 0.08
0 -5 0 0.23 0.14
0 5 0 -0.03 0.06
0 5 0 0.07 0.07
0 5 0 -0.01 0.05
1 -5 0 16.1 1.14
1 -5 0 15.91 1.17
1 -5 0 14.16 1.12
1 -5 0 16.02 1.13
-1 -5 0 15.26 1.26
1 -5 0 14.8 1.23
-1 -5 0 15.99 1.32
-1 -5 0 16.28 1.18
-1 -5 0 14.04 1.13
-1 -5 0 15.49 1.25
1 -5 0 16 1.22
-1 -5 0 14.93 1.08
1 -5 0 15.01 1.09
1 -5 0 16.35 1.09
1 -5 0 14.61 1.2
-1 -5 0 16.64 1.07
1 -5 0 15.02 1.28
1 -5 0 14.39 1.03
1 5 0 13.72 1.37
-1 5 0 13.38 1.33
-1 5 0 14.27 1.38
-1 5 0 17.43 1.35
1 5 0 15.69 1.31
2 -5 0 1.38 0.25
2 -5 0 1.33 0.24
2 -5 0 1.69 0.24
-2 -5 0 0.86 0.23
2 -5 0 1.26 0.19
2 -5 0 1.22 0.18
-2 -5 0 1.03 0.24
2 -5 0 1.22 0.22
-2 -5 0 1.29 0.3
2 -5 0 1.48 0.26
2 -5 0 1.27 0.21
2 -5 0 1.1 0.22
-2 -5 0 1.16 0.23
2 -5 0 1.28 0.17
-2 -5 0 1.14 0.21
2 -5 0 1.47 0.23
-2 -5 0 1.58 0.21
2 5 0 0.98 0.23
2 5 0 0.83 0.18
2 5 0 0.95 0.2
-2 5 0 0.84 0.19
-2 5 0 0.93 0.21
-2 5 0 0.94 0.23
-3 -5 0 8.39 0.73
-3 -5 0 9.12 0.84
3 -5 0 8.77 0.76
-3 -5 0 10.03 0.89
3 -5 0 8.75 0.75
3 -5 0 8.51 0.77
3 -5 0 9.55 0.68
3 -5 0 10.16 0.72
3 -5 0 9.27 0.69
3 -5 0 8.88 0.72
3 -5 0 8.23 0.79
3 -5 0 9.36 0.76
-3 -5 0 10.26 0.86
-3 -5 0 9.03 0.74
-3 5 0 8.04 0.85
-3 5 0 8.55 0.9
3 5 0 9.14 0.81
3 5 0 8.33 0.84
3 5 0 7.53 0.83
-4 -5 0 42.45 3.03
-4 -5 0 44.34 3.21
4 -5 0 46.05 3.03
4 -5 0 45.98 2.86
4 -5 0 41.44 2.74
4 -5 0 44.37 3.1
4 -5 0 41.55 3.11
4 -5 0 42.35 2.96
4 -5 0 42.2 2.96
-4 -5 0 40.48 2.96
-4 -5 0 45.01 3.46
4 -5 0 39.79 3.33
4 -5 0 43.31 3.23
-5 -5 0 7.67 0.77
5 -5 0 6.26 0.52
5 -5 0 6.41 0.55
-5 -5 0 6.04 0.61
5 -5 0 6.76 0.59
5 -5 0 6.6 0.55
5 -5 0 6.66 0.61
-5 -5 0 6.98 0.67
5 -5 0 5.77 0.62
-5 -5 0 6.71 0.74
5 -5 0 7.12 0.61
5 -5 0 7.12 0.57
5 -5 0 6.33 0.59
6 -5 0 29 2.06
-6 -5 0 28.69 2.43
6 -5 0 30.13 2.1
6 -5 0 28.88 2.31
-6 -5 0 31.15 2.26
6 -5 0 32.36 2.18
6 -5 0 32.28 2.21
-6 -5 0 32.79 2.53
6 -5 0 29.28 1.93
6 -5 0 29.04 2.1
-7 -5 0 9.69 0.96
7 -5 0 10.6 0.78
7 -5 0 8.62 0.67
7 -5 0 10.36 0.75
7 -5 0 10.89 0.79
-7 -5 0 11.14 0.95
7 -5 0 9.93 0.83
-7 -5 0 7.91 0.8
7 -5 0 9.98 0.73
8 -5 0 6.98 0.51
8 -5 0 6.38 0.5
-8 -5 0 5.91 0.53
-8 -5 0 6.72 0.65
8 -5 0 6.54 0.49
-8 -5 0 6.51 0.6
8 5 0 5.27 0.49
9 -5 0 21.96 1.49
-9 -5 0 23.82 1.74
9 -5 0 22.39 1.57
9 5 0 22.57 1.69
0 -6 0 45.46 3.06
0 -6 0 46.14 2.8
0 -6 0 43.5 3.42
0 -6 0 38.6 3.25
0 -6 0 43.9 2.96
0 -6 0 45.48 3.21
1 -6 0 4.52 0.49
-1 -6 0 5.38 0.5
1 -6 0 5.33 0.51
-1 -6 0 5.13 0.44
1 -6 0 5.8 0.46
1 -6 0 5.07 0.44
-1 -6 0 4.47 0.51
1 -6 0 4.7 0.5
1 -6 0 5.28 0.47
-1 -6 0 4.83 0.53
1 -6 0 5.97 0.5
-1 -6 0 5.35 0.55
2 -6 0 4.22 0.37
2 -6 0 3.78 0.33
2 -6 0 3.16 0.38
2 -6 0 3.54 0.36
2 -6 0 3.81 0.37
-2 -6 0 3.79 0.44
2 -6 0 3.44 0.38
-2 -6 0 4.04 0.44
2 -6 0 3.44 0.36
-2 -6 0 4.01 0.34
-2 -6 0 3.39 0.38
2 -6 0 3.19 0.38
-2 -6 0 3.78 0.44
3 -6 0 16.93 1.29
-3 -6 0 18.33 1.31
-3 -6 0 18.5 1.47
3 -6 0 16.67 1.36
3 -6 0 19.26 1.35
3 -6 0 16.57 1.44
-3 -6 0 16.44 1.42
3 -6 0 18.54 1.3
3 -6 0 19.01 1.22
3 -6 0 18.45 1.29
-3 -6 0 18.54 1.53
4 -6 0 1.71 0.23
4 -6 0 1.84 0.23
4 -6 0 1.79 0.23
4 -6 0 1.43 0.22
-4 -6 0 1.43 0.32
-4 -6 0 1.48 0.28
-4 -6 0 1.94 0.34
4 -6 0 1.73 0.2
4 -6 0 1.48 0.23
4 -6 0 1.61 0.24
5 -6 0 12.75 0.91
5 -6 0 11.27 0.82
5 -6 0 11.95 0.79
5 -6 0 10.93 0.87
5 -6 0 11.15 0.86
5 -6 0 12.56 0.86
-5 -6 0 12.14 0.95
-5 -6 0 10.76 1.01
-5 -6 0 10.79 1.04
6 -6 0 0.91 0.13
-6 -6 0 0.46 0.19
6 -6 0 0.61 0.11
6 -6 0 0.91 0.14
6 -6 0 0.8 0.15
-6 -6 0 0.92 0.21
6 -6 0 0.8 0.13
7 -6 0 4.23 0.34
7 -6 0 3.55 0.31
-7 -6 0 4.29 0.41
7 -6 0 4.07 0.33
-7 -6 0 4.45 0.44
0 -7 0 0.06 0.08
0 -7 0 0.01 0.07
0 -7 0 -0.02 0.08
0 -7 0 0.02 0.07
1 -7 0 12.53 0.84
1 -7 0 9.58 0.78
-1 -7 0 12.3 0.9
-1 -7 0 11.21 0.93
1 -7 0 11.38 0.76
1 -7 0 11.28 0.87
1 -7 0 10.13 0.9
-1 -7 0 11.02 0.83
2 -7 0 3.1 0.28
2 -7 0 2.95 0.31
-2 -7 0 3.23 0.3
2 -7 0 2.97 0.28
-2 -7 0 2.71 0.32
2 -7 0 3.31 0.3
-2 -7 0 2.96 0.33
-2 -7 0 3.54 0.35
-3 -7 0 7.46 0.65
3 -7 0 8.08 0.6
-3 -7 0 7.7 0.7
3 -7 0 8.61 0.56
3 -7 0 7.75 0.59
4 -7 0 23.11 1.35
-4 -7 0 19.24 1.67
-12 0 1 15.41 1.24
12 0 -1 16.11 1.23
-12 0 1 13.98 1.19
-12 0 1 16.82 1.16
12 0 -1 17.03 1.21
12 0 -1 15.29 1.07
11 0 -1 11.2 0.95
11 0 -1 11.79 0.84
11 0 -1 12.77 0.96
10 0 -1 1.88 0.22
10 0 -1 2.01 0.25
10 0 -1 2.33 0.25
9 0 -1 4.6 0.42
-9 0 1 4.14 0.45
9 0 -1 3.45 0.42
-9 0 1 3.83 0.5
9 0 -1 4.91 0.42
9 0 -1 5.11 0.42
9 0 -1 4.82 0.37
-9 0 1 4.55 0.51
8 0 -1 1.62 0.19
-8 0 1 1.71 0.29
8 0 -1 1.62 0.19
8 0 -1 1.59 0.19
-8 0 1 1.41 0.26
-8 0 1 1.67 0.22
8 0 -1 1.48 0.23
-8 0 1 1.38 0.2
8 0 -1 1.5 0.17
8 0 -1 1.29 0.19
7 0 -1 131.29 9.78
7 0 -1 124.85 8.62
-7 0 1 141.05 11.45
7 0 -1 137.29 10.7
-7 0 1 143.37 10.74
7 0 -1 138.31 11.32
7 0 -1 120.59 10.19
-7 0 1 139.36 11.22
7 0 -1 136.44 9.88
6 0 -1 9.91 0.86
-6 0 1 10.54 0.82
6 0 -1 8.38 0.72
-6 0 1 8.96 0.86
-6 0 1 9.5 0.86
-6 0 1 10.02 0.88
6 0 -1 8.04 0.64
6 0 -1 10.44 0.79
6 0 -1 8.5 0.73
5 0 -1 301.66 27.99
-5 0 1 355.07 30.23
-5 0 1 391.02 28.19
-5 0 1 362.73 29.41
-5 0 1 335.29 30
5 0 -1 360.51 28.17
5 0 -1 384.52 29.72
4 0 -1 263.47 20.31
-4 0 1 247.21 19.26
-4 0 1 238.62 20.66
-4 0 1 248.32 20.1
4 0 -1 253.06 19.26
-4 0 1 235.16 20.5
4 0 -1 214.94 19.13
3 0 -1 521.11 43.4
-3 0 1 600.86 45.63
3 0 -1 565.93 43.63
-3 0 1 548.86 46.88
3 0 -1 521.41 45.18
3 0 -1 578.1 46.11
-3 0 1 522.84 43.7
2 0 -1 91.94 7.19
2 0 -1 87.32 7.44
-2 0 1 87.19 7.72
-2 0 1 89.54 7.51
-2 0 1 95.77 7.67
2 0 -1 92.95 7.6
-1 0 1 394.43 32.48
-1 0 1 367.35 30.44
1 0 -1 356.83 30.45
1 0 -1 403.15 29.04
1 0 -1 396.8 32.18
1 0 -1 393.26 31.54
0 0 -1 4.08 0.34
0 0 1 4.76 0.36
0 0 1 4.8 0.36
0 0 1 4.56 0.36
0 0 -1 4.2 0.37
0 0 1 5.01 0.37
0 0 1 4.62 0.4
0 0 1 4.09 0.37
0 0 -1 4.74 0.38
0 0 -1 4.22 0.36
-1 0 -1 2.77 0.22
-1 0 -1 2.62 0.24
1 0 1 2.35 0.25
1 0 1 2.63 0.24
1 0 1 2.51 0.23
-1 0 -1 2.63 0.23
1 0 1 2.42 0.23
1 0 1 2.52 0.23
1 0 1 2.38 0.23
2 0 1 1.69 0.22
2 0 1 2.36 0.22
2 0 1 2.19 0.21
-2 0 -1 2.05 0.22
2 0 1 2.39 0.22
-2 0 -1 2.03 0.21
-2 0 -1 2.32 0.19
2 0 1 2.39 0.2
2 0 1 1.63 0.19
3 0 1 34.53 2.86
-3 0 -1 36.43 3.03
3 0 1 37.45 2.88
3 0 1 35.19 2.89
3 0 1 39.02 3.06
3 0 1 37.36 2.9
-3 0 -1 35.32 2.9
-3 0 -1 36 3.09
3 0 1 34.17 3.17
4 0 1 -0.1 0.06
-4 0 -1 -0.1 0.06
4 0 1 -0.09 0.06
-4 0 -1 -0.2 0.05
4 0 1 -0.17 0.04
4 0 1 -0.17 0.03
-4 0 -1 -0.05 0.08
-4 0 -1 -0.15 0.06
4 0 1 -0.14 0.05
5 0 1 50.18 4.51
-5 0 -1 60.33 4.78
-5 0 -1 56.63 4.56
5 0 1 61.37 4.55
-5 0 -1 54.65 4.86
-5 0 -1 51.79 4.32
5 0 1 62.76 4.81
6 0 1 5.58 0.48
-6 0 -1 6.71 0.64
-6 0 -1 7.07 0.59
6 0 1 6.78 0.57
6 0 1 5.7 0.45
6 0 1 5.76 0.55
6 0 1 7.4 0.62
-6 0 -1 6.15 0.54
6 0 1 6.38 0.51
6 0 1 5.75 0.52
-6 0 -1 7.71 0.65
-7 0 -1 9.67 0.76
7 0 1 8.55 0.79
7 0 1 7.7 0.59
-7 0 -1 7.32 0.69
-7 0 -1 8.97 0.82
7 0 1 7.86 0.67
7 0 1 9.22 0.75
-7 0 -1 8.82 0.82
7 0 1 7.37 0.62
7 0 1 8.34 0.67
8 0 1 3.96 0.38
-8 0 -1 4.81 0.46
8 0 1 4.08 0.4
8 0 1 4.62 0.45
8 0 1 5.07 0.41
8 0 1 3.98 0.36
-8 0 -1 4.54 0.52
-8 0 -1 5.05 0.52
9 0 1 3.05 0.33
9 0 1 3.36 0.35
9 0 1 4.41 0.33
9 0 1 3.9 0.36
10 0 1 2.32 0.26
10 0 1 2.52 0.25
10 0 1 2.18 0.26
-11 0 -1 1.37 0.24
-11 0 -1 1.15 0.21
11 0 1 1.14 0.18
11 0 1 1.57 0.18
11 0 1 1.27 0.18
-11 0 -1 1.29 0.22
-12 0 -1 16.24 1.23
12 0 1 18.23 1.16
12 0 1 18.91 1.31
-12 0 -1 15.68 1.29
-12 -1 1 2.95 0.29
12 -1 -1 2.74 0.26
-12 -1 1 3.07 0.35
12 -1 -1 3.49 0.3
12 -1 -1 2.72 0.29
-12 1 1 2.2 0.32
12 1 -1 3.59 0.3
12 1 -1 3.05 0.29
-11 -1 1 13.01 0.96
-11 -1 1 10.15 0.97
11 -1 -1 13.06 0.89
11 -1 -1 12.59 0.99
11 -1 -1 12.41 1
-11 -1 1 12.71 1.05
11 1 -1 12.79 0.99
11 1 -1 13.22 0.98
11 1 -1 11.9 0.86
10 -1 -1 7.95 0.62
10 -1 -1 7.73 0.63
-10 -1 1 6.02 0.61
10 -1 -1 7.52 0.55
10 1 -1 7.09 0.6
10 1 -1 6.76 0.6
10 1 -1 6.05 0.52
9 -1 -1 9.71 0.75
9 -1 -1 9.94 0.72
-9 -1 1 10.25 0.98
-9 -1 1 8.56 0.93
9 -1 -1 10.1 0.82
9 -1 -1 10.68 0.82
-9 1 1 9.5 0.88
-9 1 1 9.55 0.84
9 1 -1 8.09 0.84
9 1 -1 10.71 0.79
9 1 -1 9.91 0.7
9 1 -1 9.68 0.81
9 1 -1 9.43 0.92
9 1 -1 11.24 0.81
-9 1 1 9.04 0.94
8 -1 -1 48.23 3.31
8 -1 -1 50.2 3.28
-8 -1 1 44.8 3.85
-8 -1 1 45.98 3.77
8 -1 -1 42.59 3.4
8 -1 -1 44 2.89
8 -1 -1 45.84 3.05
8 -1 -1 41.34 3.56
8 1 -1 40.84 2.86
-8 1 1 46.91 3.6
8 1 -1 42.32 3.38
-8 1 1 41.8 3.76
8 1 -1 45.17 3.25
8 1 -1 37.71 3.54
8 1 -1 43.38 3.77
-8 1 1 43.49 3.42
8 1 -1 44.94 3.29
-7 -1 1 46.02 3.35
7 -1 -1 38.58 3.16
7 -1 -1 45.58 2.94
7 -1 -1 37.43 3.01
7 -1 -1 41.34 2.56
7 -1 -1 37.97 2.7
7 -1 -1 41.71 2.9
-7 -1 1 39.49 3.16
7 1 -1 35.72 3.14
-7 1 1 38.56 3.02
7 1 -1 33.1 2.53
7 1 -1 34.87 3
-7 1 1 35.08 3.37
7 1 -1 39.9 3.34
-7 1 1 39.36 3.34
-7 1 1 40.94 3.19
6 -1 -1 6.07 0.54
6 -1 -1 6.29 0.49
-6 -1 1 5.92 0.58
-6 -1 1 6.97 0.67
6 -1 -1 6.52 0.56
6 -1 -1 5.71 0.58
-6 -1 1 6.88 0.65
6 -1 -1 5.74 0.51
-6 1 1 7.11 0.65
6 1 -1 7.03 0.59
6 1 -1 7.23 0.64
-6 1 1 7.91 0.62
-6 1 1 7.04 0.64
-5 -1 1 72.99 6.73
-5 -1 1 84.49 7.06
-5 -1 1 85.14 7.21
-5 -1 1 87.03 7.27
5 1 -1 87.14 6.97
-5 1 1 96.31 7.07
5 1 -1 86.88 7.13
-5 1 1 91.07 7.19
5 1 -1 76.1 6.73
5 1 -1 79.41 6.7
-4 -1 1 61.32 4.91
-4 -1 1 69.13 5.32
-4 -1 1 61.26 5.15
4 -1 -1 53.46 4.88
-4 -1 1 59.78 5.26
4 1 -1 65.91 5.09
-4 1 1 58.65 5.24
-4 1 1 66.65 4.94
-4 1 1 61.64 5.15
4 1 -1 59.5 4.89
4 1 -1 58.83 4.91
4 1 -1 64.97 5.2
-3 -1 1 61.29 5.19
-3 -1 1 71.07 5.44
-3 -1 1 67.81 5.56
3 -1 -1 74.64 5.2
-3 1 1 58.84 5.21
-3 1 1 66.03 5.44
3 1 -1 65.41 5.37
3 1 -1 62.32 5.17
3 1 -1 59.06 5.19
3 1 -1 67.59 5.49
-2 -1 1 68.09 5.94
-2 -1 1 58.05 5.75
2 1 -1 71.16 5.7
2 1 -1 72.98 5.82
-2 1 1 69.08 5.76
2 1 -1 72.69 5.51
2 1 -1 75.29 5.24
-2 1 1 64.63 5.9
-2 1 1 73.28 5.87
-1 -1 1 145.45 12.66
-1 -1 1 134.3 11.99
-1 -1 1 124.7 12.24
-1 -1 1 149.3 12.35
1 1 -1 155.67 10.93
1 1 -1 159.61 12.16
0 -1 1 474.13 43.13
0 -1 1 495.6 40.03
0 -1 1 475.21 44.26
0 1 -1 512.1 40.18
0 1 -1 526.61 41.56
0 1 1 546.34 42.4
0 1 -1 519.96 38.24
1 -1 1 361.13 26.12
-1 -1 -1 306.15 27.93
1 -1 1 280.02 28.83
-1 -1 -1 337.88 27.35
-1 -1 -1 305.82 26.18
1 1 1 317.09 27.07
1 1 1 340.77 27.65
-1 1 -1 366.4 24.94
-1 1 -1 332.38 26.22
-1 1 -1 336.88 27.32
1 1 1 353.13 26.21
2 -1 1 84.81 6.47
-2 -1 -1 89.81 6.78
-2 -1 -1 75.28 6.48
-2 -1 -1 78.55 6.92
2 -1 1 87.46 6.49
2 -1 1 71.81 7.13
-2 1 -1 79.16 6.78
2 1 1 83.95 6.84
2 1 1 80.74 6.48
2 1 1 78.6 6.7
2 1 1 89.96 6.47
-2 1 -1 79.66 6.5
-2 1 -1 83.1 6.18
3 -1 1 10.84 0.99
-3 -1 -1 12.73 0.98
3 -1 1 14.66 1.02
3 1 1 12.97 1.05
-3 1 -1 11.62 1
3 1 1 11.55 0.99
-3 1 -1 10.71 1.05
3 1 1 12.4 1
-3 1 -1 12.14 1.05
-3 1 -1 12.44 0.96
3 1 1 11.42 1.01
-4 -1 -1 90.58 8.11
-4 -1 -1 93.41 7.71
4 -1 1 87.51 8.08
-4 -1 -1 111.31 8.68
-4 -1 -1 103.6 8.5
4 1 1 106.72 8.09
-4 1 -1 111.99 8.5
-4 1 -1 103.99 8.14
-4 1 -1 101.05 8.64
-4 1 -1 104.94 7.74
4 1 1 108.52 8.58
4 1 1 101.43 8.12
5 -1 1 36.96 2.84
-5 -1 -1 39.7 3.04
-5 -1 -1 33.39 2.81
5 -1 1 33.08 2.8
-5 -1 -1 35.52 2.97
5 1 1 35.39 2.97
5 1 1 34.26 2.82
5 1 1 30.97 3.08
5 1 1 31.61 2.8
-5 1 -1 33.85 2.69
-5 1 -1 36.99 2.97
-5 1 -1 33.25 2.99
-5 1 -1 38.87 2.84
6 -1 1 14.02 1.12
-6 -1 -1 13.61 1.3
6 -1 1 16.63 1.34
-6 -1 -1 16.49 1.45
6 -1 1 14.62 1.21
6 -1 1 15.66 1.2
6 -1 1 13.91 1.15
-6 -1 -1 15.83 1.41
6 -1 1 16.44 1.07
-6 1 -1 17.23 1.34
-6 1 -1 15.57 1.26
-6 1 -1 18.08 1.41
6 1 1 16.4 1.39
-6 1 -1 16.38 1.4
6 1 1 15.88 1.31
6 1 1 15.45 1.3
7 -1 1 20.39 1.28
-7 -1 -1 19.5 1.68
7 -1 1 18.37 1.34
7 -1 1 19.87 1.43
-7 -1 -1 17.57 1.55
7 -1 1 19.08 1.58
-7 -1 -1 19.73 1.72
7 -1 1 18.59 1.45
-7 1 -1 17.52 1.5
-7 1 -1 18.32 1.67
-7 1 -1 19.27 1.59
7 1 1 17.96 1.65
7 1 1 17.42 1.55
-8 -1 -1 16.57 1.72
8 -1 1 17.33 1.59
8 -1 1 19.7 1.45
8 -1 1 17.77 1.46
8 -1 1 18.44 1.36
8 -1 1 18.33 1.29
-8 -1 -1 17.71 1.69
8 1 1 18.18 1.57
8 1 1 19.56 1.68
8 1 1 19.9 1.46
-8 1 -1 17.69 1.52
8 1 1 20.01 1.28
-8 1 -1 21.95 1.62
-8 1 -1 18.75 1.7
8 1 1 20.86 1.44
9 -1 1 3.38 0.35
9 -1 1 3.42 0.35
-9 -1 -1 4.09 0.45
-9 -1 -1 3.21 0.4
9 -1 1 3.55 0.32
9 -1 1 3.52 0.34
9 1 1 3.23 0.33
9 1 1 3.31 0.3
9 1 1 3.53 0.34
10 -1 1 7.53 0.64
10 -1 1 6.47 0.63
-10 -1 -1 7.36 0.71
10 -1 1 7.24 0.59
10 -1 1 7.38 0.57
-10 -1 -1 6.92 0.68
-10 -1 -1 7.22 0.64
10 1 1 7.75 0.63
10 1 1 8.43 0.64
10 1 1 8.1 0.57
-11 -1 -1 6.75 0.62
11 -1 1 6.73 0.51
11 -1 1 6.96 0.57
-11 -1 -1 6.47 0.59
-11 -1 -1 6.79 0.57
11 1 1 6.46 0.5
11 1 1 6.15 0.55
11 1 1 7.49 0.57
12 -1 1 1 0.14
12 -1 1 0.98 0.15
-12 -1 -1 1.1 0.17
-12 1 -1 1.55 0.21
-12 1 -1 1.67 0.18
-12 -2 1 2.66 0.25
12 -2 -1 2.49 0.24
-12 -2 1 2.5 0.29
12 -2 -1 2.41 0.22
12 2 -1 2.18 0.23
12 2 -1 2.01 0.22
-11 -2 1 9.31 0.74
11 -2 -1 8.11 0.7
11 -2 -1 9.35 0.67
-11 -2 1 9.31 0.82
11 -2 -1 8.04 0.76
11 -2 -1 8.74 0.76
11 2 -1 10.44 0.75
11 2 -1 10.53 0.76
-10 -2 1 6 0.63
10 -2 -1 5.99 0.59
10 -2 -1 5.93 0.52
10 -2 -1 5.87 0.53
-10 -2 1 7.1 0.7
10 -2 -1 6.97 0.59
-10 -2 1 6.24 0.58
10 2 -1 6.64 0.56
10 2 -1 8.01 0.58
10 2 -1 6.35 0.56
-9 -2 1 16.39 1.39
9 -2 -1 16.35 1.3
9 -2 -1 14.95 1.15
9 -2 -1 15.33 1.32
-9 -2 1 17 1.42
9 -2 -1 15.02 1.19
-9 -2 1 16.28 1.27
9 2 -1 17.4 1.26
9 2 -1 17.3 1.29
9 2 -1 16.51 1.31
-8 -2 1 9.12 0.82
8 -2 -1 8.61 0.73
8 -2 -1 10.8 0.83
-8 -2 1 10.79 0.92
8 -2 -1 10.1 0.71
8 -2 -1 11.36 0.8
-8 -2 1 8.16 0.88
-8 -2 1 12.3 0.95
8 -2 -1 9.85 0.73
-8 -2 1 10.37 0.95
-8 -2 1 11.35 0.83
-8 2 1 8.08 0.88
-8 2 1 8.76 0.85
8 2 -1 7.95 0.8
8 2 -1 7.79 0.64
8 2 -1 7.99 0.87
8 2 -1 8.83 0.78
-8 2 1 8.4 0.8
7 -2 -1 13.48 1.04
-7 -2 1 9.97 1.03
-7 -2 1 14.7 1.16
-7 -2 1 12.99 1.22
-7 -2 1 11.34 1.16
7 -2 -1 13.35 0.92
7 -2 -1 11.95 1.06
7 -2 -1 12.33 0.97
7 -2 -1 12.21 0.95
7 -2 -1 14 1.07
7 2 -1 11.61 1.16
7 2 -1 13.85 1.1
-7 2 1 12.07 1.16
-7 2 1 14.85 1.14
-7 2 1 12.36 1.06
-6 -2 1 82.33 6.49
6 -2 -1 66.7 5.04
6 -2 -1 74.82 5.25
6 -2 -1 66.83 5.53
6 -2 -1 66.77 5.76
-6 -2 1 83.38 5.37
6 -2 -1 72.56 5.15
-6 -2 1 70.32 6.31
6 -2 -1 66.95 5.6
-6 2 1 82.52 6.32
6 2 -1 80.42 6.04
6 2 -1 78.06 6.23
6 2 -1 74 6
-6 2 1 83.06 5.77
6 2 -1 82.07 6.39
5 -2 -1 95.97 6.36
5 -2 -1 91.72 7.21
-5 -2 1 92.19 8.23
5 -2 -1 95.5 6.85
-5 -2 1 110.26 8.52
5 -2 -1 97.57 7.3
-5 2 1 106.42 8.24
-5 2 1 91.57 8.36
-5 2 1 103.85 7.9
5 2 -1 103.47 7.87
-5 2 1 95.95 7.51
5 2 -1 103.59 8.32
5 2 -1 97.61 8.13
5 2 -1 98.03 7.84
-4 -2 1 51.72 3.96
-4 -2 1 47.7 3.84
-4 2 1 44.99 3.69
4 2 -1 44.91 3.67
4 2 -1 47.57 3.89
4 2 -1 42.93 3.66
-4 2 1 43.14 3.89
4 2 -1 46.44 3.79
-4 2 1 43.28 3.84
-3 -2 1 84.33 8.25
-3 -2 1 96.28 8.55
-3 -2 1 92.66 8.45
-3 2 1 88.7 8.41
-3 2 1 105.88 8.27
-3 2 1 104.08 7.94
3 2 -1 106.97 7.92
3 2 -1 106.85 8.19
3 2 -1 111.56 8.37
-2 -2 1 97.52 9.29
-2 -2 1 104.42 9.51
-2 -2 1 112.67 9.62
-2 2 1 113.9 8.5
2 2 -1 125.07 8.93
2 2 -1 127.13 9.23
2 2 -1 120.33 8.49
-2 2 1 114.79 9.31
-2 2 1 109.71 8.93
-2 2 1 100.04 9.49
-1 -2 1 182.77 16.98
-1 -2 1 210.47 17.15
1 2 -1 205.48 16.5
-1 2 1 204.65 16.54
1 2 -1 211.32 15.17
1 2 -1 217.36 16.84
-1 2 1 178.6 15.95
-1 2 1 200.95 15.18
0 -2 1 21.29 1.97
0 2 1 21.47 1.88
0 2 -1 23.77 1.94
0 2 -1 23.68 1.9
0 2 1 23.33 1.93
0 2 1 21.82 1.72
0 2 -1 23.49 1.74
0 2 -1 21.62 1.81
-1 -2 -1 55.71 4.65
1 -2 1 54.76 4.94
-1 -2 -1 57.51 4.77
1 2 1 55.83 4.47
-1 2 -1 55.7 4.63
1 2 1 59.72 4.72
-1 2 -1 52.91 4.46
-1 2 -1 57.02 4.26
1 2 1 54.63 4.61
-2 -2 -1 38.68 3.74
2 2 1 47.94 3.7
2 2 1 41.48 3.6
2 2 1 46.32 3.51
-2 2 -1 45.49 3.51
-2 2 -1 41.67 3.64
-2 2 -1 45.23 3.35
-3 -2 -1 96.81 8.34
-3 -2 -1 105.33 8.53
3 -2 1 93.14 7.97
3 2 1 104.48 8.43
3 2 1 104.3 7.98
-3 2 -1 104.45 7.62
-3 2 -1 96.66 8.33
3 2 1 96.67 8.24
3 2 1 107.47 7.97
-3 2 -1 95.79 8
-4 -2 -1 167.16 12.41
-4 -2 -1 148.15 12.13
4 -2 1 124.25 11.56
-4 2 -1 141.83 12.12
4 2 1 142.12 11.56
4 2 1 157.11 12.25
-4 2 -1 150.62 11.07
-4 2 -1 144.22 11.63
4 2 1 129.78 11.98
4 2 1 157.07 11.61
5 -2 1 71.23 5.12
-5 -2 -1 69.59 5.62
-5 -2 -1 72.08 5.39
5 -2 1 67.97 5.86
-5 -2 -1 73.24 6.16
5 -2 1 68.69 5.02
-5 -2 -1 67.08 5.02
5 -2 1 66.19 4.75
5 -2 1 67.99 4.92
-5 -2 -1 76.68 6.31
-5 -2 -1 65.36 5.29
5 2 1 78.99 5.88
5 2 1 70.07 6.05
-5 2 -1 83.67 5.63
5 2 1 84.62 5.9
-5 2 -1 78.46 5.91
5 2 1 78.54 6.22
-5 2 -1 82.31 6.16
-6 -2 -1 7.49 0.77
6 -2 1 6.85 0.61
6 -2 1 8.37 0.68
-6 -2 -1 8.88 0.82
6 -2 1 8.78 0.66
6 -2 1 8.86 0.64
-6 -2 -1 8.48 0.76
-6 -2 -1 7.83 0.75
6 -2 1 8.98 0.61
-6 -2 -1 5.94 0.7
6 -2 1 7.36 0.68
-6 -2 -1 6.98 0.67
-6 2 -1 8.07 0.7
6 2 1 6.88 0.7
6 2 1 7.84 0.75
-6 2 -1 7.36 0.75
-6 2 -1 9.15 0.74
6 2 1 8.13 0.72
7 -2 1 94.99 6.61
7 -2 1 98.19 6.49
7 -2 1 102.56 6.98
-7 -2 -1 104.36 7
-7 -2 -1 98.99 8.16
-7 -2 -1 90.49 7.97
7 -2 1 93.11 7.04
-7 -2 -1 104.51 7.28
-7 -2 -1 94.73 6.87
7 -2 1 101.1 6.15
-7 -2 -1 97.83 6.51
-7 2 -1 83.19 7.94
-7 2 -1 90.09 7.25
7 2 1 87.61 7.59
-7 2 -1 93.77 7.62
7 2 1 86.73 8.01
8 -2 1 4.04 0.37
-8 -2 -1 4.03 0.45
8 -2 1 3.56 0.37
8 -2 1 3.71 0.41
-8 -2 -1 4.74 0.54
-8 -2 -1 3.26 0.48
-8 -2 -1 3.34 0.48
-8 -2 -1 3.25 0.45
8 -2 1 3.56 0.39
-8 -2 -1 4.11 0.49
8 -2 1 3.75 0.42
-8 2 -1 4.37 0.45
8 2 1 4.58 0.39
8 2 1 4.7 0.43
-8 2 -1 4.12 0.48
8 2 1 4.72 0.46
-8 2 -1 4.99 0.45
-9 -2 -1 13.32 1.14
9 -2 1 12.27 0.91
-9 -2 -1 12.96 1.02
-9 -2 -1 12.42 1.06
9 -2 1 12.93 1.02
9 -2 1 11.66 0.94
9 2 1 11.8 0.87
9 2 1 12.73 0.99
9 2 1 13.29 1.01
-10 -2 -1 1.07 0.22
10 -2 1 0.96 0.17
10 -2 1 1.09 0.18
-10 -2 -1 1.29 0.27
10 -2 1 0.87 0.16
10 2 1 0.89 0.15
10 2 1 0.86 0.15
10 2 1 0.88 0.14
11 -2 1 0.5 0.1
-11 -2 -1 0.47 0.16
-11 -2 -1 0.6 0.14
11 -2 1 0.52 0.12
11 -2 1 0.51 0.11
11 2 1 0.49 0.11
11 2 1 0.48 0.1
-11 -3 1 2.11 0.3
11 -3 -1 1.87 0.19
11 -3 -1 1.78 0.2
11 -3 -1 1.7 0.18
-11 -3 1 1.59 0.22
11 3 -1 1.52 0.19
11 3 -1 1.28 0.17
10 -3 -1 13.76 1.04
10 -3 -1 12.14 1.04
-10 -3 1 14.18 1.02
-10 -3 1 14.79 1.14
10 -3 -1 11.92 0.94
10 -3 -1 12.99 0.92
-10 -3 1 12.92 1.1
10 3 -1 13.47 1.03
10 3 -1 12 0.99
10 3 -1 11.78 1.03
-9 -3 1 0.28 0.16
9 -3 -1 0.24 0.13
-9 -3 1 0.21 0.18
9 -3 -1 0.2 0.14
9 -3 -1 0.08 0.09
9 -3 -1 0.22 0.1
-9 -3 1 0.28 0.17
9 -3 -1 0.12 0.09
9 3 -1 -0.01 0.06
9 3 -1 0.09 0.09
9 3 -1 0.02 0.06
-8 -3 1 8.22 0.79
8 -3 -1 9.07 0.79
8 -3 -1 8.89 0.69
8 -3 -1 7.23 0.69
8 -3 -1 9.3 0.81
-8 -3 1 8.9 0.9
-8 -3 1 9.19 0.89
8 -3 -1 8.71 0.71
7 -3 -1 7.18 0.58
7 -3 -1 6.69 0.66
-7 -3 1 7.66 0.76
7 -3 -1 7.04 0.6
-7 -3 1 7.79 0.79
7 -3 -1 6.59 0.66
-7 -3 1 7.44 0.76
7 -3 -1 6.42 0.55
7 -3 -1 6.94 0.68
7 -3 -1 7.35 0.6
7 3 -1 6.05 0.65
-7 3 1 6.64 0.66
7 3 -1 7.01 0.72
-7 3 1 6.79 0.65
-6 -3 1 5.64 0.62
6 -3 -1 6.03 0.5
6 -3 -1 6.24 0.49
6 -3 -1 5.17 0.54
-6 -3 1 6.12 0.58
-6 -3 1 4.49 0.52
6 -3 -1 5.03 0.42
6 -3 -1 5.87 0.57
6 -3 -1 5.81 0.47
-6 -3 1 5.42 0.63
6 -3 -1 4.83 0.54
6 -3 -1 5.53 0.5
-6 -3 1 5.57 0.61
6 3 -1 5.66 0.54
-6 3 1 5.48 0.55
6 3 -1 5.17 0.52
-6 3 1 6.07 0.55
6 3 -1 5.33 0.53
6 3 -1 5.74 0.58
-6 3 1 5.33 0.56
5 -3 -1 67.36 5.42
-5 -3 1 74.83 5.53
5 -3 -1 77.3 4.65
-5 -3 1 73.94 5.13
-5 -3 1 73.31 5.29
5 -3 -1 68.67 4.41
5 -3 -1 65.53 5.73
5 -3 -1 63.06 4.78
5 -3 -1 69.64 4.99
5 -3 -1 68.68 5.03
5 -3 -1 67.01 4.89
5 -3 -1 72.93 4.79
-5 -3 1 68.25 4.89
5 -3 -1 77.21 5.34
5 -3 -1 67.48 5.49
5 -3 -1 75.64 5.27
5 -3 -1 70.18 5.78
5 3 -1 68.6 5.7
-5 3 1 79.47 5.74
-5 3 1 73.03 5.47
5 3 -1 74.39 6.04
5 3 -1 78.21 5.71
5 3 -1 72.71 5.89
-5 3 1 63.95 5.95
4 -3 -1 14.16 1.03
4 -3 -1 14.06 0.95
4 -3 -1 13.48 1.24
4 -3 -1 13.65 1.04
-4 -3 1 12.41 1.04
4 -3 -1 13.26 1.01
4 -3 -1 14.08 1.17
4 -3 -1 13.69 1.25
4 -3 -1 14.42 1.12
4 -3 -1 13.58 1.14
4 -3 -1 13.28 1.03
4 -3 -1 14.98 1.12
4 -3 -1 13.34 1.07
-4 -3 1 12.33 1.03
-4 -3 1 12.41 1.28
-4 -3 1 13.98 1.16
4 -3 -1 15.1 1.19
4 -3 -1 14.19 1.07
-4 -3 1 15.36 1.16
4 -3 -1 14.84 1.15
4 -3 -1 15.09 0.99
-4 3 1 13.92 1.23
4 3 -1 15.67 1.21
-4 3 1 15.3 1.16
-4 3 1 13.39 1.19
4 3 -1 16.81 1.2
3 -3 -1 6.84 0.55
3 -3 -1 7.22 0.61
-3 -3 1 5.82 0.61
3 -3 -1 6.33 0.67
3 -3 -1 6.73 0.58
3 -3 -1 7.3 0.6
3 -3 -1 6.99 0.52
3 -3 -1 7.2 0.66
3 -3 -1 6.83 0.55
-3 -3 1 7.88 0.75
3 -3 -1 7.04 0.68
3 -3 -1 6.5 0.55
3 -3 -1 6.87 0.61
3 -3 -1 6.59 0.57
-3 -3 1 6.54 0.62
3 -3 -1 7.05 0.7
3 -3 -1 6.74 0.63
3 -3 -1 7.34 0.55
-3 -3 1 6.81 0.65
3 -3 -1 6.68 0.52
3 -3 -1 8.13 0.6
3 -3 -1 6.89 0.57
3 -3 -1 6.98 0.6
-3 -3 1 6.45 0.66
3 3 -1 7.5 0.67
-3 3 1 6.29 0.63
-3 3 1 6.76 0.62
3 3 -1 7.88 0.63
3 3 -1 8.52 0.64
-3 3 1 6.95 0.6
-2 -3 1 54.73 5.16
-2 -3 1 63.75 5.27
-2 3 1 56.43 5.04
-2 3 1 60.02 4.62
2 3 -1 69.36 5.14
-2 3 1 56.73 4.84
2 3 -1 64.15 4.86
2 3 -1 59.01 4.59
2 3 -1 63.3 5.01
-2 3 1 60.18 5.02
-1 3 1 78.45 6.67
-1 3 1 85.04 7.07
1 3 -1 90.7 7.08
1 3 -1 77.94 6.35
-1 3 1 83.79 6.36
-1 3 1 80 6.92
1 3 -1 93.02 6.93
0 3 1 16.41 1.34
0 3 -1 18.84 1.53
0 3 -1 16.28 1.35
0 3 1 18.03 1.52
0 3 1 18.01 1.48
0 3 -1 17.74 1.49
1 3 1 24.68 2.1
1 3 1 25.68 2.17
-1 3 -1 25.13 2.12
-1 3 -1 22.62 2.03
-1 3 -1 25.56 1.95
1 3 1 28.08 2.06
2 -3 1 23.08 1.57
-2 -3 -1 22.43 1.83
2 -3 1 21.71 1.68
-2 -3 -1 20.67 1.91
-2 3 -1 25.62 1.89
2 3 1 25.28 2.02
-2 3 -1 24.44 2.05
-2 3 -1 23.07 1.96
2 3 1 27.48 1.99
2 3 1 26.83 2.09
3 -3 1 39.91 2.97
3 -3 1 41.45 2.75
-3 -3 -1 42.89 3.4
-3 -3 -1 44.27 3.26
-3 -3 -1 42.59 3.17
-3 -3 -1 36.55 3.17
3 -3 1 43.13 2.98
3 -3 1 40.43 3.09
3 -3 1 44.9 2.86
-3 -3 -1 46.84 3.78
3 -3 1 43.92 3.02
3 3 1 47.92 3.53
3 3 1 48 3.72
3 3 1 43.3 3.61
3 3 1 44.15 3.53
-3 3 -1 46.65 3.38
-3 3 -1 46.17 3.67
-3 3 -1 42.94 3.52
4 -3 1 8.06 0.7
-4 -3 -1 9.25 0.76
4 -3 1 9.66 0.78
-4 -3 -1 9.7 0.84
4 -3 1 9.48 0.7
-4 -3 -1 10.75 0.93
4 -3 1 8.68 0.73
-4 -3 -1 10.01 0.88
-4 -3 -1 8.89 0.8
4 -3 1 8.21 0.78
4 -3 1 9.14 0.76
4 -3 1 9.39 0.68
-4 -3 -1 8.13 0.79
4 -3 1 9.01 0.73
-4 3 -1 9.82 0.81
4 3 1 9.83 0.82
4 3 1 10.53 0.88
-4 3 -1 10.23 0.9
-4 3 -1 9.79 0.83
4 3 1 9.84 0.85
-5 -3 -1 23.4 1.8
5 -3 1 22.82 1.59
-5 -3 -1 25.61 1.87
5 -3 1 23.1 1.71
5 -3 1 24.07 1.81
5 -3 1 24.48 1.67
-5 -3 -1 24.32 1.72
5 -3 1 25.22 1.8
5 -3 1 23.48 1.64
-5 -3 -1 24.71 1.94
-5 -3 -1 24 2.09
5 -3 1 22.89 1.51
5 3 1 22.77 1.92
5 3 1 20.76 1.92
5 3 1 21.19 2.02
-5 3 -1 23.36 2.03
-5 3 -1 20.63 1.84
-5 3 -1 21.48 1.92
-6 -3 -1 6.79 0.69
6 -3 1 6.08 0.56
-6 -3 -1 5.95 0.68
6 -3 1 7.32 0.56
-6 -3 -1 6.3 0.61
6 -3 1 6.09 0.53
6 -3 1 5.11 0.58
-6 -3 -1 6.52 0.68
6 -3 1 5.93 0.53
6 3 1 7.04 0.63
-6 3 -1 6.3 0.6
-6 3 -1 6.29 0.61
6 3 1 6.02 0.64
-6 3 -1 7.09 0.69
6 3 1 5.86 0.62
7 -3 1 13.32 0.95
7 -3 1 15.68 0.99
-7 -3 -1 11.5 1.06
7 -3 1 14.82 1.01
-7 -3 -1 14.05 1.28
-7 -3 -1 11.06 1.1
-7 -3 -1 14.79 1.2
7 -3 1 14.2 1.03
7 -3 1 13.97 1.09
-7 3 -1 12.04 1.14
7 3 1 10.78 1.17
-7 3 -1 11.27 1.09
7 3 1 11.49 1.13
-8 -3 -1 43.75 3.52
-8 -3 -1 51.33 3.4
-8 -3 -1 46.16 3.72
8 -3 1 47.89 3.31
8 -3 1 48.83 3.15
8 -3 1 47.13 3.56
8 -3 1 43.92 3.35
-8 -3 -1 50.88 3.66
9 -3 1 0.74 0.17
-9 -3 -1 1.01 0.25
-9 -3 -1 0.49 0.22
9 -3 1 0.65 0.15
9 -3 1 0.55 0.14
9 -3 1 0.51 0.14
-9 -3 -1 0.47 0.19
9 3 1 1.03 0.13
9 3 1 1.15 0.17
10 -3 1 15.39 1.2
-10 -3 -1 17.83 1.31
10 -3 1 15.4 1.25
-10 -3 -1 17.57 1.42
10 -3 1 16.32 1.35
10 3 1 20.59 1.34
10 3 1 19.68 1.36
-11 -3 -1 17.09 1.17
11 -3 1 16.57 1.09
-11 -3 -1 15.01 1.24
11 3 1 14.96 1.22
11 3 1 17.31 1.22
-10 -4 1 13.33 1.02
10 -4 -1 15.05 0.97
10 -4 -1 13.64 1
-10 -4 1 13.56 1.14
-10 -4 1 15.95 1.17
10 -4 -1 13.89 1.08
10 4 -1 13 1.1
10 4 -1 12.92 1.05
10 4 -1 15.59 1.09
9 -4 -1 7.22 0.61
9 -4 -1 5.87 0.53
9 -4 -1 7 0.55
-9 -4 1 7.56 0.69
9 -4 -1 6.62 0.55
-9 -4 1 6.56 0.6
-9 -4 1 7.59 0.73
9 4 -1 7.03 0.58
9 4 -1 6.37 0.54
9 4 -1 7 0.59
8 -4 -1 1.44 0.28
-8 -4 1 1.47 0.29
-8 -4 1 2.1 0.39
8 -4 -1 1.62 0.21
-8 -4 1 1.69 0.41
8 -4 -1 1.89 0.3
8 -4 -1 1.47 0.22
8 -4 -1 1.66 0.24
8 -4 -1 1.55 0.24
7 -4 -1 3.93 0.37
7 -4 -1 3.78 0.45
7 -4 -1 3.78 0.34
-7 -4 1 3.86 0.46
7 -4 -1 4.13 0.41
-7 -4 1 5.09 0.58
-7 -4 1 3.11 0.56
7 -4 -1 3.73 0.4
7 -4 -1 3.75 0.46
7 -4 -1 4.75 0.42
6 -4 -1 25.34 2.19
-6 -4 1 31.91 2.15
6 -4 -1 31.8 1.99
6 -4 -1 29.15 1.77
-6 -4 1 27.99 2.25
6 -4 -1 28.61 2.17
-6 -4 1 30.63 2.34
6 -4 -1 28.67 2.14
-6 -4 1 25.11 2
6 -4 -1 27.69 1.92
6 -4 -1 31.35 2.02
6 -4 -1 28.12 2.05
6 -4 -1 29.58 1.91
6 -4 -1 28.79 1.89
-6 4 1 23.4 2.39
6 4 -1 22.94 2.25
-6 4 1 21.85 2.17
6 4 -1 22.16 2.38
-5 -4 1 18.26 1.52
5 -4 -1 18.07 1.46
5 -4 -1 19.5 1.43
5 -4 -1 17.98 1.28
5 -4 -1 16.63 1.56
5 -4 -1 19.04 1.46
5 -4 -1 18.41 1.27
-5 -4 1 17.31 1.56
5 -4 -1 17.11 1.28
5 -4 -1 17.81 1.36
5 -4 -1 17.85 1.19
5 -4 -1 17.87 1.35
5 -4 -1 18.16 1.32
5 -4 -1 15.21 1.46
-5 -4 1 14.27 1.6
-5 -4 1 15.72 1.32
-5 -4 1 17.02 1.45
5 4 -1 15.78 1.5
-5 4 1 17.86 1.46
5 4 -1 17.63 1.58
5 4 -1 19.49 1.5
-5 4 1 20.83 1.63
4 -4 -1 17.83 1.26
4 -4 -1 17.9 1.38
-4 -4 1 17.56 1.5
4 -4 -1 15.34 1.43
4 -4 -1 16.66 1.16
4 -4 -1 18.61 1.37
4 -4 -1 16.67 1.31
4 -4 -1 16.91 1.32
4 -4 -1 17.56 1.25
-4 -4 1 15.24 1.27
4 -4 -1 16.75 1.41
4 -4 -1 17.93 1.41
4 -4 -1 18.89 1.22
-4 -4 1 16.01 1.27
4 -4 -1 15.36 1.51
4 -4 -1 18.51 1.28
-4 -4 1 17.79 1.42
-4 -4 1 16.96 1.43
4 4 -1 18.46 1.46
4 4 -1 16.18 1.47
4 4 -1 18.15 1.55
-4 4 1 17.13 1.41
-4 4 1 18.05 1.54
4 4 -1 16.04 1.47
-3 -4 1 61.43 4.12
3 -4 -1 55.07 4.01
3 -4 -1 58.15 4.32
3 -4 -1 55.98 4.08
3 -4 -1 56.46 4.36
3 -4 -1 55.68 3.53
3 -4 -1 53.57 3.84
3 -4 -1 57.78 4.13
-3 -4 1 58.34 4.38
3 -4 -1 57.9 4.22
-3 -4 1 54.12 3.85
-3 -4 1 53.13 4.16
3 -4 -1 59.55 4.59
3 -4 -1 57.94 3.83
3 -4 -1 61.99 3.88
3 -4 -1 59.16 4.15
3 -4 -1 58.21 3.82
3 -4 -1 57.78 3.96
3 -4 -1 60.16 3.67
-3 -4 1 48.74 3.84
3 4 -1 55.47 4.52
-3 4 1 55.19 4.69
-3 4 1 49.98 4.79
3 4 -1 53.25 4.65
3 4 -1 54.9 4.77
-3 4 1 51.21 4.3
-2 -4 1 8.2 0.77
2 -4 -1 9.64 0.81
2 -4 -1 10.3 0.75
-2 -4 1 10.39 0.93
2 -4 -1 9.76 0.73
2 -4 -1 10.03 0.89
2 -4 -1 10.42 0.79
2 -4 -1 10.34 0.87
-2 -4 1 9.39 0.87
-2 -4 1 9.99 0.83
2 -4 -1 10.07 0.85
2 -4 -1 10.43 0.8
2 -4 -1 10.55 0.87
2 -4 -1 10.92 0.91
-2 -4 1 8.86 0.73
2 -4 -1 11.06 0.82
2 -4 -1 10.22 0.8
2 -4 -1 10.69 0.83
2 -4 -1 10.33 0.92
2 -4 -1 10.39 0.85
2 -4 -1 10.14 0.77
-2 4 1 11.36 0.94
-2 4 1 11.19 0.97
2 4 -1 10.6 0.91
2 4 -1 10.78 0.91
2 4 -1 11.42 0.96
-2 4 1 10.16 0.84
1 -4 -1 52.93 3.48
1 -4 -1 50.7 3.79
-1 -4 1 46.63 3.78
1 -4 -1 49.65 3.34
1 -4 -1 53.44 3.85
1 -4 -1 51.91 3.74
1 -4 -1 53.97 3.61
-1 -4 1 51.39 3.99
1 -4 -1 52.53 3.97
1 -4 -1 54.08 3.52
1 -4 -1 50.47 3.6
-1 -4 1 47.96 3.46
1 -4 -1 51.34 4.32
-1 -4 1 51.67 3.72
-1 -4 1 53.16 3.55
1 -4 -1 52.1 3.52
1 -4 -1 53.77 3.92
-1 -4 1 49.09 3.25
-1 -4 1 43.42 3.5
1 -4 -1 54.08 3.8
1 -4 -1 53.46 3.25
1 -4 -1 50.48 3.53
1 -4 -1 55.55 3.71
-1 4 1 52.34 4.38
1 4 -1 50.83 4.38
1 4 -1 52.79 4.16
-1 4 1 51 4.27
1 4 -1 50.46 4.27
0 -4 1 0.94 0.16
0 -4 -1 1.07 0.13
0 -4 1 1.55 0.23
0 -4 1 1.08 0.21
0 -4 -1 1.41 0.25
0 -4 -1 0.89 0.17
0 -4 -1 1.25 0.16
0 -4 -1 1.22 0.24
0 -4 -1 1.34 0.2
0 -4 -1 0.97 0.13
0 -4 1 1.25 0.23
0 -4 -1 1.14 0.2
0 -4 -1 1.08 0.24
0 -4 -1 1.43 0.25
0 -4 1 1.09 0.21
0 -4 -1 1.06 0.21
0 -4 -1 1.26 0.17
0 -4 -1 1.32 0.23
0 -4 1 1.16 0.17
0 -4 1 0.87 0.17
0 -4 1 0.95 0.2
0 -4 -1 1.01 0.18
0 4 1 0.9 0.14
0 4 1 0.87 0.17
0 4 -1 0.86 0.18
0 4 1 0.9 0.18
0 4 -1 0.89 0.13
0 4 -1 1 0.15
-1 -4 -1 62.62 4.74
1 -4 1 62.22 5.1
1 -4 1 70.01 4.77
1 -4 1 67.94 5.09
1 -4 1 71.66 4.73
-1 -4 -1 69.05 4.77
1 -4 1 64.55 5
1 -4 1 75.4 4.99
1 -4 1 65.46 4.5
-1 -4 -1 73.46 4.75
-1 -4 -1 62.03 5.23
-1 -4 -1 69.02 5.03
1 -4 1 75.5 4.75
-1 -4 -1 64.66 4.83
-1 -4 -1 64.68 4.66
-1 -4 -1 79.78 5.02
-1 -4 -1 63.19 4.83
1 -4 1 76.93 4.89
-1 -4 -1 72.35 5.13
1 -4 1 66.49 5.33
-1 -4 -1 72.88 5.37
1 -4 1 64.45 4.74
-1 -4 -1 70.07 4.34
-1 4 -1 69.92 5.32
-1 4 -1 79.81 5.95
1 4 1 72.16 5.77
-1 4 -1 80.11 5.81
1 4 1 74.31 5.92
2 -4 1 41.49 2.72
-2 -4 -1 35.53 2.63
-2 -4 -1 36.23 2.78
-2 -4 -1 41.66 2.88
2 -4 1 35.64 2.84
-2 -4 -1 39.93 2.79
2 -4 1 33.96 2.6
-2 -4 -1 34.74 2.61
2 -4 1 39.47 2.63
2 -4 1 36.25 2.93
-2 -4 -1 33.33 2.37
2 -4 1 35.27 2.8
2 -4 1 39.11 2.63
2 -4 1 38.27 2.75
2 -4 1 35.09 2.79
2 -4 1 40.4 2.44
2 -4 1 38.58 2.48
2 -4 1 37.45 2.61
-2 4 -1 40.31 3.2
2 4 1 42.6 3.09
-2 4 -1 39.2 3.28
2 4 1 38.82 3.24
-2 4 -1 37.33 2.92
3 -4 1 10.11 0.87
-3 -4 -1 9.99 0.85
3 -4 1 10.13 0.89
3 -4 1 11.17 0.88
-3 -4 -1 9.5 0.89
-3 -4 -1 10.21 0.83
3 -4 1 10.1 0.82
3 -4 1 11.2 0.8
3 -4 1 12.28 0.84
3 -4 1 11.44 0.79
-3 -4 -1 10.64 0.92
-3 -4 -1 11.99 1.01
-3 -4 -1 10.68 0.95
3 -4 1 9.7 0.87
3 -4 1 10.92 0.86
3 -4 1 11.1 0.88
3 -4 1 10.44 0.91
3 4 1 11.76 0.98
3 4 1 11.73 0.95
-3 4 -1 10.55 0.91
-3 4 -1 11.29 1
3 4 1 10.61 0.99
-4 -4 -1 136.43 9.65
4 -4 1 139.72 9.52
4 -4 1 130.56 9.14
-4 -4 -1 124.13 9.76
4 -4 1 135.83 8.43
4 -4 1 138.24 9.59
-4 -4 -1 138.38 9.96
4 -4 1 145.29 9.34
4 -4 1 150.59 8.84
4 -4 1 139.79 9.99
-4 -4 -1 137.2 9.29
4 -4 1 140.45 9.14
-4 -4 -1 142.18 10.45
4 4 1 128.79 10.89
-4 4 -1 142.92 11.33
4 4 1 129.17 11.51
-4 4 -1 129.66 10.41
4 4 1 135.66 10.9
5 -4 1 25.43 1.89
-5 -4 -1 20.9 1.88
5 -4 1 23.65 1.73
-5 -4 -1 26.03 2.02
5 -4 1 23.3 1.78
5 -4 1 25.93 1.83
-5 -4 -1 26.02 2.07
5 -4 1 22.99 1.59
-5 -4 -1 24.12 1.83
5 -4 1 22.96 1.71
-5 -4 -1 24.75 1.87
5 -4 1 26 1.7
-5 4 -1 23.05 1.96
-5 4 -1 26.22 2.16
5 4 1 22.76 2.04
5 4 1 26.71 2.05
5 4 1 23.91 2.14
6 -4 1 28.4 1.99
6 -4 1 29.4 1.96
-6 -4 -1 22.21 1.98
-6 -4 -1 30.39 2.28
6 -4 1 24.79 2.07
-6 -4 -1 27.09 2.21
6 -4 1 26.23 1.74
6 -4 1 25.58 1.86
6 -4 1 27.88 1.89
7 -4 1 67.86 5.27
7 -4 1 72.6 4.68
7 -4 1 64.38 4.77
7 -4 1 66.3 4.99
7 -4 1 80.37 4.93
-7 -4 -1 78.29 5.56
-7 -4 -1 69.81 5.36
8 -4 1 3.26 0.33
8 -4 1 2.7 0.28
8 -4 1 3.45 0.33
-8 -4 -1 2.91 0.4
8 -4 1 2.8 0.31
-8 -4 -1 3.31 0.49
8 -4 1 3.13 0.35
-8 -4 -1 3.55 0.42
-9 -4 -1 12.69 0.94
9 -4 1 10.81 0.87
9 -4 1 11.98 0.85
9 -4 1 11.04 0.93
-9 -4 -1 12.8 1.04
9 -4 1 12.21 0.88
9 4 1 11.18 0.91
9 4 1 12.48 0.94
-10 -4 -1 3.35 0.32
-10 -4 -1 3.81 0.38
10 -4 1 3.35 0.28
10 -4 1 3.34 0.29
10 4 1 3.38 0.3
10 4 1 3.45 0.29
9 -5 -1 5.95 0.44
-9 -5 1 6.49 0.57
9 -5 -1 5.89 0.44
-9 -5 1 5.95 0.53
9 -5 -1 5.06 0.44
9 5 -1 6 0.47
9 5 -1 5.61 0.48
-8 -5 1 25.66 1.86
8 -5 -1 23.15 1.61
8 -5 -1 21.79 1.63
8 -5 -1 22.32 1.73
8 -5 -1 19.25 1.55
8 -5 -1 24.59 1.55
-8 -5 1 24.77 1.87
7 -5 -1 6.81 0.52
7 -5 -1 6.92 0.56
-7 -5 1 7.06 0.64
-7 -5 1 5.8 0.74
7 -5 -1 7.44 0.59
7 -5 -1 7.78 0.6
-7 -5 1 8.93 0.81
7 -5 -1 7.21 0.66
7 -5 -1 7.88 0.61
6 -5 -1 0.96 0.23
-6 -5 1 0.93 0.3
6 -5 -1 0.98 0.23
6 -5 -1 1.13 0.18
-6 -5 1 1.01 0.23
6 -5 -1 1.17 0.21
6 -5 -1 1.21 0.21
-6 -5 1 1.41 0.28
6 -5 -1 1.15 0.21
-6 -5 1 0.86 0.27
6 -5 -1 1.23 0.21
6 -5 -1 1.17 0.18
5 -5 -1 28.57 2.01
-5 -5 1 29.5 2.18
-5 -5 1 29.27 2.27
-5 -5 1 24.17 2
5 -5 -1 28.7 2.16
5 -5 -1 27.62 1.96
5 -5 -1 27.73 2.2
5 -5 -1 26.35 1.81
-5 -5 1 26.48 2.35
5 -5 -1 28.39 2.06
5 -5 -1 26.78 1.97
5 -5 -1 31.77 1.93
5 -5 -1 28.4 2.08
-4 -5 1 3.75 0.4
4 -5 -1 3.7 0.41
4 -5 -1 3.3 0.41
4 -5 -1 4.15 0.42
4 -5 -1 3.97 0.39
-4 -5 1 2.76 0.37
-4 -5 1 3.74 0.48
4 -5 -1 3.57 0.41
4 -5 -1 4.49 0.39
4 -5 -1 4.41 0.4
-4 -5 1 4.25 0.53
4 -5 -1 3.68 0.4
4 -5 -1 3.94 0.37
4 -5 -1 3.9 0.43
4 -5 -1 3.48 0.37
3 -5 -1 2.88 0.31
3 -5 -1 2.79 0.29
-3 -5 1 3.19 0.46
3 -5 -1 3.02 0.32
3 -5 -1 2.86 0.32
-3 -5 1 2.71 0.43
3 -5 -1 2.65 0.32
3 -5 -1 2.9 0.3
-3 -5 1 2.98 0.34
-3 -5 1 1.46 0.28
3 -5 -1 2.98 0.28
3 -5 -1 2.71 0.33
3 -5 -1 2.81 0.33
-3 -5 1 2.97 0.44
3 -5 -1 3.14 0.3
3 -5 -1 2.89 0.3
3 5 -1 1.89 0.29
-3 5 1 2.17 0.39
-3 5 1 2.18 0.32
3 5 -1 2.01 0.29
-3 5 1 2.19 0.32
3 5 -1 1.81 0.34
2 -5 -1 2.93 0.33
2 -5 -1 3.26 0.37
-2 -5 1 3.33 0.41
-2 -5 1 2.64 0.41
2 -5 -1 3.34 0.32
2 -5 -1 3.52 0.34
2 -5 -1 3.35 0.28
2 -5 -1 3.18 0.32
-2 -5 1 4.09 0.39
2 -5 -1 2.85 0.36
2 -5 -1 3.25 0.32
-2 -5 1 3.29 0.32
2 -5 -1 3.3 0.3
2 -5 -1 3.38 0.34
2 -5 -1 3.13 0.36
2 -5 -1 2.77 0.35
-2 -5 1 3.16 0.44
-2 5 1 2.05 0.32
2 5 -1 2.14 0.33
-2 5 1 2.31 0.34
2 5 -1 2.37 0.32
-1 -5 1 34.34 2.75
1 -5 -1 39.38 2.52
1 -5 -1 38 2.37
1 -5 -1 35.32 2.71
-1 -5 1 36.93 2.37
1 -5 -1 35.06 2.55
1 -5 -1 35.49 2.52
-1 -5 1 36.08 2.49
1 -5 -1 39.6 2.6
-1 -5 1 39.83 2.74
1 -5 -1 40.15 2.71
1 -5 -1 37.06 2.76
1 -5 -1 39.19 2.58
1 -5 -1 34.65 2.6
1 -5 -1 37.01 2.39
-1 -5 1 39.19 2.91
1 -5 -1 37.1 2.87
-1 -5 1 36.87 2.58
-1 5 1 37.35 3.01
-1 5 1 32.74 3.15
1 5 -1 30.27 3.05
1 5 -1 35.66 2.99
1 5 -1 34.1 3.15
0 -5 1 1.52 0.27
0 -5 -1 1.88 0.22
0 -5 1 1.56 0.32
0 -5 -1 1.68 0.19
0 -5 1 1.43 0.19
0 -5 -1 1.47 0.29
0 -5 1 2.04 0.33
0 -5 -1 1.45 0.17
0 -5 -1 1.41 0.25
0 -5 -1 1.45 0.24
0 -5 -1 1.39 0.27
0 -5 -1 1.74 0.25
0 -5 -1 1.69 0.27
0 -5 1 1.64 0.29
0 -5 -1 1.88 0.29
0 -5 1 1.73 0.25
0 -5 1 2.3 0.34
0 -5 -1 1.7 0.29
0 5 1 1.39 0.25
0 5 -1 1.67 0.25
0 5 -1 1.34 0.21
0 5 1 1.72 0.24
0 5 -1 1.72 0.25
1 -5 1 7.11 0.66
-1 -5 -1 8.06 0.66
-1 -5 -1 7.38 0.56
-1 -5 -1 8.31 0.74
1 -5 1 7.72 0.62
1 -5 1 7.08 0.56
1 -5 1 7.14 0.68
1 -5 1 7.77 0.67
-1 -5 -1 7.54 0.57
1 -5 1 8.47 0.64
-1 -5 -1 8.02 0.71
1 -5 1 8.09 0.65
-1 -5 -1 8.04 0.71
-1 -5 -1 7.3 0.62
-1 -5 -1 7.4 0.66
1 -5 1 8.05 0.62
-1 5 -1 6.53 0.7
-1 5 -1 5.95 0.68
1 5 1 7.05 0.69
-1 5 -1 6.17 0.72
1 5 1 6.95 0.73
2 -5 1 41.14 3.22
-2 -5 -1 42.11 3.29
-2 -5 -1 44.92 3.04
-2 -5 -1 39.38 3.19
2 -5 1 47.05 3.12
2 -5 1 47.29 3.02
-2 -5 -1 40.14 2.73
2 -5 1 43.51 3.16
-2 -5 -1 43.84 3.03
2 -5 1 45.22 3.01
2 -5 1 41.02 3.36
2 -5 1 41.97 2.84
-2 -5 -1 46.35 3.23
2 -5 1 47.88 2.82
2 -5 1 44.83 3.02
-2 -5 -1 48.86 3.46
-2 5 -1 42.38 3.66
2 5 1 43.71 3.54
2 5 1 40.96 3.56
2 5 1 38.02 3.71
-2 5 -1 43.75 3.77
-3 -5 -1 8.13 0.8
-3 -5 -1 8.09 0.73
3 -5 1 8.85 0.73
3 -5 1 8.11 0.77
3 -5 1 8.91 0.66
-3 -5 -1 8.3 0.82
-3 -5 -1 8.39 0.71
3 -5 1 8.5 0.74
3 -5 1 8.57 0.68
3 -5 1 9.45 0.76
3 -5 1 8.87 0.71
-3 -5 -1 9.53 0.88
3 -5 1 9.56 0.71
4 -5 1 0.68 0.17
4 -5 1 0.72 0.16
-4 -5 -1 0.64 0.25
-4 -5 -1 0.52 0.23
-4 -5 -1 0.73 0.21
-4 -5 -1 0.28 0.17
4 -5 1 0.84 0.17
4 -5 1 0.77 0.18
4 -5 1 0.66 0.17
4 -5 1 0.63 0.18
4 -5 1 0.63 0.18
5 -5 1 0.83 0.17
-5 -5 -1 0.86 0.29
5 -5 1 0.98 0.18
5 -5 1 0.88 0.19
5 -5 1 0.82 0.21
-5 -5 -1 0.69 0.23
-5 -5 -1 1.28 0.33
5 -5 1 0.7 0.16
-5 -5 -1 0.97 0.22
5 -5 1 0.87 0.17
-6 -5 -1 0.5 0.19
6 -5 1 0.51 0.13
-6 -5 -1 0.23 0.16
6 -5 1 0.28 0.13
6 -5 1 0.45 0.15
6 -5 1 0.3 0.11
-6 -5 -1 0.54 0.24
6 -5 1 0.34 0.13
7 -5 1 0.09 0.09
7 -5 1 0.18 0.11
-7 -5 -1 0.25 0.14
-7 -5 -1 0 0.15
7 -5 1 0.11 0.08
-7 -5 -1 0.03 0.11
7 -5 1 0.29 0.12
8 -5 1 0.63 0.12
8 -5 1 0.81 0.11
8 -5 1 0.68 0.13
-8 -5 -1 0.93 0.23
-8 -5 -1 0.91 0.18
-8 -5 -1 0.78 0.17
8 -5 1 0.77 0.13
8 5 1 0.46 0.1
9 -5 1 8.92 0.66
-9 -5 -1 9.74 0.77
9 5 1 8.98 0.71
-7 -6 1 3.73 0.42
-7 -6 1 4.11 0.41
7 -6 -1 4.08 0.33
7 -6 -1 3.76 0.31
7 -6 -1 3.79 0.33
6 -6 -1 1.77 0.21
6 -6 -1 1.67 0.18
6 -6 -1 1.88 0.21
6 -6 -1 1.73 0.21
-6 -6 1 1.87 0.32
-6 -6 1 1.96 0.27
-6 -6 1 1.16 0.28
6 -6 -1 1.97 0.2
5 -6 -1 2.64 0.28
5 -6 -1 3 0.28
-5 -6 1 2.16 0.39
-5 -6 1 2.73 0.42
5 -6 -1 2.68 0.28
5 -6 -1 2.76 0.26
5 -6 -1 2.75 0.27
5 -6 -1 2.77 0.3
-5 -6 1 3.13 0.36
5 -6 -1 2.47 0.31
-4 -6 1 8.17 0.82
-4 -6 1 8.62 0.7
4 -6 -1 9.62 0.66
4 -6 -1 9.85 0.71
4 -6 -1 9.43 0.67
-4 -6 1 8.25 0.81
4 -6 -1 8.31 0.78
4 -6 -1 9.7 0.71
4 -6 -1 8.83 0.75
4 -6 -1 9.38 0.74
4 -6 -1 9.24 0.72
-4 -6 1 9.02 0.87
3 -6 -1 4.7 0.41
3 -6 -1 4.68 0.43
3 -6 -1 5.16 0.41
-3 -6 1 4.24 0.49
-3 -6 1 4.7 0.52
3 -6 -1 4.69 0.43
3 -6 -1 3.75 0.44
3 -6 -1 4.35 0.45
-3 -6 1 4.65 0.52
3 -6 -1 4.89 0.42
3 -6 -1 4.27 0.46
-3 -6 1 4.87 0.45
2 -6 -1 10.29 0.88
-2 -6 1 9.76 0.91
-2 -6 1 10.83 0.97
-2 -6 1 11.18 0.94
2 -6 -1 10.86 0.79
2 -6 -1 9.17 0.87
2 -6 -1 10.4 0.92
2 -6 -1 10.67 0.83
-2 -6 1 10.73 0.87
2 -6 -1 10.84 0.79
-2 -6 1 10.62 0.75
2 -6 -1 11.22 0.84
2 -6 -1 11.65 0.82
1 -6 -1 10.23 0.76
1 -6 -1 9.99 0.84
1 -6 -1 8.68 0.76
1 -6 -1 9.8 0.74
-1 -6 1 10.84 0.84
1 -6 -1 10.81 0.8
-1 -6 1 10.4 0.88
1 -6 -1 8.93 0.83
1 -6 -1 9.26 0.86
-1 -6 1 8.89 0.83
-1 -6 1 9.95 0.73
1 -6 -1 10.55 0.75
-1 -6 1 9.58 0.89
0 -6 -1 3.46 0.36
0 -6 -1 3.23 0.39
0 -6 1 3.24 0.37
0 -6 -1 3.11 0.32
0 -6 1 2.94 0.35
0 -6 1 3.51 0.32
0 -6 -1 2.9 0.37
0 -6 1 3.69 0.4
0 -6 -1 3.04 0.3
0 -6 1 3.18 0.37
0 -6 1 3.64 0.35
0 -6 -1 2.72 0.32
0 -6 -1 3.08 0.38
1 -6 1 17.44 1.43
-1 -6 -1 17.65 1.23
-1 -6 -1 20.09 1.56
1 -6 1 19.94 1.39
1 -6 1 17.21 1.5
-1 -6 -1 20.2 1.48
-1 -6 -1 18.57 1.36
-1 -6 -1 17.75 1.49
1 -6 1 17.67 1.35
-1 -6 -1 18.39 1.37
1 -6 1 19.08 1.29
1 -6 1 20.13 1.35
2 -6 1 5.01 0.45
2 -6 1 4.28 0.46
2 -6 1 4.43 0.45
-2 -6 -1 4.52 0.44
2 -6 1 4.99 0.44
-2 -6 -1 5.15 0.45
2 -6 1 4.94 0.44
-2 -6 -1 4.67 0.51
-2 -6 -1 4.86 0.53
2 -6 1 4.81 0.44
-2 -6 -1 4.82 0.52
3 -6 1 3.94 0.38
-3 -6 -1 4.32 0.5
-3 -6 -1 4.48 0.5
3 -6 1 4.21 0.4
-3 -6 -1 3.83 0.4
3 -6 1 3.84 0.4
3 -6 1 4.2 0.39
-3 -6 -1 3.92 0.37
3 -6 1 4.11 0.37
-3 -6 -1 4.12 0.46
3 -6 1 4.56 0.41
4 -6 1 35.74 2.54
-4 -6 -1 38.56 2.72
4 -6 1 32.2 2.65
4 -6 1 42.29 2.55
4 -6 1 39.26 2.58
-4 -6 -1 36.78 2.95
4 -6 1 39.29 2.36
-4 -6 -1 38.09 2.85
4 -6 1 36.52 2.64
-4 -6 -1 32.28 2.59
-5 -6 -1 11.98 0.96
-5 -6 -1 12.24 1.08
-5 -6 -1 11.02 1.06
5 -6 1 13.84 0.9
5 -6 1 13.39 0.95
5 -6 1 11.03 0.89
5 -6 1 12.29 0.83
5 -6 1 12.45 0.91
6 -6 1 4.06 0.35
-6 -6 -1 3.17 0.43
6 -6 1 3.89 0.33
6 -6 1 3.74 0.31
-6 -6 -1 4.25 0.42
6 -6 1 3.47 0.29
7 -6 1 9.45 0.71
-7 -6 -1 9.71 0.8
-4 -7 1 1.11 0.21
4 -7 -1 1.31 0.15
4 -7 -1 1.32 0.16
3 -7 -1 4.52 0.36
-3 -7 1 4.21 0.42
-3 -7 1 3.69 0.4
3 -7 -1 3.74 0.37
3 -7 -1 4.5 0.33
3 -7 -1 4.03 0.34
2 -7 -1 2.56 0.24
2 -7 -1 2.53 0.26
-2 -7 1 2.59 0.29
2 -7 -1 2.15 0.26
-2 -7 1 2.54 0.3
2 -7 -1 2.16 0.27
-2 -7 1 2.4 0.25
2 -7 -1 2.46 0.23
-1 -7 1 11.33 0.82
1 -7 -1 12.82 1.02
-1 -7 1 12.16 1.02
1 -7 -1 12.71 0.84
1 -7 -1 13.34 0.93
1 -7 -1 12.7 0.97
-1 -7 1 13.6 0.99
-1 -7 1 11.59 0.92
0 -7 -1 4.4 0.39
0 -7 1 4.44 0.38
0 -7 -1 3.76 0.39
0 -7 -1 4.93 0.42
0 -7 -1 3.93 0.33
0 -7 1 3.88 0.39
0 -7 1 4.33 0.35
0 -7 1 4.33 0.41
0 -7 -1 4.22 0.41
-1 -7 -1 10.88 0.97
1 -7 1 11.62 0.87
1 -7 1 12.39 0.95
-1 -7 -1 12.09 0.91
1 -7 1 12.83 0.84
1 -7 1 13.92 0.92
-1 -7 -1 12.79 1.03
-1 -7 -1 12.86 0.97
2 -7 1 5.83 0.52
-2 -7 -1 6.98 0.59
2 -7 1 6.15 0.49
2 -7 1 6.99 0.48
-2 -7 -1 5.77 0.55
-2 -7 -1 6.23 0.55
2 -7 1 7.07 0.52
3 -7 1 0.6 0.11
3 -7 1 0.72 0.12
-3 -7 -1 0.55 0.13
-3 -7 -1 0.39 0.15
-3 -7 -1 0.56 0.15
3 -7 1 0.56 0.11
12 0 -2 2.69 0.3
12 0 -2 3.12 0.29
-12 0 2 3.11 0.35
11 0 -2 5.71 0.48
11 0 -2 4.57 0.41
11 0 -2 5.24 0.47
10 0 -2 2.89 0.28
10 0 -2 2.75 0.31
10 0 -2 2.77 0.3
9 0 -2 22.42 1.47
9 0 -2 21.93 1.71
9 0 -2 23.85 1.68
-9 0 2 21.26 1.92
-9 0 2 20.44 1.95
-9 0 2 20.67 1.81
9 0 -2 23.18 1.65
-9 0 2 19 1.71
8 0 -2 79.81 6.35
-8 0 2 72.08 6.01
8 0 -2 78.3 5.48
8 0 -2 71.01 5.71
8 0 -2 64.21 5.97
-8 0 2 75.77 6.43
8 0 -2 79.66 5.54
-8 0 2 79.06 6.31
8 0 -2 74.56 4.84
7 0 -2 31.81 2.22
7 0 -2 35.2 2.52
-7 0 2 35.27 2.92
-7 0 2 32.95 2.77
7 0 -2 35.37 2.55
7 0 -2 32.76 2.74
7 0 -2 34.49 2.92
-7 0 2 34.92 2.97
7 0 -2 33.6 2.63
-6 0 2 69.14 5.79
6 0 -2 62.47 5.27
6 0 -2 66.82 5.76
-6 0 2 78.15 6.07
6 0 -2 69.66 5.34
6 0 -2 78.98 6.11
-6 0 2 72.05 6.22
-6 0 2 83.31 6.2
-5 0 2 18.6 1.78
5 0 -2 18.61 1.64
-5 0 2 21.39 1.79
-5 0 2 18.65 1.66
-5 0 2 22.44 1.76
5 0 -2 22.27 1.76
-4 0 2 21.51 1.89
4 0 -2 23.55 1.86
4 0 -2 22.01 1.78
4 0 -2 22.72 1.9
-4 0 2 21.08 1.93
-3 0 2 1.65 0.21
3 0 -2 2.22 0.21
-3 0 2 2.46 0.22
3 0 -2 1.97 0.18
-3 0 2 2.29 0.22
-3 0 2 1.6 0.2
2 0 -2 119.66 9.43
-2 0 2 116.32 9.79
-2 0 2 114.17 9.75
2 0 -2 111.03 9.1
2 0 -2 117.19 9.63
-2 0 2 112.44 10.05
-1 0 2 18.75 1.38
-1 0 2 17.77 1.5
1 0 -2 17.7 1.46
1 0 -2 16.48 1.44
1 0 -2 17.29 1.33
-1 0 2 16.64 1.53
0 0 2 0.89 0.11
0 0 -2 0.87 0.1
0 0 -2 1.09 0.12
0 0 2 0.97 0.12
0 0 2 0.91 0.11
0 0 2 0.91 0.1
0 0 -2 0.83 0.1
0 0 2 1.08 0.11
-1 0 -2 588.93 43.9
1 0 2 566.87 44.34
-1 0 -2 537.72 42.07
1 0 2 517.69 41.89
1 0 2 491.37 46.29
-1 0 -2 541.15 40.01
1 0 2 497.45 41.82
1 0 2 467.89 42.01
1 0 2 567.37 42.23
2 0 2 112.03 8.05
-2 0 -2 111.29 8.42
-2 0 -2 102.38 7.66
-2 0 -2 106.38 8.06
-2 0 -2 102.43 8.58
2 0 2 98.11 8.08
2 0 2 103.2 8.49
2 0 2 88.55 8
2 0 2 89.37 8.86
3 0 2 73.31 6.19
3 0 2 74.67 6.85
-3 0 -2 75.79 5.93
3 0 2 86.3 6.24
3 0 2 80.43 6.58
-3 0 -2 71.66 6.24
-3 0 -2 81.55 6.53
3 0 2 81.33 6.26
3 0 2 82.84 6.22
-3 0 -2 76.94 6.65
-4 0 -2 110.09 8.16
4 0 2 97.33 8.15
4 0 2 100.47 8.94
4 0 2 107.09 8.59
-4 0 -2 98.8 8.68
-4 0 -2 95.61 7.74
4 0 2 101.2 8.11
4 0 2 112.89 8.15
-4 0 -2 103.25 8.52
4 0 2 97.55 8.08
-5 0 -2 30.46 2.51
5 0 2 28.31 2.36
-5 0 -2 29.11 2.54
5 0 2 32.6 2.52
5 0 2 30.18 2.38
-5 0 -2 26.14 2.37
-5 0 -2 28.03 2.25
6 0 2 21.92 1.72
-6 0 -2 25.5 2.02
6 0 2 24.59 1.89
-6 0 -2 23.35 1.9
-6 0 -2 21.95 1.79
6 0 2 19.79 1.59
6 0 2 21.65 1.71
-6 0 -2 22.63 2.03
6 0 2 26.59 2.01
6 0 2 22.18 1.87
-7 0 -2 43.13 3.76
-7 0 -2 48.68 4.03
-7 0 -2 49.71 3.97
7 0 2 46.94 3.02
7 0 2 44.83 3.44
7 0 2 48.51 3.42
7 0 2 41.21 3.18
7 0 2 48.21 3.76
-8 0 -2 203.71 15.96
8 0 2 200.84 13.9
8 0 2 184.23 14.02
8 0 2 190.88 15.22
8 0 2 198.97 12.26
-8 0 -2 176.35 15.24
8 0 2 185.59 12.95
9 0 2 7.93 0.57
9 0 2 7.28 0.6
9 0 2 7.77 0.63
9 0 2 7.05 0.62
10 0 2 43.67 2.79
10 0 2 39.38 2.92
10 0 2 44.01 3.14
-11 0 -2 58.54 3.96
-11 0 -2 53.9 4.17
11 0 2 59.56 3.75
11 0 2 58.88 4.24
12 -1 -2 15.78 1.18
12 -1 -2 14.4 1.18
12 -1 -2 14.22 1.03
-12 -1 2 16.16 1.23
-12 -1 2 14.41 1.11
12 1 -2 16.26 1.18
12 1 -2 15.67 1.19
11 -1 -2 15.8 1.11
11 -1 -2 15.92 1.27
-11 -1 2 16.92 1.32
-11 -1 2 15.8 1.19
11 -1 -2 16.09 1.25
11 1 -2 15.64 1.25
11 1 -2 15.53 1.23
10 -1 -2 22.34 1.64
10 -1 -2 19.39 1.43
10 -1 -2 21.99 1.62
10 1 -2 21.6 1.6
10 1 -2 18.47 1.64
10 1 -2 21.71 1.62
-9 -1 2 43.98 4.16
-9 -1 2 50.66 4.27
9 -1 -2 53.79 3.65
9 -1 -2 49.9 3.21
9 -1 -2 51.99 3.68
9 -1 -2 45.95 3.77
9 1 -2 51.89 3.62
-9 1 2 50.1 4.19
9 1 -2 47.61 4.19
9 1 -2 48.82 3.76
-9 1 2 44.15 3.78
-9 1 2 47.34 3.99
9 1 -2 46.42 3.18
9 1 -2 52.42 3.66
8 -1 -2 10.74 1.03
8 -1 -2 12.6 1.01
8 -1 -2 11.59 0.89
-8 -1 2 10.47 1.14
8 -1 -2 10.5 0.92
8 -1 -2 11.95 1.01
-8 -1 2 12.11 1.2
-8 1 2 13.25 1.18
8 1 -2 14.02 1.03
8 1 -2 14.88 1.01
8 1 -2 14.59 0.99
8 1 -2 11.05 1.05
8 1 -2 13.62 1.15
8 1 -2 13.01 0.87
-8 1 2 13.04 1.17
-8 1 2 14.23 1.12
7 -1 -2 59.37 4.6
-7 -1 2 66.41 5.43
7 -1 -2 65.63 4.66
7 -1 -2 55.57 4.28
-7 -1 2 62.02 5.28
7 -1 -2 60.74 4.06
7 -1 -2 59.79 4.8
-7 -1 2 56.6 5.02
-7 -1 2 70.85 5.41
7 1 -2 60.15 4.58
7 1 -2 57.85 5
7 1 -2 66.6 4.64
7 1 -2 61.31 4.79
-7 1 2 70.92 5.38
7 1 -2 56.22 4.03
-7 1 2 71.49 5.3
7 1 -2 65.74 5.32
6 -1 -2 29.29 2.23
6 -1 -2 28.68 2.29
6 -1 -2 26.92 2.19
6 -1 -2 26.79 1.94
-6 -1 2 27.52 2.38
-6 -1 2 33.52 2.61
-6 -1 2 31.59 2.52
6 -1 -2 25.25 2.38
-6 -1 2 33.81 2.59
6 1 -2 29.29 2.53
-6 1 2 31.86 2.53
6 1 -2 28.98 2.38
-6 1 2 26.74 2.55
-6 1 2 31.31 2.42
6 1 -2 31.53 2.48
-5 -1 2 5.95 0.59
-5 -1 2 6.46 0.61
-5 -1 2 6.03 0.57
-5 -1 2 5.55 0.52
5 1 -2 6.21 0.57
-5 1 2 5.84 0.57
-5 1 2 5.65 0.55
5 1 -2 5.45 0.51
5 1 -2 6.36 0.55
-5 1 2 6.46 0.58
-5 1 2 6.52 0.54
5 1 -2 5.58 0.52
-4 -1 2 118.8 8.9
-4 -1 2 92.26 8.32
4 -1 -2 90.31 8.31
-4 -1 2 113.23 8.7
-4 1 2 94.89 8.92
4 1 -2 110.98 8.61
4 1 -2 99.99 8.27
-4 1 2 100 8.86
-4 1 2 110.84 8.71
-4 1 2 112.98 8.35
4 1 -2 110.46 8.79
4 1 -2 104.22 8.31
-3 -1 2 226.88 20.02
-3 -1 2 241.13 20.57
-3 -1 2 221.91 19.44
-3 -1 2 247.65 19.85
-3 1 2 242.55 19.45
-3 1 2 223.54 19.98
-3 1 2 240.99 19.87
3 1 -2 236.88 19.29
3 1 -2 216.37 18.6
3 1 -2 250.73 19.65
3 1 -2 239.94 17.72
-2 -1 2 189.38 15.13
-2 -1 2 180.51 15.4
-2 -1 2 172.18 14.95
-2 -1 2 184.32 14.59
-2 1 2 175.73 15.02
2 1 -2 179.88 14.78
-2 1 2 166.88 14.88
-2 1 2 154.58 15.37
2 1 -2 188.47 13.31
2 1 -2 173.18 13.96
2 1 -2 178.19 14.48
-1 -1 2 423.6 38.35
-1 -1 2 408.84 37.4
1 1 -2 470.34 33.12
1 1 -2 458.55 34.8
1 1 -2 416.87 35.98
1 1 -2 454.68 36.71
0 -1 2 25.03 2.18
0 -1 2 27.33 2.25
0 1 2 24.27 2.13
0 1 2 22.44 2.02
0 1 -2 26.67 2.03
0 1 2 25.01 2.02
0 1 -2 26.3 1.93
-1 -1 -2 49.74 4.18
-1 -1 -2 48.72 4.27
1 -1 2 50.27 4
-1 -1 -2 41.31 3.99
-1 1 -2 50.14 4.17
1 1 2 53.19 3.99
-1 1 -2 49.75 4
1 1 2 51.77 3.99
1 1 2 53.21 4.21
-1 1 -2 51.88 3.81
-1 1 -2 50.83 4.14
-2 -1 -2 21.07 2
2 -1 2 20.86 1.87
-2 -1 -2 20.91 1.95
2 -1 2 19.08 1.87
-2 1 -2 24.05 1.88
-2 1 -2 25.75 1.79
-2 1 -2 24.75 1.96
2 1 2 25.25 1.97
2 1 2 25.72 1.88
2 1 2 24.53 1.87
-3 -1 -2 186.19 14.59
3 -1 2 174.25 13.97
-3 -1 -2 155.63 13.96
-3 -1 -2 180.53 14.89
-3 1 -2 173.01 13.3
3 1 2 181.56 13.92
-3 1 -2 173.29 13.98
3 1 2 179.88 14.73
3 1 2 175.7 13.96
-3 1 -2 184.2 14.58
-3 1 -2 174.07 14.85
-4 -1 -2 31.58 2.77
-4 -1 -2 30.22 2.62
-4 -1 -2 35.75 2.93
-4 -1 -2 35.87 2.99
4 -1 2 33.38 2.78
4 1 2 36.27 2.78
4 1 2 38.67 2.94
-4 1 -2 30.51 2.95
-4 1 -2 34.57 2.8
-4 1 -2 37.41 2.66
4 1 2 32.67 3.06
-4 1 -2 35.42 2.92
4 1 2 37.61 2.8
5 -1 2 19.77 1.32
5 -1 2 19.72 1.64
-5 -1 -2 21.33 1.75
5 -1 2 18.63 1.49
5 -1 2 22.25 1.67
-5 -1 -2 20.52 1.78
-5 -1 -2 19.23 1.63
-5 1 -2 18.34 1.73
5 1 2 21.31 1.73
-5 1 -2 19.95 1.66
5 1 2 21.38 1.65
-5 1 -2 21.07 1.74
5 1 2 19.42 1.64
-5 1 -2 20.81 1.58
5 1 2 17.57 1.78
5 1 2 17.18 1.61
5 1 2 20.65 1.64
6 -1 2 48.61 3.5
-6 -1 -2 56.08 4.15
-6 -1 -2 46.95 4.04
6 -1 2 51.2 3.86
6 -1 2 47.43 3.09
6 -1 2 41.74 3.33
6 -1 2 41.62 3.81
-6 -1 -2 44.14 3.83
6 -1 2 45.42 3.26
-6 1 -2 48.83 3.66
-6 1 -2 50.22 4.04
6 1 2 51.17 3.83
6 1 2 44.02 3.81
-6 1 -2 51.25 3.86
6 1 2 45.56 4.04
-7 -1 -2 1.95 0.29
7 -1 2 1.71 0.2
-7 -1 -2 1.25 0.21
-7 -1 -2 2.12 0.29
7 -1 2 1.95 0.22
7 -1 2 1.85 0.21
7 -1 2 2.05 0.2
7 -1 2 1.7 0.23
7 -1 2 2.16 0.24
-7 -1 -2 2.04 0.3
7 1 2 1.55 0.18
7 1 2 1.6 0.21
7 1 2 1.94 0.24
-7 1 -2 2.01 0.3
-7 1 -2 1.52 0.26
-7 1 -2 2.14 0.24
7 1 2 1.59 0.22
-8 -1 -2 4.43 0.55
-8 -1 -2 5.62 0.56
8 -1 2 5.53 0.51
8 -1 2 5.79 0.44
-8 -1 -2 5.17 0.56
-8 -1 -2 5.37 0.46
8 -1 2 5.77 0.45
8 -1 2 5.91 0.42
8 1 2 4.85 0.43
8 1 2 4.88 0.43
8 1 2 4.09 0.46
8 1 2 5.14 0.39
8 1 2 4.11 0.5
8 1 2 4.17 0.4
-8 1 -2 4.69 0.54
-8 1 -2 3.89 0.46
-8 1 -2 3.97 0.49
-9 -1 -2 3.19 0.41
9 -1 2 3.37 0.35
-9 -1 -2 3.27 0.43
9 -1 2 2.95 0.31
-9 -1 -2 3.49 0.39
9 -1 2 2.86 0.33
9 1 2 4.13 0.32
9 1 2 3.99 0.34
-10 -1 -2 4.28 0.48
10 -1 2 4.29 0.42
10 -1 2 4.76 0.39
-10 -1 -2 4.35 0.44
-10 -1 -2 4.22 0.49
10 -1 2 4.31 0.4
10 1 2 5.35 0.43
10 1 2 5 0.38
10 1 2 4.42 0.41
11 -1 2 3.72 0.39
11 -1 2 4.61 0.38
-11 -1 -2 4.84 0.43
-11 -1 -2 3.82 0.43
11 -1 2 4.89 0.42
11 1 2 5.15 0.38
11 1 2 5.75 0.43
-11 1 -2 5.23 0.43
-12 -2 2 3.13 0.33
12 -2 -2 3.48 0.34
-12 -2 2 3.7 0.39
12 -2 -2 3.14 0.3
12 2 -2 4.74 0.35
12 2 -2 4.47 0.34
11 -2 -2 14.3 1.11
11 -2 -2 14.65 0.97
-11 -2 2 15.17 1.05
-11 -2 2 15.59 1.18
11 -2 -2 14.8 1.1
-11 -2 2 14 1.16
11 2 -2 13.66 1.08
11 2 -2 11.61 1.09
11 2 -2 11.85 1.05
-10 -2 2 58 3.96
10 -2 -2 56.61 3.74
10 -2 -2 59.39 4.24
-10 -2 2 59.7 4.44
10 -2 -2 51.89 3.91
-10 -2 2 58.09 4.28
10 -2 -2 56.63 4.28
10 2 -2 54.65 4.37
10 2 -2 57.06 4.2
10 2 -2 58.86 4.25
-9 -2 2 2.4 0.36
9 -2 -2 2.56 0.27
9 -2 -2 2.4 0.3
-9 -2 2 2.71 0.45
9 -2 -2 1.93 0.28
9 -2 -2 1.98 0.26
-9 -2 2 2.84 0.5
9 -2 -2 2.36 0.34
-8 -2 2 9.67 0.99
-8 -2 2 10.56 1.04
8 -2 -2 11.32 0.93
8 -2 -2 12.91 0.95
-8 -2 2 10.93 1
8 -2 -2 11.37 0.83
8 -2 -2 12.31 0.81
-8 -2 2 11.21 0.9
8 -2 -2 11.69 0.9
8 2 -2 9.82 0.99
-8 2 2 9.76 0.95
8 2 -2 8.81 0.91
-8 2 2 10.31 0.92
8 2 -2 10.33 0.84
8 2 -2 10.95 0.9
-8 2 2 9.73 1
-7 -2 2 82.29 5.6
-7 -2 2 83.9 6.81
7 -2 -2 72.85 5.76
-7 -2 2 80.86 6.75
7 -2 -2 77.38 6.02
7 -2 -2 85.34 5.86
7 -2 -2 81.9 5.1
-7 -2 2 71.8 6.57
7 -2 -2 76.55 5.37
7 -2 -2 74.17 5.45
7 2 -2 71.24 6.26
7 2 -2 77.77 6.64
-7 2 2 84.43 6.01
7 2 -2 73.52 6.48
-7 2 2 84.16 6.31
-7 2 2 76.74 6.58
-6 -2 2 21.17 1.79
6 -2 -2 21.07 1.48
6 -2 -2 19.76 1.62
-6 -2 2 23.98 1.9
6 -2 -2 22.27 1.75
6 -2 -2 21.86 1.5
6 -2 -2 19.51 1.4
6 -2 -2 20.13 1.66
6 -2 -2 18.99 1.57
6 -2 -2 19.09 1.42
-6 -2 2 24.26 1.88
6 2 -2 20.07 1.81
-6 2 2 20.14 1.79
6 2 -2 19.94 1.75
-6 2 2 18.26 1.79
6 2 -2 20.42 1.7
-6 2 2 19.83 1.72
5 -2 -2 8.08 0.75
5 -2 -2 8.99 0.7
5 -2 -2 8.25 0.82
-5 -2 2 11.14 0.97
-5 -2 2 8.02 0.87
5 -2 -2 8.58 0.78
-5 -2 2 10.16 0.93
5 -2 -2 7.65 0.72
5 -2 -2 8.28 0.81
5 2 -2 11.35 0.84
5 2 -2 11.55 0.9
-5 2 2 10.51 0.9
5 2 -2 11.57 0.87
5 2 -2 9.79 0.83
-5 2 2 10.6 0.88
-5 2 2 11.26 0.86
-4 -2 2 6.53 0.62
-4 -2 2 5.2 0.54
-4 -2 2 6.16 0.59
4 2 -2 6.25 0.54
-4 2 2 6.08 0.53
4 2 -2 5.93 0.55
-4 2 2 5.92 0.54
4 2 -2 5.9 0.52
-4 2 2 5.43 0.55
-3 -2 2 47.21 4.31
-3 -2 2 41.9 4.24
-3 2 2 47.91 3.98
3 2 -2 55.22 4.11
3 2 -2 53.77 3.77
-3 2 2 47.52 4.15
3 2 -2 55.58 4.2
-3 2 2 48.02 4.24
3 2 -2 55.1 3.98
-3 2 2 44.43 4.22
-2 -2 2 293.05 24.31
-2 -2 2 239.32 23.53
2 2 -2 287.83 23.16
2 2 -2 282.53 20.83
2 2 -2 279.51 21.88
2 2 -2 278.13 22.67
-1 -2 2 71.68 6.23
-1 -2 2 66.77 6.07
-1 -2 2 62.37 5.98
1 2 -2 73.49 5.35
1 2 -2 73.8 5.83
1 2 -2 75.8 5.95
0 -2 2 236.08 20.58
0 -2 2 229.79 21.12
0 2 -2 260.34 19.83
0 2 -2 255.51 18.24
0 2 2 246.05 20.25
0 2 -2 253.9 20.23
0 2 2 258.79 19.2
0 2 2 233.56 19.82
0 2 2 209.44 18.22
0 2 -2 237.99 19.17
-1 -2 -2 85.34 7.07
1 -2 2 81.33 7.27
1 -2 2 79.3 7.48
-1 2 -2 90.02 6.46
1 2 2 84.51 6.77
1 2 2 78.23 6.99
1 2 2 92.74 7.15
-1 2 -2 87.79 7.02
-1 2 -2 88.47 6.78
-2 -2 -2 120.65 10.1
2 -2 2 134.97 9.47
-2 -2 -2 109.73 9.88
2 -2 2 102.02 10.43
-2 2 -2 117.38 9.8
-2 2 -2 133.05 9.03
2 2 2 120.92 9.98
2 2 2 113.74 9.76
-2 2 -2 113.88 9.87
-2 2 -2 115.74 9.48
2 2 2 125.58 9.44
2 2 2 124.25 9.46
-3 -2 -2 45.59 4.24
-3 -2 -2 41.34 4.13
3 2 2 53.35 3.97
3 2 2 51.4 4.18
-3 2 -2 53.24 3.79
-3 2 -2 48.47 4.13
3 2 2 46.87 4.07
-3 2 -2 55.4 3.98
3 2 2 50.29 3.96
4 -2 2 34.33 2.57
-4 -2 -2 41.55 3.26
-4 -2 -2 41.66 2.81
-4 -2 -2 35.5 2.58
4 -2 2 33.99 3.02
4 -2 2 36.67 2.64
-4 -2 -2 36.59 2.74
-4 -2 -2 38.98 3.16
-4 2 -2 37.85 3.02
4 2 2 37.13 3.17
4 2 2 37.49 3.02
4 2 2 38.96 3.01
-4 2 -2 36.84 2.88
-4 2 -2 34.45 3.14
5 -2 2 96.49 6.6
-5 -2 -2 90.47 7.77
5 -2 2 91.21 6.82
-5 -2 -2 97.24 6.95
-5 -2 -2 101.25 8.56
-5 -2 -2 103.97 8.76
-5 -2 -2 113.15 7.48
5 -2 2 96.66 8.15
5 -2 2 100.33 6.97
-5 -2 -2 94.27 7.34
5 -2 2 97.29 7.11
5 2 2 112.73 8.19
-5 2 -2 113.41 7.81
5 2 2 107.3 8.63
5 2 2 110.36 8.17
-5 2 -2 112.91 8.55
-6 -2 -2 7.19 0.76
6 -2 2 7.78 0.57
6 -2 2 6.81 0.59
-6 -2 -2 5.97 0.68
-6 -2 -2 7.35 0.74
6 -2 2 7.13 0.59
-6 -2 -2 6.39 0.63
-6 -2 -2 6.51 0.69
6 -2 2 7.54 0.64
6 -2 2 6.99 0.61
6 2 2 8.69 0.69
6 2 2 8.19 0.72
6 2 2 7.71 0.68
6 2 2 7.12 0.66
6 2 2 6.87 0.73
-6 2 -2 7.95 0.67
-6 2 -2 8.82 0.71
-6 2 -2 7.26 0.72
6 2 2 6.94 0.67
-7 -2 -2 4.06 0.44
-7 -2 -2 3.35 0.46
7 -2 2 4.14 0.35
-7 -2 -2 3.49 0.47
7 -2 2 4.17 0.4
7 -2 2 3.76 0.38
-7 -2 -2 4.4 0.51
-7 -2 -2 3.09 0.45
7 -2 2 4 0.37
8 -2 2 96.73 6.14
8 -2 2 93.51 6.94
-8 -2 -2 94.18 6.86
-8 -2 -2 98.65 6.99
8 -2 2 89.89 6.47
-8 -2 -2 105.8 6.53
8 -2 2 85.62 6.59
9 -2 2 8.14 0.69
-9 -2 -2 7.46 0.78
9 -2 2 8.68 0.74
-9 -2 -2 9.24 0.84
9 -2 2 8.38 0.66
-9 -2 -2 8.62 0.76
9 2 2 9.76 0.73
9 2 2 9.22 0.64
9 2 2 9.42 0.73
10 -2 2 16.42 1.19
10 -2 2 17.25 1.25
-10 -2 -2 16.91 1.39
-10 -2 -2 19.85 1.33
-10 -2 -2 15.37 1.34
10 -2 2 17.06 1.34
10 2 2 17.07 1.33
10 2 2 19.42 1.33
10 2 2 16.74 1.17
-11 -2 -2 13.64 1.18
11 -2 2 15.63 1.19
-11 -2 -2 14.8 1.21
11 -2 2 17.3 1.07
-11 -2 -2 18.27 1.16
11 -2 2 15.74 1.11
11 2 2 13.57 1.19
11 2 2 14.65 1.04
11 2 2 18.61 1.2
-11 -3 2 10 0.78
-11 -3 2 11.45 0.9
11 -3 -2 9.13 0.74
11 -3 -2 10.53 0.73
-11 -3 2 9.97 0.87
11 -3 -2 10.92 0.83
11 -3 -2 9.25 0.82
11 3 -2 10.41 0.83
11 3 -2 12.34 0.83
11 3 -2 10.19 0.8
-10 -3 2 1.83 0.28
10 -3 -2 1.74 0.23
10 -3 -2 1.94 0.26
10 -3 -2 1.75 0.27
-10 -3 2 2.53 0.38
-10 -3 2 2.16 0.38
10 -3 -2 1.52 0.21
10 3 -2 1.7 0.23
10 3 -2 1.71 0.2
10 3 -2 1.73 0.21
-9 -3 2 13.24 1.07
9 -3 -2 13.1 0.97
9 -3 -2 14 1.13
9 -3 -2 11.6 0.99
9 -3 -2 12.27 0.99
9 -3 -2 13.61 1.1
-9 -3 2 14.22 1.23
-9 -3 2 15.19 1.24
9 3 -2 14.26 1.08
9 3 -2 13.96 1.1
9 3 -2 12.05 1.02
8 -3 -2 17.33 1.39
-8 -3 2 17.32 1.52
-8 -3 2 15.37 1.33
-8 -3 2 18.81 1.54
8 -3 -2 19.36 1.45
8 -3 -2 17.02 1.43
8 -3 -2 17.35 1.22
8 -3 -2 15.26 1.27
8 -3 -2 16.69 1.26
7 -3 -2 12.39 1.08
7 -3 -2 12.41 0.95
7 -3 -2 12.59 0.92
-7 -3 2 14 1.2
7 -3 -2 12.99 1.2
-7 -3 2 13.54 1.09
-7 -3 2 11 1.15
7 -3 -2 11.16 0.95
7 -3 -2 11.82 1.04
7 -3 -2 12.44 1.08
7 -3 -2 11.16 0.89
-7 -3 2 12.76 1.21
-7 3 2 13.91 1.07
7 3 -2 12.76 1.17
-7 3 2 13.48 1.11
7 3 -2 12.08 1.09
7 3 -2 11.22 1.09
-7 3 2 11.02 1.13
6 -3 -2 64.27 4.46
6 -3 -2 64.36 5.4
-6 -3 2 59.25 4.58
6 -3 -2 69.84 5.39
-6 -3 2 64.67 5.2
-6 -3 2 69.13 5.76
6 -3 -2 68.03 4.35
6 -3 -2 65.72 4.58
6 -3 -2 61.64 4.48
-6 -3 2 74.83 4.84
6 -3 -2 66.77 4.94
6 -3 -2 70.62 4.67
-6 -3 2 60.63 4.97
6 -3 -2 68.33 5.02
6 -3 -2 63.82 5.15
6 -3 -2 64.91 4.11
6 3 -2 59.37 5.31
-6 3 2 68.14 5.12
6 3 -2 76.9 5.68
-6 3 2 72.63 5.37
6 3 -2 70.95 5.35
-6 3 2 58.8 5.57
6 3 -2 65.16 5.51
5 -3 -2 4.51 0.45
-5 -3 2 3.85 0.41
5 -3 -2 4.08 0.51
-5 -3 2 4.52 0.5
5 -3 -2 4.41 0.42
5 -3 -2 3.95 0.38
-5 -3 2 4.6 0.54
-5 -3 2 3.61 0.48
5 -3 -2 4.72 0.42
-5 -3 2 5.12 0.53
5 -3 -2 3.31 0.38
5 -3 -2 5.01 0.45
5 -3 -2 4.84 0.4
5 -3 -2 3.58 0.35
5 -3 -2 4.12 0.38
5 -3 -2 4.77 0.47
5 -3 -2 4.35 0.46
5 -3 -2 4.59 0.48
5 -3 -2 4.1 0.47
-5 3 2 5.69 0.47
-5 3 2 5.87 0.46
4 -3 -2 182.12 12.08
4 -3 -2 183.44 12.54
4 -3 -2 183.79 12.24
-4 -3 2 167.95 11.96
4 -3 -2 178.19 12.58
4 -3 -2 170.08 10.42
4 -3 -2 171.01 13.9
-4 -3 2 148.26 11.34
4 -3 -2 175.42 12.78
4 -3 -2 163.7 13.49
4 -3 -2 180.64 10.93
4 -3 -2 174.8 11.44
4 -3 -2 164.64 12.81
-4 -3 2 143.57 14.42
-4 -3 2 175.63 14.61
-4 -3 2 163.61 12.87
4 -3 -2 173.02 12.94
-4 -3 2 158.72 12.26
4 -3 -2 183.68 12.39
4 -3 -2 163.62 11.31
4 -3 -2 172.9 11.65
4 -3 -2 162.86 13.62
4 -3 -2 160.9 11.28
4 -3 -2 171.06 11.53
4 -3 -2 160.94 11.75
4 -3 -2 168.88 11.88
-4 3 2 170.29 13.55
4 3 -2 184.6 14.29
4 3 -2 183.51 13.99
4 3 -2 179.66 13.52
-4 3 2 159.87 14.11
-4 3 2 168.11 12.9
-3 -3 2 25.16 2.24
3 -3 -2 25.32 1.8
3 -3 -2 25.65 1.71
3 -3 -2 25.49 1.93
3 -3 -2 25.28 1.85
3 -3 -2 26.4 1.97
3 -3 -2 25.93 2.22
-3 -3 2 21.87 1.81
3 -3 -2 26.99 1.81
-3 -3 2 26.55 2.33
3 -3 -2 24.84 1.65
-3 -3 2 21.9 1.93
3 -3 -2 24.87 2.04
3 -3 -2 23.86 2.16
3 -3 -2 25.13 2.01
3 -3 -2 25.54 1.84
3 -3 -2 27.69 1.95
3 -3 -2 24.9 1.78
-3 -3 2 24.5 2.05
3 -3 -2 25.92 1.88
3 -3 -2 27.09 2.16
-3 -3 2 24.65 1.93
3 -3 -2 27.54 1.92
3 3 -2 30.2 2.17
-3 3 2 25.89 2.01
3 3 -2 26.86 2.1
3 3 -2 24.46 1.97
-3 3 2 24.96 2.18
-3 3 2 25.75 2.1
3 3 -2 29.55 2.23
2 -3 -2 1 0.19
-2 -3 2 0.97 0.22
2 -3 -2 0.92 0.17
-2 -3 2 1.05 0.24
-2 3 2 1.47 0.17
-2 3 2 1.63 0.18
-2 3 2 1.54 0.16
-2 3 2 1.36 0.16
2 3 -2 1.61 0.15
2 3 -2 1.66 0.2
2 3 -2 1.55 0.18
2 3 -2 1.62 0.19
-1 -3 2 232.69 19.01
1 3 -2 251.44 18.67
-1 3 2 211.41 18.26
1 3 -2 223.84 16.81
-1 3 2 193.65 17.66
1 3 -2 244.57 18.28
-1 3 2 206.39 16.8
-1 3 2 220.58 18.65
0 -3 2 39.73 3.76
0 3 -2 46.42 3.7
0 3 2 40.45 3.59
0 3 2 42.69 3.68
0 3 -2 43.61 3.32
0 3 -2 46.83 3.62
0 3 2 44.84 3.5
-1 3 -2 6.6 0.59
-1 3 -2 7.33 0.59
1 3 2 6.95 0.65
1 3 2 7.47 0.62
-1 3 -2 7.1 0.65
1 3 2 6.69 0.61
2 -3 2 25.16 2.01
-2 -3 -2 25.12 2.15
-2 -3 -2 26.37 2.19
-2 -3 -2 26.86 2.04
2 -3 2 25.36 2.02
-2 -3 -2 27.07 2.29
2 -3 2 26.03 2.09
2 -3 2 26.91 1.87
-2 3 -2 33.35 2.27
2 3 2 28.83 2.42
2 3 2 34.15 2.5
2 3 2 34.69 2.4
-2 3 -2 34.13 2.47
-2 3 -2 31.87 2.37
-3 -3 -2 24.56 2.4
3 -3 2 27.71 2.06
3 -3 2 27.86 2
-3 -3 -2 28.05 2.26
-3 -3 -2 26.25 2.12
3 -3 2 26.77 1.97
3 -3 2 27.4 1.83
-3 -3 -2 26.95 2.09
3 -3 2 27.52 1.98
-3 -3 -2 29.19 2.18
3 -3 2 27.25 1.89
-3 -3 -2 25.98 2
3 3 2 32.1 2.35
-3 3 -2 33.26 2.24
-3 3 -2 33.64 2.44
-3 3 -2 30.7 2.32
4 -3 2 6.19 0.54
-4 -3 -2 6.05 0.6
-4 -3 -2 5.75 0.58
4 -3 2 5.25 0.5
4 -3 2 5.32 0.46
4 -3 2 6.06 0.48
-4 -3 -2 5.3 0.52
-4 -3 -2 4.77 0.6
-4 -3 -2 5.16 0.58
4 -3 2 5.33 0.52
4 -3 2 5.73 0.5
-4 3 -2 7.03 0.56
-4 3 -2 5.86 0.56
4 3 2 6.83 0.59
4 3 2 6.74 0.57
-4 3 -2 6.71 0.61
4 3 2 6.79 0.58
5 -3 2 12.31 0.94
5 -3 2 13.92 0.98
5 -3 2 12.22 0.89
-5 -3 -2 12.16 1.22
5 -3 2 13.46 1.02
5 -3 2 13.36 0.99
-5 -3 -2 11.95 1.09
-5 -3 -2 13.28 1.15
-5 -3 -2 13.37 1.13
-5 -3 -2 13.54 1.04
5 -3 2 13.15 1.05
-5 3 -2 12.45 1.12
-5 3 -2 13.27 1.09
-5 3 -2 12.64 1.19
5 3 2 11.7 1.17
5 3 2 13.93 1.13
5 3 2 12.33 1.13
6 -3 2 28.84 2.01
-6 -3 -2 28.83 2.24
6 -3 2 25.68 1.9
-6 -3 -2 26.35 2.45
-6 -3 -2 28.28 2.19
6 -3 2 27.92 1.87
6 -3 2 25.11 2.09
-6 -3 -2 26.71 2.02
6 -3 2 31.42 1.97
-6 3 -2 27.47 2.18
6 3 2 26.27 2.49
-6 3 -2 29.22 2.39
-6 3 -2 26.98 2.27
6 3 2 27.87 2.28
6 3 2 25.59 2.27
6 3 2 23.69 2.36
7 -3 2 1.22 0.2
7 -3 2 1.56 0.24
-7 -3 -2 1.31 0.28
7 -3 2 1.5 0.26
-7 -3 -2 1.52 0.33
7 -3 2 1.85 0.25
-7 -3 -2 1.57 0.32
-7 -3 -2 1.89 0.37
7 -3 2 1.77 0.27
7 3 2 1.08 0.25
8 -3 2 16.41 1.15
8 -3 2 14.73 1.2
-8 -3 -2 14.05 1.32
-8 -3 -2 18.47 1.42
-8 -3 -2 16.56 1.29
8 -3 2 15.85 1.27
8 -3 2 16.03 1.19
9 -3 2 10.65 0.86
9 -3 2 10.3 0.81
9 -3 2 9.14 0.81
-9 -3 -2 9.11 0.89
-9 -3 -2 10.83 0.97
-9 -3 -2 12.09 0.9
9 -3 2 9.92 0.77
9 3 2 12.38 0.74
-10 -3 -2 5.55 0.56
-10 -3 -2 6.78 0.55
10 -3 2 5.1 0.51
10 -3 2 5.74 0.48
10 -3 2 6.46 0.47
10 3 2 6.93 0.51
10 3 2 6.4 0.51
10 -4 -2 35.31 2.31
-10 -4 2 35.58 2.74
10 -4 -2 34.16 2.61
-10 -4 2 36.42 2.66
10 -4 -2 32.68 2.41
10 4 -2 36.66 2.62
10 4 -2 35.07 2.7
9 -4 -2 2.24 0.29
-9 -4 2 3.17 0.44
9 -4 -2 2.36 0.26
-9 -4 2 3.8 0.53
9 -4 -2 2.33 0.23
9 -4 -2 2.32 0.29
9 -4 -2 2.21 0.24
-9 -4 2 2.4 0.31
9 4 -2 1.48 0.2
9 4 -2 1.74 0.23
9 4 -2 1.77 0.24
8 -4 -2 18.13 1.35
8 -4 -2 20.44 1.59
8 -4 -2 19.81 1.56
-8 -4 2 18.33 1.5
8 -4 -2 19.57 1.43
8 -4 -2 20.49 1.43
8 -4 -2 20.32 1.39
-8 -4 2 16.01 1.45
-8 -4 2 23.45 1.75
-8 -4 2 21.99 1.72
8 4 -2 18.02 1.65
7 -4 -2 27.54 2.19
-7 -4 2 30.01 2.14
7 -4 -2 28.7 1.98
7 -4 -2 26.55 1.76
-7 -4 2 29.2 2.35
7 -4 -2 26.27 1.99
7 -4 -2 28.79 1.91
7 -4 -2 24.21 2.13
7 -4 -2 27.64 1.9
7 -4 -2 26.86 2.22
7 -4 -2 26.85 2.31
6 -4 -2 22.7 1.55
6 -4 -2 22.54 1.91
6 -4 -2 23.16 1.69
6 -4 -2 22.29 1.44
-6 -4 2 20.15 1.83
-6 -4 2 26.07 1.81
6 -4 -2 23.46 1.8
6 -4 -2 19.39 1.8
-6 -4 2 17.58 1.6
6 -4 -2 23 1.55
6 -4 -2 23.5 1.58
6 -4 -2 22.52 1.75
6 -4 -2 22.97 1.64
6 -4 -2 22.04 1.61
-6 -4 2 20.34 1.9
-6 4 2 20.28 1.78
6 4 -2 21.04 1.95
-6 4 2 20.78 1.97
6 4 -2 22.16 1.84
5 -4 -2 8.62 0.64
5 -4 -2 8.55 0.68
5 -4 -2 8.37 0.64
-5 -4 2 7.7 0.82
5 -4 -2 9 0.73
5 -4 -2 8.24 0.65
-5 -4 2 6.61 0.64
-5 -4 2 8.46 0.81
5 -4 -2 7.51 0.74
5 -4 -2 7.38 0.71
5 -4 -2 8.16 0.59
5 -4 -2 7.96 0.63
5 -4 -2 8.55 0.69
-5 -4 2 8.15 0.66
-5 -4 2 7.72 0.78
5 -4 -2 8.14 0.81
5 -4 -2 9.04 0.76
5 -4 -2 7.74 0.8
5 4 -2 6.33 0.71
-5 4 2 6.39 0.69
5 4 -2 7.19 0.7
5 4 -2 7.64 0.76
-5 4 2 7.73 0.79
5 4 -2 6.27 0.7
4 -4 -2 1.44 0.31
4 -4 -2 1.13 0.21
4 -4 -2 1.13 0.19
-4 -4 2 1.21 0.26
4 -4 -2 0.99 0.19
4 -4 -2 1.19 0.19
4 -4 -2 1.02 0.23
4 -4 -2 1.3 0.2
4 -4 -2 1 0.18
-4 -4 2 1.32 0.33
-4 -4 2 1.31 0.3
4 -4 -2 0.9 0.22
4 -4 -2 1.3 0.22
4 -4 -2 1.01 0.25
4 -4 -2 0.93 0.19
4 -4 -2 1.03 0.19
4 -4 -2 1.33 0.25
4 -4 -2 1.27 0.23
-4 -4 2 1.17 0.28
4 4 -2 0.71 0.16
4 4 -2 0.74 0.16
-4 4 2 0.69 0.18
-4 4 2 0.83 0.18
4 4 -2 0.85 0.18
3 -4 -2 65.12 4.56
-3 -4 2 53.89 4.45
3 -4 -2 64.37 4.71
3 -4 -2 62.57 4.46
-3 -4 2 61.08 4.7
3 -4 -2 62.32 5
3 -4 -2 62.7 4.12
3 -4 -2 64.91 3.95
3 -4 -2 62.34 4.26
-3 -4 2 60.58 4.4
3 -4 -2 65.6 4.48
3 -4 -2 63.2 5.08
3 -4 -2 62.9 4.65
3 -4 -2 57.96 4.09
3 -4 -2 59.08 4.23
3 -4 -2 60.33 4.39
3 -4 -2 64.16 4.33
-3 -4 2 56.64 3.78
3 -4 -2 61.48 4.69
-3 -4 2 59.42 4.16
3 -4 -2 61.52 4.6
3 -4 -2 60.91 4.15
3 -4 -2 59.52 4.93
3 -4 -2 62.63 4.17
3 -4 -2 61.28 3.79
-3 4 2 58.42 5.04
3 4 -2 57.67 4.87
-3 4 2 54.51 4.63
3 4 -2 58.96 5.02
3 4 -2 56.4 5.14
-3 4 2 55.15 5.15
2 -4 -2 19.88 1.37
2 -4 -2 19.32 1.45
-2 -4 2 20.75 1.67
2 -4 -2 21.41 1.56
2 -4 -2 20.61 1.65
-2 -4 2 18.25 1.57
2 -4 -2 19.37 1.55
2 -4 -2 21.4 1.44
2 -4 -2 21.03 1.46
2 -4 -2 21.86 1.65
2 -4 -2 20.38 1.54
2 -4 -2 20.78 1.35
-2 -4 2 18.88 1.35
2 -4 -2 21.31 1.6
2 -4 -2 19.72 1.81
2 -4 -2 21.58 1.8
2 -4 -2 22.32 1.67
2 -4 -2 20.8 1.44
2 -4 -2 21.67 1.49
2 -4 -2 21.37 1.59
2 -4 -2 19.76 1.49
2 -4 -2 23.99 1.78
2 -4 -2 20.28 1.69
-2 -4 2 21.01 1.5
-2 -4 2 21.94 1.6
-2 4 2 17.21 1.72
2 4 -2 18.38 1.72
2 4 -2 18 1.68
-2 4 2 17.75 1.77
2 4 -2 19.42 1.78
1 -4 -2 26.62 1.7
1 -4 -2 26.88 1.81
1 -4 -2 25.53 1.85
1 -4 -2 28.12 1.86
-1 -4 2 24.48 1.81
1 -4 -2 24.42 2.27
1 -4 -2 28.63 2.24
-1 -4 2 26.08 1.87
1 -4 -2 25.76 1.73
1 -4 -2 24.95 1.86
-1 -4 2 23.18 1.71
1 -4 -2 26.81 1.96
1 -4 -2 27.14 1.95
1 -4 -2 26.04 2
1 -4 -2 26.13 2.11
-1 -4 2 25.92 1.97
-1 -4 2 24.38 2.08
1 -4 -2 26.74 2.08
1 -4 -2 24.27 1.87
1 -4 -2 24.01 1.95
1 -4 -2 26.74 1.82
1 -4 -2 25.84 2.07
1 -4 -2 25.83 2
-1 -4 2 21.46 1.96
-1 4 2 27.1 2.26
1 4 -2 30.43 2.22
-1 4 2 25.34 2.19
1 4 -2 27.14 2.16
1 4 -2 29.41 2.29
0 -4 -2 107.63 7.41
0 -4 -2 112.34 8.28
0 -4 2 109.32 7.37
0 -4 -2 104.94 7.54
0 -4 -2 114.59 7.95
0 -4 2 108.61 7.72
0 -4 -2 99.08 9
0 -4 2 110.81 7.33
0 -4 2 104.89 7.57
0 -4 -2 112.08 7.36
0 -4 2 97.09 7.9
0 -4 -2 114.52 7.03
0 -4 -2 110.22 7.28
0 -4 2 98.21 8.29
0 -4 -2 112.17 8.32
0 -4 -2 114.66 7.74
0 -4 -2 101.86 7.81
0 -4 -2 104.11 8.15
0 -4 -2 111.28 6.75
0 -4 2 113.54 6.8
0 -4 -2 108.75 7.56
0 -4 -2 104.39 7.42
0 4 -2 120.6 9.04
0 4 -2 108.69 8.3
0 4 2 122.21 8.74
0 4 -2 115.5 9.24
0 4 2 115.83 9.22
0 4 2 108.93 9.01
-1 -4 -2 20.6 1.54
1 -4 2 20.29 1.48
1 -4 2 19.53 1.41
1 -4 2 19.44 1.56
-1 -4 -2 18.94 1.43
1 -4 2 19.42 1.37
1 -4 2 22.77 1.45
-1 -4 -2 17.7 1.33
-1 -4 -2 17.72 1.56
-1 -4 -2 20.02 1.41
-1 -4 -2 18.82 1.38
-1 -4 -2 21.37 1.61
-1 -4 -2 19.42 1.49
-1 -4 -2 19.21 1.71
1 -4 2 21.27 1.33
-1 -4 -2 21.61 1.51
1 -4 2 20.52 1.42
-1 -4 -2 20.54 1.27
-1 -4 -2 20.28 1.41
-1 4 -2 17.93 1.67
1 4 2 19.32 1.65
-1 4 -2 17.58 1.71
-1 4 -2 16.3 1.51
1 4 2 18.61 1.69
1 4 2 17.56 1.61
2 -4 2 100.42 6.67
2 -4 2 98.14 6.5
-2 -4 -2 82.36 6.57
-2 -4 -2 90.01 6.41
2 -4 2 102.55 5.94
2 -4 2 98.06 6.43
-2 -4 -2 97.15 7.29
-2 -4 -2 85.18 6.47
2 -4 2 87.34 7.22
-2 -4 -2 90.13 6.84
2 -4 2 93.05 6.42
-2 -4 -2 97.85 6.77
2 -4 2 89.06 6.14
2 -4 2 92.58 6.73
-2 -4 -2 98.98 6.98
-2 4 -2 104.18 7.92
2 4 2 97.14 8.03
2 4 2 102.31 7.63
2 4 2 102.86 7.64
-2 4 -2 94.12 7.26
-2 4 -2 100.81 8.09
-3 -4 -2 67.59 5.28
3 -4 2 69.45 4.93
-3 -4 -2 75.17 5.4
3 -4 2 76.3 4.95
3 -4 2 79.02 5.03
-3 -4 -2 74.79 5.65
3 -4 2 71.68 4.73
3 -4 2 71.65 4.57
3 -4 2 67.33 5.16
3 -4 2 69.64 5.14
-3 -4 -2 70.31 5
-3 -4 -2 72.54 5.22
-3 4 -2 78.11 6.09
-3 4 -2 71.31 5.59
3 4 2 75.99 5.87
3 4 2 76.06 5.86
3 4 2 72.74 6.17
4 -4 2 10.57 0.83
4 -4 2 11.27 0.81
-4 -4 -2 11.33 1
-4 -4 -2 11.1 0.96
4 -4 2 11.65 0.87
4 -4 2 11.91 0.81
-4 -4 -2 10.6 1.01
4 -4 2 11.75 0.91
4 -4 2 11.7 0.87
-4 -4 -2 10.51 0.91
-4 -4 -2 11.53 0.9
4 4 2 10.9 0.96
-4 4 -2 9.63 0.92
4 4 2 9.02 0.98
-4 4 -2 11.22 1.02
4 4 2 9.34 0.96
5 -4 2 27.32 2.05
5 -4 2 33.02 2.12
-5 -4 -2 31.35 2.36
5 -4 2 30.34 2.01
5 -4 2 27.77 1.83
5 -4 2 30.16 1.95
-5 -4 -2 29.97 2.11
-5 -4 -2 25.41 2.18
-5 -4 -2 32.37 2.3
5 4 2 24.63 2.35
5 4 2 26.61 2.34
-5 4 -2 24.32 2.24
-5 4 -2 26.92 2.46
-6 -4 -2 2.34 0.4
6 -4 2 2.09 0.3
-6 -4 -2 1.67 0.35
6 -4 2 1.68 0.27
-6 -4 -2 2.37 0.46
6 -4 2 1.69 0.25
6 -4 2 2.34 0.32
-6 -4 -2 1.58 0.32
6 -4 2 1.9 0.24
7 -4 2 0.86 0.18
7 -4 2 0.66 0.15
7 -4 2 0.47 0.14
-7 -4 -2 0.55 0.23
-7 -4 -2 0.99 0.27
-7 -4 -2 0.59 0.21
7 -4 2 0.78 0.17
-7 -4 -2 0.83 0.24
8 -4 2 5.59 0.48
8 -4 2 6.02 0.48
8 -4 2 4.21 0.44
8 -4 2 5.76 0.48
-8 -4 -2 6.82 0.65
-8 -4 -2 5.82 0.56
9 -4 2 13.6 1
-9 -4 -2 14.72 1.14
-9 -4 -2 14.5 1.05
9 -4 2 11.23 0.99
9 -4 2 13.05 0.95
9 4 2 14.97 1.05
9 4 2 14.23 1.06
10 -4 2 1.8 0.18
9 -5 -2 6.44 0.46
9 -5 -2 6.2 0.47
-9 -5 2 6.46 0.57
9 -5 -2 5.46 0.46
-9 -5 2 6.89 0.6
9 -5 -2 5.92 0.51
9 5 -2 6.15 0.51
9 5 -2 5.89 0.49
8 -5 -2 2.44 0.26
8 -5 -2 2.21 0.23
8 -5 -2 2.29 0.25
8 -5 -2 2.48 0.3
8 -5 -2 2.43 0.25
8 -5 -2 2.23 0.29
-8 -5 2 3.09 0.39
-8 -5 2 3.31 0.45
-7 -5 2 0.27 0.19
7 -5 -2 0.15 0.11
-7 -5 2 0.25 0.19
7 -5 -2 0.25 0.14
7 -5 -2 0.32 0.15
7 -5 -2 0.16 0.1
-7 -5 2 0.24 0.14
7 -5 -2 0.2 0.09
7 -5 -2 0.18 0.11
7 -5 -2 0.22 0.09
-6 -5 2 14.22 1.42
-6 -5 2 14.71 1.48
6 -5 -2 15.73 1.38
6 -5 -2 17.56 1.26
-6 -5 2 19.03 1.39
6 -5 -2 16.25 1.22
6 -5 -2 16.75 1.2
6 -5 -2 16.65 1.11
6 -5 -2 16.79 1.36
6 -5 -2 17 1.24
6 -5 -2 16.98 1.19
5 -5 -2 5.11 0.45
5 -5 -2 4.57 0.47
5 -5 -2 4.61 0.52
5 -5 -2 4.2 0.42
-5 -5 2 4.26 0.56
5 -5 -2 4.98 0.45
-5 -5 2 5.2 0.58
-5 -5 2 4.26 0.43
-5 -5 2 4.3 0.58
5 -5 -2 4.29 0.49
5 -5 -2 5.4 0.51
5 -5 -2 4.97 0.45
5 -5 -2 4.21 0.43
5 -5 -2 4.36 0.39
4 -5 -2 12.11 0.91
4 -5 -2 11.6 0.98
4 -5 -2 11.39 1.03
4 -5 -2 11.38 0.94
4 -5 -2 12.67 0.9
4 -5 -2 13.19 0.93
4 -5 -2 12.93 1.01
4 -5 -2 12.11 0.86
-4 -5 2 10.76 1.06
4 -5 -2 12.29 1.05
4 -5 -2 10.97 0.91
4 -5 -2 11.21 1.01
-4 -5 2 12.27 0.96
-4 -5 2 11.77 1.07
-3 -5 2 16.75 1.34
3 -5 -2 17.1 1.17
-3 -5 2 14.46 1.29
3 -5 -2 14.14 1.17
3 -5 -2 17.58 1.3
-3 -5 2 13.92 1.06
3 -5 -2 16.49 1.16
3 -5 -2 16.43 1.1
3 -5 -2 15.8 1.18
3 -5 -2 16.07 1.28
3 -5 -2 16.53 1.11
3 -5 -2 17.49 1.27
3 -5 -2 15.82 1.32
-3 -5 2 16.08 1.39
3 -5 -2 17.11 1.21
3 -5 -2 15.96 1.25
3 -5 -2 17.05 1.31
-3 -5 2 15.91 1.23
-3 5 2 14.71 1.37
3 5 -2 13.98 1.34
-3 5 2 13.06 1.42
3 5 -2 14.31 1.41
-2 -5 2 6.34 0.68
-2 -5 2 7.61 0.74
2 -5 -2 8.99 0.67
2 -5 -2 7.39 0.71
2 -5 -2 8.5 0.65
2 -5 -2 8.14 0.61
-2 -5 2 8.23 0.71
2 -5 -2 9.15 0.64
-2 -5 2 7.68 0.75
2 -5 -2 7.23 0.69
-2 -5 2 7.4 0.62
2 -5 -2 8.12 0.58
2 -5 -2 7.41 0.7
2 -5 -2 8.05 0.7
2 -5 -2 7.16 0.66
2 -5 -2 7.82 0.64
2 -5 -2 8.5 0.66
-2 5 2 7.13 0.72
2 5 -2 6.77 0.7
2 5 -2 7.37 0.71
2 5 -2 6.75 0.74
1 -5 -2 24.04 1.59
1 -5 -2 23.04 1.46
1 -5 -2 22.34 1.77
-1 -5 2 23.3 1.63
-1 -5 2 19.4 1.67
1 -5 -2 24.6 1.54
1 -5 -2 20.68 1.56
-1 -5 2 20.34 1.52
-1 -5 2 21.41 1.49
-1 -5 2 23.3 1.71
1 -5 -2 21.87 1.62
1 -5 -2 23.31 1.58
1 -5 -2 21.12 1.68
-1 -5 2 21.36 1.78
1 -5 -2 22.84 1.67
1 -5 -2 21.7 1.53
1 -5 -2 22.04 1.71
-1 5 2 18.64 1.81
1 5 -2 17.47 1.8
0 -5 2 1.11 0.2
0 -5 -2 1.03 0.23
0 -5 2 1.14 0.23
0 -5 -2 0.98 0.22
0 -5 -2 1.06 0.26
0 -5 -2 1.01 0.21
0 -5 -2 1.08 0.19
0 -5 2 0.81 0.2
0 -5 -2 1.08 0.26
0 -5 -2 1.11 0.17
0 -5 -2 0.93 0.15
0 -5 2 0.93 0.21
0 -5 -2 0.91 0.22
0 -5 2 1.26 0.26
0 -5 -2 1.01 0.24
0 -5 2 1.09 0.18
0 -5 2 0.81 0.21
0 -5 -2 1.19 0.22
0 5 2 0.94 0.2
0 5 -2 1.25 0.26
0 5 -2 1.21 0.23
0 5 2 1.29 0.27
0 5 2 1.14 0.21
0 5 -2 1.07 0.2
-1 -5 -2 10.1 0.88
-1 -5 -2 9.53 0.83
1 -5 2 9.6 0.86
-1 -5 -2 10.35 0.74
-1 -5 -2 10.98 0.91
1 -5 2 9.34 0.88
-1 -5 -2 9.83 0.75
1 -5 2 10.76 0.82
1 -5 2 10.65 0.84
-1 -5 -2 10.65 0.94
-1 -5 -2 11.07 0.84
1 -5 2 10.53 0.83
1 -5 2 10.37 0.81
-1 -5 -2 10.36 0.83
-1 -5 -2 10.16 0.92
1 5 2 8.79 0.94
-1 5 -2 10.44 0.95
1 5 2 10.43 0.97
-1 5 -2 10.37 0.99
1 5 2 11.21 0.93
-2 -5 -2 40.19 2.76
2 -5 2 41.82 2.74
2 -5 2 42.96 2.56
2 -5 2 42.77 2.83
2 -5 2 40.05 2.73
-2 -5 -2 38.3 2.91
2 -5 2 36.35 3.02
-2 -5 -2 45.29 3.14
-2 -5 -2 40.47 2.9
-2 -5 -2 40.17 2.99
2 -5 2 38.57 2.85
2 -5 2 40.79 2.72
-2 -5 -2 38.97 2.71
-2 5 -2 34.15 3.39
-2 5 -2 35.05 3.3
2 5 2 33.99 3.21
2 5 2 36.73 3.18
3 -5 2 1.14 0.22
3 -5 2 1.15 0.25
-3 -5 -2 1 0.19
3 -5 2 1.55 0.23
3 -5 2 1.19 0.23
-3 -5 -2 1.1 0.25
-3 -5 -2 1.05 0.26
-3 -5 -2 1.26 0.27
3 -5 2 1.31 0.22
3 -5 2 0.95 0.21
-3 -5 -2 1.54 0.27
-3 -5 -2 1.86 0.37
-4 -5 -2 39.64 2.81
4 -5 2 40.8 2.77
-4 -5 -2 39.52 2.89
-4 -5 -2 42.05 3.16
4 -5 2 36.86 2.7
4 -5 2 39.64 2.6
-4 -5 -2 33.59 2.93
4 -5 2 37.48 2.51
4 -5 2 38.57 2.84
-4 -5 -2 42.44 3.06
4 -5 2 41.5 2.73
-5 -5 -2 2.88 0.45
-5 -5 -2 2.96 0.36
5 -5 2 2.94 0.31
5 -5 2 3.01 0.36
5 -5 2 2.82 0.29
-5 -5 -2 3.57 0.54
5 -5 2 2.69 0.29
-5 -5 -2 2.82 0.49
5 -5 2 3.3 0.33
5 -5 2 2.76 0.34
6 -5 2 5.05 0.43
-6 -5 -2 6.46 0.62
-6 -5 -2 4.25 0.54
-6 -5 -2 5.48 0.64
6 -5 2 6.14 0.53
6 -5 2 5.27 0.47
6 -5 2 6.45 0.48
6 -5 2 6.14 0.52
7 -5 2 9.69 0.7
-7 -5 -2 8.64 0.75
7 -5 2 9 0.7
-7 -5 -2 9.26 0.84
7 -5 2 8.74 0.65
7 -5 2 8.07 0.65
-7 -5 -2 8.53 0.78
8 -5 2 2.83 0.27
-8 -5 -2 3.48 0.33
-8 -5 -2 3.46 0.39
8 -5 2 3.37 0.29
8 -5 2 3.03 0.29
7 -6 -2 2.17 0.2
-7 -6 2 1.97 0.3
-7 -6 2 2.66 0.32
7 -6 -2 2.6 0.23
7 -6 -2 2.24 0.22
7 -6 -2 2.25 0.22
6 -6 -2 21.59 1.4
6 -6 -2 18.29 1.35
6 -6 -2 20.17 1.43
-6 -6 2 21.18 1.53
-6 -6 2 18.4 1.67
6 -6 -2 19.79 1.29
6 -6 -2 21.32 1.46
5 -6 -2 1.58 0.2
5 -6 -2 1.32 0.24
5 -6 -2 1.39 0.19
-5 -6 2 1.2 0.29
5 -6 -2 1.29 0.21
5 -6 -2 1.47 0.22
-5 -6 2 1.32 0.28
5 -6 -2 1.59 0.21
5 -6 -2 1.29 0.19
-5 -6 2 1.48 0.3
-4 -6 2 0.78 0.17
4 -6 -2 0.85 0.16
4 -6 -2 0.79 0.18
-4 -6 2 0.99 0.28
4 -6 -2 0.74 0.15
4 -6 -2 0.92 0.17
-4 -6 2 0.74 0.24
-4 -6 2 0.69 0.22
4 -6 -2 1.06 0.18
4 -6 -2 0.81 0.18
4 -6 -2 0.98 0.18
4 -6 -2 0.92 0.18
3 -6 -2 14.98 1.11
3 -6 -2 15.42 1.12
3 -6 -2 14.26 1.23
3 -6 -2 16.65 1.09
-3 -6 2 12.76 1.2
3 -6 -2 15.14 1.09
3 -6 -2 14.27 1.19
-3 -6 2 14.78 1.29
-3 -6 2 13.69 1.23
3 -6 -2 14.5 1.16
-3 -6 2 15.15 1.14
3 -6 -2 15.61 1.03
-2 -6 2 4.14 0.45
2 -6 -2 4.7 0.41
-2 -6 2 3.86 0.45
2 -6 -2 4.64 0.47
-2 -6 2 4.64 0.39
-2 -6 2 4.5 0.51
2 -6 -2 3.99 0.45
2 -6 -2 4.94 0.44
-2 -6 2 4.21 0.49
2 -6 -2 5.05 0.42
2 -6 -2 4.34 0.41
2 -6 -2 4.36 0.45
2 -6 -2 4.37 0.4
1 -6 -2 12.8 1.19
1 -6 -2 16.06 1.04
-1 -6 2 13.78 1.25
1 -6 -2 14.86 1.26
1 -6 -2 14.07 1.18
-1 -6 2 14.95 1.22
1 -6 -2 14.34 1.11
-1 -6 2 15.22 1.16
-1 -6 2 15.85 1.06
1 -6 -2 13.93 1.21
1 -6 -2 16.28 1.14
1 -6 -2 15.38 1.11
1 -6 -2 16.65 1.09
0 -6 2 12.69 0.94
0 -6 -2 14.17 1.01
0 -6 2 12.13 1.09
0 -6 -2 12.71 0.9
0 -6 -2 13.7 1.13
0 -6 2 13.95 1.04
0 -6 -2 12.31 1.08
0 -6 -2 14.05 1.08
0 -6 -2 13.21 0.93
0 -6 -2 11.23 1.05
0 -6 2 12.57 1.06
0 -6 -2 12.54 0.99
0 -6 2 13.75 0.96
1 -6 2 9.03 0.76
-1 -6 -2 8.96 0.72
-1 -6 -2 9.5 0.83
-1 -6 -2 7.56 0.76
1 -6 2 7.96 0.76
1 -6 2 9.58 0.72
1 -6 2 8.94 0.7
-1 -6 -2 8.48 0.8
1 -6 2 9.51 0.71
-1 -6 -2 8.96 0.64
1 -6 2 9.17 0.74
-1 -6 -2 9.5 0.8
-1 -6 -2 9.04 0.73
2 -6 2 15.54 1.11
2 -6 2 12.95 1.14
2 -6 2 15.19 1.12
2 -6 2 15.51 1.05
2 -6 2 14.64 1.11
-2 -6 -2 14.44 1.13
-2 -6 -2 13.63 1.23
-2 -6 -2 14.77 1.2
-2 -6 -2 15.99 1.1
-2 -6 -2 16.08 1.3
-3 -6 -2 8.84 0.78
3 -6 2 6.93 0.65
3 -6 2 7.96 0.65
3 -6 2 7.83 0.63
-3 -6 -2 8.47 0.71
-3 -6 -2 7.58 0.76
3 -6 2 8.6 0.62
3 -6 2 8.26 0.66
-3 -6 -2 7.71 0.67
-4 -6 -2 5.9 0.58
-4 -6 -2 5.02 0.47
4 -6 2 5.62 0.45
-4 -6 -2 5.01 0.54
4 -6 2 4.92 0.45
-4 -6 -2 4.54 0.47
4 -6 2 4.89 0.42
4 -6 2 4.95 0.41
4 -6 2 4.82 0.42
-5 -6 -2 6.66 0.59
5 -6 2 6.25 0.5
5 -6 2 5.52 0.48
-5 -6 -2 5.09 0.59
5 -6 2 6.22 0.48
5 -6 2 5.75 0.43
-6 -6 -2 0.75 0.16
-6 -6 -2 0.84 0.2
6 -6 2 0.79 0.13
-6 -6 -2 0.65 0.15
6 -6 2 0.56 0.11
6 -6 2 0.74 0.12
6 -6 2 0.64 0.12
4 -7 -2 3.98 0.3
-4 -7 2 3.72 0.38
3 -7 -2 1.86 0.21
-3 -7 2 1.67 0.25
-3 -7 2 1.56 0.25
3 -7 -2 1.81 0.19
3 -7 -2 1.69 0.23
3 -7 -2 1.59 0.19
-2 -7 2 8.88 0.63
2 -7 -2 7.88 0.56
2 -7 -2 8.4 0.63
2 -7 -2 6.96 0.67
-2 -7 2 7.18 0.68
2 -7 -2 8.71 0.66
-2 -7 2 8.01 0.68
1 -7 -2 5.28 0.47
-1 -7 2 5.04 0.44
-1 -7 2 5.44 0.47
1 -7 -2 4.97 0.46
-1 -7 2 4.45 0.38
1 -7 -2 5.64 0.44
1 -7 -2 5.5 0.47
-1 -7 2 4.33 0.45
1 -7 -2 5.23 0.38
0 -7 -2 4.51 0.41
0 -7 2 4.72 0.38
0 -7 -2 4.92 0.44
0 -7 -2 4.15 0.43
0 -7 -2 4.72 0.45
0 -7 2 5.24 0.42
0 -7 2 4.55 0.43
0 -7 -2 4.51 0.35
-1 -7 -2 1.46 0.22
1 -7 2 1.33 0.18
-1 -7 -2 1.35 0.22
1 -7 2 1.3 0.19
-1 -7 -2 1.11 0.18
1 -7 2 1.19 0.18
-1 -7 -2 1.57 0.23
2 -7 2 8.29 0.62
-2 -7 -2 8.12 0.71
-2 -7 -2 9.21 0.75
2 -7 2 8.59 0.6
-2 -7 -2 8.19 0.69
2 -7 2 8.94 0.64
3 -7 2 4.39 0.33
-3 -7 -2 4.11 0.41
12 0 -3 2.47 0.26
12 0 -3 2.33 0.27
11 0 -3 1.15 0.18
11 0 -3 0.97 0.15
11 0 -3 0.76 0.16
11 0 -3 1.16 0.18
10 0 -3 0.07 0.08
10 0 -3 0.03 0.07
10 0 -3 0.12 0.08
10 0 -3 0.03 0.08
-9 0 3 40.06 3.58
9 0 -3 42.91 3.1
-9 0 3 43.97 3.66
-9 0 3 39.12 3.4
9 0 -3 44.09 3.14
9 0 -3 40.61 2.74
9 0 -3 41.33 3.23
-8 0 3 2.95 0.36
8 0 -3 2.37 0.26
8 0 -3 3.02 0.3
-8 0 3 3.16 0.33
-8 0 3 3.44 0.38
8 0 -3 3.13 0.3
8 0 -3 2.57 0.33
8 0 -3 3.1 0.29
-7 0 3 1.25 0.2
-7 0 3 1.6 0.22
7 0 -3 1.39 0.17
-7 0 3 1.26 0.18
7 0 -3 1.36 0.21
-7 0 3 1.45 0.22
7 0 -3 1.2 0.16
7 0 -3 1.26 0.17
7 0 -3 1.32 0.19
7 0 -3 1.24 0.16
6 0 -3 40.78 3.49
-6 0 3 44.07 3.85
6 0 -3 48.19 3.87
-6 0 3 50.33 3.93
6 0 -3 43.74 3.38
6 0 -3 44.55 3.64
-6 0 3 49.83 3.95
-6 0 3 49.47 3.68
6 0 -3 39.85 3.34
-5 0 3 62.16 5.66
5 0 -3 66.5 5.56
5 0 -3 69.2 5.46
-5 0 3 67.79 5.63
-5 0 3 64.44 5.52
4 0 -3 25.4 2.33
-4 0 3 28.27 2.52
-4 0 3 30.84 2.54
4 0 -3 33.87 2.5
-4 0 3 29.58 2.47
4 0 -3 30.64 2.45
-4 0 3 26.89 2.58
3 0 -3 187.26 14.2
-3 0 3 149.83 14.79
-3 0 3 165.45 14.33
-3 0 3 173.08 14.45
-3 0 3 168.65 14.04
3 0 -3 174.99 13.92
-2 0 3 10.64 1.06
-2 0 3 12.13 1.1
2 0 -3 13.01 0.96
-2 0 3 13.34 1.09
2 0 -3 13.17 1.06
2 0 -3 11.91 1.04
1 0 -3 454.85 36.97
-1 0 3 474.04 40.68
-1 0 3 470.38 36.75
0 0 -3 3.85 0.39
0 0 3 3.82 0.41
0 0 -3 3.65 0.35
0 0 3 4.16 0.38
0 0 3 3.89 0.36
0 0 -3 3.84 0.37
-1 0 -3 37.63 3.03
-1 0 -3 40.38 3.19
-1 0 -3 40.2 3.33
1 0 3 41.58 3.19
1 0 3 40.65 3.18
1 0 3 41.3 3.21
1 0 3 39.82 3.52
-1 0 -3 37.84 3.28
2 0 3 25.56 2.16
-2 0 -3 24.02 1.94
2 0 3 25.37 2.05
2 0 3 25.07 2.07
-2 0 -3 27.02 2.15
2 0 3 24.7 2.26
2 0 3 23.44 2.04
2 0 3 27.43 2.06
-2 0 -3 27.03 2.06
-3 0 -3 231.85 19.95
-3 0 -3 236.28 17.82
3 0 3 246.06 18.72
3 0 3 234.63 18.62
3 0 3 244.67 18.79
3 0 3 246.71 18.66
3 0 3 239.64 19.76
3 0 3 220.13 20.6
-3 0 -3 227.82 18.75
4 0 3 268.17 21.77
4 0 3 291.79 23.08
-4 0 -3 273.17 21.9
-4 0 -3 284.77 22.85
-4 0 -3 259.14 20.81
4 0 3 253.83 24.05
4 0 3 297.74 21.86
-4 0 -3 280.42 23.3
-5 0 -3 116.87 9.59
-5 0 -3 118.76 9.76
5 0 3 120.47 9.15
-5 0 -3 102.05 8.7
-5 0 -3 112.51 9.17
5 0 3 115.16 9.11
5 0 3 118.51 9.66
-6 0 -3 86.13 6.56
6 0 3 70.91 5.41
-6 0 -3 83.43 6.25
6 0 3 76.18 5.29
6 0 3 80.7 5.67
6 0 3 67.72 6.19
6 0 3 86.69 6.24
-6 0 -3 83.45 6.66
-6 0 -3 65.68 5.91
7 0 3 141.23 8.84
7 0 3 145.04 10.99
7 0 3 117.6 10.92
7 0 3 143.44 10.02
-7 0 -3 152.68 11.54
-7 0 -3 130.26 11.71
7 0 3 136.96 9.35
-7 0 -3 136.43 11.01
8 0 3 17.73 1.53
8 0 3 18.44 1.23
8 0 3 19.08 1.38
-8 0 -3 15.8 1.52
8 0 3 18.69 1.3
-8 0 -3 17.64 1.64
9 0 3 14.56 1.13
-9 0 -3 14.18 1.1
9 0 3 13.56 1.06
9 0 3 15.51 1.02
10 0 3 9.35 0.73
-10 0 -3 7.64 0.69
10 0 3 8.9 0.69
-10 0 -3 9.25 0.78
-10 0 -3 9.44 0.73
10 0 3 9.26 0.66
11 0 3 2.68 0.27
11 0 3 3.06 0.26
-11 0 -3 2.61 0.28
-11 0 -3 2.89 0.32
12 -1 -3 1.64 0.21
12 -1 -3 1.77 0.19
-12 -1 3 1.87 0.29
-12 -1 3 1.7 0.21
12 -1 -3 1.85 0.22
12 1 -3 1.42 0.2
12 1 -3 1.52 0.2
11 -1 -3 22.92 1.7
-11 -1 3 20.05 1.75
11 -1 -3 22.55 1.67
-11 -1 3 21.65 1.58
11 -1 -3 19.97 1.46
11 1 -3 20.2 1.7
11 1 -3 23.6 1.68
11 1 -3 22.19 1.65
10 -1 -3 2.07 0.29
10 -1 -3 2.23 0.28
10 -1 -3 2.22 0.29
10 -1 -3 2.21 0.26
10 1 -3 3 0.29
10 1 -3 2.86 0.28
10 1 -3 2.69 0.28
-9 -1 3 0.62 0.18
9 -1 -3 0.88 0.18
9 -1 -3 1.22 0.17
-9 -1 3 0.75 0.22
9 -1 -3 0.94 0.18
9 -1 -3 1.16 0.19
-9 1 3 0.9 0.19
-9 1 3 1.02 0.23
9 1 -3 1.16 0.17
-9 1 3 1.1 0.21
9 1 -3 0.8 0.18
9 1 -3 1.12 0.18
9 1 -3 1.11 0.18
8 -1 -3 53.24 3.84
8 -1 -3 56.92 3.9
8 -1 -3 53.16 3.39
8 -1 -3 51.83 4
-8 -1 3 50.55 4.4
-8 -1 3 57.13 4.52
-8 -1 3 44.31 4.51
8 1 -3 48.67 3.81
8 1 -3 51.77 4.42
-8 1 3 46.57 4.47
-8 1 3 55.1 4.22
-8 1 3 54.15 4.42
8 1 -3 56.84 3.87
8 1 -3 46.22 4.14
8 1 -3 52.48 3.99
7 -1 -3 40.64 2.83
7 -1 -3 45.46 3.18
-7 -1 3 41.92 3.56
7 -1 -3 38.65 2.68
7 -1 -3 39.89 3.31
7 -1 -3 41.39 3.04
-7 -1 3 42.43 3.48
-7 -1 3 39.4 3.3
-7 -1 3 43.72 3.6
7 -1 -3 44.96 3.09
7 1 -3 41.02 3.5
7 1 -3 40.21 3.05
-7 1 3 41.57 3.54
7 1 -3 38.74 3.01
7 1 -3 36.08 3.28
7 1 -3 36.11 3.28
7 1 -3 39.32 3.15
-7 1 3 42.92 3.5
-7 1 3 44.3 3.34
6 -1 -3 22.13 1.93
-6 -1 3 27.44 2.18
-6 -1 3 26.69 2.2
-6 -1 3 22.12 2
6 -1 -3 21.26 1.86
-6 -1 3 24.56 2.11
6 -1 -3 21.48 1.84
6 -1 -3 23.17 2.04
6 1 -3 24.82 1.99
6 1 -3 28.52 2.14
-6 1 3 28.12 2.16
6 1 -3 23.88 2
6 1 -3 23.24 1.82
6 1 -3 27.37 2.09
-5 -1 3 50.88 4.14
-5 -1 3 46.46 3.94
-5 -1 3 53.18 4.29
-5 -1 3 54.78 4.24
5 1 -3 50.53 4.09
-5 1 3 52.47 3.97
5 1 -3 46.68 4.17
-5 1 3 44.2 4.21
5 1 -3 41.34 3.93
-5 1 3 50.45 4.23
-5 1 3 52.42 4.15
-4 -1 3 139.38 10.43
-4 -1 3 138.4 10.52
-4 -1 3 113.7 10.19
-4 -1 3 122.03 10.75
-4 1 3 119.43 10.4
-4 1 3 126.47 10.2
4 1 -3 123.46 10.3
4 1 -3 111.07 9.74
-4 1 3 112.31 10.47
4 1 -3 124.03 10.1
-3 -1 3 18.7 1.68
-3 -1 3 21.49 1.67
-3 -1 3 19.71 1.58
-3 -1 3 21.2 1.64
3 1 -3 20.25 1.45
3 1 -3 18.36 1.6
-3 1 3 17.55 1.62
-3 1 3 17.84 1.65
3 1 -3 16.3 1.5
3 1 -3 19.02 1.57
-3 1 3 16.05 1.61
-2 -1 3 190.57 15.81
-2 -1 3 175.99 15.24
-2 -1 3 182.96 16.16
-2 -1 3 167.03 15.56
-2 1 3 188.22 16.06
-2 1 3 196.95 14.65
-2 1 3 179.09 15.68
2 1 -3 186.88 14.59
2 1 -3 185.65 15.13
-2 1 3 171.67 14.52
2 1 -3 204.48 13.91
-2 1 3 183.86 14.51
2 1 -3 185.41 15.41
-1 -1 3 3.83 0.38
-1 -1 3 4.08 0.43
-1 -1 3 3.57 0.4
-1 -1 3 3.97 0.44
-1 1 3 4.39 0.39
1 1 -3 5.08 0.38
-1 1 3 4.44 0.39
-1 1 3 4.42 0.38
-1 1 3 4.47 0.37
1 1 -3 4.68 0.4
1 1 -3 4.98 0.41
-1 1 3 4.37 0.43
0 1 3 7.15 0.62
0 1 -3 8.2 0.59
0 1 -3 7.34 0.61
0 1 3 6.97 0.68
0 1 3 7.4 0.6
0 1 -3 6.87 0.63
-1 -1 -3 101.05 8.2
-1 -1 -3 88.01 7.85
1 -1 3 83.91 8.65
1 -1 3 101.58 7.85
1 -1 3 109.5 7.84
-1 1 -3 99.79 7.86
-1 1 -3 99.03 8.19
-1 1 -3 103.38 7.48
1 1 3 101.92 8.27
-1 1 -3 97.31 8.12
1 1 3 92.11 8.65
1 1 3 99.87 7.84
1 1 3 109.01 7.84
2 -1 3 30.99 2.17
2 -1 3 25.87 2.17
-2 -1 -3 28.36 2.27
-2 -1 -3 25.79 2.15
2 1 3 25.83 2.27
2 1 3 23.12 2.38
2 1 3 26.98 2.17
-2 1 -3 26.31 2.23
2 1 3 26.4 2.16
-2 1 -3 27.24 2.26
-2 1 -3 27.83 2.06
-2 1 -3 26.78 2.17
3 -1 3 78.17 7.54
-3 -1 -3 86.8 8.05
-3 -1 -3 87.78 7.89
3 1 3 100.3 7.55
-3 1 -3 97.9 7.56
3 1 3 91.7 8.31
-3 1 -3 102.17 7.19
3 1 3 92.23 7.5
3 1 3 101.74 7.53
3 1 3 101.06 7.95
-3 1 -3 97.48 7.88
3 1 3 100.52 7.59
-4 -1 -3 10.13 0.78
4 -1 3 10.49 0.82
4 -1 3 8.56 0.84
-4 1 -3 9.45 0.84
4 1 3 9.29 0.79
4 1 3 9.13 0.79
4 1 3 9.46 0.8
4 1 3 9.54 0.82
4 1 3 8.07 0.85
-4 1 -3 8.42 0.79
-4 1 -3 9.49 0.76
4 1 3 7.87 0.77
-5 -1 -3 35.65 3.25
5 -1 3 38.24 2.62
5 -1 3 43.72 3.3
5 -1 3 39.96 3.26
5 -1 3 35.22 2.83
-5 -1 -3 34.93 2.99
5 -1 3 36.85 2.77
5 -1 3 37.07 2.97
-5 -1 -3 41.4 3.45
-5 -1 -3 46.55 3.53
-5 1 -3 43.15 3.44
5 1 3 46.14 3.27
-5 1 -3 45.41 3.29
-5 1 -3 41.6 3.12
5 1 3 40.61 3.27
5 1 3 37.55 3.57
5 1 3 41.91 3.26
5 1 3 43.16 3.43
5 1 3 38.66 3.23
6 -1 3 14.89 1.49
6 -1 3 19.24 1.54
-6 -1 -3 17.5 1.64
6 -1 3 15.68 1.31
6 -1 3 16.57 1.28
-6 -1 -3 17.09 1.62
-6 -1 -3 15.81 1.42
6 -1 3 17.25 1.37
6 -1 3 17.32 1.21
-6 -1 -3 16.6 1.34
6 1 3 19.25 1.5
-6 1 -3 19.63 1.45
-6 1 -3 20.88 1.62
-6 1 -3 20.59 1.54
6 1 3 21.12 1.59
7 -1 3 1.38 0.18
-7 -1 -3 1.61 0.25
-7 -1 -3 1.38 0.28
7 -1 3 0.99 0.19
7 -1 3 1.6 0.2
-7 -1 -3 1.46 0.28
7 -1 3 1.39 0.24
-7 -1 -3 0.87 0.23
7 -1 3 1.2 0.17
-7 1 -3 1.04 0.2
7 1 3 0.9 0.18
7 1 3 1.34 0.19
7 1 3 1.09 0.2
7 1 3 1.09 0.17
-7 1 -3 1.5 0.27
-7 1 -3 1.56 0.25
-8 -1 -3 39.38 2.84
-8 -1 -3 35.82 3.46
-8 -1 -3 44.35 2.87
8 -1 3 37.9 3.28
8 -1 3 44.41 2.65
8 -1 3 40.96 2.98
8 -1 3 40.53 2.8
-8 -1 -3 44.91 3.03
-8 -1 -3 43.34 3.07
-8 1 -3 36.75 3.46
8 1 3 35.34 3.26
8 1 3 40.01 3
-8 1 -3 35.82 3.28
8 1 3 40.58 2.78
8 1 3 41.61 2.64
8 1 3 41.46 2.97
-9 -1 -3 0.27 0.13
9 -1 3 0.4 0.11
-9 -1 -3 0.32 0.16
9 -1 3 0.23 0.1
-9 -1 -3 0.32 0.16
-9 -1 -3 0.13 0.1
9 -1 3 0.27 0.11
9 1 3 0.13 0.08
9 1 3 0.19 0.08
9 1 3 0.13 0.08
9 1 3 0.18 0.08
-10 -1 -3 2.07 0.28
-10 -1 -3 2.14 0.31
10 -1 3 1.69 0.22
10 -1 3 1.9 0.21
10 -1 3 2.14 0.22
10 1 3 1.35 0.19
11 -1 3 4.67 0.34
-11 -1 -3 3.85 0.39
11 -1 3 3.86 0.35
11 -1 3 3.88 0.34
-11 -1 -3 4.03 0.37
11 1 3 4.33 0.32
-11 1 -3 4.25 0.4
-11 1 -3 3.73 0.35
-11 1 -3 3.26 0.33
11 1 3 4.3 0.36
12 -2 -3 15.15 1.12
-12 -2 3 14.86 1.16
12 -2 -3 13.5 1.13
-12 -2 3 13.34 1.04
12 -2 -3 13.8 0.98
12 2 -3 16.54 1.11
11 -2 -3 14.69 1.05
11 -2 -3 15.62 1.22
-11 -2 3 16.54 1.28
-11 -2 3 14.9 1.13
11 -2 -3 15.63 1.2
-11 -2 3 17.11 1.29
11 2 -3 15.7 1.2
11 2 -3 13.58 1.16
11 2 -3 14.18 1.21
10 -2 -3 12.86 0.97
10 -2 -3 9.39 0.85
-10 -2 3 13.31 1.06
-10 -2 3 12.55 1.06
-10 -2 3 12.18 0.93
10 -2 -3 11.33 0.98
10 -2 -3 12.71 0.85
10 -2 -3 12.95 0.99
10 2 -3 10.9 0.95
10 2 -3 9.95 0.9
10 2 -3 11.36 0.94
9 -2 -3 30.28 2.5
9 -2 -3 33.17 2.46
9 -2 -3 29.87 2.12
9 -2 -3 29.61 2.22
9 -2 -3 31.65 2.41
-9 -2 3 33.22 2.58
-9 -2 3 29.39 2.26
9 2 -3 34.17 2.41
9 2 -3 30.21 2.35
9 2 -3 34.28 2.48
-8 -2 3 11.63 1.16
8 -2 -3 14.89 1.1
-8 -2 3 12.72 1.22
8 -2 -3 14.57 1.11
8 -2 -3 11.11 0.94
-8 -2 3 13.77 1.07
8 -2 -3 14.09 1.05
8 -2 -3 13.76 0.93
-8 2 3 12.24 1.07
8 2 -3 11.94 1
-8 2 3 12.55 1.18
-8 2 3 12.58 1.12
8 2 -3 11.03 1.08
8 2 -3 12.13 1.17
8 2 -3 13.35 1.05
8 2 -3 11.49 0.97
7 -2 -3 20.07 1.6
7 -2 -3 21.01 1.87
-7 -2 3 25.89 2.03
-7 -2 3 19.67 1.91
7 -2 -3 21.26 1.71
-7 -2 3 20.92 2.02
7 -2 -3 21.88 1.76
7 -2 -3 23.03 1.81
7 -2 -3 20.22 1.58
7 -2 -3 19.55 1.5
7 2 -3 24.73 1.91
-7 2 3 24.19 1.96
7 2 -3 22.58 1.82
7 2 -3 24.26 1.97
6 -2 -3 37.64 3.16
6 -2 -3 39.21 3.21
6 -2 -3 42.34 3.12
6 -2 -3 38.27 3.42
-6 -2 3 43.58 3.54
-6 -2 3 48 3.7
6 -2 -3 37.67 2.94
6 -2 -3 35.27 2.6
6 -2 -3 37.42 3.48
6 -2 -3 41.59 2.9
6 -2 -3 42.75 3.41
6 -2 -3 39.68 3.27
6 -2 -3 37.3 2.8
6 -2 -3 42.9 2.76
6 2 -3 47.74 3.5
-6 2 3 44.79 3.6
6 2 -3 46.98 3.59
6 2 -3 41.78 3.37
-6 2 3 46.32 3.41
-6 2 3 44.29 3.56
-5 -2 3 46.81 3.65
5 -2 -3 38.09 3.26
5 -2 -3 38.48 3.4
5 -2 -3 42.53 3.12
5 -2 -3 42.5 3.18
-5 -2 3 44.83 3.7
5 -2 -3 36.88 2.74
5 -2 -3 38.85 2.89
5 -2 -3 38.44 2.94
5 -2 -3 37.78 3
5 -2 -3 43.49 3.17
-5 -2 3 40.17 3.53
-5 2 3 45.61 3.4
5 2 -3 42.16 3.36
5 2 -3 46.12 3.5
5 2 -3 45.35 3.58
5 2 -3 42.46 3.36
-5 2 3 40.58 3.59
-5 2 3 45.78 3.55
-4 -2 3 69.51 5.54
-4 -2 3 52.67 5.43
4 2 -3 70.39 5.38
4 2 -3 61.77 4.83
-4 2 3 60.8 5.44
-4 2 3 57.96 5.31
-4 2 3 65.96 5.41
-4 2 3 65.19 5.1
4 2 -3 62.43 5.07
4 2 -3 70.22 5.27
-3 -2 3 108.27 8.74
-3 -2 3 84.44 8.42
-3 -2 3 109.28 8.55
-3 2 3 87.42 8.67
-3 2 3 86.29 7.83
-3 2 3 102 8.25
-3 2 3 93.46 8.4
-3 2 3 89.82 7.91
3 2 -3 111.32 8.17
3 2 -3 111.43 8.34
3 2 -3 107.02 7.52
-3 2 3 96.07 8.47
3 2 -3 106.56 7.89
-2 -2 3 55.66 5.63
-2 -2 3 54.74 5.5
2 2 -3 69.69 5.38
2 2 -3 70.41 5.27
2 2 -3 68.05 4.84
-1 -2 3 11.15 1.01
-1 2 3 11.85 1
-1 2 3 10.6 0.95
1 2 -3 12.51 0.92
1 2 -3 11.82 1
1 2 -3 12.5 1.03
1 2 -3 10.97 0.94
0 -2 3 16.39 1.54
0 2 3 17.47 1.42
0 2 -3 16.51 1.41
0 2 3 19.34 1.44
0 2 -3 18.48 1.36
0 2 -3 18.47 1.52
0 2 3 16.36 1.45
0 2 3 17.07 1.49
0 2 -3 17.76 1.48
1 -2 3 74.73 5.98
1 2 3 69.88 6.28
1 2 3 78.66 5.96
-1 2 -3 73.26 5.97
-1 2 -3 78.63 5.69
1 2 3 74.82 5.96
-1 2 -3 74.75 6.18
2 -2 3 23.57 1.81
-2 -2 -3 20.95 1.75
2 -2 3 18.06 1.96
-2 -2 -3 21.62 1.85
-2 2 -3 23.38 1.85
2 2 3 22.84 1.77
-2 2 -3 19.8 1.83
-2 2 -3 23.11 1.7
-2 2 -3 22.02 1.78
2 2 3 21.68 1.86
2 2 3 23.23 1.79
-3 -2 -3 44.24 3.59
-3 -2 -3 41.64 3.49
3 -2 3 37.04 3.67
3 2 3 39.43 3.51
-3 2 -3 43.82 3.47
-3 2 -3 44.4 3.2
3 2 3 41.7 3.35
-3 2 -3 41.68 3.35
-3 2 -3 39.27 3.47
3 2 3 41.58 3.34
-4 -2 -3 35.09 2.31
4 -2 3 35.2 2.29
-4 -2 -3 30.99 2.33
4 -2 3 33.26 2.17
-4 -2 -3 38.24 2.82
-4 -2 -3 38.81 2.47
4 -2 3 34.78 2.7
4 -2 3 36.6 2.36
4 -2 3 33.49 2.26
-4 -2 -3 36.23 2.49
4 2 3 29.27 2.8
-4 2 -3 29.55 2.67
4 2 3 30.23 2.67
-4 2 -3 32.54 2.78
-4 2 -3 29.08 2.78
4 2 3 30.37 2.68
4 2 3 29.86 2.95
-4 2 -3 30.87 2.55
-5 -2 -3 99.3 7.42
-5 -2 -3 105.28 7.02
5 -2 3 104.23 8.24
-5 -2 -3 106.05 7.53
5 -2 3 106.13 7.18
-5 -2 -3 102.16 8.63
5 -2 3 106.2 6.66
5 -2 3 113.21 7.03
5 -2 3 93.92 6.88
-5 -2 -3 105.57 8.83
5 2 3 107.93 8.25
-5 2 -3 101.93 8.61
5 2 3 97.26 8.28
5 2 3 101.46 9.08
-5 2 -3 105.21 7.87
5 2 3 97.05 8.22
5 2 3 101.85 8.69
5 2 3 98.92 8.2
-5 2 -3 108.55 8.27
-6 -2 -3 24.84 1.8
6 -2 3 24.99 1.79
6 -2 3 25.63 1.86
6 -2 3 26.99 1.75
6 -2 3 23.35 2.03
-6 -2 -3 22.13 1.78
-6 -2 -3 24.87 2.21
-6 -2 -3 22.69 1.91
6 -2 3 27.52 1.66
-6 -2 -3 24.14 2.15
-6 -2 -3 26.56 1.96
6 -2 3 23.73 1.71
-6 2 -3 25.34 2.13
6 2 3 26.47 2.03
-6 2 -3 25.47 2.13
6 2 3 20.38 2.01
-6 2 -3 23.33 1.94
6 2 3 23.94 2.12
6 2 3 22.22 2.2
-6 2 -3 29.01 2.07
6 2 3 22.22 2.01
6 2 3 21.73 1.99
-7 -2 -3 25.07 1.76
7 -2 3 25.92 1.61
7 -2 3 26 1.81
-7 -2 -3 22.01 2.09
-7 -2 -3 25.76 1.91
7 -2 3 26.12 1.7
-7 -2 -3 26.73 1.9
7 -2 3 24.14 1.73
-7 -2 -3 23.42 1.74
-7 2 -3 18.86 2.05
-7 2 -3 21.08 2.04
-7 2 -3 23.52 1.99
-7 2 -3 19.99 1.87
7 2 3 22.89 1.95
-8 -2 -3 16.17 1.21
-8 -2 -3 15.61 1.3
8 -2 3 16.13 1.14
-8 -2 -3 15.38 1.29
8 -2 3 14.86 1.16
8 -2 3 15.51 1.19
8 2 3 13.01 1.17
9 -2 3 23.57 1.91
9 -2 3 22.33 1.78
-9 -2 -3 23.46 1.94
-9 -2 -3 23.28 1.97
-9 -2 -3 26.95 1.88
9 2 3 27.09 1.92
9 2 3 29.27 1.69
-10 -2 -3 3.67 0.36
-10 -2 -3 3.55 0.37
10 -2 3 3.21 0.3
-10 -2 -3 3.52 0.38
10 -2 3 2.95 0.31
10 -2 3 3.34 0.28
10 2 3 2.49 0.26
10 2 3 3.11 0.29
10 2 3 2.42 0.27
11 -2 3 1.59 0.17
-11 -2 -3 1.52 0.2
11 2 3 1.66 0.17
-11 2 -3 1.49 0.21
11 -3 -3 14.05 1.04
-11 -3 3 14.6 1.11
11 -3 -3 12.62 1.05
-11 -3 3 13.06 1.1
11 -3 -3 13.04 0.91
-11 -3 3 11.19 0.96
11 3 -3 11.73 1
11 3 -3 15.08 1.04
11 3 -3 13.96 1.06
10 -3 -3 2.34 0.25
10 -3 -3 2.16 0.24
-10 -3 3 2.97 0.37
-10 -3 3 3 0.43
10 -3 -3 2.58 0.31
10 -3 -3 2.46 0.29
-10 -3 3 2.34 0.3
10 3 -3 1.89 0.24
10 3 -3 1.77 0.24
10 3 -3 1.64 0.21
-9 -3 3 18.35 1.47
9 -3 -3 17.12 1.37
9 -3 -3 16.7 1.33
-9 -3 3 18.15 1.47
9 -3 -3 15.04 1.2
9 -3 -3 14.9 1.36
9 -3 -3 16.86 1.17
-9 -3 3 14.73 1.25
9 3 -3 17.38 1.34
9 3 -3 17.62 1.3
9 3 -3 14.83 1.25
8 -3 -3 5.66 0.5
8 -3 -3 5.41 0.5
-8 -3 3 6.22 0.62
-8 -3 3 5.43 0.69
-8 -3 3 4.53 0.54
8 -3 -3 5.17 0.56
8 -3 -3 6.02 0.62
-8 -3 3 6.36 0.7
8 -3 -3 5.22 0.49
8 -3 -3 5.37 0.58
8 3 -3 6.54 0.6
8 3 -3 6.21 0.49
7 -3 -3 19.34 1.31
7 -3 -3 22.6 1.8
-7 -3 3 23.56 1.83
7 -3 -3 19.51 1.42
-7 -3 3 21.18 1.89
7 -3 -3 19.78 1.75
7 -3 -3 22.62 1.72
7 -3 -3 21.2 1.51
7 -3 -3 18.93 1.67
-7 -3 3 15.78 1.68
-7 -3 3 24.35 1.68
7 -3 -3 22.12 1.49
7 -3 -3 21.68 1.44
7 3 -3 18.67 1.76
7 3 -3 18.8 1.71
-7 3 3 19.6 1.66
7 3 -3 19.38 1.83
-7 3 3 19.52 1.72
6 -3 -3 91.98 6.36
-6 -3 3 107.56 6.86
-6 -3 3 107.15 8.3
6 -3 -3 98.41 6.2
6 -3 -3 93.43 6.52
6 -3 -3 101.38 7.68
6 -3 -3 97.54 6.64
6 -3 -3 88.64 7.34
6 -3 -3 92.45 7.7
-6 -3 3 90.95 8.17
6 -3 -3 98.56 7.14
6 -3 -3 92.03 5.87
6 -3 -3 101.51 7.25
6 -3 -3 92.54 6.4
6 -3 -3 99.7 7.03
-6 -3 3 80.78 7.01
-6 -3 3 87.55 7.35
6 3 -3 99.2 8.08
6 3 -3 97.73 7.89
-6 3 3 96.57 7.65
-6 3 3 84.65 7.96
6 3 -3 95.49 7.62
-6 3 3 99.36 7.31
5 -3 -3 49.19 3.57
5 -3 -3 52.44 4.06
5 -3 -3 55.05 4.35
5 -3 -3 49.38 4.3
5 -3 -3 57.61 4
-5 -3 3 55.74 4.66
5 -3 -3 55.16 4.01
-5 -3 3 47.71 3.61
5 -3 -3 50.34 4.11
5 -3 -3 50.51 3.55
5 -3 -3 51.99 4.07
5 -3 -3 52.25 3.64
-5 -3 3 46.97 3.84
5 -3 -3 59.25 3.94
5 -3 -3 53.66 3.46
-5 -3 3 53.74 3.96
5 -3 -3 51.92 3.71
5 -3 -3 53.6 3.77
-5 -3 3 49.21 4.13
5 -3 -3 51.51 3.28
5 -3 -3 52.08 4.41
-5 3 3 53.72 4.26
5 3 -3 48.51 4.23
5 3 -3 58.72 4.4
-5 3 3 47.37 4.43
-5 3 3 52.72 4.07
5 3 -3 59.58 4.51
5 3 -3 54.35 4.24
4 -3 -3 37.48 3.03
4 -3 -3 39.76 2.73
4 -3 -3 35.41 2.31
4 -3 -3 39.57 2.55
4 -3 -3 34.92 3.05
4 -3 -3 34.4 2.59
4 -3 -3 38.48 2.65
4 -3 -3 39.19 2.7
4 -3 -3 35.57 2.49
-4 -3 3 33.12 2.54
4 -3 -3 37.93 2.6
4 -3 -3 34.91 2.5
4 -3 -3 38.62 2.88
-4 -3 3 33.84 2.74
4 -3 -3 38.71 2.74
-4 -3 3 35.78 2.71
4 -3 -3 37.72 2.84
-4 -3 3 40.16 3.28
4 -3 -3 39.03 2.8
-4 -3 3 31.3 3.17
-4 -3 3 34.34 2.89
4 -3 -3 36.76 3.11
4 -3 -3 37.41 2.55
4 -3 -3 36.87 2.88
-4 3 3 35 2.84
4 3 -3 37.31 3.13
4 3 -3 36.55 2.96
-4 3 3 35.16 2.97
-4 3 3 33.47 3.08
4 3 -3 38.63 3.06
3 -3 -3 85.92 5.4
3 -3 -3 80.94 5.94
-3 -3 3 77.61 5.65
3 -3 -3 75.79 5.41
3 -3 -3 76.88 5.48
3 -3 -3 82.58 5.89
3 -3 -3 80.15 5.52
-3 -3 3 71.75 5.36
-3 -3 3 72.47 6.05
-3 -3 3 74.91 6.87
3 -3 -3 77.76 6.43
3 -3 -3 78.54 6.09
3 -3 -3 76.42 6.55
3 -3 -3 82.17 5.7
3 -3 -3 73.39 5.8
3 -3 -3 82.23 6.37
3 -3 -3 77.94 5.13
3 -3 -3 84.78 5.78
3 -3 -3 78.42 4.9
3 -3 -3 77.92 5.33
3 -3 -3 75.76 5.3
3 -3 -3 80.25 6.03
-3 -3 3 69.05 6.75
-3 3 3 82.3 6.79
3 3 -3 83.07 6.02
-3 3 3 85.44 6.05
-3 3 3 78.95 6.34
3 3 -3 92.86 6.72
3 3 -3 90.3 6.35
-3 3 3 73.87 6.73
-3 3 3 80.35 6.61
-2 -3 3 148.7 13.24
2 -3 -3 156.53 10.66
2 -3 -3 161.56 12.26
2 -3 -3 152.86 10.58
2 -3 -3 149.52 11.36
2 -3 -3 142.11 11.23
2 -3 -3 147.93 10.29
2 -3 -3 152.83 11.64
2 -3 -3 163.7 11.13
2 -3 -3 152.34 11.75
-2 -3 3 144.31 10.83
2 -3 -3 152.65 12.63
2 -3 -3 150.68 10.46
2 -3 -3 154.86 11.63
2 -3 -3 160.16 10.97
2 -3 -3 150.6 12.38
-2 -3 3 150.07 10.33
2 -3 -3 156.37 10.81
2 -3 -3 154.38 10.4
2 -3 -3 151.7 9.9
2 -3 -3 145.94 10.24
2 -3 -3 150.99 9.47
2 -3 -3 158.08 11.43
2 3 -3 166.91 12.29
-2 3 3 153.29 12.29
-2 3 3 144.15 12.96
-2 3 3 163.09 12.7
2 3 -3 155.35 11.68
2 3 -3 164.49 12.98
2 3 -3 175.62 12.72
-2 3 3 163.76 11.69
-1 -3 3 0.84 0.19
1 -3 -3 0.61 0.14
1 -3 -3 0.55 0.15
1 -3 -3 0.9 0.14
1 -3 -3 0.75 0.16
1 -3 -3 1.01 0.16
-1 -3 3 0.89 0.22
-1 -3 3 0.47 0.12
1 -3 -3 0.77 0.17
1 -3 -3 0.67 0.15
1 -3 -3 0.79 0.13
1 -3 -3 0.78 0.19
0 -3 3 29.49 2.57
0 -3 -3 27.25 2.3
0 -3 -3 29.14 2.21
0 -3 -3 33.29 1.94
0 -3 -3 28.98 2.32
0 -3 -3 31.29 2.06
0 -3 3 30.01 2.69
0 -3 -3 30.4 2.22
0 -3 3 28.81 1.89
0 3 3 25.06 2.43
0 3 3 29.54 2.38
0 3 -3 30 2.53
0 3 3 27.53 2.5
0 3 -3 26.81 2.35
0 3 -3 29.78 2.27
0 3 3 32.24 2.41
0 3 -3 31.2 2.48
-1 -3 -3 4.95 0.49
1 -3 3 5.46 0.58
-1 -3 -3 5.16 0.48
-1 -3 -3 5.1 0.44
1 -3 3 4.91 0.45
-1 -3 -3 5.38 0.49
1 -3 3 5.22 0.42
1 -3 3 4.91 0.44
1 3 3 5.33 0.5
1 3 3 4.98 0.47
-1 3 -3 5.4 0.5
-1 3 -3 5.17 0.45
1 3 3 5.29 0.48
-1 3 -3 4.8 0.45
2 -3 3 2.77 0.34
-2 -3 -3 2.29 0.31
-2 -3 -3 2.09 0.28
2 -3 3 2.63 0.27
-2 -3 -3 1.99 0.26
2 -3 3 2.3 0.25
2 -3 3 2.39 0.28
2 -3 3 2.3 0.26
-2 -3 -3 2.29 0.27
-2 -3 -3 2.19 0.29
-2 -3 -3 2.05 0.29
2 -3 3 2.05 0.27
2 3 3 2.78 0.27
2 3 3 3.18 0.28
-2 3 -3 2.79 0.29
2 3 3 2.71 0.3
-2 3 -3 2.8 0.26
-2 3 -3 2.93 0.27
-3 -3 -3 24.46 1.85
3 -3 3 23.81 1.59
-3 -3 -3 22.98 1.88
3 -3 3 20.62 1.68
-3 -3 -3 23.12 1.95
3 -3 3 22.49 1.71
3 -3 3 24.28 1.62
-3 -3 -3 23.34 1.73
3 -3 3 23.29 1.78
3 -3 3 22.37 1.72
-3 -3 -3 20.64 1.75
-3 3 -3 27.84 1.93
3 3 3 26.68 2.02
3 3 3 25.61 1.99
-3 3 -3 25.94 2
3 3 3 25.94 2.09
-3 3 -3 27.2 2.09
4 -3 3 13 1.12
4 -3 3 14.43 1.06
-4 -3 -3 12.77 1.33
-4 -3 -3 14.86 1.24
-4 -3 -3 14.33 1.26
-4 -3 -3 15.61 1.17
4 -3 3 16.04 1.18
-4 -3 -3 15.63 1.3
4 -3 3 14.86 1.12
4 -3 3 14.04 1.03
-4 3 -3 15.16 1.25
-4 3 -3 16.44 1.36
-4 3 -3 17.17 1.31
4 3 3 16.54 1.33
4 3 3 14.92 1.35
4 3 3 16.69 1.3
-5 -3 -3 7.84 0.71
5 -3 3 6.49 0.56
-5 -3 -3 6.75 0.67
-5 -3 -3 6.97 0.69
5 -3 3 6.34 0.52
5 -3 3 6.01 0.53
5 -3 3 7.68 0.6
5 -3 3 7.66 0.58
-5 -3 -3 5.13 0.64
-5 -3 -3 6.98 0.62
-5 3 -3 6.36 0.66
5 3 3 6.77 0.64
5 3 3 7.16 0.72
-5 3 -3 6.57 0.61
-5 3 -3 6.18 0.63
5 3 3 5.65 0.63
5 3 3 6.68 0.65
6 -3 3 15.71 1.04
6 -3 3 12.45 1.07
6 -3 3 13.29 0.97
-6 -3 -3 16.28 1.21
-6 -3 -3 14.33 1.08
-6 -3 -3 14.19 1.15
6 -3 3 15.17 0.97
-6 -3 -3 10.21 1.19
-6 -3 -3 9.84 1.09
-6 3 -3 12.88 1.18
-6 3 -3 12.94 1.13
6 3 3 11.46 1.1
6 3 3 12.15 1.13
6 3 3 10.34 1.11
6 3 3 14.96 1.14
6 3 3 11.59 1.15
-6 3 -3 13.75 1.09
6 3 3 10.82 1.21
-7 -3 -3 11.2 1.09
7 -3 3 12.47 0.91
-7 -3 -3 12.47 1.13
7 -3 3 13.62 0.96
7 -3 3 11.23 0.91
7 -3 3 11.99 1
-7 -3 -3 13.07 1.05
7 -3 3 11.61 0.97
-8 -3 -3 2.18 0.36
8 -3 3 1.91 0.27
8 -3 3 1.68 0.27
8 -3 3 2.22 0.28
-8 -3 -3 1.9 0.36
-8 -3 -3 2.69 0.43
8 -3 3 2.24 0.26
9 -3 3 5.97 0.5
-9 -3 -3 6.1 0.59
-9 -3 -3 6.52 0.57
-9 -3 -3 6.9 0.62
9 -3 3 6.44 0.51
9 -3 3 6.61 0.49
9 3 3 5.65 0.51
9 3 3 5.77 0.51
9 3 3 5.53 0.44
-10 -3 -3 5.29 0.42
-10 -3 -3 4.17 0.42
10 -3 3 4.26 0.36
-10 -3 -3 3.65 0.4
10 -3 3 4.66 0.35
10 3 3 5.1 0.38
10 3 3 4.13 0.33
10 3 3 4.17 0.37
10 -4 -3 3.47 0.38
10 -4 -3 3.93 0.33
-10 -4 3 4.2 0.46
10 -4 -3 4.13 0.38
10 -4 -3 3.93 0.33
-10 -4 3 4.19 0.44
10 4 -3 3.81 0.36
10 4 -3 3.78 0.35
-9 -4 3 6.85 0.68
9 -4 -3 5.72 0.56
9 -4 -3 5.63 0.48
9 -4 -3 4.83 0.47
-9 -4 3 7.07 0.67
9 -4 -3 5.77 0.55
9 -4 -3 5.8 0.48
9 4 -3 6.2 0.54
9 4 -3 5.77 0.51
8 -4 -3 2.76 0.32
8 -4 -3 2.95 0.38
-8 -4 3 3.82 0.49
-8 -4 3 2.88 0.51
8 -4 -3 3.05 0.32
8 -4 -3 3.46 0.42
8 -4 -3 2.98 0.38
-8 -4 3 3.49 0.54
8 -4 -3 2.92 0.29
8 -4 -3 3.12 0.31
8 4 -3 2.43 0.36
7 -4 -3 14.46 1.07
7 -4 -3 12.59 1.2
-7 -4 3 14.26 1.34
7 -4 -3 13.77 1.06
7 -4 -3 15.97 1.25
7 -4 -3 13.04 0.93
7 -4 -3 12.77 1.16
7 -4 -3 13.39 1
7 -4 -3 13.78 1.27
-7 -4 3 15.46 1.23
7 -4 -3 13.46 1.03
6 -4 -3 6.83 0.68
6 -4 -3 6.3 0.56
6 -4 -3 6.66 0.65
6 -4 -3 6.77 0.54
6 -4 -3 6.07 0.67
6 -4 -3 7 0.58
-6 -4 3 6.41 0.76
-6 -4 3 5.91 0.71
6 -4 -3 6.69 0.73
6 -4 -3 6.64 0.56
6 -4 -3 7.38 0.72
6 -4 -3 6.57 0.63
6 -4 -3 7.05 0.58
6 -4 -3 6.62 0.51
-6 -4 3 7.09 0.72
6 4 -3 6.42 0.67
6 4 -3 5.43 0.62
6 4 -3 6.12 0.62
-6 4 3 6.37 0.71
-6 4 3 5.78 0.63
5 -4 -3 21.72 1.43
-5 -4 3 20.4 1.5
5 -4 -3 19.67 1.46
5 -4 -3 18.96 1.8
-5 -4 3 18.47 1.65
5 -4 -3 20.99 1.44
5 -4 -3 20.86 1.56
5 -4 -3 21.26 1.66
-5 -4 3 18.38 1.65
-5 -4 3 19.67 1.77
5 -4 -3 20.37 1.66
5 -4 -3 22.56 1.63
5 -4 -3 19.7 1.48
5 -4 -3 21.01 1.7
5 -4 -3 19.39 1.34
5 -4 -3 20.79 1.81
5 -4 -3 19.31 1.5
5 -4 -3 20.98 1.72
-5 4 3 21.25 1.82
5 4 -3 20.79 1.69
5 4 -3 19.88 1.74
-5 4 3 19.34 1.65
5 4 -3 21.09 1.81
5 4 -3 16.64 1.69
4 -4 -3 5.19 0.53
4 -4 -3 4.54 0.44
4 -4 -3 4.78 0.53
4 -4 -3 4.73 0.43
4 -4 -3 5.11 0.49
4 -4 -3 4.37 0.54
-4 -4 3 4.35 0.54
4 -4 -3 4.33 0.48
-4 -4 3 4.16 0.5
4 -4 -3 4.59 0.43
4 -4 -3 5.22 0.42
-4 -4 3 4.41 0.54
4 -4 -3 4.47 0.44
4 -4 -3 4.77 0.57
-4 -4 3 4.49 0.48
4 -4 -3 4.6 0.45
4 -4 -3 5 0.47
4 -4 -3 4.24 0.55
4 -4 -3 4.95 0.5
4 -4 -3 4.93 0.51
4 -4 -3 4.51 0.57
3 -4 -3 16.67 1.33
-3 -4 3 13.48 1.51
3 -4 -3 15.55 1.24
3 -4 -3 17.18 1.28
3 -4 -3 17.28 1.3
3 -4 -3 16.05 1.2
3 -4 -3 15.8 1.19
3 -4 -3 16.91 1.11
3 -4 -3 17.01 1.1
3 -4 -3 16.32 1.35
-3 -4 3 14.17 1.21
-3 -4 3 13.45 1.27
3 -4 -3 14.86 1.15
-3 -4 3 15.04 1.36
3 -4 -3 15.18 1.45
3 -4 -3 16.64 1.46
3 -4 -3 17.31 1.27
-3 -4 3 15.54 1.11
3 -4 -3 15.38 1.21
3 -4 -3 17.83 1.51
3 -4 -3 18.2 1.17
3 -4 -3 15.6 1.17
3 -4 -3 17.99 1.37
3 -4 -3 16.88 1.41
-3 -4 3 16.36 1.32
3 -4 -3 17.15 1.31
3 4 -3 14.92 1.34
-3 4 3 15.11 1.35
3 4 -3 15.7 1.43
-3 4 3 15.1 1.39
3 4 -3 15.09 1.38
-3 4 3 15.14 1.43
2 -4 -3 63.97 3.97
2 -4 -3 67.07 4.83
2 -4 -3 65.9 4.53
2 -4 -3 64.32 4.35
2 -4 -3 63.79 4.67
2 -4 -3 63.48 4.27
2 -4 -3 63.59 4.12
2 -4 -3 65.65 4.67
-2 -4 3 58.74 4.88
2 -4 -3 60.42 4.91
2 -4 -3 69.87 4.76
2 -4 -3 64.06 4.44
2 -4 -3 62.22 4.43
-2 -4 3 59.87 4
2 -4 -3 65.06 5.33
2 -4 -3 65.6 4.92
-2 -4 3 52.55 4.63
-2 -4 3 65.19 4.59
2 -4 -3 69.34 5.17
-2 -4 3 65.12 4.37
2 -4 -3 66.43 5.22
2 -4 -3 65.11 4.88
2 -4 -3 66.03 4.61
2 -4 -3 67 4.35
-2 4 3 62.76 5.1
-2 4 3 57.01 5.37
2 4 -3 64.32 5.4
2 4 -3 60.4 5.1
-2 4 3 55.07 5.25
2 4 -3 66.17 5.28
-1 -4 3 10.88 0.92
1 -4 -3 10.23 1.05
1 -4 -3 11.76 0.91
1 -4 -3 10.97 0.94
1 -4 -3 11.48 0.84
1 -4 -3 10.22 0.79
1 -4 -3 10.32 0.86
1 -4 -3 10.75 0.9
-1 -4 3 10.94 0.84
1 -4 -3 11.57 0.98
1 -4 -3 11.8 0.93
-1 -4 3 10.58 0.87
1 -4 -3 11.32 0.76
1 -4 -3 12.05 1.04
1 -4 -3 10.73 0.94
1 -4 -3 11.89 1.02
1 -4 -3 10.8 0.84
1 -4 -3 11.86 0.9
1 -4 -3 10.71 0.99
1 -4 -3 11.29 0.83
-1 -4 3 9.92 0.94
1 -4 -3 10.08 0.85
1 -4 -3 10.84 0.8
-1 -4 3 9.99 0.81
1 4 -3 10.88 0.97
1 4 -3 10.09 0.87
-1 4 3 10.14 0.98
1 4 -3 10.81 1
-1 4 3 10.02 0.93
0 -4 -3 12.22 0.97
0 -4 3 10.36 0.96
0 -4 3 11.43 0.87
0 -4 3 11 0.89
0 -4 -3 13.3 0.95
0 -4 3 11.41 0.86
0 -4 -3 11.78 0.88
0 -4 -3 10.77 0.99
0 -4 -3 11.65 0.82
0 -4 3 12.22 0.9
0 -4 -3 10.41 1.08
0 -4 -3 11.55 0.95
0 -4 -3 11.76 0.8
0 -4 -3 11.57 0.88
0 -4 -3 11.62 1.01
0 -4 -3 11.47 0.85
0 -4 3 11.14 0.93
0 -4 -3 11.13 0.82
0 -4 -3 11.76 0.9
0 -4 -3 11.65 0.99
0 4 -3 9.67 0.91
0 4 -3 11.5 1.05
0 4 3 11.89 1.03
0 4 3 10.41 1.02
0 4 3 11.44 0.98
0 4 -3 11.76 1.02
-1 -4 -3 26.9 1.96
-1 -4 -3 28.13 2.04
-1 -4 -3 31.43 2.17
-1 -4 -3 27.68 1.84
-1 -4 -3 29.47 2.07
-1 -4 -3 31.07 2.33
-1 -4 -3 27.2 2.49
-1 -4 -3 30.67 2.24
-1 -4 -3 27.63 2.09
-1 -4 -3 29.01 2.18
1 -4 3 26.97 2.14
1 -4 3 30.84 2.12
-1 -4 -3 28.24 2.29
1 -4 3 32.56 1.94
-1 -4 -3 26.09 2.27
-1 -4 -3 28 2.03
1 -4 3 28.52 2.05
1 -4 3 29.61 2.06
1 4 3 31.55 2.42
-1 4 -3 28.23 2.26
1 4 3 28.05 2.37
-1 4 -3 29.58 2.53
1 4 3 27.55 2.48
-1 4 -3 32.2 2.48
-2 -4 -3 5.44 0.53
-2 -4 -3 5.2 0.52
2 -4 3 4.7 0.44
2 -4 3 5.14 0.42
2 -4 3 4.88 0.47
-2 -4 -3 4.41 0.45
2 -4 3 4.97 0.44
-2 -4 -3 4.36 0.41
2 -4 3 4.32 0.45
-2 -4 -3 4.22 0.47
-2 -4 -3 4.87 0.49
2 -4 3 4.59 0.46
-2 -4 -3 4.94 0.45
2 4 3 4.88 0.46
2 4 3 4.31 0.46
-2 4 -3 4.6 0.52
-2 4 -3 4.8 0.5
-2 4 -3 4.32 0.44
2 4 3 4.84 0.5
-3 -4 -3 1.93 0.34
-3 -4 -3 1.72 0.28
-3 -4 -3 2.06 0.37
3 -4 3 1.56 0.29
-3 -4 -3 1.44 0.27
3 -4 3 1.92 0.28
-3 -4 -3 2.22 0.38
-3 -4 -3 1.84 0.32
3 -4 3 1.55 0.26
3 -4 3 2.02 0.28
3 -4 3 1.85 0.28
-3 4 -3 1.88 0.25
-3 4 -3 2.13 0.28
3 4 3 1.62 0.23
-3 4 -3 2.09 0.31
3 4 3 1.97 0.28
3 4 3 2.25 0.25
-4 -4 -3 1.13 0.27
4 -4 3 0.69 0.17
4 -4 3 0.7 0.17
-4 -4 -3 1.14 0.23
4 -4 3 0.7 0.19
4 -4 3 0.81 0.22
4 -4 3 0.75 0.18
4 -4 3 1.13 0.19
-4 -4 -3 0.97 0.26
-4 -4 -3 1.23 0.31
-4 4 -3 0.72 0.17
4 4 3 0.73 0.16
-4 4 -3 0.56 0.17
4 4 3 0.75 0.21
5 -4 3 12.18 0.91
5 -4 3 13.84 1.03
-5 -4 -3 14.4 1.2
5 -4 3 13.32 1
5 -4 3 15.1 1.08
-5 -4 -3 13.09 1.17
5 -4 3 13.04 0.96
-5 -4 -3 13.04 1.08
-5 -4 -3 11.43 1.12
5 4 3 11.01 1.17
5 4 3 12.64 1.3
6 -4 3 0 0.09
-6 -4 -3 0.18 0.17
6 -4 3 0.33 0.12
-6 -4 -3 0.37 0.2
-6 -4 -3 0.22 0.15
6 -4 3 0.18 0.12
-6 -4 -3 0.23 0.15
6 -4 3 0.25 0.13
6 -4 3 0.33 0.14
7 -4 3 5.74 0.52
-7 -4 -3 6.23 0.66
7 -4 3 6.29 0.51
7 -4 3 5.35 0.48
7 -4 3 5.99 0.52
-7 -4 -3 5.33 0.58
-7 -4 -3 5.56 0.61
8 -4 3 7.19 0.61
-8 -4 -3 6.74 0.68
8 -4 3 7.46 0.58
-8 -4 -3 8.23 0.75
-8 -4 -3 8.31 0.68
8 -4 3 7.93 0.61
9 -4 3 7.08 0.55
-9 -4 -3 7.88 0.61
9 -4 3 6.7 0.52
9 -4 3 6.18 0.55
-9 -4 -3 7.38 0.65
9 4 3 8.3 0.58
-9 -5 3 7.61 0.67
9 -5 -3 8.17 0.61
9 -5 -3 6.72 0.54
9 -5 -3 7.69 0.54
9 -5 -3 7.42 0.54
9 5 -3 7.19 0.6
9 5 -3 6.52 0.58
-8 -5 3 8.29 0.75
-8 -5 3 8.77 0.85
8 -5 -3 9.06 0.7
8 -5 -3 10.05 0.78
8 -5 -3 9.09 0.69
8 -5 -3 9.81 0.7
-8 -5 3 11.03 0.91
8 -5 -3 9.23 0.79
8 -5 -3 8.53 0.66
8 5 -3 8.31 0.8
8 5 -3 9.31 0.73
7 -5 -3 6.52 0.56
7 -5 -3 6.76 0.53
7 -5 -3 7.47 0.56
-7 -5 3 4.58 0.67
-7 -5 3 7.18 0.76
7 -5 -3 6.37 0.49
7 -5 -3 6.72 0.66
7 -5 -3 6.36 0.63
-7 -5 3 7.35 0.66
7 -5 -3 7.02 0.56
6 -5 -3 5.11 0.43
-6 -5 3 5.47 0.59
6 -5 -3 5.1 0.53
6 -5 -3 4.92 0.55
-6 -5 3 4.21 0.63
6 -5 -3 4.54 0.44
6 -5 -3 5.2 0.41
6 -5 -3 5.47 0.47
6 -5 -3 4.44 0.54
6 -5 -3 5.14 0.46
6 -5 -3 5.17 0.47
-6 -5 3 3.33 0.6
-5 -5 3 25.83 1.82
5 -5 -3 28.68 1.98
5 -5 -3 24.36 1.84
5 -5 -3 23.99 1.64
5 -5 -3 26.86 1.74
5 -5 -3 26.71 1.81
-5 -5 3 22.74 2.12
5 -5 -3 24.67 2.08
5 -5 -3 24.14 1.79
5 -5 -3 26.67 2.04
5 -5 -3 24.26 2.02
5 -5 -3 25.78 1.76
5 -5 -3 24.66 1.89
-5 -5 3 22.04 1.99
-5 -5 3 22.75 1.99
-4 -5 3 16.47 1.55
4 -5 -3 21.74 1.67
4 -5 -3 20.48 1.6
4 -5 -3 19.03 1.3
4 -5 -3 18.26 1.42
4 -5 -3 19.22 1.42
4 -5 -3 19.02 1.45
4 -5 -3 18.4 1.49
-4 -5 3 18.85 1.47
4 -5 -3 20.03 1.42
4 -5 -3 18.06 1.59
-4 -5 3 20.04 1.69
-4 -5 3 16.98 1.59
4 -5 -3 19.1 1.55
4 -5 -3 21.03 1.37
4 -5 -3 19.08 1.39
4 -5 -3 21.95 1.56
3 -5 -3 29.42 2.24
3 -5 -3 29.27 2.2
3 -5 -3 30.72 2.1
3 -5 -3 31.58 1.97
3 -5 -3 31.99 2.19
-3 -5 3 29.75 2.34
-3 -5 3 24.14 2.28
3 -5 -3 31.82 2.37
-3 -5 3 28.45 2.45
3 -5 -3 28.01 2.28
3 -5 -3 31.16 2.32
3 -5 -3 30.68 2.14
3 -5 -3 30.75 2.15
-3 -5 3 27.37 2.19
3 -5 -3 32.64 2.03
3 -5 -3 33.25 2.31
3 -5 -3 29.24 2.4
3 -5 -3 33.27 2.14
-3 -5 3 27.05 1.96
-2 -5 3 21.78 1.72
2 -5 -3 21.78 1.47
2 -5 -3 21.2 1.65
2 -5 -3 21.9 1.54
2 -5 -3 19.86 1.68
2 -5 -3 21.31 1.8
2 -5 -3 22.7 1.59
2 -5 -3 22.31 1.45
2 -5 -3 22.42 1.54
2 -5 -3 20.73 1.57
-2 -5 3 20.82 1.48
2 -5 -3 23.76 1.58
2 -5 -3 20.67 1.62
-2 -5 3 20.03 1.78
-2 -5 3 22.68 1.65
2 -5 -3 21.34 1.76
2 -5 -3 21.39 1.71
1 -5 -3 22.27 1.78
1 -5 -3 24.19 1.6
-1 -5 3 22.31 1.55
1 -5 -3 20.76 1.8
-1 -5 3 22.65 1.64
1 -5 -3 23.14 1.53
-1 -5 3 20.18 1.77
1 -5 -3 22.94 1.58
1 -5 -3 23.57 1.46
-1 -5 3 21.76 1.51
1 -5 -3 22.68 1.64
-1 -5 3 22.64 1.71
1 -5 -3 23.07 1.54
1 -5 -3 22.24 1.71
1 -5 -3 21.35 1.72
1 -5 -3 23.18 1.68
1 -5 -3 21.31 1.58
1 5 -3 20.42 1.83
-1 5 3 19.79 1.85
-1 5 3 19.58 1.82
1 5 -3 19.82 1.86
1 5 -3 18.85 1.92
0 -5 -3 44.78 3.3
0 -5 -3 44.85 3.06
0 -5 -3 44.11 2.77
0 -5 3 46.67 3.07
0 -5 -3 44.87 3.43
0 -5 -3 44.32 2.96
0 -5 -3 42.94 3.06
0 -5 -3 39.41 3.38
0 -5 3 42.09 3.2
0 -5 -3 43.73 3.03
0 -5 -3 43.28 3.24
0 -5 -3 47.27 3.21
0 -5 -3 41.83 3.11
0 -5 3 46.4 3.03
0 -5 3 43.56 2.85
0 -5 3 38.51 3.38
0 5 3 44.23 3.6
0 5 -3 45.29 3.58
0 5 -3 41.64 3.67
0 5 3 42.84 3.55
0 5 -3 44.54 3.77
-1 -5 -3 22.01 1.69
-1 -5 -3 22.56 1.59
-1 -5 -3 18.76 1.74
-1 -5 -3 20.65 1.47
-1 -5 -3 22.92 1.67
1 -5 3 24.82 1.52
-1 -5 -3 23.25 1.79
-1 -5 -3 21.53 1.6
1 -5 3 22.43 1.58
-1 -5 -3 24.61 1.75
1 -5 3 21.42 1.57
1 -5 3 21 1.64
-1 -5 -3 21.12 1.4
-1 -5 -3 22.9 1.56
1 -5 3 23.09 1.59
-1 5 -3 17.92 1.91
-1 5 -3 19.88 1.86
1 5 3 19.27 1.83
1 5 3 19.39 1.79
-2 -5 -3 0.69 0.19
2 -5 3 0.49 0.17
-2 -5 -3 1.05 0.23
-2 -5 -3 1.08 0.2
-2 -5 -3 0.67 0.19
2 -5 3 0.83 0.15
2 -5 3 0.56 0.17
-2 -5 -3 1.08 0.27
2 -5 3 0.83 0.2
2 -5 3 0.78 0.19
-2 -5 -3 0.61 0.19
-2 -5 -3 0.48 0.19
2 -5 3 0.73 0.19
-3 -5 -3 60.45 4.68
3 -5 3 58.85 3.8
3 -5 3 56.33 4.08
-3 -5 -3 59.71 4.18
-3 -5 -3 60.01 4.43
3 -5 3 62.33 4.12
-3 -5 -3 57.71 4.32
3 -5 3 59.11 4.27
-3 -5 -3 62.1 4.51
3 -5 3 63.12 4.15
4 -5 3 4.96 0.43
4 -5 3 4.95 0.5
-4 -5 -3 5.64 0.53
-4 -5 -3 3.83 0.53
-4 -5 -3 5.24 0.59
-4 -5 -3 4.51 0.47
4 -5 3 4.7 0.46
4 -5 3 4.77 0.42
-4 -5 -3 5.06 0.56
4 -5 3 4.75 0.46
-5 -5 -3 2.79 0.42
-5 -5 -3 2.34 0.44
5 -5 3 2.11 0.3
5 -5 3 2.62 0.27
-5 -5 -3 1.83 0.37
-5 -5 -3 3.17 0.38
5 -5 3 3 0.34
6 -5 3 2.74 0.28
-6 -5 -3 2.27 0.38
6 -5 3 2.87 0.31
6 -5 3 2.41 0.25
6 -5 3 3.03 0.31
-6 -5 -3 2.35 0.4
-6 -5 -3 2.48 0.34
-6 -5 -3 2.74 0.43
-7 -5 -3 3.39 0.38
7 -5 3 3.43 0.33
7 -5 3 3.7 0.33
-7 -5 -3 3.41 0.42
7 -5 3 2.89 0.29
-8 -5 -3 0.25 0.12
8 -5 3 0.1 0.07
8 -5 3 0.31 0.08
-8 -5 -3 0.32 0.11
8 5 3 0.45 0.08
8 5 3 0.35 0.07
-7 -6 3 0.7 0.18
7 -6 -3 0.39 0.09
7 -6 -3 0.41 0.08
-7 -6 3 0.47 0.13
7 -6 -3 0.42 0.09
7 -6 -3 0.47 0.1
7 6 -3 0.19 0.1
6 -6 -3 9.6 0.66
6 -6 -3 9.29 0.7
6 -6 -3 9.63 0.73
6 -6 -3 9.63 0.74
6 -6 -3 9.84 0.71
-6 -6 3 10.39 0.83
5 -6 -3 7.63 0.62
5 -6 -3 7.84 0.61
5 -6 -3 7.93 0.56
-5 -6 3 7.5 0.73
5 -6 -3 7.89 0.59
-5 -6 3 7.43 0.61
-5 -6 3 6.85 0.75
5 -6 -3 8.05 0.6
5 -6 -3 7.92 0.62
-4 -6 3 1.64 0.26
-4 -6 3 1.63 0.37
4 -6 -3 1.69 0.23
4 -6 -3 1.67 0.25
4 -6 -3 1.8 0.23
4 -6 -3 1.59 0.23
4 -6 -3 1.68 0.21
4 -6 -3 1.39 0.25
4 -6 -3 1.21 0.23
-4 -6 3 1.52 0.33
3 -6 -3 23.52 1.56
-3 -6 3 20.66 1.81
3 -6 -3 21.39 1.66
3 -6 -3 22.4 1.55
3 -6 -3 23.32 1.59
3 -6 -3 22.75 1.61
-3 -6 3 21.6 1.74
-3 -6 3 20.74 1.61
3 -6 -3 20.65 1.77
3 -6 -3 20.77 1.7
3 -6 -3 23.34 1.46
2 -6 -3 4.64 0.51
2 -6 -3 5.32 0.45
2 -6 -3 4.93 0.52
2 -6 -3 5.22 0.49
-2 -6 3 5.51 0.46
-2 -6 3 4.7 0.53
2 -6 -3 5.5 0.44
2 -6 -3 5.52 0.52
-2 -6 3 5.17 0.55
2 -6 -3 5.4 0.45
2 -6 -3 5.06 0.47
-2 -6 3 5.26 0.52
-1 -6 3 3.48 0.39
1 -6 -3 3.36 0.38
1 -6 -3 3.17 0.32
1 -6 -3 3.34 0.38
1 -6 -3 3.44 0.36
-1 -6 3 2.84 0.36
1 -6 -3 3.13 0.33
1 -6 -3 3.72 0.32
-1 -6 3 2.95 0.39
1 -6 -3 3.08 0.38
1 -6 -3 3.07 0.38
-1 -6 3 3.28 0.35
0 -6 -3 5.92 0.57
0 -6 3 5.74 0.55
0 -6 -3 5.11 0.44
0 -6 -3 5.77 0.57
0 -6 -3 6.29 0.56
0 -6 -3 5.54 0.51
0 -6 3 6.38 0.54
0 -6 3 5.08 0.53
0 -6 -3 5.85 0.45
0 -6 3 5.62 0.49
0 -6 -3 5.97 0.52
0 -6 -3 5.25 0.55
0 -6 3 5.23 0.5
-1 -6 -3 0.9 0.21
1 -6 3 0.97 0.2
-1 -6 -3 1.06 0.23
-1 -6 -3 0.98 0.2
-1 -6 -3 1.08 0.24
1 -6 3 1.05 0.21
-1 -6 -3 0.93 0.15
1 -6 3 1.16 0.22
-1 -6 -3 0.93 0.23
-1 -6 -3 1.18 0.22
1 -6 3 1.06 0.21
2 -6 3 1.25 0.22
-2 -6 -3 1.16 0.23
-2 -6 -3 1.54 0.3
2 -6 3 1.15 0.21
-2 -6 -3 1.61 0.25
-2 -6 -3 1.45 0.3
2 -6 3 1.51 0.21
-2 -6 -3 0.99 0.23
2 -6 3 1.16 0.2
2 -6 3 1.39 0.23
-2 -6 -3 1.52 0.23
-3 -6 -3 4.78 0.46
3 -6 3 5.01 0.44
-3 -6 -3 4.85 0.53
3 -6 3 4.53 0.4
3 -6 3 4.76 0.41
-3 -6 -3 4.56 0.5
3 -6 3 4.7 0.44
-3 -6 -3 4.25 0.44
4 -6 3 1.23 0.2
4 -6 3 1.45 0.22
-4 -6 -3 1.1 0.24
-4 -6 -3 1.14 0.27
4 -6 3 1.34 0.18
-4 -6 -3 1.2 0.22
4 -6 3 1.34 0.18
-5 -6 -3 7.44 0.7
5 -6 3 6.2 0.57
5 -6 3 8.36 0.61
5 -6 3 7.25 0.52
5 -6 3 8.23 0.58
-5 -6 -3 8.02 0.68
-6 -6 -3 9.65 0.82
6 -6 3 9.65 0.69
6 -6 3 9.83 0.73
-4 -7 3 1.56 0.25
3 -7 -3 3.15 0.35
3 -7 -3 3.84 0.29
3 -7 -3 4.01 0.33
-3 -7 3 3.1 0.37
-2 -7 3 3.26 0.33
2 -7 -3 3.74 0.34
-2 -7 3 3.75 0.38
2 -7 -3 3.65 0.36
2 -7 -3 3.56 0.35
2 -7 -3 3.59 0.3
1 -7 -3 2.15 0.27
-1 -7 3 2.33 0.26
-1 -7 3 2.47 0.28
1 -7 -3 2.44 0.26
1 -7 -3 2.75 0.29
1 -7 -3 2.52 0.28
-1 -7 3 2.42 0.24
0 -7 -3 19.33 1.41
0 -7 3 19.1 1.48
0 -7 -3 19.15 1.53
0 -7 3 22.78 1.43
0 -7 3 18.76 1.3
0 -7 -3 21.31 1.51
0 -7 -3 20.96 1.6
-1 -7 -3 10.11 0.87
1 -7 3 12.06 0.82
1 -7 3 11.32 0.76
-1 -7 -3 10.72 0.9
-1 -7 -3 11.51 0.93
2 -7 3 4.58 0.33
-2 -7 -3 3.51 0.38
-2 -7 -3 4.07 0.4
2 -7 3 3.79 0.33
-13 0 4 8.23 0.71
13 0 -4 8.89 0.69
-12 0 4 3.42 0.38
12 0 -4 3.41 0.35
12 0 -4 3.81 0.37
12 0 -4 3.95 0.36
11 0 -4 2.16 0.26
11 0 -4 2.23 0.26
11 0 -4 2.14 0.26
10 0 -4 44.07 3.39
10 0 -4 45.94 3.29
10 0 -4 41.02 3.25
9 0 -4 3.1 0.31
9 0 -4 4.07 0.37
-9 0 4 3.31 0.42
9 0 -4 3.44 0.4
9 0 -4 3.48 0.39
-9 0 4 2.72 0.35
9 0 -4 3.56 0.35
-9 0 4 3.74 0.43
8 0 -4 22.93 1.62
8 0 -4 25.38 1.92
8 0 -4 23.33 2.12
8 0 -4 27.09 1.87
8 0 -4 23.41 1.83
8 0 -4 23.55 2
-8 0 4 25.31 2.18
-8 0 4 23.54 2.02
-8 0 4 24.34 2.13
7 0 -4 37.86 2.97
-7 0 4 38.56 3.37
-7 0 4 39.7 3.13
7 0 -4 40.04 3.29
7 0 -4 36.41 2.88
7 0 -4 35.26 2.84
7 0 -4 37.13 3.1
-7 0 4 42.28 3.36
-7 0 4 39.58 3.29
6 0 -4 49.8 3.8
-6 0 4 46.02 3.86
-6 0 4 47.8 3.79
6 0 -4 44.7 3.33
6 0 -4 46.23 3.59
-6 0 4 43.2 3.88
6 0 -4 37.59 3.28
6 0 -4 43.27 3.43
5 0 -4 32.44 2.71
-5 0 4 32.1 2.7
-5 0 4 30.81 2.76
-5 0 4 31.28 2.78
5 0 -4 32.66 2.67
4 0 -4 26.37 2.06
-4 0 4 24.83 2.04
-4 0 4 22.9 2.08
-4 0 4 22.78 2.1
4 0 -4 23.4 2.02
3 0 -4 22.86 1.68
-3 0 4 21.64 1.89
-3 0 4 20.36 1.87
3 0 -4 21.95 1.81
-3 0 4 21.8 1.93
3 0 -4 21.77 1.85
-2 0 4 3.19 0.26
-2 0 4 3.08 0.3
2 0 -4 3.5 0.27
2 0 -4 2.94 0.28
-2 0 4 2.9 0.31
2 0 -4 2.96 0.28
1 0 -4 115.13 9.29
-1 0 4 125.59 9.71
-1 0 4 119.97 10.49
-1 0 4 128.25 10.75
1 0 -4 127.05 9.77
0 0 4 121.48 9.8
0 0 -4 106.81 8.68
0 0 4 108.42 9.13
0 0 -4 109.18 9.13
0 0 4 124.58 9.09
0 0 4 119.28 10.05
1 0 4 24.85 1.97
-1 0 -4 23.26 1.87
-1 0 -4 21.42 2.01
1 0 4 27.05 2.12
1 0 4 24.86 2.18
-1 0 -4 24.68 1.97
-1 0 -4 25.48 2.07
1 0 4 24.5 1.98
2 0 4 229.72 20.66
-2 0 -4 218.38 19.39
2 0 4 237.72 18.81
2 0 4 247.47 18.7
-2 0 -4 223.16 17.85
-2 0 -4 247.24 18.79
-2 0 -4 255.57 19.61
-3 0 -4 22.53 1.96
-3 0 -4 27.8 2.19
3 0 4 25.8 2.08
3 0 4 25.74 2.08
-3 0 -4 25.7 2.08
3 0 4 26.16 2.29
4 0 4 24.23 2.41
-4 0 -4 27.57 2.21
-4 0 -4 24.81 2.08
4 0 4 28.11 2.21
-4 0 -4 29.27 2.34
4 0 4 28.99 2.21
-5 0 -4 39.53 3.37
-5 0 -4 37.88 3.2
5 0 4 40.65 3.19
5 0 4 39.45 3.19
-6 0 -4 0.48 0.17
6 0 4 0.54 0.1
6 0 4 0.33 0.12
6 0 4 0.55 0.13
6 0 4 0.42 0.12
-6 0 -4 0.28 0.11
7 0 4 32.04 2.51
7 0 4 31.33 2.01
7 0 4 27.42 2.48
7 0 4 29.46 2.12
7 0 4 31.83 2.26
-7 0 -4 28.54 2.5
-7 0 -4 31.66 2.68
8 0 4 4.5 0.41
8 0 4 5 0.39
9 0 4 9.24 0.77
9 0 4 9.78 0.74
-9 0 -4 9.15 0.76
-9 0 -4 10.06 0.78
-9 0 -4 9.42 0.84
9 0 4 9.88 0.7
10 0 4 0.84 0.14
-10 0 -4 1.17 0.23
10 0 4 0.83 0.15
10 0 4 1.21 0.16
-10 0 -4 0.87 0.17
-10 0 -4 0.72 0.14
11 0 4 0.01 0.06
-11 0 -4 0.1 0.1
11 0 4 0.06 0.06
-12 -1 4 2 0.29
12 -1 -4 1.75 0.23
-12 -1 4 1.44 0.26
12 -1 -4 1.71 0.23
-12 -1 4 2.01 0.22
12 1 -4 2.01 0.23
12 1 -4 2.15 0.22
12 1 -4 1.78 0.22
11 -1 -4 16.53 1.29
11 -1 -4 15.4 1.33
11 -1 -4 15.88 1.31
11 -1 -4 13.97 1.12
11 1 -4 16.84 1.27
11 1 -4 17.89 1.33
11 1 -4 18.35 1.3
10 -1 -4 13.47 1.04
10 -1 -4 13.43 1.08
10 -1 -4 14.26 1.08
10 -1 -4 13.23 0.92
10 1 -4 11.64 1.01
10 1 -4 12.16 1.05
10 1 -4 12.27 1.03
9 -1 -4 13.19 1
-9 -1 4 13.65 1.2
-9 -1 4 9.75 1.12
9 -1 -4 12.81 0.89
9 -1 -4 13.78 1.04
9 -1 -4 14.62 1.04
9 1 -4 12.7 0.99
9 1 -4 11.75 1.06
-9 1 4 10.06 1.14
9 1 -4 13.13 1.02
9 1 -4 12.82 0.97
-9 1 4 12.39 1.09
-9 1 4 10.6 1.14
9 1 -4 11.25 1.12
8 -1 -4 49.71 3.49
8 -1 -4 49.35 3.08
8 -1 -4 54.63 3.54
-8 -1 4 46.64 4.11
8 -1 -4 48.31 3.8
8 -1 -4 50.27 3.64
-8 -1 4 45.98 3.98
-8 -1 4 44.64 4.07
8 1 -4 43.48 3.99
8 1 -4 45.43 3.6
-8 1 4 48.91 4.01
8 1 -4 44.71 3.45
-8 1 4 42.47 4.05
8 1 -4 46.6 3.5
-8 1 4 44.01 3.81
8 1 -4 44.95 3.76
7 -1 -4 53.62 4.26
7 -1 -4 52.13 4.08
-7 -1 4 48.94 4.24
-7 -1 4 54.89 4.61
-7 -1 4 50.26 4.46
7 -1 -4 50.86 3.95
-7 -1 4 52.72 4.57
7 -1 -4 49.84 3.9
7 -1 -4 51.82 3.45
-7 1 4 56.99 4.56
7 1 -4 50.25 4.23
7 1 -4 52.65 4.49
7 1 -4 55.9 4.41
7 1 -4 47.6 3.87
7 1 -4 55.84 4.06
-7 1 4 58.14 4.49
7 1 -4 54.08 3.92
-7 1 4 55.54 4.28
6 -1 -4 0.57 0.12
-6 -1 4 0.41 0.14
-6 -1 4 0.48 0.14
-6 -1 4 0.45 0.13
6 -1 -4 0.44 0.12
6 -1 -4 0.52 0.13
-6 -1 4 0.32 0.09
6 -1 -4 0.47 0.15
6 -1 -4 0.51 0.13
6 1 -4 0.83 0.12
6 1 -4 0.84 0.14
6 1 -4 0.9 0.15
6 1 -4 0.67 0.11
-6 1 4 0.93 0.16
-6 1 4 1.15 0.19
-6 1 4 0.91 0.17
6 1 -4 0.83 0.15
-6 1 4 0.84 0.16
6 1 -4 0.77 0.14
-5 -1 4 14.33 1.11
-5 -1 4 13.46 1.14
5 1 -4 11.9 1.08
-5 1 4 11.51 1.11
-5 1 4 11.18 1.11
-5 1 4 13.29 1.11
5 1 -4 11.88 1.1
-4 -1 4 101.88 8.18
-4 -1 4 106.59 8.36
-4 -1 4 90.52 7.91
-4 -1 4 92.55 8.09
4 1 -4 80.94 7.55
4 1 -4 98.37 7.84
4 1 -4 84.41 7.99
-4 1 4 98.11 7.93
-4 1 4 94.27 8.08
-4 1 4 100.33 8.14
4 1 -4 101.85 7.22
-3 -1 4 98.87 7.77
-3 -1 4 89.05 7.52
-3 -1 4 101.38 7.95
-3 -1 4 94.88 7.69
-3 1 4 78.61 7.91
-3 1 4 92.51 7.68
3 1 -4 88.65 7.59
3 1 -4 81.65 7.18
3 1 -4 97.96 6.87
-3 1 4 88.84 7.73
3 1 -4 86.26 7.45
-2 -1 4 157.61 13.94
-2 -1 4 154.83 14.42
-2 -1 4 167.83 13.03
-2 -1 4 176.75 14.08
-2 1 4 159.55 13.02
2 1 -4 156.36 13.8
2 1 -4 155.01 13.53
-2 1 4 163.16 14.4
-2 1 4 164.41 14.05
-2 1 4 167.68 13.01
-2 1 4 180.06 13.13
2 1 -4 178.92 12.46
-1 -1 4 88.66 7.05
-1 -1 4 90.46 7.81
-1 -1 4 77.67 7.53
-1 -1 4 87.87 7.62
1 1 -4 92.67 7.08
-1 1 4 80.58 7.05
1 1 -4 83.39 7.31
-1 1 4 101.62 7.05
-1 1 4 86.97 7.05
1 1 -4 88.04 7.46
-1 1 4 98.22 7.12
-1 1 4 92.78 7.8
1 1 -4 90.72 6.74
0 -1 4 187.02 15.71
0 -1 4 157.59 15.55
0 -1 4 190.08 16.12
0 -1 -4 176.05 13.91
0 -1 4 201.95 14.57
0 -1 -4 171.29 14.63
0 1 4 183.09 14.6
0 1 4 183.43 14.55
0 1 -4 186.3 15.12
0 1 4 183.62 14.57
0 1 -4 202.54 14.64
0 1 -4 198.42 13.92
0 1 4 177.39 16.1
1 -1 4 232.14 16.53
-1 -1 -4 204.18 17.32
1 -1 4 218.85 16.63
-1 -1 -4 187.26 15.76
-1 -1 -4 198.32 16.59
-1 1 -4 221.03 15.79
1 1 4 198.82 16.5
1 1 4 199.48 18.26
1 1 4 211.77 16.57
-1 1 -4 210.53 17.15
1 1 4 190.8 17.47
-1 1 -4 219.46 17.31
1 1 4 218.42 16.53
-1 1 -4 213.29 16.6
1 1 4 217.42 16.66
2 -1 4 53.05 5.08
2 -1 4 60.29 5.09
-2 -1 -4 60.34 5.32
2 1 4 70.48 5.09
2 1 4 60.71 5.07
2 1 4 62.02 5.34
2 1 4 65.61 5.09
2 1 4 63.14 5.61
-2 1 -4 69.26 5.1
-2 1 -4 70.06 4.85
-2 1 -4 65.73 5.26
-2 1 -4 63.19 5.31
2 1 4 64.93 5.12
3 -1 4 70.56 5.86
-3 -1 -4 66.82 5.84
-3 -1 -4 77.12 6.13
3 -1 4 73.53 5.86
-3 1 -4 74.95 6.12
-3 1 -4 71.85 5.57
3 1 4 77.42 5.85
3 1 4 72.95 6.45
3 1 4 70.9 6.15
3 1 4 78.43 5.85
-3 1 -4 74.24 5.87
3 1 4 71.82 5.82
3 1 4 75.39 5.89
-3 1 -4 70.62 6.05
4 -1 4 132.27 10.1
4 -1 4 140.49 10.07
-4 -1 -4 114.04 8.53
4 -1 4 113.24 8.74
4 -1 4 124.57 8.11
-4 -1 -4 107.3 8.68
-4 -1 -4 133.15 10.56
-4 -1 -4 120.88 10.08
-4 1 -4 121.65 9.6
4 1 4 128.35 10.02
4 1 4 128.6 10.12
-4 1 -4 134.84 10.55
4 1 4 132.81 10.05
4 1 4 124.32 10.62
-4 1 -4 125.55 10.43
4 1 4 131.96 10.07
-4 1 -4 134.13 10.11
4 1 4 131.88 11.09
-5 -1 -4 8.52 0.68
-5 -1 -4 7.26 0.72
-5 -1 -4 7.47 0.67
5 -1 4 7.61 0.62
5 -1 4 7.96 0.65
5 -1 4 9.39 0.77
5 -1 4 8.14 0.66
-5 -1 -4 9.11 0.82
-5 -1 -4 7.2 0.72
5 -1 4 7.74 0.58
5 -1 4 8.47 0.75
5 1 4 8.12 0.71
5 1 4 8.1 0.79
5 1 4 8.37 0.76
-5 1 -4 9.09 0.76
5 1 4 8.03 0.73
5 1 4 7.67 0.72
5 1 4 9.51 0.74
-5 1 -4 8.09 0.7
-5 1 -4 8.75 0.8
-6 -1 -4 8.02 0.73
-6 -1 -4 8 0.67
6 -1 4 8.98 0.58
-6 -1 -4 8.33 0.8
6 -1 4 7.52 0.71
6 -1 4 8.92 0.74
6 -1 4 8.11 0.63
6 -1 4 8.05 0.64
-6 -1 -4 8.06 0.67
-6 -1 -4 6.35 0.69
-6 -1 -4 8.52 0.73
6 -1 4 8.5 0.61
6 1 4 7.55 0.7
-6 1 -4 7.44 0.77
-6 1 -4 6.68 0.72
6 1 4 7.02 0.69
6 1 4 6.93 0.72
-6 1 -4 7.96 0.73
-6 1 -4 7.11 0.67
-7 -1 -4 69.18 6
-7 -1 -4 74.65 4.89
7 -1 4 69.59 4.85
7 -1 4 78.91 4.6
7 -1 4 71.92 5.18
-7 -1 -4 72.88 5.22
-7 -1 -4 71.54 4.94
7 -1 4 70.27 4.96
7 -1 4 74.89 5.72
-7 -1 -4 78.62 5.19
7 1 4 59.49 5.65
7 1 4 68.1 5.68
-7 1 -4 73.47 5.72
7 1 4 66.05 5.22
-7 1 -4 61.18 5.41
-7 1 -4 73.88 6
8 -1 4 20.11 1.35
8 -1 4 19.66 1.51
-8 -1 -4 21.64 1.5
-8 -1 -4 23.43 1.64
-8 -1 -4 18.89 1.47
8 -1 4 19.39 1.42
8 -1 4 18.42 1.45
8 1 4 19.17 1.41
8 1 4 17.91 1.49
8 1 4 20.05 1.34
-9 -1 -4 2.41 0.37
-9 -1 -4 2.35 0.26
9 -1 4 2.15 0.24
9 -1 4 1.88 0.22
-9 -1 -4 2.55 0.29
9 -1 4 2.24 0.25
9 1 4 1.65 0.21
9 1 4 1.83 0.22
9 1 4 1.57 0.2
-10 -1 -4 2.21 0.32
10 -1 4 2.17 0.22
-10 -1 -4 2.16 0.3
10 -1 4 2.28 0.23
10 -1 4 1.93 0.23
10 1 4 2.29 0.22
-10 1 -4 2.31 0.25
-10 1 -4 1.87 0.29
10 1 4 2.11 0.22
-10 1 -4 2.06 0.24
-11 -1 -4 7.98 0.7
11 -1 4 9.05 0.62
-11 -1 -4 8.77 0.66
-11 1 -4 8.72 0.71
11 1 4 8.67 0.68
11 1 4 9.29 0.61
12 -2 -4 1.04 0.17
-12 -2 4 0.94 0.2
-12 -2 4 1.11 0.22
12 -2 -4 0.98 0.17
12 -2 -4 1.01 0.14
12 2 -4 1.7 0.18
12 2 -4 1.49 0.17
12 2 -4 1.47 0.16
-11 -2 4 2.64 0.31
-11 -2 4 3.39 0.39
11 -2 -4 2.96 0.29
11 -2 -4 2.85 0.33
11 -2 -4 3.29 0.34
11 -2 -4 2.94 0.35
-11 -2 4 2.92 0.4
11 2 -4 3.9 0.33
11 2 -4 3.28 0.31
10 -2 -4 31.27 2.09
10 -2 -4 32.74 2.42
10 -2 -4 29.62 2.46
-10 -2 4 31.93 2.45
-10 -2 4 33.23 2.54
10 -2 -4 32.52 2.38
-10 -2 4 28.45 2.21
10 2 -4 32.45 2.44
10 2 -4 30.85 2.36
10 2 -4 29.12 2.32
9 -2 -4 12.75 1.06
9 -2 -4 14.31 1.11
-9 -2 4 12.6 1.01
-9 -2 4 12.74 1.07
9 -2 -4 12.04 0.95
9 -2 -4 13.57 1.11
9 -2 -4 12.85 0.93
9 2 -4 13.75 1.04
9 2 -4 13.21 1.07
9 2 -4 12.23 1.11
9 2 -4 11.58 1
8 -2 -4 2.76 0.36
-8 -2 4 2.08 0.37
8 -2 -4 2.41 0.33
8 -2 -4 2.52 0.41
8 -2 -4 2.33 0.29
8 -2 -4 2.49 0.3
8 -2 -4 2.54 0.39
-8 -2 4 2.59 0.38
-8 -2 4 1.99 0.34
-8 -2 4 2.39 0.38
8 2 -4 3.72 0.36
8 2 -4 3.69 0.32
-8 2 4 3.68 0.4
8 2 -4 3.57 0.37
8 2 -4 3.45 0.29
8 2 -4 3.43 0.35
7 -2 -4 9.84 0.91
7 -2 -4 11.11 0.99
7 -2 -4 9.75 0.8
7 -2 -4 9.81 0.8
-7 -2 4 10.92 1.03
7 -2 -4 11.14 0.95
-7 -2 4 10.4 1.05
7 -2 -4 9.45 0.88
7 -2 -4 9.54 0.96
7 -2 -4 11.13 0.79
-7 -2 4 9.94 0.97
-7 2 4 9.82 0.99
7 2 -4 11.8 1.01
7 2 -4 11.22 0.97
-7 2 4 11.48 0.96
7 2 -4 10.26 0.82
-7 2 4 12.6 1.02
6 -2 -4 6.54 0.46
-6 -2 4 6 0.59
6 -2 -4 5.58 0.46
6 -2 -4 5.8 0.57
-6 -2 4 6.72 0.64
6 -2 -4 5.35 0.53
6 -2 -4 5.08 0.54
6 -2 -4 5.92 0.58
6 -2 -4 5.61 0.41
6 -2 -4 5.88 0.55
6 -2 -4 6.94 0.61
-6 -2 4 5.96 0.55
6 -2 -4 6.74 0.56
6 -2 -4 5.38 0.43
6 -2 -4 5.84 0.47
6 -2 -4 5.73 0.51
-6 2 4 5.1 0.56
6 2 -4 4.36 0.49
-6 2 4 4.67 0.52
6 2 -4 5.18 0.53
-6 2 4 4.82 0.54
6 2 -4 4.64 0.54
5 -2 -4 31.05 2.63
5 -2 -4 29.18 2.25
-5 -2 4 31.89 2.7
5 -2 -4 30.75 2.69
5 -2 -4 32.96 2.39
5 -2 -4 30.71 2
5 -2 -4 36.26 2.44
5 -2 -4 35.03 2.11
5 -2 -4 32.83 2.45
5 -2 -4 28.18 2.15
5 -2 -4 31.02 2.21
5 -2 -4 30.97 2.49
5 -2 -4 30.54 2.18
5 -2 -4 32.71 2.65
5 -2 -4 30.64 2.51
5 -2 -4 33.46 2.25
-5 -2 4 34.92 2.79
-5 2 4 32.45 2.71
5 2 -4 27.8 2.55
5 2 -4 30.82 2.72
5 2 -4 34.67 2.68
-5 2 4 30.09 2.75
-5 2 4 34.15 2.6
-4 -2 4 20.71 1.83
-4 -2 4 16.8 1.69
-4 -2 4 20.4 1.77
-4 -2 4 20.86 1.82
-4 2 4 20.29 1.73
-4 2 4 19.7 1.71
4 2 -4 19.88 1.61
4 2 -4 19.81 1.55
-4 2 4 18.48 1.73
4 2 -4 21.99 1.69
4 2 -4 20.21 1.72
-3 -2 4 34.56 3.14
-3 -2 4 43.51 3.32
-3 -2 4 38.47 3.25
-3 2 4 35.69 3.03
3 2 -4 39.22 3.2
3 2 -4 36.36 3.02
-3 2 4 33.02 3.31
-3 2 4 34.45 2.99
3 2 -4 39.58 3.13
-3 2 4 39.08 3.25
3 2 -4 40.56 2.89
-3 2 4 33.92 3
-3 2 4 42.34 3.23
-2 -2 4 230.9 20.03
-2 -2 4 250.44 20.53
2 2 -4 237.81 19.64
-2 2 4 219.7 18.52
2 2 -4 243.19 17.72
2 2 -4 241.12 19.25
-2 2 4 218.06 18.58
-2 2 4 238.12 18.68
-2 2 4 233.56 20.49
-2 2 4 237.51 18.51
-1 -2 4 31.49 2.96
-1 -2 4 30.09 2.89
1 2 -4 37.46 2.83
-1 2 4 32.38 2.71
1 2 -4 37.97 2.61
-1 2 4 37.95 3.03
1 2 -4 35.13 2.72
-1 2 4 32.29 2.86
-1 2 4 34.25 2.73
1 2 -4 35.57 2.89
-1 2 4 29.59 2.79
0 -2 4 83.91 5.83
0 -2 4 65 6.43
0 -2 4 61.26 6.25
0 2 -4 70.7 5.81
0 2 -4 73.6 6.02
0 2 4 70.43 5.8
0 2 -4 78.1 5.55
0 2 4 69.85 6.11
0 2 -4 79.3 6.15
0 2 4 77.6 5.81
1 -2 4 25.31 2.13
1 2 4 26.85 2.11
-1 2 -4 25.79 2.1
-1 2 -4 27.51 2.01
1 2 4 25.26 2.09
1 2 4 24.82 2.19
-1 2 -4 26.01 2.18
2 -2 4 145 11.84
-2 -2 -4 138.12 12.37
-2 -2 -4 125.95 11.83
-2 2 -4 159.78 12.26
-2 2 -4 142.93 12.35
-2 2 -4 158 11.86
2 2 4 132.5 12.48
2 2 4 157.07 11.84
-2 2 -4 160.34 11.29
2 2 4 161.74 13.08
2 2 4 161.27 11.83
3 -2 4 0.92 0.2
-3 -2 -4 1.25 0.24
-3 -2 -4 1.89 0.21
-3 -2 -4 1.32 0.2
3 -2 4 1.35 0.18
3 -2 4 1.4 0.22
3 -2 4 1.63 0.19
-3 -2 -4 1.48 0.22
3 -2 4 1.06 0.23
-4 -2 -4 16.39 1.24
4 -2 4 14.07 1.1
-4 -2 -4 15.82 1.37
-4 -2 -4 15.9 1.24
-4 -2 -4 13.57 1.16
4 -2 4 15.65 1.15
-4 -2 -4 15.21 1.15
4 -2 4 15.46 1.34
4 -2 4 14.03 1.05
4 -2 4 15.78 1.12
4 2 4 15.89 1.3
4 2 4 15.75 1.34
-4 2 -4 15.31 1.35
4 2 4 15.06 1.43
-4 2 -4 15.52 1.35
-4 2 -4 15.42 1.25
4 2 4 15.57 1.32
4 2 4 15.37 1.32
4 2 4 15.07 1.29
-4 2 -4 15.74 1.31
5 -2 4 21.74 1.82
-5 -2 -4 20.43 1.69
5 -2 4 22.96 1.54
5 -2 4 22.2 1.46
-5 -2 -4 20.45 1.69
5 -2 4 20.26 1.52
-5 -2 -4 20.65 1.9
5 -2 4 21.79 1.59
5 2 4 24.23 1.8
-5 2 -4 21.19 1.72
5 2 4 20.11 1.86
-5 2 -4 20.28 1.86
5 2 4 23.35 1.81
-5 2 -4 23.2 1.81
5 2 4 21.8 1.78
-5 2 -4 21.33 1.88
5 2 4 19.86 1.96
5 2 4 19.86 1.8
-6 -2 -4 1.79 0.32
6 -2 4 1.8 0.23
-6 -2 -4 1.59 0.28
-6 -2 -4 1.73 0.34
6 -2 4 2.15 0.26
6 -2 4 2.4 0.23
-6 -2 -4 1.61 0.28
-6 -2 -4 1.71 0.35
6 -2 4 1.56 0.24
6 -2 4 1.72 0.25
6 -2 4 1.82 0.29
6 2 4 1.82 0.23
6 2 4 2.13 0.26
-6 2 -4 1.49 0.27
-6 2 -4 1.72 0.26
6 2 4 1.69 0.23
-6 2 -4 1.92 0.25
-6 2 -4 1.73 0.3
7 -2 4 26.04 1.67
7 -2 4 25.17 1.76
-7 -2 -4 19.01 2.03
-7 -2 -4 27.37 1.77
-7 -2 -4 23.32 1.85
7 -2 4 23.53 1.7
7 -2 4 25.36 1.58
-7 -2 -4 24.29 1.72
-7 -2 -4 26.38 1.88
-7 2 -4 18.26 1.98
7 2 4 21.17 1.91
-7 2 -4 20.01 1.83
-7 2 -4 22.3 1.94
-8 -2 -4 3.95 0.45
8 -2 4 3.86 0.39
8 -2 4 3.84 0.38
-8 -2 -4 3.82 0.48
8 -2 4 3.81 0.35
8 -2 4 3.55 0.39
-8 -2 -4 3.82 0.48
8 2 4 4.02 0.35
8 2 4 4.57 0.38
-9 -2 -4 7.97 0.66
9 -2 4 7.19 0.59
9 -2 4 6.28 0.59
-9 -2 -4 7.32 0.69
-9 -2 -4 7.69 0.7
9 -2 4 7.09 0.56
9 2 4 7.49 0.54
9 2 4 7.6 0.61
-10 -2 -4 22.44 1.74
10 -2 4 21.6 1.53
10 -2 4 24.22 1.62
-10 -2 -4 23.09 1.65
10 2 4 23.98 1.72
10 2 4 22.47 1.52
11 -3 -4 1.33 0.17
11 -3 -4 1.57 0.22
-11 -3 4 1.88 0.28
-11 -3 4 1.57 0.27
11 -3 -4 1.73 0.21
11 3 -4 0.99 0.17
11 3 -4 1.26 0.17
10 -3 -4 35.13 2.72
-10 -3 4 41.59 3.04
-10 -3 4 43.67 3.17
10 -3 -4 39.67 2.98
10 -3 -4 37.47 2.62
10 -3 -4 39.06 3.02
10 3 -4 42.11 3.07
10 3 -4 39.17 2.97
9 -3 -4 38.06 2.85
-9 -3 4 39.94 2.9
9 -3 -4 33.88 2.55
9 -3 -4 33.27 2.44
9 -3 -4 37.19 2.79
-9 -3 4 35.87 2.71
-9 -3 4 39 2.99
9 -3 -4 36.06 2.9
9 3 -4 33.95 2.97
9 3 -4 36.76 2.76
9 3 -4 39.48 2.87
-8 -3 4 4.1 0.63
8 -3 -4 2.69 0.31
-8 -3 4 3.07 0.56
-8 -3 4 3.36 0.48
8 -3 -4 2.91 0.33
8 -3 -4 3.1 0.46
8 -3 -4 3.18 0.41
8 -3 -4 3.15 0.33
8 -3 -4 3.45 0.4
8 -3 -4 2.99 0.47
7 -3 -4 120.33 8.48
7 -3 -4 117.36 8.64
7 -3 -4 110.3 7.26
-7 -3 4 110.67 9.6
7 -3 -4 129.63 9.01
7 -3 -4 104.01 8.36
7 -3 -4 106.81 6.88
-7 -3 4 115.96 9.7
7 -3 -4 112.43 7.77
7 -3 -4 114.81 7.65
7 -3 -4 107.12 8.24
-7 -3 4 120.15 8.67
7 -3 -4 106.36 7.45
7 -3 -4 120.97 9.05
7 3 -4 107.76 9.26
7 3 -4 110.05 9.48
-7 3 4 115.44 8.57
-7 3 4 96.43 9.35
-7 3 4 106.05 8.98
-6 -3 4 24.28 1.78
6 -3 -4 24.16 1.81
6 -3 -4 21.63 1.52
6 -3 -4 22.31 1.43
6 -3 -4 22.41 1.61
6 -3 -4 23.8 1.94
-6 -3 4 22.78 2.05
6 -3 -4 21.78 1.78
-6 -3 4 19.51 1.78
6 -3 -4 21.31 1.58
-6 -3 4 21.45 1.6
6 -3 -4 19.19 1.81
6 -3 -4 21.14 1.93
-6 -3 4 19.74 1.99
6 -3 -4 23.56 1.93
6 -3 -4 24.89 1.74
6 -3 -4 22.01 1.57
6 -3 -4 21.47 1.53
6 3 -4 22.65 1.9
-6 3 4 21.61 1.77
-6 3 4 22.46 1.85
6 3 -4 21.79 1.94
6 3 -4 19.19 1.81
-6 3 4 22.34 1.93
5 -3 -4 7.4 0.62
5 -3 -4 7.52 0.65
-5 -3 4 8.12 0.79
5 -3 -4 9.93 0.78
5 -3 -4 7.71 0.77
5 -3 -4 9.99 0.76
-5 -3 4 8.42 0.78
5 -3 -4 8.24 0.75
5 -3 -4 8.61 0.72
5 -3 -4 7.7 0.84
5 -3 -4 8.45 0.83
-5 -3 4 8.05 0.82
5 -3 -4 8.75 0.71
-5 -3 4 7.49 0.68
5 -3 -4 9.35 0.8
5 -3 -4 8.58 0.64
5 -3 -4 8.72 0.83
-5 -3 4 9.69 0.9
5 -3 -4 8.12 0.66
-5 -3 4 7.02 0.81
5 -3 -4 8.97 0.67
5 -3 -4 9 0.69
5 -3 -4 8.64 0.77
5 -3 -4 8.74 0.6
5 3 -4 8.44 0.77
5 3 -4 7.1 0.71
5 3 -4 8.47 0.79
-5 3 4 6.95 0.76
-5 3 4 7.15 0.74
4 -3 -4 12.21 0.9
4 -3 -4 11.7 1.07
4 -3 -4 12.17 0.86
4 -3 -4 11.13 0.87
4 -3 -4 11.38 0.95
4 -3 -4 12.17 1.04
4 -3 -4 11.28 1.12
4 -3 -4 12.6 0.92
4 -3 -4 11.83 0.93
4 -3 -4 12.29 1.13
-4 -3 4 11.98 1.19
4 -3 -4 13.06 1
4 -3 -4 12.74 0.97
4 -3 -4 11.74 0.91
4 -3 -4 13.29 1.05
4 -3 -4 12.49 0.99
4 -3 -4 12.25 0.82
-4 -3 4 11.37 1.02
4 -3 -4 12.03 1.01
4 -3 -4 13.14 1.02
-4 -3 4 9.3 0.91
-4 -3 4 12.14 1.07
4 -3 -4 10.97 1.11
-4 -3 4 9.5 0.97
4 -3 -4 12.12 0.9
4 3 -4 13.34 1.1
4 3 -4 12.05 0.96
-4 3 4 11.83 1.07
4 3 -4 12.75 1.03
4 3 -4 13.03 1.07
-4 3 4 11.71 1.08
-4 3 4 12.81 1.04
-3 -3 4 17.09 1.72
3 -3 -4 19.56 1.44
3 -3 -4 19.33 1.6
-3 -3 4 15.99 1.58
3 -3 -4 18.35 1.37
3 -3 -4 20.25 1.53
3 -3 -4 19.32 1.54
-3 -3 4 17.93 1.81
3 -3 -4 18.22 1.39
3 -3 -4 20.04 1.42
3 -3 -4 18.31 1.5
3 -3 -4 18.35 1.57
-3 -3 4 16.79 1.3
3 -3 -4 21.18 1.65
-3 -3 4 15.79 1.41
-3 -3 4 18.72 1.52
3 -3 -4 18.92 1.42
3 -3 -4 17.84 1.7
3 -3 -4 18.66 1.74
3 -3 -4 20.09 1.4
3 -3 -4 20.61 1.52
3 -3 -4 19.27 1.58
3 -3 -4 19.44 1.47
3 3 -4 23.47 1.74
3 3 -4 21.84 1.63
3 3 -4 21.55 1.54
-3 3 4 20.14 1.69
-3 3 4 20.57 1.62
-3 3 4 21.05 1.74
-3 3 4 20.54 1.63
-3 3 4 20.99 1.61
-3 3 4 21.31 1.63
-3 3 4 21.17 1.79
-3 3 4 22.47 1.73
-3 3 4 20.28 1.61
2 -3 -4 3.82 0.39
2 -3 -4 4.21 0.35
2 -3 -4 2.94 0.42
-2 -3 4 3.04 0.35
-2 -3 4 3.23 0.39
2 -3 -4 3.93 0.34
2 -3 -4 3.6 0.43
2 -3 -4 4.17 0.33
2 -3 -4 3.6 0.37
2 -3 -4 4.09 0.37
2 -3 -4 3.68 0.39
-2 -3 4 3.62 0.37
2 -3 -4 3.88 0.33
-2 -3 4 2.92 0.44
2 -3 -4 4.14 0.4
2 -3 -4 3.87 0.32
2 -3 -4 3.94 0.32
2 -3 -4 3.69 0.44
2 -3 -4 3.88 0.46
2 -3 -4 4.27 0.37
-2 -3 4 4.76 0.5
2 -3 -4 4.08 0.4
2 -3 -4 4.01 0.36
-2 -3 4 3.79 0.4
-2 3 4 4.25 0.37
-2 3 4 3.89 0.38
-2 3 4 3.6 0.34
2 3 -4 4.6 0.4
-2 3 4 4.45 0.37
2 3 -4 3.54 0.39
-2 3 4 3.66 0.37
2 3 -4 4 0.35
1 -3 -4 23.81 1.84
1 -3 -4 27.19 2.22
-1 -3 4 24.69 1.73
1 -3 -4 24.16 1.89
1 -3 -4 26.92 1.75
1 -3 -4 25.15 2.09
-1 -3 4 24.65 2.36
-1 -3 4 24.77 1.96
1 -3 -4 28.48 2.03
-1 -3 4 28.73 2.47
1 -3 -4 25.77 1.99
1 -3 -4 24.28 2.12
1 -3 -4 24.57 1.86
1 -3 -4 25.08 2.09
1 -3 -4 26.49 2.03
1 -3 -4 26.23 2.24
1 -3 -4 27.33 2.08
1 -3 -4 24.67 2.29
1 -3 -4 27.06 1.88
1 -3 -4 26.19 1.95
1 -3 -4 25.61 1.98
1 -3 -4 26.28 1.84
-1 3 4 29.06 2.16
-1 3 4 27.39 2.27
-1 3 4 30.31 2.19
1 3 -4 28.69 2.07
1 3 -4 29.16 2.31
1 3 -4 30.26 2.26
0 -3 4 32.26 3.08
0 -3 -4 34.89 2.64
0 -3 -4 31.55 2.78
0 -3 4 34.12 2.17
0 -3 -4 32.81 2.6
0 -3 -4 33.55 2.32
0 -3 -4 35.6 2.63
0 -3 4 28.54 2.32
0 -3 -4 33.42 2.35
0 -3 -4 31.17 2.31
0 -3 -4 33.57 2.76
0 -3 -4 29.27 2.85
0 -3 -4 32.08 2.12
0 -3 -4 35.33 2.53
0 -3 4 32.9 2.94
0 -3 -4 33.77 2.39
0 -3 -4 35.1 2.45
0 -3 -4 33.77 2.65
0 -3 -4 34.29 2.28
0 -3 -4 32.82 2.48
0 3 4 37.03 2.76
0 3 -4 35.96 2.9
0 3 -4 32.33 2.71
0 3 -4 36.21 2.61
0 3 -4 37.17 2.84
0 3 4 35.16 2.73
0 3 4 35.25 2.86
-1 -3 -4 19.82 1.42
-1 -3 -4 17.84 1.51
-1 -3 -4 17.38 1.37
1 -3 4 17.03 1.77
1 -3 4 19.1 1.27
-1 -3 -4 18.76 1.53
1 -3 4 16.85 1.39
-1 -3 -4 19 1.45
-1 -3 -4 17.62 1.29
1 -3 4 16.57 1.34
-1 -3 -4 19.01 1.48
1 -3 4 18.09 1.36
-1 -3 -4 17.23 1.35
-1 3 -4 19.81 1.67
1 3 4 20.82 1.56
1 3 4 18.64 1.62
-1 3 -4 20.31 1.5
-1 3 -4 19.77 1.55
1 3 4 22.07 1.6
-1 3 -4 20.45 1.63
-2 -3 -4 54.81 3.77
-2 -3 -4 48.76 3.89
2 -3 4 55.31 3.73
-2 -3 -4 54.54 3.83
2 -3 4 51.06 3.87
-2 -3 -4 56.13 4.22
2 -3 4 55.69 3.77
-2 -3 -4 54.29 4.04
2 -3 4 51.17 3.71
-2 -3 -4 47.87 4.13
2 -3 4 53.69 4.89
-2 -3 -4 56.58 3.99
2 -3 4 55.07 3.44
2 3 4 53.16 4.62
2 3 4 59.08 4.42
2 3 4 56.71 4.4
-2 3 -4 60.24 4.58
-2 3 -4 56.32 4.4
-2 3 -4 59.61 4.21
-3 -3 -4 9.49 0.88
-3 -3 -4 9.77 0.88
-3 -3 -4 8.97 0.82
3 -3 4 9.92 0.84
3 -3 4 9.12 0.75
-3 -3 -4 10.12 0.9
3 -3 4 10.2 0.81
3 -3 4 9.64 0.74
-3 -3 -4 10.02 0.81
3 -3 4 8.5 0.78
3 3 4 12.22 0.91
3 3 4 11.17 0.94
-3 3 -4 11.15 0.94
-3 3 -4 11.08 0.87
3 3 4 9.98 0.92
-3 3 -4 11.29 0.9
-4 -3 -4 39.04 3.75
-4 -3 -4 50.55 3.37
4 -3 4 44.71 2.81
4 -3 4 49.94 3.19
-4 -3 -4 48.56 3.33
4 -3 4 44.73 3.1
-4 -3 -4 43.63 3.46
4 -3 4 45.83 3.05
-4 -3 -4 49.54 3.13
4 -3 4 45.06 2.92
-4 -3 -4 39.67 3.15
4 3 4 43.27 3.62
-4 3 -4 43.59 3.73
4 3 4 44.92 3.61
4 3 4 44.27 3.99
-4 3 -4 41.61 3.6
4 3 4 37.43 3.76
-4 3 -4 44.13 3.44
5 -3 4 5.07 0.47
5 -3 4 5.77 0.53
5 -3 4 6.1 0.52
5 -3 4 5.45 0.5
-5 -3 -4 5.82 0.56
-5 -3 -4 5.22 0.62
-5 -3 -4 5.59 0.61
-5 -3 -4 4.14 0.57
5 3 4 4.98 0.56
5 3 4 5.7 0.61
-5 3 -4 6.23 0.55
-5 3 -4 5.65 0.59
5 3 4 5.54 0.57
5 3 4 5.63 0.55
-5 3 -4 5.74 0.56
5 3 4 6.23 0.57
-6 -3 -4 6.41 0.68
-6 -3 -4 4.9 0.62
-6 -3 -4 6.83 0.57
-6 -3 -4 7.81 0.63
-6 3 -4 5.81 0.55
6 3 4 4.89 0.56
-6 3 -4 4.73 0.57
6 3 4 5.63 0.55
6 3 4 5.36 0.59
6 3 4 5.28 0.61
6 3 4 5.4 0.56
-6 3 -4 5.05 0.55
7 -3 4 38.98 2.57
-7 -3 -4 36.8 2.81
7 -3 4 37.49 2.43
-7 -3 -4 36.93 2.64
7 -3 4 31.21 2.48
7 -3 4 35.9 2.62
-7 -3 -4 36.69 2.8
-8 -3 -4 1.9 0.36
8 -3 4 1.88 0.27
8 -3 4 1.4 0.22
-8 -3 -4 2.19 0.34
8 -3 4 1.93 0.24
-8 -3 -4 1.98 0.34
9 -3 4 8.85 0.69
-9 -3 -4 9.2 0.78
9 -3 4 9.15 0.66
-9 -3 -4 8.76 0.77
-9 -3 -4 10.67 0.77
9 -3 4 8.29 0.69
9 3 4 9.83 0.72
9 3 4 8.47 0.71
9 3 4 8.5 0.63
10 -3 4 4.56 0.39
-10 -3 -4 4.91 0.42
10 -3 4 4.45 0.37
10 3 4 5.87 0.41
-10 -4 4 6.4 0.56
10 -4 -4 5.77 0.48
10 -4 -4 5.25 0.41
-10 -4 4 5.11 0.55
10 -4 -4 5.05 0.41
10 -4 -4 4.94 0.49
10 4 -4 4.82 0.44
10 4 -4 5.51 0.47
-9 -4 4 4.99 0.55
9 -4 -4 3.64 0.36
9 -4 -4 4 0.37
9 -4 -4 4.37 0.45
-9 -4 4 3.54 0.44
9 -4 -4 4.2 0.46
-9 -4 4 4.54 0.55
9 -4 -4 4.32 0.38
9 -4 -4 3.78 0.43
9 4 -4 3.96 0.38
9 4 -4 4.9 0.42
9 4 -4 4.7 0.44
8 -4 -4 1.03 0.16
8 -4 -4 1.34 0.2
8 -4 -4 0.95 0.24
8 -4 -4 0.98 0.19
8 -4 -4 1.3 0.28
8 -4 -4 1.12 0.18
-8 -4 4 1 0.3
8 -4 -4 0.91 0.22
-8 -4 4 1.27 0.29
-8 -4 4 0.83 0.3
8 4 -4 1.32 0.25
7 -4 -4 5.45 0.48
7 -4 -4 5.73 0.63
7 -4 -4 5.32 0.47
7 -4 -4 5.29 0.44
-7 -4 4 4.73 0.67
-7 -4 4 6.49 0.66
7 -4 -4 5.82 0.61
7 -4 -4 4.65 0.47
7 -4 -4 4.26 0.57
7 -4 -4 5.69 0.6
-7 -4 4 3.69 0.63
7 -4 -4 5.21 0.42
7 -4 -4 4.68 0.54
6 -4 -4 40.6 3.45
6 -4 -4 47.31 3.64
6 -4 -4 46.61 3.37
6 -4 -4 46.27 3.63
6 -4 -4 48.56 2.9
6 -4 -4 44.97 2.99
6 -4 -4 44.81 3.02
-6 -4 4 41.57 3.32
-6 -4 4 39.08 3.51
6 -4 -4 47.29 3.29
-6 -4 4 48.63 3.32
6 -4 -4 44.11 3.07
6 -4 -4 46.26 3.41
-6 -4 4 45.29 3.01
6 -4 -4 44.46 2.93
6 -4 -4 47.52 2.73
6 4 -4 36.23 3.61
-6 4 4 35.26 3.67
6 4 -4 38.67 3.71
6 4 -4 36.71 3.49
-6 4 4 38.45 3.37
5 -4 -4 47.12 2.94
-5 -4 4 42.07 3.49
5 -4 -4 55.54 3.62
5 -4 -4 43 3.88
5 -4 -4 46.68 3.24
5 -4 -4 46.92 3.21
-5 -4 4 41.95 3.51
-5 -4 4 44.75 3.25
-5 -4 4 45.68 3.74
5 -4 -4 50.73 3.69
5 -4 -4 52.06 3.1
5 -4 -4 50.35 3.72
5 -4 -4 46.12 3.16
5 -4 -4 47.25 3.6
5 -4 -4 48.97 3.5
5 -4 -4 52.49 3.52
5 -4 -4 45.42 3.3
5 -4 -4 49.78 3.64
5 -4 -4 49.07 3.39
5 -4 -4 50.76 3.92
-5 -4 4 45 4.17
5 -4 -4 48.41 3.96
5 4 -4 39.17 3.75
-5 4 4 43.01 3.94
5 4 -4 42.98 3.99
-5 4 4 38.48 3.61
5 4 -4 43.93 3.89
4 -4 -4 1.54 0.27
-4 -4 4 1.37 0.29
4 -4 -4 1.54 0.29
4 -4 -4 1.66 0.29
4 -4 -4 2.18 0.3
4 -4 -4 1.72 0.34
-4 -4 4 2.55 0.47
4 -4 -4 2.12 0.36
4 -4 -4 1.65 0.35
4 -4 -4 1.72 0.27
4 -4 -4 1.59 0.23
4 -4 -4 1.47 0.28
4 -4 -4 1.6 0.26
-4 -4 4 1.99 0.41
4 -4 -4 1.82 0.3
4 -4 -4 1.79 0.23
4 -4 -4 1.45 0.32
4 -4 -4 1.62 0.25
-4 -4 4 1.34 0.28
4 -4 -4 1.82 0.25
4 -4 -4 1.91 0.39
4 -4 -4 1.33 0.22
-4 -4 4 1.53 0.33
4 -4 -4 1.69 0.35
4 -4 -4 1.47 0.28
4 4 -4 1.91 0.24
-4 4 4 2.24 0.27
4 4 -4 2.02 0.24
4 4 -4 2.03 0.26
3 -4 -4 7.54 0.67
3 -4 -4 8.5 0.66
-3 -4 4 7.14 0.76
3 -4 -4 8.04 0.69
3 -4 -4 8.34 0.66
3 -4 -4 7.74 0.73
3 -4 -4 7.88 0.67
-3 -4 4 6.48 0.84
3 -4 -4 8.63 0.62
3 -4 -4 8.67 0.87
3 -4 -4 8.32 0.73
3 -4 -4 8.29 0.61
3 -4 -4 8.73 0.71
3 -4 -4 7.68 0.81
3 -4 -4 8 0.63
-3 -4 4 8.61 0.79
3 -4 -4 7.34 0.82
3 -4 -4 9.28 0.78
3 -4 -4 8.69 0.74
3 -4 -4 8.12 0.63
3 -4 -4 8.55 0.78
3 -4 -4 8.09 0.73
3 -4 -4 8.7 0.85
-3 -4 4 8.02 0.65
3 4 -4 6.23 0.75
2 -4 -4 103.87 6.84
2 -4 -4 98.33 5.97
2 -4 -4 101.79 6.57
-2 -4 4 88.24 6.03
2 -4 -4 102.52 7.04
-2 -4 4 97.01 6.56
2 -4 -4 100.42 6.23
2 -4 -4 107.62 7.19
-2 -4 4 92.91 6.87
-2 -4 4 84.27 6.45
2 -4 -4 99.48 6.5
2 -4 -4 96.6 7.84
-2 -4 4 80.21 8.33
2 -4 -4 104.79 7.27
2 -4 -4 93.69 6.68
2 -4 -4 101.75 7.77
-2 -4 4 87.54 7.35
2 -4 -4 100.92 6.45
2 -4 -4 90.56 7.37
2 -4 -4 102.38 7.36
2 -4 -4 108.68 7.43
2 -4 -4 101.88 6.71
2 -4 -4 102.66 6.57
2 -4 -4 100.89 7.08
2 -4 -4 95.58 6.93
2 -4 -4 101.17 8.03
2 4 -4 91.61 8.15
2 4 -4 86.74 7.71
-2 4 4 94.3 8.52
-2 4 4 84.2 7.7
-2 4 4 94.47 7.71
2 4 -4 95.87 7.99
1 -4 -4 6.67 0.5
1 -4 -4 6.69 0.65
-1 -4 4 5.33 0.58
1 -4 -4 6.12 0.55
1 -4 -4 6.8 0.49
1 -4 -4 6.36 0.53
-1 -4 4 5.63 0.64
1 -4 -4 6.75 0.57
-1 -4 4 6.42 0.57
1 -4 -4 6.39 0.66
1 -4 -4 6.77 0.54
1 -4 -4 5.93 0.63
1 -4 -4 6.2 0.59
1 -4 -4 6.42 0.59
-1 -4 4 6.44 0.54
1 -4 -4 6.26 0.5
1 -4 -4 5.78 0.69
1 -4 -4 6.49 0.48
1 -4 -4 6.11 0.47
1 -4 -4 5.91 0.64
-1 -4 4 6.06 0.55
-1 -4 4 6.24 0.6
1 -4 -4 6.2 0.58
1 -4 -4 6.7 0.6
1 -4 -4 6.37 0.53
1 4 -4 5.91 0.59
-1 4 4 5.42 0.56
1 4 -4 5.64 0.61
1 4 -4 5.32 0.53
-1 4 4 5.61 0.59
0 -4 -4 19.14 1.58
0 -4 -4 19.71 1.32
0 -4 4 17.78 1.45
0 -4 -4 19.01 1.66
0 -4 -4 18.82 1.25
0 -4 -4 19.25 1.5
0 -4 -4 19.12 1.59
0 -4 -4 18.71 1.37
0 -4 -4 18.55 1.39
0 -4 -4 18.8 1.42
0 -4 -4 18.39 1.56
0 -4 4 17.75 1.4
0 -4 -4 19.1 1.37
0 -4 -4 19.17 1.46
0 -4 4 19.3 1.34
0 -4 4 20.15 1.42
0 -4 -4 16.13 1.7
0 -4 -4 17.64 1.51
0 -4 4 18.19 1.39
0 4 -4 20.52 1.65
0 4 -4 19.29 1.69
0 4 4 20.02 1.58
0 4 -4 18.95 1.5
0 4 4 20.39 1.63
1 -4 4 33.82 2.34
-1 -4 -4 32.39 2.37
1 -4 4 36.09 2.14
-1 -4 -4 29.04 2.52
1 -4 4 28.9 2.35
-1 -4 -4 30.44 2.03
-1 -4 -4 33.12 2.47
1 -4 4 31.43 2.27
-1 -4 -4 34.81 2.29
-1 -4 -4 30.28 2.76
-1 -4 -4 32.55 2.33
1 -4 4 31.45 2.26
-1 -4 -4 30.43 2.41
-1 -4 -4 31.62 2.23
-1 -4 -4 30.63 2.17
-1 -4 -4 29.7 2.52
-1 -4 -4 34.1 2.56
1 4 4 35.48 2.68
-1 4 -4 31.41 2.79
-1 4 -4 31.58 2.5
-1 4 -4 34.96 2.74
1 4 4 33.01 2.62
2 -4 4 6.22 0.56
2 -4 4 5.97 0.53
-2 -4 -4 4.18 0.59
-2 -4 -4 6.05 0.61
2 -4 4 5.52 0.56
2 -4 4 5.51 0.5
-2 -4 -4 6.08 0.61
-2 -4 -4 6.12 0.56
-2 -4 -4 5.65 0.59
-2 -4 -4 5.64 0.56
2 -4 4 5.52 0.52
-2 -4 -4 6.37 0.56
-2 4 -4 6.44 0.56
-2 4 -4 7 0.62
2 4 4 6.58 0.62
2 4 4 6.27 0.57
-2 4 -4 6.91 0.65
-3 -4 -4 36.04 2.52
3 -4 4 33.62 2.1
3 -4 4 33.44 2.29
-3 -4 -4 34.27 2.47
-3 -4 -4 27.2 2.32
3 -4 4 36.44 2.29
-3 -4 -4 32.1 2.57
3 -4 4 32.94 2.37
-3 -4 -4 30.29 2.35
-3 -4 -4 33.48 2.31
3 -4 4 28.85 2.22
-3 4 -4 32.08 2.75
-3 4 -4 30.19 2.52
3 4 4 31.59 2.67
-3 4 -4 31.49 2.83
3 4 4 30.47 2.63
4 -4 4 13.95 1.11
-4 -4 -4 14.1 1.19
-4 -4 -4 14.08 1.2
4 -4 4 11.82 1.04
4 -4 4 12.8 0.96
-4 -4 -4 15.13 1.23
-4 -4 -4 14.42 1.1
4 -4 4 15.06 1.07
-4 4 -4 13.55 1.25
-4 4 -4 12.64 1.14
4 4 4 13.2 1.19
4 4 4 13.4 1.34
4 4 4 12.82 1.22
-5 -4 -4 14.84 1.26
5 -4 4 14.42 1.1
-5 -4 -4 15.44 1.19
-5 -4 -4 11.79 1.23
5 -4 4 15.61 1.14
-5 -4 -4 16.56 1.32
5 -4 4 13.65 1.04
5 -4 4 13.04 1
5 -4 4 15.73 1.18
-6 -4 -4 2.74 0.48
6 -4 4 2.86 0.34
6 -4 4 2.37 0.3
6 -4 4 3.29 0.34
-6 -4 -4 2.63 0.44
-6 -4 -4 2.4 0.45
6 -4 4 2.59 0.3
-7 -4 -4 13.83 1.09
-7 -4 -4 11.61 1.05
7 -4 4 10.96 0.87
7 -4 4 12.07 0.94
7 -4 4 11.41 0.86
7 -4 4 12.35 0.93
-7 -4 -4 11.93 0.99
8 -4 4 15.33 1.05
-8 -4 -4 15.61 1.24
8 -4 4 16.09 1.12
-8 -4 -4 17.65 1.19
8 -4 4 14.35 1.13
-8 -4 -4 14.55 1.21
8 4 4 14.33 1.02
-9 -4 -4 2.3 0.24
9 -4 4 1.9 0.2
9 4 4 1.81 0.19
-9 -5 4 5.48 0.54
-9 -5 4 7.16 0.59
9 -5 -4 5.71 0.5
9 -5 -4 6.25 0.44
9 -5 -4 5.6 0.43
9 -5 -4 5.12 0.43
9 -5 -4 6.08 0.5
9 5 -4 6.37 0.49
9 5 -4 4.6 0.45
8 -5 -4 3.65 0.35
8 -5 -4 4.21 0.42
8 -5 -4 4.25 0.37
8 -5 -4 3.73 0.33
-8 -5 4 4.97 0.53
8 -5 -4 4.24 0.44
-8 -5 4 3.29 0.46
-8 -5 4 4.4 0.43
8 -5 -4 4.24 0.36
8 5 -4 4.12 0.42
8 5 -4 4.6 0.4
8 5 -4 3.9 0.36
7 -5 -4 42.68 3.34
7 -5 -4 45.95 3.13
7 -5 -4 45.45 3
7 -5 -4 41.11 3.4
7 -5 -4 46.87 3.5
7 -5 -4 47.61 3.09
-7 -5 4 41.21 3.56
7 -5 -4 43.76 2.78
7 -5 -4 43.98 2.95
-6 -5 4 7.86 0.89
6 -5 -4 10.46 0.78
6 -5 -4 10.55 0.76
6 -5 -4 10.38 0.79
6 -5 -4 9.76 0.7
6 -5 -4 10.81 0.88
6 -5 -4 9.12 0.91
6 -5 -4 10.42 0.95
-6 -5 4 10.79 0.97
-6 -5 4 8.49 0.97
-6 -5 4 9.88 0.79
6 -5 -4 9.49 0.76
6 -5 -4 9.75 0.79
5 -5 -4 5.14 0.53
-5 -5 4 5.27 0.52
5 -5 -4 5.2 0.46
5 -5 -4 5.11 0.46
5 -5 -4 4.85 0.48
-5 -5 4 4.26 0.55
5 -5 -4 5.75 0.55
5 -5 -4 5.16 0.48
5 -5 -4 5.62 0.47
5 -5 -4 5.08 0.43
5 -5 -4 6.4 0.61
5 -5 -4 4.88 0.54
-5 -5 4 4.36 0.6
-5 -5 4 4.41 0.67
5 -5 -4 5.05 0.6
4 -5 -4 46.05 3.42
4 -5 -4 47.95 3.27
4 -5 -4 47.01 3.25
-4 -5 4 45.15 3.74
-4 -5 4 45.25 3.54
4 -5 -4 50.54 3.55
4 -5 -4 50.78 3.76
4 -5 -4 46.68 3.11
4 -5 -4 47.66 3.53
4 -5 -4 44.84 3.34
4 -5 -4 46.8 3.21
4 -5 -4 46.11 3.27
4 -5 -4 46.76 3.67
4 -5 -4 45.28 3.48
4 -5 -4 50.3 3.63
-4 -5 4 44.5 3.31
4 -5 -4 46.3 2.98
3 -5 -4 21.46 1.41
-3 -5 4 21.22 1.69
-3 -5 4 17.97 1.55
3 -5 -4 19.74 1.63
3 -5 -4 18.92 1.7
3 -5 -4 18.97 1.49
3 -5 -4 21.4 1.48
3 -5 -4 21.43 1.47
-3 -5 4 19.17 1.72
3 -5 -4 22.02 1.6
3 -5 -4 19.51 1.54
3 -5 -4 21.6 1.66
3 -5 -4 18.38 1.59
3 -5 -4 20.3 1.68
3 -5 -4 20.38 1.58
-3 -5 4 20.99 1.41
3 -5 -4 21.16 1.38
3 -5 -4 20.8 1.51
3 -5 -4 20.68 1.51
-2 -5 4 48.5 3.48
2 -5 -4 45.36 3.26
2 -5 -4 48.65 3.24
2 -5 -4 47.15 3.65
2 -5 -4 45.03 3.5
2 -5 -4 49.94 3.31
-2 -5 4 49.04 3.33
-2 -5 4 40.89 3.65
2 -5 -4 47.28 3.34
2 -5 -4 46.83 4.03
2 -5 -4 49.13 3.25
2 -5 -4 49 3.67
2 -5 -4 47.28 2.98
2 -5 -4 44.36 3.46
-2 -5 4 44.75 3.03
2 -5 -4 49.35 3.42
2 -5 -4 50.66 3.2
2 -5 -4 48.37 3.08
2 5 -4 39.08 3.92
1 -5 -4 21.21 1.41
1 -5 -4 18.95 1.33
1 -5 -4 20.49 1.58
1 -5 -4 19.88 1.65
-1 -5 4 21.12 1.45
1 -5 -4 19.75 1.51
1 -5 -4 20.39 1.45
-1 -5 4 18.26 1.4
1 -5 -4 17.11 1.81
-1 -5 4 19.21 1.56
1 -5 -4 19.88 1.47
1 -5 -4 20.52 1.69
-1 -5 4 17.45 1.61
1 -5 -4 20.28 1.47
-1 -5 4 22.37 1.54
1 -5 -4 18.58 1.58
1 -5 -4 21.31 1.55
-1 5 4 18.37 1.71
-1 5 4 19.07 1.67
1 5 -4 20.71 1.7
-1 5 4 21.34 1.91
1 5 -4 20.93 1.74
1 5 -4 19.53 1.78
0 -5 -4 13.15 0.96
0 -5 4 14.1 0.96
0 -5 -4 13.21 1.07
0 -5 4 12.17 1.01
0 -5 -4 13.15 0.98
0 -5 -4 12.81 1.01
0 -5 -4 12.51 1.12
0 -5 -4 13.34 1.06
0 -5 -4 13.62 0.95
0 -5 4 13.82 1
0 -5 4 13.78 0.98
0 -5 -4 13.27 0.88
0 -5 -4 12.23 1.03
0 -5 -4 13.77 0.85
0 -5 -4 11.72 1.18
0 5 -4 10.16 1.06
0 5 4 10.77 1.22
0 5 4 9.59 1.08
0 5 -4 10.11 1.07
0 5 4 9.86 1.04
0 5 -4 9.57 1.11
1 -5 4 12.49 1.09
-1 -5 -4 14.33 1.21
-1 -5 -4 12.99 0.92
-1 -5 -4 13.83 1.17
-1 -5 -4 13.33 1.07
1 -5 4 14.6 1.08
-1 -5 -4 14.79 1.13
-1 -5 -4 13.79 1.1
1 -5 4 15.83 1.05
-1 -5 -4 14.38 1.04
1 -5 4 14.61 1.07
-1 -5 -4 13.91 1.16
-1 -5 -4 10.85 1.18
1 -5 4 12.44 1.07
2 -5 4 11.84 0.94
-2 -5 -4 10.93 0.87
-2 -5 -4 12.15 1.03
2 -5 4 10.08 0.9
-2 -5 -4 11.72 0.95
-2 -5 -4 11.12 1
-2 -5 -4 11.71 0.93
2 -5 4 12.66 0.94
-2 -5 -4 9.62 0.91
-2 -5 -4 12.09 1.04
2 -5 4 11.67 0.87
2 -5 4 10.81 0.88
3 -5 4 9.16 0.86
-3 -5 -4 10.22 0.95
3 -5 4 10.26 0.79
3 -5 4 10.64 0.81
3 -5 4 9.88 0.8
3 -5 4 11.54 0.87
-3 -5 -4 10.43 0.96
-3 -5 -4 9.25 0.85
-3 -5 -4 10.96 0.96
-3 -5 -4 11.12 0.88
4 -5 4 2.53 0.36
4 -5 4 2.31 0.31
-4 -5 -4 2.87 0.4
-4 -5 -4 2.54 0.39
-4 -5 -4 3.12 0.46
4 -5 4 1.66 0.25
4 -5 4 2.23 0.29
-4 -5 -4 2.32 0.39
4 -5 4 2.79 0.29
5 -5 4 1.39 0.19
-5 -5 -4 1.37 0.27
-5 -5 -4 0.95 0.29
-5 -5 -4 1.59 0.28
5 -5 4 1.44 0.23
5 -5 4 1.44 0.22
-5 -5 -4 1.31 0.31
5 -5 4 1.27 0.22
6 -5 4 4.15 0.37
-6 -5 -4 3.66 0.46
-6 -5 -4 3.88 0.44
6 -5 4 4.34 0.4
-6 -5 -4 4.22 0.49
6 -5 4 4.24 0.39
7 -5 4 6.16 0.49
7 -5 4 5.18 0.45
7 -5 4 6.26 0.49
-7 -5 -4 6.13 0.57
-7 -5 -4 6.63 0.54
-7 -6 4 16.08 1.2
-7 -6 4 15.94 1.32
7 -6 -4 15.94 1.14
7 -6 -4 16.87 1.12
7 6 -4 16.28 1.25
7 6 -4 14.22 1.31
-6 -6 4 0.64 0.2
6 -6 -4 0.75 0.13
6 -6 -4 0.73 0.14
-6 -6 4 1.11 0.24
6 -6 -4 1.01 0.14
5 -6 -4 28.21 1.9
5 -6 -4 28.22 1.93
5 -6 -4 29.56 1.77
-5 -6 4 24.87 2.23
-5 -6 4 23.42 2.09
5 -6 -4 28.41 1.94
5 -6 -4 28.32 1.99
-5 -6 4 29.2 1.94
4 -6 -4 11.81 0.84
4 -6 -4 11.43 0.83
4 -6 -4 11.86 0.79
4 -6 -4 11.07 0.87
-4 -6 4 12.21 0.91
4 -6 -4 10.63 0.96
-4 -6 4 10.01 0.98
4 -6 -4 11.66 0.87
4 -6 -4 9.88 0.91
-4 -6 4 11.21 1.01
3 -6 -4 1.52 0.22
3 -6 -4 1.88 0.23
3 -6 -4 1.59 0.27
-3 -6 4 1.66 0.34
3 -6 -4 1.48 0.23
3 -6 -4 1.8 0.29
-3 -6 4 1.37 0.28
3 -6 -4 1.39 0.26
3 -6 -4 1.79 0.26
3 -6 -4 1.66 0.23
-3 -6 4 1.61 0.22
-3 -6 4 1.75 0.31
2 -6 -4 13.19 1.06
2 -6 -4 13.85 0.92
2 -6 -4 12.98 1.12
-2 -6 4 12.06 1.04
2 -6 -4 13.21 1
2 -6 -4 14.07 1.02
2 -6 -4 13.37 1.09
2 -6 -4 12.77 1.08
-2 -6 4 11.94 1.11
-2 -6 4 13.29 0.94
2 -6 -4 13.72 0.97
-2 -6 4 13.54 1.11
1 -6 -4 1.15 0.24
1 -6 -4 0.99 0.22
1 -6 -4 0.83 0.19
-1 -6 4 0.92 0.21
1 -6 -4 0.9 0.2
-1 -6 4 0.93 0.23
-1 -6 4 0.9 0.19
1 -6 -4 0.71 0.21
1 -6 -4 1.04 0.17
-1 -6 4 0.71 0.2
1 -6 -4 0.95 0.18
0 -6 4 3.48 0.35
0 -6 -4 3.36 0.41
0 -6 4 3.15 0.38
0 -6 -4 3.87 0.41
0 -6 4 3.37 0.39
0 -6 -4 3.73 0.4
0 -6 -4 3.26 0.38
0 -6 4 3.22 0.37
0 -6 -4 3.72 0.37
0 -6 -4 3.79 0.32
0 -6 -4 3.59 0.37
0 -6 -4 3.52 0.41
-1 -6 -4 10.5 0.87
-1 -6 -4 9.13 0.83
-1 -6 -4 10.04 0.81
1 -6 4 8.35 0.76
-1 -6 -4 9.48 0.84
1 -6 4 9.22 0.75
-1 -6 -4 9.17 0.74
1 -6 4 9.24 0.76
-1 -6 -4 9.91 0.77
1 -6 4 10.15 0.74
2 -6 4 45.77 3.19
-2 -6 -4 48.96 3.64
2 -6 4 46.16 3.28
-2 -6 -4 48.8 3.51
-2 -6 -4 48.11 3.25
-2 -6 -4 44.65 3.35
2 -6 4 44.99 3.18
2 -6 4 49.27 2.97
-2 -6 -4 43.39 3.44
3 -6 4 6.22 0.5
3 -6 4 5.01 0.45
-3 -6 -4 4.4 0.54
3 -6 4 5.32 0.49
-3 -6 -4 6.25 0.53
-3 -6 -4 5.7 0.56
-3 -6 -4 6.63 0.6
-3 -6 -4 5.72 0.5
3 -6 4 6.21 0.47
4 -6 4 12.24 0.85
4 -6 4 12.31 0.89
-4 -6 -4 11.13 0.97
-4 -6 -4 10.5 0.89
4 -6 4 11.11 0.78
-4 -6 -4 11.08 0.98
-5 -6 -4 17.46 1.44
5 -6 4 20.1 1.32
-5 -6 -4 19.29 1.43
5 -6 4 20.14 1.26
5 -6 4 16.98 1.15
-5 -6 -4 14.84 1.3
-3 -7 4 1.66 0.25
2 -7 -4 16.18 1.22
-2 -7 4 16.48 1.21
2 -7 -4 16.36 1.28
-2 -7 4 15.1 1.15
1 -7 -4 19.57 1.52
1 -7 -4 18.62 1.35
1 -7 -4 19.9 1.43
-1 -7 4 18.06 1.41
1 -7 -4 18.34 1.46
-1 -7 4 20.87 1.37
0 -7 4 0.29 0.11
0 -7 -4 0.35 0.11
0 -7 -4 0.29 0.11
0 -7 4 0.32 0.1
0 -7 -4 0.25 0.11
-1 -7 -4 7.94 0.69
-1 -7 -4 7.69 0.67
1 -7 4 8.25 0.6
1 -7 4 8.14 0.57
13 0 -5 0.64 0.13
-13 0 5 0.55 0.15
12 0 -5 6.97 0.6
12 0 -5 7.12 0.6
12 0 -5 6.58 0.58
11 0 -5 3.04 0.33
11 0 -5 2.98 0.32
11 0 -5 3.33 0.34
10 0 -5 17.81 1.36
10 0 -5 17.19 1.4
10 0 -5 16.46 1.34
9 0 -5 19.92 1.53
-9 0 5 17.39 1.73
9 0 -5 18.45 1.6
9 0 -5 20.76 1.5
-9 0 5 18.74 1.61
-9 0 5 17.72 1.7
9 0 -5 19.84 1.47
8 0 -5 17.29 1.54
8 0 -5 19.71 1.45
-8 0 5 19 1.65
-8 0 5 20.88 1.7
-8 0 5 18.36 1.56
8 0 -5 16.4 1.62
8 0 -5 18.61 1.48
8 0 -5 17.71 1.41
-7 0 5 35.93 2.83
7 0 -5 30.19 2.82
-7 0 5 34.89 3.05
7 0 -5 34.82 2.69
-7 0 5 36.86 3.04
7 0 -5 32.11 2.57
7 0 -5 34.08 2.96
7 0 -5 38.51 2.82
7 0 -5 33.61 2.6
-7 0 5 35.81 2.97
6 0 -5 21.41 1.65
6 0 -5 18.36 1.73
6 0 -5 22.55 1.74
6 0 -5 20.21 1.59
-6 0 5 22.49 1.87
6 0 -5 17.93 1.57
-6 0 5 21.23 1.87
-6 0 5 22.38 1.83
6 0 -5 20.84 1.81
6 0 -5 22.48 1.79
5 0 -5 25.6 2.1
-5 0 5 24.48 2.13
5 0 -5 24.05 2.13
-5 0 5 25.81 2.22
-5 0 5 24.68 2.19
-4 0 5 10.72 0.98
-4 0 5 9.88 0.99
-4 0 5 11.29 1
4 0 -5 11.51 0.95
4 0 -5 10.92 0.96
-4 0 5 11.49 0.96
-3 0 5 5.87 0.57
3 0 -5 5.91 0.53
3 0 -5 5.29 0.53
-3 0 5 5.74 0.55
-3 0 5 6.89 0.57
3 0 -5 5.66 0.49
-2 0 5 5.09 0.43
-2 0 5 4.66 0.37
2 0 -5 4.2 0.37
-2 0 5 3.87 0.4
2 0 -5 3.94 0.38
-2 0 5 4.46 0.43
1 0 -5 54.25 5.05
-1 0 5 66.63 4.88
-1 0 5 68.02 5.41
1 0 -5 57.66 4.66
0 0 -5 15.32 1.24
0 0 5 16.66 1.3
0 0 5 17.55 1.47
0 0 -5 16.08 1.32
0 0 5 16.66 1.42
0 0 -5 14.71 1.33
-1 0 -5 48.87 3.86
1 0 5 48.86 3.84
1 0 5 45.68 4.26
1 0 5 48.53 3.85
1 0 5 47.55 4.14
-1 0 -5 51.84 4.04
-1 0 -5 46.14 3.66
2 0 5 9.08 0.74
-2 0 -5 9.97 0.76
-2 0 -5 8.6 0.7
2 0 5 8.65 0.83
-2 0 -5 9.53 0.8
-2 0 -5 7.85 0.74
2 0 5 8.1 0.8
-3 0 -5 14.14 1.22
-3 0 -5 15.77 1.31
3 0 5 15.81 1.44
3 0 5 13.56 1.38
-3 0 -5 17.04 1.39
3 0 5 15.89 1.3
3 0 5 18.06 1.33
4 0 5 1.16 0.16
-4 0 -5 0.93 0.14
4 0 5 1.13 0.17
4 0 5 1.19 0.19
-4 0 -5 1.15 0.22
-4 0 -5 1.15 0.19
-5 0 -5 25.76 2.32
-5 0 -5 27.36 2.45
5 0 5 29.41 2.32
5 0 5 30.1 2.33
6 0 5 0.54 0.1
6 0 5 0.3 0.12
6 0 5 0.48 0.12
-6 0 -5 0.55 0.18
6 0 5 0.37 0.13
-6 0 -5 0.53 0.15
-7 0 -5 82.92 6.88
7 0 5 80.9 5.67
7 0 5 81.78 6.54
-7 0 -5 74.56 6.05
7 0 5 81 5.93
7 0 5 86.38 5.25
7 0 5 83.9 5.56
-7 0 -5 74.21 6.54
-7 0 -5 85.75 5.58
8 0 5 1.17 0.17
-8 0 -5 1.62 0.3
-8 0 -5 1.24 0.23
-8 0 -5 1.66 0.27
8 0 5 1.28 0.18
8 0 5 1.3 0.2
-9 0 -5 1.66 0.3
-9 0 -5 1.99 0.27
9 0 5 1.89 0.2
9 0 5 1.79 0.22
-9 0 -5 1.57 0.25
9 0 5 1.6 0.2
-10 0 -5 0.92 0.17
-10 0 -5 0.83 0.19
10 0 5 0.99 0.15
-10 0 -5 1 0.16
10 0 5 0.93 0.14
10 0 5 0.93 0.14
12 -1 -5 16.51 1.23
-12 -1 5 15.29 1.27
12 -1 -5 16.71 1.26
12 -1 -5 15.72 1.27
-12 -1 5 17.23 1.32
-12 -1 5 14.32 1.14
12 1 -5 16.8 1.25
12 1 -5 15.97 1.27
12 1 -5 14.95 1.21
11 -1 -5 1.81 0.26
11 -1 -5 1.72 0.26
11 -1 -5 1.55 0.23
11 1 -5 1.93 0.23
11 1 -5 1.59 0.21
11 1 -5 1.62 0.22
10 -1 -5 11.93 1.07
10 -1 -5 11.99 0.91
10 -1 -5 11.81 1.03
10 1 -5 13.63 1.06
10 1 -5 14.53 1.04
10 1 -5 12.71 1.11
10 1 -5 12.63 1.01
9 -1 -5 2.18 0.28
-9 -1 5 2.31 0.32
9 -1 -5 2.17 0.26
9 -1 -5 1.95 0.26
9 -1 -5 1.67 0.3
-9 -1 5 1.28 0.27
9 -1 -5 1.84 0.24
-9 1 5 1.7 0.32
-9 1 5 1.97 0.3
9 1 -5 1.66 0.25
9 1 -5 2.14 0.23
-9 1 5 1.76 0.27
9 1 -5 2.33 0.25
9 1 -5 1.91 0.27
9 1 -5 1.97 0.24
8 -1 -5 15.54 1.11
8 -1 -5 15.68 1.09
8 -1 -5 14.16 1.17
8 -1 -5 14.87 1.06
-8 -1 5 12.93 1.19
-8 -1 5 12.81 1.25
8 -1 -5 12.86 0.93
-8 -1 5 11.59 1.11
8 1 -5 11 1.17
-8 1 5 13.38 1.23
-8 1 5 12.32 1.21
8 1 -5 13.45 1.07
-8 1 5 14.11 1.16
8 1 -5 11.64 1.01
8 1 -5 12.22 1.12
8 1 -5 12.11 1.03
-7 -1 5 16.72 1.31
-7 -1 5 14.41 1.25
7 -1 -5 12.9 1.09
7 -1 -5 14.2 0.97
7 -1 -5 14.08 1.22
-7 -1 5 14.72 1.18
7 -1 -5 15.84 1.22
-7 -1 5 16.51 1.34
7 -1 -5 15.31 1.13
7 -1 -5 16.06 1.17
-7 1 5 13.4 1.28
-7 1 5 13.78 1.27
7 1 -5 13.05 1.22
7 1 -5 12.59 1.18
7 1 -5 11.45 1.05
7 1 -5 12.76 1.08
7 1 -5 12.38 1.12
7 1 -5 12.25 1.23
6 -1 -5 94.87 6.84
6 -1 -5 102.57 8.12
6 -1 -5 100.83 8.53
6 -1 -5 95.52 8.01
-6 -1 5 122.46 9.09
6 -1 -5 90.86 7.84
-6 -1 5 116.89 9.17
-6 -1 5 115.63 8.88
6 -1 -5 113.56 8.47
6 -1 -5 89.79 7.75
-6 1 5 106.21 9.12
-6 1 5 117.16 8.9
6 1 -5 107.66 8.44
6 1 -5 109.59 8.09
-6 1 5 117.09 9.07
6 1 -5 105.6 8.96
6 1 -5 94.89 8.51
6 1 -5 105.95 7.83
6 1 -5 118.53 8.8
-5 -1 5 38.64 3.44
5 -1 -5 38.62 3.3
-5 -1 5 40.83 3.57
-5 -1 5 38.97 3.63
-5 -1 5 40.27 3.53
5 -1 -5 35.99 3.05
5 1 -5 45.58 3.41
-5 1 5 44.67 3.52
-5 1 5 42.93 3.54
5 1 -5 41.87 3.47
-4 -1 5 41.32 3.5
-4 -1 5 42.52 3.59
4 1 -5 41.79 3.46
-4 1 5 42.27 3.6
-4 1 5 44.25 3.58
-4 1 5 38.52 3.66
4 1 -5 39.13 3.52
4 1 -5 44.38 3.2
-3 -1 5 379.73 32.5
-3 -1 5 385.26 31.86
-3 -1 5 390.43 31.51
-3 1 5 335.64 32.51
3 1 -5 330.04 29.46
3 1 -5 408.94 28.15
-3 1 5 395.21 31.55
3 1 -5 357.46 31.14
3 1 -5 375.74 30.55
-2 -1 5 103.37 9.66
-2 -1 5 114.24 10.01
-2 -1 5 112.03 9.76
-2 -1 5 107.56 9.03
2 1 -5 113.56 9.37
2 1 -5 124.83 8.64
2 1 -5 104.09 9.55
-2 1 5 124.99 9.11
-2 1 5 113.58 9.02
-2 1 5 117.58 9.02
-2 1 5 119.18 9.75
-2 1 5 116.34 9.98
-1 -1 5 52.53 4.53
-1 1 5 53.02 4.25
1 1 -5 50.72 4.48
-1 1 5 53.04 4.59
-1 1 5 55.19 4.25
-1 1 5 55.99 4.29
1 1 -5 57.16 4.27
-1 1 5 54.25 4.7
1 1 -5 55.34 4.06
1 1 -5 47.08 4.39
0 -1 -5 173.6 14.23
0 -1 5 206.6 14.91
0 -1 5 180.3 15.92
0 -1 5 183.44 16.08
0 -1 -5 168.76 14.97
0 -1 5 195.23 16.51
0 1 -5 209.51 14.98
0 1 5 200.5 15.03
0 1 5 174.69 14.94
0 1 5 191.51 14.91
0 1 -5 197.7 14.25
0 1 -5 173.82 15.46
0 1 5 198.27 16.48
0 1 5 190.6 14.89
1 -1 5 5.5 0.44
1 -1 5 4.74 0.52
-1 -1 -5 4.77 0.43
-1 -1 -5 5.35 0.48
1 -1 5 4.13 0.47
-1 -1 -5 4.65 0.39
1 1 5 4.99 0.5
1 1 5 4.62 0.46
1 1 5 5.17 0.46
-1 1 -5 4.72 0.44
-1 1 -5 4.75 0.46
-1 1 -5 4.93 0.42
1 1 5 4.93 0.45
-1 1 -5 4.88 0.44
1 1 5 5.1 0.43
-2 -1 -5 79.07 6.93
2 -1 5 94.38 6.95
-2 -1 -5 88.28 7.26
2 -1 5 77.94 6.94
2 -1 5 72.03 7.65
2 1 5 84.71 6.91
-2 1 -5 87.96 6.61
2 1 5 94.62 6.94
-2 1 -5 89.4 7.25
2 1 5 96.01 6.94
-2 1 -5 84.69 7.16
-2 1 -5 99.29 6.96
2 1 5 90.3 6.99
2 1 5 88.56 7.65
2 1 5 79.74 7.29
-3 -1 -5 38.34 3.1
3 -1 5 42.48 3.15
3 -1 5 41.89 3.13
3 -1 5 38.29 3.44
-3 -1 -5 42.23 3.27
-3 -1 -5 37.66 2.81
-3 -1 -5 36.8 2.7
3 1 5 38.01 3.13
-3 1 -5 37.35 2.96
3 1 5 34.1 3.24
3 1 5 40.73 3.12
3 1 5 38.13 3.1
-3 1 -5 38.81 3.26
-3 1 -5 40.57 3.12
3 1 5 37.32 3.09
-3 1 -5 34.8 3.19
3 1 5 37.33 3.43
-4 -1 -5 16.6 1.31
4 -1 5 16.78 1.25
-4 -1 -5 13.84 1.08
-4 -1 -5 15.34 1.2
4 -1 5 11.93 1.3
4 -1 5 15.88 1.23
-4 -1 -5 13.7 1.05
4 -1 5 12.77 1.02
4 -1 5 14.84 0.97
-4 -1 -5 14.45 1.14
4 1 5 14.56 1.2
-4 1 -5 12.95 1.14
4 1 5 14.07 1.24
4 1 5 14.03 1.22
-4 1 -5 14.2 1.28
4 1 5 13.87 1.19
4 1 5 14.4 1.21
-4 1 -5 12.29 1.22
4 1 5 14.06 1.32
-4 1 -5 14.64 1.22
5 -1 5 20.84 1.34
5 -1 5 21.85 1.7
5 -1 5 19.72 1.42
-5 -1 -5 20.71 1.61
-5 -1 -5 19.93 1.57
-5 -1 -5 19.11 1.46
-5 -1 -5 19.08 1.49
-5 -1 -5 21.49 1.8
5 -1 5 21.15 1.69
-5 -1 -5 17.75 1.66
5 -1 5 18.5 1.41
5 -1 5 18.63 1.46
5 1 5 20.96 1.67
5 1 5 18.93 1.82
-5 1 -5 20.52 1.69
-5 1 -5 19.99 1.77
-5 1 -5 19.05 1.59
5 1 5 22.61 1.67
5 1 5 18.46 1.64
6 -1 5 6.83 0.49
-6 -1 -5 6.93 0.59
6 -1 5 6.34 0.52
6 -1 5 6.24 0.55
6 -1 5 5.56 0.52
-6 -1 -5 7 0.66
6 -1 5 5.57 0.61
-6 -1 -5 5.93 0.57
-6 -1 -5 5.74 0.67
6 -1 5 6.32 0.62
-6 -1 -5 4.83 0.58
6 1 5 6.91 0.61
-6 1 -5 7.26 0.68
6 1 5 7.01 0.6
-6 1 -5 6.35 0.57
-6 1 -5 7.13 0.63
-7 -1 -5 12.97 1.06
-7 -1 -5 12.53 0.94
7 -1 5 11.33 1.04
7 -1 5 12.15 0.82
-7 -1 -5 11.18 0.92
7 -1 5 10.96 0.9
7 -1 5 12.18 0.87
7 -1 5 11.39 0.91
-7 -1 -5 9.73 1.1
7 1 5 12.39 1.02
-7 1 -5 9.5 1.08
-7 1 -5 11.29 1.03
8 -1 5 5.07 0.47
-8 -1 -5 5.15 0.5
8 -1 5 5.84 0.43
8 -1 5 5.38 0.45
-8 -1 -5 6.04 0.59
8 -1 5 4.68 0.45
-8 -1 -5 4.96 0.47
8 1 5 4.71 0.43
8 1 5 4.5 0.44
8 1 5 5.06 0.41
-9 -1 -5 0.37 0.15
9 -1 5 0.58 0.12
9 -1 5 0.47 0.12
-9 -1 -5 0.36 0.12
9 -1 5 0.28 0.11
-9 -1 -5 0.63 0.2
-9 1 -5 0.46 0.14
9 1 5 0.64 0.12
-9 1 -5 0.34 0.12
9 1 5 0.47 0.11
9 1 5 0.41 0.11
10 -1 5 0.61 0.12
10 -1 5 0.47 0.1
-10 -1 -5 0.39 0.14
-10 -1 -5 0.48 0.12
-10 1 -5 0.65 0.13
10 1 5 0.6 0.11
10 1 5 0.6 0.1
-10 1 -5 0.47 0.16
12 -2 -5 13.42 1.04
-12 -2 5 12.82 1.1
-12 -2 5 12.34 1.07
12 -2 -5 12.4 1.05
12 2 -5 14.46 1.05
12 2 -5 14.32 1.07
-11 -2 5 2.43 0.37
11 -2 -5 1.79 0.26
11 -2 -5 2.06 0.23
11 -2 -5 2.11 0.29
-11 -2 5 1.95 0.34
11 -2 -5 2.31 0.27
11 2 -5 2.4 0.25
11 2 -5 2.12 0.25
-10 -2 5 0.27 0.17
-10 -2 5 0.17 0.14
10 -2 -5 0.34 0.14
-10 -2 5 0.09 0.11
10 -2 -5 0.14 0.11
-10 -2 5 0.21 0.16
10 -2 -5 0.23 0.12
10 -2 -5 0.21 0.1
10 2 -5 0.24 0.12
10 2 -5 0.13 0.09
10 2 -5 0.16 0.09
10 2 -5 0.09 0.07
9 -2 -5 14.45 1.39
9 -2 -5 14.62 1.11
-9 -2 5 16.92 1.3
9 -2 -5 16.17 1.31
9 -2 -5 15.08 1.27
9 -2 -5 15.8 1.33
9 2 -5 17.15 1.29
9 2 -5 15.5 1.34
9 2 -5 15.47 1.23
8 -2 -5 8.76 0.74
8 -2 -5 7.09 0.61
8 -2 -5 8.82 0.76
8 -2 -5 8.6 0.79
8 -2 -5 8.16 0.61
-8 -2 5 6.79 0.8
-8 -2 5 7.85 0.8
8 -2 -5 7.96 0.7
8 -2 -5 7.07 0.74
-8 2 5 7.53 0.78
8 2 -5 7.27 0.71
8 2 -5 7.14 0.73
-8 2 5 7.8 0.73
8 2 -5 6.87 0.74
8 2 -5 7.91 0.65
8 2 -5 7.69 0.68
7 -2 -5 29.17 2.16
7 -2 -5 24.47 1.69
-7 -2 5 25.25 2.28
7 -2 -5 23.84 2
7 -2 -5 25.29 1.93
-7 -2 5 26.38 2.24
7 -2 -5 27.57 2.05
7 -2 -5 24.04 1.97
7 -2 -5 26.84 2.13
7 -2 -5 23.8 1.77
-7 2 5 25.34 2.22
7 2 -5 21.06 2.09
7 2 -5 24.25 2.08
7 2 -5 21.18 2.18
-7 2 5 26.42 2.09
-7 2 5 25.55 2.2
7 2 -5 24.19 1.89
7 2 -5 25.81 2.15
6 -2 -5 13.77 1.17
6 -2 -5 13.24 1.04
6 -2 -5 14.09 1
6 -2 -5 13.83 1.2
6 -2 -5 12.52 1
6 -2 -5 13.85 1.18
6 -2 -5 11.67 1.2
6 -2 -5 14.21 1.27
6 -2 -5 13.32 1.28
6 -2 -5 12.62 1.05
6 -2 -5 15.7 1.3
6 -2 -5 12.86 1.13
-6 -2 5 14.83 1.33
-6 -2 5 14.44 1.37
-6 2 5 17.39 1.25
-6 2 5 16.08 1.3
-6 2 5 17.03 1.32
6 2 -5 15.74 1.29
5 -2 -5 41.95 2.81
5 -2 -5 34.99 3.15
5 -2 -5 36.29 2.39
-5 -2 5 40.18 3.34
5 -2 -5 38.51 2.7
5 -2 -5 34.57 2.64
5 -2 -5 40.34 2.94
5 -2 -5 36.64 3.01
5 -2 -5 36.13 2.51
5 -2 -5 40.69 2.91
5 -2 -5 39.64 2.99
5 -2 -5 34.68 2.69
-5 -2 5 41.61 3.41
5 -2 -5 37.89 3.17
5 -2 -5 35.61 2.85
5 -2 -5 34.59 2.58
5 -2 -5 37.48 3.22
-5 2 5 40.83 3.31
-5 2 5 43.59 3.27
-5 2 5 38.24 3.32
5 2 -5 40.98 3.27
4 -2 -5 2.95 0.38
-4 -2 5 3.91 0.39
4 -2 -5 3.44 0.31
4 -2 -5 3.76 0.36
-4 -2 5 3.73 0.4
4 -2 -5 2.94 0.4
4 -2 -5 2.83 0.35
4 -2 -5 3.09 0.3
4 -2 -5 3.2 0.32
4 -2 -5 3.67 0.35
4 -2 -5 2.98 0.38
4 -2 -5 3.45 0.35
4 -2 -5 3.19 0.29
4 -2 -5 3.48 0.35
4 -2 -5 3.2 0.31
4 -2 -5 3.57 0.35
4 -2 -5 3.44 0.3
-4 -2 5 3.94 0.43
4 -2 -5 3.38 0.32
4 -2 -5 3.34 0.28
4 -2 -5 2.99 0.28
-3 -2 5 146.58 11.29
-3 -2 5 115.6 11.14
-3 -2 5 143.7 11.55
3 2 -5 138.15 10.81
3 2 -5 134.23 11.02
-3 2 5 125.3 10.47
-3 2 5 133.47 11.22
3 2 -5 142.67 9.96
-3 2 5 123.22 10.37
-3 2 5 127.08 11.48
-3 2 5 136.82 11.13
3 2 -5 126.46 10.43
-3 2 5 117.55 10.38
-2 -2 5 45.66 4.46
-2 -2 5 49.82 4.58
-2 2 5 43.71 4.09
-2 2 5 48.38 4.1
2 2 -5 52.86 4.26
-2 2 5 55.87 4.54
-2 2 5 55.15 4.15
-2 2 5 56.4 4.44
2 2 -5 56.88 3.93
2 2 -5 51.96 4.34
-2 2 5 49.6 4.1
-1 -2 5 51.96 4.16
-1 -2 5 53.98 4.63
1 2 -5 53.3 4.15
-1 2 5 51.98 4.14
-1 2 5 50.36 4.13
1 2 -5 52.84 4.3
-1 2 5 47.87 4.58
-1 2 5 53.19 4.19
-1 2 5 49.52 4.14
1 2 -5 54.35 3.96
1 2 -5 51.57 4.38
0 -2 5 0.5 0.13
0 -2 5 0.48 0.14
0 2 -5 0.17 0.07
0 2 5 0.14 0.08
0 2 5 0.17 0.09
0 2 -5 0.18 0.07
0 2 5 0.28 0.1
0 2 -5 0.18 0.07
0 2 -5 0.25 0.08
0 2 5 0.29 0.1
0 2 5 0.31 0.06
1 -2 5 5.97 0.61
-1 2 -5 6.36 0.59
-1 2 -5 6.51 0.57
1 2 5 6.24 0.56
1 2 5 5.52 0.64
1 2 5 5.53 0.58
1 2 5 7.48 0.62
1 2 5 7.09 0.61
-1 2 -5 7.41 0.56
-2 -2 -5 75.13 5.79
2 -2 5 79.91 6.5
-2 -2 -5 71.86 5.48
-2 -2 -5 84.38 6.77
2 -2 5 74.11 5.42
2 -2 5 74.75 5.63
-2 -2 -5 75.49 5.59
-2 -2 -5 73.21 6.45
2 -2 5 72.51 7.15
2 -2 5 69.29 4.99
-2 -2 -5 73.08 6.04
2 2 5 84.79 6.8
2 2 5 92.28 6.54
2 2 5 93.93 7.16
-2 2 -5 92.99 6.7
2 2 5 91.9 6.47
-2 2 -5 82.63 6.73
2 2 5 94.96 6.48
-3 -2 -5 8.88 0.85
3 -2 5 9.96 0.79
3 -2 5 9.58 0.78
3 -2 5 8.75 0.72
-3 -2 -5 9.67 0.82
3 -2 5 10.09 1.01
-3 -2 -5 10.61 0.81
-3 -2 -5 8.92 0.86
3 -2 5 9.85 0.82
-3 -2 -5 9.88 0.96
-3 2 -5 11.02 0.94
-3 2 -5 11.42 0.88
-3 2 -5 10.21 0.93
3 2 5 10.98 0.93
3 2 5 11.99 0.92
3 2 5 11.22 0.94
3 2 5 12.02 1.03
3 2 5 11.91 0.93
-3 2 -5 10.88 0.92
-4 -2 -5 4.82 0.47
-4 -2 -5 3.22 0.44
4 -2 5 4.45 0.48
-4 -2 -5 3.95 0.42
-4 -2 -5 4.54 0.47
4 -2 5 4.52 0.39
4 -2 5 4.25 0.35
-4 -2 -5 4.61 0.42
4 -2 5 4.49 0.4
4 -2 5 4.75 0.38
-4 -2 -5 4.45 0.45
4 2 5 3.84 0.41
-4 2 -5 3.63 0.41
-4 2 -5 3.49 0.41
4 2 5 4.39 0.44
4 2 5 3.66 0.42
4 2 5 4.12 0.46
-4 2 -5 3.43 0.42
-4 2 -5 3.81 0.4
4 2 5 4.05 0.41
-5 -2 -5 38.03 2.42
5 -2 5 30.48 2.3
5 -2 5 33.16 2.77
5 -2 5 34.4 2.41
5 -2 5 36.43 2.35
-5 -2 -5 31.18 2.89
5 -2 5 35.78 2.23
-5 -2 -5 34.16 2.56
-5 -2 -5 33.16 2.56
5 2 5 32.45 2.72
5 2 5 31.27 2.75
-5 2 -5 34.89 2.76
5 2 5 31.57 3
-5 2 -5 29.1 2.82
-5 2 -5 31.95 2.86
-5 2 -5 33.63 2.62
5 2 5 35.11 2.73
5 2 5 35.04 2.75
-6 -2 -5 28.06 2.15
6 -2 5 26.29 2
-6 -2 -5 27.47 2.03
6 -2 5 30.27 1.95
-6 -2 -5 23.91 2.39
6 -2 5 29.94 1.85
-6 -2 -5 30.15 2.03
6 -2 5 25 2.28
6 -2 5 24.64 1.9
-6 -2 -5 27.51 2.14
6 2 5 27.66 2.26
-6 2 -5 23.42 2.32
-6 2 -5 29.7 2.3
6 2 5 28.85 2.26
-6 2 -5 26.65 2.16
-7 -2 -5 3.38 0.46
7 -2 5 3.58 0.38
7 -2 5 3.36 0.35
7 -2 5 3.63 0.33
-7 -2 -5 3.82 0.44
-7 -2 -5 3.94 0.54
-7 -2 -5 3.27 0.39
8 -2 5 9.52 0.8
-8 -2 -5 10.33 0.92
8 -2 5 9.68 0.78
-8 -2 -5 10.39 0.85
-8 -2 -5 9.26 0.8
8 -2 5 10.43 0.74
8 2 5 10.93 0.81
8 2 5 9.63 0.75
-9 -2 -5 30.27 2.06
9 -2 5 28.9 2.01
9 -2 5 29.27 1.91
9 -2 5 25.33 2.03
-9 -2 -5 29.96 2.18
9 2 5 29.25 2.13
9 2 5 27.96 1.89
10 -2 5 0.49 0.1
-10 -2 -5 0.37 0.14
-10 -2 -5 0.55 0.13
10 -2 5 0.35 0.09
10 2 5 0.59 0.09
-10 2 -5 0.54 0.11
-10 2 -5 0.5 0.14
10 2 5 0.43 0.09
-11 -3 5 5.65 0.53
11 -3 -5 4.94 0.44
11 -3 -5 4.62 0.37
-11 -3 5 5.11 0.5
11 -3 -5 5.29 0.46
11 -3 -5 4.07 0.44
11 3 -5 4.8 0.42
11 3 -5 4.76 0.43
10 -3 -5 6.41 0.57
10 -3 -5 7.28 0.67
-10 -3 5 7.92 0.76
10 -3 -5 7.23 0.58
10 -3 -5 7.57 0.7
-10 -3 5 6.57 0.66
-10 -3 5 7.95 0.75
10 -3 -5 7.59 0.7
10 3 -5 7.55 0.69
10 3 -5 8.51 0.65
10 3 -5 9.38 0.68
-9 -3 5 7.47 0.71
9 -3 -5 5.33 0.46
9 -3 -5 5.02 0.6
-9 -3 5 5.45 0.6
9 -3 -5 5.6 0.58
-9 -3 5 5.35 0.64
9 -3 -5 6.1 0.56
9 -3 -5 6.02 0.58
9 -3 -5 4.99 0.47
9 3 -5 5.74 0.52
9 3 -5 5.14 0.49
9 3 -5 4.65 0.54
8 -3 -5 0.18 0.13
8 -3 -5 0.15 0.12
8 -3 -5 0.3 0.11
8 -3 -5 0.32 0.18
8 -3 -5 0.2 0.11
-8 -3 5 0.35 0.21
8 -3 -5 0.45 0.22
8 -3 -5 0.13 0.13
-8 -3 5 0.29 0.24
8 -3 -5 0.25 0.16
-8 -3 5 0.36 0.2
8 3 -5 0.2 0.1
8 3 -5 0.24 0.09
8 3 -5 0.4 0.16
-7 -3 5 12.02 1.32
7 -3 -5 12.44 1.01
7 -3 -5 10.96 1.15
7 -3 -5 13.29 1.13
7 -3 -5 14.2 1.26
7 -3 -5 12.74 1.25
-7 -3 5 14.79 1.22
-7 -3 5 14.37 1.06
-7 -3 5 12.25 1.28
7 -3 -5 12.52 1.02
-7 -3 5 13.07 1.31
7 -3 -5 13.1 1.18
7 -3 -5 12.47 0.99
7 -3 -5 13.49 1.22
7 -3 -5 15 1.3
7 -3 -5 12.62 0.97
-7 3 5 16.49 1.18
7 3 -5 16.81 1.23
-7 3 5 14.64 1.26
-6 -3 5 17.08 1.67
6 -3 -5 18.04 1.5
6 -3 -5 18.21 1.28
6 -3 -5 18.98 1.65
-6 -3 5 18.83 1.54
6 -3 -5 17.74 1.34
6 -3 -5 18.12 1.53
6 -3 -5 20.6 1.47
-6 -3 5 15.27 1.49
6 -3 -5 17.72 1.5
-6 -3 5 18.12 1.73
6 -3 -5 17.26 1.19
6 -3 -5 18.24 1.32
-6 -3 5 19.48 1.37
6 -3 -5 19.85 1.64
6 -3 -5 16.28 1.54
6 -3 -5 19.67 1.68
6 -3 -5 18.52 1.28
-6 3 5 16.4 1.61
6 3 -5 16.74 1.62
-6 3 5 18.18 1.55
6 3 -5 19.95 1.6
-5 -3 5 54.64 4.61
5 -3 -5 60.53 4.38
-5 -3 5 50.98 4.54
5 -3 -5 61.26 3.89
5 -3 -5 64.47 4.89
5 -3 -5 69.42 4.86
5 -3 -5 55.63 5.12
5 -3 -5 67 4.56
5 -3 -5 65 4.73
-5 -3 5 63.29 5.5
-5 -3 5 61.06 4.3
5 -3 -5 65.44 5.16
5 -3 -5 56.08 4.29
5 -3 -5 65.17 5.24
5 -3 -5 65.45 4.5
5 -3 -5 67.15 4.83
5 -3 -5 66.71 4.62
5 -3 -5 60.34 4.2
5 -3 -5 69.33 4.39
-5 -3 5 58.94 4.89
5 -3 -5 70.41 4.31
5 -3 -5 63.65 4.74
5 -3 -5 68.23 4.65
5 -3 -5 61.3 4.25
5 -3 -5 66.05 4.09
5 3 -5 64.29 5.32
-5 3 5 57.71 5.04
5 3 -5 68.93 5.22
5 3 -5 57.83 5.01
-5 3 5 52.69 5.25
4 -3 -5 18.57 1.77
4 -3 -5 19.73 1.43
4 -3 -5 19.51 1.48
4 -3 -5 19.12 1.45
4 -3 -5 20.87 1.79
-4 -3 5 19.1 1.6
4 -3 -5 19.23 1.79
4 -3 -5 20.32 1.6
4 -3 -5 18.49 1.4
4 -3 -5 20.99 1.57
4 -3 -5 20.21 1.56
4 -3 -5 21.36 1.63
-4 -3 5 18.9 1.67
-4 -3 5 17.86 1.34
4 -3 -5 20.62 1.69
4 -3 -5 19.49 1.31
4 -3 -5 19.29 1.62
-4 -3 5 21.15 1.9
4 -3 -5 19.71 1.55
4 -3 -5 18.67 1.46
4 -3 -5 20.33 1.66
4 -3 -5 19.42 1.44
4 -3 -5 18.52 1.51
-4 3 5 20.02 1.75
-4 3 5 18.28 1.76
-4 3 5 22.2 1.79
-4 3 5 21.47 1.68
4 3 -5 21.27 1.59
4 3 -5 21.41 1.77
4 3 -5 23.73 1.74
4 3 -5 21.43 1.66
-3 -3 5 44.36 4.29
3 -3 -5 50.67 3.79
3 -3 -5 44.87 4.02
3 -3 -5 52.19 3.33
3 -3 -5 51.18 3.49
3 -3 -5 49.33 3.55
3 -3 -5 48.26 3.28
3 -3 -5 48.1 3.35
-3 -3 5 54.59 4.41
3 -3 -5 50.79 3.41
-3 -3 5 42.4 3.75
-3 -3 5 47.12 3.54
3 -3 -5 50.61 3.6
3 -3 -5 52.21 3.81
3 -3 -5 49.29 3.04
3 -3 -5 49.71 3.34
3 -3 -5 49.04 4.1
3 -3 -5 52.36 3.75
-3 -3 5 42.95 3.35
3 -3 -5 50.51 3.18
3 -3 -5 50.91 3.66
3 -3 -5 46.07 3.69
3 -3 -5 48.34 3.41
3 -3 -5 48.98 3.59
3 -3 -5 53.17 4
-3 3 5 49.28 4.3
3 3 -5 47.7 3.73
3 3 -5 45.49 3.91
-3 3 5 52.61 4.18
-3 3 5 40.79 3.92
3 3 -5 46.68 4.14
3 3 -5 52.27 4.06
-3 3 5 45.11 3.89
-3 3 5 46.75 4.2
2 -3 -5 75.9 5.42
-2 -3 5 65.8 6.78
2 -3 -5 74.23 6.36
2 -3 -5 83.41 5.89
2 -3 -5 76.56 4.84
2 -3 -5 77.96 5.82
-2 -3 5 88.82 7
2 -3 -5 76.35 5.27
2 -3 -5 84.19 5.97
-2 -3 5 76.84 5.58
-2 -3 5 72.37 5.26
2 -3 -5 79.69 5.54
2 -3 -5 81.68 5.71
2 -3 -5 74.78 5.74
2 -3 -5 87.04 5.44
2 -3 -5 79.72 5.34
2 -3 -5 80.45 5.34
-2 -3 5 67.44 4.88
2 -3 -5 84.95 5.64
-2 -3 5 65.85 5.95
2 -3 -5 78.01 6.5
2 -3 -5 79.26 5.06
2 -3 -5 78.82 6.02
-2 -3 5 75.8 5.31
2 -3 -5 81.06 5.23
2 -3 -5 74.26 5.99
2 -3 -5 83.53 6.3
-2 3 5 80.31 6.91
-2 3 5 72.68 6.24
2 3 -5 87.71 6.49
2 3 -5 82.17 5.97
-2 3 5 75.77 6.25
-2 3 5 79.85 6.31
-2 3 5 78.85 6.24
2 3 -5 81.84 6.62
1 -3 -5 5.61 0.67
1 -3 -5 6.18 0.59
-1 -3 5 6.66 0.59
-1 -3 5 5.45 0.54
1 -3 -5 5.74 0.64
1 -3 -5 6.3 0.62
1 -3 -5 6.75 0.5
1 -3 -5 6.81 0.66
1 -3 -5 6.18 0.54
1 -3 -5 6.36 0.5
1 -3 -5 6.82 0.48
-1 -3 5 6.97 0.74
1 -3 -5 7.32 0.61
1 -3 -5 6.26 0.58
-1 -3 5 6.41 0.68
1 -3 -5 7.02 0.66
1 -3 -5 6.23 0.59
1 -3 -5 5.73 0.54
1 -3 -5 6.83 0.58
-1 3 5 6.67 0.61
1 3 -5 6.98 0.57
-1 3 5 6.98 0.68
-1 3 5 6.63 0.57
1 3 -5 6.96 0.64
1 3 -5 7.06 0.62
0 -3 -5 14.3 0.95
0 -3 -5 13.69 1.07
0 -3 -5 13.67 0.89
0 -3 -5 13.18 1.1
0 -3 -5 13.72 1.01
0 -3 -5 12.83 0.97
0 -3 5 11.94 1.04
0 -3 -5 13.78 1.19
0 -3 -5 11.38 1.22
0 -3 5 14.79 1.02
0 -3 -5 13.02 1.15
0 -3 -5 13.41 1.13
0 -3 5 12.76 1.01
0 -3 -5 12.22 1.16
0 -3 5 14.12 0.96
0 -3 -5 13.29 1.04
0 -3 5 13.16 1.02
0 -3 -5 13.83 1.12
0 -3 -5 12.89 1.01
0 -3 5 12.61 1.33
0 -3 -5 13.83 1.09
0 3 5 16.73 1.18
-1 -3 -5 18.7 1.86
1 -3 5 20.73 2.1
-1 -3 -5 24.45 1.72
-1 -3 -5 24.01 1.65
1 -3 5 20.97 1.59
-1 -3 -5 20.73 1.79
-1 -3 -5 21.59 1.42
-1 -3 -5 19.72 1.56
-1 -3 -5 24.36 1.75
-1 -3 -5 21.57 1.65
-1 -3 -5 23.85 1.62
1 -3 5 20.95 1.66
-1 -3 -5 19.39 1.95
1 -3 5 23.05 1.61
1 -3 5 24.79 1.5
-1 -3 -5 24.18 1.8
-1 -3 -5 23.23 1.79
1 3 5 23.04 1.84
-1 3 -5 24.34 1.93
1 3 5 23.19 2.09
-1 3 -5 22.55 1.84
-1 3 -5 23.22 1.77
-1 3 -5 22.82 1.97
1 3 5 23.47 1.88
-2 -3 -5 49.61 3.43
-2 -3 -5 47.41 3.62
-2 -3 -5 50.41 3.76
2 -3 5 47.44 3.07
2 -3 5 43.2 4.35
2 -3 5 42.88 3.3
-2 -3 -5 42.66 3.7
-2 -3 -5 47.2 3.36
2 -3 5 43.35 3.45
-2 -3 -5 49.19 3.57
2 -3 5 49.52 3.34
2 -3 5 46.63 3.36
-2 3 -5 52.73 3.76
-2 3 -5 50.25 3.92
2 3 5 51.88 3.96
-2 3 -5 53.74 4.08
2 3 5 54.18 4.38
2 3 5 50.78 3.92
-3 -3 -5 46.61 3.25
-3 -3 -5 47.31 3.29
-3 -3 -5 45.61 3.13
3 -3 5 42.19 2.77
3 -3 5 36.41 3.03
-3 -3 -5 42.73 3.39
-3 -3 -5 49.15 3.07
3 -3 5 45.65 3.01
3 3 5 42.29 3.54
3 3 5 44.29 3.57
3 3 5 44.91 3.55
-3 3 -5 41.91 3.66
-3 3 -5 41.01 3.38
3 3 5 46.69 3.94
3 3 5 42.14 3.59
-3 3 -5 39.93 3.53
-4 -3 -5 17.64 1.38
4 -3 5 15.5 1.21
-4 -3 -5 15.94 1.35
4 -3 5 17.57 1.29
4 -3 5 16.37 1.23
4 -3 5 15.11 1.12
-4 -3 -5 13.92 1.27
-4 -3 -5 16.97 1.27
4 -3 5 15.06 1.14
4 3 5 17.48 1.41
-4 3 -5 16.3 1.34
-4 3 -5 16.06 1.45
4 3 5 16.71 1.56
4 3 5 16.32 1.4
-4 3 -5 15.82 1.4
4 3 5 17.6 1.43
4 3 5 16.72 1.44
-5 -3 -5 79.61 5.49
5 -3 5 74.17 4.82
5 -3 5 85.84 5.23
-5 -3 -5 84.2 5.15
5 -3 5 77.14 5
-5 -3 -5 78.49 5.46
5 3 5 68.16 5.98
5 3 5 69.65 5.92
-5 3 -5 70.39 5.68
-5 3 -5 64.77 6.15
5 3 5 75.08 5.95
5 3 5 74.56 5.95
-5 3 -5 66.26 5.95
5 3 5 70.04 6.55
6 -3 5 36.14 2.55
6 -3 5 40.94 2.62
-6 -3 -5 32.89 2.66
6 -3 5 37.81 2.47
-6 -3 -5 36.64 2.67
-6 -3 -5 33.35 2.83
-6 -3 -5 36.89 2.84
6 -3 5 38.98 2.68
7 -3 5 6.04 0.5
-7 -3 -5 6.72 0.6
7 -3 5 4.9 0.47
7 -3 5 5.69 0.47
-7 -3 -5 5.33 0.63
7 -3 5 5.19 0.51
-7 -3 -5 5.21 0.59
8 -3 5 16.34 1.26
-8 -3 -5 15.02 1.35
8 -3 5 17.14 1.24
-8 -3 -5 19.93 1.33
-8 -3 -5 17.78 1.39
8 -3 5 17.77 1.18
8 3 5 15.74 1.29
9 -3 5 2.15 0.22
9 -3 5 1.85 0.22
9 -3 5 1.93 0.21
-9 -3 -5 2.4 0.27
-9 -3 -5 1.58 0.28
9 3 5 2.09 0.19
9 3 5 2.44 0.22
-10 -4 5 6.39 0.59
10 -4 -5 6.02 0.51
10 -4 -5 6.13 0.45
-10 -4 5 6.01 0.57
10 -4 -5 4.86 0.52
10 -4 -5 5.05 0.43
10 -4 -5 5.79 0.53
10 4 -5 6.6 0.51
10 4 -5 5.49 0.47
9 -4 -5 11.81 0.95
-9 -4 5 13.63 1.07
9 -4 -5 13.95 1.11
9 -4 -5 14.66 1.07
9 -4 -5 11.84 1.13
9 -4 -5 12.63 0.94
-9 -4 5 15.7 1.22
-9 -4 5 12.88 1.13
9 -4 -5 12.86 0.92
9 -4 -5 13.84 1.11
9 4 -5 12.03 1.11
9 4 -5 11.2 1.01
9 4 -5 13.51 1.07
8 -4 -5 1.72 0.23
8 -4 -5 1.39 0.23
8 -4 -5 1.73 0.22
8 -4 -5 1.23 0.26
-8 -4 5 2.74 0.54
8 -4 -5 1.56 0.31
8 -4 -5 1.84 0.33
8 -4 -5 1.88 0.35
8 -4 -5 1.58 0.21
-8 -4 5 2.23 0.38
-8 -4 5 1.38 0.34
8 4 -5 1.87 0.22
8 4 -5 2.03 0.32
7 -4 -5 18.36 1.58
7 -4 -5 20.05 1.46
-7 -4 5 15.93 1.74
7 -4 -5 19.17 1.29
7 -4 -5 20.96 1.72
7 -4 -5 18.58 1.38
7 -4 -5 19.84 1.39
7 -4 -5 21.91 1.8
-7 -4 5 24.79 1.72
7 -4 -5 16.8 1.62
7 -4 -5 21.18 1.76
7 -4 -5 20.1 1.44
6 -4 -5 31.11 2.69
6 -4 -5 26.18 2.53
-6 -4 5 30.49 2.46
-6 -4 5 26.56 2.4
6 -4 -5 30.72 2.19
6 -4 -5 33.18 2.11
6 -4 -5 32.44 2.4
6 -4 -5 31.04 2.18
6 -4 -5 30.96 2.46
-6 -4 5 25.8 2.57
6 -4 -5 33.48 2.67
6 -4 -5 31.19 1.98
6 -4 -5 31.95 2.71
-6 -4 5 33.15 2.24
6 -4 -5 32.18 2.51
6 -4 -5 30.3 2.23
6 -4 -5 31.98 2.14
5 -4 -5 16.64 1.28
5 -4 -5 19.33 1.46
-5 -4 5 16.1 1.33
5 -4 -5 18.28 1.38
5 -4 -5 17.1 1.26
5 -4 -5 15.23 1.6
5 -4 -5 16.84 1.29
5 -4 -5 16.71 1.57
5 -4 -5 17.24 1.23
5 -4 -5 16.86 1.28
5 -4 -5 17.65 1.41
-5 -4 5 13.52 1.63
5 -4 -5 18.26 1.16
5 -4 -5 18.64 1.52
-5 -4 5 14.59 1.38
-5 -4 5 16.49 1.53
5 -4 -5 18.98 1.52
5 -4 -5 19.55 1.4
5 -4 -5 18.09 1.4
5 -4 -5 16.87 1.31
5 -4 -5 17.95 1.22
5 -4 -5 16.83 1.45
-5 -4 5 15.17 1.46
5 -4 -5 17.2 1.59
5 -4 -5 17.35 1.45
5 4 -5 16.33 1.5
5 4 -5 15.96 1.54
-4 -4 5 19.83 1.81
4 -4 -5 21.85 1.66
4 -4 -5 22.31 1.97
4 -4 -5 21.82 1.55
4 -4 -5 23.07 1.78
4 -4 -5 23.13 1.86
4 -4 -5 21.16 1.78
4 -4 -5 19.55 1.92
4 -4 -5 21.31 1.58
4 -4 -5 21 1.69
4 -4 -5 21.11 1.59
4 -4 -5 21.54 1.49
4 -4 -5 21.64 1.43
4 -4 -5 22.87 1.76
4 -4 -5 21.06 1.53
4 -4 -5 23.32 1.83
4 -4 -5 21.28 1.57
4 -4 -5 21.73 1.96
4 -4 -5 20.44 1.68
4 -4 -5 22.42 1.71
4 -4 -5 21.33 1.62
-4 -4 5 19.99 1.46
-4 -4 5 21.47 1.77
4 4 -5 22.79 1.87
4 4 -5 20.15 1.79
4 4 -5 21.78 1.91
3 -4 -5 9.9 0.86
3 -4 -5 9.53 0.73
3 -4 -5 9.37 0.74
3 -4 -5 8.4 0.92
3 -4 -5 8.69 0.75
3 -4 -5 9.23 0.81
3 -4 -5 9.37 0.68
3 -4 -5 9.69 0.67
3 -4 -5 9.7 0.88
-3 -4 5 9.25 0.85
3 -4 -5 9.81 0.77
3 -4 -5 8.45 0.8
-3 -4 5 7.97 0.79
-3 -4 5 7.78 0.82
3 -4 -5 9.19 0.92
3 -4 -5 9.03 0.82
3 -4 -5 9.5 0.96
3 -4 -5 9.72 0.79
3 -4 -5 9.82 0.75
3 -4 -5 10.08 0.82
3 -4 -5 10.18 0.96
3 -4 -5 9.09 0.7
-3 -4 5 8.69 0.72
3 -4 -5 9.09 0.7
3 4 -5 7.4 0.82
3 4 -5 7.15 0.84
2 -4 -5 16.86 1.23
2 -4 -5 17.52 1.22
-2 -4 5 13.6 1.53
2 -4 -5 17.44 1.37
2 -4 -5 16.91 1.28
-2 -4 5 14.66 1.16
2 -4 -5 17.91 1.41
-2 -4 5 14.37 1.35
-2 -4 5 16.11 1.33
2 -4 -5 17.09 1.18
2 -4 -5 18.46 1.34
2 -4 -5 17.84 1.13
2 -4 -5 17.57 1.33
2 -4 -5 17.37 1.56
2 -4 -5 15.64 1.44
2 -4 -5 17.84 1.39
-2 -4 5 16.66 1.28
2 -4 -5 18.09 1.22
2 -4 -5 17.36 1.11
2 -4 -5 16.87 1.32
-2 -4 5 16.91 1.2
2 -4 -5 17.41 1.28
2 -4 -5 17.44 1.18
2 -4 -5 16.24 1.25
2 -4 -5 17.54 1.5
-2 4 5 12.88 1.39
2 4 -5 14.55 1.42
-2 4 5 13.17 1.47
2 4 -5 13.44 1.45
1 -4 -5 45.2 2.74
1 -4 -5 43.26 3.38
1 -4 -5 41.56 2.98
1 -4 -5 42.69 2.99
1 -4 -5 44.18 3.21
1 -4 -5 46.57 3.06
1 -4 -5 41.98 3.43
1 -4 -5 46.2 3.16
-1 -4 5 42.28 2.82
-1 -4 5 37.66 3.16
1 -4 -5 40.19 3.72
1 -4 -5 46.25 2.95
1 -4 -5 45.01 3.58
-1 -4 5 41.13 3
1 -4 -5 43.27 3.26
-1 -4 5 43.23 3.04
1 -4 -5 45.74 3.38
1 -4 -5 44.34 3.62
1 -4 -5 42.54 3.39
1 -4 -5 42.27 3.08
1 -4 -5 42.08 3.02
-1 4 5 40.57 3.5
-1 4 5 43.74 3.55
1 4 -5 44.83 3.73
-1 4 5 47.63 3.93
1 4 -5 41.3 3.34
1 4 -5 44.68 3.64
0 -4 -5 20.61 1.54
0 -4 5 20.34 1.49
0 -4 5 17.37 1.47
0 -4 -5 20.07 1.39
0 -4 -5 20.36 1.31
0 -4 5 19.82 1.49
0 -4 -5 16.86 1.81
0 -4 -5 21.06 1.48
0 -4 -5 21.01 1.51
0 -4 5 22.41 1.42
0 -4 -5 20.15 1.68
0 -4 -5 24.18 1.61
0 -4 -5 20.03 1.45
0 -4 5 18.7 1.53
0 -4 -5 21.23 1.65
0 -4 -5 21.77 1.69
0 -4 -5 20.49 1.6
0 -4 -5 20.29 1.75
0 4 5 20.31 1.91
0 4 -5 19.21 1.78
0 4 5 19.21 1.66
0 4 -5 20.09 1.74
0 4 -5 18.22 1.59
0 4 5 19.03 1.71
1 -4 5 2.55 0.35
-1 -4 -5 2.41 0.42
1 -4 5 2.34 0.34
-1 -4 -5 2.71 0.33
1 -4 5 2.8 0.38
1 -4 5 1.96 0.32
-1 -4 -5 2.73 0.32
-1 -4 -5 2.68 0.29
-1 -4 -5 2.49 0.37
1 -4 5 2.52 0.36
-1 -4 -5 2.56 0.33
-1 -4 -5 1.86 0.34
-1 -4 -5 2.37 0.3
-1 -4 -5 2.18 0.37
-1 -4 -5 2.27 0.23
-1 -4 -5 1.79 0.37
-1 4 -5 2.81 0.32
-1 4 -5 2.42 0.28
1 4 5 2.79 0.29
-1 4 -5 2.8 0.34
1 4 5 2.89 0.35
1 4 5 3.37 0.41
-2 -4 -5 47.29 3.52
-2 -4 -5 51.64 3.69
-2 -4 -5 52.95 3.44
2 -4 5 52.55 3.16
-2 -4 -5 49.25 3.5
-2 -4 -5 53.02 3.65
2 -4 5 49.34 3.4
-2 -4 -5 48.69 3.82
2 -4 5 44.77 3.36
2 -4 5 55.74 3.43
2 -4 5 45.57 3.51
-2 4 -5 43.88 4.2
-2 4 -5 48.89 4.12
2 4 5 48.92 4.01
2 4 5 45.24 3.96
2 4 5 51.22 4.44
-2 4 -5 46.27 3.79
3 -4 5 26.75 1.73
-3 -4 -5 25.8 2.1
-3 -4 -5 27.35 1.92
3 -4 5 24.05 1.82
3 -4 5 26.78 1.88
-3 -4 -5 28.31 2.07
-3 -4 -5 26.67 2.06
3 -4 5 26.73 1.96
3 -4 5 27.25 1.88
-3 -4 -5 23.87 1.94
3 4 5 24.88 2.21
-3 4 -5 23.46 2.31
3 4 5 28.81 2.21
3 4 5 29.04 2.45
-3 4 -5 24.06 2.07
3 4 5 24.24 2.23
-3 4 -5 25.99 2.25
3 4 5 24.48 2.16
-4 -4 -5 1.57 0.33
-4 -4 -5 2.45 0.34
4 -4 5 2.15 0.31
4 -4 5 2.45 0.31
-4 -4 -5 2.02 0.39
4 -4 5 2.54 0.35
-4 -4 -5 2.86 0.45
4 -4 5 2.29 0.34
-4 -4 -5 2.67 0.39
-5 -4 -5 6.05 0.57
5 -4 5 5.53 0.51
5 -4 5 5.93 0.54
-5 -4 -5 4.68 0.52
-5 -4 -5 5.26 0.6
5 -4 5 5.34 0.49
-5 -4 -5 4.26 0.59
5 -4 5 4.73 0.44
6 -4 5 25.85 1.88
-6 -4 -5 25.67 1.98
-6 -4 -5 21.12 2.08
6 -4 5 28.28 1.99
6 -4 5 31.36 1.95
-6 -4 -5 27.66 2.13
7 -4 5 16.13 1.11
-7 -4 -5 15.95 1.17
-7 -4 -5 14.48 1.23
-7 -4 -5 14.39 1.21
7 -4 5 13.38 1.05
7 -4 5 14.94 1.13
8 -4 5 5.32 0.4
-8 -4 -5 4.12 0.44
-8 -4 -5 5.05 0.47
8 -4 5 4.5 0.4
-8 -4 -5 6.02 0.46
8 4 5 4.89 0.35
8 4 5 4.26 0.39
9 -5 -5 0.84 0.15
9 -5 -5 0.82 0.12
-9 -5 5 0.73 0.2
9 -5 -5 0.69 0.11
9 -5 -5 0.82 0.15
9 5 -5 1.15 0.14
-8 -5 5 3.47 0.42
-8 -5 5 2.49 0.37
8 -5 -5 3.25 0.37
8 -5 -5 2.92 0.33
8 -5 -5 2.73 0.28
-8 -5 5 3.09 0.37
8 -5 -5 3.23 0.35
8 -5 -5 2.85 0.27
8 -5 -5 2.63 0.27
8 5 -5 2.52 0.26
8 5 -5 3.16 0.34
8 5 -5 2.84 0.29
-7 -5 5 16.89 1.55
7 -5 -5 17.81 1.29
-7 -5 5 19.92 1.48
7 -5 -5 17.18 1.23
7 -5 -5 16.48 1.4
7 -5 -5 20.04 1.51
7 -5 -5 18.8 1.28
7 -5 -5 18.23 1.23
7 -5 -5 16.12 1.45
7 5 -5 15.15 1.33
-6 -5 5 3.39 0.59
6 -5 -5 4.24 0.41
6 -5 -5 4.26 0.4
6 -5 -5 4.52 0.53
6 -5 -5 4.43 0.59
6 -5 -5 4.34 0.39
6 -5 -5 4.63 0.41
6 -5 -5 4.46 0.38
-6 -5 5 4.55 0.45
6 -5 -5 3.61 0.52
6 -5 -5 4.62 0.48
-6 -5 5 4.98 0.6
5 -5 -5 1.95 0.45
5 -5 -5 2.56 0.28
-5 -5 5 2 0.42
5 -5 -5 2.56 0.34
5 -5 -5 2.17 0.27
-5 -5 5 1.97 0.47
5 -5 -5 2.26 0.28
5 -5 -5 2.31 0.33
5 -5 -5 2.13 0.35
5 -5 -5 2.54 0.28
5 -5 -5 3.14 0.44
5 -5 -5 2.1 0.41
5 -5 -5 2.45 0.28
-5 -5 5 2.7 0.39
4 -5 -5 15.51 1.08
-4 -5 5 14.77 1.34
4 -5 -5 14.53 1.22
4 -5 -5 15.59 1.13
4 -5 -5 15.49 1.16
4 -5 -5 15.35 1.26
4 -5 -5 17.04 1.25
-4 -5 5 14.49 1.22
4 -5 -5 15.66 1.12
4 -5 -5 15.1 1.16
4 -5 -5 14.16 1.46
4 -5 -5 14.61 1.05
4 -5 -5 14.68 1.18
4 -5 -5 17.39 1.38
-4 -5 5 13.07 1.05
4 -5 -5 13.67 1.23
4 -5 -5 15.78 1.33
-4 -5 5 14.31 1.34
4 -5 -5 14.92 1.29
4 -5 -5 16.34 1.3
3 -5 -5 7.31 0.83
3 -5 -5 8.27 0.7
3 -5 -5 7.81 0.74
3 -5 -5 7.69 0.63
3 -5 -5 8.21 0.73
3 -5 -5 8.01 0.7
3 -5 -5 8.01 0.64
3 -5 -5 7.64 0.67
-3 -5 5 7.25 0.73
3 -5 -5 7.65 0.66
3 -5 -5 8.4 0.75
3 -5 -5 8.58 0.62
3 -5 -5 8.02 0.61
-3 -5 5 7.12 0.76
3 -5 -5 8.32 0.89
-3 -5 5 7.91 0.66
3 -5 -5 7.82 0.81
3 -5 -5 7.85 0.68
-3 -5 5 8.05 0.81
2 -5 -5 2.23 0.41
-2 -5 5 1.74 0.33
2 -5 -5 2.11 0.34
2 -5 -5 2.26 0.34
2 -5 -5 2.19 0.32
2 -5 -5 2.54 0.49
2 -5 -5 2.46 0.26
2 -5 -5 2.29 0.26
-2 -5 5 2.65 0.44
-2 -5 5 2.32 0.35
-2 -5 5 2.05 0.34
2 -5 -5 2.53 0.47
2 -5 -5 1.73 0.3
2 -5 -5 2.18 0.28
2 -5 -5 1.83 0.33
2 -5 -5 2 0.3
2 -5 -5 2.05 0.32
1 -5 -5 3.95 0.34
1 -5 -5 3.04 0.41
1 -5 -5 3.69 0.41
1 -5 -5 3.84 0.42
1 -5 -5 3.47 0.39
-1 -5 5 4.15 0.44
1 -5 -5 3.71 0.57
1 -5 -5 3.38 0.32
1 -5 -5 3.22 0.37
-1 -5 5 3.56 0.39
1 -5 -5 2.84 0.39
1 -5 -5 2.9 0.55
-1 -5 5 3.53 0.44
-1 -5 5 2.6 0.42
1 -5 -5 3.82 0.39
0 -5 -5 1.23 0.24
0 -5 -5 0.99 0.23
0 -5 -5 1.22 0.26
0 -5 -5 1.28 0.28
0 -5 5 0.88 0.23
0 -5 -5 0.98 0.3
0 -5 -5 1.04 0.24
0 -5 -5 1.16 0.27
0 -5 5 1 0.23
0 -5 -5 1.05 0.17
0 -5 5 0.9 0.22
0 -5 5 1.14 0.25
0 -5 -5 0.8 0.26
-1 -5 -5 5.44 0.53
-1 -5 -5 5.74 0.58
-1 -5 -5 4.23 0.6
-1 -5 -5 5.79 0.52
1 -5 5 5.83 0.52
1 -5 5 5.15 0.51
-1 -5 -5 5.54 0.58
1 -5 5 5.67 0.52
1 -5 5 5.79 0.53
-1 -5 -5 5.29 0.56
-1 -5 -5 5.85 0.55
-1 -5 -5 4.74 0.41
-1 -5 -5 5.36 0.48
1 -5 5 5.47 0.55
2 -5 5 11.34 0.92
2 -5 5 10.77 0.91
-2 -5 -5 10.8 0.91
2 -5 5 11.74 0.86
-2 -5 -5 10.75 0.93
-2 -5 -5 11.57 0.91
-2 -5 -5 11.56 1
-2 -5 -5 11.61 1
-2 -5 -5 10.85 0.99
2 -5 5 10 0.86
-3 -5 -5 10.52 0.97
-3 -5 -5 10.71 0.96
3 -5 5 9.61 0.8
-3 -5 -5 10.72 0.94
-3 -5 -5 10.87 0.88
3 -5 5 11.81 0.88
3 -5 5 9.6 0.78
3 -5 5 9.87 0.87
4 -5 5 3.48 0.37
4 -5 5 3.64 0.35
-4 -5 -5 3.79 0.42
-4 -5 -5 3.12 0.51
4 -5 5 3.72 0.41
-4 -5 -5 3.63 0.46
-4 -5 -5 3.97 0.43
4 -5 5 3.74 0.39
5 -5 5 11.18 0.84
5 -5 5 10.16 0.79
5 -5 5 9.03 0.7
5 -5 5 10.26 0.78
-5 -5 -5 10.03 0.85
-5 -5 -5 10.56 0.92
-6 -5 -5 11.86 1.02
-6 -5 -5 12.79 0.97
6 -5 5 12.46 0.91
6 -5 5 12.16 0.88
6 -5 5 12.72 0.94
-6 -5 -5 11.27 1.01
7 -5 5 2.39 0.24
-7 -5 -5 2.17 0.28
-7 -5 -5 2.69 0.27
7 -5 5 2.07 0.23
-7 -6 5 15.5 1.27
-7 -6 5 15.31 1.18
7 6 -5 15.89 1.28
7 6 -5 15.23 1.21
-6 -6 5 8.19 0.81
-6 -6 5 10.2 0.81
-5 -6 5 4.81 0.41
-5 -6 5 3.95 0.46
-5 -6 5 3.47 0.52
-4 -6 5 8.7 0.92
4 -6 -5 10.92 0.75
4 -6 -5 10.93 0.83
-4 -6 5 10.35 0.94
4 -6 -5 11.16 0.79
4 -6 -5 10.68 0.89
-4 -6 5 11.33 0.87
3 -6 -5 2.38 0.28
3 -6 -5 2.34 0.25
-3 -6 5 1.92 0.32
3 -6 -5 2.52 0.32
-3 -6 5 2.12 0.37
-3 -6 5 2.29 0.27
-3 -6 5 1.95 0.33
3 -6 -5 2.07 0.28
3 -6 -5 2.09 0.25
3 -6 -5 2.37 0.34
2 -6 -5 6.83 0.57
-2 -6 5 7.14 0.63
2 -6 -5 7.12 0.6
2 -6 -5 6.92 0.64
2 -6 -5 6.81 0.63
-2 -6 5 6.21 0.64
2 -6 -5 6.72 0.52
-2 -6 5 6.2 0.56
2 -6 -5 6.99 0.62
-1 -6 5 1 0.22
1 -6 -5 1.21 0.22
1 -6 -5 1.43 0.26
1 -6 -5 1.4 0.23
1 -6 -5 1.35 0.19
1 -6 -5 1.15 0.24
1 -6 -5 1.24 0.25
-1 -6 5 1.12 0.23
1 -6 -5 1.33 0.25
1 -6 -5 1.03 0.22
-1 -6 5 1.15 0.25
0 -6 -5 2.31 0.3
0 -6 -5 2.29 0.28
0 -6 5 2.41 0.33
0 -6 -5 1.85 0.31
0 -6 -5 2.24 0.33
0 -6 5 2.23 0.31
0 -6 5 2.66 0.3
0 -6 -5 2.54 0.29
0 -6 -5 2.6 0.38
0 -6 5 2.35 0.28
0 -6 -5 2.08 0.31
-1 -6 -5 18.57 1.41
-1 -6 -5 20.36 1.58
-1 -6 -5 21.58 1.47
-1 -6 -5 19.99 1.51
1 -6 5 21.08 1.45
1 -6 5 21.52 1.38
-1 -6 -5 20.33 1.58
-1 -6 -5 20.19 1.63
1 -6 5 16.57 1.47
1 -6 5 20.69 1.45
-2 -6 -5 1.86 0.28
-2 -6 -5 1.65 0.31
2 -6 5 1.61 0.23
2 -6 5 2.12 0.26
-2 -6 -5 1.44 0.27
-2 -6 -5 1.92 0.28
2 -6 5 1.71 0.23
-2 -6 -5 1.95 0.27
2 -6 5 2.01 0.27
3 -6 5 4.35 0.36
-3 -6 -5 4.06 0.45
-3 -6 -5 2.99 0.43
3 -6 5 3.9 0.38
3 -6 5 5.29 0.41
-3 -6 -5 4.77 0.43
-3 -6 -5 4.17 0.43
3 -6 5 4.18 0.35
4 -6 5 1.17 0.17
-4 -6 -5 0.89 0.18
-4 -6 -5 1.24 0.19
4 -6 5 1.15 0.16
4 -6 5 1.29 0.18
-4 -6 -5 0.91 0.21
-4 -6 -5 1.08 0.23
-5 -6 -5 0.6 0.14
5 -6 5 0.63 0.11
-5 -6 -5 0.56 0.15
-2 -7 5 2.35 0.26
1 -7 -5 1.36 0.2
-1 -7 5 1.49 0.2
1 -7 -5 1.37 0.21
0 -7 -5 9.85 0.83
0 -7 -5 10.4 0.86
0 -7 5 10.99 0.77
13 0 -6 2.55 0.26
-13 0 6 2.38 0.29
12 0 -6 2.56 0.28
12 0 -6 2.35 0.26
12 0 -6 2.34 0.28
11 0 -6 6.36 0.57
11 0 -6 6.45 0.59
11 0 -6 6.86 0.59
10 0 -6 10.23 0.84
10 0 -6 9.82 0.9
10 0 -6 9.72 0.86
10 0 -6 9.97 0.82
-9 0 6 3.89 0.48
9 0 -6 4.51 0.42
9 0 -6 5.05 0.44
-9 0 6 4.4 0.51
9 0 -6 4.16 0.46
-9 0 6 3.6 0.44
9 0 -6 4.49 0.42
-8 0 6 34.36 2.84
8 0 -6 34.59 2.51
8 0 -6 28.63 2.63
-8 0 6 31.14 2.77
8 0 -6 33.88 2.63
8 0 -6 32.55 2.44
8 0 -6 27.95 2.75
-8 0 6 33.7 2.64
8 0 -6 31.99 2.4
-7 0 6 32.75 2.78
7 0 -6 31.87 2.38
7 0 -6 29.31 2.59
7 0 -6 29.1 2.69
7 0 -6 33.18 2.46
7 0 -6 34.64 2.59
-7 0 6 35.04 2.73
-7 0 6 30.92 2.79
7 0 -6 27.33 2.34
6 0 -6 11.56 1.04
-6 0 6 14.17 1.2
6 0 -6 14.55 1.15
6 0 -6 12.79 1.17
-6 0 6 13.56 1.23
6 0 -6 12.31 1.14
6 0 -6 13.79 1.08
-6 0 6 13.62 1.24
6 0 -6 13.71 1.17
5 0 -6 3.88 0.44
5 0 -6 4.69 0.47
5 0 -6 5.18 0.47
-5 0 6 5.58 0.49
-5 0 6 4.87 0.5
5 0 -6 4.37 0.43
-5 0 6 5.09 0.49
5 0 -6 4.5 0.47
-5 0 6 5.65 0.49
-4 0 6 23.08 1.98
-4 0 6 23.99 2.01
4 0 -6 19.8 1.9
4 0 -6 22.79 1.89
-3 0 6 64.99 5.23
3 0 -6 60.97 4.63
-3 0 6 70.43 5.36
-3 0 6 56.17 4.81
-3 0 6 58.97 5.17
3 0 -6 54.1 5.01
-2 0 6 0.85 0.12
-2 0 6 0.62 0.13
-2 0 6 0.71 0.1
2 0 -6 0.67 0.1
-2 0 6 0.8 0.13
2 0 -6 0.53 0.1
1 0 -6 2.12 0.21
-1 0 6 1.95 0.2
1 0 -6 1.76 0.18
-1 0 6 1.96 0.23
1 0 -6 1.64 0.18
0 0 -6 277.31 26.53
0 0 6 341.42 28.29
0 0 -6 326.23 25.71
0 0 -6 300.09 24.44
0 0 6 357.88 25.58
0 0 6 319.25 25.67
0 0 6 350.07 27.59
1 0 6 8.66 0.96
1 0 6 10.26 0.94
-1 0 -6 10.31 0.87
-1 0 -6 11.48 0.93
1 0 6 10.28 0.85
-1 0 -6 9.99 0.81
1 0 6 10.43 0.88
2 0 6 63.77 4.92
2 0 6 61.85 4.91
2 0 6 60.97 5.28
-2 0 -6 67.66 5.16
-2 0 -6 61.92 4.93
2 0 6 57.66 5.43
-2 0 -6 56.66 4.67
3 0 6 104.89 10.18
-3 0 -6 128.01 9.94
-3 0 -6 103.05 9.01
3 0 6 123.22 9.49
3 0 6 128.47 9.48
-3 0 -6 125.04 9.51
3 0 6 123 10.47
-4 0 -6 0.48 0.15
-4 0 -6 0.4 0.12
-4 0 -6 0.41 0.14
4 0 6 0.38 0.11
4 0 6 0.58 0.15
4 0 6 0.43 0.11
-5 0 -6 1.71 0.33
-5 0 -6 1.41 0.24
5 0 6 2.01 0.25
-5 0 -6 1.99 0.26
5 0 6 1.91 0.2
5 0 6 1.93 0.26
6 0 6 32.78 2.54
6 0 6 35.32 2.47
-6 0 -6 35.55 3
-6 0 -6 34.16 2.43
6 0 6 37.54 2.27
-6 0 -6 35.96 2.66
6 0 6 34.02 2.83
6 0 6 33.63 2.83
-6 0 -6 30.28 2.82
7 0 6 20.92 1.39
7 0 6 19.99 1.55
7 0 6 21.26 1.48
-7 0 -6 19.92 1.51
-7 0 -6 22.11 1.56
-7 0 -6 18.66 1.62
-7 0 -6 22.42 1.65
7 0 6 19.46 1.52
8 0 6 3.02 0.27
-8 0 -6 3.31 0.34
8 0 6 2.47 0.27
8 0 6 3.09 0.3
-8 0 -6 2.85 0.32
-8 0 -6 2.95 0.44
-9 0 -6 0.31 0.15
-9 0 -6 0.48 0.15
9 0 6 0.45 0.1
-9 0 -6 0.79 0.16
9 0 6 0.39 0.11
9 0 6 0.31 0.09
10 0 6 34.37 2.3
-10 0 -6 33.5 2.45
10 0 6 35.43 2.18
-10 0 -6 30.36 2.33
-12 -1 6 2.1 0.31
12 -1 -6 2.35 0.24
12 -1 -6 2.24 0.25
12 -1 -6 2.24 0.26
-12 -1 6 2.25 0.29
12 1 -6 1.56 0.23
12 1 -6 1.68 0.22
-11 -1 6 3.07 0.32
11 -1 -6 3.88 0.38
11 -1 -6 3.48 0.35
11 -1 -6 3.65 0.37
11 1 -6 3.13 0.33
11 1 -6 2.99 0.34
11 1 -6 2.87 0.31
10 -1 -6 17 1.37
10 -1 -6 17.97 1.41
10 -1 -6 17.12 1.42
10 -1 -6 15.44 1.48
10 1 -6 17.53 1.4
10 1 -6 18.44 1.37
10 1 -6 17.28 1.34
10 1 -6 17.73 1.48
9 -1 -6 26.9 2.21
9 -1 -6 28.53 2.11
-9 -1 6 21.97 2.33
9 -1 -6 29.64 2.07
9 -1 -6 27.57 2.02
-9 1 6 26.27 2.33
9 1 -6 27.54 2.07
-9 1 6 22 2.36
9 1 -6 25.41 1.98
-9 1 6 24.18 2.2
9 1 -6 26.83 2.01
9 1 -6 28.11 2.18
-8 -1 6 29.73 2.48
-8 -1 6 23.87 2.26
8 -1 -6 28.12 1.86
-8 -1 6 27.63 2.5
-8 -1 6 25.97 2.39
8 -1 -6 32.69 2.34
8 -1 -6 28.25 2.32
8 -1 -6 28.7 2.12
8 -1 -6 32.03 2.22
8 1 -6 27.27 2.1
-8 1 6 26.1 2.3
-8 1 6 28.07 2.44
8 1 -6 29.34 2.29
8 1 -6 25.72 2.17
-8 1 6 23.03 2.44
-7 -1 6 51.45 4.46
-7 -1 6 52.84 4.52
7 -1 -6 50.25 4.21
7 -1 -6 43.35 3.35
7 -1 -6 58.63 4.19
-7 -1 6 46.22 4.15
-7 -1 6 50.67 4.36
7 -1 -6 53.48 4
7 -1 -6 48.25 3.82
7 -1 -6 50.11 3.87
7 1 -6 54.54 3.97
7 1 -6 48.86 4.37
-7 1 6 54.26 4.47
7 1 -6 54.34 4.31
7 1 -6 49.18 4.17
7 1 -6 55.9 4.15
7 1 -6 54.75 3.84
6 -1 -6 13.82 1.21
-6 -1 6 13.81 1.34
6 -1 -6 12.78 1.14
6 -1 -6 13.89 1.27
6 -1 -6 12.44 1.2
-6 -1 6 13.88 1.37
-6 -1 6 15.22 1.31
6 -1 -6 16.38 1.29
6 -1 -6 14.03 1.17
-6 -1 6 13.56 1.36
6 1 -6 15.39 1.18
6 1 -6 15.59 1.14
-6 1 6 16.56 1.35
6 1 -6 15.73 1.25
6 1 -6 14.15 1.29
6 1 -6 16.03 1.29
-6 1 6 16.7 1.35
6 1 -6 14.29 1.26
-5 -1 6 19.04 1.75
-5 -1 6 21.12 1.8
5 -1 -6 19.49 1.52
-5 -1 6 21.54 1.79
5 -1 -6 19.5 1.57
5 -1 -6 20.84 1.66
5 -1 -6 20.64 1.67
-5 -1 6 19.69 1.69
5 -1 -6 15.94 1.55
-5 1 6 22.98 1.72
5 1 -6 16.1 1.64
5 1 -6 17.14 1.54
-5 1 6 21.38 1.75
-5 1 6 20.79 1.74
5 1 -6 17.93 1.69
5 1 -6 19.79 1.67
5 1 -6 20.44 1.64
-4 -1 6 29.6 2.37
-4 -1 6 29.26 2.34
-4 -1 6 25.95 2.28
-4 -1 6 25.74 2.22
-4 1 6 28.27 2.28
-4 1 6 23.4 2.32
-4 1 6 25.31 2.3
4 1 -6 26.24 2.2
4 1 -6 21.93 2.23
4 1 -6 27.82 2.04
-3 -1 6 41.47 3.38
-3 1 6 38.09 3.37
-3 1 6 39.15 3.47
-3 1 6 41.54 3.4
3 1 -6 36.8 3.31
3 1 -6 38.97 3.26
-2 -1 6 97.19 7.6
-2 -1 6 86.03 7
-2 -1 6 80.93 7.49
-2 -1 6 97.08 7.78
2 1 -6 93.65 6.71
-2 1 6 85.83 7.75
2 1 -6 82.9 7.27
-2 1 6 86.33 6.99
-2 1 6 94.64 7.57
2 1 -6 93.71 7.05
2 1 -6 75.87 7.4
-1 -1 6 50.47 3.54
-1 -1 6 50.47 3.84
1 -1 -6 44.75 3.36
-1 -1 6 48.62 3.94
-1 -1 6 41.25 3.75
-1 1 6 42.66 3.81
1 1 -6 44.03 3.54
1 1 -6 42.79 3.37
-1 1 6 42.08 3.52
1 1 -6 38.69 3.64
-1 1 6 43.7 3.91
-1 1 6 45.15 3.57
-1 1 6 40.17 3.53
0 -1 6 60.26 4.71
0 -1 -6 56.98 4.36
0 -1 -6 56.24 4.14
0 -1 6 53.37 4.62
0 1 6 54.35 4.35
0 1 6 57.45 4.35
0 1 -6 55.25 4.37
0 1 6 56.55 4.82
0 1 -6 48.46 4.49
0 1 6 47.48 4.33
0 1 6 55.18 4.4
0 1 -6 53.16 4.15
0 1 -6 50.15 4.58
0 1 6 59.02 4.7
-1 -1 -6 88.61 7.14
-1 -1 -6 84.33 7.52
1 -1 6 82.97 8.32
1 1 6 94.54 7.5
1 1 6 105.96 7.52
1 1 6 98.89 8.3
-1 1 -6 102.06 7.17
-1 1 -6 95.14 7.77
1 1 6 97.7 7.51
2 -1 6 68.56 6.08
-2 -1 -6 77.47 6.37
2 -1 6 81.73 6.08
2 -1 6 74.18 6.73
-2 -1 -6 65.04 5.43
-2 -1 -6 66.99 5.66
-2 -1 -6 72.51 6.07
-2 1 -6 77.09 6.35
-2 1 -6 78.53 5.78
2 1 6 77.88 6.7
2 1 6 82.98 6.13
-2 1 -6 83.51 6.1
2 1 6 81.64 6.07
-2 1 -6 72.59 6.26
2 1 6 76.83 6.05
2 1 6 77.93 6.06
3 -1 6 4.51 0.39
-3 -1 -6 4.07 0.37
-3 -1 -6 3.63 0.41
3 -1 6 4.4 0.42
-3 -1 -6 3.62 0.35
-3 -1 -6 4.54 0.41
-3 -1 -6 4.47 0.43
-3 -1 -6 3.88 0.36
-3 1 -6 3.22 0.34
3 1 6 3.63 0.38
3 1 6 3.24 0.4
3 1 6 3.27 0.36
-3 1 -6 3.3 0.39
3 1 6 3.07 0.37
-3 1 -6 2.95 0.35
-3 1 -6 3.88 0.38
3 1 6 3.54 0.35
-4 -1 -6 22.84 2.1
4 -1 6 27.72 1.78
4 -1 6 23.48 1.86
-4 -1 -6 25.18 1.95
-4 -1 -6 30.66 2.08
4 -1 6 27.9 2.25
-4 -1 -6 24.85 2.21
-4 -1 -6 27.64 2.35
-4 -1 -6 25.42 1.91
4 -1 6 26.44 2.23
4 1 6 28.67 2.23
-4 1 -6 28.96 2.24
-4 1 -6 28.72 2.34
4 1 6 28.94 2.21
-4 1 -6 26.22 2.11
4 1 6 26.67 2.44
-5 -1 -6 14.09 1.11
5 -1 6 14.91 1.28
5 -1 6 13.2 1.07
-5 -1 -6 15.13 1.15
-5 -1 -6 15.32 1.36
5 -1 6 15.1 1.12
-5 -1 -6 14.41 1.23
-5 -1 -6 16.56 1.25
5 -1 6 15.13 1
-5 -1 -6 12.72 1.24
5 -1 6 16.16 1.29
-5 1 -6 16.55 1.29
5 1 6 12.63 1.35
-5 1 -6 15.26 1.35
-5 1 -6 12.75 1.18
5 1 6 15.68 1.25
5 1 6 14.06 1.25
-6 -1 -6 53.61 4.77
-6 -1 -6 57.6 3.89
6 -1 6 54.65 4.54
-6 -1 -6 59.55 3.97
-6 -1 -6 62.53 4.17
6 -1 6 60.16 3.64
6 -1 6 57.67 3.95
6 -1 6 52.2 4.52
6 -1 6 57.86 3.86
-6 -1 -6 54.2 4.23
6 1 6 55.15 4.51
6 1 6 50.01 4.5
-6 1 -6 56.58 4.56
-6 1 -6 51.67 4.75
7 -1 6 7.65 0.67
7 -1 6 7.36 0.63
-7 -1 -6 8.41 0.7
7 -1 6 7.65 0.59
-7 -1 -6 8.44 0.71
-7 -1 -6 8.15 0.78
8 -1 6 5.77 0.5
-8 -1 -6 5.92 0.56
8 -1 6 5.7 0.47
-8 -1 -6 6.59 0.63
8 -1 6 6.33 0.53
-8 -1 -6 5.43 0.53
8 1 6 6.59 0.47
-8 1 -6 5.36 0.54
8 1 6 6.53 0.5
-8 1 -6 5.87 0.58
8 1 6 5.78 0.5
-9 -1 -6 33.88 2.38
-9 -1 -6 29.75 2.22
9 -1 6 33.23 2.09
-9 -1 -6 29.2 2.24
9 -1 6 34.38 2.22
9 1 6 29.02 2.33
-9 1 -6 31.13 2.25
9 1 6 30.11 2.19
9 1 6 33.84 2.09
-9 1 -6 32.45 2.37
-10 -1 -6 15.5 1.22
10 -1 6 15.63 1.06
10 -1 6 15.89 1.12
10 1 6 16.45 1.06
-10 1 -6 16.59 1.21
-10 1 -6 14.86 1.14
12 -2 -6 1.91 0.25
-12 -2 6 2.33 0.29
12 -2 -6 1.95 0.25
12 -2 -6 2.22 0.24
-12 -2 6 2.41 0.28
12 2 -6 2.42 0.24
12 2 -6 2.35 0.24
11 -2 -6 7.16 0.66
11 -2 -6 5.78 0.53
11 -2 -6 7.24 0.66
-11 -2 6 8.2 0.72
11 -2 -6 7.19 0.63
-11 -2 6 6.81 0.68
11 2 -6 8.67 0.64
11 2 -6 7.55 0.62
10 -2 -6 7.41 0.62
10 -2 -6 9.25 0.76
10 -2 -6 7.48 0.79
10 -2 -6 9.01 0.73
-10 -2 6 9.06 0.82
-10 -2 6 8.24 0.79
-10 -2 6 8.07 0.74
10 -2 -6 8.71 0.75
10 2 -6 7.57 0.75
10 2 -6 8 0.71
10 2 -6 7.81 0.69
9 -2 -6 3.15 0.34
9 -2 -6 3.38 0.46
9 -2 -6 3.79 0.43
9 -2 -6 3.96 0.43
9 -2 -6 3.39 0.4
9 2 -6 3.67 0.36
9 2 -6 3.79 0.38
9 2 -6 3.71 0.42
-8 -2 6 52.23 4.59
8 -2 -6 54.27 4.01
8 -2 -6 57.74 4.33
8 -2 -6 53.22 4.33
-8 -2 6 46.82 4.62
8 -2 -6 54.03 3.94
8 -2 -6 49.34 3.46
8 2 -6 58.26 4.08
8 2 -6 49.66 3.92
-8 2 6 53.96 4.3
-8 2 6 49.01 4.49
8 2 -6 53.75 4.26
8 2 -6 52.68 4.43
7 -2 -6 12.52 1.04
7 -2 -6 12.93 1.16
7 -2 -6 11.91 0.93
7 -2 -6 13.23 1.13
7 -2 -6 13.97 1.11
7 -2 -6 11.93 0.91
-7 -2 6 12.9 1.25
7 -2 -6 14.72 1.21
7 -2 -6 11.79 1.07
-7 -2 6 11.93 1.19
7 2 -6 12.44 1
7 2 -6 10.68 1.15
7 2 -6 13.23 1.05
-7 2 6 14.32 1.21
-7 2 6 12.4 1.19
7 2 -6 11.71 1.11
-7 2 6 12.16 1.11
7 2 -6 13.49 1.13
7 2 -6 13.11 1.15
6 -2 -6 34.68 3.2
6 -2 -6 44.86 3.39
-6 -2 6 45.01 3.64
6 -2 -6 43.92 3.11
6 -2 -6 45.29 3.4
6 -2 -6 43.78 2.88
6 -2 -6 41.82 3.18
6 -2 -6 41.2 3.05
6 -2 -6 42.68 3.12
6 -2 -6 36.41 2.8
6 -2 -6 38.63 2.85
6 -2 -6 41.15 3.43
-6 -2 6 44.03 3.57
6 -2 -6 40.9 2.69
6 -2 -6 39.31 2.74
6 2 -6 40.36 3.42
-6 2 6 42.12 3.48
6 2 -6 37.42 3.33
6 2 -6 35.96 3.47
6 2 -6 36.88 3.02
5 -2 -6 60.54 4.52
5 -2 -6 59.74 4.44
5 -2 -6 72.54 4.88
5 -2 -6 61.74 4.35
5 -2 -6 67.34 4.9
-5 -2 6 63.91 5.78
5 -2 -6 68.2 4.8
5 -2 -6 67.14 4.99
5 -2 -6 63.3 5.4
5 -2 -6 63.44 5.04
5 -2 -6 54.18 5.26
5 -2 -6 70.09 5.33
5 -2 -6 63.98 4.52
-5 -2 6 67.61 5.61
5 -2 -6 63.23 4.23
5 -2 -6 70.62 4.7
-5 -2 6 70.26 5.7
5 2 -6 70.97 5.42
-5 2 6 65.57 5.58
5 2 -6 62.1 5.5
5 2 -6 69.42 4.99
-5 2 6 72.03 5.49
5 2 -6 54.47 4.9
-5 2 6 63.23 5.61
4 -2 -6 1.07 0.14
4 -2 -6 1.21 0.16
4 -2 -6 0.78 0.13
4 -2 -6 0.65 0.18
4 -2 -6 1.55 0.24
4 -2 -6 0.8 0.16
4 -2 -6 0.88 0.14
4 -2 -6 0.77 0.2
4 -2 -6 0.89 0.22
4 -2 -6 0.91 0.14
-4 -2 6 0.75 0.17
4 -2 -6 0.75 0.17
4 -2 -6 0.75 0.22
-4 -2 6 0.75 0.18
4 -2 -6 0.93 0.18
4 -2 -6 0.98 0.2
4 -2 -6 1.07 0.16
4 -2 -6 1.02 0.17
4 -2 -6 1.24 0.19
4 -2 -6 1.09 0.21
-4 -2 6 0.85 0.23
3 -2 -6 79.33 5.93
3 -2 -6 89.93 5.83
3 -2 -6 86.54 6.07
3 -2 -6 85.04 5.3
3 -2 -6 89.01 6.55
3 -2 -6 79.66 6.36
3 -2 -6 86.27 5.54
3 -2 -6 84.81 6.88
-3 -2 6 98.92 7.63
3 -2 -6 80.14 6.52
-3 -2 6 96.59 7.46
3 -2 -6 74.05 7.07
3 -2 -6 79.26 5.84
3 -2 -6 86.31 5.96
3 -2 -6 94.97 6.17
3 -2 -6 80.87 6.4
3 -2 -6 81.96 5.78
3 -2 -6 78.81 6.28
-3 -2 6 83.71 7.34
3 -2 -6 87.15 6.23
3 -2 -6 81.72 5.73
3 -2 -6 79.78 6.57
3 2 -6 94.48 7.11
-3 2 6 91.93 7.56
-3 2 6 95.65 7.4
-3 2 6 97.55 6.84
3 2 -6 88.22 7.24
-3 2 6 77.31 6.82
-3 2 6 91.05 6.9
3 2 -6 85.37 6.85
2 -2 -6 74.54 5.51
2 -2 -6 74 6.63
2 -2 -6 79.61 5.68
2 -2 -6 79.45 5.46
-2 -2 6 84.18 7.1
2 -2 -6 78.93 6.11
2 -2 -6 79.83 5.05
2 -2 -6 75.27 6.75
2 -2 -6 76.13 5.57
2 -2 -6 77.96 6.25
2 -2 -6 76.93 5.66
2 2 -6 89.23 6.91
-2 2 6 92.8 7.06
-2 2 6 94.8 6.53
-2 2 6 83.83 6.53
-2 2 6 96.17 6.6
-1 -2 6 14.15 1.27
-1 -2 6 14 1.44
-1 2 6 14.25 1.26
-1 2 6 13.31 1.22
1 2 -6 15.19 1.32
1 2 -6 14.48 1.29
-1 2 6 16.51 1.4
-1 2 6 16.48 1.27
-1 2 6 15.8 1.29
1 2 -6 15.74 1.21
1 2 -6 16.15 1.25
0 -2 6 15.94 1.64
0 -2 6 20.2 1.48
0 -2 -6 14.98 1.31
0 -2 -6 17.02 1.27
0 -2 -6 16.43 1.38
0 -2 -6 14.71 1.52
0 2 6 15.91 1.41
0 2 6 18.78 1.61
0 2 6 17.87 1.48
0 2 -6 19.04 1.38
0 2 6 17.66 1.46
0 2 6 16.93 1.45
0 2 -6 18.84 1.44
0 2 -6 17.6 1.48
0 2 -6 17.18 1.5
-1 -2 -6 17.52 1.38
-1 -2 -6 17.16 1.44
1 -2 6 19.95 1.55
1 -2 6 16.87 1.34
-1 -2 -6 17.2 1.29
1 -2 6 16.14 1.18
1 2 6 17.48 1.67
-1 2 -6 19.68 1.44
1 2 6 18.77 1.54
-1 2 -6 18.35 1.54
1 2 6 18.02 1.52
1 2 6 16.68 1.49
1 2 6 19.37 1.52
-1 2 -6 18.66 1.5
2 -2 6 17.09 1.42
-2 -2 -6 15.14 1.33
-2 -2 -6 16.61 1.34
-2 -2 -6 17.33 1.27
2 -2 6 16.42 1.17
-2 -2 -6 16.55 1.21
-2 -2 -6 13.73 1.42
2 -2 6 16.63 1.54
2 -2 6 17.68 1.22
2 -2 6 15.22 1.07
-2 -2 -6 14.63 1.26
2 -2 6 14.74 1.16
-2 -2 -6 15.58 1.18
-2 2 -6 16 1.39
2 2 6 15.44 1.34
-2 2 -6 16.16 1.35
2 2 6 16.68 1.39
2 2 6 16.31 1.36
2 2 6 16.34 1.37
2 2 6 16.91 1.51
-2 2 -6 16.31 1.29
-3 -2 -6 17.77 1.29
-3 -2 -6 16.29 1.27
3 -2 6 17.4 1.18
3 -2 6 19 1.23
3 -2 6 16.23 1.51
-3 -2 -6 17.96 1.2
3 -2 6 16.21 1.42
3 -2 6 17.9 1.17
-3 -2 -6 18.12 1.24
-3 -2 -6 17.27 1.44
3 -2 6 16.55 1.08
3 2 6 13.87 1.48
3 2 6 14.97 1.35
-3 2 -6 14.06 1.38
3 2 6 14.91 1.36
-3 2 -6 15.23 1.36
-3 2 -6 12.88 1.38
3 2 6 14.3 1.33
3 2 6 15.14 1.37
-3 2 -6 15.13 1.29
-4 -2 -6 18 1.79
4 -2 6 23.51 1.94
4 -2 6 21.24 1.51
-4 -2 -6 23.3 1.65
-4 -2 -6 22.14 1.99
-4 -2 -6 23.67 1.77
4 -2 6 23.54 1.61
4 -2 6 24.13 1.67
4 -2 6 21.88 1.6
-4 -2 -6 20.31 1.67
-4 2 -6 20.24 1.92
4 2 6 22.56 1.9
4 2 6 23.61 1.89
4 2 6 22.85 1.86
4 2 6 23.13 1.87
-4 2 -6 24.17 1.81
-4 2 -6 22.85 1.89
4 2 6 22.35 2.07
-5 -2 -6 10.02 1.01
-5 -2 -6 9.74 0.87
-5 -2 -6 9.24 0.92
5 -2 6 11.94 0.86
5 -2 6 12.78 0.82
5 -2 6 11.09 0.98
5 -2 6 11.59 0.76
-5 -2 -6 11.33 0.96
-5 -2 -6 11.64 0.88
5 -2 6 10.44 0.81
5 2 6 9.14 0.91
5 2 6 9.58 0.93
5 2 6 9.14 1
5 2 6 9.65 0.93
-5 2 -6 9.16 0.88
5 2 6 9.78 0.9
-5 2 -6 10.63 0.95
-6 -2 -6 15.47 1.24
-6 -2 -6 15.63 1.26
-6 -2 -6 15.89 1.35
6 -2 6 16.62 1.24
6 -2 6 16.7 1.12
6 -2 6 16.37 1.18
6 -2 6 14.12 1.16
-7 -2 -6 25.69 1.92
-7 -2 -6 26.28 1.92
7 -2 6 24.57 1.9
7 -2 6 25.38 1.86
7 -2 6 26.71 1.76
-7 -2 -6 27.85 2.07
8 -2 6 3.26 0.32
8 -2 6 3.24 0.29
-8 -2 -6 2.98 0.33
-8 -2 -6 3.83 0.44
8 -2 6 3.29 0.33
-8 -2 -6 3.73 0.37
8 2 6 2.9 0.27
8 2 6 2.65 0.28
8 2 6 2.93 0.29
9 -2 6 1.71 0.19
-9 -2 -6 1.42 0.27
9 -2 6 1.51 0.17
9 -2 6 1.05 0.18
-9 -2 -6 1.59 0.23
-9 2 -6 1.37 0.22
-9 2 -6 1.25 0.22
9 2 6 1.55 0.17
-9 2 -6 1.81 0.21
9 2 6 1.74 0.18
-11 -3 6 14.92 1.12
-11 -3 6 12.17 1.04
11 -3 -6 11.18 0.87
11 -3 -6 13.08 1.01
11 -3 -6 13.6 1.04
11 -3 -6 12.14 1.05
11 3 -6 14.67 1.04
11 3 -6 11.84 1
10 -3 -6 6.35 0.56
10 -3 -6 5.36 0.54
10 -3 -6 4.75 0.56
-10 -3 6 5.35 0.58
10 -3 -6 5.79 0.52
10 -3 -6 5.48 0.44
-10 -3 6 5.47 0.54
-10 -3 6 6.58 0.62
10 3 -6 5.02 0.53
10 3 -6 4.72 0.47
10 3 -6 5.66 0.5
9 -3 -6 38.12 3.02
-9 -3 6 44.06 2.94
9 -3 -6 36.24 2.58
9 -3 -6 39.11 3.23
9 -3 -6 41.45 3.11
9 -3 -6 35.37 2.69
-9 -3 6 37.86 3.01
9 -3 -6 38.51 2.95
9 3 -6 42.76 3.05
9 3 -6 38.93 3.17
9 3 -6 37.43 2.92
8 -3 -6 18.28 1.3
-8 -3 6 15.75 1.54
-8 -3 6 22.06 1.58
-8 -3 6 21 1.69
8 -3 -6 18.46 1.49
8 -3 -6 17.79 1.33
8 -3 -6 20.58 1.6
8 -3 -6 18.9 1.64
8 -3 -6 16.26 1.33
8 -3 -6 15.81 1.51
8 -3 -6 18.46 1.66
8 -3 -6 18.08 1.55
8 3 -6 19.55 1.6
8 3 -6 19.84 1.51
8 3 -6 17.94 1.43
7 -3 -6 20.4 1.74
-7 -3 6 19.16 1.79
7 -3 -6 19.45 1.4
7 -3 -6 20.02 1.55
-7 -3 6 15.36 1.58
7 -3 -6 20.68 1.63
-7 -3 6 18.59 1.73
7 -3 -6 20.95 1.36
7 -3 -6 20.66 1.42
7 -3 -6 22.36 1.74
-7 -3 6 21.28 1.45
7 -3 -6 19.7 1.36
-7 -3 6 24.19 1.69
-7 -3 6 19.28 1.84
7 -3 -6 20.33 1.67
7 -3 -6 18.47 1.61
7 3 -6 19.73 1.7
7 3 -6 18.4 1.48
7 3 -6 19.09 1.67
7 3 -6 16.76 1.73
-7 3 6 16.47 1.63
-7 3 6 15.88 1.71
-6 -3 6 28.34 2.19
6 -3 -6 29.08 2.11
6 -3 -6 27.99 1.85
6 -3 -6 28.6 2
6 -3 -6 30.64 2.38
6 -3 -6 28.84 2.42
-6 -3 6 27.29 2.51
-6 -3 6 23.25 2.43
6 -3 -6 27.63 2.38
-6 -3 6 23.34 2.11
6 -3 -6 28.77 2.18
6 -3 -6 29.5 2.19
6 -3 -6 29.47 2.24
6 -3 -6 24.26 2.23
6 -3 -6 26.73 1.88
-6 -3 6 27.33 1.98
6 -3 -6 26.9 1.96
6 -3 -6 26.41 1.92
-6 3 6 24.48 2.36
6 3 -6 29.45 2.35
-6 3 6 26.13 2.26
6 3 -6 26.15 2.38
-5 -3 6 9.53 0.91
5 -3 -6 10.61 0.87
5 -3 -6 10.7 0.85
5 -3 -6 12.1 1.05
5 -3 -6 11.45 0.91
5 -3 -6 11.43 0.97
5 -3 -6 9.04 1.1
5 -3 -6 10.92 0.88
5 -3 -6 11.83 1.11
5 -3 -6 12.18 1
-5 -3 6 9.83 1.03
5 -3 -6 11.21 0.79
5 -3 -6 10.73 0.83
5 -3 -6 11.65 0.88
5 -3 -6 11.17 1.02
5 -3 -6 11.1 0.94
-5 -3 6 8.81 1
5 -3 -6 12.73 1.03
5 -3 -6 10.22 1.08
5 -3 -6 12.39 0.97
5 -3 -6 11.93 0.83
-5 -3 6 11.61 1.16
5 3 -6 11.79 1.04
5 3 -6 13.14 1.04
-5 3 6 10.96 0.99
5 3 -6 11.07 0.93
-5 3 6 12.72 1.06
-5 3 6 11.2 1.04
-4 -3 6 24.33 2.11
-4 -3 6 26.92 2.42
-4 -3 6 26.55 2.04
4 -3 -6 26.81 2.04
4 -3 -6 27.36 2
4 -3 -6 26.41 1.95
4 -3 -6 25.08 1.87
4 -3 -6 26.38 1.89
-4 -3 6 27.4 2.44
4 -3 -6 27.09 2.29
4 -3 -6 26.93 2.08
4 -3 -6 26.59 1.8
4 -3 -6 27.13 1.86
4 -3 -6 26.45 1.75
-4 -3 6 25.21 1.73
4 -3 -6 26.19 1.68
4 -3 -6 26.8 1.98
4 -3 -6 27.24 1.99
4 -3 -6 25.94 1.86
4 -3 -6 24.07 2.26
4 -3 -6 26.57 2.27
4 -3 -6 28.11 1.84
4 -3 -6 28.17 2.16
4 -3 -6 24.92 2.06
4 -3 -6 27.13 2.12
-4 3 6 24.64 2.29
-4 3 6 26.13 2.28
4 3 -6 26.43 2.22
4 3 -6 23.97 2.03
-4 3 6 21.66 2.22
4 3 -6 23.85 2.25
3 -3 -6 7.54 0.62
-3 -3 6 6.49 0.73
-3 -3 6 5.61 0.58
3 -3 -6 6.13 0.59
3 -3 -6 6.43 0.51
3 -3 -6 6.53 0.51
3 -3 -6 7.22 0.71
3 -3 -6 6.84 0.59
3 -3 -6 6.54 0.5
-3 -3 6 6.02 0.54
3 -3 -6 6.8 0.56
3 -3 -6 7.54 0.62
3 -3 -6 6.05 0.61
-3 -3 6 6.2 0.73
3 -3 -6 6.34 0.56
3 -3 -6 7.39 0.6
-3 -3 6 5.35 0.6
3 -3 -6 7.51 0.65
3 -3 -6 6.77 0.49
-3 -3 6 6.78 0.63
3 -3 -6 7.32 0.71
3 -3 -6 6.35 0.56
3 -3 -6 7.75 0.72
3 -3 -6 6.74 0.53
-3 3 6 5.95 0.59
3 3 -6 6.68 0.63
-3 3 6 7.07 0.65
3 3 -6 6.66 0.62
3 3 -6 6.5 0.57
-3 3 6 5.24 0.63
-3 3 6 6.4 0.63
-3 3 6 5.66 0.57
3 3 -6 5.89 0.58
2 -3 -6 92.51 5.89
-2 -3 6 78.4 5.5
2 -3 -6 90.69 6.34
-2 -3 6 89.96 5.98
2 -3 -6 91.7 6.12
2 -3 -6 88.66 7.31
2 -3 -6 83.24 6.54
2 -3 -6 77.59 6.45
2 -3 -6 93.67 6.01
2 -3 -6 97.01 6.01
2 -3 -6 93.14 6.24
2 -3 -6 88.05 5.69
2 -3 -6 79.58 6.74
2 -3 -6 91.35 7.17
-2 -3 6 100.2 7.89
-2 -3 6 85.09 6.27
2 -3 -6 86.15 6.1
2 -3 -6 85.65 6.7
2 -3 -6 89.1 5.45
2 -3 -6 95.48 7.09
2 -3 -6 90.5 5.95
-2 -3 6 83.52 5.93
2 -3 -6 91.36 6.42
2 -3 -6 88.02 6.61
2 3 -6 96.02 7.31
-2 3 6 87.41 7.1
2 3 -6 87.76 6.72
-2 3 6 77.2 7.03
-2 3 6 86.62 7.78
-2 3 6 94.37 7.04
-2 3 6 83.23 7.59
2 3 -6 83.43 7.44
1 -3 -6 22.94 1.82
1 -3 -6 20.81 1.74
1 -3 -6 21.63 1.81
1 -3 -6 22.17 1.8
1 -3 -6 19.23 1.85
-1 -3 6 19.76 2.05
-1 -3 6 24.79 2.18
1 -3 -6 22.16 1.56
1 -3 -6 22.48 1.63
1 -3 -6 22.21 1.46
1 -3 -6 21.93 1.73
1 -3 -6 22.6 1.75
-1 -3 6 23.11 1.54
1 -3 -6 24.52 1.7
1 -3 -6 20.77 1.65
1 -3 -6 23.08 1.71
-1 -3 6 19.55 1.7
-1 -3 6 22.57 1.63
1 -3 -6 22.54 1.94
1 -3 -6 21.84 1.61
1 -3 -6 22.31 1.92
-1 3 6 24.32 1.85
-1 3 6 24.95 1.93
1 3 -6 25.07 1.99
1 3 -6 26.6 1.8
-1 3 6 24.72 1.9
0 -3 -6 25.18 1.64
0 -3 -6 25.58 1.89
0 -3 -6 25.88 2.09
0 -3 -6 28.39 2.07
0 -3 6 25.75 1.83
0 -3 6 24.54 1.84
0 -3 6 24.42 1.88
0 -3 -6 23.98 2.13
0 -3 -6 27.29 1.98
0 -3 -6 23.86 2.16
0 -3 6 26.68 1.72
0 -3 -6 23.3 2.02
0 -3 -6 25.07 1.86
0 -3 -6 26.02 1.81
0 -3 -6 26.62 2.04
0 -3 -6 26.05 1.95
0 -3 -6 20.67 2.24
0 3 6 25.87 2.15
0 3 6 29.4 2.38
0 3 -6 23.61 2.09
0 3 -6 26.03 2.24
0 3 6 26.73 2.1
0 3 6 27.23 2.14
0 3 -6 26.95 2.03
0 3 6 27.28 2.18
0 3 -6 27.31 2.2
1 -3 6 191.78 15.5
1 -3 6 232.11 13.78
-1 -3 -6 215.26 16.8
1 -3 6 246.15 14.94
1 -3 6 201.36 14.93
-1 -3 -6 234.66 16.15
-1 -3 -6 239.51 15.1
-1 -3 -6 214.34 16.88
1 -3 6 195.48 19.7
-1 -3 -6 234.44 15.93
-1 -3 -6 238.21 16.61
-1 -3 -6 230.39 15.38
1 3 6 215.49 17.82
-1 3 -6 221.17 18.83
1 3 6 226.3 17.95
-1 3 -6 240.23 17
-1 3 -6 209.27 17.84
1 3 6 234.02 17.78
1 3 6 237.38 19.68
-1 3 -6 233.57 18.46
1 3 6 230.01 17.81
-2 -3 -6 28.81 2.28
-2 -3 -6 27.02 2.47
2 -3 6 29.53 1.99
-2 -3 -6 32.28 2.19
2 -3 6 32.66 2.12
-2 -3 -6 28.45 2.24
-2 -3 -6 31.01 2.19
2 -3 6 31.45 2.65
2 -3 6 29.26 2.02
2 -3 6 34.27 2.04
-2 -3 -6 31.59 2.04
2 -3 6 32.11 1.88
2 3 6 26.31 2.35
2 3 6 29.08 2.61
-2 3 -6 24.3 2.46
2 3 6 24.02 2.37
-2 3 -6 26.35 2.23
2 3 6 25.46 2.36
2 3 6 25.95 2.33
-2 3 -6 25.82 2.41
-2 3 -6 24.83 2.32
-3 -3 -6 31.49 2.53
3 -3 6 33.91 2.45
-3 -3 -6 33.11 2.55
-3 -3 -6 31.88 2.37
3 -3 6 33.19 2.34
3 -3 6 29.46 2.15
-3 -3 -6 32.51 2.44
-3 3 -6 32.87 2.74
-3 3 -6 33.62 2.62
3 3 6 35.14 2.76
3 3 6 38.72 3.07
3 3 6 33.65 2.77
-3 3 -6 35.35 2.84
3 3 6 30.47 2.73
3 3 6 33.5 2.79
-4 -3 -6 77.39 4.72
4 -3 6 70.81 4.61
-4 -3 -6 75.11 5.01
-4 -3 -6 75.79 5.04
4 -3 6 74.27 4.81
4 -3 6 74.64 4.7
4 -3 6 67.32 4.24
4 3 6 63.8 5.46
-4 3 -6 57.62 5.64
4 3 6 63.12 5.51
-4 3 -6 62.58 5.46
4 3 6 61.26 5.44
4 3 6 65.13 5.44
4 3 6 68.35 6.03
-4 3 -6 63.31 5.21
-5 -3 -6 5.49 0.63
5 -3 6 5.9 0.53
-5 -3 -6 4.02 0.53
5 -3 6 5.42 0.5
-5 -3 -6 5.3 0.59
-5 -3 -6 6.25 0.57
5 -3 6 5.03 0.45
6 -3 6 4.68 0.43
-6 -3 -6 4.13 0.63
6 -3 6 4.65 0.43
6 -3 6 4.48 0.45
-6 -3 -6 4.83 0.5
-6 -3 -6 4.68 0.49
6 -3 6 4.13 0.39
-6 -3 -6 3.9 0.5
-7 -3 -6 14.54 1.27
-7 -3 -6 15.67 1.19
7 -3 6 14.68 1.05
7 -3 6 14.9 1.15
-7 -3 -6 14.28 1.14
7 -3 6 15.45 1.12
-8 -3 -6 9 0.71
8 -3 6 8.81 0.67
8 -3 6 7.65 0.62
8 -3 6 7.67 0.68
-8 -3 -6 9.3 0.79
8 3 6 8.85 0.61
8 3 6 9.23 0.69
-9 -3 -6 3.61 0.33
9 -3 6 3.51 0.3
-9 -3 -6 3.96 0.37
-9 3 -6 3.8 0.33
9 3 6 3.44 0.27
9 3 6 3.35 0.3
-10 -4 6 3.03 0.33
-10 -4 6 3.57 0.39
10 -4 -6 2.73 0.25
10 -4 -6 3 0.26
10 -4 -6 2.97 0.33
-10 -4 6 3.04 0.36
10 -4 -6 3.16 0.31
10 -4 -6 3.01 0.34
10 4 -6 2.73 0.31
10 4 -6 2.62 0.27
10 4 -6 3.55 0.3
9 -4 -6 0.34 0.1
-9 -4 6 0.51 0.19
-9 -4 6 0.46 0.19
9 -4 -6 0.3 0.14
9 -4 -6 0.36 0.16
-9 -4 6 0.34 0.19
9 -4 -6 0.48 0.17
9 -4 -6 0.41 0.12
9 -4 -6 0.35 0.16
9 4 -6 0.3 0.09
9 4 -6 0.41 0.13
9 4 -6 0.49 0.12
8 -4 -6 26.69 2.25
8 -4 -6 26.2 2.02
8 -4 -6 28.67 2.42
8 -4 -6 27.36 1.99
8 -4 -6 28.02 2.19
-8 -4 6 33.41 2.45
8 -4 -6 28.11 2.41
8 -4 -6 26.34 1.92
8 -4 -6 31.52 2.34
-8 -4 6 31.37 2.24
8 4 -6 29.53 2.37
8 4 -6 25.21 2.13
8 4 -6 30 2.25
-7 -4 6 0.93 0.34
7 -4 -6 1.43 0.32
-7 -4 6 1.98 0.42
-7 -4 6 1.73 0.28
7 -4 -6 1.07 0.24
7 -4 -6 1.09 0.22
7 -4 -6 2 0.41
7 -4 -6 1.05 0.28
7 -4 -6 1.36 0.21
7 -4 -6 1.27 0.28
-7 -4 6 1.31 0.32
7 -4 -6 1.51 0.21
7 -4 -6 1.16 0.3
7 -4 -6 1.2 0.2
7 4 -6 1.69 0.2
7 4 -6 2.03 0.31
6 -4 -6 1.34 0.21
-6 -4 6 1.53 0.41
6 -4 -6 1.38 0.22
6 -4 -6 1.43 0.3
6 -4 -6 1.31 0.21
6 -4 -6 1.51 0.34
6 -4 -6 1.5 0.22
6 -4 -6 1.23 0.22
6 -4 -6 0.9 0.28
6 -4 -6 1.69 0.37
-6 -4 6 1.26 0.39
6 -4 -6 1.59 0.27
-6 -4 6 1.32 0.29
6 -4 -6 1.54 0.34
6 -4 -6 1.78 0.42
6 -4 -6 1.29 0.29
5 -4 -6 64.42 5.39
5 -4 -6 66.2 5.04
-5 -4 6 53.3 5.62
5 -4 -6 60.1 4.48
5 -4 -6 63.17 4.4
5 -4 -6 71.4 5.01
5 -4 -6 63.97 4.62
5 -4 -6 65.35 4.41
5 -4 -6 65.7 4.88
5 -4 -6 64.98 4.74
5 -4 -6 65.21 5.32
5 -4 -6 67.33 4
-5 -4 6 64.03 4.46
5 -4 -6 67.8 4.87
5 -4 -6 68.6 4.68
5 -4 -6 62.84 4.31
5 -4 -6 62.4 4.37
5 -4 -6 66.04 4.19
-5 -4 6 55.69 4.72
-5 -4 6 63.77 5.03
5 -4 -6 64.59 4.49
5 -4 -6 68.04 4.77
5 -4 -6 55.09 5.28
5 -4 -6 67.98 4.96
5 4 -6 57.77 5.32
4 -4 -6 24.72 2.03
4 -4 -6 24.23 1.81
-4 -4 6 26.91 2.03
4 -4 -6 26.18 1.81
4 -4 -6 25.65 2.02
4 -4 -6 24.41 1.74
4 -4 -6 25.42 1.7
4 -4 -6 25.12 1.63
4 -4 -6 25.03 1.77
4 -4 -6 24.16 1.8
-4 -4 6 23.78 1.68
4 -4 -6 21.37 2.2
4 -4 -6 26.08 2.08
4 -4 -6 26.67 1.93
4 -4 -6 25.2 1.95
4 -4 -6 23.99 1.84
4 -4 -6 25.78 1.9
-4 -4 6 21.91 2.04
4 -4 -6 26.38 2.13
4 -4 -6 27.01 2
4 -4 -6 23.84 1.92
4 -4 -6 24.74 2.24
4 -4 -6 25.74 2.25
4 4 -6 24.81 2.14
4 4 -6 22.97 2.17
3 -4 -6 48.36 3.73
3 -4 -6 43.42 3.4
3 -4 -6 48.82 3.16
3 -4 -6 47 4.06
3 -4 -6 48.9 3.27
3 -4 -6 49.98 4.14
3 -4 -6 47.53 3.84
3 -4 -6 51.93 3.36
3 -4 -6 49.53 3.5
-3 -4 6 45.38 3.11
3 -4 -6 49.72 3.75
3 -4 -6 50.28 4.03
3 -4 -6 49.85 3.57
3 -4 -6 48.46 3.59
3 -4 -6 47.16 3.04
3 -4 -6 51.34 3.41
3 -4 -6 49.4 3.34
3 -4 -6 48.91 3.6
3 -4 -6 48.82 3.67
3 -4 -6 48.63 3.32
-3 -4 6 45.67 3.41
3 -4 -6 54.03 3.81
-3 -4 6 41.42 3.74
-3 -4 6 45.15 3.56
3 4 -6 43.14 4.03
2 -4 -6 20.51 1.77
2 -4 -6 19.21 1.68
2 -4 -6 20.3 1.5
2 -4 -6 19.42 1.32
-2 -4 6 16.79 1.31
2 -4 -6 18.94 1.57
2 -4 -6 19.53 1.44
2 -4 -6 19.56 1.38
-2 -4 6 18.44 1.36
2 -4 -6 20.63 1.37
-2 -4 6 18.34 1.48
2 -4 -6 20.13 1.32
2 -4 -6 19.7 1.53
2 -4 -6 19.77 1.55
2 -4 -6 17.77 1.63
2 -4 -6 17.63 1.43
-2 -4 6 20.02 1.45
2 -4 -6 18.63 1.24
2 -4 -6 19.65 1.48
2 -4 -6 19.67 1.49
2 -4 -6 19.43 1.66
2 -4 -6 19.32 1.27
-2 4 6 14.56 1.66
2 4 -6 14.85 1.63
-2 4 6 15.53 1.55
-2 4 6 17.39 1.72
2 4 -6 16.54 1.61
-1 -4 6 14.51 1.08
1 -4 -6 14.65 1.24
1 -4 -6 14.01 1.25
1 -4 -6 13.45 1.11
1 -4 -6 14.77 0.93
1 -4 -6 14.96 1.26
1 -4 -6 12.88 1.32
-1 -4 6 14.18 1.12
1 -4 -6 14.26 1.04
1 -4 -6 14.52 0.98
1 -4 -6 13.74 1.07
1 -4 -6 14.76 1.16
-1 -4 6 13.42 1.02
1 -4 -6 14.68 1.1
1 -4 -6 15.53 1.23
1 -4 -6 14.41 1.14
-1 -4 6 13.44 1.06
1 4 -6 11.6 1.09
1 4 -6 11.51 1.21
-1 4 6 12.02 1.2
-1 4 6 12.98 1.18
-1 4 6 11.97 1.3
1 4 -6 12.44 1.19
-1 4 6 11.54 1.18
0 -4 -6 8.09 0.76
0 -4 -6 6.85 0.87
0 -4 -6 8.16 0.6
0 -4 -6 8.17 0.72
0 -4 -6 8.09 0.76
0 -4 -6 7.83 0.81
0 -4 -6 8.8 0.84
0 -4 6 6.09 0.69
0 -4 6 7.54 0.7
0 -4 -6 7.73 0.67
0 -4 6 7.2 0.71
0 -4 6 7.88 0.7
0 -4 -6 8.11 0.69
0 -4 -6 8.05 0.72
0 -4 6 8.93 0.71
0 -4 -6 7.27 0.8
0 -4 -6 8.93 0.77
0 4 6 8.61 0.82
0 4 -6 9.67 0.8
0 4 6 9.45 0.89
0 4 -6 8.33 0.73
0 4 6 10.25 0.82
0 4 -6 8.61 0.81
0 4 6 8.84 0.81
-1 -4 -6 6.08 0.59
-1 -4 -6 5.5 0.52
-1 -4 -6 5.32 0.51
1 -4 6 5.86 0.56
1 -4 6 6.45 0.54
-1 -4 -6 5.58 0.64
-1 -4 -6 5.54 0.56
-1 -4 -6 5.15 0.57
1 -4 6 5.95 0.55
-1 -4 -6 5.27 0.49
1 -4 6 5.83 0.52
-1 -4 -6 5.79 0.54
-1 -4 -6 5.59 0.66
-1 -4 -6 6.1 0.59
-1 4 -6 4.82 0.51
-1 4 -6 4.92 0.57
1 4 6 5.68 0.58
1 4 6 4.96 0.59
1 4 6 4.99 0.52
1 4 6 5.19 0.59
-1 4 -6 5.86 0.57
1 4 6 5.97 0.65
-2 -4 -6 43.56 2.94
-2 -4 -6 41.68 3.24
2 -4 6 46.19 2.94
-2 -4 -6 44.49 3.14
2 -4 6 37.61 3
2 -4 6 42.61 2.7
2 -4 6 37.33 2.86
-2 -4 -6 47.39 3.03
-2 -4 -6 45.17 3.16
-2 4 -6 38.99 3.22
2 4 6 45.85 3.43
2 4 6 36.68 3.37
2 4 6 42.89 3.78
2 4 6 40.54 3.43
-2 4 -6 39.26 3.5
2 4 6 40.84 3.46
-2 4 -6 36.92 3.58
3 -4 6 9.49 0.8
3 -4 6 9.58 0.77
3 -4 6 8.48 0.69
-3 -4 -6 8.99 0.84
-3 -4 -6 9.39 0.87
-3 -4 -6 9.01 0.78
-3 -4 -6 7.65 0.78
-3 -4 -6 8.49 0.8
3 -4 6 8.64 0.73
-4 -4 -6 9.06 0.87
-4 -4 -6 8.63 0.83
-4 -4 -6 9.72 0.79
4 -4 6 8.01 0.66
4 -4 6 7.4 0.71
4 -4 6 9.32 0.78
4 -4 6 9.33 0.74
-5 -4 -6 14.89 1.13
5 -4 6 14.06 1.05
-5 -4 -6 13.01 1.17
5 -4 6 15.36 1.12
-5 -4 -6 12.04 1.19
5 -4 6 14.03 1.07
-5 -4 -6 12.54 1.09
-6 -4 -6 25.87 1.88
6 -4 6 24.1 1.78
6 -4 6 27.34 1.83
-6 -4 -6 23.94 1.97
6 -4 6 27.03 1.89
-6 -4 -6 24.26 2
-7 -4 -6 5.13 0.48
7 -4 6 5.41 0.43
7 -4 6 4.59 0.4
-7 -4 -6 4.2 0.46
7 -4 6 5.02 0.44
-7 -4 -6 5.53 0.53
8 -4 6 0.27 0.09
-8 -4 -6 0.18 0.11
-8 -4 -6 0.17 0.11
8 -4 6 0.21 0.08
8 4 6 0.26 0.07
8 4 6 0.3 0.06
-9 -5 6 13.96 1.08
9 -5 -6 11.91 0.85
9 -5 -6 12.92 0.98
9 -5 -6 11.79 1
9 5 -6 12.92 1
8 -5 -6 9.73 0.73
8 -5 -6 10.43 0.9
-8 -5 6 11.4 0.97
-8 -5 6 11.76 0.9
8 -5 -6 9.88 0.85
8 -5 -6 9.94 0.75
8 -5 -6 10.26 0.88
8 5 -6 10.43 0.85
8 5 -6 10 0.9
-7 -5 6 5.13 0.58
7 -5 -6 5.03 0.41
7 -5 -6 4.64 0.53
7 -5 -6 4.55 0.39
7 -5 -6 4.44 0.46
7 -5 -6 4.36 0.39
7 -5 -6 4.29 0.5
-7 -5 6 3.76 0.53
6 -5 -6 21.41 1.51
6 -5 -6 22.74 1.74
-6 -5 6 19.06 1.79
6 -5 -6 22 1.57
6 -5 -6 22.98 1.54
6 -5 -6 23.33 1.98
-6 -5 6 19.5 1.86
6 -5 -6 20.96 1.79
-6 -5 6 25.98 1.65
6 -5 -6 21.37 1.6
5 -5 -6 0.3 0.13
5 -5 -6 0.43 0.14
-5 -5 6 0.56 0.21
5 -5 -6 0.65 0.15
-5 -5 6 0.39 0.22
5 -5 -6 0.45 0.22
5 -5 -6 0.59 0.24
5 -5 -6 0.43 0.13
5 -5 -6 0.26 0.17
5 -5 -6 0.53 0.14
5 -5 -6 0.51 0.25
5 -5 -6 0.34 0.12
4 -5 -6 9.56 0.88
4 -5 -6 8.95 1.04
4 -5 -6 9.65 0.77
4 -5 -6 10.36 1.02
4 -5 -6 9.4 0.95
-4 -5 6 9.98 0.95
4 -5 -6 9.9 0.75
4 -5 -6 10.7 1.06
4 -5 -6 10.51 0.86
4 -5 -6 10.72 0.78
4 -5 -6 10.6 0.83
4 -5 -6 10.24 0.82
4 -5 -6 10.06 0.84
4 -5 -6 10.02 0.9
4 -5 -6 10.07 0.91
-4 -5 6 9.58 0.98
4 -5 -6 9.48 0.88
4 -5 -6 10.74 0.92
4 -5 -6 9.76 1.06
-4 -5 6 9 0.88
4 -5 -6 10.02 0.8
-4 -5 6 8.18 0.74
4 -5 -6 11.27 0.98
4 -5 -6 10.7 0.75
-3 -5 6 5.83 0.66
3 -5 -6 7.45 0.6
3 -5 -6 6.66 0.63
3 -5 -6 7.3 0.83
3 -5 -6 7.04 0.56
3 -5 -6 7.27 0.75
3 -5 -6 7.19 0.61
-3 -5 6 6.53 0.69
3 -5 -6 7.19 0.68
-3 -5 6 7.25 0.74
3 -5 -6 7.03 0.68
3 -5 -6 6.36 0.78
-3 -5 6 6.64 0.61
3 -5 -6 7.14 0.82
3 -5 -6 7.01 0.63
3 -5 -6 7.35 0.58
3 -5 -6 7.65 0.68
-2 -5 6 24.21 1.75
2 -5 -6 20.67 1.95
2 -5 -6 23 1.81
2 -5 -6 22.06 1.68
-2 -5 6 19.62 1.6
2 -5 -6 24.22 2.15
2 -5 -6 24.6 1.7
2 -5 -6 24.27 1.94
-2 -5 6 21.11 1.79
2 -5 -6 24.32 1.53
2 -5 -6 23.45 1.77
2 -5 -6 24.11 1.88
2 -5 -6 22.75 1.8
1 -5 -6 24.77 1.6
-1 -5 6 25.22 1.78
1 -5 -6 21.14 2.22
1 -5 -6 25.6 1.83
1 -5 -6 24.22 1.77
1 -5 -6 25.96 2.06
1 -5 -6 25.94 1.87
1 -5 -6 24.7 1.98
-1 -5 6 22.7 1.71
-1 -5 6 22.24 1.86
-1 -5 6 26.37 1.84
1 -5 -6 24.92 1.92
1 -5 -6 24.46 1.78
1 -5 -6 24.12 2.05
1 -5 -6 24.32 1.9
0 -5 -6 0.32 0.15
0 -5 6 0.26 0.17
0 -5 -6 0.65 0.24
0 -5 -6 0.3 0.15
0 -5 6 0.37 0.18
0 -5 6 0.15 0.12
0 -5 -6 0.32 0.15
0 -5 -6 0.13 0.19
0 -5 -6 0.08 0.09
0 -5 6 0.2 0.13
0 -5 -6 0.19 0.16
0 -5 -6 0.4 0.16
0 -5 -6 0.18 0.11
-1 -5 -6 87.33 5.82
-1 -5 -6 83.63 5.68
1 -5 6 84.54 5.22
-1 -5 -6 88.02 6.35
-1 -5 -6 83.33 6.09
-1 -5 -6 76.6 5.87
1 -5 6 80.32 5.61
1 -5 6 82.98 5.8
1 -5 6 78.26 5.64
-1 -5 -6 83.68 6.02
-2 -5 -6 5.05 0.49
-2 -5 -6 4.23 0.51
2 -5 6 5.28 0.52
-2 -5 -6 5.06 0.57
-2 -5 -6 5.14 0.55
2 -5 6 4.88 0.5
2 -5 6 4.41 0.44
-2 -5 -6 5.1 0.52
2 -5 6 5.32 0.48
-3 -5 -6 10.97 0.86
-3 -5 -6 9.46 0.89
-3 -5 -6 10.81 0.93
3 -5 6 9.96 0.76
-3 -5 -6 10.21 0.95
3 -5 6 9.14 0.84
3 -5 6 10.95 0.85
4 -5 6 26.56 1.73
-4 -5 -6 21.15 1.78
4 -5 6 27.18 1.81
4 -5 6 22.04 1.56
-4 -5 -6 21.45 1.89
-4 -5 -6 25.64 1.78
-4 -5 -6 24.65 1.9
5 -5 6 1.31 0.2
-5 -5 -6 0.51 0.22
-5 -5 -6 1.1 0.22
5 -5 6 1 0.14
5 -5 6 0.99 0.17
-5 -5 -6 1.13 0.23
5 -5 6 1.3 0.19
-6 -5 -6 8.83 0.67
-6 -5 -6 7.91 0.69
6 -5 6 8.51 0.65
6 -5 6 7.97 0.6
-6 -5 -6 8.44 0.71
6 -5 6 7.62 0.62
-7 -6 6 1.44 0.25
7 6 -6 1.66 0.21
-6 -6 6 5.79 0.64
-6 -6 6 8.48 0.68
6 6 -6 7.66 0.6
-5 -6 6 2.52 0.41
-5 -6 6 3.51 0.34
-5 -6 6 2.89 0.35
-4 -6 6 14.2 1.01
-4 -6 6 11.68 1.06
-4 -6 6 13.01 1.09
-3 -6 6 0.14 0.12
3 -6 -6 0.26 0.14
-3 -6 6 0.26 0.16
3 -6 -6 0.3 0.14
3 -6 -6 0.31 0.13
3 -6 -6 0.16 0.08
-3 -6 6 0.32 0.13
2 -6 -6 0.74 0.17
2 -6 -6 0.64 0.19
-2 -6 6 0.73 0.19
2 -6 -6 0.88 0.2
-2 -6 6 0.41 0.16
2 -6 -6 0.7 0.2
-2 -6 6 0.9 0.21
2 -6 -6 0.74 0.15
2 -6 -6 0.84 0.19
2 -6 -6 0.93 0.19
-1 -6 6 5.08 0.5
1 -6 -6 5.34 0.52
1 -6 -6 5.26 0.53
-1 -6 6 5.07 0.5
1 -6 -6 5.36 0.53
-1 -6 6 6.05 0.52
1 -6 -6 5.81 0.49
1 -6 -6 5.41 0.48
1 -6 -6 5.1 0.5
1 -6 -6 5.23 0.54
0 -6 -6 9.17 0.75
0 -6 6 7.96 0.66
0 -6 6 6.39 0.65
0 -6 -6 8.2 0.73
0 -6 6 8.41 0.66
0 -6 -6 8.31 0.71
0 -6 -6 8.84 0.75
0 -6 -6 8.82 0.68
0 -6 -6 7.95 0.7
0 -6 6 8.49 0.68
1 -6 6 3.1 0.33
-1 -6 -6 2.75 0.32
-1 -6 -6 2.94 0.35
1 -6 6 3.06 0.33
-1 -6 -6 3.22 0.38
-1 -6 -6 3.19 0.32
-1 -6 -6 2.99 0.34
1 -6 6 3.03 0.31
-1 -6 -6 1.97 0.33
2 -6 6 3.68 0.34
-2 -6 -6 3.99 0.41
-2 -6 -6 3.83 0.42
-2 -6 -6 4.22 0.39
2 -6 6 4.23 0.39
-2 -6 -6 3.52 0.44
2 -6 6 4.01 0.36
3 -6 6 12.72 1.04
-3 -6 -6 14.51 1.07
-3 -6 -6 14.76 1.15
3 -6 6 15.77 1.04
-3 -6 -6 13.34 1.15
3 -6 6 15.28 0.96
-4 -6 -6 2.38 0.28
4 -6 6 2.81 0.25
-4 -6 -6 2.58 0.3
12 0 -7 7.83 0.66
12 0 -7 7.29 0.64
11 0 -7 1.91 0.27
11 0 -7 1.73 0.28
11 0 -7 1.67 0.23
11 0 -7 1.49 0.22
10 0 -7 4.13 0.42
10 0 -7 4.19 0.43
10 0 -7 4.23 0.47
10 0 -7 4.53 0.44
9 0 -7 15.75 1.28
9 0 -7 15.39 1.41
9 0 -7 16.61 1.31
9 0 -7 17.59 1.35
8 0 -7 0.08 0.08
8 0 -7 0.15 0.11
8 0 -7 0.11 0.09
-8 0 7 0.05 0.12
-8 0 7 0.04 0.08
8 0 -7 0.05 0.07
-8 0 7 0.06 0.08
8 0 -7 0.18 0.11
-8 0 7 0.04 0.07
7 0 -7 23.79 1.91
-7 0 7 24.88 2.25
7 0 -7 24.06 2.08
7 0 -7 27.7 2.09
7 0 -7 26.12 1.97
-7 0 7 26.99 2.19
-7 0 7 21.29 2.21
6 0 -7 0.08 0.1
6 0 -7 0.02 0.06
-6 0 7 0.05 0.06
-6 0 7 0.06 0.08
-6 0 7 0.06 0.07
6 0 -7 0.04 0.05
6 0 -7 0.04 0.08
6 0 -7 0.09 0.07
6 0 -7 0.09 0.08
5 0 -7 7.94 0.74
5 0 -7 9.64 0.84
5 0 -7 8.95 0.79
5 0 -7 9.83 0.85
-5 0 7 9.58 0.89
-5 0 7 10.51 0.86
5 0 -7 9.78 0.84
-5 0 7 9.64 0.89
5 0 -7 8.35 0.77
4 0 -7 29.33 2.53
-4 0 7 31.59 2.7
4 0 -7 29.18 2.37
4 0 -7 29.42 2.5
-4 0 7 33.37 2.67
-4 0 7 29.43 2.74
4 0 -7 32.29 2.57
-3 0 7 1.14 0.14
3 0 -7 0.99 0.15
-3 0 7 1.3 0.22
-3 0 7 1.58 0.2
3 0 -7 1.15 0.15
-3 0 7 1.66 0.18
-2 0 7 46.03 3.82
-2 0 7 43.76 3.43
2 0 -7 37.45 3.55
-2 0 7 43.18 3.68
2 0 -7 40.63 3.28
-2 0 7 47.37 3.74
1 0 -7 97.8 8.66
-1 0 7 113.04 9.04
1 0 -7 94.64 7.99
1 0 -7 106.44 8.41
-1 0 7 112.73 9.27
-1 0 7 109.37 8.36
0 0 7 59.28 5.03
0 0 -7 53.82 4.43
0 0 7 52.21 4.63
0 0 -7 60.08 4.67
0 0 7 62.43 4.66
0 0 7 62.43 5.17
-1 0 -7 51.66 3.79
1 0 7 49.38 4.49
-1 0 -7 45.03 3.49
-1 0 -7 51.58 4.06
1 0 7 52.73 4.03
-1 0 -7 49.5 3.84
1 0 7 55.25 4.06
1 0 7 53.78 4.36
-1 0 -7 44.55 4.16
-2 0 -7 118.53 8.91
2 0 7 131.61 9.98
-2 0 -7 141.06 10.47
2 0 7 134.92 9.98
2 0 7 115.37 10.72
-2 0 -7 115.89 9.49
-2 0 -7 124.3 9.29
-2 0 -7 119.94 8.61
2 0 7 128.42 11.03
-3 0 -7 20.73 1.91
-3 0 -7 27.7 2.18
-3 0 -7 22.09 2.1
-3 0 -7 23.71 1.86
3 0 7 24.83 2.26
3 0 7 25.45 2.04
-3 0 -7 27.93 2.07
3 0 7 26.26 2.07
4 0 7 1.68 0.23
4 0 7 1.31 0.23
-4 0 -7 1.49 0.26
-4 0 -7 2.15 0.33
-4 0 -7 1.63 0.29
-4 0 -7 1.89 0.3
4 0 7 2.03 0.26
-4 0 -7 1.38 0.24
-5 0 -7 18.24 1.37
-5 0 -7 16.42 1.54
5 0 7 16.94 1.45
5 0 7 16.54 1.44
-5 0 -7 18.06 1.31
-5 0 -7 14.39 1.43
-5 0 -7 17.42 1.39
6 0 7 0.22 0.09
-6 0 -7 0.15 0.11
-6 0 -7 0.18 0.16
6 0 7 0.33 0.13
-6 0 -7 0.23 0.14
6 0 7 0.23 0.08
-7 0 -7 5.29 0.55
7 0 7 5.09 0.41
-7 0 -7 4.84 0.46
7 0 7 3.75 0.41
-7 0 -7 3.94 0.46
7 0 7 4.5 0.37
-8 0 -7 3.46 0.42
8 0 7 3.46 0.33
-8 0 -7 3.77 0.37
8 0 7 3.49 0.3
-9 0 -7 10.04 0.78
9 0 7 9.3 0.7
-9 0 -7 10.05 0.83
9 0 7 10.72 0.75
12 -1 -7 8.31 0.72
12 -1 -7 8.06 0.68
12 -1 -7 8.77 0.71
-12 -1 7 8.24 0.73
-12 -1 7 8.47 0.76
12 1 -7 8.56 0.71
12 1 -7 8.79 0.7
11 -1 -7 2.09 0.27
11 -1 -7 2.13 0.33
11 -1 -7 2.36 0.29
11 -1 -7 2.28 0.29
11 1 -7 2.55 0.28
11 1 -7 2.46 0.28
11 1 -7 2.57 0.31
10 -1 -7 4.88 0.46
10 -1 -7 4.48 0.46
10 -1 -7 4.55 0.49
10 -1 -7 4.34 0.43
10 1 -7 3.97 0.45
10 1 -7 4.03 0.42
10 1 -7 3.66 0.4
9 -1 -7 8.06 0.82
9 -1 -7 9.39 0.79
9 -1 -7 8.61 0.84
9 -1 -7 8.31 0.75
9 -1 -7 9.5 0.79
9 1 -7 8.32 0.81
9 1 -7 8.72 0.76
9 1 -7 8.78 0.74
8 -1 -7 31 2.44
-8 -1 7 28.22 2.58
-8 -1 7 25.86 2.61
8 -1 -7 31.01 2.45
8 -1 -7 30.11 2.26
8 -1 -7 33.1 2.33
-8 -1 7 24.04 2.37
-8 -1 7 24.94 2.49
8 -1 -7 30.95 2.22
8 1 -7 29.18 2.39
8 1 -7 32.61 2.29
-8 1 7 27.92 2.58
8 1 -7 28.03 2.2
8 1 -7 26.86 2.4
-8 1 7 31.61 2.43
-8 1 7 29.35 2.55
7 -1 -7 26.37 2.07
7 -1 -7 29.51 2.18
7 -1 -7 25.15 2.1
-7 -1 7 27.35 2.46
7 -1 -7 28.53 2.29
-7 -1 7 22.57 2.33
7 -1 -7 24.84 2.15
7 -1 -7 29.3 2.29
-7 -1 7 27.99 2.42
7 1 -7 27.32 2.32
-7 1 7 30.06 2.39
7 1 -7 29.5 2.14
7 1 -7 27.47 2.26
7 1 -7 27.91 2.24
-7 1 7 25.05 2.42
7 1 -7 26.13 2.06
6 -1 -7 15.42 1.3
-6 -1 7 16 1.4
6 -1 -7 15.37 1.23
-6 -1 7 17.43 1.49
-6 -1 7 16.47 1.45
6 -1 -7 18.57 1.4
6 -1 -7 17.42 1.33
6 -1 -7 16.17 1.27
6 -1 -7 16.8 1.38
6 1 -7 14.61 1.26
6 1 -7 13.41 1.34
-6 1 7 14.95 1.42
6 1 -7 15.59 1.35
6 1 -7 15.3 1.38
-6 1 7 15.46 1.44
-6 1 7 15.23 1.44
-5 -1 7 95.32 8.98
5 -1 -7 98.73 7.87
-5 -1 7 116.53 9.31
5 -1 -7 119.47 8.7
5 -1 -7 101.42 8.23
5 -1 -7 103.13 7.97
5 -1 -7 108.93 8.14
5 -1 -7 105.08 8.6
-5 -1 7 113.93 9.5
-5 -1 7 115.88 9.21
5 -1 -7 102.86 8.84
-5 1 7 116.19 9.26
5 1 -7 111.41 8.91
5 1 -7 113.3 8.57
5 1 -7 107.3 8.67
5 1 -7 106.93 8.21
5 1 -7 102.4 8.1
5 1 -7 93.83 9.06
-5 1 7 122.82 9.03
-4 -1 7 91.21 7
4 -1 -7 87.35 6.63
4 -1 -7 68.84 6.53
4 -1 -7 74.78 6.72
4 -1 -7 81.49 6.21
-4 -1 7 75.3 6.82
4 -1 -7 82.91 6.26
4 1 -7 75.77 6.6
4 1 -7 81.95 6.53
4 1 -7 72.81 6.16
-4 1 7 87.59 7.2
4 1 -7 87.74 6.77
-4 1 7 87.37 7.05
-4 1 7 86.11 6.99
4 1 -7 89.26 6.25
3 -1 -7 8.41 0.9
3 -1 -7 10.56 0.89
-3 -1 7 10.84 0.97
-3 -1 7 10.2 0.98
-3 -1 7 9.37 0.92
3 1 -7 11.25 0.84
-3 1 7 11.01 0.96
-3 1 7 9.54 0.93
-3 1 7 10.25 0.94
3 1 -7 10.13 0.88
-2 -1 7 145.33 13.47
-2 -1 7 166.2 13.64
-2 -1 7 145.71 12.6
-2 -1 7 173.59 13.98
-2 1 7 151.13 12.58
-2 1 7 171.15 13.61
2 1 -7 143.11 13.07
2 1 -7 167.27 12.07
-2 1 7 172.98 13.94
-1 -1 7 58.9 4.66
1 -1 -7 53.7 4.43
-1 -1 7 55 5.03
-1 -1 7 48.67 4.94
-1 -1 7 59.93 5.18
1 1 -7 62.35 4.45
1 1 -7 59.06 4.81
-1 1 7 58.75 5.15
1 1 -7 59.87 4.67
-1 1 7 64.44 5.03
-1 1 7 60.76 4.65
0 -1 7 5.39 0.55
0 -1 7 5.37 0.55
0 -1 -7 4.32 0.52
0 -1 -7 5.3 0.53
0 -1 7 6.11 0.65
0 -1 -7 4.37 0.57
0 -1 7 5.07 0.59
0 1 7 6.35 0.59
0 1 7 6.86 0.62
0 1 7 6.41 0.57
0 1 7 6.32 0.5
0 1 7 6.43 0.55
0 1 -7 6.52 0.53
0 1 -7 6.7 0.52
0 1 -7 7.04 0.55
-1 -1 -7 3.79 0.43
-1 -1 -7 4.38 0.41
1 -1 7 4.73 0.48
-1 -1 -7 3.68 0.49
-1 -1 -7 5 0.48
1 -1 7 4.02 0.53
1 -1 7 3.65 0.48
-1 -1 -7 4.38 0.44
1 1 7 5.38 0.47
1 1 7 4.97 0.43
-1 1 -7 5.58 0.47
1 1 7 5.27 0.51
-1 1 -7 5.08 0.44
-1 1 -7 5.14 0.44
1 1 7 5.55 0.48
1 1 7 5.35 0.52
1 1 7 5.32 0.49
-2 -1 -7 21.69 1.62
-2 -1 -7 21.96 1.59
2 -1 7 21.81 1.67
-2 -1 -7 16.44 1.69
-2 -1 -7 19.9 1.49
-2 -1 -7 20.32 1.43
2 1 7 17.83 1.75
-2 1 -7 21.28 1.64
-2 1 -7 19.02 1.7
2 1 7 19.31 1.66
2 1 7 19.5 1.8
2 1 7 19.15 1.63
-2 1 -7 18.06 1.53
2 1 7 19.36 1.63
2 1 7 17.54 1.59
3 -1 7 38.63 3.13
3 -1 7 36.43 2.48
-3 -1 -7 33.63 2.93
-3 -1 -7 33.43 2.64
3 -1 7 38.71 3.11
3 -1 7 40.24 3.45
-3 -1 -7 35.86 3.09
-3 -1 -7 34.8 2.71
-3 -1 -7 34.14 3.2
-3 -1 -7 41.03 3.28
-3 -1 -7 36.82 2.82
-3 1 -7 43.77 3.13
3 1 7 40.25 3.43
3 1 7 42.02 3.12
3 1 7 39.51 3.09
-3 1 -7 39.54 2.95
3 1 7 34.97 3.33
-3 1 -7 41.64 3.27
4 -1 7 18.36 1.64
4 -1 7 18.38 1.3
-4 -1 -7 17.25 1.42
4 -1 7 17.93 1.38
-4 -1 -7 16.12 1.62
4 -1 7 20.1 1.39
-4 -1 -7 18.63 1.75
-4 -1 -7 17.09 1.58
4 -1 7 18.82 1.67
-4 -1 -7 20.06 1.55
-4 -1 -7 19.47 1.47
-4 1 -7 20.01 1.56
4 1 7 19.03 1.75
4 1 7 21.95 1.63
4 1 7 23.02 1.66
-4 1 -7 22.7 1.75
4 1 7 20.82 1.8
-5 -1 -7 159.47 11.41
-5 -1 -7 171.71 11.02
5 -1 7 162.61 9.86
-5 -1 -7 149.53 12.84
5 -1 7 162.94 10.43
5 -1 7 154.46 12.23
-5 -1 -7 162.34 10.6
5 -1 7 148.91 10.22
5 -1 7 156.1 10.65
-5 -1 -7 153.59 10.39
5 -1 7 150.12 12.26
5 1 7 145.95 12.2
-5 1 -7 142.2 12.27
-5 1 -7 137.03 12.8
5 1 7 149.86 12.23
-6 -1 -7 12.38 0.98
6 -1 7 11.43 0.94
-6 -1 -7 11.68 1.05
-6 -1 -7 12.11 0.96
-6 -1 -7 10.75 1.01
6 -1 7 12.05 0.9
6 -1 7 12.16 0.84
-7 -1 -7 18.72 1.39
-7 -1 -7 18.37 1.36
-7 -1 -7 18.45 1.48
7 -1 7 16.97 1.36
7 -1 7 18.58 1.31
7 -1 7 17.48 1.23
7 1 7 18.58 1.23
7 1 7 17.82 1.36
7 1 7 18.35 1.3
-7 1 -7 17.89 1.43
-7 1 -7 16.86 1.45
8 -1 7 59.77 4.43
-8 -1 -7 65.24 4.43
-8 -1 -7 63.92 4.35
8 -1 7 58.63 4.11
-8 -1 -7 65.96 4.63
8 -1 7 63.85 4.35
-8 1 -7 70.74 4.64
-8 1 -7 53.13 4.72
8 1 7 67.52 4.11
-8 1 -7 67.07 4.43
8 1 7 58.82 4.63
8 1 7 68.34 4.35
9 -1 7 5.81 0.44
-9 -1 -7 5.26 0.44
9 -1 7 5.48 0.4
-9 -1 -7 5.83 0.52
-9 1 -7 4.67 0.48
9 1 7 5.22 0.42
9 1 7 5.19 0.4
-9 1 -7 5.03 0.45
12 -2 -7 3.06 0.3
12 -2 -7 3.03 0.32
-12 -2 7 3.09 0.34
-12 -2 7 3.75 0.36
12 -2 -7 3.15 0.32
12 2 -7 3.3 0.31
12 2 -7 2.99 0.3
-11 -2 7 1.03 0.21
-11 -2 7 0.95 0.23
11 -2 -7 0.94 0.2
-11 -2 7 0.91 0.22
11 -2 -7 0.86 0.16
11 -2 -7 0.99 0.19
11 2 -7 0.84 0.18
11 2 -7 0.72 0.15
11 2 -7 0.77 0.15
-10 -2 7 7.54 0.69
10 -2 -7 7.22 0.67
10 -2 -7 7.04 0.72
10 -2 -7 7.05 0.63
10 -2 -7 7.45 0.68
-10 -2 7 6.71 0.69
-10 -2 7 7.41 0.73
10 2 -7 7.18 0.63
10 2 -7 6.9 0.68
10 2 -7 6.75 0.61
9 -2 -7 21.1 1.51
9 -2 -7 23.64 1.79
9 -2 -7 23.01 1.92
9 -2 -7 20.39 1.89
9 -2 -7 21.23 1.72
9 -2 -7 23.8 1.84
9 2 -7 20.35 1.69
9 2 -7 22.74 1.87
9 2 -7 23.14 1.77
8 -2 -7 9.57 0.81
-8 -2 7 7.17 0.88
8 -2 -7 9.89 0.88
8 -2 -7 8.84 0.76
8 -2 -7 10.48 0.84
8 -2 -7 9.52 0.85
8 -2 -7 8.97 0.66
-8 -2 7 7.94 0.85
-8 2 7 8.95 0.81
8 2 -7 8.55 0.74
-8 2 7 8.08 0.86
8 2 -7 9.34 0.81
8 2 -7 7.98 0.81
8 2 -7 8.53 0.79
-8 2 7 7.44 0.85
8 2 -7 8.67 0.71
8 2 -7 6.61 0.79
7 -2 -7 20.16 1.56
7 -2 -7 23.62 1.94
-7 -2 7 22.87 2.02
7 -2 -7 20.07 1.51
7 -2 -7 22.33 1.82
7 -2 -7 21.27 1.73
7 -2 -7 25.41 1.97
7 -2 -7 21.23 1.95
7 -2 -7 21.77 1.78
-7 -2 7 20.45 2.06
7 -2 -7 21.64 1.84
-7 2 7 23.58 1.88
7 2 -7 24.65 1.88
-7 2 7 22.52 2.01
7 2 -7 22.62 1.93
7 2 -7 22.26 1.89
7 2 -7 21.88 1.69
7 2 -7 24.36 1.78
7 2 -7 18.14 1.93
-7 2 7 24.49 2
6 -2 -7 11.68 0.96
6 -2 -7 11.37 1.04
-6 -2 7 11.49 1.12
6 -2 -7 11.09 0.91
6 -2 -7 11.79 1.11
6 -2 -7 13.13 1.12
6 -2 -7 10.77 0.84
6 -2 -7 13.39 1.15
6 -2 -7 12.74 1.02
-6 -2 7 11.82 1.18
6 -2 -7 10.15 1.03
6 -2 -7 10.67 0.87
6 -2 -7 10.4 0.86
6 -2 -7 12.45 1.03
-6 2 7 13.25 1.12
6 2 -7 10.42 1.06
6 2 -7 13.06 1.07
6 2 -7 11.91 1.06
6 2 -7 12.51 1.06
6 2 -7 12.45 0.98
5 -2 -7 6.62 0.6
5 -2 -7 6.03 0.49
5 -2 -7 6.78 0.64
5 -2 -7 5.74 0.63
5 -2 -7 5.65 0.58
5 -2 -7 5.18 0.65
5 -2 -7 5.56 0.46
-5 -2 7 6.65 0.69
5 -2 -7 5.73 0.48
5 -2 -7 5.64 0.52
5 -2 -7 6.65 0.66
5 -2 -7 6.83 0.58
5 -2 -7 5.8 0.53
-5 -2 7 5.79 0.64
5 -2 -7 7.03 0.57
-5 -2 7 5.9 0.63
-5 2 7 6.64 0.62
5 2 -7 5.32 0.54
5 2 -7 6.19 0.58
-5 2 7 5.8 0.61
5 2 -7 5.15 0.57
5 2 -7 6.25 0.55
-5 2 7 6.84 0.62
-4 -2 7 44.83 3.47
4 -2 -7 37.65 2.72
4 -2 -7 38.06 3.27
4 -2 -7 36.67 2.87
4 -2 -7 37.13 2.93
4 -2 -7 35.99 2.66
4 -2 -7 38.79 2.88
4 -2 -7 38.42 2.97
4 -2 -7 41.32 3.04
-4 -2 7 42.8 3.51
4 -2 -7 41.54 3.06
4 -2 -7 36.67 2.73
4 -2 -7 36.08 3.24
4 -2 -7 36.19 2.53
4 -2 -7 36.94 2.67
4 -2 -7 36.38 2.84
-4 -2 7 40.5 3.37
4 -2 -7 36.86 3.2
4 2 -7 43.2 3.25
4 2 -7 35.93 3.29
-4 2 7 40.07 3.38
4 2 -7 43.22 3.01
-4 2 7 33 3.42
-4 2 7 42.66 3.36
3 -2 -7 10.69 0.94
3 -2 -7 12.33 1.04
3 -2 -7 11.3 0.95
3 -2 -7 12.22 1.03
3 -2 -7 10.44 0.94
3 -2 -7 11.38 0.82
3 -2 -7 10.38 1.04
-3 -2 7 10.11 1.04
3 -2 -7 11.19 0.78
3 -2 -7 10.98 0.89
3 -2 -7 10.99 0.91
-3 -2 7 12.71 1.13
3 -2 -7 8.82 1.03
3 -2 -7 12.59 0.93
3 -2 -7 10.71 0.9
3 -2 -7 10.75 0.84
3 -2 -7 10.28 0.86
-3 2 7 12.93 1.06
3 2 -7 10.85 0.99
-3 2 7 11.1 1.05
3 2 -7 12.2 1
3 2 -7 13.57 0.95
-2 -2 7 30.67 2.48
2 -2 -7 27.74 2.29
2 -2 -7 28.64 2.08
2 -2 -7 26.71 1.97
2 -2 -7 24.84 1.99
2 -2 -7 26.74 2.08
2 -2 -7 24.55 2.16
-2 -2 7 29.98 2.43
2 -2 -7 26.61 1.75
2 -2 -7 23.18 2.08
2 -2 -7 24.51 2.02
2 -2 -7 24.25 1.98
2 -2 -7 24.37 2.25
2 -2 -7 28.46 2
2 -2 -7 25.83 1.86
2 -2 -7 26.18 1.9
2 -2 -7 24.58 2.2
-2 2 7 29.62 2.36
2 2 -7 27.52 2.08
2 2 -7 28.57 2.25
-2 2 7 23.66 2.15
2 2 -7 25.32 2.27
-2 2 7 27.84 2.21
-2 2 7 27.82 2.41
-2 2 7 28.58 2.18
1 -2 -7 14.89 1.3
1 -2 -7 15.74 1.38
1 -2 -7 16.33 1.24
1 -2 -7 15.05 1.48
-1 -2 7 19.75 1.68
1 -2 -7 14.42 1.31
1 -2 -7 16.17 1.27
1 -2 -7 14.22 1.33
1 -2 -7 14.75 1.45
1 -2 -7 16.81 1.54
-1 -2 7 17.77 1.46
1 -2 -7 16.19 1.33
-1 2 7 18.5 1.45
-1 2 7 19.71 1.48
-1 2 7 20.41 1.61
1 2 -7 19.96 1.44
1 2 -7 18.35 1.48
-1 2 7 20.05 1.46
1 2 -7 18.41 1.5
0 -2 -7 19.81 1.99
0 -2 -7 24.37 2.11
0 -2 -7 23.53 1.7
0 -2 -7 25.6 1.9
0 -2 -7 24.37 1.74
0 -2 7 28.25 2.03
0 -2 7 22.01 1.75
0 -2 7 21.11 1.68
0 -2 -7 23.74 1.81
0 -2 -7 21.37 1.82
0 -2 7 21.87 2.25
0 -2 -7 23.03 1.95
0 2 7 25.84 2.02
0 2 -7 24.93 1.98
0 2 -7 27.28 1.9
0 2 7 22.02 1.94
0 2 7 26.81 2
0 2 7 25.91 2.21
0 2 7 24.7 1.99
0 2 -7 25.27 2.03
0 2 -7 23.1 2.06
-1 -2 -7 22.85 1.94
-1 -2 -7 24.15 1.73
1 -2 7 26.01 1.8
-1 -2 -7 25.91 1.95
-1 -2 -7 23.75 1.77
1 -2 7 24.84 1.59
-1 -2 -7 22.47 1.83
1 2 7 25.3 2.03
-1 2 -7 25.01 1.92
-1 2 -7 26.11 2.02
1 2 7 23.98 2.05
-1 2 -7 23.21 2.06
1 2 7 24.09 2.23
1 2 7 23.8 1.99
-1 2 -7 24.51 2.11
1 2 7 24.13 2.02
2 -2 7 11.29 0.89
2 -2 7 11.85 1.1
-2 -2 -7 13.16 0.96
-2 -2 -7 10.26 1.11
2 -2 7 12.49 1.21
-2 -2 -7 11.87 0.92
-2 -2 -7 10.36 1.01
2 -2 7 10.74 0.83
-2 -2 -7 13.23 1.01
-2 -2 -7 12.73 1.06
2 -2 7 13.95 0.96
2 -2 7 12.92 0.92
2 2 7 11.64 1.07
-2 2 -7 12.28 1
-2 2 -7 12.2 1.05
-2 2 -7 11.02 1.05
2 2 7 11.28 1.01
2 2 7 12.57 1.17
2 2 7 12.56 1.06
2 2 7 12.37 1.05
3 -2 7 10.42 0.77
3 -2 7 9.92 0.82
3 -2 7 8.68 0.71
-3 -2 -7 11.18 0.9
-3 -2 -7 7.3 0.89
3 -2 7 8.34 0.99
-3 -2 -7 10.85 0.85
-3 -2 -7 10.48 0.81
3 -2 7 9.78 0.79
3 -2 7 10.85 0.98
-3 2 -7 10.69 0.9
-3 2 -7 9.82 0.86
3 2 7 10.28 0.87
3 2 7 10.78 0.9
3 2 7 10.73 1
-3 2 -7 9.31 0.9
3 2 7 9.71 0.92
3 2 7 10.04 0.91
-4 -2 -7 6 0.57
-4 -2 -7 6.81 0.66
-4 -2 -7 5.07 0.58
4 -2 7 6.92 0.57
-4 -2 -7 5.43 0.63
4 -2 7 5.62 0.53
4 -2 7 6.05 0.52
4 -2 7 6.58 0.68
-4 2 -7 6.1 0.58
4 2 7 6.9 0.62
4 2 7 6.33 0.63
-4 2 -7 6.22 0.62
4 2 7 5.9 0.6
4 2 7 6.42 0.58
4 2 7 6.29 0.66
5 -2 7 13.42 1.02
5 -2 7 13.07 1.23
5 -2 7 14.28 0.96
5 -2 7 15.29 1.08
-5 -2 -7 14.16 1.17
5 -2 7 14.29 1.01
-5 -2 -7 13.42 1.11
-5 -2 -7 14.93 1.09
-5 -2 -7 15.93 1.21
5 2 7 12.28 1.15
-5 2 -7 12.6 1.19
5 2 7 12.88 1.18
-5 2 -7 12.38 1.12
5 2 7 11.04 1.27
6 -2 7 8.53 0.66
-6 -2 -7 7.94 0.81
-6 -2 -7 8.5 0.73
-6 -2 -7 8.54 0.74
6 -2 7 8.11 0.71
6 -2 7 7.43 0.66
6 -2 7 7.87 0.61
-7 -2 -7 6.98 0.69
-7 -2 -7 6.23 0.58
7 -2 7 6.1 0.54
7 -2 7 6.14 0.56
-7 -2 -7 6.91 0.6
7 -2 7 6.35 0.5
-8 -2 -7 0.59 0.2
-8 -2 -7 0.57 0.16
8 -2 7 0.63 0.12
8 -2 7 0.47 0.13
8 -2 7 0.45 0.12
-8 -2 -7 0.46 0.14
-8 2 -7 0.44 0.14
8 2 7 0.67 0.11
8 2 7 0.41 0.09
8 2 7 0.53 0.11
-8 2 -7 0.44 0.13
-8 2 -7 0.49 0.16
-9 -2 -7 4.06 0.38
9 -2 7 3.98 0.31
9 2 7 3.3 0.27
-9 2 -7 2.45 0.35
-9 2 -7 3.54 0.32
-11 -3 7 9.93 0.8
11 -3 -7 8.12 0.69
-11 -3 7 7.68 0.73
11 -3 -7 9.02 0.73
11 -3 -7 8.01 0.74
11 3 -7 9.61 0.72
11 3 -7 8.31 0.68
10 -3 -7 24.77 1.77
10 -3 -7 26.42 2.23
10 -3 -7 29.07 2.15
-10 -3 7 28.6 2.03
10 -3 -7 27.96 2.09
-10 -3 7 30.8 2.21
-10 -3 7 24.09 2.05
10 -3 -7 24.59 2.02
10 3 -7 27.75 2.09
10 3 -7 24 2.01
10 3 -7 26.87 2.19
9 -3 -7 2.29 0.27
9 -3 -7 2.65 0.33
-9 -3 7 3.02 0.45
9 -3 -7 3 0.41
-9 -3 7 3.25 0.52
-9 -3 7 2.4 0.4
9 -3 -7 2.79 0.38
9 -3 -7 3.04 0.38
9 -3 -7 1.88 0.25
9 -3 -7 2.49 0.35
9 3 -7 2.65 0.28
9 3 -7 3.11 0.35
9 3 -7 3.15 0.31
8 -3 -7 8.53 0.8
-8 -3 7 8.24 0.69
8 -3 -7 7.51 0.63
8 -3 -7 9.66 0.85
8 -3 -7 9.86 0.89
8 -3 -7 7.77 0.63
8 -3 -7 7.67 0.64
8 -3 -7 7.51 0.73
-8 -3 7 7.02 0.78
8 -3 -7 9.19 0.83
-8 -3 7 10.04 0.87
8 -3 -7 8.09 0.78
-8 -3 7 8.96 0.89
8 3 -7 7.01 0.66
8 3 -7 8.68 0.72
8 3 -7 8.35 0.78
8 3 -7 7.1 0.75
7 -3 -7 1.83 0.37
7 -3 -7 2.13 0.35
7 -3 -7 1.66 0.28
7 -3 -7 2.22 0.46
7 -3 -7 2.66 0.43
7 -3 -7 2.26 0.39
-7 -3 7 2.05 0.46
7 -3 -7 1.54 0.32
-7 -3 7 2.46 0.36
7 -3 -7 1.4 0.23
7 -3 -7 1.88 0.24
7 -3 -7 2.07 0.24
-7 -3 7 2.07 0.43
7 -3 -7 2 0.39
7 3 -7 1.66 0.23
7 3 -7 1.66 0.33
7 3 -7 2.66 0.28
7 3 -7 2.72 0.36
7 3 -7 2.38 0.32
6 -3 -7 9.45 0.83
6 -3 -7 11.24 1
6 -3 -7 9.94 0.8
6 -3 -7 9.42 0.75
-6 -3 7 7.65 0.92
6 -3 -7 9.43 0.91
6 -3 -7 8.93 0.73
-6 -3 7 8.06 0.93
-6 -3 7 8.16 0.94
6 -3 -7 9.06 1.02
6 -3 -7 10.09 0.93
6 -3 -7 9.19 0.72
6 -3 -7 10.4 0.9
-6 -3 7 10.71 0.85
-6 -3 7 8.66 1
6 -3 -7 10.48 0.97
6 -3 -7 9.88 0.89
-6 3 7 8.47 0.9
-6 3 7 10.38 0.88
6 3 -7 11.24 0.91
6 3 -7 8.55 0.89
5 -3 -7 10.18 0.71
5 -3 -7 9.55 0.81
-5 -3 7 9.79 1.01
-5 -3 7 7.65 0.88
5 -3 -7 10.51 0.78
5 -3 -7 10.28 0.7
5 -3 -7 10.24 0.88
5 -3 -7 9.34 0.94
5 -3 -7 9.8 0.75
5 -3 -7 8.95 0.7
-5 -3 7 10.05 0.73
5 -3 -7 8.81 0.72
5 -3 -7 7.86 0.96
5 -3 -7 10.22 0.97
5 -3 -7 10.27 0.84
5 -3 -7 9.22 0.86
-5 -3 7 9.06 0.89
5 -3 -7 10.63 0.93
-5 -3 7 8.63 0.81
5 -3 -7 10.19 0.79
5 3 -7 7.4 0.84
-5 3 7 7.33 0.85
5 3 -7 9.03 0.86
-5 3 7 8.05 0.87
5 3 -7 7.79 0.77
-4 -3 7 36.11 3.27
4 -3 -7 42.86 3.53
4 -3 -7 40.94 3.12
-4 -3 7 39.52 3.81
4 -3 -7 42.04 3.27
4 -3 -7 40.29 2.95
4 -3 -7 44.32 3.14
4 -3 -7 41.16 3.07
4 -3 -7 40.23 3.57
-4 -3 7 42.14 3.15
4 -3 -7 44.21 2.92
-4 -3 7 41.92 3.77
4 -3 -7 43.07 3.19
4 -3 -7 44.47 3.35
-4 -3 7 38.32 2.7
4 -3 -7 41.14 2.75
4 -3 -7 39.66 2.89
4 -3 -7 41.23 2.84
4 -3 -7 40.47 3.23
4 -3 -7 46.28 3.33
4 -3 -7 40.79 2.97
4 -3 -7 42.95 3.1
-4 3 7 41.16 3.55
-4 3 7 39.63 3.65
-4 3 7 46.53 3.63
4 3 -7 41.23 3.58
4 3 -7 46.82 3.53
4 3 -7 41.76 3.24
3 -3 -7 60.9 4.65
3 -3 -7 51.41 4.55
3 -3 -7 53.2 3.85
3 -3 -7 55.11 4.06
3 -3 -7 59.2 4.51
3 -3 -7 54.34 3.78
3 -3 -7 57.57 3.85
3 -3 -7 57.41 4.02
3 -3 -7 59.26 4.06
-3 -3 7 52.85 3.82
3 -3 -7 55.99 3.58
-3 -3 7 47.13 4.84
3 -3 -7 57.08 4.2
3 -3 -7 56.53 3.44
3 -3 -7 57.65 3.96
3 -3 -7 57.87 4.24
3 -3 -7 53.18 4.12
-3 -3 7 61.41 4.99
-3 -3 7 52.4 3.99
3 -3 -7 58.52 4.33
3 -3 -7 56.68 3.76
-3 3 7 47.8 4.44
3 3 -7 56.01 4.58
3 3 -7 49.13 4.65
-3 3 7 51.33 4.76
3 3 -7 53.18 4.22
-3 3 7 58.67 4.73
-3 3 7 52.34 4.86
-3 3 7 50.99 4.39
2 -3 -7 20.99 1.78
2 -3 -7 16.89 1.65
2 -3 -7 18.51 1.53
2 -3 -7 18.73 1.68
2 -3 -7 18.39 1.41
2 -3 -7 19.71 1.42
-2 -3 7 19.53 1.45
2 -3 -7 19.64 1.45
2 -3 -7 18.45 1.58
-2 -3 7 18.33 1.51
-2 -3 7 18.61 1.35
2 -3 -7 19.04 1.72
2 -3 -7 17.99 1.48
2 -3 -7 21.04 1.53
2 -3 -7 20.35 1.58
2 -3 -7 19.91 1.52
2 -3 -7 19.77 1.49
-2 -3 7 17.41 1.42
-2 -3 7 22.17 1.92
2 -3 -7 20.39 1.6
-2 3 7 20.92 1.81
2 3 -7 21.55 1.7
-2 3 7 19.99 1.63
-2 3 7 20.03 1.77
-2 3 7 17.16 1.62
2 3 -7 21.11 1.56
2 3 -7 18.78 1.7
-2 3 7 18.78 1.65
-1 -3 7 18.79 1.33
1 -3 -7 18.54 1.3
1 -3 -7 20.14 1.33
1 -3 -7 19.62 1.42
1 -3 -7 19.32 1.37
1 -3 -7 18.45 1.46
-1 -3 7 15.29 1.32
1 -3 -7 19.22 1.35
-1 -3 7 20.87 1.8
1 -3 -7 18.74 1.56
-1 -3 7 15.3 1.65
1 -3 -7 19.72 1.67
1 -3 -7 21.21 1.44
-1 -3 7 19.63 1.27
1 -3 -7 18.61 1.56
-1 -3 7 17.36 1.38
1 -3 -7 17.97 1.4
1 -3 -7 20.76 1.5
1 -3 -7 19.31 1.58
1 -3 -7 19.66 1.46
-1 3 7 14.25 1.52
-1 3 7 16.28 1.63
-1 3 7 16.59 1.51
1 3 -7 15.31 1.42
1 3 -7 14.43 1.53
-1 3 7 14.4 1.65
0 -3 7 64.86 4.45
0 -3 -7 70.07 4.98
0 -3 -7 59.16 4.63
0 -3 -7 64.43 4.74
0 -3 -7 65.27 4.57
0 -3 -7 63.05 5.31
0 -3 -7 66.46 4.48
0 -3 7 61.15 4.6
0 -3 -7 58.66 5.23
0 -3 -7 63.45 4.99
0 -3 -7 65.11 5.04
0 -3 7 69.36 4.48
0 -3 -7 69.36 4.81
0 -3 7 69.5 4.14
0 3 -7 70.98 5.03
0 3 7 68.51 5.33
0 3 -7 67 5.44
0 3 -7 59.48 5.53
0 3 7 62.67 5.27
0 3 7 71.04 5.27
0 3 -7 59.56 5.23
0 3 7 70.96 5.83
1 -3 7 18.19 1.29
-1 -3 -7 16.55 1.29
1 -3 7 15.39 1.23
1 -3 7 17.93 1.19
-1 -3 -7 17.25 1.36
1 -3 7 15.05 1.3
-1 -3 -7 13.92 1.54
-1 -3 -7 19 1.47
-1 -3 -7 17.53 1.36
-1 -3 -7 17.21 1.26
1 -3 7 13.46 1.63
1 3 7 17.42 1.46
-1 3 -7 16.18 1.41
1 3 7 19.27 1.63
1 3 7 19.07 1.5
1 3 7 18.92 1.47
1 3 7 14.62 1.41
-1 3 -7 15.43 1.49
-1 3 -7 17.18 1.47
-1 3 -7 18.08 1.38
-2 -3 -7 7.15 0.69
2 -3 7 6.9 0.63
2 -3 7 7.83 0.67
2 -3 7 5.48 0.77
-2 -3 -7 5.42 0.71
2 -3 7 5.8 0.58
-2 -3 -7 6.5 0.66
-2 -3 -7 6.83 0.62
-2 -3 -7 7.16 0.65
2 -3 7 6.62 0.58
-2 -3 -7 6.12 0.74
-2 3 -7 6.93 0.7
2 3 7 8.65 0.79
2 3 7 8.43 0.72
-2 3 -7 7.52 0.69
-2 3 -7 8.02 0.66
2 3 7 8.76 0.75
-2 3 -7 6.96 0.66
2 3 7 7.62 0.66
-3 -3 -7 12.51 1.04
-3 -3 -7 12.74 1
3 -3 7 11.78 0.9
3 -3 7 14.65 1.06
3 -3 7 13.11 0.99
-3 -3 -7 12.7 1.07
-3 -3 -7 13.21 1.11
3 -3 7 11.2 0.96
-3 3 -7 11.51 1.13
-3 3 -7 10.89 1.16
-3 3 -7 12.1 1.06
3 3 7 11.66 1.08
-3 3 -7 12.26 1.1
3 3 7 12.64 1.15
3 3 7 14.78 1.14
3 3 7 12.74 1.13
3 3 7 13.78 1.25
-4 -3 -7 3.29 0.43
4 -3 7 3.75 0.4
-4 -3 -7 3.08 0.46
4 -3 7 3.94 0.39
4 -3 7 3.52 0.41
-4 -3 -7 3.4 0.5
-4 -3 -7 3.51 0.41
4 -3 7 2.98 0.35
-4 -3 -7 3.92 0.55
-5 -3 -7 8.67 0.73
-5 -3 -7 6.9 0.72
-5 -3 -7 7.52 0.8
5 -3 7 8.23 0.71
5 -3 7 7.48 0.67
5 -3 7 9.03 0.69
-6 -3 -7 40.53 2.91
-6 -3 -7 39.14 2.95
6 -3 7 43.77 2.88
6 -3 7 39.97 2.82
6 -3 7 42.32 2.95
-6 -3 -7 40.34 3.12
-7 -3 -7 2.03 0.28
-7 -3 -7 1.24 0.29
7 -3 7 1.78 0.22
7 -3 7 1.45 0.23
-7 -3 -7 1.47 0.24
8 -3 7 9.7 0.69
-8 -3 -7 10.28 0.79
8 -3 7 8.93 0.7
-8 -3 -7 9.53 0.71
8 3 7 8.35 0.63
8 3 7 8.7 0.7
-8 3 -7 9.69 0.71
-8 3 -7 8.18 0.75
-10 -4 7 3.86 0.41
-10 -4 7 5.33 0.48
10 -4 -7 4.05 0.41
10 -4 -7 4.39 0.39
10 -4 -7 4.06 0.32
10 -4 -7 4.38 0.42
10 4 -7 3.75 0.4
10 4 -7 4.25 0.38
9 -4 -7 6 0.59
9 -4 -7 4.97 0.6
9 -4 -7 6.01 0.59
-9 -4 7 6.37 0.61
9 -4 -7 5.01 0.45
-9 -4 7 6.88 0.66
9 -4 -7 5.54 0.46
9 -4 -7 5.85 0.54
9 4 -7 6.35 0.58
9 4 -7 7.18 0.54
8 -4 -7 2.28 0.33
8 -4 -7 2.03 0.23
-8 -4 7 2.78 0.46
8 -4 -7 2.25 0.37
8 -4 -7 2.04 0.36
8 -4 -7 2.44 0.26
8 -4 -7 1.81 0.29
8 -4 -7 2.55 0.41
-8 -4 7 2.14 0.44
8 4 -7 1.69 0.3
8 4 -7 1.87 0.24
-7 -4 7 13.33 1.52
7 -4 -7 18.99 1.66
-7 -4 7 21.4 1.58
7 -4 -7 18.03 1.41
7 -4 -7 17.66 1.28
7 -4 -7 16.17 1.52
-7 -4 7 18.77 1.33
7 -4 -7 16.69 1.22
7 -4 -7 17.9 1.49
7 -4 -7 15.09 1.45
7 -4 -7 17.75 1.26
7 -4 -7 18.63 1.58
7 4 -7 16.91 1.52
7 4 -7 16.77 1.41
6 -4 -7 22.92 2.03
6 -4 -7 23.56 1.78
-6 -4 7 25.61 1.74
6 -4 -7 20.47 1.9
6 -4 -7 22.26 1.84
-6 -4 7 19.33 1.91
6 -4 -7 25.49 2.04
-6 -4 7 19.11 1.86
6 -4 -7 23.11 1.9
6 -4 -7 21.68 2.06
6 -4 -7 23.94 1.65
6 -4 -7 21.62 1.55
6 -4 -7 21.37 1.61
5 -4 -7 2.35 0.43
-5 -4 7 1.93 0.41
-5 -4 7 2.18 0.39
5 -4 -7 2.09 0.39
5 -4 -7 1.93 0.31
-5 -4 7 2.13 0.31
5 -4 -7 2.14 0.26
-5 -4 7 1.92 0.45
5 -4 -7 2.33 0.26
5 -4 -7 2.11 0.42
5 -4 -7 2.14 0.3
5 -4 -7 2.09 0.51
5 -4 -7 2.32 0.37
5 -4 -7 2.43 0.49
5 -4 -7 2.08 0.25
5 -4 -7 2.09 0.31
5 -4 -7 1.91 0.35
5 -4 -7 2.09 0.27
5 -4 -7 2.08 0.4
4 -4 -7 39.64 2.93
4 -4 -7 32.84 3.32
4 -4 -7 39.34 2.89
4 -4 -7 36.75 2.78
4 -4 -7 40.19 3.01
4 -4 -7 40.77 2.49
4 -4 -7 39.94 3.06
4 -4 -7 38.59 2.76
4 -4 -7 39.14 2.91
4 -4 -7 39.58 3.07
4 -4 -7 39.23 2.57
4 -4 -7 39.05 3.38
4 -4 -7 39.62 3.17
4 -4 -7 39.39 2.66
-4 -4 7 35.08 3.06
-4 -4 7 38.53 2.55
4 -4 -7 43.09 3.13
4 -4 -7 40.12 2.74
4 -4 -7 39.72 2.73
4 -4 -7 41.91 2.95
4 -4 -7 41.81 3.35
-4 -4 7 38.42 2.98
4 -4 -7 39.86 2.7
4 4 -7 32.34 3.32
4 4 -7 35.31 3.27
3 -4 -7 0.66 0.24
3 -4 -7 0.82 0.2
-3 -4 7 0.62 0.23
-3 -4 7 0.69 0.21
3 -4 -7 0.57 0.28
3 -4 -7 0.93 0.22
-3 -4 7 0.41 0.24
3 -4 -7 0.61 0.18
3 -4 -7 0.67 0.14
3 -4 -7 0.92 0.2
-3 -4 7 0.7 0.22
3 -4 -7 1.08 0.33
3 -4 -7 0.72 0.25
3 -4 -7 0.89 0.22
3 -4 -7 0.85 0.2
3 -4 -7 0.91 0.23
3 -4 -7 0.79 0.17
3 -4 -7 0.69 0.23
3 -4 -7 0.62 0.19
3 -4 -7 0.92 0.24
3 -4 -7 0.63 0.15
3 4 -7 1.29 0.22
3 4 -7 0.95 0.17
3 4 -7 1.16 0.2
2 -4 -7 10.05 0.69
2 -4 -7 10.62 0.79
2 -4 -7 10.09 0.85
2 -4 -7 10.12 0.97
2 -4 -7 10.38 0.85
2 -4 -7 10.3 0.85
2 -4 -7 10.64 0.84
2 -4 -7 8.52 0.96
2 -4 -7 9.8 0.94
2 -4 -7 10.26 0.81
2 -4 -7 9.69 0.77
-2 -4 7 9.66 0.78
-2 -4 7 9.35 0.79
-2 -4 7 9.24 0.85
2 -4 -7 10.77 1.05
2 -4 -7 10.12 0.92
2 -4 -7 10.21 0.87
-2 -4 7 9.87 0.84
-2 4 7 8.01 0.92
-2 4 7 7.85 0.85
2 4 -7 7.49 0.87
-2 4 7 8.2 0.84
2 4 -7 8.16 0.79
-2 4 7 8.5 0.91
2 4 -7 9.28 0.87
-1 -4 7 9.45 0.85
1 -4 -7 10.71 0.9
1 -4 -7 11.63 0.83
-1 -4 7 9.51 0.88
-1 -4 7 11.25 0.87
1 -4 -7 9.99 0.97
1 -4 -7 10.64 0.99
1 -4 -7 11.86 1.01
1 -4 -7 10.69 0.86
-1 -4 7 8.64 1.11
1 -4 -7 11.05 0.9
1 -4 -7 11.66 0.88
-1 -4 7 11.39 0.85
1 -4 -7 11.71 0.84
1 -4 -7 11.47 1.03
1 -4 -7 11.69 0.92
1 -4 -7 10.83 1.1
1 4 -7 9.58 0.94
-1 4 7 8.73 0.91
-1 4 7 8.13 0.98
-1 4 7 8.5 1.01
-1 4 7 8.03 0.93
0 -4 -7 2.13 0.36
0 -4 7 2.45 0.34
0 -4 -7 2.85 0.5
0 -4 7 2.37 0.36
0 -4 -7 2.39 0.39
0 -4 7 1.55 0.43
0 -4 -7 1.55 0.4
0 -4 -7 2.21 0.42
0 -4 -7 2.15 0.3
0 -4 7 1.94 0.37
0 -4 7 2.34 0.36
0 -4 -7 2.72 0.4
0 -4 -7 2.11 0.33
0 -4 -7 2.26 0.35
0 -4 -7 2.5 0.36
0 -4 -7 2.35 0.32
0 4 -7 3.13 0.32
0 4 -7 2.71 0.34
0 4 7 2.9 0.35
0 4 7 3.42 0.39
0 4 -7 2.93 0.33
0 4 7 3.78 0.42
0 4 7 2.75 0.37
-1 -4 -7 47.23 3.19
-1 -4 -7 45.23 3.3
1 -4 7 43.13 3.06
1 -4 7 47.09 3.12
1 -4 7 44.33 3.19
-1 -4 -7 41.51 3.78
1 -4 7 47.63 2.89
-1 -4 -7 47.05 3.1
-1 -4 -7 39.73 3.47
-1 -4 -7 45.55 3.33
-1 -4 -7 45.85 3.44
1 4 7 45.81 4.01
-1 4 -7 39.04 3.42
1 4 7 39.49 3.62
1 4 7 40.75 3.66
1 4 7 47.26 3.63
2 -4 7 13.06 1.2
2 -4 7 15.83 1.19
-2 -4 -7 16.45 1.29
-2 -4 -7 15.95 1.18
-2 -4 -7 14.02 1.25
2 -4 7 12.89 1.11
-2 -4 -7 15.17 1.22
-2 -4 -7 16.78 1.28
2 -4 7 16.15 1.1
3 -4 7 0.98 0.2
-3 -4 -7 1.14 0.28
-3 -4 -7 1.03 0.26
-3 -4 -7 0.89 0.28
-3 -4 -7 1.54 0.35
3 -4 7 1.13 0.25
-3 -4 -7 0.96 0.24
3 -4 7 1.01 0.21
3 -4 7 1.1 0.23
4 -4 7 11.26 0.87
4 -4 7 13.28 1.03
-4 -4 -7 13.66 1.03
-4 -4 -7 13.26 1.08
4 -4 7 11.17 0.95
4 -4 7 12.22 0.97
-4 -4 -7 12.19 1.11
5 -4 7 3.94 0.38
-5 -4 -7 3.33 0.41
5 -4 7 3.86 0.41
-5 -4 -7 3.2 0.51
-5 -4 -7 3.41 0.43
-5 -4 -7 3.42 0.41
5 -4 7 3.65 0.37
-6 -4 -7 0.62 0.18
-6 -4 -7 0.51 0.2
6 -4 7 0.41 0.13
6 -4 7 0.68 0.16
-6 -4 -7 0.5 0.15
6 -4 7 0.52 0.13
7 -4 7 12.86 0.96
-7 -4 -7 13.41 1.04
-7 -4 -7 13.34 0.97
7 -4 7 12.03 0.92
9 -5 -7 0.07 0.07
9 -5 -7 0.12 0.09
9 5 -7 0.03 0.05
8 -5 -7 1.16 0.15
8 -5 -7 1.13 0.18
-8 -5 7 1.09 0.25
8 -5 -7 1.14 0.21
8 -5 -7 1.2 0.22
-8 -5 7 1.38 0.26
8 5 -7 1.21 0.2
8 5 -7 1.09 0.15
7 -5 -7 1.99 0.34
7 -5 -7 1.9 0.35
-7 -5 7 1.35 0.31
7 -5 -7 1.59 0.2
-7 -5 7 1.67 0.24
7 -5 -7 1.48 0.28
7 -5 -7 1.39 0.23
-7 -5 7 1.78 0.37
7 5 -7 1.57 0.2
7 5 -7 1.59 0.25
7 5 -7 1.66 0.27
-6 -5 7 5.59 0.72
-6 -5 7 6.77 0.71
6 -5 -7 5.46 0.69
-6 -5 7 8.08 0.64
6 -5 -7 7.44 0.79
6 -5 -7 6.99 0.54
6 -5 -7 7.41 0.63
6 -5 -7 6.82 0.68
-5 -5 7 11.69 1.13
5 -5 -7 14.06 1.2
5 -5 -7 13.54 1.25
5 -5 -7 12.95 1.17
5 -5 -7 9.64 1.21
5 -5 -7 13.97 1.12
5 -5 -7 13.51 1.05
-5 -5 7 14.12 1.08
-5 -5 7 9.68 1.12
5 -5 -7 13.99 1.28
4 -5 -7 22.13 1.8
4 -5 -7 21.58 1.69
4 -5 -7 21.53 1.5
-4 -5 7 20.44 1.39
4 -5 -7 21.93 1.63
4 -5 -7 23.85 1.92
4 -5 -7 20.05 1.7
4 -5 -7 15.94 1.83
-4 -5 7 19.65 1.68
4 -5 -7 21.25 1.53
4 -5 -7 20.86 1.6
-4 -5 7 16.53 1.55
4 -5 -7 21.57 1.88
-4 -5 7 17.34 1.65
3 -5 -7 1.69 0.33
3 -5 -7 1.57 0.32
3 -5 -7 1.4 0.26
3 -5 -7 1.6 0.27
-3 -5 7 1.31 0.31
-3 -5 7 1.33 0.3
3 -5 -7 1.53 0.37
3 -5 -7 1.27 0.28
3 -5 -7 1.58 0.25
3 -5 -7 1.63 0.38
-3 -5 7 1.2 0.27
3 -5 -7 1.56 0.34
3 -5 -7 1.58 0.4
3 -5 -7 1.18 0.25
-2 -5 7 18.74 1.55
2 -5 -7 20.57 1.55
2 -5 -7 21.11 1.59
2 -5 -7 20.44 1.47
2 -5 -7 19.5 1.46
2 -5 -7 16.56 1.7
-2 -5 7 21.87 1.55
2 -5 -7 19.27 1.87
-2 -5 7 17.6 1.42
2 -5 -7 19.61 1.57
2 -5 -7 21.09 1.71
2 -5 -7 20.13 1.64
2 -5 -7 20.11 1.51
1 -5 -7 9.05 1.2
1 -5 -7 11.59 0.95
1 -5 -7 12.84 1
1 -5 -7 13.21 1.18
-1 -5 7 12.77 0.98
1 -5 -7 11.82 1.04
1 -5 -7 13.14 1.05
-1 -5 7 11.49 1
1 -5 -7 12.51 1.02
-1 -5 7 12.47 0.98
1 -5 -7 12.49 1.06
1 -5 -7 12.88 1.14
1 -5 -7 11.8 0.95
-1 -5 7 13.04 1.01
0 -5 7 4.94 0.54
0 -5 -7 4.88 0.53
0 -5 -7 4.95 0.51
0 -5 -7 4.75 0.65
0 -5 -7 4.99 0.64
0 -5 7 5.27 0.51
0 -5 7 5.46 0.54
0 -5 -7 5.19 0.54
0 -5 -7 5.17 0.56
0 -5 -7 5.47 0.5
0 -5 -7 5.99 0.55
-1 -5 -7 6.92 0.66
-1 -5 -7 8.27 0.74
-1 -5 -7 8.45 0.73
-1 -5 -7 7.73 0.67
-1 -5 -7 7.99 0.75
1 -5 7 8.5 0.67
1 -5 7 7.35 0.65
1 -5 7 6.78 0.63
1 -5 7 7.46 0.71
-1 -5 -7 8.23 0.72
2 -5 7 19.21 1.47
-2 -5 -7 17.7 1.56
-2 -5 -7 20.54 1.57
2 -5 7 21.21 1.35
-2 -5 -7 16.22 1.47
2 -5 7 17.47 1.37
-2 -5 -7 20.94 1.46
2 -5 7 22.15 1.47
-2 -5 -7 19.79 1.55
3 -5 7 2.76 0.34
-3 -5 -7 1.86 0.34
-3 -5 -7 2.72 0.36
3 -5 7 3.1 0.35
-3 -5 -7 2.47 0.41
-3 -5 -7 2.88 0.34
3 -5 7 2.91 0.31
-4 -5 -7 4.7 0.48
-4 -5 -7 4.34 0.53
-4 -5 -7 4.6 0.45
4 -5 7 4.8 0.44
4 -5 7 4.34 0.38
4 -5 7 4.94 0.45
-4 -5 -7 5 0.47
-5 -5 -7 9.89 0.91
5 -5 7 12.56 0.89
5 -5 7 12.41 0.84
-5 -5 -7 10.52 0.95
-5 -5 -7 11.74 0.89
6 -5 7 0.36 0.1
-6 -5 -7 0.34 0.11
-6 -6 7 1.5 0.27
6 6 -7 1.71 0.23
-5 -6 7 1.49 0.29
-5 -6 7 1.83 0.25
-4 -6 7 17.6 1.38
-4 -6 7 17.23 1.3
-3 -6 7 4.45 0.39
3 -6 -7 4.29 0.38
-3 -6 7 4.1 0.43
-3 -6 7 4.31 0.45
3 -6 -7 3.66 0.42
2 -6 -7 4.09 0.42
2 -6 -7 3.73 0.39
2 -6 -7 3.94 0.41
2 -6 -7 3.91 0.42
-2 -6 7 4.01 0.41
2 -6 -7 4.1 0.37
-2 -6 7 3.46 0.41
-2 -6 7 3.93 0.4
1 -6 -7 25.76 1.81
1 -6 -7 26.86 1.95
1 -6 -7 27.34 1.87
-1 -6 7 22.72 1.7
-1 -6 7 21.74 1.85
1 -6 -7 25.51 1.91
1 -6 -7 27.28 2.03
1 -6 -7 25.36 1.95
-1 -6 7 27.61 1.83
0 -6 -7 9.41 0.82
0 -6 -7 10.25 0.75
0 -6 7 9.72 0.74
0 -6 -7 9.46 0.82
0 -6 -7 8.85 0.8
0 -6 -7 9.4 0.78
0 -6 7 8.94 0.72
0 -6 7 9.79 0.74
-1 -6 -7 19.57 1.51
-1 -6 -7 18.75 1.55
-1 -6 -7 18.95 1.51
1 -6 7 21.1 1.32
1 -6 7 17.75 1.38
1 -6 7 19.21 1.37
-1 -6 -7 21.25 1.42
-2 -6 -7 7.61 0.7
2 -6 7 9.09 0.63
-2 -6 -7 8.42 0.64
-2 -6 -7 6.57 0.66
2 -6 7 8.78 0.59
-2 -6 -7 7.48 0.67
-3 -6 -7 5.05 0.43
-3 -6 -7 3.67 0.46
3 -6 7 5.22 0.38
-3 -6 -7 4.8 0.45
3 -6 7 5.96 0.42
12 0 -8 0.24 0.1
12 0 -8 0.28 0.1
11 0 -8 0.36 0.11
11 0 -8 0.21 0.13
11 0 -8 0.1 0.11
10 0 -8 8.55 0.73
10 0 -8 7.74 0.77
10 0 -8 8.33 0.73
9 0 -8 2.65 0.32
9 0 -8 2.57 0.35
9 0 -8 2.44 0.34
9 0 -8 3.09 0.34
-8 0 8 5.74 0.57
-8 0 8 5.02 0.62
-8 0 8 4.95 0.6
8 0 -8 6.09 0.59
8 0 -8 5.41 0.57
8 0 -8 5.63 0.53
-8 0 8 5.96 0.63
8 0 -8 6.37 0.55
7 0 -8 25.09 2.21
7 0 -8 29.86 2.23
-7 0 8 29.63 2.51
-7 0 8 27.28 2.52
7 0 -8 29.76 2.36
7 0 -8 29.65 2.34
-7 0 8 27.64 2.44
7 0 -8 25.75 2.14
-6 0 8 4.86 0.5
6 0 -8 4.83 0.49
-6 0 8 4.61 0.51
6 0 -8 4.2 0.46
6 0 -8 4.2 0.43
-6 0 8 5.13 0.5
6 0 -8 4.3 0.43
6 0 -8 4.25 0.45
6 0 -8 4.73 0.48
5 0 -8 23.94 1.87
5 0 -8 19.65 1.75
5 0 -8 22.05 1.89
-5 0 8 25.95 1.99
-5 0 8 22.68 2
-5 0 8 22.7 1.93
5 0 -8 19.31 1.89
5 0 -8 20.71 1.76
-5 0 8 23.41 2.03
-4 0 8 22.12 2.03
4 0 -8 20.73 1.78
4 0 -8 19.48 1.92
4 0 -8 24.08 1.92
4 0 -8 23.67 1.8
-4 0 8 25.21 2.01
4 0 -8 22.36 1.92
-4 0 8 24.95 2.07
4 0 -8 22.22 1.89
3 0 -8 42.05 3.46
3 0 -8 39.43 3.51
3 0 -8 45.37 3.26
3 0 -8 41.43 3.51
-3 0 8 47.28 3.64
-3 0 8 41.07 3.68
3 0 -8 44.4 3.25
3 0 -8 37.21 3.4
2 0 -8 4.22 0.41
2 0 -8 3.26 0.39
-2 0 8 3.92 0.39
-2 0 8 3.94 0.36
2 0 -8 3.28 0.37
2 0 -8 3.14 0.4
-2 0 8 4.15 0.43
-2 0 8 4.13 0.43
2 0 -8 4.07 0.35
-1 0 8 23.51 2
-1 0 8 25.07 1.8
1 0 -8 21.14 1.73
1 0 -8 17.6 1.83
1 0 -8 20.72 1.69
1 0 -8 19.88 1.85
1 0 -8 21.18 1.7
-1 0 8 23.51 1.95
1 0 -8 22.94 1.8
0 0 -8 107.87 8.89
0 0 8 113.98 9.57
0 0 8 114.64 8.64
0 0 8 110.62 9.32
0 0 -8 92.92 8.16
0 0 -8 107.55 8.04
0 0 -8 112.57 8.68
0 0 -8 109.1 8.24
1 0 8 10.33 0.84
-1 0 -8 8.83 0.76
-1 0 -8 9.18 0.72
-1 0 -8 8.58 0.86
-1 0 -8 9.71 0.82
1 0 8 9.28 0.88
-1 0 -8 8.24 0.8
1 0 8 9.26 0.92
-1 0 -8 9.45 0.8
1 0 8 9.28 0.78
-2 0 -8 8.43 0.72
-2 0 -8 7.98 0.72
2 0 8 8.53 0.7
-2 0 -8 7.21 0.65
2 0 8 8.3 0.81
-2 0 -8 6.94 0.66
2 0 8 8.5 0.75
-2 0 -8 8.01 0.65
2 0 8 7.41 0.76
-2 0 -8 7.2 0.76
-3 0 -8 87.6 6.87
3 0 8 79.77 6.83
-3 0 -8 85.26 6.4
-3 0 -8 84.79 6.14
3 0 8 92.71 6.86
-3 0 -8 87.41 5.93
-3 0 -8 80.52 7.02
3 0 8 85.18 7.55
4 0 8 17.81 1.83
-4 0 -8 22.05 1.59
4 0 8 20.54 1.71
-4 0 -8 19.04 1.72
-4 0 -8 20.16 1.79
-4 0 -8 20.91 1.62
-4 0 -8 18.63 1.68
-4 0 -8 22.42 1.52
4 0 8 18.03 1.66
-5 0 -8 10 1.02
-5 0 -8 12.22 1.01
-5 0 -8 14.11 1.05
-5 0 -8 11 1.11
5 0 8 12.41 1.06
5 0 8 9.89 1
-5 0 -8 11.97 0.95
6 0 8 0.13 0.07
6 0 8 0.25 0.12
-6 0 -8 0.19 0.13
6 0 8 0.26 0.1
-6 0 -8 0.28 0.16
-6 0 -8 0.09 0.13
7 0 8 0.53 0.14
7 0 8 0.71 0.12
-7 0 -8 0.51 0.16
-7 0 -8 0.65 0.18
-7 0 -8 0.77 0.21
7 0 8 0.66 0.13
8 0 8 0.67 0.12
-8 0 -8 0.76 0.16
-8 0 -8 0.43 0.16
8 0 8 0.6 0.11
9 0 8 0.16 0.06
-9 0 -8 0.09 0.11
-9 0 -8 0.08 0.08
9 0 8 0.05 0.07
12 -1 -8 22.4 1.69
-12 -1 8 22.79 1.72
12 -1 -8 21.03 1.64
-12 -1 8 18.91 1.61
12 1 -8 22.35 1.68
12 1 -8 20.48 1.63
11 -1 -8 22.94 1.69
11 -1 -8 23.72 1.74
11 -1 -8 21.26 1.81
11 -1 -8 20.62 1.63
11 1 -8 20.97 1.66
11 1 -8 19.38 1.78
11 1 -8 21.93 1.71
10 -1 -8 9.43 0.87
10 -1 -8 8.87 0.91
10 -1 -8 9.35 0.85
10 -1 -8 8.23 0.8
10 1 -8 11.2 0.86
10 1 -8 11.16 0.91
10 1 -8 10.39 0.82
9 -1 -8 123.31 9.24
9 -1 -8 119.91 8.58
9 -1 -8 130.16 8.86
9 -1 -8 113.32 8.46
9 -1 -8 116.6 9.3
9 1 -8 115.89 8.81
9 1 -8 106.87 9.27
9 1 -8 100.34 8.52
9 1 -8 115.78 9.2
8 -1 -8 28.15 2.1
8 -1 -8 25.33 1.93
8 -1 -8 27.33 2.1
-8 -1 8 21.36 2.22
8 -1 -8 26.89 1.99
-8 -1 8 21.65 2.19
8 -1 -8 22.6 1.87
8 1 -8 26.93 2.05
8 1 -8 23 2.05
-8 1 8 21.96 2.2
-8 1 8 25.53 2.07
-8 1 8 25.31 2.19
8 1 -8 21.99 1.87
8 1 -8 24.85 1.94
7 -1 -8 60.53 4.27
-7 -1 8 49.43 4.56
7 -1 -8 51.82 4.27
7 -1 -8 51.16 4.04
7 -1 -8 47.38 3.85
-7 -1 8 49.72 4.51
7 -1 -8 47.56 3.91
7 -1 -8 51.53 4.01
7 1 -8 50.07 4.35
7 1 -8 59.28 4.22
7 1 -8 54.08 4.01
7 1 -8 45.77 3.86
-7 1 8 48.16 4.54
-7 1 8 57.36 4.45
7 1 -8 53.67 4.25
-7 1 8 55.96 4.53
-6 -1 8 60.14 5.22
6 -1 -8 56.31 4.95
6 -1 -8 66.67 4.85
6 -1 -8 62.76 4.6
-6 -1 8 50.21 5.01
6 -1 -8 63.23 4.88
6 -1 -8 52.95 4.6
-6 -1 8 63.09 5.16
6 -1 -8 59.53 4.47
6 1 -8 65.27 4.81
-6 1 8 67.87 5.07
-6 1 8 60.9 5.16
6 1 -8 58.41 4.97
6 1 -8 60.57 4.58
6 1 -8 57.06 4.85
6 1 -8 54.34 4.53
-6 1 8 57.83 5.18
5 -1 -8 4.21 0.48
5 -1 -8 3.51 0.45
5 -1 -8 4.58 0.42
5 -1 -8 4.1 0.42
-5 -1 8 3.96 0.46
-5 -1 8 5.04 0.53
-5 -1 8 3.69 0.47
5 -1 -8 4.48 0.49
-5 -1 8 3.68 0.43
5 -1 -8 4.64 0.47
5 1 -8 5.35 0.47
5 1 -8 4.09 0.43
5 1 -8 4.29 0.46
-5 1 8 4.04 0.46
-5 1 8 4.39 0.47
5 1 -8 4.58 0.41
-5 1 8 5.43 0.49
5 1 -8 4.5 0.43
4 -1 -8 6.57 0.69
4 -1 -8 6.47 0.61
4 -1 -8 6.23 0.68
-4 -1 8 8.12 0.75
-4 -1 8 6.49 0.66
4 -1 -8 6.47 0.63
-4 -1 8 6.44 0.73
4 -1 -8 8.12 0.69
-4 -1 8 6.2 0.69
4 -1 -8 7.42 0.72
4 -1 -8 7.21 0.65
-4 1 8 7.93 0.71
4 1 -8 6.46 0.6
4 1 -8 8.52 0.69
4 1 -8 8.36 0.64
4 1 -8 8.19 0.65
4 1 -8 6.06 0.66
4 1 -8 7.68 0.66
-4 1 8 9.02 0.74
-4 1 8 7.9 0.71
-3 -1 8 7.1 0.68
-3 -1 8 6.03 0.62
3 -1 -8 5.01 0.62
3 -1 -8 5.56 0.55
3 -1 -8 5.92 0.53
3 -1 -8 5.72 0.62
3 -1 -8 6.11 0.62
-3 -1 8 7.1 0.67
-3 -1 8 5.9 0.56
3 -1 -8 6.68 0.63
3 -1 -8 6.01 0.57
-3 1 8 7.1 0.64
3 1 -8 7.26 0.57
-3 1 8 6.23 0.62
-3 1 8 7.61 0.66
3 1 -8 6.9 0.59
3 1 -8 5.8 0.59
3 1 -8 7.01 0.64
3 1 -8 6.25 0.6
3 1 -8 6.91 0.58
-2 -1 8 58.09 4.6
2 -1 -8 47.71 4.3
-2 -1 8 53.42 4.3
2 -1 -8 52 3.73
-2 -1 8 62.32 4.7
2 -1 -8 45.4 4.37
2 -1 -8 54.8 4.14
2 -1 -8 53.43 4.46
2 -1 -8 49.43 4.02
-2 1 8 59.11 4.77
2 1 -8 52.08 4.37
2 1 -8 55.12 4.09
2 1 -8 53.89 4.44
2 1 -8 54.37 4.43
-2 1 8 54.81 4.28
-1 -1 8 19.97 1.81
-1 -1 8 20.58 1.66
-1 -1 8 23.53 1.89
1 -1 -8 17.25 1.43
1 -1 -8 16.74 1.67
1 -1 -8 19.27 1.57
1 -1 -8 18.42 1.73
1 -1 -8 18.06 1.56
1 1 -8 21.52 1.68
1 1 -8 20.15 1.55
1 1 -8 19.3 1.69
-1 1 8 22.39 1.64
-1 1 8 22.09 1.84
0 -1 -8 68.35 5.93
0 -1 -8 74.24 5.59
0 -1 8 86.68 6.96
0 -1 -8 81.35 6.26
0 -1 8 76.63 6.74
0 -1 -8 85.18 5.84
0 -1 8 70.67 6.63
0 -1 -8 80.08 6.45
0 1 8 77.91 6.9
0 1 8 77.64 6.23
0 1 -8 80.7 5.95
0 1 8 79.23 6.73
0 1 -8 77.92 6.26
-1 -1 -8 64.73 4.85
1 -1 8 60.46 5.39
-1 -1 -8 58.6 4.19
-1 -1 -8 61.77 4.55
-1 -1 -8 54.11 4.59
-1 -1 -8 56.52 4.34
1 -1 8 62.84 4.86
-1 -1 -8 51.34 4.99
-1 1 -8 60.39 4.18
1 1 8 64.01 5.36
-1 1 -8 60.06 4.61
1 1 8 60.56 4.83
1 1 8 61.87 5.22
1 1 8 57.06 4.8
-1 1 -8 67.96 4.87
-2 -1 -8 28.02 2.17
2 -1 8 27.92 2.66
-2 -1 -8 27.65 2.28
-2 -1 -8 27.88 2.09
-2 -1 -8 26.71 2.37
2 -1 8 27.1 2.41
2 1 8 28.4 2.57
-2 1 -8 29.27 2.27
-2 1 -8 28.5 2.26
2 1 8 30.93 2.64
2 1 8 30.58 2.39
-2 1 -8 33.3 2.41
2 1 8 29.48 2.35
-3 -1 -8 67.95 5.87
3 -1 8 73.52 6.49
-3 -1 -8 68.35 5.51
-3 -1 -8 77.05 5.3
-3 -1 -8 71.45 6.04
-3 -1 -8 77.34 5.11
3 -1 8 74.39 5.9
3 1 8 75.11 6.47
-3 1 -8 68.42 5.58
3 1 8 71.47 5.85
3 1 8 64.09 6.29
-3 1 -8 83.63 5.91
3 1 8 77.34 5.87
4 -1 8 41.75 2.49
-4 -1 -8 34.38 3.09
-4 -1 -8 41.58 2.87
-4 -1 -8 42.85 2.77
-4 -1 -8 39.93 2.98
4 -1 8 45.12 2.76
4 -1 8 41.89 3.16
4 -1 8 37.9 2.62
-4 1 -8 33.59 3.26
4 1 8 33.28 3.41
4 1 8 36.25 3.1
4 1 8 33.25 3.08
-4 1 -8 35.73 2.8
-4 1 -8 35.27 3.18
-4 1 -8 38.74 3.13
-5 -1 -8 9.98 0.89
5 -1 8 9.66 0.75
5 -1 8 8.87 0.75
-5 -1 -8 9.98 0.84
5 -1 8 9.41 0.69
-5 -1 -8 9.51 0.89
-5 -1 -8 8.61 0.77
5 -1 8 9.76 0.8
-5 1 -8 10.29 0.86
-5 1 -8 9.66 0.89
-6 -1 -8 16.77 1.35
-6 -1 -8 15.66 1.47
6 -1 8 17.89 1.32
-6 -1 -8 18.46 1.49
6 -1 8 18.01 1.24
6 -1 8 17.92 1.37
-6 -1 -8 20.26 1.43
6 1 8 17.67 1.37
-6 1 -8 18.84 1.5
-6 1 -8 20.92 1.42
-6 1 -8 18.4 1.47
7 -1 8 0.42 0.15
7 -1 8 0.47 0.11
-7 -1 -8 0.61 0.17
7 -1 8 0.49 0.11
-7 -1 -8 0.59 0.2
-7 1 -8 0.63 0.15
7 1 8 0.8 0.12
-7 1 -8 0.48 0.16
-7 1 -8 0.47 0.18
7 1 8 0.58 0.12
-8 -1 -8 3.04 0.38
8 -1 8 3.22 0.29
-8 -1 -8 2.61 0.3
8 -1 8 2.63 0.29
8 -1 8 2.83 0.25
8 1 8 3.17 0.28
-8 1 -8 2.9 0.34
-8 1 -8 3.33 0.32
-8 1 -8 2.14 0.31
8 1 8 3.24 0.26
9 -1 8 13.5 0.96
-9 -1 -8 13.25 1.05
-9 1 -8 13.49 0.99
9 1 8 13.61 0.91
12 -2 -8 0.87 0.15
12 -2 -8 0.8 0.15
-12 -2 8 0.88 0.18
12 2 -8 0.85 0.14
11 -2 -8 8.48 0.75
11 -2 -8 8.19 0.71
-11 -2 8 8.67 0.74
11 -2 -8 7.27 0.78
-11 -2 8 8.57 0.77
11 -2 -8 8.78 0.76
-11 -2 8 9.55 0.81
11 2 -8 9.42 0.78
11 2 -8 9.15 0.71
-10 -2 8 1.59 0.31
10 -2 -8 1.84 0.33
10 -2 -8 2.39 0.29
-10 -2 8 1.94 0.33
10 -2 -8 1.63 0.27
10 -2 -8 1.8 0.25
-10 -2 8 2.29 0.37
10 2 -8 1.65 0.27
10 2 -8 1.79 0.22
10 2 -8 1.38 0.22
-9 -2 8 24 2.04
9 -2 -8 27.54 2.13
9 -2 -8 27.16 2.08
9 -2 -8 28.26 2.25
9 -2 -8 25.27 2
9 -2 -8 25.8 2.21
9 2 -8 23.15 1.98
9 2 -8 27.09 2.06
9 2 -8 26.45 2.17
8 -2 -8 5.22 0.61
8 -2 -8 3.95 0.49
8 -2 -8 5.05 0.57
8 -2 -8 5.15 0.56
8 -2 -8 5 0.56
8 -2 -8 4.82 0.57
8 2 -8 6.43 0.51
8 2 -8 5.37 0.47
8 2 -8 5.03 0.54
8 2 -8 5.85 0.56
7 -2 -8 4.24 0.51
7 -2 -8 4.23 0.47
7 -2 -8 3.15 0.32
7 -2 -8 3.5 0.43
-7 -2 8 2.98 0.46
7 -2 -8 3.88 0.46
7 -2 -8 3.44 0.38
-7 -2 8 3.45 0.43
7 -2 -8 3.77 0.45
7 -2 -8 3.22 0.42
-7 2 8 3.05 0.42
7 2 -8 3.18 0.39
7 2 -8 3.42 0.35
7 2 -8 3.21 0.4
-7 2 8 3.03 0.42
7 2 -8 3.57 0.41
6 -2 -8 6.78 0.65
6 -2 -8 6.33 0.59
6 -2 -8 5.91 0.66
6 -2 -8 4.68 0.43
6 -2 -8 5.33 0.57
6 -2 -8 5.99 0.56
-6 -2 8 5.88 0.66
6 -2 -8 4.92 0.43
6 -2 -8 5.77 0.61
-6 -2 8 4.78 0.6
-6 -2 8 5.38 0.6
6 -2 -8 6.58 0.61
6 -2 -8 5.79 0.52
6 -2 -8 5.79 0.5
-6 2 8 4.52 0.57
6 2 -8 4.63 0.51
-6 2 8 5.64 0.59
-6 2 8 5.32 0.59
6 2 -8 5.12 0.56
6 2 -8 6 0.58
6 2 -8 5.07 0.5
6 2 -8 5.63 0.55
-5 -2 8 6.61 0.68
5 -2 -8 4.75 0.5
-5 -2 8 6.09 0.64
5 -2 -8 6.8 0.64
5 -2 -8 4.61 0.62
-5 -2 8 5.96 0.61
5 -2 -8 5.86 0.55
5 -2 -8 5.45 0.45
5 -2 -8 6.34 0.66
5 -2 -8 5.45 0.44
5 -2 -8 6.06 0.58
5 -2 -8 5.42 0.61
5 -2 -8 6.04 0.51
5 -2 -8 6.13 0.54
5 -2 -8 5.87 0.57
5 2 -8 5.49 0.58
-5 2 8 5.47 0.58
5 2 -8 5.54 0.53
5 2 -8 5.55 0.53
5 2 -8 5.9 0.56
5 2 -8 5.33 0.58
5 2 -8 5.19 0.5
-5 2 8 6.03 0.6
-5 2 8 5.49 0.59
-4 -2 8 27.53 2.47
4 -2 -8 26.41 2.09
4 -2 -8 26.2 2.1
4 -2 -8 26.88 1.85
4 -2 -8 28.51 2.38
4 -2 -8 27.55 2.42
-4 -2 8 31.03 2.57
4 -2 -8 29.49 2.2
4 -2 -8 24.74 2.4
4 -2 -8 28.72 2.02
4 -2 -8 28.53 1.97
4 -2 -8 27.38 2.15
-4 -2 8 27.74 2.58
4 -2 -8 28.84 2.23
4 -2 -8 32.25 2.3
4 2 -8 27.91 2.2
-4 2 8 29.41 2.47
4 2 -8 26.7 2.37
-4 2 8 27.56 2.49
3 -2 -8 36.13 2.65
3 -2 -8 32.12 2.78
3 -2 -8 29.12 2.42
-3 -2 8 34.34 2.95
3 -2 -8 34.55 2.42
3 -2 -8 30.68 2.26
-3 -2 8 29.61 2.84
-3 -2 8 36 3
3 -2 -8 30.39 2.51
3 -2 -8 32.86 2.43
3 -2 -8 32.19 2.32
3 -2 -8 31.41 2.55
3 -2 -8 28.98 2.46
3 -2 -8 31.7 2.13
3 -2 -8 31.5 2.7
3 2 -8 35.91 2.55
-3 2 8 32.53 2.87
3 2 -8 33.75 2.74
-3 2 8 36.13 2.92
2 -2 -8 3.09 0.31
2 -2 -8 3.31 0.4
2 -2 -8 2.85 0.32
2 -2 -8 2.87 0.46
2 -2 -8 2.88 0.38
2 -2 -8 2.98 0.35
2 -2 -8 2.95 0.29
2 -2 -8 2.42 0.3
2 -2 -8 2.65 0.3
2 -2 -8 2.83 0.35
2 -2 -8 2.89 0.28
2 -2 -8 2.95 0.32
-2 -2 8 3.39 0.43
2 -2 -8 2.94 0.37
-2 2 8 2.82 0.35
2 2 -8 2.87 0.31
-2 2 8 3.46 0.36
2 2 -8 2.38 0.3
-2 2 8 2.53 0.29
1 -2 -8 15.25 1.16
1 -2 -8 13.04 1.09
-1 -2 8 15.36 1.27
1 -2 -8 14.02 1.35
1 -2 -8 12.65 1.27
1 -2 -8 12.32 1.27
1 -2 -8 14.25 1.21
1 -2 -8 12.62 1.06
-1 -2 8 15.68 1.47
1 2 -8 14.95 1.27
1 2 -8 15.01 1.24
-1 2 8 16.49 1.39
-1 2 8 15.68 1.26
-1 2 8 15.39 1.28
-1 2 8 14.6 1.24
-1 2 8 15.96 1.36
1 2 -8 14.58 1.19
0 -2 -8 90.92 7.66
0 -2 8 87.18 6.21
0 -2 -8 97.29 6.92
0 -2 -8 85.83 6.25
0 -2 -8 87.78 7.04
0 -2 -8 95.19 6.63
0 -2 8 90.68 6.46
0 -2 8 102.46 7.42
0 -2 8 86.86 8.22
0 -2 -8 97.13 6.4
0 2 -8 88.92 7.39
0 2 8 89.86 7.45
0 2 8 96.74 8.17
0 2 -8 84.94 7.62
0 2 8 88.06 7.37
0 2 8 103.78 7.39
0 2 8 93.43 7.96
0 2 -8 96.9 7.05
-1 -2 -8 6.2 0.56
1 -2 8 7.83 0.62
-1 -2 -8 7.11 0.68
1 -2 8 7.15 0.54
1 -2 8 7.28 0.7
-1 -2 -8 6.6 0.59
-1 -2 -8 6.14 0.66
1 -2 8 6.46 0.77
-1 -2 -8 6.61 0.62
1 2 8 6.69 0.64
-1 2 -8 6.73 0.63
1 2 8 6.82 0.71
1 2 8 6.81 0.72
-1 2 -8 6.03 0.62
1 2 8 7.04 0.65
-1 2 -8 6.89 0.61
1 2 8 6.47 0.67
2 -2 8 8.68 0.71
-2 -2 -8 10.02 0.89
-2 -2 -8 9.03 0.74
2 -2 8 9.71 0.78
2 -2 8 9.71 0.99
2 -2 8 8.68 0.68
-2 -2 -8 10.37 0.83
-2 -2 -8 9.41 0.94
-2 -2 -8 10.16 0.79
2 -2 8 9.89 0.76
2 -2 8 8.99 0.9
2 2 8 9.43 0.93
2 2 8 9.62 0.85
2 2 8 9.79 0.86
2 2 8 8.78 0.87
-2 2 -8 8.79 0.8
2 2 8 8.01 0.79
-2 2 -8 8.1 0.83
-2 2 -8 9.2 0.84
2 2 8 9.65 0.94
3 -2 8 32.16 2.02
3 -2 8 28.65 2.33
3 -2 8 27.98 1.77
-3 -2 -8 21.94 2.16
-3 -2 -8 28.91 1.95
-3 -2 -8 28.33 2.02
-3 -2 -8 32.06 2.14
3 -2 8 31.01 1.94
3 -2 8 25.46 2.5
3 -2 8 29.35 1.94
3 2 8 24.7 2.43
3 2 8 23.2 2.2
3 2 8 25.43 2.28
3 2 8 27.39 2.25
-3 2 -8 25.15 2.14
3 2 8 25.04 2.48
3 2 8 26.12 2.25
-3 2 -8 26.26 2.26
-4 -2 -8 0.88 0.22
4 -2 8 0.82 0.25
-4 -2 -8 0.56 0.19
-4 -2 -8 0.86 0.27
-4 -2 -8 0.57 0.23
4 -2 8 0.69 0.18
4 -2 8 1.08 0.19
4 -2 8 0.76 0.18
4 2 8 1.07 0.22
4 2 8 0.97 0.24
4 2 8 1 0.18
4 2 8 1.1 0.25
-4 2 -8 1.02 0.2
-4 2 -8 0.88 0.2
5 -2 8 42.2 3.15
5 -2 8 48.43 3.29
-5 -2 -8 46.04 3.23
-5 -2 -8 42.45 3.52
-5 -2 -8 46.19 3.31
5 -2 8 47.42 3.2
-5 -2 -8 48.86 3.49
-6 -2 -8 6.08 0.54
6 -2 8 4.87 0.42
6 -2 8 5.66 0.47
-6 -2 -8 5.46 0.52
-6 -2 -8 5.52 0.61
6 -2 8 5.76 0.51
6 -2 8 5.23 0.47
-6 2 -8 3.78 0.49
-7 -2 -8 1.33 0.22
-7 -2 -8 1.21 0.28
7 -2 8 1.48 0.2
7 -2 8 1.27 0.21
-7 -2 -8 1.17 0.22
7 -2 8 0.93 0.15
-7 2 -8 0.99 0.22
-7 2 -8 0.84 0.2
7 2 8 1.13 0.16
-7 2 -8 1.4 0.23
7 2 8 0.79 0.13
8 -2 8 15.02 1.21
-8 -2 -8 16.94 1.31
-8 -2 -8 14.9 1.21
8 -2 8 16.89 1.19
-8 -2 -8 14.27 1.19
8 2 8 17.33 1.18
-8 2 -8 18.86 1.23
8 2 8 18.79 1.12
-8 2 -8 17.2 1.31
-11 -3 8 2.45 0.31
11 -3 -8 2.22 0.26
11 -3 -8 1.91 0.23
11 -3 -8 2.2 0.27
11 3 -8 2.37 0.24
10 -3 -8 10.42 0.86
10 -3 -8 8.01 0.66
-10 -3 8 10.57 0.9
10 -3 -8 9.88 0.79
-10 -3 8 10.49 0.84
10 -3 -8 8.83 0.82
10 -3 -8 8.92 0.89
10 3 -8 10.14 0.8
10 3 -8 9.51 0.85
9 -3 -8 1.77 0.3
9 -3 -8 1.53 0.21
-9 -3 8 1.75 0.34
9 -3 -8 1.64 0.26
-9 -3 8 2.22 0.4
9 -3 -8 1.64 0.29
9 -3 -8 1.78 0.31
9 3 -8 1.51 0.21
9 3 -8 1.3 0.25
8 -3 -8 4.45 0.52
8 -3 -8 3.79 0.37
8 -3 -8 3.25 0.48
8 -3 -8 3.73 0.38
-8 -3 8 4.97 0.58
8 -3 -8 4.12 0.45
8 -3 -8 3.8 0.5
-8 -3 8 4.46 0.44
8 -3 -8 4.56 0.57
8 -3 -8 4.83 0.54
8 -3 -8 3.93 0.49
-8 -3 8 4.43 0.57
8 3 -8 5.04 0.44
8 3 -8 5.72 0.52
8 3 -8 5.03 0.49
7 -3 -8 10.25 0.91
-7 -3 8 11.4 1.02
7 -3 -8 11.51 1.08
7 -3 -8 9.35 0.85
7 -3 -8 10.23 0.95
7 -3 -8 10.18 0.98
7 -3 -8 10.61 1
7 -3 -8 9.16 0.73
-7 -3 8 8 0.95
-7 -3 8 11.55 0.87
7 -3 -8 9.22 0.74
7 -3 -8 8.08 0.92
7 -3 -8 9.41 0.91
7 3 -8 10.25 0.94
7 3 -8 9.94 0.94
7 3 -8 9.99 0.85
6 -3 -8 22.64 1.67
-6 -3 8 22.72 1.59
6 -3 -8 20.79 1.59
6 -3 -8 21.23 1.84
-6 -3 8 18.83 1.7
6 -3 -8 19.46 1.44
-6 -3 8 19.02 1.73
6 -3 -8 19.62 1.39
-6 -3 8 18.48 1.91
6 -3 -8 22.41 1.53
6 -3 -8 23.55 1.75
6 -3 -8 19.17 1.86
6 -3 -8 23.47 1.86
6 -3 -8 21.85 1.68
6 -3 -8 20.26 1.72
6 3 -8 19.72 1.76
6 3 -8 19.26 1.76
-6 3 8 17.07 1.81
-6 3 8 16.58 1.69
6 3 -8 19.86 1.61
5 -3 -8 34.99 2.72
5 -3 -8 37.76 2.54
5 -3 -8 37.96 3.14
5 -3 -8 38.37 3.13
5 -3 -8 35.72 2.79
-5 -3 8 36.07 3.3
5 -3 -8 41.08 2.95
5 -3 -8 35.63 2.51
5 -3 -8 38.24 2.84
5 -3 -8 36.75 2.4
-5 -3 8 39.18 2.38
5 -3 -8 36.18 2.59
-5 -3 8 33.75 2.89
5 -3 -8 31.37 3.08
5 -3 -8 38.13 2.71
5 -3 -8 39.83 2.93
-5 -3 8 32.21 2.77
-5 -3 8 33.61 2.62
-5 3 8 33.7 3.15
-5 3 8 32.81 3.09
5 3 -8 34.39 2.82
5 3 -8 35.89 2.8
5 3 -8 38.85 3.07
5 3 -8 34.25 2.81
4 -3 -8 18.57 1.59
4 -3 -8 18.61 1.32
-4 -3 8 18.81 1.87
4 -3 -8 19.76 1.63
4 -3 -8 18.67 1.55
4 -3 -8 20.85 1.43
4 -3 -8 20.77 1.71
4 -3 -8 20.51 1.53
4 -3 -8 20.68 1.46
-4 -3 8 20.36 1.38
-4 -3 8 18.34 1.58
-4 -3 8 18.48 1.87
-4 -3 8 16.07 1.6
4 -3 -8 20.72 1.55
4 -3 -8 19.16 1.5
4 -3 -8 19.27 1.76
4 -3 -8 21.3 1.79
4 3 -8 18.91 1.68
4 3 -8 17.7 1.55
-4 3 8 20.48 1.74
-4 3 8 18.91 1.76
3 -3 -8 3.96 0.45
3 -3 -8 4.7 0.46
3 -3 -8 3.54 0.42
-3 -3 8 4 0.43
3 -3 -8 4.81 0.56
-3 -3 8 3.2 0.46
-3 -3 8 4.07 0.47
-3 -3 8 5.16 0.6
3 -3 -8 4.33 0.42
3 -3 -8 3.78 0.54
3 -3 -8 3.92 0.52
3 -3 -8 4.33 0.51
3 -3 -8 3.84 0.4
3 -3 -8 4.11 0.56
-3 -3 8 3.2 0.54
3 -3 -8 3.68 0.4
-3 -3 8 3.63 0.47
3 -3 -8 3.96 0.45
3 3 -8 4.06 0.43
3 3 -8 5.25 0.46
-3 3 8 5.06 0.49
-3 3 8 4.85 0.49
3 3 -8 5.26 0.45
-2 -3 8 4.22 0.44
2 -3 -8 4.36 0.43
2 -3 -8 4.7 0.55
2 -3 -8 4.8 0.53
-2 -3 8 3.94 0.44
-2 -3 8 4.42 0.44
2 -3 -8 4.71 0.42
-2 -3 8 2.48 0.52
2 -3 -8 3.86 0.62
2 -3 -8 5.38 0.51
2 -3 -8 4.19 0.48
2 -3 -8 4.71 0.44
2 -3 -8 4.18 0.45
2 -3 -8 3.85 0.42
2 -3 -8 4.65 0.45
-2 -3 8 4.14 0.45
2 -3 -8 4.52 0.41
-2 -3 8 5.21 0.59
2 -3 -8 4.03 0.39
-2 3 8 3.56 0.45
-2 3 8 3.25 0.44
-2 3 8 3.45 0.4
-2 3 8 3.16 0.41
2 3 -8 3.5 0.4
2 3 -8 2.87 0.39
2 3 -8 3.41 0.39
-1 -3 8 47.42 4.21
-1 -3 8 51.02 2.98
1 -3 -8 51.65 3.55
1 -3 -8 48.94 3.25
1 -3 -8 48.27 3.37
1 -3 -8 43.73 3.62
1 -3 -8 46.08 3.17
-1 -3 8 46.28 3.17
1 -3 -8 46.03 3.52
1 -3 -8 50.82 3.95
1 -3 -8 48.47 3.4
-1 -3 8 41.49 3.18
1 -3 -8 46.9 3.32
1 -3 -8 47.59 3.73
1 -3 -8 47.15 3.78
1 -3 -8 45.19 3.54
-1 3 8 37.66 3.68
-1 3 8 44.75 3.7
-1 3 8 43.72 4.09
1 3 -8 41.27 3.52
1 3 -8 43.82 3.82
-1 3 8 41.46 3.74
-1 3 8 43.41 4
0 -3 -8 14.46 1.15
0 -3 8 13.06 1.06
0 -3 -8 14.1 1.23
0 -3 -8 12.85 1.13
0 -3 -8 13.13 1.05
0 -3 -8 13.47 1.08
0 -3 8 14.55 1.03
0 -3 8 13.86 1.11
0 -3 8 12.39 1.09
0 -3 -8 10.56 1.32
0 -3 -8 12.77 1.23
0 -3 -8 13.93 1.24
0 3 8 16.3 1.37
0 3 -8 14.98 1.16
0 3 -8 13.35 1.18
0 3 8 16.75 1.24
0 3 -8 15.3 1.24
0 3 8 13.16 1.22
0 3 8 13.88 1.24
-1 -3 -8 5 0.51
1 -3 8 5.96 0.53
-1 -3 -8 4.4 0.6
1 -3 8 4.18 0.6
-1 -3 -8 4.47 0.49
-1 -3 -8 5.16 0.58
1 -3 8 4.26 0.47
1 -3 8 4.98 0.46
-1 -3 -8 5.54 0.47
1 -3 8 4.73 0.44
-1 3 -8 4.41 0.47
1 3 8 4.17 0.5
1 3 8 4.61 0.54
-1 3 -8 4.21 0.45
1 3 8 4.39 0.54
1 3 8 3.92 0.48
1 3 8 4.76 0.49
-1 3 -8 4.34 0.46
-2 -3 -8 53.65 4.87
-2 -3 -8 66.38 5.35
2 -3 8 63.93 5.74
2 -3 8 68.34 4.04
-2 -3 -8 63.73 4.69
-2 -3 -8 71.51 4.7
-2 -3 -8 70.95 4.53
-2 -3 -8 71.55 4.42
-2 3 -8 56 5.14
-2 3 -8 63.43 4.92
-2 3 -8 55.3 5.3
2 3 8 61.61 5.15
2 3 8 64.53 5.7
2 3 8 61.37 5.21
2 3 8 66.13 5.15
-3 -3 -8 13.93 1.13
3 -3 8 11.75 0.9
3 -3 8 12.62 0.99
3 -3 8 11.76 0.96
-3 -3 -8 13.47 1.06
3 -3 8 14.23 1.06
-3 -3 -8 12.84 1
-3 -3 -8 9.44 1.11
4 -3 8 4.28 0.45
-4 -3 -8 4.08 0.53
-4 -3 -8 3.44 0.47
4 -3 8 4.74 0.44
-4 -3 -8 4.27 0.47
4 -3 8 4.72 0.48
-4 -3 -8 4.97 0.57
5 -3 8 25.68 1.9
5 -3 8 27.83 1.99
-5 -3 -8 27.56 1.97
5 -3 8 28.71 1.93
-5 -3 -8 27.08 2.13
-5 -3 -8 23.96 1.99
-6 -3 -8 17.7 1.29
6 -3 8 17.12 1.24
-6 -3 -8 16.89 1.3
-6 -3 -8 17.58 1.42
6 -3 8 16.11 1.22
6 -3 8 16.67 1.29
-7 -3 -8 6.2 0.52
-7 -3 -8 5.63 0.5
7 -3 8 6.2 0.51
7 -3 8 6.57 0.49
-7 -3 -8 6.38 0.59
-7 3 -8 5.78 0.55
-7 3 -8 6.39 0.51
7 3 8 5.71 0.48
7 3 8 5.38 0.45
8 -3 8 1.92 0.21
-8 -3 -8 2.04 0.27
-8 3 -8 2.03 0.22
8 3 8 1.99 0.17
10 -4 -8 0.18 0.09
-10 -4 8 0.11 0.11
10 -4 -8 0.22 0.11
10 -4 -8 0.08 0.1
-10 -4 8 0.1 0.11
10 4 -8 0.07 0.08
10 4 -8 0.06 0.06
9 -4 -8 3.14 0.27
-9 -4 8 3.23 0.41
9 -4 -8 2.86 0.36
9 -4 -8 2.82 0.32
9 -4 -8 3.58 0.38
9 -4 -8 3.11 0.37
9 -4 -8 3.19 0.39
-9 -4 8 3.45 0.4
9 4 -8 2.77 0.34
9 4 -8 2.98 0.3
8 -4 -8 5.38 0.45
-8 -4 8 6.16 0.65
-8 -4 8 5.84 0.64
8 -4 -8 5.74 0.6
8 -4 -8 5 0.58
8 -4 -8 5.44 0.53
8 -4 -8 5.02 0.55
8 -4 -8 5.51 0.6
8 -4 -8 5.99 0.66
-8 -4 8 5.38 0.5
8 4 -8 6.18 0.51
8 4 -8 6.15 0.58
8 4 -8 5.62 0.55
-7 -4 8 0.62 0.24
7 -4 -8 0.62 0.21
-7 -4 8 0.43 0.18
7 -4 -8 0.63 0.18
7 -4 -8 0.56 0.23
7 -4 -8 0.5 0.2
7 -4 -8 0.59 0.2
-7 -4 8 0.49 0.24
7 -4 -8 0.39 0.12
7 -4 -8 0.73 0.27
7 -4 -8 0.34 0.19
7 -4 -8 0.62 0.12
7 4 -8 0.71 0.19
7 4 -8 0.66 0.14
7 4 -8 0.78 0.21
6 -4 -8 23 1.84
-6 -4 8 17.14 1.67
6 -4 -8 20.24 1.56
6 -4 -8 18.45 1.4
6 -4 -8 21.69 1.71
-6 -4 8 18.3 1.68
-6 -4 8 24.3 1.59
6 -4 -8 20.51 1.64
6 -4 -8 17.13 1.81
6 -4 -8 21.84 1.81
6 -4 -8 20.51 1.63
6 -4 -8 18.56 1.35
6 -4 -8 18.03 1.68
6 4 -8 17.27 1.56
-5 -4 8 11.3 1.12
-5 -4 8 12.08 0.93
5 -4 -8 11.85 1.12
5 -4 -8 13.72 1.22
5 -4 -8 13.07 1.25
5 -4 -8 13.32 1.05
5 -4 -8 13.06 0.91
-5 -4 8 11.5 1.17
5 -4 -8 14.14 1.17
-5 -4 8 11.96 1.1
5 -4 -8 13.98 1.13
5 -4 -8 12.12 1.27
5 -4 -8 12.16 1.06
5 -4 -8 10.26 1.25
5 -4 -8 12.77 1.01
4 -4 -8 0.42 0.2
4 -4 -8 0.83 0.3
4 -4 -8 0.5 0.15
-4 -4 8 0.93 0.24
4 -4 -8 0.53 0.17
4 -4 -8 0.55 0.18
-4 -4 8 0.37 0.21
-4 -4 8 0.45 0.21
4 -4 -8 0.57 0.2
4 -4 -8 0.54 0.18
4 -4 -8 0.64 0.22
4 -4 -8 1.05 0.34
4 -4 -8 0.43 0.15
4 -4 -8 0.34 0.21
4 -4 -8 0.17 0.19
3 -4 -8 47.73 3.65
3 -4 -8 45.27 3.55
-3 -4 8 48.26 3.36
3 -4 -8 47.99 3.91
3 -4 -8 48.42 3.5
3 -4 -8 44.6 3.96
3 -4 -8 45.27 3.68
-3 -4 8 44.71 3.46
-3 -4 8 42.06 3.06
3 -4 -8 49.58 3.66
3 -4 -8 47.47 3.48
3 -4 -8 46.79 3.45
3 -4 -8 47.35 3.27
3 -4 -8 42.6 3.76
3 -4 -8 51.76 4.07
3 -4 -8 47.41 3.33
2 -4 -8 17.16 1.42
2 -4 -8 16.97 1.47
2 -4 -8 17.34 1.32
2 -4 -8 17.2 1.32
2 -4 -8 16.85 1.5
2 -4 -8 17.88 1.28
2 -4 -8 14.08 1.47
-2 -4 8 14.47 1.29
2 -4 -8 18.51 1.62
2 -4 -8 16.22 1.35
2 -4 -8 16.81 1.22
2 -4 -8 17.14 1.32
-2 -4 8 15.79 1.24
2 -4 -8 18.81 1.38
-2 -4 8 15.4 1.21
-2 -4 8 19.05 1.32
-2 4 8 14.66 1.38
-2 4 8 14 1.46
-2 4 8 14.93 1.49
2 4 -8 14.95 1.42
2 4 -8 13.08 1.3
-2 4 8 15.55 1.54
1 -4 -8 6.56 0.59
-1 -4 8 6.06 0.61
1 -4 -8 6.64 0.71
1 -4 -8 6.14 0.62
1 -4 -8 6.53 0.62
1 -4 -8 7.05 0.62
1 -4 -8 6.3 0.61
-1 -4 8 6.43 0.6
1 -4 -8 6.23 0.56
1 -4 -8 6.92 0.75
1 -4 -8 6.56 0.67
1 -4 -8 4.97 0.74
1 -4 -8 6.36 0.68
-1 -4 8 7.16 0.62
1 4 -8 4.73 0.61
0 -4 -8 62.84 4.93
0 -4 -8 58.35 4.59
0 -4 -8 63.8 4.97
0 -4 -8 66.47 4.54
0 -4 -8 62.53 4.74
0 -4 -8 63.49 4.43
0 -4 -8 67.6 4.72
0 -4 8 72.49 4.14
0 -4 8 58.34 4.43
0 -4 8 62.42 4.53
0 -4 8 62.87 4.4
0 -4 -8 71.48 4.99
-1 -4 -8 22.82 2.14
-1 -4 -8 24.29 1.87
1 -4 8 25.34 1.65
-1 -4 -8 25.14 1.75
1 -4 8 21.09 1.69
-1 -4 -8 20.12 1.97
-1 -4 -8 24.51 1.95
1 -4 8 25.51 1.79
1 -4 8 23 1.79
-1 -4 -8 24.38 1.88
-1 -4 -8 24.79 1.81
2 -4 8 5.79 0.53
2 -4 8 5.71 0.59
-2 -4 -8 5.78 0.6
-2 -4 -8 6.34 0.56
-2 -4 -8 4.14 0.71
-2 -4 -8 6.21 0.6
-2 -4 -8 5.94 0.63
2 -4 8 6.95 0.61
-3 -4 -8 26.11 1.86
3 -4 8 28.48 1.93
-3 -4 -8 23.99 1.96
-3 -4 -8 26.21 2.01
3 -4 8 26.91 1.84
-3 -4 -8 24.84 2.06
3 -4 8 24.97 1.68
-3 -4 -8 20.78 1.89
4 -4 8 1.88 0.27
-4 -4 -8 1.63 0.34
4 -4 8 1.39 0.22
-4 -4 -8 1.34 0.27
4 -4 8 1.32 0.21
4 -4 8 1.64 0.27
-4 -4 -8 1.88 0.29
-4 -4 -8 1.28 0.27
-5 -4 -8 11.32 0.86
-5 -4 -8 9.68 0.85
5 -4 8 10.16 0.81
5 -4 8 11.84 0.87
-5 -4 -8 9.91 0.94
5 -4 8 10.69 0.81
-6 -4 -8 19.84 1.57
-6 -4 -8 22.45 1.58
6 -4 8 23.79 1.6
6 -4 8 21.45 1.54
6 -4 8 20.51 1.51
-6 -4 -8 22.96 1.7
-6 4 -8 23.19 1.58
7 -4 8 9.73 0.72
-7 4 -8 9.1 0.78
8 -5 -8 5.28 0.49
-8 -5 8 6.04 0.53
-8 -5 8 4.88 0.51
8 5 -8 5.07 0.44
8 5 -8 5.1 0.49
-7 -5 8 5.37 0.64
7 -5 -8 6.43 0.63
-7 -5 8 7.47 0.57
-7 -5 8 8.54 0.73
7 -5 -8 8.77 0.76
7 -5 -8 6.77 0.66
7 5 -8 6.26 0.57
7 5 -8 7.18 0.65
7 5 -8 6.53 0.63
-6 -5 8 16.33 1.1
6 -5 -8 11.3 1.18
6 -5 -8 13.76 1.15
6 -5 -8 12.54 1.29
6 -5 -8 16.82 1.33
-6 -5 8 11.48 1.17
-6 -5 8 11.86 1.18
6 5 -8 15.35 1.23
6 5 -8 14.86 1.22
6 5 -8 13.72 1.1
5 -5 -8 19.85 1.53
5 -5 -8 17.18 1.48
5 -5 -8 17.09 1.61
5 -5 -8 17.82 1.59
-5 -5 8 14.57 1.43
5 -5 -8 16.48 1.44
-5 -5 8 17.88 1.36
4 -5 -8 3.09 0.61
4 -5 -8 5.35 0.48
4 -5 -8 4.83 0.44
4 -5 -8 4.53 0.49
-4 -5 8 3.79 0.57
-4 -5 8 5.02 0.59
4 -5 -8 4.95 0.64
4 -5 -8 4.95 0.61
4 -5 -8 5.7 0.64
4 -5 -8 5.12 0.56
-4 -5 8 4.95 0.47
3 -5 -8 9.74 0.81
3 -5 -8 7.72 0.95
-3 -5 8 9.66 0.81
-3 -5 8 9.54 0.87
3 -5 -8 10.76 0.95
3 -5 -8 9.98 0.86
3 -5 -8 10.72 1.06
3 -5 -8 9.42 0.78
3 -5 -8 9.42 1.01
-3 -5 8 8.5 0.86
3 -5 -8 9.83 0.86
3 -5 -8 10.88 0.9
-2 -5 8 0.93 0.26
2 -5 -8 1.48 0.27
2 -5 -8 1.34 0.25
-2 -5 8 1.52 0.28
-2 -5 8 1.48 0.28
2 -5 -8 1.24 0.32
2 -5 -8 1.57 0.26
2 -5 -8 1.69 0.27
2 -5 -8 1.18 0.26
2 -5 -8 1.06 0.33
2 -5 -8 1.34 0.35
-1 -5 8 5.96 0.56
1 -5 -8 5.66 0.58
1 -5 -8 6.51 0.59
1 -5 -8 6.53 0.57
1 -5 -8 5.98 0.53
1 -5 -8 5.45 0.64
1 -5 -8 5.52 0.57
-1 -5 8 5.66 0.58
-1 -5 8 6.01 0.56
1 -5 -8 6.13 0.6
1 -5 -8 4.57 0.69
1 -5 -8 5.69 0.68
0 -5 8 13.61 1.16
0 -5 -8 15.45 1.24
0 -5 -8 14.62 1.22
0 -5 8 15.7 1.15
0 -5 -8 15.51 1.25
0 -5 -8 14.11 1.42
0 -5 -8 14.13 1.13
0 -5 -8 16.04 1.2
0 -5 8 16.97 1.14
0 -5 -8 12.61 1.31
-1 -5 -8 3.97 0.47
1 -5 8 4.03 0.45
-1 -5 -8 4.54 0.46
-1 -5 -8 4.11 0.41
1 -5 8 4.29 0.42
-1 -5 -8 3.69 0.43
1 -5 8 3.66 0.37
-1 -5 -8 2.77 0.52
-1 -5 -8 4.02 0.42
2 -5 8 12.34 0.92
2 -5 8 10.62 0.89
-2 -5 -8 10.35 0.94
-2 -5 -8 10.92 0.95
-2 -5 -8 12.04 1
-2 -5 -8 10.89 1.01
2 -5 8 12.6 0.85
-3 -5 -8 4.74 0.45
3 -5 8 5.01 0.45
-3 -5 -8 4.61 0.51
3 -5 8 5.63 0.47
3 -5 8 4.85 0.41
-3 -5 -8 3.74 0.46
-3 -5 -8 4.23 0.46
-4 -5 -8 3.18 0.35
4 -5 8 3.78 0.34
-4 -5 -8 3 0.39
4 -5 8 3.28 0.29
4 -5 8 4.08 0.35
-4 -5 -8 3.03 0.35
-4 -5 -8 3.8 0.36
-5 -5 -8 2.12 0.3
5 -5 8 2.64 0.24
5 -5 8 2.69 0.26
-5 -5 -8 2.63 0.27
-5 -6 8 20.66 1.8
-5 -6 8 27.34 1.71
5 6 -8 24.91 2.01
5 6 -8 24.23 1.99
-4 -6 8 8.29 0.71
-4 -6 8 8.7 0.68
4 6 -8 7.76 0.73
-3 -6 8 15.03 1.25
-3 -6 8 17.27 1.23
-3 -6 8 17.09 1.11
-2 -6 8 8.56 0.73
2 -6 -8 9.07 0.77
-2 -6 8 8.65 0.7
2 -6 -8 9.64 0.71
2 -6 -8 9.8 0.75
2 -6 -8 8.78 0.77
-2 -6 8 10.27 0.75
-1 -6 8 5.41 0.44
1 -6 -8 4.76 0.42
1 -6 -8 5.1 0.48
1 -6 -8 4.58 0.46
1 -6 -8 5.3 0.46
-1 -6 8 4.5 0.44
1 -6 -8 4.38 0.46
0 -6 -8 19.53 1.51
0 -6 -8 17.65 1.44
0 -6 -8 21.28 1.41
0 -6 8 21.69 1.34
0 -6 8 18.47 1.37
0 -6 -8 20.54 1.52
0 -6 8 19.23 1.39
0 -6 -8 19.62 1.56
-1 -6 -8 2.61 0.32
1 -6 8 2.1 0.26
1 -6 8 2.67 0.27
-1 -6 -8 2.44 0.26
-1 -6 -8 2.26 0.28
-2 -6 -8 0.13 0.09
2 -6 8 0.11 0.09
-2 -6 -8 0.23 0.13
2 -6 8 0.16 0.1
12 0 -9 8.33 0.67
12 0 -9 7.32 0.65
11 0 -9 19.91 1.5
11 0 -9 17.39 1.44
11 0 -9 18.17 1.57
10 0 -9 3.72 0.45
10 0 -9 3.77 0.41
10 0 -9 4.37 0.42
9 0 -9 9.73 0.84
9 0 -9 9.17 0.88
9 0 -9 9.45 0.82
9 0 -9 9.48 0.89
8 0 -9 2.86 0.36
-8 0 9 1.84 0.39
-8 0 9 2.2 0.34
-8 0 9 2.45 0.36
8 0 -9 2.71 0.34
8 0 -9 2.45 0.34
8 0 -9 2.65 0.31
7 0 -9 0.59 0.17
7 0 -9 0.93 0.22
-7 0 9 0.85 0.24
7 0 -9 1.05 0.22
-7 0 9 1.03 0.22
7 0 -9 0.75 0.21
7 0 -9 0.82 0.2
-7 0 9 0.76 0.2
-6 0 9 10.99 1.08
6 0 -9 12.36 1.07
6 0 -9 11.24 1.01
6 0 -9 10.46 0.98
6 0 -9 12.34 1.07
-6 0 9 11.5 1.14
-6 0 9 13.44 1.13
5 0 -9 2.18 0.29
5 0 -9 2.75 0.31
-5 0 9 2.11 0.28
5 0 -9 1.98 0.25
-5 0 9 2.09 0.27
-5 0 9 2.09 0.28
-5 0 9 2.07 0.3
5 0 -9 2.49 0.32
5 0 -9 1.92 0.29
5 0 -9 1.85 0.25
4 0 -9 73.25 5.5
4 0 -9 62.73 5.78
4 0 -9 66 5.95
4 0 -9 75.86 5.87
4 0 -9 65.79 5.98
-4 0 9 78.3 6.41
-4 0 9 80.04 6.2
-4 0 9 77.57 6.27
3 0 -9 16.05 1.33
-3 0 9 17.95 1.5
3 0 -9 17.89 1.38
3 0 -9 15.23 1.32
3 0 -9 17.02 1.46
-3 0 9 20.08 1.59
3 0 -9 14 1.4
3 0 -9 16.71 1.46
-3 0 9 15.72 1.53
-2 0 9 45.65 3.78
2 0 -9 43.39 3.38
-2 0 9 42.17 3.52
-2 0 9 50.03 3.86
-2 0 9 48.14 3.95
2 0 -9 36.51 3.58
2 0 -9 43.09 3.66
2 0 -9 45.84 3.4
2 0 -9 40.82 3.31
-1 0 9 19.38 1.61
1 0 -9 16.75 1.39
1 0 -9 14.43 1.48
1 0 -9 18.12 1.47
1 0 -9 18.43 1.54
-1 0 9 18.64 1.47
1 0 -9 14.7 1.26
-1 0 9 17.97 1.56
1 0 -9 17.89 1.4
1 0 -9 17.35 1.44
-1 0 9 19.08 1.66
0 0 -9 27.51 2.42
0 0 -9 26.86 2.2
0 0 -9 29.73 2.34
0 0 -9 25.75 2.23
0 0 -9 26.52 2.01
0 0 -9 30.03 2.21
0 0 9 29 2.53
0 0 9 28.33 2.6
0 0 9 31.16 2.35
1 0 9 10.56 0.96
-1 0 -9 10.36 1
-1 0 -9 11.89 0.95
-1 0 -9 9.32 0.91
-1 0 -9 10.8 0.93
-1 0 -9 10.76 0.83
1 0 9 9.84 1.01
1 0 9 12.11 1.08
-1 0 -9 9.83 0.87
-2 0 -9 4.14 0.46
2 0 9 4.81 0.49
-2 0 -9 3.72 0.38
2 0 9 3.08 0.42
-2 0 -9 3.96 0.46
-2 0 -9 3.09 0.39
2 0 9 3.22 0.42
-2 0 -9 4.35 0.42
-3 0 -9 1.37 0.26
3 0 9 1.16 0.2
3 0 9 1.47 0.27
-3 0 -9 1.47 0.29
3 0 9 1.16 0.25
-3 0 -9 1.25 0.25
-3 0 -9 1.4 0.24
-3 0 -9 1.03 0.24
4 0 9 40.45 3.16
-4 0 -9 40.69 2.86
-4 0 -9 38.22 3.21
-4 0 -9 35.59 3.13
4 0 9 32.48 3.1
4 0 9 34.31 3.46
-4 0 -9 42.29 3
-4 0 -9 42.52 2.77
-5 0 -9 0.02 0.13
-5 0 -9 0.06 0.11
5 0 9 0.06 0.11
5 0 9 -0.05 0.05
-5 0 -9 0.08 0.12
6 0 9 0.2 0.08
-6 0 -9 0.28 0.16
-6 0 -9 0.08 0.1
-6 0 -9 0.15 0.13
6 0 9 0.15 0.1
6 0 9 0.09 0.07
7 0 9 14.42 1.03
-7 0 -9 14.28 1.14
7 0 9 14.35 1.07
7 0 9 14.12 0.96
-7 0 -9 12.17 1.13
-7 0 -9 15.35 1.1
-8 0 -9 0.21 0.1
-8 0 -9 0.17 0.12
8 0 9 0.19 0.07
8 0 9 0.21 0.07
12 -1 -9 20.86 1.61
-12 -1 9 21.47 1.64
12 -1 -9 19.79 1.56
12 1 -9 19.74 1.61
11 -1 -9 6.55 0.63
11 -1 -9 6.64 0.67
11 -1 -9 7.06 0.63
11 1 -9 7.84 0.63
11 1 -9 6.54 0.6
11 1 -9 7.47 0.67
10 -1 -9 13.9 1.2
10 -1 -9 14.46 1.24
10 -1 -9 13.61 1.29
10 1 -9 15.39 1.22
10 1 -9 14.95 1.18
10 1 -9 15.73 1.29
9 -1 -9 10.28 0.89
9 -1 -9 9.99 0.83
9 -1 -9 9.76 0.8
9 -1 -9 8.32 0.84
9 1 -9 8.15 0.82
9 1 -9 9.05 0.83
9 1 -9 7.75 0.74
9 1 -9 8.24 0.77
8 -1 -9 27.51 2.21
8 -1 -9 28.46 2.1
8 -1 -9 23.8 2.01
8 -1 -9 28.23 2.22
8 -1 -9 25.31 2.07
8 1 -9 25.09 2.04
8 1 -9 22.38 1.96
8 1 -9 25.05 2.17
8 1 -9 26.64 2.16
7 -1 -9 4.08 0.47
-7 -1 9 2.6 0.38
-7 -1 9 3.98 0.47
7 -1 -9 3.56 0.39
-7 -1 9 3.66 0.43
7 -1 -9 3.86 0.44
7 -1 -9 3.8 0.4
7 -1 -9 4.05 0.44
7 1 -9 3.11 0.4
7 1 -9 3.08 0.38
-7 1 9 3.1 0.42
7 1 -9 3.47 0.36
-7 1 9 3.71 0.44
7 1 -9 3.17 0.4
7 1 -9 2.98 0.39
-7 1 9 3.01 0.44
6 -1 -9 4.05 0.44
6 -1 -9 3.77 0.39
6 -1 -9 3.56 0.39
6 -1 -9 4.07 0.44
-6 -1 9 2.87 0.37
-6 -1 9 4.06 0.47
-6 -1 9 4.07 0.43
6 -1 -9 3.92 0.46
6 -1 -9 3.98 0.45
-6 1 9 3.34 0.42
6 1 -9 3 0.34
6 1 -9 3.2 0.39
-6 1 9 4.06 0.43
6 1 -9 2.51 0.35
6 1 -9 2.93 0.36
-6 1 9 2.69 0.4
6 1 -9 3.12 0.39
-5 -1 9 38.07 3.11
5 -1 -9 35.8 2.72
5 -1 -9 37.88 2.73
5 -1 -9 29.98 2.61
-5 -1 9 35.44 3.02
5 -1 -9 33.85 2.92
-5 -1 9 30.2 2.93
5 -1 -9 33.53 2.87
-5 -1 9 34.86 3.12
5 1 -9 36.18 2.87
5 1 -9 34.99 2.9
5 1 -9 32.49 2.67
-5 1 9 34.19 3.05
5 1 -9 36.88 2.83
5 1 -9 34.44 2.68
4 -1 -9 38.67 3.07
4 -1 -9 42.17 3.1
-4 -1 9 41.94 3.58
4 -1 -9 37.93 3.01
4 -1 -9 41.87 3.34
4 -1 -9 39.9 3.3
-4 -1 9 43.49 3.51
-4 -1 9 34.9 3.42
4 -1 -9 39.15 3.25
4 1 -9 37.22 3.2
4 1 -9 33.86 3.28
-4 1 9 43.76 3.49
4 1 -9 38.39 3.3
-4 1 9 40.19 3.43
-4 1 9 39.27 3.53
4 1 -9 40.65 3.28
4 1 -9 39.73 3.05
4 1 -9 39.74 3.07
-3 -1 9 22.36 1.75
-3 -1 9 21.61 1.68
3 -1 -9 15.9 1.61
3 -1 -9 20.74 1.66
3 -1 -9 20.69 1.5
3 -1 -9 20.06 1.6
3 -1 -9 20.36 1.38
3 1 -9 16.12 1.6
3 1 -9 16.51 1.61
-3 1 9 19.78 1.68
3 1 -9 18.31 1.51
3 1 -9 15.93 1.58
-3 1 9 17.77 1.7
3 1 -9 17.73 1.49
-3 1 9 17.77 1.72
-2 -1 9 20.48 1.75
2 -1 -9 17.72 1.58
-2 -1 9 18.08 1.56
-2 -1 9 21.79 1.8
2 -1 -9 18.62 1.5
2 -1 -9 16.8 1.62
-2 -1 9 19.52 1.67
2 -1 -9 18.22 1.38
2 -1 -9 20.02 1.59
2 -1 -9 19.54 1.67
-2 1 9 19.34 1.71
-2 1 9 19.79 1.69
2 1 -9 17.21 1.47
2 1 -9 20.3 1.53
-2 1 9 21.4 1.76
2 1 -9 16.89 1.59
2 1 -9 19.22 1.51
2 1 -9 17.66 1.63
-2 1 9 17.95 1.55
2 1 -9 17.58 1.62
1 -1 -9 27.63 2.63
1 -1 -9 32.02 2.73
1 -1 -9 27.24 2.52
1 -1 -9 34.67 2.49
-1 -1 9 33.02 2.85
-1 -1 9 35.5 2.95
-1 -1 9 28.81 2.76
1 -1 -9 31.33 2.27
1 -1 -9 28.28 2.47
-1 -1 9 35.59 2.64
1 1 -9 28.45 2.65
-1 1 9 32.65 2.6
1 1 -9 33.12 2.71
-1 1 9 32.81 2.83
1 1 -9 32.62 2.51
1 1 -9 35.68 2.5
1 1 -9 32.8 2.63
-1 1 9 35.04 2.91
1 1 -9 30.55 2.44
0 -1 9 15.04 1.61
0 -1 -9 17.44 1.48
0 -1 -9 17.42 1.37
0 -1 -9 19.57 1.45
0 -1 -9 17.61 1.31
0 -1 9 19.58 1.52
0 -1 9 18.64 1.71
0 -1 -9 17.33 1.58
0 1 -9 17.8 1.56
0 1 -9 17.81 1.44
0 1 -9 18.82 1.5
0 1 9 17.44 1.48
0 1 9 17.07 1.61
0 1 -9 17.98 1.42
0 1 -9 14.27 1.51
0 1 9 18.03 1.66
0 1 -9 18.47 1.42
-1 -1 -9 10.07 0.91
1 -1 9 7.87 0.95
-1 -1 -9 9.9 0.9
-1 -1 -9 9.65 0.89
1 -1 9 9.61 1.03
-1 -1 -9 10.73 0.82
1 -1 9 10.16 0.93
-1 -1 -9 8.23 0.95
-1 -1 -9 9.1 0.84
1 1 9 10.77 0.98
-1 1 -9 9.85 0.95
-1 1 -9 10.01 0.85
-1 1 -9 9.92 0.79
-1 1 -9 11.71 0.9
-1 1 -9 10.85 0.91
1 1 9 10.93 1.02
-1 1 -9 11.34 0.89
1 1 9 10.78 0.91
-2 -1 -9 2.78 0.33
-2 -1 -9 3 0.45
-2 -1 -9 2.7 0.4
-2 -1 -9 3.08 0.35
-2 -1 -9 3.57 0.4
2 -1 9 2.76 0.41
2 -1 9 2.78 0.38
2 1 9 2.99 0.39
-2 1 -9 3.12 0.36
2 1 9 2.63 0.37
-2 1 -9 3.11 0.33
-2 1 -9 3.16 0.39
-2 1 -9 3.01 0.33
-2 1 -9 3.15 0.36
2 1 9 3.38 0.36
-3 -1 -9 17.55 1.3
3 -1 9 16.43 1.58
-3 -1 -9 16.82 1.42
-3 -1 -9 18.52 1.36
-3 -1 -9 17.1 1.5
-3 -1 -9 15.39 1.4
3 -1 9 17.28 1.47
-3 1 -9 17.44 1.39
3 1 9 13.11 1.49
-3 1 -9 16.68 1.49
-3 1 -9 18.05 1.44
3 1 9 15.5 1.42
3 1 9 15.23 1.56
-3 1 -9 16.62 1.26
-4 -1 -9 9.6 0.85
4 -1 9 10.25 0.78
4 -1 9 9.21 0.74
-4 -1 -9 9.69 0.81
-4 -1 -9 9.5 0.88
4 -1 9 9.49 0.71
-4 1 -9 8.68 0.85
-4 1 -9 7.16 0.85
-4 1 -9 8.42 0.77
-5 -1 -9 19.12 1.65
5 -1 9 21.01 1.46
-5 -1 -9 20.78 1.55
5 -1 9 19.55 1.51
5 -1 9 18.44 1.34
5 -1 9 18.8 1.44
-5 -1 -9 20.64 1.63
-5 1 -9 18.88 1.57
-5 1 -9 23.53 1.54
-5 1 -9 22.56 1.66
-5 1 -9 18.17 1.73
6 -1 9 15.34 1.16
-6 -1 -9 17.23 1.41
6 -1 9 15.9 1.29
6 -1 9 17.62 1.25
-6 -1 -9 17.5 1.34
-6 -1 -9 16.51 1.41
6 1 9 18.51 1.17
-6 1 -9 17.88 1.42
6 1 9 16.77 1.28
-6 1 -9 16.76 1.36
-6 1 -9 19.05 1.32
-7 -1 -9 4.39 0.45
7 -1 9 4 0.29
7 -1 9 4.48 0.34
7 -1 9 4.35 0.37
7 1 9 3.38 0.32
-7 1 -9 2.75 0.37
7 1 9 2.91 0.28
-7 1 -9 2.99 0.35
-7 1 -9 2.75 0.37
-8 -1 -9 11.38 0.98
8 -1 9 11.61 0.9
-8 -1 -9 10.92 0.92
8 1 9 12.91 0.89
8 1 9 13.18 0.84
-8 1 -9 14.64 0.95
11 -2 -9 8.31 0.7
11 -2 -9 7.37 0.65
11 -2 -9 9.3 0.72
11 -2 -9 7.63 0.74
-11 -2 9 9.94 0.77
-11 -2 9 7.91 0.69
11 2 -9 8.37 0.69
11 2 -9 6.69 0.71
10 -2 -9 15.72 1.2
10 -2 -9 15.38 1.28
-10 -2 9 15.6 1.18
-10 -2 9 14.51 1.23
10 -2 -9 11.34 1.09
10 -2 -9 13.51 1.16
10 -2 -9 12.96 1.23
10 2 -9 12.04 1.1
10 2 -9 15.4 1.22
10 2 -9 15.62 1.16
9 -2 -9 7.86 0.8
-9 -2 9 8.6 0.69
9 -2 -9 9.15 0.85
9 -2 -9 7.9 0.76
9 -2 -9 9.45 0.79
9 -2 -9 7.62 0.7
9 2 -9 8.11 0.71
9 2 -9 7.47 0.76
9 2 -9 8.17 0.78
8 -2 -9 10.12 0.99
8 -2 -9 10.63 0.95
8 -2 -9 11.26 1.03
8 -2 -9 13.47 1.11
8 -2 -9 12.01 1.04
8 -2 -9 13.23 1.13
8 2 -9 11.09 1.04
8 2 -9 11.01 0.96
8 2 -9 10.96 1.04
7 -2 -9 0.4 0.15
7 -2 -9 0.4 0.17
7 -2 -9 0.6 0.19
7 -2 -9 0.75 0.26
7 -2 -9 0.73 0.22
7 -2 -9 0.65 0.21
7 -2 -9 0.98 0.25
-7 -2 9 0.87 0.22
7 2 -9 0.62 0.18
7 2 -9 0.28 0.13
7 2 -9 0.41 0.14
7 2 -9 0.33 0.13
-7 2 9 0.23 0.16
6 -2 -9 9.17 0.85
6 -2 -9 9.06 0.87
6 -2 -9 7.77 0.88
6 -2 -9 9.64 0.82
6 -2 -9 8.41 0.8
6 -2 -9 7.92 0.72
-6 -2 9 8.07 0.91
6 -2 -9 8.85 0.78
6 -2 -9 10.06 0.91
-6 -2 9 8.58 0.86
-6 -2 9 7.29 0.87
-6 2 9 8.71 0.85
6 2 -9 7.79 0.72
6 2 -9 8.7 0.81
6 2 -9 8.65 0.81
6 2 -9 8.13 0.76
6 2 -9 9.06 0.84
-6 2 9 7.25 0.84
-6 2 9 9.49 0.87
5 -2 -9 13.04 0.96
-5 -2 9 12.9 1.36
5 -2 -9 12.77 1.29
5 -2 -9 14.03 1.11
5 -2 -9 14.86 1.07
5 -2 -9 14.1 1.19
5 -2 -9 15.5 1.34
5 -2 -9 13.98 1.15
-5 -2 9 15.03 1.39
5 -2 -9 14.07 1.3
5 -2 -9 16.05 1.27
5 -2 -9 14.43 1.12
5 -2 -9 14.6 1.2
-5 -2 9 12.46 1.3
-5 2 9 15.68 1.3
5 2 -9 14.33 1.27
-5 2 9 14.06 1.31
5 2 -9 14.08 1.17
5 2 -9 11.5 1.11
5 2 -9 13.31 1.15
5 2 -9 13.85 1.24
5 2 -9 13.36 1.22
-5 2 9 14.14 1.31
4 -2 -9 7.96 0.78
-4 -2 9 8.48 0.84
4 -2 -9 7.76 0.6
4 -2 -9 9 0.65
4 -2 -9 7.22 0.8
4 -2 -9 8.67 0.71
4 -2 -9 8.17 0.63
4 -2 -9 7.65 0.66
4 -2 -9 8.56 0.72
4 -2 -9 9.13 0.81
4 -2 -9 7.97 0.67
-4 -2 9 7.35 0.75
4 -2 -9 7.84 0.78
4 2 -9 6.81 0.73
4 2 -9 7.06 0.66
4 2 -9 6.87 0.71
4 2 -9 7.18 0.7
4 2 -9 5.73 0.69
4 2 -9 6.4 0.67
-4 2 9 7.07 0.73
-4 2 9 7.15 0.75
-4 2 9 6.22 0.73
3 -2 -9 0.82 0.25
3 -2 -9 1.05 0.2
-3 -2 9 1.33 0.27
3 -2 -9 1.02 0.18
3 -2 -9 1.26 0.26
3 -2 -9 1.27 0.26
-3 -2 9 1.37 0.3
3 -2 -9 1.24 0.21
3 -2 -9 1.05 0.24
3 -2 -9 2.16 0.41
3 -2 -9 0.85 0.15
3 -2 -9 1.31 0.22
3 -2 -9 1.23 0.21
3 -2 -9 1.14 0.23
-3 2 9 0.86 0.19
3 2 -9 0.63 0.19
3 2 -9 0.7 0.16
3 2 -9 0.82 0.19
3 2 -9 0.98 0.18
-3 2 9 1.31 0.26
-3 2 9 1.01 0.2
2 -2 -9 28.96 2.53
2 -2 -9 29.23 2.62
2 -2 -9 31.46 2.68
-2 -2 9 28.79 2.8
2 -2 -9 32.28 2.22
-2 -2 9 34.75 2.9
2 -2 -9 33.21 2.43
2 -2 -9 30.56 2.56
2 -2 -9 31.18 2.32
2 2 -9 28.9 2.59
-2 2 9 29.21 2.74
2 2 -9 34.06 2.44
2 2 -9 26.1 2.51
-2 2 9 34.12 2.81
1 -2 -9 43.55 3.2
1 -2 -9 45.63 3.48
1 -2 -9 46.96 3.33
1 -2 -9 49.75 3.88
-1 -2 9 45.3 3.7
-1 -2 9 50.97 4.18
-1 -2 9 42.48 3.23
1 -2 -9 45.06 3.73
1 2 -9 44.84 3.68
1 2 -9 43.96 3.78
-1 2 9 47.19 3.99
1 2 -9 41.75 3.42
1 2 -9 47.88 3.52
-1 2 9 46.4 4.07
-1 2 9 40.24 3.65
0 -2 9 6.13 0.54
0 -2 -9 7.15 0.54
0 -2 9 6.91 0.61
0 -2 9 5.09 0.48
0 -2 -9 6.06 0.52
0 -2 -9 6.19 0.59
0 -2 -9 6.54 0.56
0 -2 -9 5.8 0.66
0 -2 9 5.98 0.7
0 -2 -9 6.36 0.64
0 2 9 4.91 0.6
0 2 9 4.94 0.59
0 2 9 4.62 0.52
0 2 -9 5.11 0.51
0 2 -9 5.16 0.53
0 2 -9 4.34 0.52
-1 -2 -9 36.3 2.59
1 -2 9 34.29 2.99
1 -2 9 35.97 2.61
1 -2 9 32.95 3.32
1 -2 9 34.28 2.31
1 -2 9 39.31 2.52
-1 -2 -9 32 2.5
-1 -2 -9 35.82 2.82
-1 -2 -9 34.41 2.68
-1 2 -9 37.26 2.81
1 2 9 34.91 2.94
1 2 9 36.89 3.19
1 2 9 38.77 3.27
-1 2 -9 38.15 2.95
2 -2 9 25.57 1.71
-2 -2 -9 22.16 1.68
2 -2 9 23.45 1.67
-2 -2 -9 22.69 2.08
2 -2 9 22.5 2.02
-2 -2 -9 25.25 1.84
-2 -2 -9 25.08 1.76
2 -2 9 22.39 1.55
-2 -2 -9 20.39 1.9
2 -2 9 23.98 2.23
2 -2 9 26.04 1.77
2 2 9 22.04 2.12
2 2 9 23.23 2.17
2 2 9 21.56 1.95
-2 2 -9 22.72 1.87
-2 2 -9 23.68 1.96
-3 -2 -9 0.97 0.27
3 -2 9 1.11 0.2
-3 -2 -9 0.99 0.21
3 -2 9 0.95 0.26
3 -2 9 1.44 0.21
3 -2 9 1.34 0.26
3 -2 9 1.07 0.23
-3 -2 -9 1.12 0.26
-3 -2 -9 0.9 0.24
3 2 9 0.82 0.21
3 2 9 0.47 0.16
-3 2 -9 0.55 0.17
3 2 9 0.87 0.23
-3 2 -9 0.65 0.17
-3 2 -9 0.94 0.21
4 -2 9 43.4 2.93
4 -2 9 40.38 2.9
-4 -2 -9 40.53 2.94
-4 -2 -9 45.95 3.19
4 -2 9 44.33 3.03
-4 -2 -9 38.92 3.26
-4 -2 -9 39.91 3.03
5 -2 9 3.08 0.35
-5 -2 -9 2.29 0.39
-5 -2 -9 2.74 0.34
5 -2 9 2.59 0.32
-5 -2 -9 2.34 0.43
5 -2 9 2.79 0.29
-5 -2 -9 2.68 0.4
-5 2 -9 3.72 0.37
-5 2 -9 2.83 0.36
6 -2 9 8.93 0.68
-6 -2 -9 9.2 0.81
-6 -2 -9 9.55 0.76
6 -2 9 8.66 0.72
-6 2 -9 7.96 0.76
-6 2 -9 7.36 0.7
7 -2 9 7.61 0.64
-7 -2 -9 7.58 0.68
7 -2 9 7.92 0.67
-7 -2 -9 8.3 0.75
7 2 9 9.23 0.6
7 2 9 9 0.64
-7 2 -9 8.77 0.74
-7 2 -9 9.44 0.69
8 -2 9 0.07 0.06
-8 -2 -9 -0.02 0.1
-8 2 -9 0.07 0.07
8 2 9 0.03 0.05
-11 -3 9 1.35 0.22
11 -3 -9 0.64 0.14
11 -3 -9 0.99 0.17
11 3 -9 0.99 0.14
10 -3 -9 1.09 0.2
-10 -3 9 1.56 0.28
10 -3 -9 1.18 0.23
10 -3 -9 1.17 0.18
-10 -3 9 1.01 0.23
10 3 -9 0.99 0.19
10 3 -9 1.05 0.16
9 -3 -9 0.48 0.19
9 -3 -9 0.61 0.19
9 -3 -9 0.38 0.15
-9 -3 9 0.3 0.18
-9 -3 9 0.2 0.13
9 -3 -9 0.38 0.16
-9 -3 9 0.67 0.22
9 -3 -9 0.32 0.13
9 3 -9 0.21 0.12
9 3 -9 0.22 0.12
9 3 -9 0.26 0.1
8 -3 -9 7.33 0.69
8 -3 -9 6.33 0.64
8 -3 -9 5.45 0.61
8 -3 -9 5.79 0.48
8 -3 -9 6.27 0.65
8 -3 -9 5.99 0.57
-8 -3 9 7.21 0.58
8 -3 -9 7.12 0.67
-8 -3 9 6.64 0.69
-8 -3 9 7.52 0.71
8 -3 -9 6.53 0.71
8 3 -9 5.23 0.6
8 3 -9 5.38 0.54
8 3 -9 5.15 0.6
7 -3 -9 10.69 1.12
-7 -3 9 11.9 1.08
7 -3 -9 11.39 1.03
7 -3 -9 11.05 0.98
7 -3 -9 10.5 0.92
-7 -3 9 8.95 1.02
7 -3 -9 10.24 0.97
7 -3 -9 13.13 1.11
7 -3 -9 9.94 1.01
7 -3 -9 9.74 0.79
7 -3 -9 11.14 1.07
7 3 -9 11.21 0.92
7 3 -9 12.73 1.05
7 3 -9 11.61 1.02
6 -3 -9 7.94 0.81
-6 -3 9 6.07 0.72
6 -3 -9 8.35 0.78
6 -3 -9 7.38 0.64
6 -3 -9 5.8 0.8
6 -3 -9 6.87 0.54
6 -3 -9 7.66 0.74
6 -3 -9 7.01 0.71
6 -3 -9 7.07 0.69
-6 -3 9 6.11 0.76
6 -3 -9 8.02 0.63
6 -3 -9 7.23 0.77
-6 -3 9 7.98 0.72
-6 -3 9 7.03 0.59
6 3 -9 7.11 0.73
6 3 -9 6.29 0.64
6 3 -9 6.87 0.71
6 3 -9 6.2 0.61
5 -3 -9 52.42 4.24
5 -3 -9 55.67 3.68
5 -3 -9 52.8 3.53
5 -3 -9 56.32 3.96
-5 -3 9 46.17 3.53
-5 -3 9 44.63 4.5
5 -3 -9 54.55 3.97
5 -3 -9 51.81 3.71
-5 -3 9 46.09 3.72
5 -3 -9 48.26 3.26
5 -3 -9 47.83 3.78
5 -3 -9 52.95 4.22
5 -3 -9 44.05 4.15
-5 -3 9 55.81 3.23
5 -3 -9 51.63 3.84
-5 -3 9 49.25 4.47
5 3 -9 52.9 4.13
5 3 -9 40.39 3.84
5 3 -9 47.65 3.82
-5 3 9 45.54 4.31
5 3 -9 52.5 4.07
5 3 -9 48.43 4.18
-4 -3 9 11.75 0.93
-4 -3 9 11.88 1.26
4 -3 -9 11.36 1.01
4 -3 -9 14.02 1.19
-4 -3 9 11.44 1.06
4 -3 -9 12.98 0.94
4 -3 -9 12.72 1.19
4 -3 -9 12.61 1.18
-4 -3 9 12.2 1.24
4 -3 -9 12.43 0.96
4 -3 -9 11.57 0.96
4 -3 -9 12.48 1.01
4 -3 -9 12.24 1.07
-4 -3 9 11.72 1.03
-4 3 9 12.28 1.13
-4 3 9 10.18 1.13
4 3 -9 11.51 1.08
4 3 -9 10.46 1
3 -3 -9 35.91 2.85
3 -3 -9 37.23 2.69
-3 -3 9 38.24 2.63
3 -3 -9 40.16 2.95
-3 -3 9 40.86 2.71
3 -3 -9 34.61 3.19
3 -3 -9 37.79 2.82
3 -3 -9 38.86 2.8
-3 -3 9 37.16 2.8
3 -3 -9 38.11 2.63
3 -3 -9 37.96 3.14
3 -3 -9 41.67 3.28
-3 -3 9 32 2.47
-3 -3 9 39.15 3.5
3 -3 -9 37.02 2.95
3 -3 -9 40.19 3.09
-3 3 9 35.86 3.36
3 3 -9 36.11 2.93
-3 3 9 36.06 3.31
3 3 -9 35.64 3.16
-3 3 9 37.39 3.28
2 -3 -9 90.33 5.75
2 -3 -9 93.18 7.09
2 -3 -9 86.63 6.43
2 -3 -9 80.09 6.78
2 -3 -9 91.62 6.38
-2 -3 9 75.14 5.72
2 -3 -9 73.53 6.45
-2 -3 9 91.92 7.6
-2 -3 9 84.57 5.75
2 -3 -9 81.87 6.88
2 -3 -9 82.52 6.14
2 -3 -9 85.81 6.09
-2 -3 9 80.45 6
2 -3 -9 83.8 5.87
-2 -3 9 85.95 5.34
2 3 -9 83.25 6.46
2 3 -9 81.97 6.98
-2 3 9 82.55 7.29
-2 3 9 88.09 7.46
1 -3 -9 0.07 0.1
1 -3 -9 0.15 0.1
1 -3 -9 0.13 0.13
-1 -3 9 0.22 0.12
-1 -3 9 0.02 0.12
1 -3 -9 0.14 0.14
1 -3 -9 0.09 0.13
-1 -3 9 0.12 0.14
-1 -3 9 -0.04 0.13
1 -3 -9 0.06 0.14
1 -3 -9 0.13 0.18
1 -3 -9 0.16 0.18
1 -3 -9 0.06 0.11
-1 3 9 0.13 0.1
-1 3 9 0.15 0.12
-1 3 9 0.17 0.12
-1 3 9 0.18 0.1
1 3 -9 0.2 0.11
1 3 -9 0.14 0.09
0 -3 -9 35.16 2.33
0 -3 9 33.2 2.22
0 -3 9 29.84 2.23
0 -3 -9 29.63 2.15
0 -3 -9 35.2 2.48
0 -3 9 29.38 2.16
0 -3 -9 33.3 2.23
0 -3 -9 31.35 2.47
0 -3 9 34.2 2.05
0 3 9 25.14 2.49
0 3 9 29.94 2.73
0 3 9 28.7 2.51
0 3 9 29.53 2.78
0 3 9 28.55 2.55
0 3 -9 28.57 2.39
0 3 -9 27.29 2.57
-1 -3 -9 8.87 0.71
1 -3 9 10.41 0.72
-1 -3 -9 9.82 0.76
-1 -3 -9 8.25 0.92
1 -3 9 9.51 0.78
-1 -3 -9 9.55 0.81
-1 -3 -9 10.37 0.91
1 -3 9 11.14 0.8
1 -3 9 8.57 0.96
1 3 9 7.89 0.83
-1 3 -9 6.95 0.75
1 3 9 7.69 0.88
-1 3 -9 8.44 0.76
1 3 9 7.42 0.78
1 3 9 8.59 0.81
-1 3 -9 7.05 0.77
1 3 9 7.49 0.86
-2 -3 -9 0.06 0.16
-2 -3 -9 0.19 0.16
-2 -3 -9 0.1 0.12
2 -3 9 0.13 0.14
2 -3 9 0.25 0.12
2 -3 9 0.34 0.17
-2 -3 -9 0.19 0.15
-2 -3 -9 0.29 0.12
3 -3 9 6.45 0.58
3 -3 9 5.32 0.49
-3 -3 -9 4.32 0.61
3 -3 9 5.96 0.54
-3 -3 -9 5.26 0.52
3 -3 9 5.02 0.47
-3 -3 -9 5.49 0.61
-3 -3 -9 5.49 0.57
4 -3 9 6.1 0.54
4 -3 9 6.18 0.57
-4 -3 -9 5.44 0.63
-4 -3 -9 5.56 0.59
-4 -3 -9 5.58 0.64
4 -3 9 6.24 0.52
-4 -3 -9 6.15 0.56
5 -3 9 11.17 0.81
-5 -3 -9 9.94 0.94
-5 -3 -9 10.91 0.85
5 -3 9 11.12 0.86
5 -3 9 9.63 0.8
-5 -3 -9 10.74 0.88
-5 3 -9 9.6 0.83
-6 -3 -9 10 0.78
6 -3 9 8.72 0.71
6 -3 9 10.61 0.73
-6 -3 -9 10.32 0.87
6 -3 9 10.21 0.77
-6 -3 -9 9.98 0.76
-6 3 -9 9.5 0.75
-6 3 -9 9.91 0.84
-6 3 -9 8.26 0.85
-7 -3 -9 28.5 2
7 -3 9 26.7 1.85
7 -3 9 26.85 1.9
-7 3 -9 25.26 1.88
-7 3 -9 26.53 2.04
7 3 9 26.67 1.74
10 -4 -9 10.84 0.86
10 -4 -9 10.6 0.89
9 -4 -9 0.59 0.13
9 -4 -9 0.44 0.14
-9 -4 9 0.54 0.17
-9 -4 9 0.7 0.19
9 -4 -9 0.46 0.15
9 -4 -9 0.32 0.16
9 -4 -9 0.58 0.16
9 4 -9 0.62 0.11
9 4 -9 0.66 0.15
8 -4 -9 1.33 0.3
8 -4 -9 1.22 0.25
8 -4 -9 1.31 0.25
8 -4 -9 1.22 0.17
8 -4 -9 1.15 0.24
8 -4 -9 1.3 0.21
-8 -4 9 2 0.36
8 -4 -9 1.42 0.28
-8 -4 9 1.42 0.23
-8 -4 9 1.3 0.28
8 4 -9 1.16 0.22
8 4 -9 1.41 0.18
8 4 -9 1.33 0.23
-7 -4 9 10.25 0.82
7 -4 -9 8.64 0.91
7 -4 -9 8.69 0.68
7 -4 -9 8.86 0.79
7 -4 -9 10.25 0.94
7 -4 -9 8.03 0.87
-7 -4 9 10.58 0.96
7 -4 -9 8.22 0.84
7 -4 -9 9.75 1
7 -4 -9 9.57 0.89
7 4 -9 9.55 0.79
7 4 -9 10.37 0.88
7 4 -9 10.16 0.89
6 -4 -9 12.98 1.1
6 -4 -9 11.34 1.06
6 -4 -9 11.52 1.02
6 -4 -9 11.52 0.95
6 -4 -9 14.17 1.19
6 -4 -9 10.13 1.16
6 -4 -9 12.69 1.14
-6 -4 9 9.62 1.02
6 -4 -9 11.25 1.01
-6 -4 9 14.2 1.04
-6 -4 9 10.61 1.08
6 4 -9 9.98 0.94
6 4 -9 11.54 1.06
6 4 -9 11.45 1.08
5 -4 -9 3.22 0.41
5 -4 -9 3 0.57
5 -4 -9 3.11 0.35
-5 -4 9 3.49 0.42
-5 -4 9 3.4 0.54
5 -4 -9 2.89 0.35
5 -4 -9 3.28 0.43
5 -4 -9 3.12 0.41
5 -4 -9 4.01 0.61
5 -4 -9 3.09 0.44
5 -4 -9 3.25 0.55
-5 -4 9 3.3 0.54
5 -4 -9 2.77 0.5
5 4 -9 3.45 0.38
4 -4 -9 3.13 0.35
4 -4 -9 2.86 0.43
4 -4 -9 2.68 0.5
-4 -4 9 3.34 0.51
-4 -4 9 2.49 0.48
4 -4 -9 2.46 0.36
4 -4 -9 3.19 0.53
4 -4 -9 3.18 0.42
4 -4 -9 2.32 0.49
4 -4 -9 3.4 0.6
4 -4 -9 3.21 0.34
-4 -4 9 3.56 0.45
4 -4 -9 3.36 0.44
-3 -4 9 7.2 0.71
3 -4 -9 6.92 0.73
-3 -4 9 5.89 0.64
3 -4 -9 8.38 0.86
3 -4 -9 7.37 0.8
3 -4 -9 7.31 0.6
-3 -4 9 6.62 0.68
3 -4 -9 6.89 0.62
3 -4 -9 7.11 0.67
3 -4 -9 6.49 0.67
3 -4 -9 6.15 0.74
3 -4 -9 6.47 0.65
3 -4 -9 5.92 0.79
2 -4 -9 0.41 0.17
-2 -4 9 0.48 0.19
2 -4 -9 0.54 0.19
-2 -4 9 0.62 0.22
2 -4 -9 0.43 0.2
-2 -4 9 0.46 0.18
-2 -4 9 0.87 0.26
2 -4 -9 0.43 0.16
2 -4 -9 0.45 0.17
2 -4 -9 0.46 0.16
2 -4 -9 0.48 0.25
2 -4 -9 0.55 0.24
2 -4 -9 0.73 0.31
2 -4 -9 0.35 0.14
1 -4 -9 12.94 1.11
-1 -4 9 12.83 1.04
1 -4 -9 13.36 1.1
1 -4 -9 9.96 1.28
1 -4 -9 15.09 1.24
1 -4 -9 13.15 1.23
-1 -4 9 10.72 1.04
1 -4 -9 13.61 1.09
1 -4 -9 12.86 1.2
1 -4 -9 12.66 1.01
-1 -4 9 14.84 1.04
1 -4 -9 13.92 1.06
0 -4 -9 2.62 0.43
0 -4 -9 2.13 0.46
0 -4 -9 2.6 0.41
0 -4 -9 2.66 0.4
0 -4 9 2.64 0.37
0 -4 -9 2.79 0.51
0 -4 -9 2.58 0.38
0 -4 9 3.22 0.42
0 -4 9 2.96 0.45
0 -4 -9 3.07 0.34
1 -4 9 23.17 1.78
-1 -4 -9 25.6 1.83
1 -4 9 23.1 1.87
1 -4 9 27.29 1.88
-1 -4 -9 23.94 1.94
-1 -4 -9 21.08 2.08
-1 -4 -9 27.25 2.27
-1 -4 -9 26.9 1.98
-1 -4 -9 28.03 1.92
1 -4 9 25.95 1.73
2 -4 9 6.29 0.57
-2 -4 -9 5.77 0.53
-2 -4 -9 4.69 0.64
-2 -4 -9 5.95 0.61
2 -4 9 6.07 0.52
-2 -4 -9 5.33 0.55
2 -4 9 5.28 0.55
-2 -4 -9 5.7 0.57
3 -4 9 6.96 0.6
-3 -4 -9 5.48 0.59
3 -4 9 6.87 0.58
3 -4 9 5.91 0.5
-3 -4 -9 6.17 0.64
-3 -4 -9 6.57 0.57
-3 -4 -9 5.68 0.65
-4 -4 -9 23.96 1.87
-4 -4 -9 21.15 1.76
4 -4 9 25.08 1.7
4 -4 9 25.13 1.77
-4 -4 -9 23.87 1.72
-5 -4 -9 1.53 0.23
5 -4 9 1.39 0.21
5 -4 9 1.46 0.22
-5 -4 -9 1.94 0.27
-5 -4 -9 1.45 0.28
-5 4 -9 1.96 0.24
-6 -4 -9 1.76 0.26
6 -4 9 1.56 0.2
-6 4 -9 1.54 0.22
-8 -5 9 15.67 1.13
8 5 -9 13.38 1.18
-7 -5 9 4.93 0.55
-7 -5 9 5.18 0.45
7 5 -9 5.61 0.51
7 5 -9 4.89 0.49
-6 -5 9 0.04 0.11
-6 -5 9 0.14 0.18
6 -5 -9 0.13 0.18
6 -5 -9 0.08 0.14
6 5 -9 0.08 0.1
6 5 -9 -0.01 0.08
5 -5 -9 35.74 2.85
5 -5 -9 35.33 2.66
5 -5 -9 33.11 2.83
5 -5 -9 27.01 2.77
-5 -5 9 31 2.49
-5 -5 9 35.38 2.39
5 -5 -9 31.41 2.56
5 5 -9 32.88 2.71
5 5 -9 34.62 2.75
-4 -5 9 14.79 1.23
4 -5 -9 14.54 1.18
4 -5 -9 17.98 1.45
4 -5 -9 15.23 1.34
-4 -5 9 14.25 1.19
4 -5 -9 14.93 1.13
4 -5 -9 11.32 1.35
-4 -5 9 15.89 1.07
4 -5 -9 14.75 1.27
4 5 -9 14.42 1.2
-3 -5 9 9.41 0.81
-3 -5 9 8.75 0.79
3 -5 -9 9.78 0.98
3 -5 -9 8.75 0.92
-3 -5 9 9.07 0.75
3 -5 -9 8.57 0.78
3 -5 -9 8.53 0.86
3 -5 -9 8.59 0.74
3 -5 -9 9.07 0.79
3 -5 -9 9.1 0.72
2 -5 -9 16.09 1.3
2 -5 -9 16.61 1.31
2 -5 -9 16.9 1.21
2 -5 -9 17.03 1.26
2 -5 -9 18.15 1.44
2 -5 -9 14.32 1.54
2 -5 -9 14.68 1.42
-2 -5 9 14.76 1.2
-2 -5 9 17.78 1.27
1 -5 -9 9.72 0.81
1 -5 -9 10.32 0.89
1 -5 -9 10.94 0.86
-1 -5 9 11.6 0.87
1 -5 -9 10.74 0.91
1 -5 -9 9.53 0.94
-1 -5 9 11.13 0.86
-1 -5 9 9.66 0.83
1 -5 -9 11.44 1.03
1 -5 -9 10.07 0.91
0 -5 -9 14.51 1.06
0 -5 9 12.64 1.03
0 -5 -9 12.61 1.25
0 -5 -9 13.36 1.07
0 -5 9 15.63 1.01
0 -5 -9 13.75 1.09
0 -5 -9 11.99 1.08
0 -5 -9 10.86 1.16
0 -5 -9 13.01 0.99
0 -5 9 12.56 0.98
1 -5 9 0.65 0.18
1 -5 9 0.76 0.2
-1 -5 -9 0.66 0.2
-1 -5 -9 0.71 0.17
-1 -5 -9 0.98 0.22
-1 -5 -9 0.49 0.23
-1 -5 -9 0.85 0.19
1 -5 9 0.7 0.15
2 -5 9 9.76 0.71
2 -5 9 9.43 0.65
-2 -5 -9 7.84 0.71
-2 -5 -9 9.62 0.78
2 -5 9 7.44 0.67
-2 -5 -9 7.38 0.71
-2 -5 -9 8.72 0.69
3 -5 9 0 0.09
-3 -5 -9 0.1 0.13
3 -5 9 0.1 0.1
3 -5 9 0.11 0.11
-3 -5 -9 0.11 0.09
-3 -5 -9 0.02 0.1
-4 -5 -9 3.43 0.32
4 -5 9 3.6 0.31
-4 -5 -9 2.99 0.37
-4 -6 9 3.59 0.35
4 6 -9 3.76 0.4
-3 -6 9 2.17 0.26
3 6 -9 1.97 0.28
-2 -6 9 0.17 0.1
-2 -6 9 0.2 0.12
2 -6 -9 0.19 0.08
2 -6 -9 0.15 0.1
2 -6 -9 0.16 0.12
2 6 -9 0.1 0.09
1 -6 -9 1.11 0.19
1 -6 -9 1.14 0.2
-1 -6 9 1.15 0.17
1 -6 -9 1.05 0.17
-1 -6 9 1.09 0.2
0 -6 -9 4.89 0.46
0 -6 -9 4.15 0.42
0 -6 9 5.33 0.41
0 -6 -9 5.08 0.4
12 0 -10 6.24 0.54
11 0 -10 6.62 0.63
11 0 -10 8.51 0.67
11 0 -10 7.38 0.7
10 0 -10 3.27 0.38
10 0 -10 3.53 0.41
10 0 -10 3.59 0.42
10 0 -10 3.63 0.38
9 0 -10 34.91 2.66
9 0 -10 33.46 2.81
9 0 -10 35.41 2.8
9 0 -10 31.26 2.57
8 0 -10 2.2 0.29
8 0 -10 2.13 0.31
8 0 -10 2.07 0.34
7 0 -10 1.66 0.28
7 0 -10 1.6 0.28
-7 0 10 1.26 0.25
-7 0 10 1.17 0.27
7 0 -10 1.38 0.28
-7 0 10 1.04 0.28
7 0 -10 1.57 0.25
6 0 -10 78.87 5.93
6 0 -10 83.13 6.32
-6 0 10 82.7 6.69
-6 0 10 70.32 6.53
-6 0 10 74.69 6.75
6 0 -10 69.84 5.96
6 0 -10 85.78 6.27
5 0 -10 11.31 1.05
5 0 -10 12.26 1.01
-5 0 10 10.73 1.04
-5 0 10 10.73 1.1
5 0 -10 11.52 1.04
-5 0 10 11.17 1.1
-5 0 10 11.9 1.08
5 0 -10 10.28 0.94
5 0 -10 12.31 1.06
4 0 -10 16.49 1.36
-4 0 10 16.23 1.53
-4 0 10 15.91 1.48
4 0 -10 17.77 1.45
4 0 -10 15.71 1.44
-4 0 10 17.08 1.54
4 0 -10 14.88 1.4
3 0 -10 25.27 2.33
-3 0 10 27.93 2.49
3 0 -10 29.37 2.43
-3 0 10 28.29 2.55
3 0 -10 28.13 2.2
-3 0 10 30.7 2.61
3 0 -10 28.11 2.4
3 0 -10 27.41 2.23
3 0 -10 31.11 2.28
2 0 -10 0.87 0.17
-2 0 10 1.01 0.19
-2 0 10 1.4 0.19
2 0 -10 1.12 0.22
2 0 -10 1.15 0.25
-2 0 10 1.2 0.27
2 0 -10 1.26 0.27
2 0 -10 1.23 0.24
-2 0 10 1.88 0.27
1 0 -10 2.06 0.31
1 0 -10 2.54 0.32
-1 0 10 2.28 0.29
1 0 -10 2.56 0.35
1 0 -10 2.08 0.26
1 0 -10 2.16 0.26
-1 0 10 2.32 0.28
-1 0 10 2.63 0.35
1 0 -10 2.6 0.34
-1 0 10 2.93 0.37
0 0 -10 0.12 0.09
0 0 10 0.18 0.12
0 0 10 0.06 0.12
0 0 -10 0.18 0.09
0 0 -10 0.07 0.12
0 0 -10 0.14 0.12
0 0 -10 0.06 0.07
0 0 -10 0.11 0.11
0 0 10 0.08 0.08
-1 0 -10 14.53 1.09
-1 0 -10 12.17 1.14
1 0 10 11.93 1.09
1 0 10 10.36 1.14
-1 0 -10 11.45 1.04
-1 0 -10 11.73 0.95
1 0 10 12.53 1.21
-1 0 -10 12.25 1.07
-2 0 -10 10.41 0.98
-2 0 -10 10.7 1.05
2 0 10 10.3 1
-2 0 -10 11.66 1.01
-2 0 -10 11.92 0.9
2 0 10 10.43 1.1
3 0 10 1.84 0.34
-3 0 -10 2.12 0.34
-3 0 -10 1.44 0.27
-3 0 -10 1.32 0.29
-3 0 -10 1.46 0.26
3 0 10 1.29 0.28
-3 0 -10 1.63 0.34
-4 0 -10 10.76 1.03
4 0 10 10.34 0.76
-4 0 -10 12.13 1.03
4 0 10 10.23 0.84
-4 0 -10 11.81 0.93
-4 0 -10 11.32 0.96
-5 0 -10 16.2 1.33
5 0 10 15.5 1.11
-5 0 -10 16.39 1.38
-5 0 -10 17.57 1.29
5 0 10 16.75 1.19
5 0 10 16.4 1.26
6 0 10 8 0.6
-6 0 -10 7.69 0.7
6 0 10 7.82 0.63
-6 0 -10 8.41 0.67
-6 0 -10 7.27 0.7
6 0 10 6.76 0.54
-7 0 -10 1.89 0.26
7 0 10 1.84 0.18
-7 0 -10 2.29 0.26
7 0 10 1.9 0.2
-7 0 -10 1.56 0.26
7 0 10 1.69 0.22
12 -1 -10 5.79 0.52
-12 -1 10 5.98 0.55
12 1 -10 6.15 0.52
11 -1 -10 5.36 0.55
11 -1 -10 6.01 0.51
11 -1 -10 4.79 0.49
11 1 -10 5.03 0.53
11 1 -10 5.74 0.49
10 -1 -10 2.46 0.3
10 -1 -10 1.99 0.3
10 -1 -10 1.87 0.3
10 -1 -10 2.26 0.34
10 1 -10 2.19 0.3
10 1 -10 2.39 0.27
9 -1 -10 6.71 0.71
9 -1 -10 5.99 0.63
9 -1 -10 6.56 0.68
9 -1 -10 6.85 0.66
9 1 -10 6.74 0.67
9 1 -10 6.87 0.62
9 1 -10 7.72 0.69
8 -1 -10 22.87 1.81
8 -1 -10 21.54 1.8
8 -1 -10 19.57 1.68
8 -1 -10 21.67 1.7
8 -1 -10 18.79 1.63
8 1 -10 19.87 1.75
8 1 -10 19.18 1.64
8 1 -10 20.44 1.75
-7 -1 10 4.35 0.54
7 -1 -10 6.1 0.58
-7 -1 10 4.83 0.61
7 -1 -10 5.57 0.52
7 -1 -10 5.5 0.54
7 -1 -10 6.12 0.61
7 1 -10 3.81 0.49
7 1 -10 4.97 0.53
7 1 -10 5.57 0.55
-7 1 10 4.13 0.58
-7 1 10 4.83 0.57
7 1 -10 4.8 0.52
7 1 -10 4.83 0.48
6 -1 -10 3.68 0.5
6 -1 -10 3.59 0.48
-6 -1 10 3.2 0.49
6 -1 -10 3.61 0.44
6 -1 -10 4.17 0.5
6 -1 -10 3.95 0.5
-6 -1 10 3.52 0.46
6 1 -10 4.58 0.46
6 1 -10 3.67 0.42
-6 1 10 5.48 0.52
6 1 -10 4.67 0.48
6 1 -10 4.59 0.48
-6 1 10 3.93 0.49
-6 1 10 5.04 0.51
6 1 -10 3.94 0.4
5 -1 -10 24.62 1.95
-5 -1 10 25.78 2.25
5 -1 -10 26.18 2.11
5 -1 -10 27.01 2
5 -1 -10 29.02 1.99
-5 -1 10 22.21 2.23
-5 -1 10 19.75 2.08
5 -1 -10 26.1 2.12
5 -1 -10 23.1 2.07
-5 -1 10 23.98 2.17
5 1 -10 24.39 1.95
5 1 -10 21.69 2.07
-5 1 10 23.98 2.17
5 1 -10 24.4 2.04
5 1 -10 24.96 2.07
-5 1 10 23.81 2.2
4 -1 -10 50 3.84
-4 -1 10 51.68 4.56
4 -1 -10 53.89 3.95
-4 -1 10 48.87 4.45
4 -1 -10 47.54 4.17
4 -1 -10 45.51 3.9
4 -1 -10 53.6 4.25
-4 -1 10 45.86 4.36
4 -1 -10 47.5 4.12
-4 1 10 55.92 4.44
4 1 -10 48.61 4.08
4 1 -10 54.51 4.17
-4 1 10 51.25 4.52
4 1 -10 52.3 4.21
4 1 -10 50.67 3.91
-4 1 10 57.65 4.39
4 1 -10 44.23 4.21
4 1 -10 52.49 3.9
-3 -1 10 13.95 1.32
3 -1 -10 12.41 1.2
3 -1 -10 12.84 1.24
-3 -1 10 13.36 1.25
3 -1 -10 13.18 1.14
3 -1 -10 14.98 1.22
3 -1 -10 14.29 1.27
3 -1 -10 13.76 1.07
-3 -1 10 15.87 1.36
3 1 -10 13.2 1.13
3 1 -10 13.53 1.23
3 1 -10 13.32 1.22
-3 1 10 13.75 1.3
-3 1 10 13.4 1.3
-3 1 10 14.93 1.27
3 1 -10 14.56 1.17
3 1 -10 11.55 1.17
2 -1 -10 0.07 0.11
2 -1 -10 0.24 0.13
-2 -1 10 0.17 0.13
2 -1 -10 0.07 0.14
2 -1 -10 0.13 0.1
-2 -1 10 0.09 0.08
-2 -1 10 0.12 0.1
-2 -1 10 0.15 0.08
2 -1 -10 0.29 0.14
2 1 -10 0.68 0.18
-2 1 10 0.64 0.14
-2 1 10 0.76 0.18
-2 1 10 0.55 0.19
2 1 -10 0.77 0.19
2 1 -10 0.36 0.14
2 1 -10 0.59 0.17
2 1 -10 0.51 0.13
1 -1 -10 117.81 8.07
-1 -1 10 105.33 8.62
1 -1 -10 98.01 8.2
-1 -1 10 103.17 9.32
1 -1 -10 102.04 8.68
1 -1 -10 117.3 8.92
1 -1 -10 119.57 7.46
-1 -1 10 116.25 9.58
-1 1 10 97.83 8.58
1 1 -10 107.44 8.23
1 1 -10 111.02 8.17
1 1 -10 110.21 8.03
1 1 -10 96 8.67
1 1 -10 110.85 8.65
1 1 -10 109.22 8.87
-1 1 10 106.72 9.53
-1 1 10 109.42 9.3
0 -1 10 32.86 3.45
0 -1 10 41.9 3.61
0 -1 10 41.6 3.24
0 -1 -10 38.12 3.09
0 -1 -10 41.13 3.36
0 -1 -10 45.02 3.07
0 -1 -10 42.41 2.8
0 1 10 37.66 3.46
0 1 -10 40.43 3.22
0 1 10 39.06 3.56
0 1 -10 36.18 3.05
0 1 10 34.96 3.19
0 1 -10 41.37 3.33
0 1 -10 39.56 3.02
0 1 -10 37.6 3.06
-1 -1 -10 14.38 1.27
-1 -1 -10 13.99 1.34
-1 -1 -10 13.86 1.47
1 -1 10 14.93 1.41
1 -1 10 14.83 1.57
-1 -1 -10 16.41 1.24
-1 -1 -10 15.84 1.37
-1 1 -10 16.31 1.34
-1 1 -10 16.67 1.21
1 1 10 15.6 1.5
-1 1 -10 18.79 1.49
-1 1 -10 15.8 1.31
1 1 10 16.84 1.56
-1 1 -10 18.66 1.41
-1 1 -10 18.11 1.35
1 1 10 15.77 1.39
-2 -1 -10 47.78 3.2
2 -1 10 43.07 2.82
-2 -1 -10 48.63 3.31
2 -1 10 40.98 3.66
-2 -1 -10 49.85 3.49
-2 -1 -10 44.89 3.79
-2 -1 -10 39.64 3.63
2 -1 10 40.99 4.04
2 1 10 45.33 3.65
2 1 10 37.31 3.89
-2 1 -10 48.89 3.79
-2 1 -10 47.11 3.17
-2 1 -10 44.17 3.44
-2 1 -10 49.35 3.66
2 1 10 45.39 4.03
-2 1 -10 50.29 3.46
-2 1 -10 37.16 3.44
3 -1 10 13.61 1.1
-3 -1 -10 14.09 1.22
-3 -1 -10 15.39 1.19
3 -1 10 14.7 1.08
-3 -1 -10 14.13 1.29
-3 -1 -10 13.76 1.35
-3 1 -10 15.87 1.36
-3 1 -10 15.81 1.27
-3 1 -10 14.86 1.15
4 -1 10 23.56 1.78
-4 -1 -10 24.77 1.96
-4 -1 -10 25.88 1.83
4 -1 10 24.35 1.71
4 -1 10 22.83 1.71
-4 -1 -10 24.54 1.89
-4 1 -10 23.52 1.94
-4 1 -10 24.23 1.78
-4 1 -10 21.68 2.06
-5 -1 -10 7.68 0.73
-5 -1 -10 7.15 0.66
5 -1 10 7.34 0.63
5 -1 10 6.48 0.58
-5 -1 -10 6.69 0.7
5 -1 10 6.06 0.59
-5 1 -10 8.46 0.66
-5 1 -10 7.15 0.7
-5 1 -10 9.08 0.74
-6 -1 -10 1.18 0.24
6 -1 10 1.84 0.2
6 -1 10 1.57 0.24
-6 -1 -10 1.54 0.29
-6 -1 -10 1.82 0.28
6 1 10 1.96 0.2
-6 1 -10 2.45 0.27
-6 1 -10 1.93 0.31
6 1 10 1.76 0.24
6 1 10 1.66 0.17
-7 -1 -10 3.14 0.35
7 -1 10 2.78 0.29
7 -1 10 2.92 0.27
-7 -1 -10 3.12 0.31
7 1 10 2.93 0.27
-7 1 -10 3.2 0.32
-7 1 -10 2.94 0.33
7 1 10 3.08 0.24
11 -2 -10 7.13 0.7
11 -2 -10 7.96 0.65
-11 -2 10 8.01 0.66
11 -2 -10 8.21 0.67
-11 -2 10 8.81 0.71
11 2 -10 6.57 0.68
11 2 -10 7.33 0.64
10 -2 -10 15.53 1.32
10 -2 -10 14.04 1.36
10 -2 -10 14.2 1.27
-10 -2 10 16.49 1.36
-10 -2 10 16.23 1.28
10 -2 -10 15.94 1.4
10 2 -10 17.15 1.36
10 2 -10 17.62 1.29
-9 -2 10 7.11 0.61
9 -2 -10 6.25 0.66
9 -2 -10 6.64 0.7
9 -2 -10 7.23 0.68
9 -2 -10 7.01 0.74
-9 -2 10 6.63 0.7
9 2 -10 7.46 0.69
9 2 -10 7.6 0.63
9 2 -10 6.9 0.68
8 -2 -10 29.17 2.24
8 -2 -10 26.1 2.1
8 -2 -10 23.18 2.01
8 -2 -10 25.58 2.08
8 -2 -10 27.53 2.22
8 2 -10 25.25 2.16
8 2 -10 22.67 2.01
8 2 -10 26.43 2.15
7 -2 -10 9.41 0.96
7 -2 -10 9.93 1.04
7 -2 -10 9.09 0.91
7 -2 -10 9.01 0.94
7 -2 -10 10.15 1.02
-7 -2 10 9.25 0.76
7 -2 -10 11.04 1.04
7 2 -10 12.34 0.99
7 2 -10 12.52 1
7 2 -10 10.69 0.96
7 2 -10 11.23 0.89
6 -2 -10 14.92 1.19
6 -2 -10 14.7 1.15
6 -2 -10 15.25 1.31
6 -2 -10 13.21 1.3
6 -2 -10 16.09 1.26
6 -2 -10 15.69 1.22
-6 -2 10 12.84 1.29
6 2 -10 11.73 1.22
6 2 -10 15.42 1.26
-6 2 10 13.75 1.3
6 2 -10 13.84 1.16
6 2 -10 12.08 1.11
-6 2 10 10.86 1.31
-5 -2 10 1.9 0.37
5 -2 -10 2.7 0.34
5 -2 -10 2.73 0.41
5 -2 -10 2.39 0.44
5 -2 -10 2.64 0.38
5 -2 -10 2.32 0.29
5 -2 -10 2.51 0.32
-5 -2 10 2.64 0.46
5 -2 -10 2.77 0.45
5 -2 -10 2.54 0.43
-5 2 10 2.32 0.33
5 2 -10 2.44 0.35
-5 2 10 2.12 0.34
5 2 -10 2.3 0.3
5 2 -10 2.25 0.33
5 2 -10 2.38 0.32
-5 2 10 2.3 0.33
5 2 -10 1.94 0.29
-4 -2 10 12.62 1.28
4 -2 -10 11.83 1.08
4 -2 -10 13.24 1.2
-4 -2 10 12.61 1.28
4 -2 -10 12.73 1.1
4 -2 -10 12.94 1.21
4 -2 -10 14.26 1.21
4 -2 -10 12.29 0.99
4 -2 -10 10.63 1.2
4 2 -10 14.09 1.2
4 2 -10 13.26 1.08
4 2 -10 14.11 1.1
-4 2 10 12.27 1.19
4 2 -10 11.68 1.12
4 2 -10 13.59 1.14
-4 2 10 12.27 1.22
4 2 -10 11.85 1.13
-3 -2 10 20.56 1.92
3 -2 -10 19.21 1.55
3 -2 -10 22.41 1.78
3 -2 -10 21.44 1.83
3 -2 -10 20.18 1.65
3 -2 -10 18.7 1.8
3 -2 -10 20.98 1.76
3 -2 -10 20.75 1.5
-3 -2 10 22.11 1.96
3 2 -10 20.56 1.65
3 2 -10 20.31 1.63
-3 2 10 17.08 1.85
3 2 -10 20.4 1.78
3 2 -10 20.69 1.75
-3 2 10 22.98 1.84
3 2 -10 17.59 1.69
-3 2 10 20.18 1.86
3 2 -10 18.25 1.73
-2 -2 10 4.11 0.61
2 -2 -10 5.04 0.5
-2 -2 10 6.02 0.65
2 -2 -10 4.5 0.62
2 -2 -10 5.41 0.48
2 -2 -10 6.05 0.57
2 -2 -10 5.76 0.62
2 -2 -10 5.33 0.58
2 -2 -10 4.77 0.54
2 2 -10 4.68 0.48
-2 2 10 5.07 0.56
2 2 -10 4.83 0.56
-2 2 10 5.02 0.56
-2 2 10 5 0.54
2 2 -10 5.21 0.54
2 2 -10 5.08 0.54
2 2 -10 3.75 0.47
1 -2 -10 41.4 3.68
-1 -2 10 48.2 4.28
1 -2 -10 46.07 3.42
1 -2 -10 48.8 3.99
-1 -2 10 48.74 3.23
1 -2 -10 43.5 3.83
1 -2 -10 52.9 3.62
-1 -2 10 44.37 3.8
1 -2 -10 47.43 3.3
-1 -2 10 42.66 3.32
1 2 -10 49.48 3.63
-1 2 10 45.54 4.19
1 2 -10 51.69 3.93
1 2 -10 43.61 3.52
1 2 -10 45.59 3.85
-1 2 10 45.47 4.09
0 -2 -10 12.31 0.98
0 -2 -10 9.35 1.17
0 -2 10 11.28 1.11
0 -2 10 12.78 0.91
0 -2 -10 11.6 1.11
0 -2 -10 12.21 1.1
0 -2 -10 11.03 1.01
0 -2 10 12.2 0.99
0 -2 10 10.57 0.92
0 -2 10 10.6 1.26
0 2 -10 13.07 1.11
0 2 -10 14.83 1.06
0 2 10 12.4 1.07
0 2 -10 15.24 1.1
1 -2 10 23.49 1.62
-1 -2 -10 19 1.91
-1 -2 -10 25.35 1.64
-1 -2 -10 23.22 1.68
-1 -2 -10 22.61 1.78
1 -2 10 25.06 1.59
1 -2 10 21.37 1.85
1 -2 10 19.75 2.05
1 -2 10 21.75 1.44
-1 2 -10 18.76 1.69
-1 2 -10 20.63 1.72
1 2 10 19.06 1.77
1 2 10 19.65 1.98
1 2 10 20.31 1.94
-1 2 -10 21.87 1.72
-1 2 -10 18.89 1.78
-2 -2 -10 13.25 1.26
-2 -2 -10 11.94 1.17
2 -2 10 13.64 1.07
2 -2 10 11.32 0.93
2 -2 10 14.37 1.05
2 -2 10 12.76 0.98
-2 -2 -10 15.27 1.11
-2 -2 -10 13.87 1.13
-2 2 -10 12.66 1.01
-2 2 -10 12.64 1.11
-3 -2 -10 13.01 1.32
3 -2 10 15.51 1.14
-3 -2 -10 15.43 1.3
3 -2 10 15.84 1.21
3 -2 10 15.27 1.18
-3 -2 -10 15.14 1.24
-3 2 -10 16.75 1.33
-3 2 -10 16.14 1.41
-3 2 -10 15.15 1.18
4 -2 10 7 0.57
-4 -2 -10 7.45 0.71
-4 -2 -10 7.14 0.66
-4 -2 -10 6.9 0.71
4 -2 10 7.7 0.63
4 -2 10 6.99 0.6
-4 2 -10 6.28 0.6
-4 2 -10 7.07 0.69
-4 2 -10 6.3 0.69
5 -2 10 13.45 0.99
-5 -2 -10 16.03 1.11
-5 -2 -10 14.8 1.16
5 -2 10 14.22 1.06
-5 -2 -10 12.96 1.13
5 -2 10 12.79 0.99
-5 2 -10 11.83 1.18
-5 2 -10 12.52 1.03
-5 2 -10 12.92 1.12
6 -2 10 0.3 0.12
6 -2 10 0.23 0.1
-6 -2 -10 0.43 0.18
-6 -2 -10 0.28 0.12
-6 2 -10 0.27 0.11
-6 2 -10 0.2 0.11
6 2 10 0.2 0.07
7 -2 10 1.07 0.16
7 -2 10 1.28 0.15
-7 -2 -10 1.34 0.22
-7 -2 -10 1.17 0.18
7 2 10 1.3 0.13
-7 2 -10 1.27 0.2
-7 2 -10 1.36 0.18
7 2 10 1.41 0.15
10 -3 -10 13.49 1.05
-10 -3 10 15.53 1.07
10 -3 -10 13.83 1.15
10 -3 -10 10.67 1
-10 -3 10 14.88 1.12
10 -3 -10 11.23 1.11
10 3 -10 13.03 1.04
10 3 -10 13.36 1.11
-9 -3 10 26.7 2.04
-9 -3 10 28.66 1.95
-9 -3 10 25.71 1.76
9 -3 -10 23.84 1.94
9 -3 -10 26.63 2.12
9 -3 -10 26.21 2.13
9 -3 -10 22.15 1.87
9 -3 -10 22.09 1.95
9 3 -10 23.27 2.06
9 3 -10 24.47 1.94
9 3 -10 26.3 2.07
8 -3 -10 3.89 0.46
-8 -3 10 4.47 0.53
-8 -3 10 3.18 0.45
8 -3 -10 3.71 0.44
-8 -3 10 4.28 0.41
8 -3 -10 3.95 0.52
8 -3 -10 3.8 0.47
8 -3 -10 3.51 0.46
8 -3 -10 3.49 0.39
8 -3 -10 3.55 0.45
8 3 -10 3.74 0.37
8 3 -10 4.95 0.47
8 3 -10 4.08 0.44
-7 -3 10 22.37 2.19
7 -3 -10 24.85 2.13
7 -3 -10 23.93 2.21
-7 -3 10 29.84 2.18
7 -3 -10 22.25 2.05
7 -3 -10 28.65 2.23
7 -3 -10 28.98 2.39
7 -3 -10 26.88 2.36
7 -3 -10 26.84 2.14
-7 -3 10 31.7 2.02
7 -3 -10 30.76 2.38
7 3 -10 30.41 2.28
7 3 -10 25.75 2.12
7 3 -10 29.59 2.31
6 -3 -10 21.59 1.81
6 -3 -10 21.64 1.88
-6 -3 10 25.67 1.82
6 -3 -10 24.47 2
6 -3 -10 23.21 1.92
-6 -3 10 18.45 1.87
6 -3 -10 23.43 1.74
6 -3 -10 25.39 2.12
-6 -3 10 23.76 1.6
6 -3 -10 25.42 2.13
6 3 -10 25.62 2.01
6 3 -10 26.8 2.07
6 3 -10 22.62 1.88
-5 -3 10 13.21 1.22
5 -3 -10 15.2 1.42
5 -3 -10 14.89 1.24
-5 -3 10 13.63 1.28
5 -3 -10 14.12 1.43
5 -3 -10 15.07 1.16
5 -3 -10 15.18 1.21
5 -3 -10 13.94 1.17
5 -3 -10 16.05 1.3
-5 -3 10 16.43 1.12
5 -3 -10 16.62 1.39
5 -3 -10 13.96 1.42
5 3 -10 15.09 1.26
5 3 -10 14.94 1.32
5 3 -10 15.62 1.38
-4 -3 10 29.4 2.4
4 -3 -10 31.08 2.42
-4 -3 10 29.7 2.31
4 -3 -10 32.34 2.77
4 -3 -10 29.27 2.21
4 -3 -10 34.01 2.64
4 -3 -10 32.22 2.7
4 -3 -10 31.62 2.37
4 -3 -10 31.39 2.28
-4 -3 10 33.28 2.15
4 -3 -10 31.35 2.52
4 -3 -10 30.49 2.49
4 3 -10 32.78 2.69
4 3 -10 29.15 2.6
4 3 -10 33.42 2.5
3 -3 -10 7.81 0.71
3 -3 -10 8.15 0.88
3 -3 -10 7.53 0.84
-3 -3 10 7.76 0.7
-3 -3 10 6.8 0.72
3 -3 -10 7.46 0.71
3 -3 -10 8.92 0.88
3 -3 -10 8.58 0.79
3 -3 -10 7.73 0.81
-3 -3 10 8.51 0.74
-3 -3 10 8.35 0.7
3 -3 -10 7.86 0.63
3 -3 -10 7.55 0.67
3 3 -10 7.62 0.75
3 3 -10 6.51 0.72
3 3 -10 7.06 0.73
2 -3 -10 4.67 0.45
-2 -3 10 4.55 0.63
2 -3 -10 3.79 0.5
-2 -3 10 4.7 0.47
2 -3 -10 4.25 0.41
-2 -3 10 3.69 0.48
2 -3 -10 4.09 0.54
-2 -3 10 3.93 0.48
2 -3 -10 3.95 0.47
2 -3 -10 4.84 0.61
2 -3 -10 3.28 0.49
2 -3 -10 2.34 0.54
2 3 -10 4.48 0.46
2 3 -10 4.37 0.45
-2 3 10 5.32 0.52
-2 3 10 4.2 0.51
-2 3 10 4.77 0.53
1 -3 -10 38.71 2.8
1 -3 -10 33.2 3.08
-1 -3 10 37.96 2.35
1 -3 -10 30.99 2.44
-1 -3 10 34.97 2.52
1 -3 -10 31.24 2.91
-1 -3 10 35.05 2.48
1 -3 -10 37.66 2.54
1 -3 -10 33.7 2.84
1 -3 -10 36.89 2.64
0 -3 10 6.51 0.59
0 -3 -10 6.21 0.71
0 -3 -10 4.6 0.75
0 -3 10 7.56 0.68
0 -3 10 7.68 0.63
0 -3 -10 6.86 0.59
0 -3 -10 7.41 0.75
0 -3 10 6.07 0.62
0 -3 -10 6.86 0.63
0 -3 -10 6.95 0.66
0 3 -10 7.7 0.7
-1 -3 -10 19.47 1.63
-1 -3 -10 20.1 1.75
1 -3 10 20.92 1.43
-1 -3 -10 18.94 1.49
-1 -3 -10 20.59 1.9
-1 -3 -10 21.37 1.57
1 -3 10 23.51 1.57
1 -3 10 19.55 1.58
-2 -3 -10 6.85 0.68
-2 -3 -10 7.38 0.65
2 -3 10 6.21 0.55
2 -3 10 8.02 0.65
2 -3 10 7.09 0.65
-2 -3 -10 6.62 0.73
-2 -3 -10 5.12 0.7
-2 -3 -10 6.51 0.59
-3 -3 -10 22.05 1.69
-3 -3 -10 23.5 1.79
3 -3 10 21.59 1.55
-3 -3 -10 22.31 1.93
3 -3 10 26.74 1.8
3 -3 10 25.69 1.72
-3 -3 -10 24.25 1.87
-3 3 -10 22.68 1.86
4 -3 10 7.83 0.61
-4 -3 -10 6.59 0.62
-4 -3 -10 6.94 0.67
-4 -3 -10 6.95 0.57
-4 -3 -10 7.07 0.69
4 -3 10 7.24 0.59
4 -3 10 6.64 0.54
-4 3 -10 6.16 0.64
-4 3 -10 6.54 0.67
-4 3 -10 5.54 0.55
-5 -3 -10 8.94 0.79
5 -3 10 9.76 0.72
5 -3 10 8.82 0.66
-5 -3 -10 9.09 0.73
5 -3 10 8.5 0.67
-5 3 -10 8.08 0.8
-5 3 -10 8.06 0.68
-5 3 -10 8.91 0.77
6 -3 10 9.45 0.72
-6 -3 -10 9.46 0.78
6 -3 10 7.81 0.68
-6 -3 -10 9.57 0.73
-6 3 -10 10.29 0.79
-6 3 -10 9.14 0.7
6 3 10 9.46 0.67
-9 -4 10 6.89 0.59
9 -4 -10 7.12 0.59
9 -4 -10 6.02 0.55
9 -4 -10 6.25 0.61
9 -4 -10 6.35 0.6
9 4 -10 5.68 0.57
-8 -4 10 3.6 0.44
-8 -4 10 3.03 0.37
8 -4 -10 3.47 0.39
8 -4 -10 2.89 0.3
8 -4 -10 2.79 0.36
-8 -4 10 3.42 0.33
8 -4 -10 3.11 0.36
8 -4 -10 3.67 0.4
8 -4 -10 3.07 0.42
8 4 -10 3.25 0.36
8 4 -10 2.66 0.29
8 4 -10 2.99 0.34
7 -4 -10 16.16 1.45
-7 -4 10 17.41 1.49
7 -4 -10 16.74 1.63
-7 -4 10 21.44 1.4
7 -4 -10 17.23 1.6
7 -4 -10 15.92 1.51
7 -4 -10 17.92 1.52
7 -4 -10 19.09 1.62
7 4 -10 19.84 1.55
7 4 -10 20.13 1.57
6 -4 -10 8.98 0.84
6 -4 -10 9.6 0.93
6 -4 -10 9.42 0.9
6 -4 -10 8.85 0.79
6 -4 -10 9.91 0.89
6 -4 -10 6.38 0.89
6 -4 -10 8.53 0.81
-6 -4 10 7.7 0.85
-6 -4 10 10.07 0.83
6 4 -10 8.45 0.82
6 4 -10 9.03 0.86
5 -4 -10 7.45 0.92
5 -4 -10 8.77 0.74
-5 -4 10 8.37 0.83
5 -4 -10 8.59 0.83
5 -4 -10 9.03 0.92
-5 -4 10 8.29 0.85
5 -4 -10 8.34 0.78
5 -4 -10 9.02 0.93
5 -4 -10 8.53 0.78
-5 -4 10 9.45 0.72
5 -4 -10 8.6 0.84
5 -4 -10 8.32 0.94
5 4 -10 9.08 0.79
5 4 -10 10.17 0.86
5 4 -10 10.22 0.9
-4 -4 10 1.51 0.29
4 -4 -10 1.36 0.28
4 -4 -10 1.12 0.28
4 -4 -10 1.31 0.35
4 -4 -10 1.54 0.35
-4 -4 10 1 0.27
4 -4 -10 1.28 0.22
-4 -4 10 1.41 0.3
4 -4 -10 1.13 0.22
4 -4 -10 1.22 0.25
4 -4 -10 1.28 0.35
4 -4 -10 0.83 0.27
4 4 -10 0.94 0.22
4 4 -10 1.04 0.23
4 4 -10 1.06 0.27
3 -4 -10 11.96 0.99
3 -4 -10 12.17 1.16
3 -4 -10 11.48 0.99
-3 -4 10 11.23 0.94
-3 -4 10 13.08 1.03
3 -4 -10 12.27 1.08
3 -4 -10 12.44 0.95
3 -4 -10 11.09 1.11
3 -4 -10 9.16 1.12
3 -4 -10 12.31 0.91
-3 -4 10 10.74 0.99
3 -4 -10 13.73 1.24
3 4 -10 10.65 1.05
2 -4 -10 3.17 0.39
2 -4 -10 2.8 0.55
-2 -4 10 3.43 0.41
2 -4 -10 2.95 0.42
2 -4 -10 2.93 0.42
-2 -4 10 3.33 0.47
2 -4 -10 2.95 0.36
2 -4 -10 2.51 0.49
-2 -4 10 2.73 0.42
2 -4 -10 3.45 0.4
2 -4 -10 2.85 0.33
2 -4 -10 3.78 0.47
1 -4 -10 9.44 0.86
-1 -4 10 8.67 0.83
1 -4 -10 9.57 0.84
1 -4 -10 10 0.96
-1 -4 10 10.32 0.82
-1 -4 10 9.74 0.82
1 -4 -10 10.26 0.83
1 -4 -10 9.55 0.96
1 -4 -10 10.37 0.79
0 -4 10 15.15 1.16
0 -4 -10 15.64 1.4
0 -4 -10 14.04 1.49
0 -4 10 17.22 1.16
0 -4 -10 17.04 1.24
0 -4 -10 15.22 1.26
0 -4 10 15.37 1.23
0 -4 -10 14.63 1.16
-1 -4 -10 0.41 0.16
1 -4 10 0.38 0.17
-1 -4 -10 0.45 0.25
1 -4 10 0.29 0.15
-1 -4 -10 0.4 0.14
-1 -4 -10 0.45 0.21
-1 -4 -10 0.33 0.18
1 -4 10 0.53 0.19
-2 -4 -10 12.15 0.99
-2 -4 -10 12.76 0.93
-2 -4 -10 12.22 1.04
2 -4 10 11.25 0.95
2 -4 10 11.57 0.87
2 -4 10 12.92 0.96
-2 -4 -10 10.23 1.07
-3 -4 -10 17.45 1.36
-3 -4 -10 15.98 1.38
3 -4 10 15.16 1.11
-3 -4 -10 17.63 1.24
3 -4 10 18.94 1.25
3 -4 10 18.66 1.29
-3 -4 -10 15.63 1.29
-3 4 -10 17.08 1.36
-3 4 -10 15.05 1.34
-4 -4 -10 2.4 0.3
-4 -4 -10 1.94 0.32
4 -4 10 2.17 0.26
4 -4 10 2.21 0.27
-4 -4 -10 2.13 0.25
-4 4 -10 2.28 0.29
-4 4 -10 2.34 0.29
-5 -4 -10 9.63 0.81
5 -4 10 10.33 0.75
5 -4 10 8.88 0.72
-5 4 -10 10.16 0.8
-7 -5 10 11.18 0.92
-7 -5 10 11.23 0.83
7 5 -10 11.64 0.96
7 5 -10 10.9 0.96
-6 -5 10 5.78 0.62
-6 -5 10 7.88 0.59
6 5 -10 6.8 0.63
6 5 -10 6.19 0.61
5 -5 -10 8.33 0.74
-5 -5 10 6.93 0.67
-5 -5 10 7.85 0.66
5 -5 -10 6.61 0.75
5 -5 -10 7.65 0.69
5 -5 -10 7.91 0.76
5 5 -10 7.13 0.7
5 5 -10 6.61 0.66
-4 -5 10 4.88 0.54
4 -5 -10 5.88 0.6
4 -5 -10 5.47 0.53
-4 -5 10 5.44 0.55
4 -5 -10 5.93 0.65
4 -5 -10 6.48 0.67
-4 -5 10 6.37 0.51
4 -5 -10 5.77 0.5
4 5 -10 5.11 0.54
4 5 -10 5.43 0.53
4 5 -10 6.27 0.6
-3 -5 10 2.63 0.36
3 -5 -10 2.71 0.4
3 -5 -10 1.91 0.38
-3 -5 10 2.72 0.38
3 -5 -10 2.33 0.3
3 -5 -10 2.04 0.25
3 -5 -10 2.49 0.43
3 -5 -10 2.2 0.28
-3 -5 10 2.16 0.31
3 5 -10 1.82 0.28
3 5 -10 2.24 0.3
3 5 -10 2.67 0.34
2 -5 -10 1.65 0.28
2 -5 -10 1.37 0.35
2 -5 -10 1.95 0.28
2 -5 -10 1.51 0.33
2 -5 -10 1.53 0.25
-2 -5 10 2.31 0.32
2 -5 -10 1.59 0.33
2 -5 -10 1.93 0.23
-2 -5 10 2.25 0.34
-1 -5 10 2.12 0.3
-1 -5 10 2.7 0.29
1 -5 -10 1.75 0.39
1 -5 -10 2.16 0.33
1 -5 -10 2.42 0.31
1 -5 -10 2.3 0.26
1 -5 -10 2.36 0.39
1 -5 -10 2.27 0.28
-1 -5 10 2.8 0.36
1 5 -10 2.14 0.29
0 -5 -10 12.78 1.2
0 -5 10 12.4 0.95
0 -5 10 12.67 0.99
0 -5 -10 14.96 1.03
0 -5 -10 13.97 0.98
0 -5 10 15.11 0.96
0 -5 -10 10.28 1.12
0 -5 -10 11.91 1.03
0 -5 -10 13.88 1.07
0 5 -10 12.57 1.13
-1 -5 -10 0.91 0.17
1 -5 10 0.9 0.19
-1 -5 -10 1.08 0.22
-1 -5 -10 0.78 0.23
-1 -5 -10 1.08 0.21
1 -5 10 1.21 0.2
-2 -5 -10 2.34 0.31
2 -5 10 3.23 0.32
-2 -5 -10 2.88 0.29
2 -5 10 2.92 0.28
-2 -5 -10 2.86 0.35
-2 5 -10 3.39 0.35
-2 5 -10 2.95 0.32
3 -5 10 17.93 1.21
-3 -5 -10 15.87 1.32
-3 5 -10 17.84 1.48
11 0 -11 0.05 0.08
11 0 -11 0.06 0.1
10 0 -11 0.79 0.19
10 0 -11 0.89 0.21
10 0 -11 1 0.19
9 0 -11 0.13 0.12
9 0 -11 0.12 0.1
9 0 -11 -0.05 0.09
8 0 -11 3.51 0.4
8 0 -11 2.86 0.4
8 0 -11 2.93 0.35
8 0 -11 2.99 0.41
7 0 -11 5.42 0.57
7 0 -11 5.02 0.55
7 0 -11 4.55 0.49
7 0 -11 5.16 0.56
6 0 -11 1.41 0.27
-6 0 11 1.12 0.25
6 0 -11 1.48 0.25
6 0 -11 1.86 0.32
-6 0 11 1.27 0.25
6 0 -11 1.34 0.27
6 0 -11 1.22 0.26
-6 0 11 1.19 0.31
5 0 -11 0.39 0.18
5 0 -11 0.71 0.22
5 0 -11 0.45 0.16
-5 0 11 0.34 0.12
5 0 -11 0.44 0.17
-5 0 11 0.4 0.15
-5 0 11 0.29 0.17
-4 0 11 40.66 4.05
4 0 -11 46.49 3.8
-4 0 11 41.87 3.91
4 0 -11 52.24 3.56
4 0 -11 47.84 3.75
4 0 -11 42.61 3.67
-4 0 11 45.81 4
3 0 -11 10.04 1.05
3 0 -11 12 1.1
3 0 -11 11.38 0.99
3 0 -11 11.75 1
3 0 -11 12.18 1.11
-3 0 11 11.34 1.15
3 0 -11 13.81 1.08
-3 0 11 11.81 1.11
-3 0 11 12.28 1.18
-2 0 11 1.07 0.24
2 0 -11 0.46 0.18
2 0 -11 0.47 0.17
-2 0 11 0.35 0.12
-2 0 11 0.51 0.18
2 0 -11 0.51 0.18
2 0 -11 0.68 0.22
2 0 -11 0.4 0.12
1 0 -11 32.46 2.67
1 0 -11 26.63 2.5
-1 0 11 32.12 2.88
1 0 -11 33.04 2.57
1 0 -11 38.26 2.81
1 0 -11 37.52 2.53
-1 0 11 29.99 2.8
-1 0 11 29.44 2.63
0 0 11 10.29 1.04
0 0 -11 9.81 0.78
0 0 -11 9.45 0.89
0 0 11 8.98 0.91
0 0 11 8.73 0.96
0 0 11 9.29 0.88
0 0 -11 10.82 0.98
0 0 -11 10.69 0.9
1 0 11 2.15 0.43
-1 0 -11 2.87 0.36
1 0 11 3 0.44
-1 0 -11 3.48 0.41
-1 0 -11 3.82 0.45
1 0 11 2.52 0.36
-1 0 -11 3.28 0.44
-1 0 -11 3.37 0.35
-2 0 -11 1.74 0.35
-2 0 -11 1.84 0.35
-2 0 -11 2.27 0.34
-3 0 -11 9.52 0.77
-3 0 -11 8.34 0.84
-3 0 -11 8.26 0.86
4 0 11 21.22 1.56
4 0 11 24.68 1.66
4 0 11 20.7 1.56
-4 0 -11 19.76 1.9
-4 0 -11 23.51 1.67
-4 0 -11 22.93 1.81
5 0 11 11.85 0.99
5 0 11 12.96 0.95
-5 0 -11 12.66 1.1
-5 0 -11 13.93 1.03
-6 0 -11 26.82 1.9
6 0 11 25.35 1.88
-6 0 -11 25.94 2.04
6 0 11 27 1.84
7 0 11 8.28 0.6
-7 0 -11 8.07 0.63
11 -1 -11 0.8 0.19
11 -1 -11 1.38 0.2
11 -1 -11 1.01 0.18
-11 -1 11 1.26 0.21
-11 -1 11 0.97 0.2
11 1 -11 1.02 0.2
11 1 -11 1.49 0.2
10 -1 -11 1.64 0.25
10 -1 -11 2.01 0.3
10 -1 -11 1.93 0.25
10 -1 -11 2.03 0.31
10 1 -11 1.67 0.27
10 1 -11 1.45 0.22
10 1 -11 1.5 0.26
9 -1 -11 5.97 0.62
9 -1 -11 5.23 0.56
9 -1 -11 5.73 0.59
9 -1 -11 6.22 0.65
9 1 -11 6.64 0.61
9 1 -11 6.06 0.56
9 1 -11 6.7 0.62
8 -1 -11 7.59 0.71
8 -1 -11 6.98 0.67
8 -1 -11 6.87 0.65
8 -1 -11 7.58 0.73
8 1 -11 6.11 0.65
8 1 -11 5.58 0.59
8 1 -11 5.87 0.65
7 -1 -11 3.95 0.5
7 -1 -11 4.51 0.58
7 -1 -11 4.79 0.57
7 -1 -11 4.51 0.55
7 1 -11 5.21 0.53
7 1 -11 4.72 0.47
7 1 -11 5.93 0.56
7 1 -11 5.58 0.55
6 -1 -11 28.23 2.25
6 -1 -11 26.15 2.25
6 -1 -11 26.81 2.13
6 -1 -11 22.27 2.19
6 -1 -11 24.75 2.07
6 1 -11 24.44 2.06
6 1 -11 27.66 2.21
6 1 -11 25.72 2.17
5 -1 -11 60.66 4.55
5 -1 -11 55.51 4.19
-5 -1 11 61.14 4.8
-5 -1 11 49.45 4.67
5 -1 -11 54.62 4.43
5 -1 -11 63.27 4.25
-5 -1 11 51.13 4.84
5 1 -11 49.87 4.48
-5 1 11 53.23 4.6
5 1 -11 51.77 4.37
5 1 -11 56.54 4.45
5 1 -11 53.49 4.17
-5 1 11 51.07 4.68
-5 1 11 47.16 4.72
4 -1 -11 28.29 2.37
-4 -1 11 23.48 2.39
-4 -1 11 29.12 2.53
-4 -1 11 27.36 2.48
4 -1 -11 25.97 2.33
4 -1 -11 27.59 2.14
4 -1 -11 30.12 2.24
4 -1 -11 23.77 2.28
-4 1 11 26.33 2.41
4 1 -11 27.46 2.16
4 1 -11 29.44 2.19
4 1 -11 30.59 2.33
-4 1 11 25.43 2.48
4 1 -11 25.14 2.25
-4 1 11 27.47 2.46
4 1 -11 27.19 2.32
3 -1 -11 31.85 2.6
-3 -1 11 31.34 3.01
3 -1 -11 28.35 2.74
3 -1 -11 27.94 2.8
3 -1 -11 33.61 2.7
-3 -1 11 31.74 3.08
3 -1 -11 34.61 2.89
-3 1 11 36.86 3.02
3 1 -11 33.62 2.63
3 1 -11 38.22 2.83
-3 1 11 34.66 3.06
3 1 -11 39.32 2.87
2 -1 -11 41.57 3.17
2 -1 -11 38.75 2.61
2 -1 -11 37.48 3.07
2 -1 -11 38.4 2.85
2 -1 -11 37.11 2.94
-2 -1 11 39.52 3.39
-2 -1 11 35.51 3.28
-2 1 11 34.3 3.26
2 1 -11 32.82 2.8
2 1 -11 33.06 3.04
2 1 -11 38.3 3.12
-2 1 11 38.01 3.34
2 1 -11 33.01 2.86
2 1 -11 37.51 2.9
-2 1 11 35.99 3.21
-1 -1 11 42.03 3.51
-1 -1 11 34.26 3.37
1 -1 -11 40.84 2.71
1 -1 -11 39.04 3.03
-1 -1 11 36.41 3.1
1 -1 -11 43.84 3.28
-1 1 11 35.51 3.44
-1 1 11 36.14 3.3
1 1 -11 35.9 2.95
1 1 -11 39.29 3
-1 1 11 35.39 3.36
1 1 -11 39.18 2.93
1 1 -11 39.51 3.23
1 1 -11 34.42 3.12
0 -1 11 27.87 2.77
0 -1 -11 34.46 2.43
0 -1 -11 31.91 2.91
0 -1 -11 29.96 2.67
0 -1 11 28.55 3.09
0 -1 -11 33.65 2.65
0 1 -11 33.11 2.63
0 1 -11 39.95 2.92
0 1 11 30.48 2.75
0 1 11 36.42 3.09
0 1 -11 37.6 2.79
0 1 11 35.01 3.01
0 1 -11 37.63 2.68
1 -1 11 1.42 0.19
-1 -1 -11 2.08 0.38
-1 -1 -11 1.59 0.33
1 -1 11 1.55 0.3
-1 -1 -11 1.31 0.28
1 -1 11 1.04 0.27
-1 -1 -11 1.54 0.26
-1 1 -11 1.13 0.24
-1 1 -11 0.9 0.24
-1 1 -11 0.76 0.19
1 1 11 0.64 0.21
1 1 11 1.07 0.25
-1 1 -11 0.99 0.21
-1 1 -11 0.96 0.21
-1 1 -11 1.09 0.27
1 1 11 0.78 0.24
2 -1 11 2.93 0.39
-2 -1 -11 4.31 0.53
-2 -1 -11 5.07 0.57
-2 -1 -11 4.22 0.45
-2 -1 -11 4.55 0.49
2 -1 11 4.35 0.38
-2 1 -11 4.2 0.43
-2 1 -11 4.5 0.53
-2 1 -11 4.49 0.52
-3 -1 -11 10.54 0.91
-3 -1 -11 9.61 0.99
3 -1 11 10.6 0.79
-3 -1 -11 12.02 1.02
3 -1 11 11.69 0.87
-3 -1 -11 10.16 0.87
3 -1 11 9.85 0.82
-3 1 -11 9.62 0.84
-3 1 -11 9.05 0.98
-3 1 -11 10.49 0.96
-4 -1 -11 9.59 0.89
4 -1 11 11.24 0.79
4 -1 11 10.76 0.84
-4 -1 -11 10.2 0.86
4 -1 11 10.31 0.81
-4 -1 -11 11.73 0.97
-4 1 -11 8.76 0.94
-4 1 -11 10.43 0.94
-4 1 -11 9.44 0.83
-5 -1 -11 3.9 0.4
-5 -1 -11 3.24 0.42
-5 -1 -11 3.22 0.41
5 -1 11 3.69 0.33
5 -1 11 3.62 0.36
-5 1 -11 3.88 0.39
5 1 11 4.2 0.33
-5 1 -11 3.76 0.43
5 1 11 3.53 0.36
5 1 11 3.06 0.28
-6 -1 -11 1.06 0.2
6 -1 11 1.45 0.16
6 -1 11 1.05 0.19
-6 -1 -11 1.24 0.23
-6 -1 -11 1.39 0.21
6 1 11 1.16 0.17
6 1 11 1.53 0.17
-6 1 -11 1.13 0.21
-6 1 -11 1.18 0.2
11 -2 -11 13.61 1.18
-11 -2 11 14.71 1.14
11 -2 -11 15.45 1.13
-11 -2 11 14.09 1.07
11 2 -11 12.92 1.16
11 2 -11 12.91 1.1
-10 -2 11 3.45 0.39
-10 -2 11 3.35 0.39
10 -2 -11 3.11 0.37
10 -2 -11 3.06 0.35
10 -2 -11 3.61 0.41
10 -2 -11 3.6 0.37
10 2 -11 3.3 0.37
10 2 -11 3.14 0.33
-9 -2 11 8.42 0.83
-9 -2 11 10.12 0.85
9 -2 -11 9.19 0.82
9 -2 -11 8.06 0.77
9 -2 -11 9.95 0.9
9 -2 -11 8.28 0.84
-9 -2 11 9.08 0.73
9 2 -11 9.04 0.83
9 2 -11 8.78 0.76
9 2 -11 9.43 0.83
8 -2 -11 0.21 0.14
8 -2 -11 0.23 0.16
8 -2 -11 0.57 0.18
-8 -2 11 0.4 0.18
8 -2 -11 0.6 0.19
8 -2 -11 0.21 0.17
8 2 -11 0.48 0.13
8 2 -11 0.54 0.16
8 2 -11 0.44 0.15
7 -2 -11 3.43 0.44
-7 -2 11 2.82 0.44
7 -2 -11 4.05 0.49
7 -2 -11 4.03 0.5
7 -2 -11 3.96 0.49
7 -2 -11 3.06 0.41
7 -2 -11 3.7 0.52
-7 -2 11 4.07 0.38
7 2 -11 4.3 0.47
7 2 -11 4.02 0.39
7 2 -11 3.6 0.44
7 2 -11 4.41 0.46
6 -2 -11 12.42 1.12
6 -2 -11 11.31 1.09
6 -2 -11 10.52 1.2
6 -2 -11 12.54 1.21
6 -2 -11 14.06 1.25
6 -2 -11 12.72 1.17
6 2 -11 12.71 1.1
6 2 -11 15.19 1.2
6 2 -11 13.47 1.16
5 -2 -11 15.33 1.23
5 -2 -11 14.94 1.35
5 -2 -11 13.2 1.21
5 -2 -11 15.21 1.37
5 -2 -11 15.26 1.31
5 -2 -11 13.9 1.34
5 2 -11 14.13 1.29
5 2 -11 12.73 1.24
5 2 -11 13.52 1.21
-4 -2 11 19.17 1.89
4 -2 -11 21.89 1.49
4 -2 -11 17.5 1.78
-4 -2 11 18.95 1.91
4 -2 -11 20.54 1.63
4 -2 -11 21.48 1.74
4 -2 -11 21.62 1.81
4 -2 -11 21 1.77
4 2 -11 19.6 1.73
4 2 -11 23.2 1.78
4 2 -11 22.04 1.65
-4 2 11 18.64 1.84
4 2 -11 16.64 1.7
-4 2 11 19.86 1.81
4 2 -11 17.99 1.6
4 2 -11 18.67 1.68
3 -2 -11 5.19 0.57
3 -2 -11 5.07 0.51
3 -2 -11 5.32 0.57
3 -2 -11 5.48 0.62
3 -2 -11 5.17 0.44
-3 -2 11 4.54 0.59
3 -2 -11 5.16 0.54
3 2 -11 3.41 0.48
-3 2 11 3.56 0.46
-3 2 11 3.14 0.47
3 2 -11 3.78 0.47
-3 2 11 3.67 0.49
3 2 -11 3.84 0.47
3 2 -11 3.57 0.43
2 -2 -11 42.18 3.87
2 -2 -11 49.81 4.06
2 -2 -11 49.67 3.47
2 -2 -11 51.92 3.79
2 -2 -11 52.57 4.19
-2 -2 11 48.77 4.47
-2 2 11 50.53 4.26
-2 2 11 43.74 4.39
2 2 -11 47.35 3.8
2 2 -11 55.21 3.83
2 2 -11 47.34 4.05
2 2 -11 51.08 4.11
-2 2 11 46.32 4.31
-1 -2 11 7.01 0.6
-1 -2 11 7.15 0.81
1 -2 -11 7.78 0.72
-1 -2 11 6.41 0.6
1 -2 -11 7.77 0.79
1 -2 -11 6.35 0.74
1 -2 -11 7.5 0.65
1 -2 -11 7.65 0.61
1 2 -11 6.42 0.69
-1 2 11 5.64 0.71
-1 2 11 5.71 0.7
1 2 -11 6.71 0.64
1 2 -11 7.16 0.68
1 2 -11 5.87 0.61
1 2 -11 5.64 0.66
0 -2 11 4.28 0.42
0 -2 11 4.34 0.4
0 -2 -11 3.04 0.55
0 -2 -11 4.09 0.49
0 -2 11 4.13 0.42
0 -2 -11 3.64 0.43
0 -2 -11 3.98 0.41
0 -2 -11 3.57 0.49
0 2 -11 3.1 0.45
0 2 -11 3.07 0.43
0 2 -11 2.8 0.41
1 -2 11 2.53 0.37
1 -2 11 2.94 0.33
-1 -2 -11 2.82 0.41
1 -2 11 3.41 0.38
-1 -2 -11 3.45 0.38
-1 -2 -11 2.27 0.43
-1 -2 -11 2.88 0.49
-1 2 -11 2.71 0.41
-1 2 -11 2.69 0.37
-1 2 -11 2.98 0.41
2 -2 11 2.17 0.34
2 -2 11 1.64 0.26
-2 -2 -11 1.93 0.37
-2 -2 -11 1.77 0.37
-2 -2 -11 1.76 0.33
2 -2 11 1.65 0.3
-2 -2 -11 2.12 0.35
-2 2 -11 1.91 0.31
-2 2 -11 2.15 0.35
-2 2 -11 2.06 0.35
3 -2 11 4.24 0.43
3 -2 11 3.73 0.41
-3 -2 -11 3.87 0.51
3 -2 11 3.3 0.36
-3 -2 -11 4.17 0.48
-3 -2 -11 4.46 0.47
-3 2 -11 4.29 0.48
-3 2 -11 4.59 0.49
-3 2 -11 4.09 0.41
4 -2 11 2.75 0.31
-4 -2 -11 2.94 0.36
-4 -2 -11 2.61 0.4
4 -2 11 2.53 0.32
-4 -2 -11 2.44 0.39
4 -2 11 2.39 0.27
-4 2 -11 2.86 0.32
-4 2 -11 3.24 0.39
-4 2 -11 3.37 0.37
5 -2 11 2.46 0.24
-5 -2 -11 2.71 0.36
5 -2 11 2.09 0.25
-5 -2 -11 2.44 0.33
-5 -2 -11 2.74 0.3
5 -2 11 2.43 0.27
-5 2 -11 1.93 0.32
-5 2 -11 1.73 0.27
5 2 11 1.74 0.24
-5 2 -11 2.12 0.26
-6 -2 -11 7.71 0.59
6 -2 11 7.58 0.57
-6 -2 -11 6.62 0.61
6 -2 11 6.33 0.53
-6 2 -11 7.63 0.63
6 2 11 7.71 0.54
-6 2 -11 7.36 0.57
6 2 11 6.7 0.49
10 -3 -11 4.52 0.49
-10 -3 11 5.53 0.48
10 3 -11 4.67 0.46
9 -3 -11 2.33 0.34
-9 -3 11 2.7 0.38
9 -3 -11 3.28 0.38
9 -3 -11 2.67 0.36
-9 -3 11 2.71 0.31
9 -3 -11 2.86 0.4
-9 -3 11 3.02 0.42
9 3 -11 3.44 0.31
9 3 -11 3.85 0.36
9 3 -11 3.88 0.37
8 -3 -11 19.67 1.54
8 -3 -11 15.69 1.5
8 -3 -11 14.54 1.36
8 -3 -11 18.35 1.55
-8 -3 11 19.32 1.3
8 -3 -11 17.1 1.42
-8 -3 11 14.48 1.41
-8 -3 11 19.58 1.44
8 3 -11 17.67 1.48
8 3 -11 17.12 1.46
7 -3 -11 1.34 0.35
7 -3 -11 1.53 0.28
7 -3 -11 1.49 0.32
7 -3 -11 1.54 0.3
-7 -3 11 1.56 0.28
7 -3 -11 1.35 0.26
7 -3 -11 1.27 0.29
-7 -3 11 1.36 0.31
7 3 -11 1.71 0.28
7 3 -11 1.52 0.27
6 -3 -11 12.94 1.46
6 -3 -11 16.08 1.35
-6 -3 11 17.47 1.3
-6 -3 11 15.46 1.13
6 -3 -11 14.59 1.3
6 -3 -11 14.97 1.2
6 -3 -11 16.86 1.49
-6 -3 11 13.36 1.33
6 -3 -11 16.65 1.5
6 -3 -11 18 1.44
6 3 -11 17.06 1.33
6 3 -11 16.53 1.39
6 3 -11 18.33 1.45
-5 -3 11 2.13 0.34
5 -3 -11 1.52 0.34
5 -3 -11 1.66 0.25
-5 -3 11 1.53 0.34
5 -3 -11 1.15 0.24
5 -3 -11 1.14 0.25
5 -3 -11 1.26 0.3
5 -3 -11 1.58 0.31
5 -3 -11 1.25 0.33
-5 -3 11 1.12 0.27
5 -3 -11 1.53 0.35
5 -3 -11 1.73 0.26
5 3 -11 0.84 0.26
5 3 -11 1.01 0.25
4 -3 -11 2.61 0.31
4 -3 -11 3 0.46
-4 -3 11 2.59 0.41
4 -3 -11 2.96 0.47
-4 -3 11 3.07 0.44
4 -3 -11 2.61 0.35
4 -3 -11 2.04 0.42
4 -3 -11 2.74 0.42
4 -3 -11 2.86 0.52
-4 -3 11 2.71 0.4
4 -3 -11 2.58 0.37
4 3 -11 2.55 0.42
4 3 -11 2.04 0.33
4 3 -11 1.96 0.34
-3 -3 11 7.87 0.69
3 -3 -11 7.28 0.7
3 -3 -11 8.35 0.87
-3 -3 11 8.06 0.72
3 -3 -11 7.02 0.8
3 -3 -11 7.26 0.82
3 -3 -11 7.92 0.68
3 -3 -11 7.56 0.78
3 -3 -11 6.95 0.84
-3 -3 11 7.61 0.69
3 3 -11 7.98 0.75
3 3 -11 8.09 0.76
3 3 -11 8.09 0.81
2 -3 -11 3.59 0.49
2 -3 -11 3.64 0.43
2 -3 -11 2.99 0.56
2 -3 -11 3.78 0.4
-2 -3 11 4.03 0.5
2 -3 -11 3.93 0.55
-2 -3 11 3.77 0.42
-2 -3 11 3.32 0.47
2 -3 -11 3.47 0.48
2 3 -11 3.97 0.47
2 3 -11 3.88 0.49
2 3 -11 4.1 0.46
-1 -3 11 3.49 0.51
1 -3 -11 3.6 0.42
1 -3 -11 3.51 0.44
1 -3 -11 3.65 0.51
-1 -3 11 3.98 0.44
-1 -3 11 4.07 0.45
1 -3 -11 4.06 0.56
1 -3 -11 3.11 0.59
1 3 -11 5.01 0.51
1 3 -11 5.48 0.53
1 3 -11 4.54 0.5
0 -3 -11 4.69 0.57
0 -3 -11 4.78 0.53
0 -3 -11 5.26 0.51
0 -3 -11 3.68 0.61
0 -3 -11 5.31 0.61
0 -3 11 5.36 0.5
0 -3 11 4.19 0.49
0 -3 11 5.38 0.54
0 3 -11 5.83 0.59
0 3 -11 5.28 0.52
-1 -3 -11 0.18 0.14
1 -3 11 0.3 0.15
-1 -3 -11 0.11 0.12
1 -3 11 0.11 0.13
1 -3 11 0.31 0.16
-1 -3 -11 0.06 0.14
-1 -3 -11 0.19 0.17
-1 3 -11 0.06 0.11
-1 3 -11 0.04 0.11
-1 3 -11 0.1 0.13
2 -3 11 7.89 0.62
2 -3 11 9.11 0.7
-2 -3 -11 7.91 0.74
-2 -3 -11 8.18 0.71
-2 -3 -11 6.82 0.78
2 -3 11 8.36 0.71
-2 3 -11 7.64 0.73
-2 3 -11 7.02 0.71
-2 3 -11 8.29 0.8
-3 -3 -11 16.61 1.36
3 -3 11 17.61 1.3
-3 -3 -11 16.05 1.42
-3 -3 -11 16.59 1.31
3 -3 11 17.8 1.26
-3 3 -11 18.27 1.51
-3 3 -11 15.16 1.37
4 -3 11 0.83 0.17
4 -3 11 1.04 0.18
-4 -3 -11 0.59 0.17
-4 -3 -11 0.67 0.2
-4 -3 -11 0.79 0.2
-4 3 -11 1.21 0.21
-4 3 -11 1.14 0.22
5 -3 11 3.27 0.31
-5 -3 -11 3.11 0.35
-5 -3 -11 3.63 0.34
5 -3 11 3.2 0.3
-5 3 -11 3.27 0.35
-5 3 -11 2.85 0.33
-8 -4 11 1.91 0.23
8 -4 -11 1.9 0.27
8 -4 -11 1.56 0.23
8 -4 -11 1.91 0.3
-8 -4 11 2.19 0.32
8 -4 -11 1.69 0.25
8 -4 -11 1.93 0.28
8 4 -11 1.78 0.24
8 4 -11 1.73 0.23
7 -4 -11 2.48 0.41
-7 -4 11 2.74 0.42
-7 -4 11 3.86 0.36
7 -4 -11 2.45 0.31
7 -4 -11 3.11 0.36
7 -4 -11 2.81 0.37
7 -4 -11 3.07 0.38
7 -4 -11 2.86 0.37
7 4 -11 2.39 0.32
7 4 -11 2.42 0.32
-6 -4 11 4.03 0.5
6 -4 -11 4.17 0.51
6 -4 -11 3.55 0.46
6 -4 -11 4.5 0.51
6 -4 -11 3.21 0.51
-6 -4 11 4.62 0.47
6 -4 -11 3.99 0.45
6 -4 -11 4.06 0.49
6 4 -11 4.37 0.44
6 4 -11 4.69 0.48
-5 -4 11 2.25 0.38
-5 -4 11 2.89 0.45
5 -4 -11 2.82 0.37
5 -4 -11 2.06 0.41
5 -4 -11 2.91 0.31
5 -4 -11 2.32 0.43
5 -4 -11 2.61 0.35
-5 -4 11 3.19 0.38
5 -4 -11 2.51 0.43
5 -4 -11 2.88 0.41
5 4 -11 2.88 0.37
5 4 -11 2.52 0.33
5 4 -11 2.39 0.33
4 -4 -11 7.49 0.8
-4 -4 11 7.62 0.69
4 -4 -11 7.31 0.76
4 -4 -11 7.98 0.63
4 -4 -11 6.88 0.71
-4 -4 11 8.36 0.65
-4 -4 11 6.45 0.67
4 -4 -11 6.01 0.75
4 -4 -11 6.68 0.64
4 -4 -11 8.71 0.83
4 4 -11 7.34 0.74
4 4 -11 7.49 0.68
4 4 -11 5.95 0.66
3 -4 -11 0.33 0.24
3 -4 -11 0.26 0.17
3 -4 -11 0.21 0.14
3 -4 -11 0.22 0.12
3 -4 -11 0.12 0.1
-3 -4 11 0.21 0.15
-3 -4 11 0.12 0.15
3 -4 -11 0.03 0.13
3 -4 -11 0.09 0.15
3 -4 -11 0.1 0.15
3 4 -11 0.05 0.12
3 4 -11 0.08 0.11
2 -4 -11 26.35 2.24
2 -4 -11 22.95 2.17
-2 -4 11 25.85 1.89
2 -4 -11 26.55 2.01
2 -4 -11 27.41 1.94
-2 -4 11 28.21 1.83
2 -4 -11 25.66 1.86
-2 -4 11 26.71 1.91
2 -4 -11 27.91 2.15
2 -4 -11 26.43 2.38
2 4 -11 25.6 2.25
2 4 -11 26.12 2.11
2 4 -11 26.2 2.25
1 -4 -11 3.64 0.5
1 -4 -11 3.24 0.57
1 -4 -11 3.26 0.43
1 -4 -11 4.26 0.43
-1 -4 11 3.52 0.48
1 -4 -11 4.11 0.39
1 -4 -11 3.75 0.51
-1 -4 11 4.29 0.45
-1 -4 11 4.42 0.42
1 4 -11 4.26 0.47
1 4 -11 4.3 0.48
1 4 -11 4.94 0.49
0 -4 -11 3.25 0.5
0 -4 -11 3.47 0.42
0 -4 -11 3.7 0.5
0 -4 11 3.84 0.4
0 -4 11 3.6 0.42
0 -4 -11 3.91 0.41
0 -4 -11 3.2 0.35
0 -4 11 2.64 0.34
0 4 -11 4.22 0.43
0 4 -11 5.01 0.46
-1 -4 -11 12.44 0.92
-1 -4 -11 10.23 1.04
1 -4 11 9.46 0.86
-1 -4 -11 10.69 0.83
-1 -4 -11 10.88 0.93
-1 -4 -11 8.91 0.99
1 -4 11 13.21 0.91
1 -4 11 11.72 0.83
-1 4 -11 12.44 1.04
-1 4 -11 10.11 0.91
-1 4 -11 11.72 0.96
-2 -4 -11 6.3 0.59
2 -4 11 5.84 0.48
-2 -4 -11 5.66 0.63
2 -4 11 5.71 0.53
2 -4 11 6.8 0.55
-2 -4 -11 5.92 0.5
-2 -4 -11 6.68 0.57
-2 4 -11 5.65 0.56
-2 4 -11 5.63 0.56
-2 4 -11 6.78 0.63
-3 -4 -11 4.02 0.45
-3 -4 -11 3.89 0.44
3 -4 11 3.7 0.39
-3 -4 -11 4.34 0.42
3 -4 11 4.64 0.4
-3 4 -11 4.97 0.46
-3 4 -11 4.33 0.42
4 -4 11 0.64 0.13
-4 -4 -11 0.75 0.15
-4 -4 -11 0.58 0.15
-4 4 -11 0.65 0.14
-6 -5 11 2.9 0.3
6 5 -11 2.6 0.3
5 -5 -11 1.38 0.26
5 -5 -11 1.23 0.23
-5 -5 11 0.94 0.2
-5 -5 11 0.78 0.19
5 5 -11 1.19 0.21
5 5 -11 0.84 0.16
4 -5 -11 8.94 0.83
-4 -5 11 8.18 0.61
4 -5 -11 7.25 0.76
4 -5 -11 7.83 0.64
-4 -5 11 8.15 0.68
4 -5 -11 8.23 0.74
4 5 -11 9.46 0.78
4 5 -11 7.44 0.69
3 -5 -11 2.25 0.26
-3 -5 11 2.05 0.29
3 -5 -11 1.52 0.31
3 -5 -11 2.49 0.39
3 -5 -11 2.46 0.35
3 -5 -11 2.17 0.27
-3 -5 11 2.29 0.3
3 5 -11 1.97 0.27
3 5 -11 2.03 0.29
-2 -5 11 8.11 0.63
2 -5 -11 7.06 0.58
2 -5 -11 6.11 0.76
2 -5 -11 7.99 0.73
-2 -5 11 7.41 0.62
2 -5 -11 7 0.64
2 -5 -11 8.43 0.63
2 5 -11 7.75 0.68
2 5 -11 7.88 0.72
-1 -5 11 8.79 0.62
1 -5 -11 7.81 0.6
1 -5 -11 8.18 0.64
1 -5 -11 8.2 0.75
1 -5 -11 7.49 0.77
-1 -5 11 6.99 0.6
1 -5 -11 7.48 0.66
-1 -5 11 7.7 0.6
1 5 -11 7.42 0.7
1 5 -11 8.04 0.69
1 5 -11 6.9 0.7
0 -5 -11 13.44 1.04
0 -5 -11 13.86 1
0 -5 -11 11.11 1.09
0 -5 11 15.72 0.93
0 -5 11 12.13 0.95
0 -5 -11 12.77 0.94
0 5 -11 13.12 1.07
0 5 -11 12.56 1.14
-1 -5 -11 1.49 0.24
1 -5 11 1.31 0.2
1 -5 11 1.56 0.2
-1 -5 -11 1.18 0.2
-1 5 -11 2.19 0.24
11 0 -12 7.68 0.72
11 0 -12 8.23 0.68
10 0 -12 16.27 1.37
10 0 -12 15.66 1.29
10 0 -12 15.66 1.36
9 0 -12 7.7 0.69
9 0 -12 7.85 0.74
9 0 -12 7.13 0.74
8 0 -12 38.91 3.09
8 0 -12 37.67 3.07
8 0 -12 35.86 2.91
8 0 -12 35.67 2.9
7 0 -12 35.77 2.86
7 0 -12 35.91 2.84
7 0 -12 29.57 2.66
7 0 -12 35.07 2.71
6 0 -12 0.34 0.18
6 0 -12 0.34 0.16
6 0 -12 0.39 0.19
6 0 -12 0.21 0.15
5 0 -12 77.95 5.88
5 0 -12 74.6 5.52
5 0 -12 73.66 5.96
5 0 -12 61.32 5.76
4 0 -12 28.11 2.74
4 0 -12 37.78 2.7
4 0 -12 33.81 2.86
4 0 -12 34.79 2.83
3 0 -12 15.7 1.28
3 0 -12 17.32 1.43
-3 0 12 13.78 1.4
-3 0 12 14.43 1.47
-3 0 12 13.6 1.48
3 0 -12 15.37 1.38
3 0 -12 18.27 1.38
2 0 -12 5.32 0.54
-2 0 12 4.83 0.6
2 0 -12 5.61 0.57
2 0 -12 5.82 0.61
2 0 -12 5.91 0.61
-2 0 12 5.02 0.62
-2 0 12 4.94 0.55
2 0 -12 4.1 0.49
1 0 -12 1.79 0.34
1 0 -12 1.26 0.29
1 0 -12 1.15 0.29
0 0 -12 8.63 0.76
0 0 -12 8.07 0.87
0 0 -12 10.19 0.96
0 0 -12 10.21 0.89
-1 0 -12 15.31 1.29
-1 0 -12 15.3 1.14
-1 0 -12 14.87 1.38
-1 0 -12 13.05 1.24
-2 0 -12 39.47 2.82
-2 0 -12 39.77 3.09
-2 0 -12 38.75 3.36
-3 0 -12 1.57 0.32
3 0 12 1.51 0.19
3 0 12 1.51 0.23
-3 0 -12 1.5 0.26
-3 0 -12 1.52 0.29
-4 0 -12 8.88 0.8
4 0 12 8.78 0.64
-4 0 -12 9 0.72
4 0 12 8.47 0.69
-4 0 -12 7.53 0.78
4 0 12 7.7 0.65
-5 0 -12 20.58 1.6
5 0 12 19.75 1.41
5 0 12 19.12 1.46
-5 0 -12 20.97 1.48
-6 0 -12 0.03 0.08
6 0 12 0 0.05
11 -1 -12 1.35 0.24
-11 -1 12 1.36 0.22
11 -1 -12 1.43 0.19
11 1 -12 1.37 0.21
10 -1 -12 3.59 0.38
-10 -1 12 3.28 0.34
10 -1 -12 3.23 0.42
10 -1 -12 2.84 0.39
10 1 -12 4.52 0.42
10 1 -12 4.52 0.43
10 1 -12 4.32 0.38
9 -1 -12 9.81 0.89
9 -1 -12 10.23 0.84
9 -1 -12 9.52 0.9
9 1 -12 9.09 0.87
9 1 -12 9.82 0.88
9 1 -12 8.65 0.8
8 -1 -12 0.34 0.17
8 -1 -12 0.18 0.14
8 -1 -12 0.29 0.18
8 -1 -12 0.33 0.15
8 1 -12 0.36 0.15
8 1 -12 0.41 0.15
8 1 -12 0.46 0.2
8 1 -12 0.13 0.1
7 -1 -12 23.08 2.22
7 -1 -12 29.08 2.41
7 -1 -12 26.97 2.39
7 -1 -12 26.84 2.26
7 1 -12 32.1 2.39
7 1 -12 28.28 2.23
7 1 -12 30 2.35
6 -1 -12 4.38 0.51
6 -1 -12 6.24 0.64
6 -1 -12 5.17 0.59
6 -1 -12 6.13 0.63
6 -1 -12 5.42 0.62
6 1 -12 5.15 0.56
6 1 -12 5.03 0.56
6 1 -12 4.9 0.56
5 -1 -12 9.83 0.86
5 -1 -12 9.13 0.87
5 -1 -12 8.84 0.85
5 -1 -12 8.54 0.84
5 1 -12 7.94 0.81
5 1 -12 7.2 0.77
5 1 -12 7.03 0.78
5 1 -12 7.68 0.77
4 -1 -12 21.52 1.81
4 -1 -12 23.36 2.01
4 -1 -12 22 1.94
4 -1 -12 21.36 1.99
4 -1 -12 26.4 1.94
4 1 -12 23.87 1.87
4 1 -12 19 1.88
4 1 -12 23.48 1.98
4 1 -12 24.01 1.97
3 -1 -12 7.74 0.8
3 -1 -12 7.07 0.79
3 -1 -12 8.24 0.75
3 -1 -12 8.03 0.83
3 1 -12 8.69 0.78
3 1 -12 7.69 0.79
3 1 -12 6.7 0.76
2 -1 -12 29.33 2.51
2 -1 -12 31.01 2.62
2 -1 -12 35.28 2.73
2 -1 -12 32.3 2.44
2 -1 -12 28.39 2.22
2 1 -12 28.52 2.58
2 1 -12 32.36 2.49
2 1 -12 32.74 2.67
2 1 -12 28.69 2.4
1 -1 -12 10.91 1
1 -1 -12 9.62 1.03
1 -1 -12 10.36 0.88
1 -1 -12 10.65 1.1
1 1 -12 12.31 1.1
1 1 -12 11.42 1.02
1 1 -12 12.76 1
0 -1 -12 11.03 1.11
0 -1 -12 12.01 1.21
0 -1 -12 13.42 1.12
0 -1 -12 13.48 1
0 1 -12 12.52 1.19
0 1 -12 12.14 1.08
0 1 -12 11.82 1.09
-1 -1 -12 2.22 0.4
-1 -1 -12 2.56 0.35
1 -1 12 1.95 0.27
-1 -1 -12 2.65 0.42
-1 1 -12 1.41 0.31
-1 1 -12 1.64 0.34
-1 1 -12 1.36 0.29
2 -1 12 6.83 0.57
-2 -1 -12 7.58 0.67
2 -1 12 6.85 0.62
2 -1 12 7.42 0.65
-2 -1 -12 7.06 0.77
-2 -1 -12 7.23 0.75
-2 1 -12 7.66 0.74
-2 1 -12 7.12 0.63
-2 1 -12 7.74 0.77
-3 -1 -12 7.57 0.63
3 -1 12 6.56 0.58
3 -1 12 6.71 0.57
3 -1 12 6.62 0.53
-3 -1 -12 6.3 0.67
-3 -1 -12 6.88 0.68
-3 1 -12 6.21 0.68
-3 1 -12 5.77 0.65
-3 1 -12 6.22 0.58
-4 -1 -12 8.47 0.77
4 -1 12 8.32 0.68
4 -1 12 7.76 0.62
-4 -1 -12 8.47 0.71
4 -1 12 8.02 0.64
-4 1 -12 8.43 0.69
-4 1 -12 7.69 0.77
-4 1 -12 8.94 0.78
5 -1 12 3.02 0.28
-5 -1 -12 3.23 0.37
-5 -1 -12 3.6 0.35
5 -1 12 3.22 0.32
-5 1 -12 3.08 0.32
-5 1 -12 3.47 0.37
5 1 12 3.23 0.28
5 1 12 2.59 0.29
-6 -1 -12 2.38 0.25
6 1 12 2.35 0.21
10 -2 -12 14.1 1.17
10 -2 -12 14.04 1.18
10 -2 -12 14.14 1.12
-10 -2 12 14.39 1.08
-10 -2 12 11.61 1.11
10 2 -12 12.68 1.08
10 2 -12 14.09 1.15
-9 -2 12 7.7 0.81
9 -2 -12 9.81 0.83
9 -2 -12 9.65 0.91
9 -2 -12 7.78 0.81
-9 -2 12 10.35 0.85
-9 -2 12 9.66 0.74
9 -2 -12 9.95 0.88
9 2 -12 8.93 0.78
9 2 -12 10.27 0.86
9 2 -12 10.43 0.86
8 -2 -12 10.49 1.04
8 -2 -12 9.84 0.95
8 -2 -12 10.82 1.01
8 -2 -12 10.18 0.94
-8 -2 12 12.73 0.9
-8 -2 12 10.51 0.96
8 2 -12 11.12 0.98
8 2 -12 10.53 0.97
7 -2 -12 38.02 2.95
7 -2 -12 31.79 2.74
7 -2 -12 34.66 2.93
7 -2 -12 34.17 2.95
7 -2 -12 33.01 2.75
-7 -2 12 33.38 2.22
7 2 -12 33.67 2.71
7 2 -12 36.77 2.89
7 2 -12 35.97 2.85
6 -2 -12 9.24 1.01
6 -2 -12 11.45 0.99
6 -2 -12 10.22 1.01
6 -2 -12 9.51 0.99
6 -2 -12 8.9 0.9
6 2 -12 10.21 0.91
6 2 -12 10.52 0.94
6 2 -12 11.4 0.98
5 -2 -12 13.62 1.15
5 -2 -12 11.85 1.15
5 -2 -12 11.02 1.14
5 -2 -12 12.16 1.15
5 -2 -12 12.18 1.05
5 2 -12 12.41 1.11
5 2 -12 11.52 1.04
5 2 -12 10.22 1.05
-4 -2 12 4.69 0.53
4 -2 -12 4.86 0.6
4 -2 -12 4.98 0.54
4 -2 -12 5.32 0.59
4 -2 -12 5.09 0.59
4 -2 -12 6.21 0.65
4 -2 -12 5.25 0.47
-4 -2 12 5.37 0.48
4 2 -12 3.98 0.51
4 2 -12 4.52 0.52
4 2 -12 4.63 0.54
4 2 -12 3.47 0.48
3 -2 -12 0.24 0.12
-3 -2 12 0.4 0.16
3 -2 -12 0.33 0.17
3 -2 -12 0.25 0.17
3 -2 -12 0.38 0.18
3 -2 -12 0.43 0.23
3 2 -12 0.66 0.21
3 2 -12 0.29 0.15
3 2 -12 0.43 0.16
2 -2 -12 15.7 1.47
2 -2 -12 15.28 1.32
2 -2 -12 13.95 1.38
-2 -2 12 15.47 1.2
2 -2 -12 13.23 1.38
2 -2 -12 14.79 1.18
-2 -2 12 15.5 1.19
2 2 -12 17.81 1.36
2 2 -12 17.36 1.42
2 2 -12 14.91 1.37
-1 -2 12 21.49 1.4
-1 -2 12 18.35 1.44
1 -2 -12 19.69 1.83
1 -2 -12 21.2 1.68
-1 -2 12 20.47 1.49
1 -2 -12 18.5 1.7
-1 -2 12 17.13 1.48
1 -2 -12 20.62 1.5
1 2 -12 17.95 1.69
1 2 -12 23.13 1.8
1 2 -12 20.75 1.66
1 2 -12 19.48 1.6
0 -2 12 4.4 0.48
0 -2 -12 3.87 0.58
0 -2 -12 4.58 0.54
0 -2 -12 4.72 0.57
0 -2 12 5.17 0.47
0 -2 -12 4.77 0.48
0 -2 12 5.49 0.52
0 -2 -12 5.04 0.59
0 2 -12 5 0.55
0 2 -12 5.31 0.54
0 2 -12 5.4 0.58
-1 -2 -12 3.63 0.45
-1 -2 -12 3.83 0.43
1 -2 12 3.97 0.44
1 -2 12 3.53 0.42
1 -2 12 3.52 0.39
-1 -2 -12 3.71 0.51
-1 -2 -12 3.05 0.54
-1 2 -12 4.88 0.49
-1 2 -12 5.41 0.54
-1 2 -12 5.52 0.52
-2 -2 -12 30.5 2.64
2 -2 12 30.52 2.13
2 -2 12 35.74 2.36
2 -2 12 36.19 2.43
-2 -2 -12 32.23 2.85
-2 -2 -12 29.83 2.48
-2 -2 -12 35.74 2.44
-2 2 -12 33.52 2.85
-2 2 -12 35.34 2.62
3 -2 12 19.07 1.41
-3 -2 -12 16.72 1.45
3 -2 12 18.79 1.36
-3 -2 -12 18.04 1.55
-3 -2 -12 19.11 1.43
-3 2 -12 19.62 1.65
-3 2 -12 19.05 1.54
4 -2 12 2.45 0.26
-4 -2 -12 2.48 0.34
4 -2 12 2.58 0.28
-4 -2 -12 2.33 0.28
-4 -2 -12 2.44 0.3
4 -2 12 1.96 0.22
-4 2 -12 1.54 0.27
-4 2 -12 1.41 0.27
-4 2 -12 1.45 0.24
-5 -2 -12 12.13 0.93
5 -2 12 11.34 0.91
-5 2 -12 12.43 1
5 2 12 12.92 0.87
9 -3 -12 1.12 0.23
-9 -3 12 1.15 0.24
9 -3 -12 0.92 0.18
9 -3 -12 0.93 0.18
-9 -3 12 0.71 0.14
9 3 -12 0.8 0.16
9 3 -12 0.87 0.17
8 -3 -12 7.7 0.78
8 -3 -12 9.13 0.87
-8 -3 12 8.27 0.8
8 -3 -12 9.11 0.85
-8 -3 12 9.94 0.73
8 3 -12 9.17 0.81
8 3 -12 8.78 0.8
7 -3 -12 12.8 1.15
7 -3 -12 13.9 1.22
-7 -3 12 14.9 1.05
7 -3 -12 12.24 1.22
7 -3 -12 12.59 1.19
7 -3 -12 11.61 1.11
-7 -3 12 11.46 1.1
7 3 -12 13.14 1.15
7 3 -12 14.95 1.18
-6 -3 12 2.85 0.47
6 -3 -12 3.15 0.42
6 -3 -12 2.83 0.5
6 -3 -12 3.31 0.46
6 -3 -12 3.95 0.5
6 -3 -12 3.04 0.42
6 -3 -12 3.4 0.47
-6 -3 12 3.37 0.4
-6 -3 12 4.32 0.44
6 3 -12 4.37 0.45
6 3 -12 3.98 0.41
6 3 -12 3.91 0.42
5 -3 -12 6 0.62
-5 -3 12 4.98 0.62
-5 -3 12 6.49 0.61
5 -3 -12 5.94 0.54
5 -3 -12 6.4 0.69
5 -3 -12 6.42 0.7
5 -3 -12 5.44 0.59
5 -3 -12 5.29 0.68
5 -3 -12 7.68 0.73
-5 -3 12 6.34 0.56
5 3 -12 5.71 0.6
5 3 -12 6.66 0.61
5 3 -12 6.65 0.65
4 -3 -12 2.38 0.45
-4 -3 12 2.6 0.4
-4 -3 12 3.29 0.45
4 -3 -12 2.48 0.46
4 -3 -12 2.52 0.31
4 -3 -12 2.88 0.43
4 -3 -12 2.35 0.42
4 -3 -12 2.59 0.44
4 3 -12 3.51 0.39
4 3 -12 2.06 0.32
4 3 -12 3.38 0.4
3 -3 -12 3.04 0.34
3 -3 -12 3.1 0.46
-3 -3 12 3.25 0.37
3 -3 -12 3.05 0.48
3 -3 -12 2.92 0.36
3 -3 -12 2.48 0.46
-3 -3 12 2.92 0.42
3 -3 -12 2.38 0.48
-3 -3 12 2.66 0.4
3 3 -12 3.32 0.4
3 3 -12 2.99 0.38
3 3 -12 2.91 0.4
2 -3 -12 24.48 1.99
-2 -3 12 26.85 1.93
2 -3 -12 22.27 2.18
2 -3 -12 26.72 2.26
2 -3 -12 27.25 2.15
2 -3 -12 27.56 1.94
2 -3 -12 28.43 2.4
-2 -3 12 27.78 1.83
-2 -3 12 28.93 1.94
2 3 -12 24.09 2.24
2 3 -12 27.12 2.29
2 3 -12 26.59 2.14
1 -3 -12 2.87 0.49
1 -3 -12 3.21 0.4
-1 -3 12 3.29 0.45
1 -3 -12 3.41 0.51
1 -3 -12 3.48 0.39
-1 -3 12 3.65 0.45
-1 -3 12 3.27 0.37
1 -3 -12 2.98 0.53
1 3 -12 4.79 0.48
1 3 -12 4.28 0.43
0 -3 12 3.14 0.4
0 -3 -12 2.44 0.36
0 -3 -12 2.34 0.43
0 -3 12 2.31 0.33
0 -3 -12 2.64 0.33
0 -3 -12 2.48 0.42
0 -3 12 2.97 0.38
0 3 -12 3.43 0.4
0 3 -12 2.69 0.35
0 3 -12 2.91 0.38
1 -3 12 19.83 1.38
1 -3 12 22.39 1.52
-1 -3 -12 18.92 1.82
-1 -3 -12 19.33 1.59
-1 -3 -12 19.3 1.7
1 -3 12 18.37 1.52
-1 -3 -12 20.7 1.55
-1 3 -12 21.15 1.66
-1 3 -12 24.23 1.83
-1 3 -12 20.44 1.64
2 -3 12 6.46 0.55
2 -3 12 6.72 0.61
-2 -3 -12 7.26 0.72
2 -3 12 7.56 0.62
-2 -3 -12 7.05 0.67
-2 -3 -12 7.8 0.65
-2 3 -12 8.38 0.74
-2 3 -12 7.31 0.67
-2 3 -12 6.36 0.64
-3 -3 -12 10.16 0.81
-3 -3 -12 9.21 0.87
3 -3 12 10.1 0.77
-3 -3 -12 9.79 0.84
3 -3 12 9.83 0.78
-3 3 -12 9.48 0.85
-3 3 -12 10.83 0.93
4 -3 12 19.93 1.44
-4 -3 -12 22.47 1.52
-4 -3 -12 18.94 1.56
4 -3 12 22.01 1.51
-4 3 -12 20.04 1.75
-4 3 -12 21.5 1.62
8 -4 -12 0.5 0.16
8 -4 -12 0.66 0.16
-7 -4 12 3.17 0.37
-7 -4 12 3.42 0.32
7 -4 -12 3.02 0.35
7 -4 -12 2.69 0.33
7 -4 -12 3.26 0.37
7 -4 -12 2.76 0.38
7 -4 -12 2.44 0.32
7 4 -12 2.27 0.3
7 4 -12 2.69 0.31
-6 -4 12 2.94 0.4
-6 -4 12 4.35 0.41
6 -4 -12 4.05 0.44
6 -4 -12 3.09 0.38
6 -4 -12 3.75 0.43
6 -4 -12 2.91 0.44
6 -4 -12 3.79 0.44
6 4 -12 2.91 0.36
6 4 -12 3.61 0.39
-5 -4 12 0.32 0.17
5 -4 -12 0.31 0.15
5 -4 -12 0.41 0.18
5 -4 -12 0.41 0.13
5 -4 -12 0.34 0.19
5 -4 -12 0.34 0.15
5 -4 -12 0.28 0.15
-5 -4 12 0.34 0.17
-5 -4 12 0.54 0.16
5 4 -12 0.39 0.14
5 4 -12 0.25 0.12
5 4 -12 0.58 0.16
4 -4 -12 2.43 0.32
-4 -4 12 3.32 0.36
4 -4 -12 2.5 0.38
-4 -4 12 2.59 0.37
4 -4 -12 2.22 0.41
4 -4 -12 2.6 0.3
4 -4 -12 2.64 0.43
4 -4 -12 3.22 0.4
4 -4 -12 2.61 0.4
4 4 -12 3.07 0.36
4 4 -12 3.35 0.38
3 -4 -12 0.47 0.2
-3 -4 12 0.62 0.2
3 -4 -12 0.53 0.15
3 -4 -12 0.62 0.2
-3 -4 12 0.74 0.2
3 -4 -12 0.62 0.24
3 -4 -12 0.72 0.21
3 4 -12 0.82 0.2
3 4 -12 0.91 0.21
-2 -4 12 6.8 0.59
2 -4 -12 5.91 0.68
2 -4 -12 6.69 0.57
2 -4 -12 7.16 0.76
2 -4 -12 6.93 0.68
-2 -4 12 6.97 0.58
-2 -4 12 6.38 0.58
2 -4 -12 5.98 0.59
2 4 -12 6.7 0.64
2 4 -12 6.31 0.65
2 4 -12 6.83 0.65
1 -4 -12 0.11 0.15
-1 -4 12 0.25 0.15
-1 -4 12 0.22 0.15
1 -4 -12 0.12 0.17
1 -4 -12 0.12 0.17
1 -4 -12 0.34 0.14
1 -4 -12 0.25 0.14
-1 -4 12 0.21 0.11
1 4 -12 0.32 0.13
1 4 -12 0.32 0.14
1 4 -12 0.4 0.14
0 -4 -12 4.35 0.52
0 -4 -12 4.59 0.44
0 -4 12 4.62 0.42
0 -4 -12 4.38 0.53
0 -4 -12 4.04 0.44
0 -4 12 5.04 0.45
0 4 -12 4.29 0.47
0 4 -12 3.41 0.44
1 -4 12 11.64 0.84
-1 -4 -12 9.85 0.87
-1 -4 -12 9.04 0.93
-1 -4 -12 11.82 0.86
1 -4 12 10.97 0.77
-1 4 -12 10.56 0.9
-1 4 -12 11.02 0.98
2 -4 12 4.58 0.38
-2 -4 -12 3.33 0.39
-2 -4 -12 4.11 0.44
-2 -4 -12 4.06 0.39
-2 4 -12 4.25 0.43
-4 -5 12 7.23 0.6
4 -5 -12 8.12 0.74
4 -5 -12 6.64 0.66
4 5 -12 8.26 0.69
-3 -5 12 4.25 0.39
3 -5 -12 5.01 0.52
-3 -5 12 5.1 0.41
3 -5 -12 5.11 0.48
3 -5 -12 4.91 0.4
3 5 -12 4.02 0.43
3 5 -12 4.15 0.44
-2 -5 12 7.83 0.61
2 -5 -12 7.93 0.73
2 -5 -12 8.6 0.64
2 5 -12 8.22 0.7
1 -5 -12 10.43 0.74
-1 -5 12 9.83 0.69
1 -5 -12 8.64 0.83
1 5 -12 9.31 0.8
10 0 -13 6.48 0.6
10 0 -13 7.05 0.64
10 0 -13 7.5 0.66
9 0 -13 18.8 1.54
9 0 -13 18.39 1.54
9 0 -13 16.61 1.43
8 0 -13 1.47 0.29
8 0 -13 2.25 0.35
8 0 -13 2.12 0.33
7 0 -13 2.64 0.35
7 0 -13 1.95 0.35
7 0 -13 2.44 0.39
6 0 -13 1.56 0.31
6 0 -13 1.55 0.29
6 0 -13 1.57 0.29
6 0 -13 1.34 0.29
5 0 -13 0.13 0.12
5 0 -13 0.18 0.15
5 0 -13 0.1 0.13
5 0 -13 0.16 0.14
4 0 -13 0.88 0.23
4 0 -13 0.68 0.24
4 0 -13 0.64 0.21
3 0 -13 21.05 1.64
3 0 -13 17.16 1.73
3 0 -13 22.57 1.74
3 0 -13 20.41 1.8
2 0 -13 2.09 0.37
2 0 -13 1.27 0.27
2 0 -13 1.36 0.31
2 0 -13 1.54 0.28
1 0 -13 0.5 0.19
1 0 -13 0.2 0.15
1 0 -13 0.2 0.18
0 0 -13 16.12 1.29
0 0 -13 13.35 1.26
0 0 -13 14.73 1.39
-1 0 -13 6.13 0.56
-1 0 -13 6.19 0.69
-1 0 -13 6.19 0.67
-2 0 -13 3.7 0.39
-2 0 -13 4.12 0.48
2 0 13 3.29 0.31
-2 0 -13 3.48 0.44
-3 0 -13 5.93 0.64
3 0 13 6.2 0.55
-3 0 -13 6.84 0.57
-3 0 -13 6.93 0.65
3 0 13 5.92 0.52
3 0 13 6.54 0.5
4 0 13 3.19 0.3
4 0 13 3.9 0.35
-4 0 -13 4.05 0.41
-4 0 -13 3.31 0.36
5 0 13 0.61 0.13
-5 0 -13 0.4 0.14
10 -1 -13 0.59 0.14
10 -1 -13 0.62 0.14
10 -1 -13 0.51 0.16
-10 -1 13 0.54 0.16
10 1 -13 0.52 0.15
9 -1 -13 0.09 0.1
9 -1 -13 0.12 0.11
9 -1 -13 0.09 0.13
9 1 -13 0.25 0.13
9 1 -13 0.07 0.1
8 -1 -13 0.84 0.2
8 -1 -13 0.5 0.2
8 -1 -13 0.64 0.17
8 -1 -13 0.68 0.21
8 1 -13 0.75 0.2
8 1 -13 0.77 0.21
8 1 -13 0.64 0.17
7 -1 -13 0.65 0.23
7 -1 -13 0.96 0.26
7 -1 -13 0.84 0.23
7 1 -13 1.4 0.27
7 1 -13 1.36 0.26
7 1 -13 1.09 0.24
6 -1 -13 4.66 0.56
6 -1 -13 5.49 0.6
6 -1 -13 5.09 0.57
6 -1 -13 4.51 0.56
6 1 -13 5.47 0.56
6 1 -13 4.21 0.52
6 1 -13 5.01 0.54
5 -1 -13 1.2 0.28
5 -1 -13 1.56 0.32
5 -1 -13 1.55 0.35
5 -1 -13 1.42 0.29
5 1 -13 1.36 0.27
5 1 -13 1.46 0.3
5 1 -13 1.26 0.29
5 1 -13 1.06 0.24
4 -1 -13 3.64 0.43
4 -1 -13 4.15 0.53
4 -1 -13 3.96 0.48
4 -1 -13 3.74 0.48
4 1 -13 3.3 0.44
4 1 -13 3.36 0.44
4 1 -13 3.2 0.44
3 -1 -13 10.73 0.98
3 -1 -13 10.5 1.06
3 -1 -13 10.47 1.05
3 -1 -13 11.8 1.1
3 1 -13 11.35 1.01
3 1 -13 12.45 1.08
3 1 -13 10.12 1.02
2 -1 -13 4.75 0.58
2 -1 -13 6.73 0.69
2 -1 -13 6.24 0.61
2 -1 -13 5.25 0.65
2 1 -13 4.54 0.56
2 1 -13 5.73 0.61
2 1 -13 6.37 0.64
2 1 -13 5.15 0.55
1 -1 -13 3.02 0.51
1 -1 -13 3.22 0.47
1 -1 -13 2.77 0.48
1 -1 -13 2.68 0.34
1 1 -13 3.8 0.46
1 1 -13 2.8 0.43
1 1 -13 3.31 0.41
0 -1 -13 1.83 0.34
0 -1 -13 2.1 0.29
0 -1 -13 2.17 0.38
0 -1 -13 1.88 0.38
0 1 -13 1.87 0.33
0 1 -13 1.84 0.35
0 1 -13 1.62 0.32
-1 -1 -13 1.96 0.38
-1 -1 -13 1.73 0.33
1 -1 13 1.93 0.26
-1 -1 -13 1.83 0.29
1 -1 13 1.88 0.3
1 -1 13 1.72 0.27
-1 1 -13 1.97 0.35
-1 1 -13 1.76 0.3
-1 1 -13 1.77 0.34
-2 -1 -13 20.42 1.48
-2 -1 -13 18.82 1.61
2 -1 13 20.21 1.43
-2 -1 -13 19.1 1.73
2 -1 13 18.76 1.46
-2 1 -13 20.12 1.74
-2 1 -13 19.27 1.61
3 -1 13 7.36 0.59
-3 -1 -13 7.78 0.62
-3 -1 -13 6.08 0.67
-3 -1 -13 7.11 0.68
3 -1 13 6.48 0.53
3 -1 13 7.57 0.58
-3 1 -13 7.15 0.68
3 1 13 6.1 0.54
-3 1 -13 7.67 0.7
-3 1 -13 7.43 0.59
-4 -1 -13 0.42 0.13
4 -1 13 0.35 0.09
4 -1 13 0.39 0.13
4 -1 13 0.34 0.12
-4 -1 -13 0.32 0.14
4 1 13 0.29 0.11
-4 1 -13 0.41 0.12
-4 1 -13 0.28 0.12
-4 1 -13 0.48 0.15
4 1 13 0.44 0.09
9 -2 -13 12.13 1.1
-9 -2 13 13.12 0.93
-9 -2 13 12.48 1.01
9 -2 -13 12.23 1.11
9 2 -13 12.71 1.08
9 2 -13 12.42 1.08
8 -2 -13 0.55 0.19
-8 -2 13 0.65 0.17
-8 -2 13 0.38 0.18
8 -2 -13 0.51 0.19
8 -2 -13 0.69 0.18
8 -2 -13 0.17 0.13
8 2 -13 0.44 0.15
8 2 -13 0.53 0.15
-7 -2 13 3.6 0.36
7 -2 -13 3.96 0.48
7 -2 -13 3.53 0.51
7 -2 -13 3.78 0.47
-7 -2 13 4.66 0.45
7 -2 -13 3.63 0.46
-7 -2 13 3.55 0.47
7 2 -13 4.86 0.47
7 2 -13 4.11 0.44
7 2 -13 4.25 0.45
-6 -2 13 9.2 0.89
6 -2 -13 10.68 1.01
6 -2 -13 9.79 0.99
6 -2 -13 9.26 0.99
-6 -2 13 11.52 0.79
6 -2 -13 10.69 0.97
6 2 -13 11.5 0.97
6 2 -13 10.16 0.92
6 2 -13 9.33 0.92
-5 -2 13 5.31 0.59
5 -2 -13 6.56 0.68
5 -2 -13 5.63 0.66
5 -2 -13 6.3 0.69
5 -2 -13 5.63 0.61
5 -2 -13 5.82 0.68
5 2 -13 7.37 0.67
5 2 -13 5.39 0.6
5 2 -13 7.13 0.63
4 -2 -13 26.17 2.04
-4 -2 13 26.25 1.81
-4 -2 13 26.49 1.88
4 -2 -13 25.63 2.13
4 -2 -13 27.96 2.27
4 -2 -13 23.48 2.19
4 2 -13 24.58 2.16
4 2 -13 23.4 2.17
4 2 -13 24.35 2.05
3 -2 -13 6.85 0.72
-3 -2 13 7.12 0.61
-3 -2 13 6.33 0.58
3 -2 -13 6.18 0.72
3 -2 -13 5.71 0.63
3 -2 -13 5.89 0.67
-3 -2 13 6.48 0.58
3 -2 -13 6.03 0.55
3 2 -13 5.67 0.64
3 2 -13 5.95 0.64
3 2 -13 6.54 0.66
2 -2 -13 22.78 2.02
-2 -2 13 19.68 1.59
-2 -2 13 22.67 1.53
2 -2 -13 19.36 1.86
2 -2 -13 21.02 1.62
-2 -2 13 21.77 1.63
2 -2 -13 22.47 1.81
2 2 -13 25.86 1.98
2 2 -13 20.88 1.88
2 2 -13 25.38 1.85
1 -2 -13 13.04 1.15
-1 -2 13 13.46 0.94
1 -2 -13 12.67 1.24
-1 -2 13 14.27 1.02
-1 -2 13 11.17 0.96
1 -2 -13 12.84 1.12
1 -2 -13 13.83 1
1 2 -13 11.46 1.09
1 2 -13 11.83 1.17
1 2 -13 11.27 1.05
0 -2 -13 8.8 0.71
0 -2 13 6.99 0.67
0 -2 -13 7.45 0.85
0 -2 13 8.25 0.71
0 -2 13 8.56 0.65
0 -2 -13 8.18 0.81
0 2 -13 8.25 0.76
0 2 -13 8.09 0.75
0 2 -13 8.16 0.82
-1 -2 -13 1.66 0.33
1 -2 13 1.82 0.26
1 -2 13 1.53 0.23
-1 -2 -13 1.85 0.27
-1 -2 -13 1.76 0.34
1 -2 13 1.83 0.28
-1 2 -13 1.03 0.25
-1 2 -13 1.11 0.25
-1 2 -13 0.84 0.23
-2 -2 -13 1.25 0.29
2 -2 13 1.31 0.22
2 -2 13 1.1 0.2
-2 -2 -13 1 0.24
-2 -2 -13 1.01 0.21
-2 2 -13 1.08 0.24
-2 2 -13 1.01 0.23
-3 -2 -13 6.66 0.64
-3 -2 -13 6.35 0.57
3 -2 13 6.86 0.54
3 -2 13 6.45 0.56
-3 2 -13 7.05 0.66
-3 2 -13 6.56 0.62
-4 -2 -13 4.32 0.37
-4 2 -13 3.64 0.39
4 2 13 3.8 0.31
8 -3 -13 0.77 0.18
-8 -3 13 1.15 0.2
-8 -3 13 0.9 0.21
8 -3 -13 1.28 0.22
8 -3 -13 1.03 0.23
8 -3 -13 0.87 0.19
8 3 -13 0.8 0.16
8 3 -13 0.94 0.18
7 -3 -13 5.63 0.65
7 -3 -13 5.99 0.61
-7 -3 13 5.55 0.59
7 -3 -13 5.95 0.61
7 -3 -13 5.31 0.56
7 -3 -13 6.9 0.65
-7 -3 13 6.83 0.56
7 3 -13 6.03 0.58
7 3 -13 6.83 0.6
6 -3 -13 3.74 0.45
-6 -3 13 4 0.36
6 -3 -13 3.81 0.44
6 -3 -13 3.3 0.39
-6 -3 13 2.44 0.4
6 -3 -13 2.88 0.45
6 -3 -13 3.67 0.45
-6 -3 13 3.54 0.39
6 3 -13 2.87 0.36
6 3 -13 3.09 0.37
6 3 -13 3.52 0.4
-5 -3 13 2.3 0.34
5 -3 -13 2.25 0.38
5 -3 -13 2.73 0.44
5 -3 -13 2.12 0.39
5 -3 -13 2.9 0.39
5 -3 -13 2.09 0.34
-5 -3 13 3.29 0.38
5 3 -13 2.76 0.35
5 3 -13 2.54 0.33
-4 -3 13 0.47 0.18
4 -3 -13 0.44 0.17
4 -3 -13 0.39 0.21
4 -3 -13 0.37 0.19
4 -3 -13 0.42 0.19
4 -3 -13 0.36 0.13
-4 -3 13 0.43 0.18
4 3 -13 0.6 0.18
4 3 -13 0.53 0.17
3 -3 -13 24.08 1.9
3 -3 -13 20.94 1.96
3 -3 -13 25.2 2.13
3 -3 -13 22.87 1.71
3 -3 -13 22.89 2.03
-3 -3 13 24.6 1.73
-3 -3 13 23.95 1.63
-3 -3 13 23.03 1.69
3 3 -13 25.16 1.92
3 3 -13 22.65 2
3 3 -13 24.44 2.04
-2 -3 13 1.97 0.29
-2 -3 13 1.68 0.3
-2 -3 13 1.7 0.29
2 -3 -13 2.15 0.37
2 -3 -13 2.27 0.3
2 -3 -13 1.73 0.37
2 -3 -13 1.79 0.37
2 3 -13 2.52 0.32
2 3 -13 2.06 0.35
2 3 -13 2.22 0.3
-1 -3 13 4.3 0.44
1 -3 -13 3.64 0.48
-1 -3 13 4.05 0.42
1 -3 -13 3.73 0.49
1 -3 -13 3.96 0.41
1 -3 -13 3.51 0.51
1 3 -13 4.39 0.48
1 3 -13 4.65 0.48
0 -3 13 33.17 2.17
0 -3 -13 32.31 2.21
0 -3 13 29.46 1.98
0 -3 -13 28.86 2.41
0 -3 -13 29.66 2.64
0 3 -13 28.77 2.39
0 3 -13 31.14 2.6
-1 -3 -13 0.53 0.16
-1 -3 -13 0.52 0.16
1 -3 13 0.54 0.16
-1 -3 -13 0.48 0.19
1 -3 13 0.46 0.13
-1 -3 -13 0.45 0.19
1 -3 13 0.75 0.16
-1 3 -13 0.82 0.18
-1 3 -13 0.74 0.19
-1 3 -13 0.91 0.19
2 -3 13 13.43 0.91
2 -3 13 11.59 0.91
-2 -3 -13 12.33 0.94
-2 -3 -13 12.09 1.03
-2 -3 -13 9.91 0.93
-2 3 -13 11.54 0.98
-2 3 -13 13.84 1.1
3 -3 13 8.98 0.62
-3 -3 -13 8.15 0.65
-3 3 -13 7.32 0.73
-6 -4 13 10.6 0.75
6 -4 -13 9.21 0.86
6 -4 -13 8.62 0.82
6 -4 -13 9.49 0.86
6 4 -13 9.05 0.82
-5 -4 13 1.02 0.18
5 -4 -13 0.93 0.21
5 -4 -13 0.83 0.22
5 -4 -13 0.92 0.19
5 -4 -13 1.25 0.24
-5 -4 13 1.03 0.2
5 4 -13 0.79 0.18
5 4 -13 0.65 0.15
-4 -4 13 16.32 1.17
4 -4 -13 17.58 1.43
4 -4 -13 14.39 1.27
4 -4 -13 14.41 1.36
4 -4 -13 13.72 1.31
4 -4 -13 15.07 1.14
-4 -4 13 15.98 1.09
4 4 -13 15.73 1.27
4 4 -13 17.96 1.36
3 -4 -13 9.96 1.08
-3 -4 13 12.96 0.92
3 -4 -13 14.1 1.21
-3 -4 13 13.74 0.97
3 -4 -13 12.48 0.95
3 -4 -13 13.42 1.08
3 4 -13 12.85 1.06
3 4 -13 12.58 1.11
-2 -4 13 3.06 0.33
-2 -4 13 2.61 0.28
-2 -4 13 2.72 0.29
2 -4 -13 2.71 0.4
2 -4 -13 3.07 0.37
2 -4 -13 2.83 0.28
2 -4 -13 2.33 0.35
2 4 -13 2.19 0.3
2 4 -13 2.17 0.3
2 4 -13 2.39 0.32
1 -4 -13 11.15 0.85
1 -4 -13 10.68 1.04
-1 -4 13 12.15 0.82
1 -4 -13 11.81 0.98
1 -4 -13 9.53 0.86
-1 -4 13 10.75 0.83
1 4 -13 11.4 0.94
1 4 -13 11.73 0.99
0 -4 13 3.45 0.32
0 -4 13 3.46 0.34
0 -4 -13 2.92 0.4
0 -4 -13 3.72 0.34
0 4 -13 3.27 0.37
0 4 -13 3.35 0.36
1 -4 13 0.44 0.13
-1 -4 -13 0.48 0.13
-1 4 -13 0.24 0.11
9 0 -14 8.83 0.83
9 0 -14 9.56 0.83
8 0 -14 0.69 0.18
8 0 -14 0.71 0.19
8 0 -14 0.71 0.19
7 0 -14 1.97 0.33
7 0 -14 2.07 0.33
7 0 -14 2.18 0.35
6 0 -14 1.44 0.29
6 0 -14 1.34 0.28
6 0 -14 1.01 0.24
6 0 -14 1.37 0.26
5 0 -14 0.9 0.23
5 0 -14 1 0.25
5 0 -14 0.95 0.26
4 0 -14 7.25 0.73
4 0 -14 5.85 0.69
4 0 -14 7.44 0.72
3 0 -14 11.12 1.01
3 0 -14 9.75 0.99
3 0 -14 9.73 0.93
3 0 -14 12.84 1.08
2 0 -14 0.52 0.19
2 0 -14 0.53 0.21
2 0 -14 0.87 0.24
1 0 -14 1.32 0.29
1 0 -14 1.2 0.27
1 0 -14 1.38 0.3
0 0 -14 15.94 1.43
0 0 -14 17.62 1.58
0 0 -14 18.63 1.45
-1 0 -14 10.95 0.98
-1 0 -14 11.07 1.06
2 0 14 0.59 0.14
2 0 14 0.48 0.11
2 0 14 0.45 0.13
-2 0 -14 0.34 0.17
-2 0 -14 0.32 0.16
-2 0 -14 0.52 0.14
-3 0 -14 60.54 4.08
-3 0 -14 54.46 3.75
3 0 14 50.93 3.62
3 0 14 47.23 3.68
-3 0 -14 49.88 4.44
3 0 14 62.72 3.79
9 -1 -14 1.64 0.28
-9 -1 14 2.21 0.24
-9 -1 14 1.91 0.28
9 -1 -14 1.74 0.27
9 1 -14 1.97 0.26
9 1 -14 2.02 0.28
-8 -1 14 0.42 0.12
8 -1 -14 0.64 0.19
8 -1 -14 0.41 0.16
8 -1 -14 0.59 0.17
8 1 -14 0.5 0.17
8 1 -14 0.34 0.15
8 1 -14 0.47 0.15
7 -1 -14 0.54 0.18
7 -1 -14 0.63 0.2
7 -1 -14 0.35 0.19
7 1 -14 0.32 0.13
7 1 -14 0.44 0.17
7 1 -14 0.53 0.18
6 -1 -14 1.67 0.33
6 -1 -14 2.41 0.37
6 -1 -14 2.27 0.34
6 -1 -14 2.03 0.35
6 1 -14 1.66 0.32
6 1 -14 2 0.33
6 1 -14 1.61 0.29
5 -1 -14 1.34 0.28
5 -1 -14 1.32 0.29
5 -1 -14 1.78 0.32
5 1 -14 1.23 0.25
5 1 -14 1.19 0.27
5 1 -14 1.19 0.26
4 -1 -14 9.12 0.88
4 -1 -14 9.12 0.88
4 -1 -14 7.83 0.84
4 -1 -14 7.73 0.77
4 1 -14 8.84 0.85
4 1 -14 9.15 0.84
4 1 -14 8.48 0.83
3 -1 -14 4.77 0.53
3 -1 -14 3.87 0.46
3 -1 -14 4.43 0.56
3 -1 -14 3.87 0.47
3 1 -14 3.5 0.46
3 1 -14 4.29 0.51
3 1 -14 4.14 0.49
-2 -1 14 8 0.77
2 -1 -14 9.74 0.96
2 -1 -14 9.98 0.99
2 -1 -14 10.16 0.9
2 1 -14 12.1 1
2 1 -14 9.25 0.85
2 1 -14 10.18 0.93
-1 -1 14 2.36 0.31
1 -1 -14 2.08 0.38
1 -1 -14 2.53 0.42
-1 -1 14 2.21 0.29
1 -1 -14 2.28 0.37
1 1 -14 2.19 0.34
1 1 -14 2.68 0.37
1 1 -14 2.36 0.39
0 -1 14 0.28 0.13
0 -1 -14 0.25 0.16
0 -1 14 0.36 0.13
0 -1 -14 0.1 0.14
0 -1 -14 0.37 0.17
0 -1 -14 0.27 0.13
0 -1 14 0.18 0.11
0 1 -14 0.15 0.14
0 1 -14 0.35 0.17
0 1 -14 0.41 0.18
-1 -1 -14 23.06 1.72
1 -1 14 22.98 1.74
-1 -1 -14 22.62 2.07
1 -1 14 25.72 1.7
-1 -1 -14 22.59 1.91
-1 1 -14 24.7 1.91
-1 1 -14 24.81 2.08
-2 -1 -14 1.15 0.25
-2 -1 -14 1.16 0.23
2 -1 14 1.35 0.21
2 -1 14 1.19 0.19
-2 -1 -14 1.39 0.21
2 1 14 1.24 0.15
-2 1 -14 1.44 0.24
-2 1 -14 1.53 0.27
2 1 14 1.49 0.19
3 -1 14 4.57 0.4
-3 -1 -14 4.83 0.4
3 -1 14 4.22 0.38
-3 -1 -14 4.96 0.48
3 1 14 4.22 0.39
3 1 14 4.24 0.35
-3 1 -14 4.51 0.46
-3 1 -14 4.71 0.46
8 -2 -14 12.01 1.13
-8 -2 14 11.49 1.01
8 -2 -14 13.37 1.14
8 -2 -14 11.38 1.06
-8 -2 14 14.46 0.97
8 2 -14 12.98 1.1
8 2 -14 14.46 1.12
7 -2 -14 19.51 1.67
-7 -2 14 18.61 1.26
-7 -2 14 15.8 1.45
7 -2 -14 17.4 1.64
-7 -2 14 22.18 1.43
7 -2 -14 22.16 1.68
7 -2 -14 19.65 1.57
7 2 -14 23.07 1.66
7 2 -14 17.46 1.53
7 2 -14 17.57 1.6
6 -2 -14 14.61 1.28
6 -2 -14 14.29 1.27
-6 -2 14 11.03 1.09
-6 -2 14 14.75 0.98
-6 -2 14 15.06 1.09
6 -2 -14 15.08 1.22
6 -2 -14 12.12 1.23
6 2 -14 14.52 1.18
6 2 -14 14.7 1.24
5 -2 -14 21.2 1.72
5 -2 -14 20.73 1.81
5 -2 -14 18.14 1.61
5 -2 -14 19.31 1.78
-5 -2 14 20.82 1.52
-5 -2 14 21.39 1.4
5 2 -14 20.79 1.67
5 2 -14 21.11 1.75
4 -2 -14 2.35 0.35
4 -2 -14 2.99 0.45
-4 -2 14 2.26 0.32
-4 -2 14 2.22 0.31
-4 -2 14 2.14 0.31
4 -2 -14 2.75 0.38
4 -2 -14 2.43 0.38
4 2 -14 1.68 0.32
4 2 -14 1.95 0.32
4 2 -14 2.09 0.31
3 -2 -14 15.73 1.38
-3 -2 14 15.49 1.06
-3 -2 14 14.19 1.09
3 -2 -14 14.56 1.29
-3 -2 14 13.82 1.09
3 -2 -14 15.17 1.23
3 -2 -14 12.99 1.27
3 2 -14 15.16 1.24
3 2 -14 13.38 1.26
3 2 -14 14.82 1.31
-2 -2 14 7.12 0.58
-2 -2 14 5.9 0.59
2 -2 -14 5.87 0.7
2 -2 -14 6.47 0.74
2 -2 -14 6.03 0.66
2 -2 -14 6.58 0.57
2 2 -14 7.49 0.68
2 2 -14 8.51 0.72
1 -2 -14 4.48 0.5
1 -2 -14 4.16 0.54
1 -2 -14 4.02 0.41
-1 -2 14 4.33 0.42
-1 -2 14 4.42 0.45
1 -2 -14 3.52 0.49
1 2 -14 4.47 0.48
1 2 -14 5.64 0.54
0 -2 -14 9.74 0.76
0 -2 14 10.52 0.78
0 -2 -14 9.75 0.87
0 -2 -14 10.3 0.96
0 -2 14 9.55 0.7
0 -2 14 8.3 0.74
0 2 -14 10.12 0.92
0 2 -14 8.57 0.83
0 2 -14 8.84 0.82
1 -2 14 18.34 1.23
1 -2 14 16.03 1.24
-1 -2 -14 17.03 1.49
1 -2 14 14.46 1.09
-1 -2 -14 16.07 1.38
-1 -2 -14 17.41 1.25
-1 2 -14 14.47 1.33
-1 2 -14 19.07 1.49
-1 2 -14 18.06 1.35
-2 -2 -14 5.49 0.58
2 -2 14 5.48 0.5
-2 -2 -14 5.93 0.51
2 -2 14 6.47 0.5
-2 2 -14 5.88 0.56
-2 2 -14 7.16 0.61
7 -3 -14 2.65 0.34
-7 -3 14 3.12 0.32
7 -3 -14 2.89 0.36
7 3 -14 2.76 0.32
6 -3 -14 1.85 0.3
-6 -3 14 2.57 0.31
-6 -3 14 1.81 0.22
6 -3 -14 1.08 0.25
6 -3 -14 1.91 0.29
6 -3 -14 1.98 0.31
6 3 -14 1.51 0.25
6 3 -14 1.87 0.25
-5 -3 14 2.39 0.32
5 -3 -14 2.78 0.41
5 -3 -14 2.48 0.33
-5 -3 14 2.87 0.34
5 -3 -14 2.7 0.38
5 -3 -14 2.84 0.38
5 3 -14 3.15 0.34
5 3 -14 2.75 0.34
4 -3 -14 6.05 0.66
4 -3 -14 6.32 0.62
4 -3 -14 7.24 0.72
-4 -3 14 7.07 0.6
4 -3 -14 6.61 0.7
-4 -3 14 6.65 0.56
4 3 -14 7.3 0.64
4 3 -14 6.94 0.65
3 -3 -14 0.31 0.14
-3 -3 14 0.23 0.12
-3 -3 14 0.19 0.13
-3 -3 14 0.29 0.14
3 -3 -14 0.35 0.17
3 -3 -14 0.14 0.11
3 -3 -14 0.17 0.18
3 3 -14 0.24 0.13
3 3 -14 0.18 0.12
3 3 -14 0.25 0.12
2 -3 -14 6.88 0.72
-2 -3 14 6.14 0.55
2 -3 -14 5.7 0.65
2 -3 -14 6.73 0.65
2 -3 -14 6.56 0.55
-2 -3 14 7.11 0.56
2 3 -14 7.13 0.64
2 3 -14 7.01 0.65
1 -3 -14 5.1 0.62
-1 -3 14 5.66 0.47
-1 -3 14 5.46 0.5
1 -3 -14 5.75 0.49
1 -3 -14 5.86 0.59
1 3 -14 6.69 0.6
1 3 -14 5.19 0.54
0 -3 -14 -0.09 0.12
0 -3 14 0.05 0.11
0 -3 -14 0.01 0.13
0 -3 -14 -0.02 0.09
0 -3 14 0.04 0.09
0 3 -14 0.03 0.09
0 3 -14 0.05 0.09
-1 -3 -14 13.07 0.99
1 -3 14 13.48 0.97
-1 -3 -14 13.05 1.1
-1 3 -14 13.46 1.17
4 -4 -14 0.53 0.17
-3 -4 14 7.67 0.56
3 -4 -14 7.73 0.72
3 -4 -14 7.6 0.66
3 4 -14 6.63 0.63
-2 -4 14 7.08 0.55
2 -4 -14 7.27 0.66
2 4 -14 7.33 0.63
8 0 -15 0.03 0.09
8 0 -15 0.11 0.13
7 0 -15 6.3 0.65
7 0 -15 7.17 0.64
6 0 -15 7.73 0.74
6 0 -15 7.25 0.72
5 0 -15 0.25 0.14
5 0 -15 0.07 0.15
5 0 -15 0.15 0.13
4 0 -15 58.81 5.15
4 0 -15 66.89 5.27
4 0 -15 64.76 4.9
3 0 -15 9.13 0.87
3 0 -15 8.08 0.83
2 0 -15 22.17 1.79
2 0 -15 19.18 1.59
2 0 -15 18.26 1.64
1 0 -15 28.17 2.24
1 0 -15 24.8 1.99
1 0 -15 23.27 2.03
0 0 -15 6.69 0.65
0 0 15 7.26 0.59
0 0 -15 6.95 0.72
-1 0 -15 10.17 0.89
-1 0 -15 11.08 0.97
1 0 15 10.3 0.78
1 0 15 9.9 0.79
2 0 15 5.53 0.45
-2 0 -15 5.27 0.52
8 -1 -15 0.5 0.15
-8 -1 15 0.73 0.16
8 1 -15 0.5 0.14
7 -1 -15 0.78 0.21
7 -1 -15 1.29 0.23
7 -1 -15 1.25 0.24
-7 -1 15 1.22 0.18
7 1 -15 1.27 0.22
7 1 -15 1.48 0.24
7 1 -15 0.74 0.2
6 -1 -15 0.35 0.17
6 -1 -15 0.11 0.12
6 -1 -15 0.17 0.13
6 1 -15 0.45 0.17
6 1 -15 0.18 0.12
5 -1 -15 2.65 0.39
5 -1 -15 2.69 0.35
5 -1 -15 2.78 0.36
-5 -1 15 2.42 0.28
5 1 -15 2.39 0.36
5 1 -15 2.02 0.32
5 1 -15 2.35 0.32
-4 -1 15 0.28 0.12
4 -1 -15 0.36 0.16
4 -1 -15 0.26 0.16
-4 -1 15 0.29 0.12
4 -1 -15 0.61 0.22
4 1 -15 0.29 0.14
4 1 -15 0.43 0.15
4 1 -15 0.3 0.17
3 -1 -15 0.44 0.2
-3 -1 15 0.38 0.14
3 -1 -15 0.41 0.16
-3 -1 15 0.43 0.15
3 -1 -15 0.56 0.19
3 1 -15 0.67 0.19
3 1 -15 0.62 0.17
3 1 -15 0.55 0.2
2 -1 -15 0.42 0.19
-2 -1 15 0.52 0.15
-2 -1 15 0.53 0.15
2 -1 -15 0.52 0.18
2 -1 -15 0.43 0.17
2 1 -15 0.68 0.2
2 1 -15 0.42 0.16
-1 -1 15 1.75 0.25
1 -1 -15 1.81 0.3
1 -1 -15 1.66 0.29
-1 -1 15 1.41 0.21
-1 -1 15 1.82 0.24
1 -1 -15 1.72 0.32
1 1 -15 1.68 0.29
1 1 -15 1.66 0.3
1 1 -15 1.68 0.27
0 -1 -15 3.37 0.41
0 -1 15 2.94 0.31
0 -1 15 3.04 0.32
0 -1 15 4.1 0.36
0 -1 -15 3.55 0.42
0 1 -15 3.03 0.37
0 1 -15 3.95 0.42
0 1 -15 2.98 0.37
-1 -1 -15 0.2 0.14
1 -1 15 0.13 0.1
-1 -1 -15 0.07 0.11
1 -1 15 0.23 0.09
-1 1 -15 0.23 0.13
1 1 15 0.26 0.09
-1 1 -15 0.33 0.13
-2 -1 -15 14.06 1.06
2 1 15 11.94 0.95
7 -2 -15 8.19 0.73
7 -2 -15 7.11 0.69
-7 -2 15 8.24 0.62
7 2 -15 7.77 0.71
6 -2 -15 4.38 0.5
-6 -2 15 5.55 0.44
6 -2 -15 3.97 0.49
-6 -2 15 4.14 0.39
6 -2 -15 4.35 0.5
6 2 -15 6.03 0.5
6 2 -15 5.04 0.47
-5 -2 15 4.14 0.39
5 -2 -15 4.46 0.48
-5 -2 15 3.73 0.37
5 -2 -15 3.21 0.44
5 -2 -15 3.91 0.47
5 2 -15 4.15 0.44
5 2 -15 4.5 0.44
-4 -2 15 15.49 1.1
-4 -2 15 14.76 1.11
4 -2 -15 18.06 1.4
-4 -2 15 15.8 1.06
4 -2 -15 14.29 1.32
4 -2 -15 16.24 1.32
4 -2 -15 14.04 1.22
4 2 -15 15.56 1.28
4 2 -15 14.62 1.33
4 2 -15 14.53 1.31
3 -2 -15 10.62 0.92
-3 -2 15 9.39 0.7
3 -2 -15 8.4 0.84
-3 -2 15 9.1 0.72
3 -2 -15 8.73 0.8
-3 -2 15 8.92 0.72
3 2 -15 8.18 0.81
3 2 -15 10.48 0.87
2 -2 -15 13.61 1.21
-2 -2 15 13.48 0.92
2 -2 -15 11.4 1.09
-2 -2 15 13.22 0.97
2 -2 -15 12.67 1.08
2 2 -15 12.44 1.1
2 2 -15 13.55 1.17
-1 -2 15 12.17 0.89
1 -2 -15 11.89 1.09
-1 -2 15 11.92 0.82
1 -2 -15 11.38 0.99
1 2 -15 11.24 0.99
1 2 -15 11.47 1.06
0 -2 -15 3.9 0.46
0 -2 15 4.39 0.39
0 -2 -15 4.17 0.45
0 2 -15 3.94 0.44
0 2 -15 4.63 0.46
1 -2 15 9.47 0.69
-1 -2 -15 9.06 0.8
-1 2 -15 9.08 0.84
5 -3 -15 0.22 0.13
5 -3 -15 0.11 0.14
-4 -3 15 1.66 0.22
4 -3 -15 1.7 0.28
4 -3 -15 1.66 0.28
4 3 -15 1.8 0.26
3 -3 -15 1.35 0.24
-3 -3 15 1.57 0.23
3 -3 -15 1.8 0.3
3 3 -15 2.21 0.3
-2 -3 15 3.45 0.33
2 -3 -15 3.55 0.43
2 -3 -15 3.55 0.39
2 3 -15 3.51 0.38
1 -3 -15 3.41 0.38
6 0 -16 14.12 1.2
6 0 -16 13.66 1.15
5 0 -16 14.1 1.23
5 0 -16 14.56 1.18
5 0 -16 13.42 1.21
4 0 -16 0.42 0.15
4 0 -16 0.88 0.22
3 0 -16 10.48 0.95
3 0 -16 9.85 0.9
2 0 -16 0.75 0.2
-2 0 16 0.81 0.15
2 0 -16 0.91 0.2
1 0 -16 1.87 0.27
-1 0 16 1.59 0.22
0 0 16 6.59 0.51
0 0 -16 6.17 0.62
-6 -1 16 11.04 0.74
-6 -1 16 10.59 0.79
6 -1 -16 10.5 0.91
6 1 -16 10.63 0.9
6 1 -16 10.46 0.94
5 -1 -16 4.04 0.44
5 -1 -16 3.94 0.45
-5 -1 16 3.87 0.35
-5 -1 16 3.62 0.36
5 1 -16 4.22 0.43
5 1 -16 4.56 0.46
4 -1 -16 10.49 0.97
4 -1 -16 10.45 0.92
-4 -1 16 9.41 0.77
-4 -1 16 10.79 0.75
4 1 -16 11.72 0.93
4 1 -16 10.39 0.95
-3 -1 16 1.66 0.23
-3 -1 16 1.62 0.22
3 -1 -16 1.62 0.28
3 -1 -16 2.12 0.29
3 1 -16 1.46 0.26
3 1 -16 1.22 0.25
2 -1 -16 1.24 0.23
2 -1 -16 1.82 0.3
2 -1 -16 1.43 0.25
-2 -1 16 1.59 0.21
-2 -1 16 1.54 0.22
2 1 -16 1.34 0.25
2 1 -16 1.64 0.27
1 -1 -16 0.44 0.15
1 -1 -16 0.24 0.14
-1 -1 16 0.44 0.13
1 1 -16 0.64 0.17
-4 -2 16 7.61 0.56
4 -2 -16 7.47 0.71
4 2 -16 7.22 0.66
3 -2 -16 2.25 0.32
-3 -2 16 2.21 0.26
3 2 -16 2.48 0.31
