#------------------------------------------------------------------------------
#$Date: 2019-11-11 21:15:09 +0200 (Mon, 11 Nov 2019) $
#$Revision: 227390 $
#$URL: file:///home/coder/svn-repositories/cod/cif/4/03/60/4036016.cif $
#------------------------------------------------------------------------------
#
# This file is available in the Crystallography Open Database (COD),
# http://www.crystallography.net/
#
# All data on this site have been placed in the public domain by the
# contributors.
#
data_4036016
loop_
_publ_author_name
'Lazzara, Nicholas C.'
'Rosano, Robert J.'
'Vagadia, Purav P.'
'Giovine, Matthew T.'
'Bezpalko, Mark W.'
'Piro, Nicholas A.'
'Kassel, Wm Scott'
'Boyko, Walter J.'
'Zubris, Deanna L.'
'Schrader, Kevin K.'
'Wedge, David E.'
'Duke, Stephen O.'
'Giuliano, Robert M.'
_publ_section_title
;
 Synthesis and Biological Evaluation of 6-[(1 R)-1-Hydroxyethyl]-2,4a(
 R),6( S),8a( R)-tetrahydropyrano-[3,2- b]-pyran-2-one and Structural
 Analogues of the Putative Structure of Diplopyrone.
;
_journal_issue                   2
_journal_name_full               'The Journal of organic chemistry'
_journal_page_first              666
_journal_page_last               678
_journal_paper_doi               10.1021/acs.joc.8b02490
_journal_volume                  84
_journal_year                    2019
_chemical_absolute_configuration syn
_chemical_formula_moiety         'C12 H14 O5'
_chemical_formula_sum            'C12 H14 O5'
_chemical_formula_weight         238.23
_space_group_crystal_system      monoclinic
_space_group_IT_number           4
_space_group_name_Hall           'P 2yb'
_space_group_name_H-M_alt        'P 1 21 1'
_atom_sites_solution_hydrogens   geom
_atom_sites_solution_primary     dual
_audit_creation_date             2018-09-18
_audit_creation_method
;
Olex2 1.2
(compiled 2018.05.29 svn.r3508 for OlexSys, GUI svn.r5506)
;
_cell_angle_alpha                90
_cell_angle_beta                 112.125(2)
_cell_angle_gamma                90
_cell_formula_units_Z            2
_cell_length_a                   6.7672(2)
_cell_length_b                   11.7433(4)
_cell_length_c                   7.7423(3)
_cell_measurement_reflns_used    4391
_cell_measurement_temperature    100
_cell_measurement_theta_max      29.90
_cell_measurement_theta_min      3.25
_cell_volume                     569.97(3)
_computing_cell_refinement       'SAINT v8.37A (Bruker, 2015)'
_computing_data_reduction        'SAINT v8.37A (Bruker, 2015)'
_computing_molecular_graphics    'Olex2 (Dolomanov et al., 2009)'
_computing_publication_material  'Olex2 (Dolomanov et al., 2009)'
_computing_structure_refinement  'ShelXL (Sheldrick, 2015)'
_computing_structure_solution    'ShelXT (Sheldrick, 2015)'
_diffrn_ambient_temperature      100.0
_diffrn_measured_fraction_theta_full 1.000
_diffrn_measured_fraction_theta_max 0.994
_diffrn_measurement_device_type  'Bruker APEX-II CCD'
_diffrn_measurement_method       '\f and \w scans'
_diffrn_radiation_type           MoK\a
_diffrn_radiation_wavelength     0.71073
_diffrn_reflns_av_R_equivalents  0.0272
_diffrn_reflns_av_unetI/netI     0.0334
_diffrn_reflns_Laue_measured_fraction_full 1.000
_diffrn_reflns_Laue_measured_fraction_max 0.994
_diffrn_reflns_limit_h_max       9
_diffrn_reflns_limit_h_min       -9
_diffrn_reflns_limit_k_max       16
_diffrn_reflns_limit_k_min       -16
_diffrn_reflns_limit_l_max       10
_diffrn_reflns_limit_l_min       -5
_diffrn_reflns_number            8107
_diffrn_reflns_point_group_measured_fraction_full 0.983
_diffrn_reflns_point_group_measured_fraction_max 0.928
_diffrn_reflns_theta_full        25.242
_diffrn_reflns_theta_max         30.040
_diffrn_reflns_theta_min         2.840
_diffrn_source                   'sealed tube'
_diffrn_standards_number         0
_exptl_absorpt_coefficient_mu    0.109
_exptl_absorpt_correction_T_max  0.7460
_exptl_absorpt_correction_T_min  0.6199
_exptl_absorpt_correction_type   multi-scan
_exptl_absorpt_process_details
;
SADABS-2014/5 (Bruker,2014/5) was used for absorption correction. 
wR2(int) was 0.0514 before and 0.0387 after correction. 
The Ratio of minimum to maximum transmission is 0.8310. 
The \l/2 correction factor is 0.00150.
;
_exptl_crystal_colour            colourless
_exptl_crystal_colour_primary    colourless
_exptl_crystal_density_diffrn    1.388
_exptl_crystal_description       Prism
_exptl_crystal_F_000             252
_exptl_crystal_size_max          0.34
_exptl_crystal_size_mid          0.27
_exptl_crystal_size_min          0.18
_refine_diff_density_max         0.349
_refine_diff_density_min         -0.283
_refine_diff_density_rms         0.053
_refine_ls_abs_structure_details
;
 Flack x determined using 1218 quotients [(I+)-(I-)]/[(I+)+(I-)]
 (Parsons, Flack and Wagner, Acta Cryst. B69 (2013) 249-259).
;
_refine_ls_abs_structure_Flack   -0.3(4)
_refine_ls_extinction_method     none
_refine_ls_goodness_of_fit_ref   1.068
_refine_ls_hydrogen_treatment    constr
_refine_ls_matrix_type           full
_refine_ls_number_parameters     156
_refine_ls_number_reflns         3106
_refine_ls_number_restraints     1
_refine_ls_restrained_S_all      1.068
_refine_ls_R_factor_all          0.0417
_refine_ls_R_factor_gt           0.0381
_refine_ls_shift/su_max          0.000
_refine_ls_shift/su_mean         0.000
_refine_ls_structure_factor_coef Fsqd
_refine_ls_weighting_details
'w=1/[\s^2^(Fo^2^)+(0.0573P)^2^+0.1267P] where P=(Fo^2^+2Fc^2^)/3'
_refine_ls_weighting_scheme      calc
_refine_ls_wR_factor_gt          0.0949
_refine_ls_wR_factor_ref         0.1027
_reflns_Friedel_coverage         0.786
_reflns_Friedel_fraction_full    0.963
_reflns_Friedel_fraction_max     0.855
_reflns_number_gt                2906
_reflns_number_total             3106
_reflns_threshold_expression     'I > 2\s(I)'
_cod_data_source_file            jo8b02490_si_002.cif
_cod_data_source_block           3
_cod_database_code               4036016
_shelx_shelxl_version_number     2018/1
_shelx_space_group_comment
;
The symmetry employed for this shelxl refinement is uniquely defined
by the following loop, which should always be used as a source of
symmetry information in preference to the above space-group names.
They are only intended as comments.
;
_shelx_estimated_absorpt_t_max   0.981
_shelx_estimated_absorpt_t_min   0.964
_olex2_refinement_description
;
1. Fixed Uiso
 At 1.2 times of:
  All C(H) groups
 At 1.5 times of:
  All C(H,H,H) groups
2.a Ternary CH refined with riding coordinates:
 C4A(H4A), C6(H6), C8A(H8A), C9(H9)
2.b Aromatic/amide H refined with riding coordinates:
 C3(H3), C4(H4), C7(H7), C8(H8)
2.c Idealised Me refined as rotating group:
 C10(H10A,H10B,H10C), C14(H14A,H14B,H14C)
;
_shelx_res_file
;
TITL bobg018_0m_a.res in P2(1)
    bobg018_0m.res
    created by SHELXL-2018/1 at 09:08:11 on 18-Sep-2018
REM Old TITL bobg018_0m_a.res in P2(1)
REM SHELXT solution in P2(1)
REM R1 0.067, Rweak 0.029, Alpha 0.007, Orientation as input
REM Flack x = -0.085 ( 0.386 ) from Parsons' quotients
REM Formula found by SHELXT: C12 O5
CELL 0.71073 6.7672 11.7433 7.7423 90 112.125 90
ZERR 2 0.0002 0.0004 0.0003 0 0.002 0
LATT -1
SYMM -X,0.5+Y,-Z
SFAC C H O
UNIT 24 28 10

L.S. 10 0 0
PLAN  10
SIZE 0.18 0.27 0.34
TEMP -173.15
BOND $H
list 4
fmap 2 53
acta
REM <olex2.extras>
REM <HklSrc "%.\\bobg018_0m.hkl">
REM </olex2.extras>

WGHT    0.057300    0.126700
FVAR       1.23618
O1    3    0.017307    0.319839    0.502820    11.00000    0.01868    0.01000 =
         0.01212    0.00019    0.00731   -0.00011
O5    3    0.297767    0.521653    0.500287    11.00000    0.01324    0.01894 =
         0.01189   -0.00187    0.00558   -0.00291
O11   3    0.512031    0.583318    0.147724    11.00000    0.01568    0.01837 =
         0.01643    0.00256    0.00908    0.00217
O13   3    0.384165    0.729209   -0.051664    11.00000    0.02350    0.02674 =
         0.02293    0.00843    0.00970    0.00760
O15   3    0.045092    0.270453    0.784677    11.00000    0.02730    0.01416 =
         0.01863    0.00232    0.01056   -0.00106
C2    1    0.019860    0.345846    0.673104    11.00000    0.01242    0.01356 =
         0.01412   -0.00161    0.00582   -0.00055
C3    1   -0.000423    0.466404    0.717247    11.00000    0.01828    0.01380 =
         0.01639   -0.00131    0.00910    0.00229
AFIX  43
H3    2   -0.034704    0.484588    0.822257    11.00000   -1.20000
AFIX   0
C4    1    0.028079    0.550088    0.613748    11.00000    0.01792    0.01258 =
         0.01545   -0.00172    0.00745    0.00278
AFIX  43
H4    2    0.022136    0.627181    0.648663    11.00000   -1.20000
AFIX   0
C4A   1    0.069701    0.522353    0.441468    11.00000    0.01449    0.01026 =
         0.01241    0.00080    0.00556    0.00105
AFIX  13
H4A   2    0.008412    0.583419    0.346187    11.00000   -1.20000
AFIX   0
C6    1    0.372130    0.503425    0.353188    11.00000    0.01186    0.01649 =
         0.01317    0.00106    0.00540    0.00005
AFIX  13
H6    2    0.522006    0.474974    0.412192    11.00000   -1.20000
AFIX   0
C7    1    0.247222    0.412600    0.220298    11.00000    0.01910    0.01354 =
         0.01174   -0.00016    0.00663    0.00123
AFIX  43
H7    2    0.298702    0.385738    0.129271    11.00000   -1.20000
AFIX   0
C8    1    0.068645    0.368022    0.223674    11.00000    0.01982    0.01266 =
         0.01029   -0.00162    0.00557   -0.00038
AFIX  43
H8    2   -0.001576    0.309418    0.137933    11.00000   -1.20000
AFIX   0
C8A   1   -0.024298    0.408651    0.360735    11.00000    0.01296    0.01269 =
         0.01074    0.00143    0.00426   -0.00038
AFIX  13
H8A   2   -0.182028    0.417395    0.294816    11.00000   -1.20000
AFIX   0
C9    1    0.381536    0.615580    0.252303    11.00000    0.01210    0.01379 =
         0.01517    0.00046    0.00688   -0.00020
AFIX  13
H9    2    0.235355    0.637933    0.165151    11.00000   -1.20000
AFIX   0
C10   1    0.484353    0.712196    0.384777    11.00000    0.01896    0.01811 =
         0.02201   -0.00300    0.00915   -0.00503
AFIX 137
H10A  2    0.630504    0.691012    0.464283    11.00000   -1.50000
H10B  2    0.402045    0.727617    0.462721    11.00000   -1.50000
H10C  2    0.487156    0.780585    0.313197    11.00000   -1.50000
AFIX   0
C12   1    0.498511    0.647579   -0.000923    11.00000    0.01427    0.01920 =
         0.01497   -0.00052    0.00482   -0.00253
C14   1    0.641809    0.601653   -0.091825    11.00000    0.01913    0.02381 =
         0.01369   -0.00095    0.00774   -0.00149
AFIX 137
H14A  2    0.766195    0.565341    0.002461    11.00000   -1.50000
H14B  2    0.689149    0.664120   -0.150910    11.00000   -1.50000
H14C  2    0.563899    0.545430   -0.186540    11.00000   -1.50000
AFIX   0
HKLF 4




REM  bobg018_0m_a.res in P2(1)
REM R1 =  0.0381 for    2906 Fo > 4sig(Fo)  and  0.0417 for all    3106 data
REM    156 parameters refined using      1 restraints

END

WGHT      0.0573      0.1267

REM Highest difference peak  0.349,  deepest hole -0.283,  1-sigma level  0.053
Q1    1   0.5764  0.6222 -0.0384  11.00000  0.05    0.35
Q2    1   0.0421  0.3893  0.3038  11.00000  0.05    0.30
Q3    1   0.3660  0.5657  0.3058  11.00000  0.05    0.30
Q4    1   0.0133  0.4117  0.6953  11.00000  0.05    0.28
Q5    1   0.3083  0.4557  0.2900  11.00000  0.05    0.28
Q6    1   0.7563  0.6320 -0.0560  11.00000  0.05    0.27
Q7    1   0.0404  0.4629  0.4113  11.00000  0.05    0.26
Q8    1   0.0594  0.5341  0.5365  11.00000  0.05    0.26
Q9    1   0.1358  0.4157  0.2147  11.00000  0.05    0.26
Q10   1   0.1730  0.5294  0.4683  11.00000  0.05    0.25
;
_shelx_res_checksum              93510
_shelx_hkl_file
;
  -1   0   0  387.16   12.60
   1   0   0  402.46   12.60
   1   0   0  408.16   12.40
  -1   0   0  398.26   12.40
   2   0   0 9042.59  266.37
   2   0   0 9282.77  269.87
   2   0   0 8966.60  265.47
   2   0   0 9999.00  268.97
  -2   0   0 9086.29  267.57
  -2   0   0 9325.07  270.97
  -2   0   0 9061.29  268.27
   3   0   0 3442.66   98.39
   3   0   0 3335.07   97.89
  -3   0   0 3426.56   98.39
  -3   0   0 3285.27   98.19
  -3   0   0 3414.76   98.79
  -4   0   0 1115.39   35.60
   4   0   0 1113.79   35.00
  -4   0   0 1165.88   36.20
   4   0   0 1234.18   36.40
  -4   0   0 1131.69   35.80
   4   0   0 1157.98   35.80
   5   0   0   78.89    4.50
  -5   0   0   73.79    4.80
   5   0   0   79.79    5.00
   6   0   0  239.78   10.80
  -6   0   0  237.58   10.90
  -6   0   0  243.68   10.70
   6   0   0  239.68    9.90
   7   0   0   87.19    5.70
  -7   0   0   77.09    6.20
   7   0   0   92.19    6.50
  -7   0   0   85.59    6.30
  -8   0   0  254.97   17.70
  -8   0   0  241.28   12.70
   8   0   0  238.48   12.30
   0  -1   0   -0.80    0.20
   0  -1   0   -0.40    0.30
   0   1   0   -0.30    0.30
   0   1   0   -1.10    0.10
   1  -1   0 2105.09   59.99
  -1  -1   0 2011.40   60.09
   1  -1   0 2090.09   60.19
  -1  -1   0 2093.29   59.89
   1  -1   0 2118.29   59.99
  -1  -1   0 2065.89   59.99
   1   1   0 2124.09   58.69
  -1   1   0 2004.80   58.59
  -1   1   0 2044.40   58.59
   1   1   0 2072.49   58.59
  -1   1   0 1983.40   58.79
   1   1   0 1968.00   58.69
   2  -1   0  892.91   27.00
  -2  -1   0  893.51   26.90
   2  -1   0  905.61   27.20
  -2  -1   0  883.91   26.90
  -2  -1   0  902.21   27.20
  -2   1   0  877.31   26.90
   2   1   0  877.81   26.90
   2   1   0  888.41   27.10
  -2   1   0  876.11   27.20
   2   1   0  948.41   26.90
  -2   1   0  870.81   26.80
   2   1   0  917.61   26.70
  -3  -1   0   54.09    3.20
  -3  -1   0   53.59    3.50
   3  -1   0   60.29    3.40
   3  -1   0   57.49    3.60
  -3  -1   0   60.09    3.40
  -3   1   0   49.90    3.20
   3   1   0   54.29    3.20
   3   1   0   55.79    3.00
  -3   1   0   55.99    3.20
  -3   1   0   52.39    3.50
   3   1   0   59.79    3.50
   4  -1   0  791.32   25.10
   4  -1   0  812.92   25.50
  -4  -1   0  763.22   25.40
   4  -1   0  767.22   24.30
  -4  -1   0  760.22   24.90
  -4  -1   0  769.22   25.00
   4   1   0  750.12   24.70
  -4   1   0  791.32   25.30
  -4   1   0  735.53   24.50
   4   1   0  847.02   25.40
  -4   1   0  741.53   24.70
   4   1   0  742.53   24.00
  -5  -1   0  208.78    9.30
  -5  -1   0  203.18    9.10
  -5  -1   0  244.38   13.60
   5  -1   0  214.68    8.60
   5  -1   0  208.48    9.30
  -5   1   0  219.08    9.60
  -5   1   0  212.88    9.40
   5   1   0  215.08    9.50
   5   1   0  216.78    8.70
  -6  -1   0   59.99    4.70
  -6  -1   0   59.79    4.90
   6  -1   0   63.39    4.40
   6  -1   0   65.09    5.00
  -6   1   0   64.49    5.20
  -6   1   0   54.29    4.60
   6   1   0   66.49    4.90
   6   1   0   63.19    4.40
  -7  -1   0   46.50    5.30
   7  -1   0   37.40    4.70
   7  -1   0   45.60    4.60
  -7  -1   0   49.00    5.30
   7   1   0   43.40    4.50
   7   1   0   46.70    5.50
  -7   1   0   48.20    5.50
  -7   1   0   39.40    5.00
   8  -1   0   28.20    4.40
  -8  -1   0   33.00    5.20
   8   1   0   20.10    3.70
  -8   1   0   18.90    4.20
   0  -2   0  772.02   22.80
   0  -2   0  785.52   22.90
   0  -2   0  767.12   23.00
   0   2   0  776.22   22.60
   0   2   0  766.22   22.10
   0   2   0  751.02   22.70
   1  -2   0 9319.27  266.27
   1  -2   0 9314.27  264.67
  -1  -2   0 9029.00  263.07
  -1  -2   0 8999.30  265.27
  -1  -2   0 9433.96  264.97
   1  -2   0 8912.41  267.17
   1   2   0 9312.27  262.47
  -1   2   0 8845.02  262.07
   1   2   0 9280.07  260.27
  -1   2   0 8632.14  261.47
  -1   2   0 9312.57  261.27
   1   2   0 8918.41  261.07
   1   2   0 9115.29  260.07
  -1   2   0 8929.41  264.07
  -2  -2   0  410.46   13.30
   2  -2   0  411.96   13.30
  -2  -2   0  412.96   13.20
   2  -2   0  414.46   13.60
  -2  -2   0  407.66   13.50
   2  -2   0  419.76   13.20
   2   2   0  429.86   13.80
   2   2   0  433.06   13.50
   2   2   0  400.36   13.50
  -2   2   0  410.46   13.50
   2   2   0  462.05   13.60
  -2   2   0  396.76   13.50
  -2   2   0  432.46   13.90
   3  -2   0  715.53   22.90
  -3  -2   0  730.13   22.90
  -3  -2   0  719.23   22.80
   3  -2   0  760.32   23.40
  -3  -2   0  709.73   23.20
   3   2   0  739.23   23.70
  -3   2   0  744.63   23.60
  -3   2   0  739.03   23.60
   3   2   0  785.32   24.00
  -3   2   0  774.22   24.20
   3   2   0  733.03   23.20
   4  -2   0  263.37   10.20
  -4  -2   0  234.08    9.50
  -4  -2   0  240.08   10.00
  -4  -2   0  226.78    9.40
  -4   2   0  237.38    9.70
   4   2   0  259.77   10.20
   4   2   0  235.28    9.70
  -4   2   0  245.48    9.70
   4   2   0  239.68    9.20
  -4   2   0  266.47   10.40
  -5  -2   0  225.88    9.70
   5  -2   0  229.58    9.10
  -5  -2   0  225.18    9.80
   5  -2   0  220.28    9.70
   5   2   0  241.08    9.40
   5   2   0  210.38    9.80
  -5   2   0  242.68   10.10
  -5   2   0  243.68   10.10
   6  -2   0   29.20    3.80
   6  -2   0   31.70    3.50
  -6  -2   0   26.80    3.80
  -6  -2   0   26.30    3.80
   6   2   0   31.40    3.60
   6   2   0   26.90    3.60
  -6   2   0   21.30    3.50
  -6   2   0   29.60    3.70
   7  -2   0  171.98    8.40
  -7  -2   0  157.78    9.10
  -7  -2   0  162.08    9.00
   7  -2   0  156.48    8.90
  -7   2   0  170.98    9.40
  -7   2   0  174.08    9.40
   7   2   0  172.48    9.40
   7   2   0  162.18    8.10
   8  -2   0   34.20    5.00
  -8  -2   0   26.70    4.40
   8   2   0   19.60    4.00
  -8   2   0   24.70    4.00
   0  -3   0   -0.70    0.60
   0  -3   0    0.60    0.70
   0  -3   0    0.70    0.80
   0  -3   0    0.00    0.60
   0   3   0   -0.10    0.40
   0   3   0   -0.10    0.70
   0   3   0   -1.30    0.50
   1  -3   0  259.77    8.80
  -1  -3   0  242.38    8.40
  -1  -3   0  248.08    8.60
   1  -3   0  266.37    8.50
   1  -3   0  242.98    8.40
   1   3   0  258.87    8.40
  -1   3   0  253.77    8.40
   1   3   0  248.98    8.40
   1   3   0  255.07    8.50
   1   3   0  241.18    8.50
  -1   3   0  245.18    8.70
  -1   3   0  255.47    8.10
   2  -3   0  894.31   25.70
  -2  -3   0  825.22   25.30
  -2  -3   0  828.82   25.60
  -2  -3   0  834.32   25.90
   2  -3   0  807.32   25.60
   2  -3   0  842.82   26.00
  -2   3   0  825.12   25.00
  -2   3   0  810.72   25.50
   2   3   0  827.62   25.10
   2   3   0  851.31   25.60
  -2   3   0  809.62   25.20
   2   3   0  827.72   25.30
  -3  -3   0  164.98    7.10
   3  -3   0  165.88    6.90
  -3  -3   0  154.18    6.60
  -3  -3   0  158.58    6.60
   3  -3   0  175.58    7.20
   3   3   0  161.38    6.60
   3   3   0  165.88    6.90
  -3   3   0  162.38    6.90
  -3   3   0  171.58    7.30
   3   3   0  176.18    7.20
  -3   3   0  161.08    6.70
  -4  -3   0  318.57   11.70
   4  -3   0  340.27   12.40
  -4  -3   0  305.47   12.10
   4  -3   0  296.37   11.60
  -4  -3   0  298.37   11.60
  -4   3   0  315.77   11.90
   4   3   0  311.17   11.40
   4   3   0  299.57   11.90
  -4   3   0  324.97   12.50
   4   3   0  344.27   12.50
  -4   3   0  314.57   11.90
  -5  -3   0   93.79    5.60
   5  -3   0   89.49    5.50
  -5  -3   0   96.79    5.70
   5   3   0   98.29    5.60
  -5   3   0   94.39    5.70
   5   3   0   89.39    5.10
  -5   3   0   84.59    5.40
  -6  -3   0   72.59    5.50
  -6  -3   0   79.29    5.60
   6  -3   0   69.09    5.30
   6  -3   0   72.29    4.90
  -6   3   0   82.69    5.70
   6   3   0   74.59    5.00
  -6   3   0   69.99    5.50
   6   3   0   75.89    5.60
   7  -3   0   47.40    5.60
   7  -3   0   60.39    5.90
  -7  -3   0   54.39    5.60
  -7  -3   0   48.00    5.50
   7   3   0   59.29    6.20
  -7   3   0   54.79    5.70
   7   3   0   61.09    4.70
  -7   3   0   46.90    5.50
   8  -3   0  107.29    7.80
  -8  -3   0  112.99    8.20
  -8   3   0  104.69    7.80
   8   3   0   95.09    7.10
   0  -4   0  908.21   27.40
   0  -4   0  891.71   27.60
   0  -4   0  925.91   27.70
   0  -4   0  909.01   27.40
   0   4   0  883.91   25.80
   0   4   0  879.71   26.60
  -1  -4   0  690.53   21.50
   1  -4   0  745.53   21.60
   1  -4   0  716.93   22.00
  -1  -4   0  675.73   21.80
   1  -4   0  669.23   21.50
  -1   4   0  676.03   21.30
  -1   4   0  694.73   21.60
   1   4   0  648.24   21.20
   1   4   0  716.43   21.50
  -1   4   0  709.43   20.70
   1   4   0  695.33   21.40
  -2  -4   0  530.45   17.60
  -2  -4   0  527.45   17.30
  -2  -4   0  518.85   16.80
   2  -4   0  552.44   17.70
   2  -4   0  561.94   17.50
   2   4   0  537.05   17.40
  -2   4   0  529.05   16.90
   2   4   0  571.54   17.70
  -2   4   0  529.35   17.20
   2   4   0  548.75   17.30
  -2   4   0  533.75   17.70
  -2   4   0  516.05   17.20
  -3  -4   0  515.35   17.10
  -3  -4   0  532.95   18.00
  -3  -4   0  513.85   17.40
   3  -4   0  545.95   18.00
   3  -4   0  510.95   17.50
  -3   4   0  513.65   17.10
   3   4   0  509.35   17.00
  -3   4   0  531.35   17.80
  -3   4   0  486.65   17.10
   3   4   0  563.04   17.80
   3   4   0  513.25   17.40
  -4  -4   0  105.19    5.90
  -4  -4   0  100.19    5.40
   4  -4   0   97.79    5.50
  -4  -4   0  104.09    5.40
   4   4   0  103.29    5.30
  -4   4   0  109.59    6.10
  -4   4   0  105.79    5.50
   4   4   0  103.99    5.60
  -4   4   0  107.89    5.70
   5  -4   0   -0.40    1.30
  -5  -4   0    0.10    1.20
  -5  -4   0   -0.50    1.20
  -5   4   0   -2.60    0.80
   5   4   0   -0.20    1.00
  -5   4   0   -0.60    1.20
   5   4   0    1.70    1.50
   6  -4   0   25.20    3.70
  -6  -4   0   22.30    3.50
  -6  -4   0   21.20    3.30
   6   4   0   26.60    4.00
   6   4   0   23.60    3.20
  -6   4   0   22.90    3.50
  -6   4   0   21.80    3.40
   7  -4   0   24.50    5.30
  -7  -4   0   13.60    3.30
  -7  -4   0   16.80    3.50
   7  -4   0   16.10    3.40
   7   4   0   15.10    2.90
  -7   4   0   13.40    3.00
   7   4   0    9.90    3.00
  -7   4   0   19.00    3.70
  -8  -4   0   45.20    6.00
   8  -4   0   50.79    6.20
  -8   4   0   47.60    9.00
   8   4   0   52.39    6.40
   0  -5   0   -0.10    0.80
   0  -5   0   -0.80    0.70
   0  -5   0   -0.40    0.70
   0  -5   0    0.10    0.90
   0   5   0   -0.70    0.80
   0   5   0   -0.60    0.40
  -1  -5   0  592.54   19.20
  -1  -5   0  577.64   18.80
   1  -5   0  629.04   19.40
   1  -5   0  575.24   18.80
  -1   5   0  574.84   18.50
   1   5   0  560.84   18.40
  -1   5   0  570.64   18.80
   1   5   0  599.74   18.80
  -1   5   0  584.94   17.60
   1   5   0  583.44   18.50
  -2  -5   0  116.99    5.60
   2  -5   0  113.49    5.50
   2  -5   0  107.49    5.20
  -2  -5   0  107.89    5.20
  -2   5   0  105.19    5.10
  -2   5   0  110.39    4.70
  -2   5   0  113.59    5.50
   2   5   0  121.19    5.50
   2   5   0  109.59    5.20
   2   5   0  102.79    5.00
   3  -5   0  521.55   17.40
  -3  -5   0  486.45   16.70
  -3  -5   0  504.55   17.30
   3  -5   0  544.45   17.90
  -3  -5   0  498.45   17.70
   3   5   0  507.95   17.10
  -3   5   0  536.55   17.90
  -3   5   0  498.35   16.80
   3   5   0  513.35   17.40
  -3   5   0  496.45   17.20
  -4  -5   0  286.17   11.50
  -4  -5   0  259.87   10.70
   4  -5   0  259.27   10.80
  -4  -5   0  279.77   10.60
   4   5   0  267.87   10.60
  -4   5   0  276.67   10.90
  -4   5   0  286.17   11.60
  -4   5   0  262.57   10.50
   4   5   0  269.27   11.00
  -5  -5   0   31.60    3.60
  -5  -5   0   33.20    4.00
   5  -5   0   29.50    3.70
  -5   5   0   34.20    3.90
  -5   5   0   32.70    3.70
   5   5   0   29.70    3.70
   5   5   0   35.60    3.80
  -6  -5   0   59.69    4.80
  -6  -5   0   58.09    5.10
   6  -5   0   54.49    4.80
  -6   5   0   59.09    4.90
   6   5   0   58.89    5.20
  -6   5   0   58.29    5.00
   6   5   0   53.59    4.50
  -7  -5   0  151.88    8.90
   7  -5   0  148.59    8.80
  -7  -5   0  147.99    9.00
  -7   5   0  157.98    9.00
   7   5   0  141.79    7.80
  -7   5   0  146.69    8.70
   7   5   0  134.99    8.50
   8  -5   0   38.70    5.60
  -8  -5   0   31.90    5.00
  -8   5   0   28.00    4.70
   8   5   0   32.60    5.20
   0  -6   0  150.68    6.40
   0  -6   0  149.88    6.70
   0  -6   0  154.08    6.60
   0  -6   0  151.28    6.40
   0   6   0  150.98    6.40
   0   6   0  151.68    5.20
  -1  -6   0  286.17   10.80
   1  -6   0  301.17   11.00
  -1  -6   0  282.57   10.50
   1  -6   0  279.87   10.40
  -1  -6   0  279.47   10.40
  -1   6   0  288.77    9.00
   1   6   0  264.97   10.00
  -1   6   0  267.07   10.30
   1   6   0  266.57   10.00
  -1   6   0  269.47   10.10
   2  -6   0   33.40    2.80
  -2  -6   0   35.30    3.10
  -2  -6   0   30.50    2.70
   2  -6   0   40.30    3.20
   2   6   0   33.20    3.20
   2   6   0   31.10    2.70
  -2   6   0   36.20    2.90
  -2   6   0   36.50    2.40
  -2   6   0   35.20    3.00
   3  -6   0  111.19    5.80
  -3  -6   0  110.49    5.80
  -3  -6   0  108.99    6.10
  -3   6   0  105.59    5.90
   3   6   0  115.09    5.60
   3   6   0   99.09    5.50
  -3   6   0  105.89    5.10
  -4  -6   0    1.80    1.70
  -4  -6   0    0.20    1.00
   4  -6   0    3.20    1.50
  -4  -6   0    0.90    1.20
   4   6   0    2.80    1.50
  -4   6   0    2.30    1.30
   4   6   0    1.80    1.40
  -4   6   0    0.10    1.00
  -5  -6   0   83.89    5.60
   5  -6   0   68.79    5.30
  -5  -6   0   84.69    5.30
  -5   6   0   85.59    5.50
   5   6   0   90.39    5.90
  -5   6   0   80.49    5.50
   5   6   0   78.59    5.20
  -6  -6   0   46.70    4.90
  -6  -6   0   39.40    4.80
   6  -6   0   35.80    4.50
   6   6   0   39.50    4.40
  -6   6   0   39.70    4.70
  -6   6   0   32.50    4.20
   6   6   0   31.50    4.20
  -7  -6   0   24.50    4.10
  -7  -6   0   16.00    3.60
   7  -6   0   21.30    3.80
  -7   6   0   22.70    3.90
   7   6   0   21.30    4.10
   7   6   0   17.30    3.30
  -8  -6   0   48.40    6.20
   8  -6   0   45.60    5.90
   8   6   0   48.10    6.30
  -8   6   0   61.39    6.90
   0  -7   0   -1.00    0.80
   0  -7   0    0.00    0.80
   0  -7   0    0.50    0.80
   0  -7   0   -0.20    0.70
   0   7   0   -0.30    0.50
   0   7   0   -0.40    0.90
   1  -7   0  161.38    7.40
  -1  -7   0  149.79    7.10
   1  -7   0  148.29    6.80
  -1  -7   0  150.58    6.80
  -1  -7   0  149.39    6.80
  -1  -7   0  170.88    7.50
  -1   7   0  151.38    5.50
   1   7   0  139.79    6.60
  -1   7   0  148.59    7.00
  -1   7   0  152.28    6.80
  -2  -7   0   37.30    3.00
   2  -7   0   37.90    3.40
   2  -7   0   34.20    3.10
  -2  -7   0   36.70    3.50
  -2   7   0   33.10    3.00
  -2   7   0   31.80    2.40
   2   7   0   37.40    3.00
   2   7   0   31.20    3.30
  -2   7   0   28.20    3.20
   3  -7   0   25.50    3.20
  -3  -7   0   33.40    3.80
  -3  -7   0   23.60    2.90
   3   7   0   32.80    3.40
  -3   7   0   31.10    2.70
   3   7   0   29.90    3.30
  -3   7   0   37.30    3.60
  -4  -7   0  147.59    7.60
   4  -7   0  150.18    7.60
   4   7   0  143.99    7.60
   4   7   0  151.98    7.40
  -4   7   0  154.38    7.10
   5  -7   0   36.90    4.40
  -5  -7   0   35.20    4.10
   5   7   0   35.20    4.50
  -5   7   0   32.40    4.00
   5   7   0   34.50    3.90
  -5   7   0   31.00    3.70
  -6  -7   0   22.00    3.60
   6  -7   0   23.50    3.80
  -6  -7   0   26.00    4.00
   6   7   0   25.30    3.60
   6   7   0   20.80    3.70
  -6   7   0   25.70    4.10
  -6   7   0   27.20    3.90
  -7  -7   0   15.70    3.30
   7  -7   0   10.30    3.20
   7   7   0   15.30    3.40
   7   7   0   18.30    3.70
  -7   7   0   14.30    3.40
   8  -7   0   17.90    4.00
   8   7   0   25.00    4.70
   0  -8   0  155.58    7.20
   0  -8   0  148.99    7.00
   0  -8   0  159.78    7.60
   0  -8   0  174.68    7.90
   0   8   0  155.68    5.60
   0   8   0  152.88    7.20
  -1  -8   0  373.76   14.10
   1  -8   0  362.06   13.60
  -1  -8   0  360.26   13.50
  -1  -8   0  369.16   13.70
   1  -8   0  393.66   14.70
   1   8   0  335.57   13.10
  -1   8   0  372.86   11.70
   1   8   0  351.06   11.50
  -1   8   0  360.56   13.30
  -1   8   0  365.66   13.70
   2  -8   0  245.18   10.30
  -2  -8   0  255.47   10.80
  -2  -8   0  244.68   10.10
   2   8   0  237.08   10.00
  -2   8   0  246.88    8.80
   2   8   0  231.28    9.90
  -2   8   0  246.48   10.10
  -2   8   0  255.67   10.60
  -3  -8   0   50.19    4.40
  -3  -8   0   46.70    3.80
   3  -8   0   40.60    4.30
   3   8   0   39.60    3.60
   3   8   0   53.99    4.00
  -3   8   0   43.20    3.20
  -3   8   0   44.90    3.90
  -4  -8   0  349.17   14.10
   4  -8   0  352.66   14.20
   4   8   0  317.57   12.80
   4   8   0  311.27   13.10
  -4   8   0  335.87   12.30
  -5  -8   0   77.59    5.90
   5  -8   0   78.19    5.90
   5   8   0   78.19    5.30
   5   8   0   70.09    5.50
  -5   8   0   64.19    4.90
   6  -8   0  112.79    7.50
  -6  -8   0  128.89    8.10
   6   8   0  118.39    7.40
  -6   8   0  125.99    7.40
   6   8   0  119.59    7.90
   7  -8   0   50.79    6.00
  -7   8   0   67.99    5.90
   7   8   0   57.19    6.60
   0  -9   0   -1.70    0.90
   0  -9   0    2.00    1.30
   0  -9   0   -0.50    0.90
   0   9   0    0.70    0.70
   0   9   0    0.00    1.10
   1  -9   0  286.67   11.50
  -1  -9   0  302.57   11.70
  -1  -9   0  294.77   12.20
   1  -9   0  295.87   12.00
  -1  -9   0  287.77   11.70
   1  -9   0  294.77   11.70
   1   9   0  293.97    9.90
  -1   9   0  312.27   12.40
   1   9   0  286.57   11.70
  -1   9   0  307.47   10.10
  -1   9   0  281.27   11.70
  -2  -9   0  181.78    8.60
  -2  -9   0  196.08    9.00
   2  -9   0  201.18    9.10
  -2  -9   0  198.88    9.40
   2   9   0  186.98    8.80
   2   9   0  186.88    8.80
  -2   9   0  195.78    7.40
  -2   9   0  190.58    8.80
  -3  -9   0   58.39    4.60
  -3  -9   0   56.79    5.10
   3  -9   0   62.69    4.80
   3   9   0   63.69    4.60
   3   9   0   57.29    4.50
  -3   9   0   58.19    4.60
  -3   9   0   57.89    3.70
   4  -9   0    1.50    1.70
  -4  -9   0    0.70    1.20
   4   9   0   -1.40    1.10
  -4   9   0    2.00    1.40
   4   9   0   -1.90    0.90
   5  -9   0    5.20    2.50
  -5  -9   0    8.20    2.50
   5   9   0    7.50    2.20
   5   9   0   10.10    2.90
  -5   9   0    5.60    2.20
   6  -9   0    7.40    2.80
   6   9   0   16.70    3.30
  -6   9   0    8.60    2.90
   6   9   0   16.50    3.20
   7  -9   0   60.19    6.80
   7   9   0   55.39    6.40
  -7   9   0   65.39    6.60
   0 -10   0  269.57   11.40
   0 -10   0  299.17   12.10
   0 -10   0  261.47   11.20
   0  10   0  264.97   11.30
   1 -10   0  198.78    9.00
   1 -10   0  202.88    9.50
  -1 -10   0  204.28    9.70
   1 -10   0  189.98    9.00
  -1 -10   0  190.48    9.00
  -1 -10   0  198.68    9.20
   1  10   0  188.78    8.90
  -1  10   0  193.98    9.10
  -2 -10   0  107.99    6.90
  -2 -10   0  111.99    6.60
   2 -10   0  108.49    6.50
  -2 -10   0  112.09    6.50
   2  10   0   95.99    6.00
  -2  10   0  106.89    6.40
  -3 -10   0   90.69    6.00
   3 -10   0   94.99    6.20
   3  10   0   85.89    5.90
   3  10   0   99.19    6.20
  -3  10   0  104.59    6.50
   4 -10   0   41.30    5.20
  -4 -10   0   50.79    5.30
   4  10   0   48.90    5.20
   4  10   0   48.50    4.30
   5 -10   0   16.30    3.40
  -5 -10   0   21.80    3.90
   5  10   0   17.20    3.50
   5  10   0    9.80    2.80
   6 -10   0    2.50    1.80
   6  10   0   -0.40    1.50
   6  10   0    1.00    2.10
   7 -10   0   31.80    5.50
   7  10   0   22.90    4.20
   0 -11   0   -0.40    1.10
   0 -11   0   -0.40    1.00
   0 -11   0    0.60    1.50
   0  11   0   -1.40    1.10
   1 -11   0   59.89    4.70
  -1 -11   0   70.09    5.60
   1 -11   0   63.69    4.70
   1 -11   0   72.39    5.40
  -1 -11   0   64.69    5.10
  -1 -11   0   61.09    4.70
  -1  11   0   63.19    5.00
   1  11   0   68.29    5.20
  -2 -11   0    6.20    2.00
   2 -11   0    6.60    1.90
   2 -11   0    9.00    2.40
  -2 -11   0    7.30    2.10
  -2  11   0    6.20    2.10
   2  11   0    7.50    2.10
  -3 -11   0  179.88    9.30
   3 -11   0  175.58    9.40
  -3 -11   0  180.08    9.20
  -3  11   0  185.98    9.50
   3  11   0  171.58    9.10
   4 -11   0   70.09    6.90
  -4 -11   0   61.29    5.40
   4  11   0   57.29    6.00
   4  11   0   58.49    5.20
   5 -11   0   37.60    5.10
   5  11   0   40.40    5.10
   5  11   0   57.29    6.10
   6 -11   0   22.40    4.30
   6  11   0   18.00    4.00
   6  11   0   19.70    4.00
   0 -12   0   20.00    3.20
   0 -12   0   30.20    4.40
   0 -12   0   23.00    3.60
   0  12   0   13.50    2.80
   1 -12   0   15.70    2.90
  -1 -12   0   19.30    3.30
  -1 -12   0   19.70    3.40
   1 -12   0   16.20    3.30
   1 -12   0   18.80    3.30
  -1  12   0   14.30    3.20
   1  12   0   10.00    2.60
   2 -12   0   31.40    4.50
   2 -12   0   45.30    4.90
  -2 -12   0   44.00    5.20
  -2 -12   0   45.60    5.00
   2 -12   0   36.10    4.60
   2  12   0   38.60    4.70
  -2  12   0   34.10    4.50
  -3 -12   0   22.30    3.70
  -3 -12   0   30.60    4.40
   3 -12   0   29.00    4.20
   3  12   0   24.50    3.80
  -3  12   0   38.00    5.00
  -4 -12   0   84.79    6.70
   4 -12   0   75.09    6.40
   4  12   0   93.69    6.90
   4  12   0   95.49    7.10
   5 -12   0   39.00    5.30
   5  12   0   44.70    5.80
   5  12   0   35.60    5.40
   6 -12   0   33.10    5.30
   6  12   0   45.50    6.10
   6  12   0   48.50    6.30
   0 -13   0   -0.20    1.30
   0 -13   0    1.50    1.80
   0  13   0   -0.70    1.50
  -1 -13   0   13.70    3.30
  -1 -13   0   16.80    3.10
   1 -13   0   18.30    3.30
   1 -13   0   12.10    2.90
  -1  13   0   11.70    2.90
   1  13   0   13.20    3.10
  -2 -13   0   26.20    4.00
   2 -13   0   16.70    3.10
  -2 -13   0   22.10    3.70
   2 -13   0   22.20    3.70
  -2  13   0   19.50    3.80
   2  13   0   23.20    4.00
  -3 -13   0    9.80    3.00
   3 -13   0    5.80    2.30
   3  13   0    8.30    2.70
  -3  13   0   12.40    3.10
  -4 -13   0   46.30    6.00
   4 -13   0   43.70    5.80
   4  13   0   42.80    5.60
  -5 -13   0    2.60    2.40
   5 -13   0    1.10    2.40
   5  13   0    1.50    2.30
   5  13   0   -0.80    2.50
   0 -14   0    0.30    1.70
   0  14   0    0.70    1.90
   1 -14   0  243.88   12.00
  -1 -14   0  225.78   11.70
  -1  14   0  219.88   11.40
   1  14   0  225.18   11.70
   2 -14   0   10.90    3.10
  -2 -14   0   15.20    3.50
   2  14   0   15.80    3.40
  -2  14   0   14.80    3.60
   3 -14   0  153.38    9.60
  -3 -14   0  150.38    9.40
  -3  14   0  136.79    9.00
   3  14   0  166.48    9.50
   4 -14   0   48.40    6.00
  -4 -14   0   65.59    7.20
   4  14   0   53.89    6.30
   0 -15   0    0.50    2.00
   0  15   0    1.90    2.30
  -1 -15   0    2.00    2.30
   1 -15   0    2.80    2.30
   1  15   0    4.90    2.00
  -1  15   0   -0.40    2.00
  -2 -15   0    2.20    1.70
   2 -15   0    3.30    2.40
   2  15   0    6.20    2.50
  -2  15   0    2.90    2.60
  -3 -15   0    3.50    2.60
  -3  15   0    2.40    2.70
   3  15   0    3.40    2.20
   0 -16   0  122.09    8.90
   0  16   0  120.69    8.70
  -1 -16   0    0.60    2.00
   1 -16   0    4.60    2.70
   1  16   0    2.50    2.40
  -1  16   0    3.20    2.40
   2 -16   0   57.79    9.70
  -2 -16   0   64.09    7.30
  -2  16   0   51.89    6.50
  -9   0   1   26.80    5.00
   9   0  -1   28.80    5.10
   8   0  -1   12.40    3.30
  -8   0   1    7.60    2.90
  -8   0   1    3.50    2.40
  -7   0   1  695.73   24.30
   7   0  -1  678.53   24.40
  -7   0   1  632.64   24.10
   6   0  -1   22.40    2.60
   6   0  -1   22.60    3.50
  -6   0   1   23.30    3.50
  -6   0   1   26.80    3.40
  -5   0   1  203.28    9.30
  -5   0   1  189.08    8.60
  -5   0   1  209.48    8.90
   5   0  -1  200.58    7.70
   5   0  -1  194.48    8.80
   4   0  -1  563.04   18.90
   4   0  -1  569.64   17.80
  -4   0   1  571.94   18.90
  -4   0   1  571.04   18.80
  -4   0   1  565.64   19.40
   3   0  -1 1709.63   51.69
   3   0  -1 1897.71   52.19
  -3   0   1 1709.53   51.69
  -3   0   1 1663.73   52.09
  -3   0   1 1753.22   51.69
   3   0  -1 1743.33   50.79
   2   0  -1 2370.26   67.09
   2   0  -1 2320.87   67.19
  -2   0   1 2264.77   67.19
  -2   0   1 2225.38   67.39
  -2   0   1 2274.07   67.19
   2   0  -1 2424.86   67.49
   2   0  -1 2326.27   66.39
   1   0  -1 1409.56   40.40
  -1   0   1 1381.16   40.50
  -1   0   1 1415.66   40.50
  -1   0   1 1359.66   40.40
   1   0  -1 1433.36   40.40
   1   0  -1 1385.26   40.50
   0   0   1 1157.98   34.80
   0   0   1 1301.47   34.80
   0   0  -1 1188.38   34.70
  -1   0  -1 7967.10  229.58
   1   0   1 7852.81  230.08
   1   0   1 8130.79  229.88
  -1   0  -1 7772.52  230.38
   1   0   1 8180.78  229.88
  -1   0  -1 7749.42  229.28
   2   0   1   30.10    2.30
   2   0   1   31.40    2.10
  -2   0  -1   32.80    2.10
   2   0   1   32.00    2.00
  -2   0  -1   30.90    2.20
  -3   0  -1  627.14   20.60
   3   0   1  656.23   20.90
  -3   0  -1  637.64   21.10
   3   0   1  657.63   20.80
   3   0   1  698.93   21.30
  -3   0  -1  638.24   21.00
   4   0   1  122.49    6.00
   4   0   1  126.29    6.10
  -4   0  -1  126.29    6.10
  -4   0  -1  130.89    6.50
  -4   0  -1  127.49    6.30
  -5   0  -1   18.00    2.90
  -5   0  -1   18.30    3.00
   5   0   1   18.80    2.80
   5   0   1   16.20    2.80
  -6   0  -1   12.00    2.70
   6   0   1   13.00    2.50
  -6   0  -1   12.00    3.10
   6   0   1    8.80    2.30
   7   0   1    2.40    1.90
   7   0   1    7.90    2.20
  -7   0  -1    7.00    2.40
   8   0   1  135.49    9.00
  -8   0  -1  156.88   10.00
   9  -1  -1   58.29    7.10
  -9  -1   1   55.59    7.20
   9   1  -1   56.89    6.40
  -9   1   1   45.80    6.40
   8  -1  -1   22.00    3.80
  -8  -1   1   10.50    3.30
  -8  -1   1   12.60    5.00
  -8   1   1   11.50    3.30
   8   1  -1   11.90    3.20
  -8   1   1   15.20    3.60
   7  -1  -1   36.60    4.60
  -7  -1   1   34.10    4.60
  -7  -1   1   37.30    4.70
  -7   1   1   34.20    4.70
  -7   1   1   30.80    4.30
   7   1  -1   30.30    4.30
   6  -1  -1   28.50    3.00
  -6  -1   1   28.20    3.80
  -6  -1   1   29.20    3.70
   6  -1  -1   25.30    3.50
   6   1  -1   25.00    3.40
  -6   1   1   22.00    3.30
  -6   1   1   29.00    3.70
   6   1  -1   28.40    3.00
  -5  -1   1   37.00    3.30
  -5  -1   1   40.30    3.90
  -5  -1   1   28.80    3.60
   5  -1  -1   37.80    2.60
   5  -1  -1   35.80    3.80
   5   1  -1   37.20    2.70
   5   1  -1   31.10    3.50
  -5   1   1   39.20    3.40
  -5   1   1   23.70    3.20
  -5   1   1   40.60    4.50
  -4  -1   1  331.77   12.30
  -4  -1   1  365.46   12.50
  -4  -1   1  348.57   12.90
   4  -1  -1  339.77   11.40
   4  -1  -1  341.27   12.40
  -4   1   1  345.07   12.80
  -4   1   1  364.46   13.40
  -4   1   1  339.57   12.70
   4   1  -1  366.56   11.80
   4   1  -1  363.46   12.80
  -3  -1   1   99.69    4.90
   3  -1  -1  101.59    4.90
   3  -1  -1  106.69    4.80
  -3  -1   1  101.49    4.60
  -3  -1   1   97.39    4.60
  -3   1   1  104.09    4.80
   3   1  -1  116.49    5.20
   3   1  -1  107.29    4.20
  -3   1   1  106.09    5.10
  -3   1   1  102.79    4.80
   2  -1  -1 1896.91   52.79
  -2  -1   1 1813.82   52.59
   2  -1  -1 1847.82   52.99
  -2  -1   1 1689.13   52.89
   2  -1  -1 1811.22   52.79
  -2  -1   1 1775.22   52.69
  -2   1   1 1806.62   54.29
  -2   1   1 1776.52   54.59
   2   1  -1 1941.01   53.59
   2   1  -1 1804.62   54.19
  -2   1   1 1803.02   54.29
   2   1  -1 1974.50   54.19
   2   1  -1 1905.71   54.49
   1  -1  -1    8.10    0.90
   1  -1  -1   11.10    1.20
  -1  -1   1    8.20    0.80
  -1  -1   1    6.60    0.90
  -1  -1   1    7.30    0.80
   1  -1  -1    8.30    0.90
   1   1  -1    7.40    0.90
   1   1  -1    7.80    0.70
  -1   1   1    8.90    1.10
  -1   1   1    8.70    0.70
  -1   1   1    9.20    0.90
   1   1  -1    6.40    0.80
   1   1  -1    7.50    0.80
  -1   1   1    7.60    1.00
   0  -1  -1 1470.25   43.10
   0  -1  -1 1523.45   43.10
   0  -1   1 1466.15   42.90
   0  -1   1 1473.55   43.20
   0  -1   1 1507.25   42.80
   0  -1   1 1562.64   43.00
   0  -1  -1 1456.45   43.10
   0   1   1 1537.65   43.70
   0   1   1 1508.35   43.50
   0   1  -1 1480.15   43.50
  -1  -1  -1 3333.77   99.39
   1  -1   1 3368.86  100.49
  -1  -1  -1 3444.76   99.59
   1  -1   1 3550.34   99.39
   1  -1   1 3597.84  100.59
  -1  -1  -1 3485.05   99.69
  -1   1  -1 3373.66   99.89
   1   1   1 3387.16   99.99
  -1   1  -1 3523.25   99.89
  -1   1  -1 3380.66   99.69
   1   1   1 3574.24  100.19
   1   1   1 3570.84   99.79
   1   1   1 3525.25   99.89
   2  -1   1  409.06   13.10
   2  -1   1  419.76   12.70
  -2  -1  -1  373.46   12.70
   2  -1   1  391.56   12.80
  -2  -1  -1  384.66   13.00
   2   1   1  423.06   12.60
  -2   1  -1  351.36   12.60
   2   1   1  399.26   12.60
   2   1   1  384.56   12.80
   2   1   1  370.36   12.70
  -2   1  -1  386.16   12.70
  -2   1  -1  401.16   12.60
   3  -1   1  401.66   13.60
  -3  -1  -1  390.36   13.60
  -3  -1  -1  390.46   13.50
   3  -1   1  376.16   13.20
  -3  -1  -1  383.26   13.10
   3   1   1  393.66   13.80
  -3   1  -1  392.96   13.40
  -3   1  -1  400.66   13.90
   3   1   1  386.76   13.40
  -3   1  -1  387.56   13.50
   3   1   1  402.36   13.50
  -4  -1  -1  308.77   12.10
  -4  -1  -1  332.27   12.40
   4  -1   1  321.87   11.90
   4  -1   1  317.27   11.90
  -4  -1  -1  313.97   11.80
   4   1   1  311.87   12.00
  -4   1  -1  334.07   12.40
   4   1   1  329.77   12.20
  -4   1  -1  339.87   12.70
  -4   1  -1  322.97   12.00
  -5  -1  -1   94.89    5.90
  -5  -1  -1   93.19    5.40
   5  -1   1   87.79    5.20
   5  -1   1   81.29    5.20
  -5   1  -1   98.99    5.70
  -5   1  -1   92.99    5.70
   5   1   1   92.79    5.70
   5   1   1   83.19    5.20
  -6  -1  -1  157.08    8.30
   6  -1   1  160.98    8.00
  -6  -1  -1  156.18    8.60
   6  -1   1  158.58    8.40
  -6   1  -1  156.08    8.20
   6   1   1  160.98    8.00
  -6   1  -1  149.69    8.40
   6   1   1  151.58    8.30
  -7  -1  -1  169.48   10.00
   7  -1   1  194.48   10.00
   7  -1   1  179.38    9.10
  -7   1  -1  172.38   10.00
   7   1   1  184.88    9.20
   7   1   1  179.28    9.80
  -8  -1  -1   36.90    5.40
   8  -1   1   29.10    4.70
  -8   1  -1   48.00    6.10
   8   1   1   31.60    4.90
  -9  -2   1   39.80    6.00
   9  -2  -1   41.70    6.00
  -9   2   1   40.20    5.80
   9   2  -1   54.39    6.60
   8  -2  -1  188.98   10.50
  -8  -2   1  192.68   10.70
  -8   2   1  214.68   11.30
   8   2  -1  210.98   11.10
  -8   2   1  178.48   12.60
   7  -2  -1   15.80    3.30
  -7  -2   1   17.20    3.50
  -7  -2   1   17.20    3.20
  -7   2   1   15.80    3.40
  -7   2   1   14.90    3.20
   7   2  -1   17.90    3.30
  -6  -2   1  602.84   21.10
   6  -2  -1  602.84   19.60
  -6  -2   1  573.14   20.90
   6  -2  -1  577.54   21.10
   6   2  -1  591.34   19.50
  -6   2   1  577.64   21.00
   6   2  -1  596.44   21.20
  -6   2   1  577.74   21.10
  -5  -2   1    5.20    1.80
  -5  -2   1    4.40    1.90
   5  -2  -1    4.60    1.30
   5  -2  -1    4.60    1.60
  -5  -2   1    4.40    1.50
   5   2  -1    6.30    1.80
   5   2  -1    4.50    1.30
  -5   2   1    6.80    1.80
  -5   2   1    4.80    1.90
  -5   2   1    5.90    1.80
  -4  -2   1  513.05   17.50
   4  -2  -1  493.45   17.00
  -4  -2   1  474.75   16.70
  -4  -2   1  510.95   16.80
  -4   2   1  530.95   17.70
  -4   2   1  508.95   18.10
  -4   2   1  533.05   17.70
   4   2  -1  512.65   16.60
   4   2  -1  518.85   17.60
   3  -2  -1  302.47   10.70
  -3  -2   1  313.67   10.50
   3  -2  -1  316.37   11.10
  -3  -2   1  293.07   11.00
  -3  -2   1  289.47   10.60
   3   2  -1  307.27   11.00
   3   2  -1  337.47   11.40
  -3   2   1  325.97   11.10
  -3   2   1  299.17   11.00
  -3   2   1  296.37   11.40
   3   2  -1  317.27   10.30
  -2  -2   1  170.38    6.30
  -2  -2   1  172.88    6.10
   2  -2  -1  184.88    6.70
   2  -2  -1  175.78    6.40
  -2  -2   1  161.08    6.50
  -2   2   1  176.58    5.90
   2   2  -1  180.28    6.60
  -2   2   1  169.78    6.40
  -2   2   1  172.58    6.80
   2   2  -1  179.18    6.00
  -2   2   1  176.28    6.50
  -1  -2   1  294.47    9.50
  -1  -2   1  285.47    9.30
  -1  -2   1  299.37    8.90
   1  -2  -1  295.57    9.60
   1  -2  -1  298.97    9.50
   1  -2  -1  300.17    9.40
   1   2  -1  287.77    9.00
   1   2  -1  292.47    9.20
   1   2  -1  292.67    9.10
  -1   2   1  296.37    9.00
  -1   2   1  290.17    9.30
   1   2  -1  300.87    9.10
  -1   2   1  265.77    9.40
   0  -2   1 2819.12   81.19
   0  -2  -1 2849.81   81.49
   0  -2  -1 2886.71   81.49
   0  -2   1 2825.22   81.69
   0  -2   1 2788.32   81.39
   0  -2  -1 2815.22   81.59
   0   2  -1 2701.03   78.59
   0   2  -1 2668.33   78.79
   0   2   1 2832.42   78.79
   1  -2   1  645.34   19.90
   1  -2   1  663.03   19.60
  -1  -2  -1  642.24   19.80
   1  -2   1  671.83   19.70
  -1   2  -1  664.53   19.70
  -1   2  -1  649.04   19.90
   1   2   1  670.13   19.90
  -1   2  -1  631.24   19.70
   1   2   1  667.63   20.00
   1   2   1  668.03   20.10
   1   2   1  656.53   20.10
  -2  -2  -1 1355.16   41.70
   2  -2   1 1397.16   41.80
   2  -2   1 1412.46   41.50
  -2  -2  -1 1375.36   41.50
  -2  -2  -1 1389.26   41.80
   2  -2   1 1470.95   41.50
  -2   2  -1 1323.07   41.60
   2   2   1 1486.75   41.50
   2   2   1 1445.26   41.80
   2   2   1 1378.86   41.70
  -2   2  -1 1388.26   41.40
  -2   2  -1 1367.96   41.40
   2   2   1 1396.86   41.60
  -3  -2  -1  855.31   27.10
   3  -2   1  867.71   27.30
  -3  -2  -1  890.41   27.30
   3  -2   1  832.92   26.80
  -3  -2  -1  859.01   26.80
  -3   2  -1  734.93   26.40
  -3   2  -1  828.22   26.40
   3   2   1  927.31   27.00
   3   2   1  844.42   26.50
   3   2   1  864.51   26.50
  -3   2  -1  870.41   26.40
  -4  -2  -1   72.69    4.40
  -4  -2  -1   77.19    4.70
  -4  -2  -1   79.89    4.90
   4  -2   1   70.69    4.40
  -4   2  -1   77.79    4.90
   4   2   1   71.89    4.40
  -4   2  -1   73.99    4.60
   4   2   1   74.59    4.60
  -4   2  -1   75.49    4.50
   5  -2   1   95.99    5.90
   5  -2   1  116.69    6.20
  -5  -2  -1  113.89    6.20
  -5  -2  -1  113.39    6.50
  -5   2  -1  108.69    6.30
  -5   2  -1  112.99    6.20
   5   2   1   99.29    6.10
   5   2   1  119.39    6.20
   6  -2   1   33.80    4.00
  -6  -2  -1   26.10    3.90
  -6  -2  -1   26.70    3.70
   6  -2   1   27.40    3.70
   6   2   1   24.60    3.40
   6   2   1   25.90    3.70
  -6   2  -1   34.80    4.30
  -6   2  -1   28.80    4.00
   7  -2   1   42.50    4.80
  -7  -2  -1   28.00    4.30
   7  -2   1   32.70    4.60
   7   2   1   28.20    4.00
   7   2   1   28.30    4.20
  -7   2  -1   31.10    4.80
  -8  -2  -1   11.80    3.60
   8  -2   1   12.20    3.20
  -8   2  -1   13.20    3.40
   8   2   1   12.00    3.00
  -8  -3   1   53.19    6.30
   8  -3  -1   53.19    6.50
  -8   3   1   51.59    6.00
   8   3  -1   59.19    6.40
  -7  -3   1   14.50    3.10
   7  -3  -1   16.90    3.20
  -7  -3   1   20.60    3.60
   7   3  -1   16.40    3.50
  -7   3   1   23.70    4.00
  -7   3   1    7.80    2.50
  -6  -3   1  137.59    7.60
   6  -3  -1  145.69    7.80
  -6  -3   1  136.59    7.50
   6  -3  -1  148.59    6.70
  -6   3   1  133.79    7.70
   6   3  -1  141.09    7.80
  -6   3   1  150.18    7.90
   6   3  -1  144.89    6.70
  -5  -3   1    1.60    1.40
  -5  -3   1    3.30    1.50
  -5  -3   1    2.10    1.40
   5  -3  -1    3.60    1.50
   5   3  -1    3.20    1.30
  -5   3   1    5.50    1.80
   5   3  -1    2.10    1.60
  -5   3   1    2.00    1.60
  -5   3   1    2.50    1.50
   4  -3  -1   22.40    2.60
  -4  -3   1   23.90    2.60
  -4  -3   1   20.80    2.90
  -4  -3   1   21.80    2.60
  -4   3   1   22.50    3.00
   4   3  -1   22.50    2.30
   4   3  -1   19.50    2.50
  -4   3   1   19.70    2.50
  -4   3   1   21.60    2.60
  -3  -3   1   37.00    2.90
  -3  -3   1   37.40    2.70
  -3  -3   1   35.80    2.50
   3  -3  -1   36.40    2.80
   3  -3  -1   31.80    2.70
  -3   3   1   38.70    2.80
  -3   3   1   33.70    2.90
   3   3  -1   35.40    2.30
  -3   3   1   37.10    2.80
   3   3  -1   35.40    2.70
  -2  -3   1  455.25   13.90
  -2  -3   1  428.06   14.30
   2  -3  -1  470.35   14.90
  -2  -3   1  450.45   14.70
   2  -3  -1  439.16   14.50
   2   3  -1  462.35   14.30
  -2   3   1  449.16   15.10
   2   3  -1  475.45   14.90
  -2   3   1  455.65   14.70
  -2   3   1  444.56   14.60
   2   3  -1  457.55   14.70
  -2   3   1  459.05   14.30
   1  -3  -1  345.67   11.40
   1  -3  -1  358.86   11.80
  -1  -3   1  361.26   11.60
  -1  -3   1  359.16   10.60
  -1   3   1  340.27   11.70
   1   3  -1  360.36   11.40
  -1   3   1  340.37   11.20
   1   3  -1  361.96   11.30
   1   3  -1  357.46   11.30
   1   3  -1  363.96   11.20
  -1   3   1  358.36   11.20
   0  -3   1  577.74   17.70
   0  -3  -1  552.24   18.00
   0  -3   1  590.94   18.00
   0  -3  -1  599.64   18.20
   0  -3  -1  604.24   18.00
   0  -3   1  592.84   17.70
   0  -3  -1  579.04   17.90
   0   3   1  576.44   17.90
   0   3  -1  580.44   18.00
   0   3  -1  591.54   17.90
   0   3  -1  591.54   16.90
   1  -3   1 4183.28  119.29
  -1  -3  -1 4125.09  119.29
   1  -3   1 4118.49  119.49
   1  -3   1 4282.67  119.19
  -1  -3  -1 4007.00  119.49
  -1   3  -1 4214.58  118.89
   1   3   1 4389.16  119.39
   1   3   1 4087.49  119.49
   1   3   1 4104.39  119.59
  -1   3  -1 3972.00  119.19
   1   3   1 4215.58  119.69
  -1   3  -1 4041.10  119.49
  -2  -3  -1  224.58    8.20
   2  -3   1  235.18    8.10
  -2  -3  -1  210.58    8.30
   2  -3   1  224.18    8.40
   2  -3   1  225.18    8.20
  -2  -3  -1  225.48    8.30
   2   3   1  222.28    8.10
   2   3   1  217.88    8.20
  -2   3  -1  217.58    7.90
  -2   3  -1  205.98    7.70
   2   3   1  222.68    8.20
   3  -3   1  354.46   12.70
  -3  -3  -1  344.47   12.40
  -3  -3  -1  354.56   12.70
  -3  -3  -1  346.47   12.20
   3  -3   1  343.37   12.20
  -3   3  -1  337.27   12.00
   3   3   1  327.27   12.10
   3   3   1  337.47   12.10
   3   3   1  375.16   12.60
  -3   3  -1  331.67   12.30
  -3   3  -1  335.77   12.00
   4  -3   1  402.06   14.30
  -4  -3  -1  382.26   14.10
  -4  -3  -1  398.16   14.50
  -4  -3  -1  397.66   14.60
   4   3   1  402.16   14.50
   4   3   1  379.36   14.20
  -4   3  -1  409.06   14.40
  -4   3  -1  409.46   14.50
  -5  -3  -1    8.10    2.20
   5  -3   1    5.10    1.70
  -5  -3  -1    5.70    1.90
   5   3   1   10.60    2.40
  -5   3  -1    4.30    1.70
   5   3   1    7.40    2.10
  -5   3  -1    7.70    2.10
   6  -3   1    4.70    2.20
   6  -3   1    5.20    2.10
  -6  -3  -1    8.10    2.50
  -6  -3  -1    9.60    2.60
   6   3   1    9.50    2.30
   6   3   1    6.00    2.30
  -6   3  -1    8.00    2.40
  -6   3  -1    8.00    2.20
   7  -3   1   -0.30    1.80
  -7  -3  -1   -1.40    1.90
   7  -3   1   -0.40    1.40
   7   3   1   -1.00    1.60
  -7   3  -1    2.50    1.80
   7   3   1    0.60    2.30
   8  -3   1    0.00    2.10
  -8  -3  -1    1.60    2.20
   8   3   1    0.80    2.20
  -8   3  -1    1.60    2.30
   8  -4  -1    0.90    1.60
  -8  -4   1    2.00    2.20
  -8   4   1    1.90    2.60
   8   4  -1   -3.70    1.10
  -7  -4   1  230.18   11.10
   7  -4  -1  218.58   10.90
  -7  -4   1  205.28   10.50
   7   4  -1  230.58   11.40
  -7   4   1  208.78   11.00
  -7   4   1  252.47   11.70
  -6  -4   1   99.29    6.30
   6  -4  -1   99.19    6.30
  -6  -4   1  101.09    6.10
  -6   4   1  104.69    6.50
  -6   4   1  103.69    6.40
   6   4  -1  104.89    6.50
   6   4  -1  109.09    5.60
  -5  -4   1  467.75   16.50
   5  -4  -1  462.75   16.90
  -5  -4   1  456.45   16.80
  -5  -4   1  466.65   17.40
   5   4  -1  469.05   16.40
   5   4  -1  470.25   17.50
  -5   4   1  504.25   17.70
  -5   4   1  505.25   18.50
  -5   4   1  473.65   17.50
  -4  -4   1  202.78    9.10
  -4  -4   1  216.18    8.40
   4  -4  -1  208.18    8.80
  -4  -4   1  209.78    8.70
   4   4  -1  207.28    8.00
  -4   4   1  214.58    9.40
  -4   4   1  194.28    8.50
  -4   4   1  200.88    8.70
   4   4  -1  218.18    8.80
   3  -4  -1  331.07   11.70
  -3  -4   1  289.87   11.40
   3  -4  -1  307.87   11.20
  -3  -4   1  310.17   11.10
  -3  -4   1  294.37   10.50
  -3   4   1  312.87   11.80
   3   4  -1  314.27   10.80
  -3   4   1  308.27   11.30
  -3   4   1  303.67   11.10
   3   4  -1  317.07   11.30
   2  -4  -1  107.99    5.00
  -2  -4   1  111.59    4.20
  -2  -4   1  112.49    5.20
  -2  -4   1  105.39    4.80
   2  -4  -1  116.99    5.30
   2   4  -1  112.09    4.70
  -2   4   1  104.69    4.60
  -2   4   1  118.39    4.80
  -2   4   1  106.89    5.20
   2   4  -1  103.19    4.80
  -1  -4   1  858.41   26.50
   1  -4  -1  873.91   26.70
   1  -4  -1  864.91   26.30
  -1  -4   1  862.21   26.10
  -1   4   1  862.11   25.80
   1   4  -1  867.91   25.80
  -1   4   1  833.92   26.20
  -1   4   1  841.82   25.50
   1   4  -1  848.72   25.80
   0  -4  -1 1436.06   42.50
   0  -4  -1 1424.16   42.70
   0  -4   1 1429.46   42.60
   0  -4  -1 1489.35   42.90
   0  -4   1 1432.76   42.30
   0  -4   1 1398.56   42.20
   0  -4  -1 1440.46   42.50
   0   4  -1 1387.26   41.80
   0   4   1 1354.26   41.60
   0   4  -1 1477.25   40.30
  -1  -4  -1 1678.43   50.19
  -1  -4  -1 1632.64   50.49
   1  -4   1 1753.12   50.09
   1  -4   1 1734.63   50.49
   1  -4   1 1715.83   50.19
   1   4   1 1691.33   49.80
  -1   4  -1 1645.44   49.70
   1   4   1 1645.04   49.70
   1   4   1 1701.53   49.70
  -1   4  -1 1704.53   48.70
   2  -4   1   23.60    2.00
   2  -4   1   26.50    2.20
   2  -4   1   22.70    2.20
  -2  -4  -1   20.20    2.40
  -2  -4  -1   20.50    2.20
  -2   4  -1   22.90    1.90
   2   4   1   17.20    2.10
   2   4   1   16.60    2.10
   2   4   1   21.40    2.40
  -2   4  -1   15.90    1.70
  -3  -4  -1  525.45   17.80
   3  -4   1  528.95   17.90
  -3  -4  -1  537.15   17.90
   3  -4   1  558.74   18.30
  -3  -4  -1  525.45   18.20
  -3   4  -1  524.55   17.50
   3   4   1  566.14   18.30
  -3   4  -1  517.25   17.60
   3   4   1  535.45   18.00
   3   4   1  516.05   17.80
  -3   4  -1  536.65   18.10
  -4  -4  -1    6.30    1.80
   4  -4   1    6.20    1.70
  -4  -4  -1    5.60    1.60
   4   4   1    7.80    1.80
  -4   4  -1    8.30    1.80
   4   4   1    6.60    1.90
  -4   4  -1    9.90    2.10
  -5  -4  -1  298.67   12.70
  -5  -4  -1  315.77   12.60
   5  -4   1  312.17   12.60
   5   4   1  322.77   13.10
  -5   4  -1  306.17   12.70
   5   4   1  315.47   12.70
  -5   4  -1  333.77   13.00
   6  -4   1    1.30    1.60
  -6  -4  -1    0.10    1.60
  -6  -4  -1    5.20    2.40
   6   4   1    1.50    1.50
   6   4   1    1.50    1.80
  -6   4  -1    2.30    1.50
  -6   4  -1    1.10    1.70
  -7  -4  -1   -0.40    2.00
   7  -4   1    4.40    2.30
   7  -4   1   -1.70    2.20
  -7   4  -1    3.60    2.10
   7   4   1    8.30    2.80
   7   4   1    0.10    1.70
   8  -4   1   -1.70    1.90
  -8  -4  -1    0.60    2.20
  -8   4  -1    6.60    2.60
   8   4   1   -0.30    2.30
   8  -5  -1    1.60    2.10
  -8  -5   1    3.80    2.40
   8   5  -1    7.10    2.60
  -8   5   1   -1.40    2.90
  -7  -5   1   23.10    3.80
   7  -5  -1   33.50    4.60
  -7  -5   1   23.80    4.10
  -7   5   1   24.20    3.90
   7   5  -1   30.50    4.30
  -7   5   1   20.80    3.80
  -6  -5   1   -0.30    1.40
   6  -5  -1    1.00    1.30
  -6  -5   1    0.70    1.50
  -6   5   1    1.50    1.70
  -6   5   1    1.20    1.50
   6   5  -1    1.30    1.50
   6   5  -1    3.40    1.50
   5  -5  -1   28.90    3.70
  -5  -5   1   23.90    3.50
  -5  -5   1   29.20    3.60
  -5  -5   1   29.70    3.20
  -5   5   1   31.50    3.80
  -5   5   1   31.30    3.60
   5   5  -1   27.80    3.60
   5   5  -1   27.90    3.10
  -4  -5   1  249.38   10.80
  -4  -5   1  265.87   10.40
  -4  -5   1  251.37    9.70
   4  -5  -1  257.37   10.50
  -4   5   1  260.57   10.40
  -4   5   1  264.07   10.60
   4   5  -1  262.47    9.90
  -4   5   1  265.67   11.20
   4   5  -1  251.27   10.50
  -3  -5   1   66.49    4.30
  -3  -5   1   56.99    3.70
  -3  -5   1   61.69    3.30
   3  -5  -1   69.89    4.60
   3  -5  -1   58.69    3.90
   3   5  -1   62.59    3.50
  -3   5   1   64.29    3.60
  -3   5   1   59.59    4.10
  -3   5   1   59.49    3.70
  -3   5   1   56.39    3.70
   3   5  -1   54.49    3.70
   2  -5  -1  689.03   22.10
  -2  -5   1  689.93   21.80
  -2  -5   1  684.23   22.30
  -2  -5   1  689.43   20.70
  -2   5   1  698.93   21.30
   2   5  -1  685.03   21.40
  -2   5   1  682.23   21.30
  -2   5   1  668.63   22.10
   2   5  -1  647.54   21.40
   1  -5  -1  343.77   11.80
  -1  -5   1  332.17   11.90
  -1  -5   1  336.47   11.60
   1  -5  -1  361.96   12.30
   1   5  -1  344.97   11.70
   1   5  -1  346.27   11.70
  -1   5   1  351.06   11.70
  -1   5   1  341.97   12.20
  -1   5   1  339.67   11.20
   0  -5  -1 1266.77   37.30
   0  -5  -1 1199.28   36.90
   0  -5  -1 1219.08   36.90
   0  -5  -1 1231.48   37.20
   0  -5   1 1220.78   36.70
   0  -5   1 1230.48   36.70
   0  -5   1 1215.58   37.00
   0  -5   1 1211.38   37.10
   0   5   1 1182.48   35.70
   0   5  -1 1254.17   34.70
   0   5   1 1177.08   36.40
   0   5  -1 1212.88   36.50
  -1  -5  -1  525.65   17.60
   1  -5   1  571.54   17.20
   1  -5   1  552.34   17.70
   1  -5   1  513.65   17.10
  -1  -5  -1  514.75   17.30
   1   5   1  503.95   17.00
  -1   5  -1  522.35   15.80
   1   5   1  560.94   17.40
   1   5   1  501.55   16.90
  -1   5  -1  513.85   17.10
  -2  -5  -1  414.26   14.50
  -2  -5  -1  408.46   14.10
   2  -5   1  430.66   14.50
   2  -5   1  394.36   14.00
   2   5   1  421.26   14.00
  -2   5  -1  329.17   13.60
   2   5   1  442.96   14.30
   2   5   1  412.06   14.10
  -2   5  -1  407.06   13.10
  -3  -5  -1   27.20    3.00
  -3  -5  -1   25.80    3.10
   3  -5   1   31.70    3.50
   3  -5   1   28.40    3.10
  -3   5  -1   21.00    2.60
  -3   5  -1   28.20    2.40
   3   5   1   21.80    2.70
   3   5   1   24.90    2.80
   3   5   1   30.80    3.20
  -3   5  -1   22.90    2.60
  -4  -5  -1  534.35   18.40
   4  -5   1  513.95   18.40
  -4  -5  -1  525.75   18.40
  -4   5  -1  537.35   18.40
   4   5   1  522.05   18.50
  -4   5  -1  528.95   18.20
   4   5   1  529.15   18.70
   5  -5   1  384.36   15.00
  -5  -5  -1  390.06   15.10
  -5  -5  -1  384.56   15.10
   5   5   1  392.96   15.60
  -5   5  -1  406.06   15.20
  -5   5  -1  405.76   15.40
   5   5   1  391.16   15.20
  -6  -5  -1    2.50    2.10
  -6  -5  -1    3.30    2.00
   6  -5   1    4.40    2.20
   6   5   1    5.30    2.40
  -6   5  -1    2.50    1.90
   6   5   1    0.50    1.50
  -7  -5  -1  174.68   10.00
   7  -5   1  165.98    9.60
   7  -5   1  173.08    9.50
  -7   5  -1  183.08    9.90
   7   5   1  181.08   10.20
   7   5   1  169.18    9.20
   8  -5   1   75.49    6.70
   8   5   1   72.69    7.80
  -8   5  -1   97.69    7.70
  -8  -6   1    5.00    2.50
   8  -6  -1   12.90    3.50
  -8   6   1   11.10    3.40
   8   6  -1    3.90    2.70
  -7  -6   1   63.79    5.70
   7  -6  -1   67.79    5.80
  -7  -6   1   63.79    5.40
  -7   6   1   73.09    6.20
  -7   6   1   72.29    5.90
   7   6  -1   72.09    6.10
  -6  -6   1   67.39    5.30
  -6  -6   1   67.39    5.00
   6  -6  -1   61.79    5.20
  -6   6   1   65.19    5.20
   6   6  -1   66.99    4.70
   6   6  -1   62.79    5.50
  -6   6   1   65.99    5.50
  -5  -6   1  305.37   12.60
   5  -6  -1  302.87   12.80
  -5  -6   1  298.97   11.90
  -5  -6   1  318.87   13.50
   5   6  -1  314.77   11.90
  -5   6   1  308.37   12.50
   5   6  -1  302.97   12.70
  -5   6   1  298.77   12.60
  -4  -6   1   55.09    4.50
  -4  -6   1   57.59    4.10
  -4  -6   1   53.89    3.60
   4  -6  -1   55.09    4.20
   4   6  -1   54.39    3.70
   4   6  -1   55.29    4.10
  -4   6   1   60.69    4.10
  -4   6   1   52.19    4.60
  -4   6   1   56.79    4.00
  -3  -6   1   14.80    2.50
  -3  -6   1   15.90    2.30
   3  -6  -1   13.90    2.30
  -3  -6   1   16.60    1.90
  -3   6   1   16.90    2.80
   3   6  -1   12.90    2.00
  -3   6   1   14.40    2.10
  -3   6   1   15.40    2.20
   3   6  -1   15.00    2.30
  -2  -6   1   81.29    4.40
   2  -6  -1   84.09    4.70
  -2  -6   1   91.29    5.00
  -2   6   1   90.09    4.30
  -2   6   1   82.49    4.40
   2   6  -1   86.19    4.50
   2   6  -1   84.19    4.50
  -2   6   1   92.39    5.10
   1  -6  -1    7.70    1.90
  -1  -6   1    7.20    1.40
  -1  -6   1    6.50    1.60
  -1  -6   1    7.50    1.60
  -1  -6   1    8.70    1.60
   1  -6  -1   11.40    1.80
  -1   6   1    7.70    1.70
  -1   6   1    9.90    1.80
   1   6  -1   10.30    1.80
  -1   6   1    9.10    1.40
   0  -6   1 1777.42   50.89
   0  -6   1 1706.13   50.29
   0  -6  -1 1672.63   50.49
   0  -6  -1 1646.94   50.79
   0  -6  -1 1637.94   50.39
   0  -6   1 1690.63   50.29
   0  -6   1 1691.83   50.69
   0   6   1 1561.84   47.30
   0   6  -1 1590.84   48.40
   0   6  -1 1710.83   46.20
   0   6   1 1574.04   48.20
   1  -6   1   12.60    2.00
  -1  -6  -1   16.90    2.20
  -1  -6  -1   13.00    2.00
  -1  -6  -1   14.40    2.00
   1  -6   1   16.50    2.00
   1   6   1   18.70    2.40
  -1   6  -1   17.90    1.30
  -1   6  -1   19.30    2.40
   1   6   1   12.50    1.90
  -1   6  -1   17.10    2.20
   1   6   1   16.00    2.20
  -2  -6  -1  357.16   13.30
   2  -6   1  352.06   12.70
   2  -6   1  361.26   13.10
  -2  -6  -1  346.07   12.70
  -2   6  -1  350.06   12.60
  -2   6  -1  338.17   11.40
   2   6   1  367.66   12.90
   2   6   1  331.77   12.50
   2   6   1  328.37   12.50
  -3  -6  -1  702.43   23.50
   3  -6   1  708.73   23.50
  -3  -6  -1  732.53   24.20
   3   6   1  706.13   23.70
  -3   6  -1  708.43   22.70
   3   6   1  728.33   23.90
  -4  -6  -1  127.99    6.70
   4  -6   1  118.99    6.60
   4   6   1  122.39    6.70
  -4   6  -1  130.29    6.60
   4   6   1  128.99    6.80
  -4   6  -1  120.89    6.30
  -5  -6  -1   19.50    3.30
   5  -6   1   19.30    3.10
  -5   6  -1   26.80    3.60
   5   6   1   23.20    3.50
   5   6   1   21.30    3.20
  -5   6  -1   26.00    3.50
   6  -6   1   13.40    3.20
  -6  -6  -1   17.70    3.50
   6   6   1    9.90    2.60
  -6   6  -1   15.30    3.00
   6   6   1   15.40    2.90
   7  -6   1    5.90    2.40
  -7   6  -1    5.50    2.90
   7   6   1   14.30    3.20
   7   6   1   12.70    3.30
  -8  -7   1    6.50    2.80
   8  -7  -1    1.90    2.40
  -8   7   1   11.40    3.40
   8   7  -1    7.30    3.40
   7  -7  -1   56.59    6.20
  -7  -7   1   60.49    6.00
  -7   7   1   63.49    6.50
   7   7  -1   67.09    6.90
  -7   7   1   49.20    6.00
  -6  -7   1   12.80    3.00
   6  -7  -1   13.30    3.00
  -6  -7   1   15.40    3.00
  -6   7   1   10.50    3.00
   6   7  -1   15.70    2.90
  -6   7   1   14.30    2.90
   6   7  -1    7.20    2.40
  -5  -7   1    8.40    2.20
   5  -7  -1    9.30    2.40
  -5  -7   1    8.20    2.00
  -5   7   1   13.70    2.50
   5   7  -1   10.20    2.20
  -5   7   1    8.40    2.40
   5   7  -1    7.80    2.20
  -4  -7   1  149.69    8.00
  -4  -7   1  153.58    7.50
  -4  -7   1  138.09    6.30
   4  -7  -1  137.39    7.30
  -4   7   1  142.19    6.90
   4   7  -1  130.29    6.60
   4   7  -1  131.19    7.00
  -3  -7   1  234.98    9.80
   3  -7  -1  235.98    9.90
  -3  -7   1  245.98   10.50
   3   7  -1  236.58    9.90
  -3   7   1  247.78    9.60
  -3   7   1  258.07   10.90
   3   7  -1  236.48    9.80
  -3   7   1  255.77   10.00
  -2  -7   1   84.19    4.70
   2  -7  -1   83.69    4.80
  -2  -7   1   80.39    5.00
   2   7  -1   81.49    4.60
   2   7  -1   85.29    4.70
  -2   7   1   88.19    5.30
  -2   7   1   85.59    4.40
  -2   7   1   89.79    4.80
  -1  -7   1  615.24   20.60
  -1  -7   1  624.04   20.50
  -1  -7   1  671.33   21.20
  -1  -7   1  629.44   21.00
   1  -7  -1  600.24   20.60
   1   7  -1  636.94   18.50
  -1   7   1  615.94   20.60
   1   7  -1  626.94   20.70
  -1   7   1  631.04   19.70
  -1   7   1  636.54   21.30
   0  -7  -1   54.39    3.80
   0  -7  -1   50.99    3.50
   0  -7   1   54.89    3.50
   0  -7  -1   50.29    3.60
   0  -7   1   54.49    3.50
   0  -7   1   57.79    3.90
   0  -7   1   47.90    3.60
   0   7   1   51.49    3.50
   0   7   1   48.90    2.70
   0   7  -1   50.19    3.50
   0   7  -1   52.59    1.90
   1  -7   1   49.20    3.40
  -1  -7  -1   60.69    4.10
  -1  -7  -1   42.90    3.30
  -1  -7  -1   54.09    3.60
  -1   7  -1   48.70    2.30
   1   7   1   49.10    3.50
  -1   7  -1   52.89    3.70
  -1   7  -1   51.29    3.70
  -2  -7  -1   19.00    2.90
  -2  -7  -1   19.10    2.60
   2  -7   1   19.30    2.60
  -2   7  -1   16.00    2.40
   2   7   1   21.30    2.80
   2   7   1   15.20    2.40
  -2   7  -1   20.60    2.80
  -2   7  -1   21.70    1.80
  -3  -7  -1  117.19    6.30
   3  -7   1  113.39    6.20
  -3  -7  -1  125.19    7.20
   3   7   1  108.79    6.10
  -3   7  -1  119.89    5.50
   3   7   1  112.49    6.30
  -4  -7  -1  450.15   16.90
   4  -7   1  450.75   16.90
   4   7   1  459.65   17.00
  -4   7  -1  458.25   16.10
   4   7   1  438.96   17.00
   5  -7   1   25.10    3.80
  -5  -7  -1   28.30    3.80
  -5   7  -1   30.80    3.70
  -5   7  -1   28.20    3.70
   5   7   1   30.70    4.10
   5   7   1   33.30    4.20
  -6  -7  -1  135.39    8.50
   6  -7   1  143.39    8.40
   6   7   1  138.59    7.90
   6   7   1  123.19    8.00
  -6   7  -1  141.49    8.00
   7  -7   1   28.80    4.70
   7   7   1   22.10    3.90
   7   7   1   29.00    4.40
  -7   7  -1   30.00    4.30
   8  -8  -1   11.60    3.30
  -8   8   1   18.20    4.30
   8   8  -1   13.40    3.60
   7  -8  -1   11.20    3.10
  -7  -8   1   10.30    2.80
  -7   8   1    9.50    3.20
   7   8  -1    9.80    2.90
  -6  -8   1   80.19    6.20
  -6  -8   1   76.79    5.40
   6  -8  -1   85.29    6.30
  -6   8   1   86.89    6.20
   6   8  -1   85.29    5.70
   6   8  -1   70.49    6.00
  -5  -8   1   20.60    3.30
  -5  -8   1   21.90    3.00
   5  -8  -1   20.10    3.30
  -5   8   1   25.70    3.50
   5   8  -1   22.30    3.60
   5   8  -1   25.90    3.60
  -4  -8   1   91.09    6.20
  -4  -8   1   74.59    5.20
   4  -8  -1   73.09    5.40
   4   8  -1   77.09    5.30
   4   8  -1   75.59    4.90
  -4   8   1   69.99    4.70
  -3  -8   1  614.24   21.10
  -3  -8   1  577.14   20.20
   3  -8  -1  554.14   20.30
   3   8  -1  576.64   20.50
  -3   8   1  588.14   21.30
  -3   8   1  601.34   19.80
   3   8  -1  593.24   20.40
  -3   8   1  614.74   20.50
  -2  -8   1   71.39    4.50
  -2  -8   1   73.49    5.00
   2  -8  -1   73.09    4.60
  -2   8   1   71.89    4.00
   2   8  -1   76.19    4.60
   2   8  -1   75.49    4.70
  -2   8   1   84.09    5.30
  -2   8   1   70.19    4.60
  -1  -8   1  223.88    9.10
  -1  -8   1  224.38    9.10
   1  -8  -1  221.18    9.20
  -1  -8   1  226.38    9.60
   1  -8  -1  209.38    9.00
   1   8  -1  236.88    7.00
  -1   8   1  211.78    9.70
  -1   8   1  210.78    9.00
  -1   8   1  224.78    8.10
   1   8  -1  206.68    9.00
   0  -8  -1  245.18   10.00
   0  -8  -1  243.38    9.90
   0  -8   1  250.97    9.90
   0  -8   1  277.27   11.50
   0  -8  -1  247.98   10.40
   0  -8   1  251.67    9.80
   0  -8   1  237.98   10.10
   0   8   1  234.08    8.50
   0   8   1  229.08    9.60
   0   8  -1  255.97    7.90
   0   8  -1  241.88    9.90
   1  -8   1    2.20    1.10
  -1  -8  -1    2.90    1.40
  -1  -8  -1    1.50    1.10
  -1  -8  -1    1.40    1.20
   1  -8   1    1.80    1.10
   1   8   1    0.50    1.20
  -1   8  -1    4.30    1.40
  -1   8  -1    2.80    1.40
  -1   8  -1    1.80    0.70
   2  -8   1  347.57   13.30
  -2  -8  -1  339.67   13.20
  -2  -8  -1  356.96   13.90
  -2   8  -1  332.87   11.20
   2   8   1  325.67   12.90
  -2   8  -1  345.67   13.20
   2   8   1  334.57   13.00
   3  -8   1   16.10    2.60
  -3  -8  -1   18.20    2.80
  -3   8  -1   16.00    2.20
   3   8   1   12.50    2.50
   3   8   1   12.90    2.50
   4  -8   1  179.48    9.00
  -4  -8  -1  189.38    9.20
  -4   8  -1  193.48    8.30
   4   8   1  184.78    9.20
   4   8   1  190.48    9.30
  -5  -8  -1   64.29    5.40
   5  -8   1   57.19    5.10
   5   8   1   59.79    5.20
  -5   8  -1   71.59    4.90
   5   8   1   60.69    5.40
   6  -8   1   43.00    5.20
  -6  -8  -1   64.09    6.60
   6   8   1   52.59    5.80
  -6   8  -1   50.09    5.40
   6   8   1   51.39    5.50
   7  -8   1   23.90    4.60
  -7   8  -1   24.50    4.40
   7   8   1   33.90    7.10
   7   8   1   26.50    4.50
   7  -9  -1   45.50    5.90
  -7   9   1   49.70    5.80
   7   9  -1   39.70    5.60
   6  -9  -1   14.80    3.40
   6   9  -1   10.60    3.10
  -6   9   1   11.70    3.10
   6   9  -1   13.20    3.00
  -5  -9   1  163.98    8.80
   5  -9  -1  151.58    8.70
   5   9  -1  165.58    9.10
  -5   9   1  171.08    8.60
   5   9  -1  179.98    8.70
   4  -9  -1  160.78    8.70
  -4  -9   1  167.38    9.40
  -4  -9   1  168.98    8.60
   4   9  -1  162.98    8.50
   4   9  -1  169.08    8.30
  -4   9   1  166.88    8.00
  -3  -9   1  188.98    8.80
  -3  -9   1  195.18    9.50
   3  -9  -1  175.08    8.90
   3   9  -1  175.78    8.30
  -3   9   1  150.58    8.00
  -3   9   1  189.78    7.80
   3   9  -1  176.88    8.40
  -2  -9   1    2.10    1.40
   2  -9  -1    2.00    1.20
  -2  -9   1   -0.50    1.10
  -2  -9   1    0.20    1.20
  -2   9   1    2.60    1.20
   2   9  -1    1.00    1.20
  -2   9   1    1.50    1.70
  -2   9   1    1.40    1.40
  -1  -9   1  324.17   13.10
   1  -9  -1  330.37   12.80
  -1  -9   1  332.37   12.70
  -1  -9   1  328.87   12.60
   1  -9  -1  306.37   12.40
   1  -9  -1  347.47   13.20
  -1   9   1  319.77   12.70
   1   9  -1  335.47   12.90
  -1   9   1  330.47   11.40
   0  -9   1  181.28    8.60
   0  -9  -1  176.78    8.20
   0  -9  -1  176.88    8.10
   0  -9   1  180.08    8.10
   0  -9  -1  188.78    8.60
   0  -9   1  169.98    7.90
   0   9   1  178.78    8.30
   0   9  -1  179.98    8.50
   0   9   1  185.58    7.00
   1  -9   1   74.19    4.80
   1  -9   1   77.99    4.80
  -1  -9  -1   82.79    5.10
  -1  -9  -1   76.39    5.10
  -1  -9  -1   89.89    5.70
   1   9   1   79.59    5.10
   1   9   1   76.89    4.00
  -2  -9  -1  133.39    7.00
  -2  -9  -1  138.19    7.30
   2  -9   1  130.39    7.10
  -2   9  -1  130.09    7.10
   2   9   1  135.09    7.10
   2   9   1  130.89    7.00
   3  -9   1  207.18    9.80
  -3  -9  -1  215.78    9.90
   3   9   1  224.98   10.10
   3   9   1  196.98    9.70
  -4  -9  -1   44.40    4.90
   4  -9   1   32.10    4.20
   4   9   1   42.90    5.00
   4   9   1   43.90    4.80
  -5  -9  -1  141.89    8.50
   5  -9   1  149.19    8.60
   5   9   1  138.69    8.30
   5   9   1  143.29    8.40
   6  -9   1   53.39    6.10
   6   9   1   56.49    6.40
   6   9   1   44.80    5.50
   7  -9   1   13.10    3.60
   7   9   1   12.70    3.80
   7   9   1   22.10    4.20
   7 -10  -1    4.20    2.60
   7  10  -1    1.10    3.20
   6 -10  -1   39.60    5.40
   6  10  -1   35.70    4.90
   6  10  -1   42.00    5.70
  -6  10   1   39.20    4.80
   5 -10  -1   74.69    6.20
  -5 -10   1   76.39    6.10
  -5  10   1   70.29    5.40
   5  10  -1   74.79    5.80
   5  10  -1   79.39    6.30
   4 -10  -1  125.09    7.80
  -4 -10   1  130.19    7.60
  -4  10   1  140.49    7.80
   4  10  -1  132.49    7.60
  -4  10   1  143.89    7.10
   4  10  -1  120.09    7.30
  -3 -10   1   68.29    5.60
   3 -10  -1   54.39    4.80
  -3 -10   1   57.99    4.70
  -3  10   1   54.39    4.50
   3  10  -1   49.00    4.40
  -3  10   1   61.99    4.20
   3  10  -1   50.89    4.50
  -2 -10   1  234.08   10.30
   2 -10  -1  222.88   10.40
  -2 -10   1  225.48   10.40
  -2 -10   1  256.87   11.20
  -2  10   1  219.48   10.00
   2  10  -1  217.18   10.00
  -2  10   1  233.38    8.90
   1 -10  -1  194.28    9.30
  -1 -10   1  192.78    9.30
   1 -10  -1  183.68    8.90
  -1 -10   1  193.88    8.80
  -1 -10   1  192.18    8.90
   1 -10  -1  177.48    8.70
   1  10  -1  169.08    8.50
  -1  10   1  173.28    8.50
  -1  10   1  196.78    7.40
   0 -10  -1  305.17   12.50
   0 -10  -1  282.97   11.90
   0 -10   1  294.07   11.70
   0 -10   1  292.27   12.20
   0 -10   1  276.67   11.70
   0 -10  -1  270.87   11.70
   0  10   1  273.67   11.70
   0  10  -1  283.47   11.90
   0  10   1  288.47   10.00
   1 -10   1  177.28    8.50
   1 -10   1  171.58    8.20
  -1 -10  -1  177.68    8.60
   1 -10   1  175.58    8.70
  -1 -10  -1  182.38    8.60
   1  10   1  180.88    7.20
   1  10   1  177.28    8.70
  -1  10  -1  175.88    8.80
  -2 -10  -1   31.90    3.90
  -2 -10  -1   34.40    4.00
   2 -10   1   30.10    3.80
  -2  10  -1   31.60    4.10
   2  10   1   28.90    3.70
   3 -10   1   30.60    4.20
  -3 -10  -1   28.70    4.10
   3  10   1   27.40    3.80
   3  10   1   32.20    4.20
   4 -10   1   65.09    5.50
  -4 -10  -1   78.89    6.00
   4  10   1   60.29    5.30
   4  10   1   68.09    5.60
  -5 -10  -1   23.10    4.30
   5 -10   1   22.30    3.90
   5  10   1   17.70    3.50
   5  10   1   23.70    3.90
   6 -10   1   53.89    6.30
   6  10   1   51.29    6.30
   6  10   1   56.39    6.20
   6 -11  -1   55.09    6.50
   6  11  -1   60.29    6.70
   6  11  -1   56.09    6.10
   5 -11  -1   21.70    3.90
   5  11  -1   16.30    3.50
   5  11  -1   23.90    4.20
   4 -11  -1  136.99    8.20
  -4 -11   1  120.39    7.70
  -4  11   1  121.19    7.60
   4  11  -1  120.49    7.40
   4  11  -1  130.59    7.40
   3 -11  -1  167.38    9.20
  -3 -11   1  168.48    9.00
  -3 -11   1  179.28    9.10
  -3  11   1  159.18    8.50
   3  11  -1  159.88    8.50
  -2 -11   1   18.00    3.20
  -2 -11   1   15.40    3.10
   2 -11  -1   14.60    2.80
   2 -11  -1   11.80    2.40
  -2 -11   1   10.80    2.30
   2  11  -1   10.00    2.40
  -2  11   1   12.60    2.60
   1 -11  -1  117.89    6.90
   1 -11  -1  131.89    7.40
  -1 -11   1  126.59    7.10
  -1 -11   1  138.09    7.90
  -1 -11   1  129.59    7.20
  -1  11   1  124.09    7.30
   1  11  -1  130.79    7.30
   0 -11  -1  280.47   12.00
   0 -11   1  290.67   12.30
   0 -11   1  294.27   12.00
   0 -11   1  281.57   12.50
   0 -11  -1  298.47   12.40
   0  11   1  281.37   12.40
   0  11  -1  299.37   12.70
   1 -11   1  106.89    6.40
   1 -11   1  100.19    6.60
  -1 -11  -1   99.69    6.30
   1 -11   1  101.39    6.10
  -1 -11  -1  106.49    6.60
  -1  11  -1   91.69    6.20
   1  11   1  104.39    6.50
   2 -11   1  212.88   10.30
  -2 -11  -1  215.98   10.40
   2 -11   1  208.58    9.70
  -2 -11  -1  204.68   10.00
  -2  11  -1  195.78   10.00
   2  11   1  209.18   10.10
  -3 -11  -1   12.60    2.80
  -3 -11  -1   14.90    3.10
   3 -11   1   15.40    3.10
   3  11   1    7.40    2.70
   4 -11   1  122.39    7.80
  -4 -11  -1  130.89    8.20
   4  11   1  132.59    8.20
   4  11   1  133.09    8.10
   5 -11   1  110.29    7.80
   5  11   1  120.09    8.00
   5  11   1  106.79    7.70
   6 -11   1    2.90    2.60
   6  11   1    0.50    2.70
   6  11   1    3.10    2.30
   6 -12  -1   33.70    5.40
   6  12  -1   43.30    5.30
   6  12  -1   33.30    5.30
   5 -12  -1   99.29    7.60
   5  12  -1   85.09    6.80
   5  12  -1  101.69    7.60
  -4 -12   1   17.80    3.60
   4 -12  -1    7.90    2.80
   4  12  -1   20.70    3.60
   4  12  -1    9.60    3.00
  -4  12   1   10.30    3.00
  -3 -12   1  258.27   12.30
   3 -12  -1  263.47   12.50
  -3 -12   1  258.57   12.10
  -3  12   1  269.77   12.30
   3  12  -1  262.57   12.20
  -2 -12   1    2.30    1.50
   2 -12  -1    0.70    1.60
   2 -12  -1    3.30    1.60
  -2 -12   1    1.90    1.90
  -2 -12   1    2.30    1.20
  -2  12   1   -0.30    1.50
   2  12  -1    1.50    1.60
  -1 -12   1  127.19    7.70
  -1 -12   1  159.18    8.20
  -1 -12   1  165.48    9.00
   1 -12  -1  146.19    8.20
   1 -12  -1  133.09    7.80
   1  12  -1  131.89    7.60
  -1  12   1  131.49    7.60
   0 -12   1   19.20    3.00
   0 -12   1   13.30    2.90
   0 -12   1   18.20    3.30
   0 -12  -1   18.20    3.20
   0 -12  -1   15.10    2.90
   0  12   1   22.70    3.80
   0  12  -1   22.30    3.60
  -1 -12  -1   78.49    5.70
   1 -12   1   79.49    5.60
   1 -12   1   87.19    6.20
   1 -12   1   80.19    5.90
  -1 -12  -1   79.89    5.80
  -1  12  -1   70.79    5.70
   1  12   1   77.79    5.70
  -2 -12  -1   85.79    6.20
   2 -12   1   75.69    5.60
  -2 -12  -1   83.79    6.20
   2 -12   1   87.39    6.40
   2 -12   1   79.19    6.20
  -2  12  -1   62.59    5.70
   2  12   1   79.59    5.90
   3 -12   1    3.10    2.10
  -3 -12  -1    1.10    1.60
  -3 -12  -1    3.20    2.20
   3  12   1   -1.00    1.20
   4 -12   1   23.10    3.90
  -4 -12  -1   20.30    4.00
   4  12   1   19.80    3.60
   4  12   1   34.20    5.10
   5 -12   1  122.79    8.50
   5  12   1  101.19    7.70
   5  12   1  114.19    7.80
  -5 -13   1   17.20    3.80
   5 -13  -1   14.90    3.50
   5  13  -1   17.80    4.30
   5  13  -1    5.70    3.00
  -4 -13   1    6.50    2.70
   4 -13  -1    1.90    1.90
   4  13  -1   10.10    3.10
  -4  13   1    3.40    2.40
  -3 -13   1   16.80    3.50
   3 -13  -1   28.60    4.70
   3  13  -1   20.00    3.80
  -3  13   1   27.00    4.40
   2 -13  -1    5.30    2.30
   2 -13  -1    6.00    2.50
  -2 -13   1    2.90    1.80
  -2 -13   1    6.20    2.40
  -2  13   1    5.60    2.60
   2  13  -1    5.10    2.30
  -1 -13   1  149.19    8.30
  -1 -13   1  143.89    8.30
  -1 -13   1  169.98   14.30
   1 -13  -1  140.59    8.50
   1 -13  -1  135.19    8.00
   1  13  -1  146.89    8.40
  -1  13   1  135.69    8.30
   0 -13   1    3.80    2.10
   0 -13   1    0.80    1.70
   0 -13   1    0.90    1.50
   0 -13  -1    2.60    1.70
   0 -13  -1    1.70    1.70
   0  13  -1    6.10    2.60
   0  13   1    5.50    2.40
  -1 -13  -1    4.10    1.80
  -1 -13  -1    1.20    1.60
   1 -13   1    0.90    1.80
   1 -13   1    1.10    1.60
   1 -13   1    1.20    1.70
  -1  13  -1   -0.30    1.70
   1  13   1    6.90    2.30
  -2 -13  -1   48.50    5.60
   2 -13   1   56.99    6.10
   2 -13   1   60.59    5.80
  -2 -13  -1   56.89    6.10
  -2  13  -1   44.90    5.50
   2  13   1   60.29    6.20
   3 -13   1    3.70    2.60
  -3 -13  -1   -1.00    1.90
   3  13   1    7.80    2.50
  -4 -13  -1   79.39    7.20
   4 -13   1   82.49    6.90
   4  13   1   94.89    7.10
   5 -13   1    2.00    2.50
  -5 -13  -1    2.90    3.50
   5  13   1   -0.40    2.00
  -4 -14   1  182.08   10.80
   4 -14  -1  193.38   11.20
   4  14  -1  192.68   10.90
  -4  14   1  172.38   10.40
  -3 -14   1   60.29    6.60
   3 -14  -1   59.69    6.60
   3  14  -1   65.19    6.80
  -3  14   1   63.99    6.80
  -2 -14   1  246.38   12.30
   2 -14  -1  259.57   12.70
  -2  14   1  242.38   12.50
   2  14  -1  279.57   13.10
   1 -14  -1   35.50    4.90
  -1 -14   1   36.00    4.90
   1  14  -1   41.50    5.20
  -1  14   1   35.50    5.10
   0 -14  -1   46.30    5.50
   0 -14   1   59.09    6.40
   0  14   1   37.50    5.10
   0  14  -1   53.79    6.30
  -1 -14  -1   36.30    4.90
   1 -14   1   30.00    4.60
  -1  14  -1   31.20    4.70
   1  14   1   30.70    4.90
  -2 -14  -1   14.60    3.30
   2 -14   1   14.80    3.70
   2  14   1   18.60    4.00
  -2  14  -1   13.20    3.40
   3 -14   1   63.69    7.10
  -3 -14  -1   68.19    7.10
   3  14   1   62.79    6.70
  -4 -14  -1   68.59    7.60
   4 -14   1   91.09    7.40
   4  14   1   74.99    6.60
  -3 -15   1   45.40    6.00
   3 -15  -1   54.39    6.70
   3  15  -1   55.89    6.60
  -3  15   1   37.00    5.60
  -2 -15   1  109.99    7.80
   2 -15  -1  100.09    7.80
  -2  15   1  100.49    7.60
   2  15  -1   98.29    7.40
  -1 -15   1   48.70    5.90
   1 -15  -1   43.70    5.60
  -1  15   1   44.50    5.80
   0 -15   1   92.99    7.20
   0 -15  -1   94.19    7.30
   0  15   1   90.89    7.30
   0  15  -1   93.19    7.50
  -1 -15  -1   16.90    3.90
   1 -15   1   17.60    3.80
  -1  15  -1   19.80    4.10
   1  15   1   27.10    4.70
   2 -15   1  138.39    9.30
  -2 -15  -1  148.39    9.60
   2  15   1  116.19    8.60
  -2  15  -1  131.09    9.00
   3 -15   1   16.60    4.00
  -3 -15  -1   23.70    5.00
   3  15   1   20.20    4.20
  -2 -16   1    3.90    2.20
   2 -16  -1    9.40    3.30
   2  16  -1   10.90    3.60
  -2  16   1    7.70    3.20
   1 -16  -1   38.70    5.60
  -1  16   1   35.50    5.40
   0 -16  -1   17.70    3.70
   0 -16   1   11.70    3.40
   0  16   1   15.50    4.00
   0  16  -1   20.20    4.40
   1 -16   1   16.90    3.90
  -1 -16  -1    9.90    3.60
   1  16   1   11.80    3.80
  -1  16  -1   10.30    3.50
   9   0  -2    4.20    2.80
  -9   0   2    2.90    2.90
   8   0  -2   20.10    4.10
  -8   0   2   20.10    4.00
  -8   0   2   28.70    5.30
  -7   0   2   37.90    4.60
  -7   0   2   37.20    4.60
   7   0  -2   46.60    5.10
  -6   0   2  149.49    7.80
  -6   0   2  151.18    8.40
   6   0  -2  142.29    7.50
   5   0  -2   57.69    3.00
   5   0  -2   56.79    4.10
  -5   0   2   62.39    4.10
  -5   0   2   61.49    4.60
  -5   0   2   59.19    4.30
  -4   0   2   55.59    3.90
   4   0  -2   59.79    2.60
  -4   0   2   55.09    3.60
  -4   0   2   55.59    3.70
   4   0  -2   58.99    3.70
   3   0  -2  153.28    6.30
  -3   0   2  164.38    6.50
   3   0  -2  172.58    5.10
  -3   0   2  156.68    6.40
  -3   0   2  163.28    6.80
   2   0  -2    9.50    1.20
   2   0  -2    8.40    1.30
  -2   0   2   10.10    1.40
  -2   0   2    8.40    1.20
  -2   0   2    6.20    1.10
  -1   0   2 1116.89   31.60
  -1   0   2 1065.79   32.00
   1   0  -2 1131.09   31.70
   1   0  -2 1111.49   31.60
  -1   0   2 1054.19   31.70
  -1   0   2 1062.79   31.50
   1   0  -2 1078.89   31.50
   0   0   2    2.90    0.40
   0   0  -2    4.10    0.40
   0   0  -2    3.10    0.30
   0   0   2    2.90    0.40
   0   0  -2    3.50    0.40
   0   0   2    3.20    0.80
   1   0   2  983.20   30.40
   1   0   2 1028.70   29.50
   1   0   2 1034.10   29.60
  -1   0  -2 1024.50   29.70
  -1   0  -2  992.00   29.60
   1   0   2  990.80   29.80
   2   0   2  378.56   12.60
   2   0   2  380.26   13.30
   2   0   2  417.56   12.50
  -2   0  -2  380.96   13.10
  -2   0  -2  382.96   12.50
  -2   0  -2  390.76   12.80
   2   0   2  382.66   12.90
  -3   0  -2   70.79    3.80
  -3   0  -2   70.09    4.10
  -3   0  -2   64.89    4.10
   3   0   2   66.09    4.10
   3   0   2   70.09    4.10
   3   0   2   75.69    3.80
   3   0   2   69.49    3.90
   4   0   2  104.69    5.50
  -4   0  -2   99.19    5.80
   4   0   2  104.79    5.90
  -4   0  -2  106.59    5.50
   5   0   2  148.19    7.60
  -5   0  -2  151.58    7.60
  -5   0  -2  155.08    8.00
   5   0   2  146.79    7.70
   6   0   2    0.10    1.50
   6   0   2    3.90    1.90
  -6   0  -2    0.60    1.80
  -7   0  -2   11.30    3.60
   7   0   2    7.60    2.60
   7   0   2    8.10    3.00
   8   0   2   71.79    7.50
  -8   0  -2   75.59    8.10
  -9  -1   2   40.00    5.70
   9  -1  -2   41.00    5.70
  -9   1   2   33.30    5.30
   9   1  -2   52.09    6.40
   8  -1  -2   12.60    3.40
  -8  -1   2   17.40    3.60
   8   1  -2   14.80    3.80
  -8   1   2   15.30    3.50
  -8   1   2   14.30    3.80
  -7  -1   2    9.90    2.80
   7  -1  -2   12.50    3.10
  -7  -1   2   10.60    2.60
  -7   1   2   14.80    2.90
  -7   1   2   10.60    2.70
   7   1  -2   13.50    2.80
   6  -1  -2  164.48    8.10
  -6  -1   2  150.18    7.90
  -6  -1   2  149.79    7.80
  -6  -1   2  165.28    8.70
  -6   1   2  153.38    8.00
  -6   1   2  176.88    9.20
  -6   1   2  159.18    8.20
   6   1  -2  159.78    8.10
  -5  -1   2  199.08    8.80
   5  -1  -2  206.48    8.90
  -5  -1   2  222.38    9.70
   5  -1  -2  208.88    7.40
  -5  -1   2  203.98    8.80
  -5   1   2  216.98    9.30
  -5   1   2  196.38    8.90
  -5   1   2  217.08    9.80
   5   1  -2  215.18    9.10
   5   1  -2  218.68    7.60
  -4  -1   2  192.58    8.30
   4  -1  -2  193.08    6.50
  -4  -1   2  193.78    7.90
  -4  -1   2  189.28    7.80
   4  -1  -2  193.08    7.90
   4   1  -2  204.68    6.80
  -4   1   2  188.48    8.20
  -4   1   2  197.78    8.10
   4   1  -2  202.28    8.10
  -4   1   2  211.78    8.80
   3  -1  -2  385.96   12.90
  -3  -1   2  380.76   12.80
  -3  -1   2  386.56   13.30
  -3  -1   2  393.96   12.90
   3   1  -2  386.86   13.30
   3   1  -2  423.26   12.20
  -3   1   2  390.86   13.90
  -3   1   2  411.66   13.70
   2  -1  -2   76.59    3.40
   2  -1  -2   75.49    3.30
  -2  -1   2   71.59    3.20
  -2  -1   2   66.79    3.10
  -2  -1   2   67.49    3.30
   2   1  -2   68.89    3.10
   2   1  -2   70.59    2.40
  -2   1   2   71.79    3.40
  -2   1   2   66.09    3.10
  -2   1   2   70.59    2.30
  -2   1   2   67.79    3.40
   1  -1  -2  166.08    5.60
  -1  -1   2  158.88    5.20
   1  -1  -2  169.28    5.50
  -1  -1   2  148.69    5.30
  -1  -1   2  157.18    5.60
   1  -1  -2  173.98    5.50
   1   1  -2  160.48    5.40
  -1   1   2  168.78    5.50
  -1   1   2  172.98    6.10
  -1   1   2  158.88    5.70
   1   1  -2  166.78    5.30
   0  -1  -2  439.26   13.50
   0  -1  -2  455.75   13.60
   0  -1  -2  456.75   13.60
   0  -1   2  475.75   13.20
   0  -1   2  445.16   13.30
   0   1   2  450.05   13.50
   0   1   2  447.86   13.90
   0   1  -2  442.56   13.00
   1  -1   2  875.11   25.40
   1  -1   2  877.41   25.50
   1  -1   2  866.61   25.70
  -1  -1  -2  870.21   25.80
  -1  -1  -2  831.72   25.50
   1   1   2  846.32   25.90
  -1   1  -2  877.61   25.70
   1   1   2  856.61   26.50
  -1   1  -2  846.02   25.60
   1   1   2  898.01   25.80
   1   1   2  886.11   25.70
  -2  -1  -2  134.79    6.00
  -2  -1  -2  146.39    5.80
  -2  -1  -2  135.69    5.50
   2  -1   2  138.09    5.50
   2  -1   2  137.49    5.70
   2  -1   2  148.49    5.40
  -2   1  -2  145.29    5.70
   2   1   2  140.89    5.60
   2   1   2  139.69    6.10
  -2   1  -2  133.69    5.80
  -2   1  -2  142.99    5.50
   2   1   2  136.99    5.80
   2   1   2  155.78    5.60
   3  -1   2  159.78    6.70
  -3  -1  -2  157.68    7.10
   3  -1   2  160.48    7.20
   3  -1   2  165.48    7.00
  -3  -1  -2  148.19    6.50
   3  -1   2  169.78    6.50
  -3  -1  -2  161.98    7.00
   3   1   2  145.99    7.00
   3   1   2  166.38    6.80
   3   1   2  160.98    7.00
  -3   1  -2  166.48    6.70
  -3   1  -2  164.78    7.00
  -3   1  -2  153.78    7.00
   4  -1   2  583.04   20.00
  -4  -1  -2  583.74   19.90
  -4  -1  -2  604.64   20.70
   4  -1   2  610.64   20.60
  -4   1  -2  616.04   20.10
   4   1   2  597.14   20.30
  -4   1  -2  603.04   20.70
   4   1   2  587.34   20.60
  -5  -1  -2   25.60    3.70
  -5  -1  -2   29.40    3.60
   5  -1   2   26.40    3.50
   5  -1   2   24.70    3.40
  -5   1  -2   19.30    3.00
   5   1   2   25.10    3.60
   5   1   2   26.20    3.40
  -5   1  -2   27.50    3.40
   6  -1   2   18.70    3.40
  -6  -1  -2   22.90    4.10
   6  -1   2   23.40    3.60
   6   1   2   24.20    3.80
  -6   1  -2   22.10    3.80
   6   1   2   18.20    3.40
   7  -1   2  115.29    7.80
  -7  -1  -2  126.59    8.70
   7  -1   2  128.69    8.10
   7   1   2  115.99    7.70
   7   1   2  123.29    7.90
  -7   1  -2  122.79    8.30
   8  -1   2   13.60    3.50
   8   1   2    8.60    3.20
   9  -2  -2   22.20    4.50
  -9  -2   2   17.40    4.20
  -9   2   2   21.30    4.30
   9   2  -2   21.20    4.40
   8  -2  -2   84.09    6.60
  -8  -2   2  102.49    7.30
  -8   2   2   98.59   12.30
  -8   2   2  104.69    7.60
   8   2  -2  109.89    7.90
  -7  -2   2   79.19    5.90
  -7  -2   2   73.59    5.70
   7  -2  -2   69.49    5.40
   7   2  -2   86.79    6.20
  -7   2   2   73.79    5.70
  -7   2   2   79.19    6.10
   6  -2  -2   10.80    2.40
  -6  -2   2   10.00    2.40
  -6  -2   2    9.20    2.20
  -6  -2   2   10.20    2.60
  -6   2   2   10.50    2.30
   6   2  -2    7.90    2.10
  -6   2   2   10.20    2.80
  -6   2   2    6.80    2.00
  -5  -2   2  494.65   17.30
   5  -2  -2  479.75   17.50
   5  -2  -2  508.45   15.80
  -5  -2   2  500.25   17.50
  -5  -2   2  502.35   18.20
  -5   2   2  477.05   17.70
  -5   2   2  545.75   19.00
   5   2  -2  495.25   17.80
  -5   2   2  493.05   17.90
   5   2  -2  524.35   16.20
   4  -2  -2  113.39    5.50
  -4  -2   2  111.39    5.50
  -4  -2   2  116.99    5.40
  -4  -2   2  108.49    5.80
   4   2  -2  112.89    5.60
  -4   2   2  119.89    5.80
  -4   2   2  124.39    6.40
   4   2  -2  123.89    4.60
  -4   2   2  115.79    5.80
  -3  -2   2   71.39    3.90
  -3  -2   2   69.99    3.60
  -3  -2   2   69.99    3.60
   3  -2  -2   68.69    3.60
   3   2  -2   74.39    2.90
  -3   2   2   65.99    3.70
  -3   2   2   74.69    3.90
  -3   2   2   65.89    4.00
   3   2  -2   74.19    3.70
  -2  -2   2  270.57    9.00
   2  -2  -2  271.77    9.20
  -2  -2   2  269.47    9.30
  -2  -2   2  277.07    8.90
   2   2  -2  272.87    9.20
   2   2  -2  293.17    8.80
  -2   2   2  300.27    8.80
  -2   2   2  267.97    9.60
  -2   2   2  266.67    9.70
  -2   2   2  277.57    9.50
   1  -2  -2  495.45   14.90
  -1  -2   2  487.95   14.40
  -1  -2   2  458.95   14.50
  -1  -2   2  465.05   14.40
   1  -2  -2  492.05   14.70
  -1   2   2  491.55   14.50
   1   2  -2  490.05   14.30
   1   2  -2  485.15   14.30
   1   2  -2  474.25   14.40
   1   2  -2  457.75   14.50
  -1   2   2  464.75   14.90
   0  -2   2 1097.39   30.80
   0  -2   2 1044.00   30.90
   0  -2   2 1050.79   30.70
   0  -2  -2 1018.30   31.20
   0  -2  -2 1063.89   31.10
   0  -2   2 1064.49   30.70
   0  -2  -2 1085.79   31.20
   0   2   2 1049.49   31.20
   1  -2   2  172.88    6.30
   1  -2   2  182.78    6.00
   1  -2   2  184.98    6.10
  -1  -2  -2  180.98    6.50
  -1  -2  -2  169.08    6.20
  -1   2  -2  174.68    6.30
   1   2   2  180.88    6.20
  -1   2  -2  169.38    6.00
  -1   2  -2  177.58    6.20
   1   2   2  185.48    6.60
   1   2   2  182.98    6.40
   1   2   2  177.88    6.90
  -2  -2  -2  107.59    4.90
  -2  -2  -2  122.79    5.20
   2  -2   2  128.69    4.90
   2  -2   2  120.79    5.20
   2  -2   2  122.79    5.00
   2   2   2  115.69    5.50
   2   2   2  118.39    5.30
  -2   2  -2  121.19    5.00
   2   2   2  111.39    5.00
   2   2   2  126.99    4.90
  -2   2  -2  116.09    4.80
  -2   2  -2  113.69    5.10
  -3  -2  -2   10.10    1.60
   3  -2   2   12.40    1.80
  -3  -2  -2   10.70    1.90
   3  -2   2   10.70    1.70
  -3  -2  -2   10.40    1.90
   3  -2   2   12.70    2.00
  -3   2  -2   12.00    2.00
  -3   2  -2   13.20    1.90
   3   2   2   11.50    1.80
   3   2   2   14.80    2.10
  -3   2  -2    8.40    1.70
   3   2   2    9.30    1.80
   4  -2   2   67.59    4.30
  -4  -2  -2   57.49    4.50
  -4  -2  -2   64.49    4.20
   4   2   2   60.69    4.40
  -4   2  -2   61.69    4.10
  -4   2  -2   66.09    4.50
   4   2   2   61.09    4.20
  -5  -2  -2  275.37   11.30
  -5  -2  -2  272.07   12.00
   5  -2   2  265.37   11.30
   5  -2   2  269.17   11.60
  -5   2  -2  267.47   11.30
  -5   2  -2  280.87   11.80
   5   2   2  264.37   11.30
   5   2   2  256.17   11.40
  -6  -2  -2   24.80    4.10
   6  -2   2   20.90    3.50
   6  -2   2   30.80    4.20
   6   2   2   25.50    3.80
   6   2   2   26.30    4.00
  -6   2  -2   31.10    4.30
   7  -2   2   11.50    3.40
  -7  -2  -2   16.00    3.90
   7  -2   2   14.10    3.20
  -7   2  -2   15.00    3.20
   7   2   2   11.10    3.10
   7   2   2   10.30    3.10
  -9  -3   2   35.40    5.20
   9  -3  -2   35.60    5.30
   9   3  -2   25.60    4.40
  -9   3   2   31.80    5.00
  -8  -3   2   40.60    5.20
   8  -3  -2   45.70    5.70
   8   3  -2   52.49    6.00
  -8   3   2   44.70    5.40
  -7  -3   2    2.70    2.00
  -7  -3   2    1.00    1.70
   7  -3  -2    2.50    1.60
  -7   3   2    2.80    2.20
  -7   3   2    6.50    2.30
   7   3  -2    5.40    2.40
  -6  -3   2  404.36   16.00
  -6  -3   2  384.56   14.90
  -6  -3   2  373.26   14.70
   6  -3  -2  366.96   14.90
   6   3  -2  386.96   15.20
  -6   3   2  385.46   15.20
  -6   3   2  388.86   15.40
  -5  -3   2  170.98    7.70
  -5  -3   2  175.48    8.00
   5  -3  -2  168.58    8.00
  -5  -3   2  171.68    8.50
   5   3  -2  174.48    6.70
   5   3  -2  164.98    7.90
  -5   3   2  164.18    8.00
  -5   3   2  172.08    8.10
  -5   3   2  180.28    8.80
  -4  -3   2  225.58    9.20
  -4  -3   2  243.68    9.00
   4  -3  -2  232.48    9.40
  -4  -3   2  240.58    9.80
   4   3  -2  242.38    9.60
  -4   3   2  259.67   10.50
  -4   3   2  239.58    9.80
   4   3  -2  241.98    8.50
  -4   3   2  253.37    9.90
  -3  -3   2   90.09    4.70
  -3  -3   2   94.59    4.50
  -3  -3   2   88.49    4.10
  -3   3   2  102.49    3.90
   3   3  -2   99.09    3.90
  -3   3   2   86.69    4.90
  -3   3   2   90.39    4.60
   3   3  -2   87.29    4.40
  -3   3   2   97.19    4.80
  -2  -3   2  176.08    6.50
  -2  -3   2  179.68    6.80
  -2  -3   2  186.88    6.20
   2  -3  -2  172.98    6.70
  -2   3   2  176.38    7.00
   2   3  -2  185.98    6.70
   2   3  -2  186.58    6.40
  -2   3   2  188.68    6.40
  -2   3   2  176.68    7.20
  -1  -3   2 1064.69   32.30
  -1  -3   2 1118.59   31.50
  -1  -3   2 1083.99   32.00
   1  -3  -2 1084.19   32.40
  -1   3   2 1009.70   31.40
  -1   3   2 1046.30   31.10
   1   3  -2 1061.29   31.20
  -1   3   2 1043.10   31.60
   1   3  -2 1086.09   31.00
   0  -3   2  467.35   14.10
   0  -3   2  463.05   14.00
   0  -3  -2  448.26   14.50
   0  -3   2  462.55   14.30
   0  -3  -2  459.65   14.50
   0  -3  -2  455.75   14.40
   0  -3   2  467.55   14.00
   0   3   2  444.86   14.30
  -1  -3  -2  370.86   12.50
   1  -3   2  386.56   12.00
   1  -3   2  387.56   12.40
   1  -3   2  380.46   12.10
  -1  -3  -2  371.86   12.30
   1   3   2  394.46   12.70
   1   3   2  378.86   12.80
  -1   3  -2  389.96   12.50
   1   3   2  420.66   12.60
  -1   3  -2  369.26   12.20
  -1   3  -2  379.46   12.20
   1   3   2  372.66   13.00
  -2  -3  -2 1041.70   33.20
  -2  -3  -2 1107.69   33.60
   2  -3   2 1096.39   33.50
   2  -3   2 1132.29   33.00
   2  -3   2 1116.09   33.20
   2   3   2 1220.18   33.40
  -2   3  -2 1107.89   33.40
  -2   3  -2 1091.69   33.30
  -2   3  -2 1045.50   33.00
   2   3   2 1122.49   33.80
   2   3   2 1083.79   33.50
   2   3   2 1031.60   33.80
   3  -3   2  571.64   19.10
   3  -3   2  647.44   19.10
  -3  -3  -2  511.65   18.40
   3  -3   2  549.85   18.60
   3   3   2  557.14   18.90
   3   3   2  531.75   19.20
  -3   3  -2  559.34   18.90
  -3   3  -2  553.74   18.60
   3   3   2  654.33   19.60
  -3   3  -2  563.24   18.90
  -4  -3  -2  400.16   15.10
  -4  -3  -2  414.56   14.60
   4  -3   2  384.86   14.40
   4   3   2  395.06   15.00
  -4   3  -2  418.86   14.50
  -4   3  -2  394.46   14.70
   4   3   2  388.76   14.60
   5  -3   2   34.70    3.90
   5  -3   2   42.30    4.50
  -5  -3  -2   41.10    4.20
  -5  -3  -2   47.30    4.80
  -5   3  -2   45.90    4.00
   5   3   2   45.00    4.70
   5   3   2   46.70    4.70
   6  -3   2    8.00    2.40
   6  -3   2    5.80    2.30
  -6  -3  -2    4.70    2.60
   6   3   2    3.80    2.00
  -6   3  -2    9.40    2.60
   6   3   2    7.00    2.20
  -7  -3  -2   13.00    3.60
   7  -3   2   11.40    3.20
   7  -3   2   12.00    3.20
   7   3   2   18.90    3.90
  -7   3  -2   13.90    3.50
   7   3   2   12.10    3.20
  -9  -4   2  133.39    9.30
   9  -4  -2  137.99    9.20
   9   4  -2  168.58   10.90
  -8  -4   2   13.40    3.40
   8  -4  -2   26.90    4.30
   8   4  -2   28.80    4.70
  -8   4   2   18.50    3.70
  -7  -4   2   79.29    5.90
  -7  -4   2   89.59    6.30
   7  -4  -2   82.69    6.20
  -7   4   2   76.79    6.30
   7   4  -2   85.99    6.30
  -7   4   2   79.19    6.20
  -6  -4   2  568.64   20.50
  -6  -4   2  522.45   18.80
  -6  -4   2  510.05   19.20
   6  -4  -2  501.85   19.20
  -6   4   2  520.45   19.60
   6   4  -2  542.65   19.70
  -6   4   2  533.55   19.70
  -5  -4   2   12.00    2.50
  -5  -4   2    9.90    2.00
   5  -4  -2   12.10    2.20
  -5  -4   2   10.50    2.10
  -5   4   2   15.60    3.00
  -5   4   2    8.50    2.30
   5   4  -2   12.00    2.30
   5   4  -2   10.20    1.70
  -5   4   2    9.00    2.10
  -4  -4   2  566.34   19.40
  -4  -4   2  564.84   18.80
  -4  -4   2  542.45   18.10
   4  -4  -2  544.55   18.90
  -4   4   2  570.44   19.30
  -4   4   2  559.54   20.00
   4   4  -2  561.84   19.10
  -4   4   2  577.94   19.40
   4   4  -2  578.24   18.10
  -3  -4   2  499.85   17.00
  -3  -4   2  495.55   16.40
  -3  -4   2  495.65   15.80
   3  -4  -2  498.85   16.70
  -3   4   2  503.35   15.90
  -3   4   2  496.55   16.80
   3   4  -2  505.85   16.00
  -3   4   2  503.55   16.80
  -3   4   2  514.65   17.50
   3   4  -2  496.45   16.60
  -2  -4   2  323.97   11.50
  -2  -4   2  329.57   11.10
  -2  -4   2  341.57   10.40
   2  -4  -2  328.67   11.50
  -2   4   2  335.17   10.90
  -2   4   2  322.47   11.80
   2   4  -2  331.37   11.00
  -2   4   2  327.57   11.40
   2   4  -2  331.97   11.10
  -1  -4   2 1856.41   54.79
   1  -4  -2 1857.41   54.79
  -1  -4   2 1835.52   54.39
  -1  -4   2 1899.81   53.29
   1   4  -2 1771.02   52.99
  -1   4   2 1857.51   53.59
  -1   4   2 1752.52   52.99
  -1   4   2 1765.92   52.89
   1   4  -2 1870.51   52.79
   0  -4   2  782.22   23.50
   0  -4  -2  782.92   23.90
   0  -4   2  769.92   23.80
   0  -4  -2  777.52   23.90
   0  -4   2  784.02   23.50
   0   4   2  754.82   23.30
   0   4  -2  750.72   23.40
   1  -4   2  707.93   21.70
   1  -4   2  744.13   21.60
   1  -4   2  688.13   21.90
  -1  -4  -2  677.43   21.80
   1   4   2  700.83   22.70
   1   4   2  713.93   22.30
  -1   4  -2  708.83   21.50
   1   4   2  773.12   22.40
   1   4   2  695.63   22.50
  -1   4  -2  699.03   22.10
   2  -4   2  381.76   13.30
   2  -4   2  399.26   12.80
   2  -4   2  381.36   13.00
  -2  -4  -2  367.96   13.00
   2   4   2  395.76   13.30
  -2   4  -2  375.96   12.80
  -2   4  -2  365.66   12.50
   2   4   2  358.96   13.30
  -2   4  -2  378.96   12.50
   2   4   2  364.46   13.00
   3  -4   2  513.15   17.20
  -3  -4  -2  518.25   17.70
  -3  -4  -2  505.55   17.30
  -3   4  -2  516.75   17.10
  -3   4  -2  517.65   17.10
   3   4   2  489.85   17.60
   3   4   2  504.45   17.40
   4  -4   2   60.59    4.20
  -4  -4  -2   58.19    4.20
   4   4   2   58.89    4.40
  -4   4  -2   65.29    4.50
   4   4   2   61.89    4.50
  -4   4  -2   68.09    4.40
  -5  -4  -2   33.70    3.80
   5  -4   2   40.50    4.30
  -5   4  -2   29.20    3.90
   5   4   2   33.40    4.10
   5   4   2   42.40    4.60
   6  -4   2    3.00    2.20
   6  -4   2    6.30    2.20
   6   4   2    4.10    2.50
  -6   4  -2    8.00    2.50
   6   4   2    5.70    2.50
   7  -4   2   32.30    4.70
   7  -4   2   29.00    4.50
   7   4   2   37.60    5.20
  -7   4  -2   20.10    4.00
   7   4   2   28.60    4.60
  -8  -5   2   34.40    4.80
   8  -5  -2   30.40    4.50
   8   5  -2   29.60    4.80
  -8   5   2   38.20    5.30
   7  -5  -2  172.98    9.40
  -7  -5   2  168.58    9.40
  -7  -5   2  169.88    8.90
  -7   5   2  172.58    9.70
  -7   5   2  170.18    9.60
   7   5  -2  191.28    9.80
  -6  -5   2    9.30    3.90
  -6  -5   2   13.20    2.50
  -6  -5   2    6.40    1.80
   6  -5  -2    5.30    1.80
  -6   5   2   10.70    2.50
  -6   5   2    6.70    2.00
   6   5  -2    8.60    2.50
  -5  -5   2   56.49    4.00
  -5  -5   2   61.39    4.50
  -5  -5   2   61.39    5.00
   5  -5  -2   60.09    4.50
  -5   5   2   61.29    4.80
   5   5  -2   71.29    4.90
  -5   5   2   70.99    5.50
   5   5  -2   62.29    3.80
  -5   5   2   64.29    4.80
  -4  -5   2  148.99    7.40
   4  -5  -2  142.99    6.90
  -4  -5   2  136.69    6.00
  -4  -5   2  141.59    6.70
   4   5  -2  152.08    6.20
  -4   5   2  140.89    7.00
   4   5  -2  144.89    6.90
  -4   5   2  145.19    7.60
  -4   5   2  149.99    7.10
   3  -5  -2  139.79    6.40
  -3  -5   2  132.19    6.50
  -3  -5   2  141.49    5.40
  -3  -5   2  136.59    6.20
  -3   5   2  140.29    5.80
   3   5  -2  143.49    5.80
   3   5  -2  135.29    6.10
  -3   5   2  130.19    6.20
  -3   5   2  139.69    6.90
  -2  -5   2  697.33   21.90
  -2  -5   2  721.03   20.70
   2  -5  -2  685.33   22.30
  -2  -5   2  686.13   22.40
   2   5  -2  683.73   21.40
  -2   5   2  693.33   21.60
   2   5  -2  683.23   21.50
  -2   5   2  705.03   21.40
  -2   5   2  648.04   22.20
   1  -5  -2   10.00    1.70
  -1  -5   2   10.30    1.50
  -1  -5   2    7.00    1.40
  -1  -5   2   11.40    1.50
   1   5  -2   11.70    1.80
  -1   5   2   16.10    2.30
  -1   5   2    8.60    1.50
  -1   5   2    9.90    1.50
   1   5  -2   10.40    1.60
   0  -5  -2  599.74   19.70
   0  -5   2  628.64   19.60
   0  -5  -2  616.14   19.50
   0  -5   2  610.64   19.50
   0  -5  -2  600.24   19.50
   0  -5   2  624.04   19.20
   0  -5   2  615.04   19.10
   0   5  -2  594.94   19.20
   0   5   2  588.44   19.00
  -1  -5  -2 2615.94   78.19
   1  -5   2 2639.14   77.99
   1  -5   2 2603.54   78.29
   1  -5   2 2842.02   77.89
  -1  -5  -2 2642.64   78.59
   1   5   2 2549.74   77.39
   1   5   2 2733.83   77.79
   1   5   2 2593.04   77.69
  -1   5  -2 2692.43   76.19
  -1   5  -2 2611.04   77.19
   2  -5   2  269.57   10.20
   2  -5   2  258.47    9.70
  -2  -5  -2  263.77   10.30
  -2  -5  -2  249.58    9.80
   2  -5   2  282.87    9.70
   2   5   2  255.17    9.90
  -2   5  -2  249.58    9.10
   2   5   2  257.97   10.20
  -2   5  -2  253.57    9.70
   2   5   2  276.37   10.20
  -3  -5  -2  204.38    8.50
   3  -5   2  198.08    8.40
  -3   5  -2  195.88    8.10
   3   5   2  196.88    8.50
   3   5   2  208.78    8.90
  -3   5  -2  195.18    8.00
  -4  -5  -2  179.08    8.30
   4  -5   2  180.88    8.30
  -4   5  -2  195.68    8.30
   4   5   2  178.38    8.50
  -4   5  -2  175.58    8.10
   4   5   2  169.48    8.50
  -5  -5  -2   98.89    6.30
   5  -5   2   98.59    6.10
   5   5   2   93.69    6.00
   5   5   2   87.59    6.00
  -5   5  -2   97.39    6.00
   6  -5   2   60.39    5.20
   6   5   2   65.79    5.60
  -6   5  -2   73.89    5.90
   6   5   2   63.19    5.40
   7  -5   2   26.50    4.30
   7  -5   2   20.20    4.10
   7   5   2   24.50    4.50
  -7   5  -2   21.50    4.20
   7   5   2   20.10    3.90
  -8  -6   2   37.30    5.10
   8  -6  -2   46.10    5.80
   8   6  -2   37.20    5.30
  -7  -6   2   61.49    6.40
   7  -6  -2   59.89    5.40
  -7  -6   2   63.69    5.30
  -7   6   2   57.99    6.00
  -7   6   2   64.89    5.80
   7   6  -2   75.09    6.30
  -6  -6   2   21.30    3.40
  -6  -6   2   26.20    3.40
   6  -6  -2   24.80    3.70
  -6   6   2   15.20    2.80
  -6   6   2   22.10    3.50
   6   6  -2   20.40    3.50
   5  -6  -2  110.59    6.60
  -5  -6   2  118.99    5.90
  -5  -6   2  125.29    7.50
  -5  -6   2  119.09    6.70
  -5   6   2  117.09    6.80
  -5   6   2  121.69    6.70
   5   6  -2  116.19    5.80
  -5   6   2  129.69    7.80
   5   6  -2  113.09    6.50
   4  -6  -2  137.59    7.20
  -4  -6   2  162.38    8.00
  -4  -6   2  160.28    6.40
  -4  -6   2  145.89    7.20
   4   6  -2  148.19    6.60
   4   6  -2  148.79    7.20
  -4   6   2  158.58    8.10
  -4   6   2  150.48    7.30
   3  -6  -2  171.28    7.70
  -3  -6   2  165.48    7.80
  -3  -6   2  173.78    7.50
  -3  -6   2  175.68    6.30
  -3   6   2  160.78    7.00
  -3   6   2  181.68    7.50
   3   6  -2  173.38    7.40
   3   6  -2  167.98    7.00
  -3   6   2  173.98    8.20
  -2  -6   2  130.99    5.90
   2  -6  -2  135.49    6.20
  -2  -6   2  124.89    6.20
  -2  -6   2  140.69    4.60
   2   6  -2  121.59    5.60
  -2   6   2  134.49    5.80
   2   6  -2  123.19    5.70
  -2   6   2  134.99    5.80
  -2   6   2  120.19    6.30
  -1  -6   2   58.99    3.70
  -1  -6   2   57.19    3.40
  -1  -6   2   55.69    3.20
   1  -6  -2   51.49    3.40
  -1  -6   2   57.59    3.50
  -1   6   2   50.39    3.10
   1   6  -2   52.19    3.30
  -1   6   2   54.29    3.70
  -1   6   2   52.09    3.30
   0  -6  -2  954.10   29.70
   0  -6   2  938.11   29.70
   0  -6  -2  957.60   30.00
   0  -6   2  936.41   29.30
   0  -6   2  969.40   29.90
   0  -6   2  969.30   29.30
   0  -6  -2  972.30   29.80
   0   6   2  905.01   28.30
   0   6   2  904.41   27.90
   0   6  -2  910.71   28.50
   1  -6   2  181.38    7.60
  -1  -6  -2  165.28    7.30
   1  -6   2  187.18    7.10
  -1  -6  -2  171.18    7.30
  -1  -6  -2  176.28    7.70
   1  -6   2  174.58    7.10
   1   6   2  195.48    8.00
  -1   6  -2  171.78    7.40
   1   6   2  174.28    7.70
   1   6   2  182.58    7.70
  -1   6  -2  177.78    6.10
  -2  -6  -2  150.48    6.90
  -2  -6  -2  157.68    7.30
   2  -6   2  154.28    7.20
   2  -6   2  156.88    6.80
   2   6   2  154.38    7.10
  -2   6  -2  157.58    7.00
  -2   6  -2  152.38    6.00
  -3  -6  -2  141.69    6.90
   3  -6   2  141.79    6.80
   3   6   2  144.89    7.30
  -3   6  -2  142.99    6.30
   3   6   2  134.29    6.90
  -4  -6  -2  369.16   14.00
   4  -6   2  350.96   13.70
  -4   6  -2  381.96   14.00
   4   6   2  367.06   14.60
  -4   6  -2  406.96   17.50
   4   6   2  354.16   14.60
   5  -6   2   86.09    5.80
  -5  -6  -2   86.19    5.90
   5   6   2   91.99    6.20
  -5   6  -2   80.99    5.60
   5   6   2   88.89    6.00
   6  -6   2   37.00    4.70
  -6   6  -2   51.09    5.50
   6   6   2   48.10    5.50
   6   6   2   64.59    5.50
   7  -6   2    2.60    2.60
   7  -6   2    5.90    2.60
  -7   6  -2   10.40    3.30
   7   6   2    9.80    3.40
   7   6   2    6.60    2.70
   8  -7  -2    4.80    2.00
  -8  -7   2    4.50    2.10
   8   7  -2    5.80    3.10
  -8   7   2    3.40    2.50
  -7  -7   2    6.10    2.30
   7  -7  -2    2.50    2.20
  -7   7   2    4.60    2.50
  -7   7   2    6.80    2.60
   7   7  -2    5.90    2.60
   6  -7  -2   50.49    5.60
  -6  -7   2   51.79    5.50
  -6  -7   2   55.79    4.30
  -6   7   2   50.59    5.30
  -6   7   2   57.19    5.00
   6   7  -2   52.69    5.50
  -5  -7   2   83.59    4.70
  -5  -7   2   72.69    5.30
  -5  -7   2   76.49    6.00
   5  -7  -2   76.79    5.40
   5   7  -2   73.79    4.70
  -5   7   2   85.49    5.60
   5   7  -2   71.49    5.20
  -4  -7   2  121.49    6.60
  -4  -7   2  119.19    7.00
   4  -7  -2  122.39    6.70
  -4  -7   2  121.59    5.40
   4   7  -2  124.39    6.60
  -4   7   2  120.09    7.30
  -4   7   2  128.39    6.60
   4   7  -2  129.69    6.20
  -4   7   2  122.09    6.10
  -3  -7   2  331.37   12.60
  -3  -7   2  354.46   11.20
  -3  -7   2  337.37   13.30
   3  -7  -2  326.37   12.90
  -3   7   2  351.86   13.60
  -3   7   2  330.67   12.40
   3   7  -2  333.27   12.20
  -3   7   2  343.97   12.30
   3   7  -2  323.07   12.40
   2  -7  -2   17.70    2.50
  -2  -7   2   24.60    3.10
  -2  -7   2   15.20    2.10
  -2   7   2   16.50    2.20
  -2   7   2   22.00    2.60
   2   7  -2   21.20    2.50
  -2   7   2   20.70    2.90
   2   7  -2   17.90    2.40
  -1  -7   2  209.28    8.60
  -1  -7   2  210.48    8.20
  -1  -7   2  192.98    8.30
  -1  -7   2  199.28    8.00
   1  -7  -2  196.08    8.30
  -1   7   2  184.88    7.40
  -1   7   2  199.58    8.70
   1   7  -2  194.08    8.10
  -1   7   2  196.18    8.00
   0  -7  -2   46.90    3.60
   0  -7  -2   45.40    3.30
   0  -7   2   46.30    3.40
   0  -7  -2   45.50    3.30
   0  -7   2   44.80    3.00
   0  -7   2   42.30    3.00
   0  -7   2   40.30    3.20
   0   7   2   39.80    3.10
   0   7  -2   37.40    3.20
   0   7   2   41.00    2.90
  -1  -7  -2  140.99    6.60
   1  -7   2  147.79    6.90
  -1  -7  -2  142.29    7.00
  -1  -7  -2  136.09    6.50
   1  -7   2  146.39    6.50
  -1   7  -2  145.99    4.90
  -1   7  -2  139.79    6.50
   1   7   2  134.59    6.70
  -1   7  -2  129.59    6.70
   2  -7   2  337.27   12.70
  -2  -7  -2  349.67   13.00
  -2   7  -2  347.37   11.40
   2   7   2  335.77   13.20
   2   7   2  335.57   12.90
   3  -7   2   11.30    2.30
  -3  -7  -2   10.90    2.20
  -3   7  -2   15.90    2.20
   3   7   2    8.80    2.10
   3   7   2   12.90    2.60
  -4  -7  -2   62.19    4.80
   4  -7   2   52.29    4.40
  -4   7  -2   63.49    4.30
   4   7   2   64.39    5.00
   4   7   2   55.29    4.90
   5  -7   2   44.10    4.90
  -5  -7  -2   51.89    5.30
   5   7   2   46.60    5.10
   5   7   2   44.90    5.00
  -5   7  -2   51.79    4.40
   6  -7   2   27.00    4.10
   6   7   2   28.60    4.70
  -6   7  -2   26.20    3.90
   6   7   2   25.60    4.40
   7  -7   2    9.20    3.30
   7   7   2    9.20    3.40
  -7   7  -2    8.60    3.30
   7   7   2    8.20    3.00
   8  -8  -2   14.90    3.10
  -8   8   2   27.20    4.50
   8   8  -2   12.40    4.30
   7  -8  -2   15.60    3.60
   7   8  -2   17.20    3.60
  -7   8   2   20.90    4.00
  -6  -8   2   47.30    5.30
   6  -8  -2   53.69    5.90
  -6   8   2   37.30    4.40
   6   8  -2   40.70    5.00
  -5  -8   2   79.49    5.70
   5  -8  -2   89.09    6.00
  -5  -8   2   85.69    6.60
  -5   8   2   75.19    5.50
   5   8  -2   81.89    5.70
   5   8  -2   80.99    5.10
  -4  -8   2    6.50    2.30
  -4  -8   2    3.30    1.60
   4  -8  -2    5.30    1.90
   4   8  -2    8.30    2.00
  -4   8   2    5.70    2.20
   4   8  -2    5.70    1.70
  -4   8   2    6.00    1.80
  -4   8   2    6.50    2.30
  -3  -8   2  224.08   10.00
   3  -8  -2  211.08    9.60
  -3  -8   2  212.48    9.30
  -3   8   2  219.88   10.20
   3   8  -2  212.68    9.00
  -3   8   2  214.78    9.10
   3   8  -2  207.88    9.10
  -3   8   2  221.78    9.00
   2  -8  -2  111.49    6.00
  -2  -8   2  107.99    6.10
  -2  -8   2  102.19    5.50
  -2  -8   2  110.79    5.80
  -2   8   2  100.39    5.40
  -2   8   2  102.19    5.20
   2   8  -2  107.59    5.60
  -2   8   2  103.19    6.20
   2   8  -2  101.59    5.40
   1  -8  -2  343.17   13.00
   1  -8  -2  377.46   13.50
  -1  -8   2  348.17   12.80
   1  -8  -2  361.76   13.60
  -1  -8   2  352.76   13.40
  -1  -8   2  355.86   13.00
  -1   8   2  341.87   12.00
  -1   8   2  341.27   12.80
   1   8  -2  340.87   12.90
  -1   8   2  353.36   13.60
   0  -8   2   86.19    4.70
   0  -8  -2   85.69    5.30
   0  -8   2   75.29    4.60
   0  -8   2   86.39    5.10
   0  -8  -2   85.69    5.00
   0  -8  -2   85.99    5.00
   0   8   2   79.49    4.30
   0   8  -2   80.89    5.00
   0   8   2   82.49    4.90
  -1  -8  -2  117.79    6.30
  -1  -8  -2  115.49    6.10
   1  -8   2  123.19    6.10
  -1  -8  -2  120.99    6.60
   1  -8   2  123.69    5.90
  -1   8  -2  101.39    5.90
   1   8   2  106.19    5.90
   2  -8   2  184.58    8.40
  -2  -8  -2  199.98    8.80
   2   8   2  174.48    8.50
   2   8   2  189.58    8.80
   3  -8   2   17.90    2.90
  -3  -8  -2   19.60    3.10
  -3   8  -2   14.80    2.40
   3   8   2   10.80    2.50
   3   8   2   11.70    2.30
   4  -8   2   92.69    6.10
  -4  -8  -2   94.69    6.30
   4   8   2   99.99    6.70
  -4   8  -2   95.19    5.60
   4   8   2  107.79    6.70
   5  -8   2  118.59    7.30
  -5  -8  -2  122.49    7.70
  -5   8  -2  149.19   10.70
   5   8   2  124.59    8.20
   5   8   2  139.19    8.10
   6  -8   2   65.49    5.80
   6   8   2   65.39    6.80
   6   8   2   73.79    6.50
   7  -9  -2   45.00    6.00
  -7   9   2   55.59    5.90
   7   9  -2   55.69    7.20
   6  -9  -2   30.70    4.60
  -6   9   2   25.90    4.10
   6   9  -2   33.20    4.90
   5  -9  -2   34.10    4.30
  -5  -9   2   34.10    4.40
   5   9  -2   46.10    5.10
   5   9  -2   41.90    4.30
  -5   9   2   38.80    4.50
  -4  -9   2  288.77   12.30
  -4  -9   2  298.67   13.20
   4  -9  -2  285.67   12.50
  -4   9   2  284.87   11.40
   4   9  -2  263.07   11.60
   4   9  -2  252.97   10.90
  -4   9   2  278.87   11.40
   3  -9  -2  163.78    8.30
  -3  -9   2  162.48    8.00
  -3  -9   2  171.38    8.80
  -3   9   2  183.88    9.20
  -3   9   2  162.78    7.80
  -3   9   2  165.58    7.50
   3   9  -2  158.78    7.90
   3   9  -2  148.89    7.60
  -2  -9   2  294.37   11.80
  -2  -9   2  287.97   12.20
   2  -9  -2  314.37   12.20
  -2  -9   2  287.07   11.60
   2   9  -2  309.67   12.20
  -2   9   2  303.57   12.10
  -2   9   2  304.47   11.40
  -2   9   2  316.97   13.20
   1  -9  -2  103.59    5.80
  -1  -9   2  110.79    6.20
  -1  -9   2   93.49    5.50
   1  -9  -2  111.29    6.30
  -1  -9   2  101.19    5.60
   1  -9  -2   99.79    5.80
  -1   9   2   99.59    4.90
   1   9  -2  103.99    5.90
  -1   9   2   89.99    5.40
   0  -9   2  592.04   20.40
   0  -9   2  598.14   20.60
   0  -9  -2  600.84   20.90
   0  -9  -2  648.84   23.00
   0  -9   2  590.24   21.00
   0  -9  -2  613.04   21.00
   0   9   2  591.74   18.90
   0   9   2  553.24   19.90
   0   9  -2  570.64   20.10
  -1  -9  -2   30.40    3.50
  -1  -9  -2   29.50    3.60
   1  -9   2   27.90    3.20
   1  -9   2   24.60    3.20
  -1   9  -2   28.90    3.60
   1   9   2   17.00    2.80
  -2  -9  -2  259.47   11.10
   2  -9   2  257.57   10.80
  -2  -9  -2  249.78   10.90
   2   9   2  223.18   10.10
   3  -9   2  290.97   12.10
  -3  -9  -2  275.07   12.10
   3   9   2  275.47   12.10
   3   9   2  278.37   12.30
   4  -9   2   55.49    5.10
  -4  -9  -2   72.69    5.70
   4   9   2   74.69    5.90
   4   9   2   64.09    5.50
  -5  -9  -2   74.79    6.50
   5  -9   2   72.69    5.90
   5   9   2   74.49    6.20
   5   9   2   71.99    5.80
   6  -9   2   95.69    7.20
   6   9   2  111.29    7.80
   6   9   2  101.69    7.70
   7 -10  -2   14.90    3.30
  -7  10   2   19.00    4.00
   7  10  -2    7.00    3.00
   6 -10  -2    9.50    2.50
   6  10  -2   13.30    3.50
  -6  10   2   11.90    3.00
  -5 -10   2    0.30    1.50
   5 -10  -2    1.60    1.80
  -5  10   2    0.80    1.80
   5  10  -2    0.40    1.70
   5  10  -2   -2.20    1.80
   4 -10  -2   57.89    5.90
  -4 -10   2   57.59    5.50
  -4 -10   2   51.49    5.30
  -4  10   2   49.10    4.40
   4  10  -2   51.39    4.30
   4  10  -2   53.79    5.40
  -4  10   2   59.29    4.60
   3 -10  -2   80.79    5.90
  -3 -10   2   91.59    6.50
  -3 -10   2   82.99    5.80
  -3 -10   2   87.89    5.70
  -3  10   2   82.19    5.60
   3  10  -2   91.39    5.80
   3  10  -2   88.69    5.80
  -3  10   2   91.69    5.30
  -2 -10   2  304.47   12.20
  -2 -10   2  309.07   13.00
   2 -10  -2  300.77   12.60
  -2 -10   2  290.87   12.30
   2  10  -2  280.57   12.20
  -2  10   2  308.37   12.40
  -2  10   2  310.97   11.50
  -2  10   2  317.37   13.50
  -1 -10   2  294.77   11.50
  -1 -10   2  299.27   12.30
   1 -10  -2  274.67   11.70
   1 -10  -2  267.17   11.50
  -1 -10   2  271.37   11.40
  -1  10   2  271.37   11.60
   1  10  -2  274.67   11.70
  -1  10   2  286.07   10.50
   0 -10  -2  514.25   18.20
   0 -10  -2  504.35   18.30
   0 -10   2  486.25   18.30
   0 -10   2  505.75   17.70
   0 -10   2  482.25   17.80
   0  10   2  499.45   16.40
   0  10   2  490.45   17.80
   0  10  -2  452.45   17.70
   1 -10   2  297.27   12.30
   1 -10   2  315.17   12.20
  -1 -10  -2  314.97   12.80
  -1 -10  -2  304.07   12.60
   1 -10   2  299.67   12.70
  -1  10  -2  318.87   13.20
   1  10   2  320.37   11.60
   1  10   2  275.27   12.50
  -2 -10  -2  139.49    7.70
   2 -10   2  128.39    7.30
   2 -10   2  135.09    7.00
  -2 -10  -2  131.79    7.40
   2  10   2  120.89    7.40
  -3 -10  -2  291.77   12.90
  -3 -10  -2  301.77   12.90
   3 -10   2  282.87   12.60
   3  10   2  278.57   12.40
   3  10   2  271.97   12.30
  -4 -10  -2   37.90    4.90
   4 -10   2   33.40    4.50
   4  10   2   23.60    4.00
   4  10   2   36.70    4.80
   5 -10   2   26.90    4.30
   5  10   2   28.10    4.50
   5  10   2   22.90    3.90
   6 -10   2   11.60    3.30
   6  10   2   20.30    4.00
   6  10   2    6.70    3.50
   7 -11  -2  116.69    8.60
   7  11  -2  117.49    8.60
   6 -11  -2   50.09    6.40
   6  11  -2   50.29    6.30
   5 -11  -2  201.68   10.80
  -5  11   2  207.08   11.60
   5  11  -2  194.78    9.90
   5  11  -2  201.28   10.50
   4 -11  -2   55.99    6.10
  -4 -11   2   63.89    5.40
  -4 -11   2   71.49    7.80
   4  11  -2   58.69    5.00
   4  11  -2   64.49    5.20
  -4  11   2   63.99    5.10
  -4  11   2   60.29    5.10
  -3 -11   2  406.86   16.40
   3 -11  -2  405.96   16.80
  -3 -11   2  436.06   17.50
  -3 -11   2  415.06   16.20
  -3  11   2  409.56   16.20
  -3  11   2  438.26   15.50
   3  11  -2  398.46   16.20
   2 -11  -2  193.58    9.20
  -2 -11   2  194.58    9.30
  -2 -11   2  191.08    9.90
  -2 -11   2  193.68    9.50
   2 -11  -2  199.78    9.70
   2  11  -2  192.18    9.50
  -2  11   2  200.08    9.60
  -2  11   2  208.78    8.70
  -1 -11   2   66.69    5.10
  -1 -11   2   79.19    5.80
   1 -11  -2   69.09    5.10
   1 -11  -2   69.49    5.50
  -1 -11   2   74.39    5.10
  -1  11   2   79.39    4.70
   1  11  -2   77.89    5.40
  -1  11   2   65.59    5.10
   0 -11   2   79.89    5.20
   0 -11   2   70.99    5.20
   0 -11  -2   79.09    5.70
   0 -11  -2   77.29    5.30
   0 -11   2   78.59    5.60
   0  11   2   78.19    4.50
   0  11  -2   81.09    5.80
   0  11   2   75.19    5.40
  -1 -11  -2  199.08    9.60
   1 -11   2  179.48    9.20
   1 -11   2  171.98    8.60
  -1 -11  -2  189.18    9.20
   1 -11   2  177.88    8.90
  -1  11  -2  166.08    9.10
   1  11   2  178.78    9.20
   1  11   2  179.68    7.80
  -2 -11  -2   36.10    4.70
   2 -11   2   31.70    4.10
  -2 -11  -2   37.30    4.60
   2 -11   2   40.40    4.30
   2  11   2   32.00    4.50
   3 -11   2   31.00    4.20
  -3 -11  -2   30.70    4.40
  -3 -11  -2   29.90    4.40
   3  11   2   22.40    3.70
  -4 -11  -2   90.49    6.70
   4 -11   2   77.69    6.30
   4  11   2   84.59    6.60
   4  11   2   85.69    6.50
   5 -11   2   47.90    5.90
   5  11   2   39.10    5.60
   5  11   2   44.90    5.90
   6 -12  -2   12.90    3.70
   6  12  -2   12.70    4.10
   5 -12  -2  147.09    9.20
   5  12  -2  151.98    9.10
   5  12  -2  140.59    8.50
  -4 -12   2   24.30    4.20
   4 -12  -2   36.50    4.90
   4  12  -2   33.20    4.60
  -4  12   2   33.10    4.50
   4  12  -2   30.70    4.30
  -3 -12   2   11.10    2.90
   3 -12  -2    9.40    3.10
  -3 -12   2    6.90    2.80
  -3 -12   2    8.00    2.20
  -3  12   2   11.30    3.00
   3  12  -2   11.00    3.00
  -2 -12   2  406.26   16.30
  -2 -12   2  414.76   16.60
   2 -12  -2  399.96   16.30
   2 -12  -2  406.76   16.80
  -2 -12   2  464.15   17.80
   2  12  -2  423.86   16.60
  -2  12   2  401.66   16.30
  -1 -12   2   11.40    2.40
   1 -12  -2   16.60    3.10
  -1 -12   2   15.80    3.20
  -1 -12   2   12.80    2.90
   1 -12  -2   11.90    2.90
   1  12  -2   11.20    2.70
  -1  12   2   13.10    2.90
   0 -12  -2   65.49    5.20
   0 -12  -2   68.19    5.50
   0 -12   2   70.09    5.60
   0 -12   2   65.39    5.00
   0 -12   2   70.69    5.40
   0  12   2   60.19    5.20
   0  12  -2   61.39    5.20
   1 -12   2   13.50    3.00
   1 -12   2   20.80    3.30
   1 -12   2   18.30    3.20
  -1 -12  -2   12.60    2.70
  -1 -12  -2   18.90    3.40
  -1  12  -2   20.60    3.90
   1  12   2   16.40    3.20
   2 -12   2   39.10    4.90
   2 -12   2   35.70    4.80
   2 -12   2   43.60    4.60
  -2 -12  -2   51.59    5.60
  -2 -12  -2   42.40    5.30
   2  12   2   40.70    5.10
   3 -12   2   49.20    5.60
  -3 -12  -2   55.19    6.00
  -3 -12  -2   44.60    5.30
   3  12   2   42.80    5.40
  -4 -12  -2   22.60    4.60
   4 -12   2   16.30    3.60
   4  12   2   12.80    3.50
   5 -12   2    2.70    2.60
   5  12   2   -0.70    2.00
   5 -13  -2   13.40    3.30
  -5 -13   2   21.50    4.30
   5  13  -2   13.90    3.40
   5  13  -2   19.30    4.20
   4 -13  -2  109.69    8.00
  -4 -13   2  114.49    8.00
  -4  13   2  111.79    7.50
   4  13  -2  100.69    7.10
   3 -13  -2   63.39    6.70
  -3 -13   2   72.99    6.00
   3  13  -2   80.19    6.40
  -3  13   2   80.49    6.40
   2 -13  -2   66.39    5.60
  -2 -13   2   72.19    7.90
  -2 -13   2   70.79    5.90
   2 -13  -2   80.29    6.50
  -2 -13   2   81.29    6.80
   2  13  -2   68.39    5.60
  -2  13   2   67.39    5.70
  -1 -13   2   76.79    6.30
  -1 -13   2   50.19    5.50
   1 -13  -2   68.79    5.70
   1 -13  -2   75.59    6.20
  -1 -13   2   76.19    5.60
  -1  13   2   69.59    5.80
   1  13  -2   66.39    5.80
   0 -13  -2    3.80    2.50
   0 -13  -2    4.90    2.10
   0 -13   2    4.40    2.00
   0 -13   2    5.80    2.30
   0 -13   2    5.50    2.10
   0  13   2    1.70    2.10
   0  13  -2    5.70    2.10
  -1 -13  -2   11.00    3.00
  -1 -13  -2   11.60    2.90
   1 -13   2    5.60    2.40
   1 -13   2   12.50    3.10
  -1  13  -2   10.00    2.90
   1  13   2   10.20    3.00
  -2 -13  -2   64.39    6.80
  -2 -13  -2   67.79    6.00
   2 -13   2   47.10    5.60
   2 -13   2   64.09    5.90
   2  13   2   64.09    6.90
  -3 -13  -2  128.59    8.80
   3 -13   2  112.99    7.80
   4 -13   2   10.60    3.40
  -4 -13  -2   19.60    4.50
   4  13   2    3.60    2.80
  -5 -14   2   12.10    3.50
   5 -14  -2   13.30    3.60
   5  14  -2   18.40    4.20
  -4 -14   2    2.40    2.10
   4 -14  -2   -2.60    1.50
   4  14  -2    0.20    1.80
  -4  14   2    0.10    2.10
  -3 -14   2   64.29    6.90
   3 -14  -2   69.19    7.30
   3  14  -2   58.79    6.30
  -3  14   2   51.19    5.90
  -2 -14   2   28.40    4.50
   2 -14  -2   25.50    4.60
   2  14  -2   28.80    4.50
  -2  14   2   24.10    4.10
  -1 -14   2  106.49    7.40
  -1 -14   2  113.79    8.30
   1 -14  -2   99.39    7.50
  -1  14   2   99.49    7.20
   1  14  -2  103.69    7.50
   0 -14   2  195.08   10.40
   0 -14   2  194.48   10.80
   0 -14  -2  189.38   10.60
   0  14  -2  179.78   10.20
   0  14   2  196.68   10.50
   1 -14   2   31.90    4.60
   1 -14   2   43.10    5.60
  -1 -14  -2   40.50    5.40
   1  14   2   34.40    5.30
  -1  14  -2   46.50    5.90
  -2 -14  -2   31.70    5.10
   2 -14   2   38.30    5.40
   2  14   2   30.60    4.80
  -3 -14  -2  125.69    9.00
   3 -14   2  114.29    8.10
   4 -15  -2   19.80    4.40
   4  15  -2   22.80    4.80
  -4  15   2   28.60    4.70
  -3 -15   2   39.90    5.60
   3 -15  -2   63.39    7.30
   3  15  -2   55.49    6.50
  -3  15   2   45.00    6.00
   2 -15  -2    4.40    2.90
  -2 -15   2    1.90    2.30
   2  15  -2   -3.00    1.20
  -2  15   2    4.80    2.60
   1 -15  -2  134.89    9.30
  -1 -15   2  140.09    8.90
  -1  15   2  127.79    8.60
   1  15  -2  126.79    8.60
   0 -15   2   25.60    4.20
   0 -15  -2   15.10    3.50
   0  15   2   19.40    4.10
   0  15  -2   29.80    4.80
   1 -15   2   15.80    3.90
  -1 -15  -2   21.10    4.50
   1  15   2   19.00    4.20
  -1  15  -2   14.90    3.80
   2 -15   2    4.60    2.70
  -2 -15  -2   12.70    3.60
   2  15   2   17.20    4.20
  -2 -16   2   38.00    5.90
   2 -16  -2   42.50    6.20
   2  16  -2   37.60    5.30
  -2  16   2   31.90    5.20
  -1 -16   2   43.20    5.70
   1 -16  -2   48.90    6.60
   1  16  -2   45.60    6.80
  -1  16   2   41.70    5.80
   0 -16  -2   36.80    5.40
   0 -16   2   43.30    5.90
   0  16  -2   36.90    6.90
   0  16   2   36.70    5.80
  -9   0   3    0.60    2.40
   9   0  -3    3.10    2.60
  -8   0   3   22.90    4.00
   8   0  -3   15.40    3.50
  -7   0   3   33.60    4.40
   7   0  -3   30.30    4.20
  -7   0   3   26.90    3.70
  -6   0   3    9.00    2.10
   6   0  -3   11.70    2.60
  -6   0   3    9.10    2.50
  -6   0   3   10.80    2.40
  -5   0   3  250.97   10.30
  -5   0   3  248.18   10.70
  -5   0   3  251.07   10.10
   5   0  -3  250.07   10.10
  -4   0   3    5.90    1.40
  -4   0   3    5.60    1.50
  -4   0   3    7.00    1.60
   4   0  -3    7.60    1.60
  -3   0   3    5.80    1.40
  -3   0   3    4.60    1.10
  -3   0   3    4.80    1.20
   3   0  -3    5.00    1.10
  -2   0   3  690.03   21.50
  -2   0   3  667.13   21.70
  -2   0   3  696.33   21.10
   2   0  -3  725.33   21.20
  -2   0   3  732.53   20.50
  -1   0   3  280.57    9.00
  -1   0   3  292.87    9.90
  -1   0   3  315.77    8.90
   1   0  -3  289.57    8.90
  -1   0   3  292.07    9.50
   0   0  -3   84.19    2.70
   0   0   3   80.79    3.90
   0   0   3   81.69    2.80
  -1   0  -3   -0.40    0.40
   1   0   3   -0.50    0.50
   1   0   3    0.00    0.40
   1   0   3   -0.10    0.80
   1   0   3    0.10    0.50
  -1   0  -3   -0.20    0.40
   2   0   3   37.90    2.20
   2   0   3   35.80    3.10
  -2   0  -3   38.20    2.50
  -2   0  -3   33.50    2.30
   2   0   3   31.50    2.20
   2   0   3   38.00    2.60
  -3   0  -3   -0.80    0.80
   3   0   3    0.00    1.00
   3   0   3    0.40    0.90
   3   0   3   -0.10    0.80
   4   0   3   48.30    4.90
   4   0   3   44.60    3.70
  -4   0  -3   50.89    4.40
   5   0   3  209.78   10.20
  -5   0  -3  205.28   10.10
   5   0   3  192.48    9.20
   6   0   3   94.29    6.90
   6   0   3   94.69    6.40
  -6   0  -3   99.69    7.30
   7   0   3   14.10    3.40
   7   0   3   19.60    3.80
   9  -1  -3   39.70    5.40
  -9  -1   3   39.50    5.50
  -9   1   3   42.40    6.00
   9   1  -3   35.30    5.40
  -8  -1   3   26.40    4.50
   8  -1  -3   16.40    3.60
  -8   1   3   19.40    4.00
   8   1  -3   27.30    4.40
   7  -1  -3   42.10    4.90
  -7  -1   3   40.50    4.80
  -7  -1   3   36.10    4.40
  -7   1   3   33.80    4.20
  -7   1   3   32.00    4.20
   7   1  -3   44.50    4.90
  -6  -1   3   61.19    4.80
   6  -1  -3   61.79    4.70
  -6  -1   3   65.59    5.30
  -6  -1   3   69.39    4.80
  -6   1   3   69.49    5.50
  -6   1   3   61.79    4.60
   6   1  -3   66.09    4.90
  -6   1   3   69.69    5.00
  -5  -1   3  545.15   19.50
  -5  -1   3  553.54   18.90
   5  -1  -3  556.44   18.90
  -5  -1   3  545.25   18.90
  -5   1   3  569.24   20.10
  -5   1   3  553.74   19.20
  -5   1   3  540.05   19.30
   5   1  -3  569.94   19.10
  -4  -1   3  678.03   21.80
  -4  -1   3  637.84   21.20
   4  -1  -3  661.23   21.10
  -4  -1   3  637.54   21.10
  -4   1   3  688.43   22.50
   4   1  -3  652.43   21.50
  -4   1   3  675.93   21.80
  -4   1   3  667.53   22.00
  -3  -1   3 2436.36   72.69
  -3  -1   3 2462.35   72.19
  -3  -1   3 2470.35   72.49
   3  -1  -3 2525.75   72.29
  -3   1   3 2559.54   75.29
   3   1  -3 2642.44   75.19
  -3   1   3 2609.04   75.79
  -3   1   3 2493.65   75.79
  -2  -1   3 1017.40   31.10
  -2  -1   3 1051.09   31.40
   2  -1  -3 1069.89   31.10
  -2  -1   3 1044.80   30.80
  -2   1   3 1088.29   31.10
   2   1  -3 1084.79   31.60
  -2   1   3 1053.09   32.10
  -2   1   3 1056.29   31.70
  -2   1   3 1067.69   32.40
  -1  -1   3  870.91   23.80
   1  -1  -3  810.22   24.10
  -1  -1   3  777.62   23.90
  -1  -1   3  826.42   24.80
   1   1  -3  822.92   23.20
  -1   1   3  808.22   24.00
  -1   1   3  794.62   24.60
  -1   1   3  777.42   23.80
   0  -1  -3  331.67   10.10
   0   1   3  332.37   10.20
   0   1   3  322.67   11.10
   1  -1   3   64.99    2.90
   1  -1   3   67.79    2.80
  -1  -1  -3   67.29    2.90
  -1  -1  -3   65.39    3.00
   1  -1   3   69.39    2.60
   1   1   3   71.49    2.90
   1   1   3   65.29    3.80
   1   1   3   69.59    3.00
   1   1   3   64.19    3.10
  -1   1  -3   68.39    2.80
  -2  -1  -3   66.09    3.50
  -2  -1  -3   56.59    3.20
   2  -1   3   62.69    3.20
   2  -1   3   70.69    3.10
   2  -1   3   68.49    3.50
  -2   1  -3   69.39    3.30
   2   1   3   65.09    4.20
   2   1   3   64.69    3.50
  -2   1  -3   62.49    3.40
   2   1   3   72.69    3.30
   2   1   3   65.59    3.40
   3  -1   3   52.99    3.40
   3  -1   3   55.09    4.10
  -3  -1  -3   53.29    3.30
   3  -1   3   53.79    4.10
  -3   1  -3   59.09    3.50
   3   1   3   53.39    4.00
  -3   1  -3   53.59    4.00
   3   1   3   55.69    3.50
   4  -1   3  110.79    5.90
   4  -1   3  115.79    6.70
  -4   1  -3  121.99    6.70
   4   1   3  115.19    6.00
   4   1   3  111.39    6.60
   5  -1   3   87.19    5.50
   5  -1   3   90.09    6.20
  -5   1  -3  106.49    6.70
   5   1   3   86.69    6.20
   5   1   3   92.29    5.80
   6  -1   3   64.09    6.70
   6  -1   3   50.79    5.30
  -6   1  -3   54.19    5.90
   6   1   3   56.99    5.00
   6   1   3   56.89    6.10
   7  -1   3    1.50    2.10
   7  -1   3    3.70    2.20
  -7   1  -3    6.00    2.60
   7   1   3   -0.90    1.70
   7   1   3    2.10    2.00
  -9  -2   3    0.70    2.60
   9  -2  -3    1.10    2.10
   9   2  -3   -0.10    2.60
  -9   2   3    0.80    2.30
   8  -2  -3   11.10    3.40
  -8  -2   3   14.10    3.40
   8   2  -3    9.90    3.00
  -8   2   3   10.80    3.00
  -7  -2   3   44.60    5.10
   7  -2  -3   42.30    4.90
  -7  -2   3   34.50    4.40
   7   2  -3   37.50    4.60
  -7   2   3   35.70    4.70
  -7   2   3   38.80    4.70
  -6  -2   3   53.39    4.40
   6  -2  -3   48.40    4.20
  -6  -2   3   47.90    4.70
  -6  -2   3   50.89    4.70
  -6   2   3   54.19    5.00
   6   2  -3   52.59    4.40
  -6   2   3   48.20    4.20
  -6   2   3   42.30    4.50
  -5  -2   3  105.49    5.80
  -5  -2   3  115.19    6.50
  -5  -2   3  114.49    5.90
   5  -2  -3  112.09    5.90
  -5   2   3  110.99    6.10
   5   2  -3  112.79    6.00
  -5   2   3  128.89    7.00
  -5   2   3  111.49    6.20
  -4  -2   3   52.69    3.70
  -4  -2   3   50.09    3.30
  -4  -2   3   41.30    3.10
   4  -2  -3   49.99    3.40
   4   2  -3   52.49    2.20
  -4   2   3   48.40    3.40
  -4   2   3   51.79    3.90
   4   2  -3   48.80    3.30
   3  -2  -3  678.53   21.30
  -3  -2   3  684.53   21.20
  -3  -2   3  647.64   21.40
  -3  -2   3  693.43   21.10
   3   2  -3  717.53   22.10
  -3   2   3  710.13   22.30
  -3   2   3  661.63   22.60
   3   2  -3  730.73   20.90
  -3   2   3  720.23   20.80
  -3   2   3  704.83   22.70
  -2  -2   3  125.19    4.70
  -2  -2   3  121.29    4.90
  -2  -2   3  126.69    4.90
   2  -2  -3  128.89    5.00
  -2   2   3  138.89    4.70
  -2   2   3  123.19    5.40
  -2   2   3  136.09    5.70
   2   2  -3  131.09    4.90
   1  -2  -3 2123.79   62.19
  -1  -2   3 2297.37   61.69
  -1  -2   3 2175.18   62.29
  -1  -2   3 2026.80   61.79
  -1  -2   3 2109.49   61.49
  -1   2   3 2158.58   61.89
  -1   2   3 2082.29   62.49
   1   2  -3 2161.18   61.19
  -1   2   3 2107.59   61.99
   0  -2  -3   20.80    1.50
   0  -2   3   22.50    1.00
   0  -2  -3   19.60    1.50
   0  -2   3   20.80    1.20
   0  -2   3   20.30    1.00
   0  -2  -3   20.20    1.40
   0   2   3   20.80    2.10
   1  -2   3  681.83   20.20
  -1  -2  -3  655.33   20.50
  -1  -2  -3  706.43   20.80
   1  -2   3  679.43   20.00
   1  -2   3  650.33   20.40
  -1   2  -3  674.23   20.70
   1   2   3  692.73   21.30
   1   2   3  684.23   21.10
   1   2   3  675.03   22.00
   1   2   3  720.63   21.00
   2  -2   3  455.95   15.20
  -2  -2  -3  477.05   15.30
   2  -2   3  450.65   14.80
  -2  -2  -3  446.46   14.90
   2  -2   3  477.75   14.60
  -2   2  -3  434.36   14.60
  -2   2  -3  457.85   14.80
   2   2   3  456.55   15.20
   2   2   3  477.15   14.80
   2   2   3  453.75   16.00
   2   2   3  459.65   15.00
   3  -2   3   71.49    4.10
  -3  -2  -3   75.29    4.20
   3   2   3   73.79    4.30
  -3   2  -3   64.29    4.40
  -3   2  -3   75.79    4.10
   3   2   3   68.49    4.70
  -4  -2  -3   22.90    4.30
   4  -2   3   23.20    2.90
   4  -2   3   25.40    3.60
   4   2   3   23.50    3.50
   4   2   3   23.00    2.90
  -4   2  -3   20.50    3.10
   5  -2   3  436.66   16.20
   5  -2   3  426.36   17.00
   5   2   3  445.96   17.40
  -5   2  -3  453.35   17.30
   5   2   3  421.16   16.40
   6  -2   3    6.80    2.40
   6  -2   3    6.20    2.80
  -6   2  -3    7.10    2.50
   6   2   3    5.60    2.60
   6   2   3    4.90    2.20
   7  -2   3   53.69    5.90
   7  -2   3   56.99    6.70
   7   2   3   48.10    5.90
   7   2   3   40.30    5.20
   9  -3  -3   95.29    7.90
  -9  -3   3  113.19    8.30
  -9   3   3   98.99    8.30
   9   3  -3  108.89    8.40
  -8  -3   3   11.80    3.10
   8  -3  -3    8.50    3.00
  -8   3   3   11.90    3.50
   8   3  -3   13.90    3.50
  -7  -3   3   27.40    4.00
  -7  -3   3   36.50    4.50
   7  -3  -3   33.80    4.40
  -7   3   3   36.10    4.80
  -7   3   3   21.70    3.60
   7   3  -3   30.10    4.10
  -6  -3   3  306.37   13.00
  -6  -3   3  323.27   12.90
   6  -3  -3  335.97   13.40
  -6  -3   3  346.77   14.20
  -6   3   3  346.07   14.70
  -6   3   3  333.97   13.70
   6   3  -3  342.17   13.70
  -6   3   3  327.77   13.90
   5  -3  -3   99.39    5.60
  -5  -3   3   88.49    5.30
  -5  -3   3   97.79    5.30
  -5  -3   3   97.19    5.90
   5   3  -3   98.99    5.50
  -5   3   3  100.49    5.90
  -5   3   3   82.99    5.30
  -5   3   3   98.09    6.20
  -4  -3   3  101.89    5.40
   4  -3  -3   94.49    5.00
  -4  -3   3  104.39    4.90
  -4  -3   3   93.49    4.90
   4   3  -3  101.39    4.00
  -4   3   3   98.49    5.20
   4   3  -3  101.89    5.10
  -4   3   3  105.39    5.70
  -4   3   3   92.69    5.30
  -3  -3   3   45.30    2.70
   3  -3  -3   46.20    3.00
  -3  -3   3   43.90    3.10
  -3  -3   3   46.70    2.90
   3   3  -3   48.00    2.90
  -3   3   3   44.50    3.00
  -3   3   3   42.80    3.20
   3   3  -3   48.20    2.40
  -3   3   3   43.60    3.30
  -3   3   3   48.70    2.30
  -2  -3   3   93.89    3.80
  -2  -3   3   94.89    3.90
   2  -3  -3   92.09    4.20
  -2  -3   3   90.49    4.20
  -2   3   3   95.99    4.60
   2   3  -3   94.19    3.90
  -2   3   3   88.99    4.50
   2   3  -3   94.99    3.90
  -2   3   3   93.09    3.80
  -1  -3   3  141.19    4.90
   1  -3  -3  137.09    5.20
  -1  -3   3  131.89    4.80
  -1  -3   3  136.59    4.70
  -1  -3   3  134.79    5.00
   1   3  -3  148.89    4.90
  -1   3   3  132.39    5.30
  -1   3   3  127.99    5.70
  -1   3   3  133.09    5.50
   0  -3   3  314.17   10.10
   0  -3  -3  311.87   10.50
   0  -3   3  312.77    9.70
   0  -3   3  346.17    9.90
   0  -3  -3  314.77   10.40
   0  -3   3  316.37    9.90
   0  -3   3  312.67    9.70
   0  -3  -3  310.27   10.40
   0   3   3  300.77   10.50
  -1  -3  -3   13.50    1.60
   1  -3   3   15.50    1.20
   1  -3   3   10.20    1.30
  -1  -3  -3   10.70    1.40
   1  -3   3   14.50    1.50
   1   3   3   15.80    1.70
  -1   3  -3   13.80    1.50
   1   3   3   14.00    1.80
   1   3   3   13.40    1.70
  -1   3  -3   13.30    1.30
   1   3   3   16.80    2.30
  -2  -3  -3   32.90    2.60
   2  -3   3   29.20    2.20
   2  -3   3   30.30    2.10
  -2  -3  -3   27.10    2.30
   2  -3   3   31.20    2.50
   2   3   3   28.50    2.50
  -2   3  -3   29.50    2.40
   2   3   3   28.40    2.70
   2   3   3   22.20    2.70
  -2   3  -3   28.70    2.10
   2   3   3   30.80    2.30
  -2   3  -3   23.10    2.40
   3  -3   3  216.28    8.40
  -3  -3  -3  207.08    8.40
   3   3   3  217.08    9.50
  -3   3  -3  220.98    8.40
   3   3   3  214.18    8.70
  -3   3  -3  201.78    8.80
  -4  -3  -3   89.79    6.50
   4  -3   3   78.59    4.80
   4   3   3   77.69    5.00
   4   3   3   76.99    5.40
  -4   3  -3   85.09    5.30
   5  -3   3    9.40    2.50
   5  -3   3    8.90    2.30
   5   3   3   10.00    2.70
  -5   3  -3   18.80    3.00
   5   3   3   10.30    2.60
   6  -3   3   58.69    6.30
   6  -3   3   72.19    5.50
   6   3   3   61.49    6.20
   6   3   3   62.99    6.50
  -6   3  -3   69.29    6.90
   7  -3   3   31.30    4.50
   7  -3   3   28.20    5.20
   7   3   3   33.60    4.90
   7   3   3   32.30    5.00
  -7   3  -3   33.60    5.00
   9  -4  -3   22.60    4.70
  -9  -4   3   20.20    4.20
   9   4  -3   14.60    4.40
  -8  -4   3   49.10    5.80
   8  -4  -3   57.59    6.50
  -8   4   3   56.29    6.20
   8   4  -3   57.49    6.60
  -7  -4   3   18.90    3.20
   7  -4  -3   24.40    3.80
  -7  -4   3   27.50    3.90
   7   4  -3   25.80    4.00
  -7   4   3   24.90    3.90
  -7   4   3   26.90    4.30
  -6  -4   3   43.10    5.10
  -6  -4   3   44.50    4.30
  -6  -4   3   37.20    4.30
   6  -4  -3   23.40    3.50
  -6   4   3   37.50    4.80
   6   4  -3   35.10    4.10
  -6   4   3   37.10    4.20
  -6   4   3   38.30    4.30
  -5  -4   3  388.76   14.90
  -5  -4   3  371.56   14.10
  -5  -4   3  384.16   13.70
   5  -4  -3  379.16   14.40
  -5   4   3  374.46   14.90
   5   4  -3  419.96   13.30
   5   4  -3  389.86   14.80
  -5   4   3  405.46   15.40
  -5   4   3  435.86   16.30
  -4  -4   3  103.79    5.30
   4  -4  -3  102.69    5.50
  -4  -4   3  102.29    4.90
  -4  -4   3  109.69    5.90
  -4   4   3  104.79    6.00
  -4   4   3  101.99    5.40
  -4   4   3  103.09    5.70
   4   4  -3  103.79    5.30
   4   4  -3  107.89    4.40
  -3  -4   3   19.80    2.10
  -3  -4   3   21.70    2.50
  -3  -4   3   21.80    1.80
   3  -4  -3   23.40    2.60
  -3   4   3   24.50    1.80
  -3   4   3   21.40    2.80
   3   4  -3   23.30    2.30
  -3   4   3   19.00    2.40
   3   4  -3   19.40    1.70
  -2  -4   3 1056.09   30.90
  -2  -4   3 1058.29   31.40
   2  -4  -3 1049.40   32.00
  -2  -4   3 1027.00   31.90
   2   4  -3 1008.70   30.90
  -2   4   3  998.90   31.60
  -2   4   3 1053.39   30.90
  -2   4   3 1018.50   31.90
   2   4  -3 1054.99   30.90
  -1  -4   3  254.97    9.00
  -1  -4   3  258.07    8.60
  -1  -4   3  269.47    8.80
  -1  -4   3  261.97    9.00
  -1  -4   3  270.57    8.30
   1  -4  -3  260.17    9.20
  -1   4   3  255.17    9.30
  -1   4   3  253.97    9.30
  -1   4   3  241.38    8.80
   0  -4   3 1140.29   33.50
   0  -4  -3 1125.79   34.30
   0  -4  -3 1149.29   34.20
   0  -4   3 1129.29   33.90
   0  -4   3 1116.49   33.30
   0  -4   3 1153.58   33.40
   0  -4  -3 1132.99   34.10
   0   4   3 1084.89   33.20
  -1  -4  -3  523.15   16.90
  -1  -4  -3  481.05   16.50
   1  -4   3  520.75   16.20
   1  -4   3  535.45   16.00
   1  -4   3  521.85   16.60
   1   4   3  557.14   17.20
  -1   4  -3  530.65   16.80
   1   4   3  511.75   17.90
   1   4   3  519.65   17.20
   1   4   3  540.45   17.60
  -2  -4  -3  462.95   15.20
   2  -4   3  439.26   14.50
  -2  -4  -3  422.96   14.80
   2  -4   3  433.36   14.90
  -2   4  -3  437.46   14.30
   2   4   3  448.26   15.20
  -2   4  -3  464.05   14.70
   2   4   3  432.36   15.00
   2   4   3  403.06   15.50
  -2   4  -3  432.36   14.70
  -3  -4  -3  133.39    6.40
   3  -4   3  146.49    6.40
  -3   4  -3  139.19    6.70
  -3   4  -3  136.39    6.40
   3   4   3  145.09    7.30
   3   4   3  146.69    6.80
   4  -4   3  360.46   13.50
   4   4   3  373.16   14.10
   4   4   3  360.76   14.60
  -4   4  -3  364.26   14.00
   5  -4   3   27.00    3.50
   5   4   3   34.70    4.10
   5   4   3   34.80    4.50
  -5   4  -3   32.30    4.30
   6  -4   3  136.59    8.60
   6  -4   3  128.79    7.60
   6   4   3  137.79    8.20
  -6   4  -3  133.19    8.60
   6   4   3  145.59    8.90
   7  -4   3   33.60    4.90
   7  -4   3   42.50    5.80
  -7   4  -3   32.30    4.80
   7   4   3   34.40    5.10
   7   4   3   23.00    4.90
   9  -5  -3  107.19    8.50
  -9  -5   3  103.99    7.80
   9   5  -3  120.09    8.90
  -9   5   3  116.59   13.60
   8  -5  -3   23.30    4.40
  -8  -5   3   12.20    3.30
  -8   5   3    8.50    3.20
   8   5  -3   14.20    3.90
  -7  -5   3   24.00    3.70
   7  -5  -3   21.90    3.60
  -7  -5   3   29.10    3.90
  -7   5   3   23.50    4.00
   7   5  -3   20.50    3.80
  -7   5   3   23.90    3.80
  -6  -5   3  164.28    9.30
  -6  -5   3  175.38    8.70
  -6  -5   3  165.88    7.90
   6  -5  -3  161.88    8.60
   6   5  -3  186.18    9.20
  -6   5   3  171.98    9.20
  -6   5   3  211.68   12.60
  -6   5   3  173.28    9.10
  -5  -5   3  147.49    7.40
  -5  -5   3  157.48    8.20
  -5  -5   3  148.99    6.80
   5  -5  -3  155.28    7.70
   5   5  -3  145.99    6.20
  -5   5   3  154.98    8.00
  -5   5   3  146.79    7.70
  -5   5   3  173.38    8.90
   5   5  -3  158.58    7.70
   4  -5  -3   36.90    3.80
  -4  -5   3   36.40    2.60
  -4  -5   3   38.60    3.50
  -4  -5   3   39.10    3.20
  -4   5   3   37.20    4.30
  -4   5   3   32.10    3.50
   4   5  -3   39.00    3.20
   4   5  -3   37.40    2.60
  -4   5   3   42.30    2.70
   3  -5  -3  479.55   16.90
  -3  -5   3  508.05   17.20
  -3  -5   3  481.75   16.50
  -3  -5   3  517.25   15.60
  -3   5   3  515.75   17.50
  -3   5   3  531.85   16.50
   3   5  -3  503.75   16.50
  -3   5   3  497.15   17.90
   3   5  -3  511.15   16.90
  -2  -5   3  280.07   10.30
  -2  -5   3  292.17    8.90
  -2  -5   3  286.37    9.90
   2  -5  -3  272.87   10.30
  -2   5   3  288.97   10.00
  -2   5   3  275.97   10.50
   2   5  -3  284.47    9.90
  -2   5   3  285.87   10.90
   2   5  -3  290.67   10.20
  -1  -5   3  288.57   10.40
  -1  -5   3  314.67    8.90
  -1  -5   3  300.67   10.10
  -1  -5   3  282.07   10.30
   1  -5  -3  289.77   10.50
  -1  -5   3  301.77    9.90
   1   5  -3  301.17   10.50
  -1   5   3  282.47   10.40
  -1   5   3  286.17   10.20
  -1   5   3  279.37   10.70
   0  -5  -3  843.52   26.30
   0  -5   3  842.02   25.50
   0  -5  -3  846.42   26.50
   0  -5   3  828.52   26.00
   0  -5  -3  850.11   26.30
   0  -5   3  843.02   26.20
   0  -5   3  842.62   25.70
   0  -5   3  876.71   25.60
   0   5   3  814.22   25.80
   1  -5   3  257.47    9.80
  -1  -5  -3  271.57   10.20
  -1  -5  -3  266.87    9.90
   1  -5   3  283.67    9.30
   1  -5   3  270.47    9.50
   1   5   3  260.27   10.50
  -1   5  -3  286.87    9.80
   1   5   3  265.97   10.20
   1   5   3  281.77   10.50
   2  -5   3  126.99    6.10
   2  -5   3  136.59    5.90
  -2  -5  -3  122.79    5.90
   2   5   3  126.69    6.10
  -2   5  -3  127.79    5.60
   2   5   3  125.09    6.60
   3  -5   3   64.29    4.10
  -3  -5  -3   68.39    4.40
  -3   5  -3   72.59    4.40
   3   5   3   60.49    4.50
   3   5   3   74.59    5.10
   4  -5   3   55.29    4.10
  -4   5  -3   58.29    4.40
   4   5   3   57.49    4.90
   4   5   3   55.49    4.40
   5  -5   3   10.20    2.40
  -5   5  -3   16.10    3.20
   5   5   3   14.90    3.00
   5   5   3   11.60    2.70
   6  -5   3   13.20    3.50
   6  -5   3   13.10    2.90
   6   5   3   18.80    3.90
   6   5   3   23.90    4.00
  -6   5  -3   10.30    3.30
   7  -5   3   95.29    7.10
   7  -5   3  102.99    8.30
   7   5   3  111.09    8.20
  -7   5  -3  125.49    8.60
   7   5   3   98.89    7.60
   8  -6  -3   98.79    7.50
  -8  -6   3  107.69    7.20
  -8   6   3   98.59    7.40
   8   6  -3   94.09    7.60
  -7  -6   3  200.48   10.40
   7  -6  -3  180.98    9.90
  -7  -6   3  189.18    9.20
  -7   6   3  198.78   10.50
  -7   6   3  198.68   10.40
   7   6  -3  187.88   10.30
  -6  -6   3   48.00    3.90
   6  -6  -3   50.69    5.40
  -6  -6   3   39.90    4.70
  -6  -6   3   52.49    5.90
  -6   6   3   47.40    5.10
  -6   6   3   37.00    4.40
   6   6  -3   38.20    4.40
  -5  -6   3   77.29    5.20
  -5  -6   3   81.09    4.60
  -5  -6   3   84.49    5.90
   5  -6  -3   76.59    5.50
  -5   6   3   82.09    6.20
   5   6  -3   83.19    5.40
  -5   6   3   77.29    5.20
  -5   6   3   75.19    5.50
   5   6  -3   73.39    4.20
  -4  -6   3   33.30    3.40
  -4  -6   3   33.20    2.50
  -4  -6   3   26.10    3.30
   4  -6  -3   28.00    3.30
  -4   6   3   36.10    4.20
  -4   6   3   35.40    3.70
   4   6  -3   33.60    3.60
  -4   6   3   34.90    2.70
   4   6  -3   33.20    2.70
  -3  -6   3  262.07    8.70
  -3  -6   3  263.47   10.50
  -3  -6   3  254.77    9.90
   3  -6  -3  252.27   10.20
  -3   6   3  271.17    9.60
   3   6  -3  248.98    9.80
   3   6  -3  253.67    9.50
  -3   6   3  269.87   11.00
  -3   6   3  242.98   10.10
   2  -6  -3   75.09    4.30
  -2  -6   3   69.39    4.30
  -2  -6   3   77.49    4.00
  -2  -6   3   79.19    2.70
  -2   6   3   67.49    4.10
   2   6  -3   68.99    3.80
  -2   6   3   77.29    4.00
  -2   6   3   76.79    4.80
   2   6  -3   74.69    4.00
  -1  -6   3  153.08    6.20
  -1  -6   3  166.28    6.80
   1  -6  -3  162.78    7.00
  -1  -6   3  164.98    6.40
  -1  -6   3  147.69    6.60
   1  -6  -3  151.58    6.70
  -1   6   3  151.38    6.60
  -1   6   3  155.08    6.70
  -1   6   3  147.79    7.10
   1   6  -3  161.18    6.90
   0  -6   3   12.60    1.70
   0  -6  -3   10.70    1.80
   0  -6   3   13.60    1.70
   0  -6  -3    8.90    1.80
   0  -6   3    9.60    1.50
   0  -6   3    9.20    1.60
   0  -6   3    9.60    1.70
   0   6   3   10.40    1.90
   1  -6   3  579.64   19.40
   1  -6   3  598.84   19.00
  -1  -6  -3  584.64   19.40
  -1  -6  -3  584.44   19.40
  -1   6  -3  616.54   19.00
   1   6   3  540.75   19.70
   2  -6   3  187.48    7.80
  -2  -6  -3  189.88    8.10
   2   6   3  183.68    8.20
  -2   6  -3  193.38    7.40
   3  -6   3  208.98    8.80
  -3  -6  -3  211.68    9.10
  -3   6  -3  203.28    8.30
   3   6   3  198.48    9.60
   3   6   3  190.68    8.90
   4  -6   3   51.39    4.10
   4   6   3   41.70    5.10
   4   6   3   55.69    4.60
  -4   6  -3   52.69    4.00
   5  -6   3  118.09    6.90
   5   6   3  127.69    7.80
   5   6   3  130.89    8.00
  -5   6  -3  139.39    7.60
   6  -6   3   38.40    4.70
  -6   6  -3   44.20    5.40
   6   6   3   39.00    5.20
   6   6   3   39.90    5.40
   8  -7  -3    2.20    2.30
  -8   7   3    3.00    2.20
   8   7  -3    8.80    3.00
   7  -7  -3   46.40    5.60
  -7   7   3   59.89    6.30
   7   7  -3   56.29    6.40
  -6  -7   3  190.28   10.20
  -6  -7   3  162.68    8.80
  -6  -7   3  160.48    8.80
   6  -7  -3  145.49    8.70
   6   7  -3  164.48    8.80
  -6   7   3  162.88    8.80
  -5  -7   3   63.09    4.80
  -5  -7   3   61.99    4.40
  -5  -7   3   58.19    5.20
   5  -7  -3   59.99    5.00
   5   7  -3   56.19    3.90
  -5   7   3   63.79    5.60
  -5   7   3   62.59    5.10
   5   7  -3   69.39    5.00
  -4  -7   3  136.79    7.40
   4  -7  -3  127.89    7.00
  -4  -7   3  123.09    6.50
  -4   7   3  133.59    6.00
  -4   7   3  119.39    6.60
   4   7  -3  120.49    6.50
  -4   7   3  127.09    7.50
   4   7  -3  122.29    6.00
  -3  -7   3   66.59    4.20
   3  -7  -3   65.99    4.40
  -3  -7   3   69.89    4.80
  -3   7   3   71.29    5.10
   3   7  -3   65.29    4.20
  -3   7   3   68.29    4.50
   3   7  -3   72.69    4.20
  -3   7   3   74.39    4.30
   2  -7  -3  245.78   10.10
  -2  -7   3  257.57    9.70
  -2  -7   3  259.27    9.90
  -2  -7   3  263.47   10.40
   2   7  -3  245.68    9.50
  -2   7   3  258.17   10.70
  -2   7   3  254.07    9.90
  -2   7   3  249.78    9.60
   2   7  -3  247.58    9.80
  -1  -7   3   10.10    1.90
   1  -7  -3   10.80    2.00
   1  -7  -3   10.90    2.00
  -1  -7   3   11.30    1.90
  -1  -7   3   12.40    1.80
   1  -7  -3   11.80    2.00
  -1  -7   3   10.10    1.80
   1   7  -3   11.60    2.10
  -1   7   3    8.10    1.80
  -1   7   3    8.10    1.80
   0  -7   3   61.19    3.60
   0  -7   3   71.09    4.20
   0  -7   3   58.49    3.50
   0  -7  -3   62.49    4.00
   0  -7  -3   71.79    4.40
   0  -7  -3   64.69    4.10
   0  -7   3   54.19    3.70
   0   7   3   55.49    3.80
   0   7   3   63.99    4.20
   0   7  -3   63.69    4.40
  -1  -7  -3  313.07   11.80
   1  -7   3  306.97   11.10
   1  -7   3  312.87   11.40
  -1  -7  -3  314.87   11.90
   1   7   3  307.47   12.20
  -2  -7  -3   51.89    3.90
   2  -7   3   52.39    3.70
  -2   7  -3   55.49    3.20
   2   7   3   50.59    4.30
   2   7   3   55.69    4.20
   3  -7   3   49.20    3.90
  -3  -7  -3   47.30    4.00
   3   7   3   49.60    5.10
  -3   7  -3   47.40    3.50
   3   7   3   51.09    4.30
   4  -7   3  247.98   10.70
  -4   7  -3  259.17   10.40
   4   7   3  244.58   11.50
   4   7   3  227.58   11.00
   5  -7   3   29.90    3.90
  -5   7  -3   32.50    4.10
   5   7   3   28.50    4.40
   5   7   3   16.80    3.50
   6  -7   3   16.80    3.50
   6   7   3   26.40    4.30
   6   7   3   19.70    4.00
   8  -8  -3  105.39    8.40
   8   8  -3  100.59    8.40
  -8   8   3  118.59    8.30
   7  -8  -3   56.09    6.00
   7   8  -3   62.99    6.70
  -7   8   3   60.99    6.60
   6  -8  -3  110.49    7.50
  -6  -8   3  126.59    8.70
  -6  -8   3  112.49    7.30
   6   8  -3  102.99    6.90
  -6   8   3  108.29    7.10
   5  -8  -3  104.29    6.60
  -5  -8   3   86.39    5.80
  -5  -8   3   96.69    6.90
   5   8  -3   98.29    6.30
  -5   8   3   96.29    6.30
   5   8  -3   88.29    5.30
  -4  -8   3   64.09    4.60
   4  -8  -3   57.49    4.70
  -4  -8   3   56.89    4.90
   4   8  -3   61.69    4.20
   4   8  -3   57.69    4.50
  -4   8   3   62.99    4.20
  -4   8   3   62.89    5.50
  -4   8   3   54.59    4.50
   3  -8  -3    6.90    2.00
  -3  -8   3    8.20    1.90
  -3  -8   3    4.90    1.70
   3   8  -3    4.10    1.40
  -3   8   3    7.80    1.80
  -3   8   3    8.10    2.00
   3   8  -3    6.40    1.80
  -3   8   3    4.70    1.90
   2  -8  -3  278.37   11.00
  -2  -8   3  276.67   11.20
  -2  -8   3  272.17   10.60
  -2  -8   3  269.37   10.70
  -2   8   3  272.97   10.70
   2   8  -3  271.27   10.80
  -2   8   3  282.97   11.80
  -2   8   3  267.17   10.60
  -1  -8   3   73.49    4.70
  -1  -8   3   77.59    4.40
   1  -8  -3   71.99    4.50
   1  -8  -3   79.29    4.80
  -1  -8   3   74.89    4.20
   1   8  -3   66.09    4.50
  -1   8   3   68.59    4.50
  -1   8   3   68.99    4.30
   0  -8   3   74.79    4.60
   0  -8   3   77.89    4.40
   0  -8   3   69.69    4.00
   0  -8  -3   76.29    4.70
   0  -8  -3   76.49    4.70
   0   8   3   73.19    4.50
   0   8  -3   66.79    4.70
   0   8   3   72.09    4.80
   1  -8   3  106.29    5.60
  -1  -8  -3  110.39    5.90
  -1  -8  -3  106.19    6.00
   1  -8   3  102.99    5.30
   1   8   3   91.29    5.70
  -2  -8  -3   62.99    4.70
   2  -8   3   59.59    4.20
  -2  -8  -3   60.69    4.40
   2   8   3   55.09    4.30
   2   8   3   56.29    4.70
   3  -8   3  284.97   11.80
  -3  -8  -3  294.97   12.20
   3   8   3  281.77   12.20
   3   8   3  290.07   12.80
   4  -8   3    6.40    2.00
   4   8   3    7.30    2.30
   4   8   3    8.50    2.50
   5  -8   3    1.60    1.80
   5   8   3    3.80    2.30
   5   8   3    2.50    2.00
   6  -8   3    7.90    2.60
   6   8   3    6.20    2.70
   6   8   3    5.80    2.80
   7  -9  -3   49.20    6.00
  -7   9   3   45.50    5.50
   7   9  -3   53.79    6.50
   6  -9  -3   40.00    5.10
  -6   9   3   43.70    5.40
   6   9  -3   60.19    6.20
   5  -9  -3   15.00    3.10
  -5  -9   3   12.00    2.90
  -5  -9   3   14.50    3.00
   5   9  -3    8.90    2.50
   5   9  -3   16.00    2.70
  -5   9   3   10.60    2.80
   4  -9  -3  321.67   13.50
  -4  -9   3  311.77   12.90
  -4  -9   3  320.27   13.80
  -4   9   3  338.77   14.40
   4   9  -3  292.77   12.10
   4   9  -3  301.97   12.70
  -4   9   3  323.47   12.50
  -4   9   3  317.67   12.80
   3  -9  -3   14.50    2.70
  -3  -9   3   25.80    3.20
  -3  -9   3   19.60    3.30
  -3   9   3   20.10    2.90
   3   9  -3   17.00    2.70
  -3   9   3   23.40    3.70
  -3   9   3   15.00    2.60
   3   9  -3   15.90    2.60
  -2  -9   3  254.07   11.00
  -2  -9   3  254.87   10.30
   2  -9  -3  262.17   10.90
  -2  -9   3  252.77   10.50
  -2   9   3  263.77   10.80
  -2   9   3  276.87   12.00
   2   9  -3  244.48   10.70
  -2   9   3  271.77   10.60
  -1  -9   3  258.97   10.40
   1  -9  -3  261.57   10.80
  -1  -9   3  258.87   10.20
  -1  -9   3  251.07   10.80
   1  -9  -3  262.77   10.90
  -1   9   3  251.67   10.00
   1   9  -3  252.27   10.70
  -1   9   3  243.18   10.40
   0  -9   3   32.80    3.80
   0  -9  -3   24.50    3.10
   0  -9   3   23.30    2.70
   0  -9  -3   27.90    3.40
   0  -9   3   24.90    3.00
   0   9   3   34.90    3.60
   0   9  -3   22.40    3.40
   0   9   3   25.90    3.30
   1  -9   3   77.99    4.90
   1  -9   3   73.69    5.00
  -1  -9  -3   75.69    5.20
   1  -9   3   78.19    4.70
  -1  -9  -3   76.19    5.10
   1   9   3   77.09    5.30
   2  -9   3    1.40    1.30
  -2  -9  -3    1.50    1.50
  -2  -9  -3    4.60    1.90
   2   9   3    0.10    1.50
   3  -9   3   18.10    3.00
  -3  -9  -3   18.70    3.30
   3   9   3   18.30    3.60
   3   9   3   15.80    3.00
   4  -9   3  143.99    8.00
   4   9   3  132.69    8.00
   4   9   3  131.49    8.20
   5  -9   3  137.39    8.00
   5   9   3  135.99    8.90
   5   9   3  142.79    8.70
   6  -9   3    7.70    2.80
   6   9   3    7.70    2.90
   6   9   3    6.30    3.10
   7 -10  -3   23.20    4.70
  -7  10   3   17.20    4.10
   7  10  -3   25.90    5.40
   6 -10  -3   32.00    4.90
  -6  10   3   25.40    4.10
   6  10  -3   21.20    4.00
   5 -10  -3    3.50    2.00
  -5 -10   3    0.00    1.70
  -5 -10   3    1.50    1.80
   5  10  -3    3.90    2.00
  -5  10   3    5.00    2.40
   5  10  -3    1.10    1.60
  -4 -10   3   61.59    4.80
   4 -10  -3   58.89    5.10
  -4 -10   3   58.39    5.40
   4  10  -3   62.89    4.90
  -4  10   3   53.79    4.70
  -4  10   3   58.09    4.60
   4  10  -3   68.79    5.00
   3 -10  -3   78.29    5.90
  -3 -10   3   71.09    5.60
  -3 -10   3   81.49    5.40
  -3 -10   3   74.09    5.40
   3  10  -3   80.89    5.30
  -3  10   3   69.89    5.00
  -3  10   3   74.49    5.10
   3  10  -3   68.99    5.00
  -3  10   3   84.89    6.50
  -2 -10   3  317.77   12.30
  -2 -10   3  293.47   12.30
   2 -10  -3  292.37   12.60
  -2 -10   3  322.47   13.10
  -2  10   3  294.17   12.10
   2  10  -3  304.87   12.40
  -2  10   3  297.07   11.70
  -2  10   3  288.37   13.30
  -1 -10   3  112.89    6.30
   1 -10  -3  126.39    6.90
  -1 -10   3  113.99    6.70
  -1 -10   3  113.89    6.10
   1 -10  -3  119.89    6.60
   1  10  -3  100.49    6.30
  -1  10   3  104.59    6.10
  -1  10   3  106.89    5.70
   0 -10  -3   71.49    5.30
   0 -10   3   74.59    4.90
   0 -10   3   74.29    4.70
   0 -10  -3   70.09    5.00
   0 -10   3   74.89    5.20
   0  10   3   64.09    4.50
   0  10  -3   72.79    5.30
   0  10   3   69.79    5.20
  -1 -10  -3    9.10    2.30
   1 -10   3   10.30    2.40
   1 -10   3   12.30    2.50
   1 -10   3   11.20    2.10
  -1 -10  -3   10.40    2.70
   1  10   3   13.00    2.40
   1  10   3   11.70    2.90
   2 -10   3   21.00    2.90
  -2 -10  -3   21.30    3.50
  -2 -10  -3   19.80    3.40
   2 -10   3   20.90    3.30
   2  10   3   22.50    3.80
  -3 -10  -3   87.99    6.30
   3 -10   3   73.89    5.60
  -3 -10  -3   91.69    6.50
   3  10   3   75.99    6.20
   4 -10   3  105.49    6.90
   4  10   3  116.79    7.80
   4  10   3  116.29    7.80
   5 -10   3   14.30    3.20
   5  10   3   22.80    4.00
   5  10   3   24.70    4.30
   7 -11  -3    1.70    2.70
  -7  11   3    6.20    2.80
   6 -11  -3   53.29    6.80
  -6  11   3   51.49    5.70
   5 -11  -3   42.50    5.40
   5  11  -3   45.80    4.90
  -5  11   3   49.00    5.20
  -4 -11   3   38.00    4.60
   4 -11  -3   41.40    5.10
  -4 -11   3   44.20    5.40
  -4  11   3   36.90    4.40
  -4  11   3   48.50    4.30
   4  11  -3   36.70    4.60
  -3 -11   3   34.90    4.20
   3 -11  -3   34.50    4.60
  -3 -11   3   37.70    4.50
  -3 -11   3   32.10    4.30
  -3  11   3   41.90    4.70
  -3  11   3   32.00    3.80
   3  11  -3   32.50    4.20
   2 -11  -3   38.90    4.50
   2 -11  -3   41.40    4.60
  -2 -11   3   43.40    4.40
  -2 -11   3   36.90    4.20
  -2 -11   3   42.10    4.90
   2  11  -3   47.20    5.00
  -2  11   3   29.80    3.90
  -2  11   3   41.90    3.60
   1 -11  -3   83.89    5.70
  -1 -11   3   79.49    5.90
   1 -11  -3   84.09    5.90
  -1 -11   3   85.59    5.50
  -1 -11   3   85.89    5.60
  -1  11   3   80.89    5.60
  -1  11   3   75.39    4.90
   1  11  -3   79.19    5.70
   0 -11   3    1.70    1.50
   0 -11  -3    2.30    1.70
   0 -11  -3    1.20    1.50
   0 -11   3    0.00    1.20
   0 -11   3    2.40    1.40
   0  11   3    4.10    1.40
   0  11   3    3.00    1.80
   0  11  -3    0.50    1.70
   1 -11   3    0.80    1.30
  -1 -11  -3    0.60    1.80
   1 -11   3    1.30    1.70
   1 -11   3    1.70    1.30
  -1 -11  -3    1.30    1.50
   1  11   3    1.30    1.50
   1  11   3    1.10    1.80
   2 -11   3   21.80    3.40
   2 -11   3   21.80    3.20
  -2 -11  -3   34.00    4.60
  -2 -11  -3   34.50    4.50
   2  11   3   20.80    3.90
   3 -11   3   10.40    2.60
   3 -11   3    5.90    3.40
   3  11   3   12.90    3.20
   4 -11   3   19.70    3.60
   4  11   3   27.20    4.80
   5 -11   3   40.50    5.30
   5  11   3   36.20    5.60
   5  11   3   35.10    5.30
   6 -12  -3   47.20    6.40
   5 -12  -3  109.29    8.10
   5  12  -3   92.99    6.70
  -4 -12   3   53.19    6.30
   4 -12  -3   55.59    6.20
  -4 -12   3   42.00    5.30
   4  12  -3   47.80    5.30
  -4  12   3   48.50    5.40
  -3 -12   3  162.18    9.00
   3 -12  -3  172.58    9.60
  -3 -12   3  170.28    9.00
  -3 -12   3  168.58    9.80
  -3  12   3  169.58    9.00
   3  12  -3  171.08    9.10
   2 -12  -3   15.50    3.10
  -2 -12   3   23.30    4.10
  -2 -12   3   20.40    3.10
   2 -12  -3   15.50    3.10
  -2 -12   3   19.20    3.30
  -2  12   3   23.50    3.80
   2  12  -3   16.90    3.20
  -1 -12   3   83.19    5.80
   1 -12  -3   82.99    6.00
  -1 -12   3   92.79    5.90
   1 -12  -3   86.49    6.50
  -1 -12   3   83.19    6.30
  -1  12   3   85.89    6.00
   1  12  -3   70.69    5.70
   0 -12   3   87.69    6.00
   0 -12  -3   87.99    6.20
   0 -12   3   90.09    5.80
   0 -12  -3   79.49    6.20
   0 -12   3   85.99    6.30
   0  12  -3   80.09    6.30
   0  12   3   79.09    6.10
  -1 -12  -3    4.30    2.10
   1 -12   3    2.90    1.90
   1 -12   3    8.40    2.30
  -1 -12  -3    3.80    2.50
   1 -12   3    0.90    1.90
   1  12   3    1.60    2.00
   2 -12   3    4.10    2.00
  -2 -12  -3   11.40    3.20
  -2 -12  -3    8.50    2.60
   2 -12   3    4.50    2.10
   2  12   3    7.90    2.70
   3 -12   3   15.70    3.20
   3  12   3   18.10    3.90
   4 -12   3  118.29    7.90
   4  12   3  128.79    9.10
  -5 -13   3    3.60    3.10
   5 -13  -3    1.20    2.30
   5  13  -3    5.80    2.80
   4 -13  -3   14.40    3.50
  -4 -13   3   23.60    4.10
   4  13  -3   26.20    4.10
  -4  13   3   23.80    3.90
  -3 -13   3    2.30    2.20
  -3 -13   3    2.10    1.90
   3 -13  -3    2.10    1.90
   3 -13  -3   -0.40    2.00
   3  13  -3    3.00    2.10
  -3  13   3   -0.30    1.70
   2 -13  -3   72.99    6.20
  -2 -13   3   74.89    5.90
   2 -13  -3   68.09    5.60
  -2 -13   3   72.99    6.40
  -2  13   3   68.49    5.90
   2  13  -3   81.79    6.20
  -1 -13   3   25.10    3.70
  -1 -13   3   25.00    5.70
  -1 -13   3   34.30    4.90
   1 -13  -3   24.70    4.10
   1 -13  -3   24.90    4.20
  -1  13   3   21.80    4.00
   1  13  -3   21.80    3.80
   0 -13   3   19.20    3.70
   0 -13   3   19.10    3.50
   0 -13  -3   15.80    3.10
   0 -13  -3   19.60    4.00
   0  13  -3   14.40    3.60
   0  13   3   14.60    3.20
   1 -13   3    1.80    3.20
  -1 -13  -3    5.40    2.70
   1 -13   3    5.80    2.40
  -1 -13  -3    4.20    2.40
   1  13   3    4.10    2.30
  -2 -13  -3   14.10    3.60
  -2 -13  -3   12.70    3.40
   2 -13   3   11.60    3.00
   2  13   3    7.30    3.10
   3 -13   3   31.60    4.50
   3  13   3   28.00    4.80
   5 -14  -3    7.60    2.80
  -5 -14   3    2.00    2.90
  -4 -14   3   29.00    4.70
   4 -14  -3   23.60    4.70
   4  14  -3   27.80    4.40
  -4  14   3   23.60    4.20
  -3 -14   3   39.20    5.20
   3 -14  -3   50.19    6.40
   3  14  -3   36.50    4.90
  -3  14   3   39.60    5.20
  -2 -14   3   63.59    6.40
   2 -14  -3   64.59    7.00
  -2  14   3   52.89    6.00
   2  14  -3   63.49    6.60
   1 -14  -3   14.70    3.60
  -1 -14   3   10.40    2.80
   1  14  -3   11.90    2.90
  -1  14   3    9.50    3.30
   0 -14  -3  109.19    8.20
   0 -14   3  118.39    7.60
   0  14   3   93.29    7.10
   0  14  -3  101.19    7.60
   1 -14   3   65.49    5.90
  -1 -14  -3   65.79    6.90
   1  14   3   57.29    6.70
   2 -14   3   55.69    6.00
   2  14   3   55.79    6.70
   3 -14   3   19.70    4.00
   3  14   3   14.30    3.70
  -3 -15   3    9.80    3.20
   3 -15  -3   10.40    3.50
  -3  15   3   15.30    3.70
   3  15  -3    6.40    2.60
  -2 -15   3   47.60    5.90
   2 -15  -3   60.09    7.20
  -2  15   3   52.29    6.30
   2  15  -3   37.70    5.40
   1 -15  -3  207.48   11.60
  -1 -15   3  183.48   10.40
   1  15  -3  166.48   10.20
  -1  15   3  179.98   10.40
   0 -15   3   78.99    6.50
   0 -15  -3   82.69    7.40
   0  15   3   52.99    6.40
   0  15  -3   67.79    9.80
  -1 -15  -3   76.89    7.80
   1 -15   3   82.89    6.90
   1  15   3   65.59    7.50
   9   0  -4    0.10    1.80
  -9   0   4    1.90    2.30
   8   0  -4   41.80    5.50
  -8   0   4   41.40    5.40
  -7   0   4   91.59    6.20
   7   0  -4   90.89    6.20
  -7   0   4  103.19    7.50
  -7   0   4   92.89    6.40
  -6   0   4  146.49    8.30
  -6   0   4  144.29    7.70
   6   0  -4  150.08    7.60
  -6   0   4  156.28    7.70
  -5   0   4   40.00    4.10
  -5   0   4   38.50    3.30
  -5   0   4   47.30    3.90
   5   0  -4   53.09    3.70
  -4   0   4    0.70    0.90
  -4   0   4    0.40    1.10
   4   0  -4    4.10    1.30
  -4   0   4    0.40    0.70
   3   0  -4  192.98    6.90
  -3   0   4  175.78    7.50
  -3   0   4  189.58    6.90
  -3   0   4  178.58    7.30
  -2   0   4  374.56   12.70
  -2   0   4  426.26   12.60
  -2   0   4  388.66   13.40
   2   0  -4  406.26   12.40
  -1   0   4   52.99    2.90
  -1   0   4   52.19    3.30
   1   0  -4   52.79    1.90
  -1   0   4   49.80    2.00
   0   0  -4  273.27    8.30
   0   0   4  278.97   10.10
   1   0   4  343.47   11.20
   1   0   4  354.36   11.00
   1   0   4  346.87   12.80
   1   0   4  359.96   10.70
   2   0   4    9.40    2.10
   2   0   4    8.30    1.30
   2   0   4    9.40    1.50
  -2   0  -4   10.60    1.50
   3   0   4  115.69    5.40
   3   0   4  109.39    6.60
   4   0   4   10.60    2.00
   4   0   4   19.00    3.40
   5   0   4   16.00    2.70
   5   0   4   29.00    4.40
   6   0   4    9.70    2.80
   6   0   4   13.10    3.20
   9  -1  -4   67.69    7.60
  -9  -1   4   54.09    6.50
   9   1  -4   59.09    7.10
  -9   1   4   48.30    6.20
   8  -1  -4    2.10    2.50
  -8  -1   4    6.10    2.50
   8   1  -4    9.80    3.00
  -8   1   4    7.70    2.70
  -7  -1   4  189.28    9.50
  -7  -1   4  185.18   10.20
  -7  -1   4  165.88    8.90
   7  -1  -4  181.18    9.20
  -7   1   4  172.78    9.40
   7   1  -4  178.88    9.30
  -7   1   4  200.58   10.60
  -7   1   4  180.78    9.30
  -6  -1   4   30.00    3.70
  -6  -1   4   25.10    3.60
   6  -1  -4   29.40    3.60
  -6  -1   4   29.90    3.80
   6   1  -4   32.40    3.70
  -6   1   4   24.70    3.30
  -6   1   4   25.50    3.50
  -6   1   4   26.10    3.80
  -5  -1   4  204.38    8.80
  -5  -1   4  196.28    9.10
   5  -1  -4  205.18    8.60
  -5  -1   4  196.18    8.50
  -5   1   4  215.68    9.60
  -5   1   4  204.28    8.80
  -5   1   4  191.48    9.10
   5   1  -4  213.78    8.70
   4  -1  -4  654.73   21.20
  -4  -1   4  681.53   21.70
  -4  -1   4  651.23   21.80
  -4  -1   4  664.63   21.30
  -4   1   4  686.13   21.90
  -4   1   4  661.23   22.40
  -4   1   4  673.93   22.60
   4   1  -4  691.33   21.70
  -3  -1   4    2.60    0.50
  -3  -1   4    2.20    1.00
  -3  -1   4    2.70    0.90
   3  -1  -4    3.00    0.90
  -3  -1   4    3.30    1.10
  -3   1   4    2.50    0.90
   3   1  -4    4.80    1.10
  -3   1   4    3.30    0.50
  -3   1   4    3.20    1.30
  -3   1   4    1.90    0.90
  -2  -1   4  221.28    8.40
   2  -1  -4  234.78    7.80
  -2  -1   4  233.08    7.40
  -2  -1   4  236.18    7.90
  -2   1   4  233.68    8.90
  -2   1   4  229.38    8.20
  -2   1   4  237.58    7.80
  -1  -1   4  618.74   19.60
  -1   1   4  615.24   18.90
  -1   1   4  604.74   19.50
  -1   1   4  584.24   18.10
   0  -1  -4  673.73   19.90
   0   1   4  721.33   23.00
   1  -1   4  194.68    6.80
   1  -1   4  200.98    6.20
   1  -1   4  205.98    6.60
  -1  -1  -4  200.68    6.90
  -1   1  -4  202.88    6.90
   1   1   4  214.08    6.90
   1   1   4  196.18    7.30
   1   1   4  213.58    8.70
   1   1   4  215.38    7.20
   2  -1   4  372.86   14.50
  -2  -1  -4  381.76   12.90
   2  -1   4  390.76   13.10
   2  -1   4  412.26   12.80
   2   1   4  386.46   13.20
   2   1   4  393.46   12.90
  -2   1  -4  385.36   12.70
   2   1   4  374.56   14.40
   3  -1   4   17.80    3.00
   3  -1   4   26.40    2.70
   3   1   4   29.50    4.00
   3   1   4   24.50    2.70
   4  -1   4    0.20    1.10
   4  -1   4   -0.20    1.30
   4   1   4    2.90    1.70
   4   1   4    2.10    1.30
   5  -1   4  123.89    6.80
   5  -1   4  123.99    8.00
   5   1   4  118.89    6.80
   5   1   4  128.49    8.10
   6  -1   4    8.90    2.60
   6  -1   4    7.50    2.50
   6   1   4    4.00    2.00
   6   1   4    5.10    2.40
  -9  -2   4   33.80    5.20
   9  -2  -4   36.70    5.50
   9   2  -4   40.50    5.80
  -9   2   4   34.70    5.50
   8  -2  -4   16.10    3.70
  -8  -2   4   16.00    3.40
   8   2  -4   15.80    3.40
  -8   2   4   18.60    3.80
  -7  -2   4   29.90    3.90
  -7  -2   4   33.00    4.10
   7  -2  -4   40.20    4.60
  -7  -2   4   29.70    4.70
  -7   2   4   32.80    4.30
   7   2  -4   41.50    5.00
  -7   2   4   46.00    5.50
  -7   2   4   34.90    4.50
  -6  -2   4    7.10    2.00
  -6  -2   4    8.80    2.10
  -6  -2   4    9.10    2.50
   6  -2  -4    7.20    2.20
  -6   2   4    7.20    2.40
  -6   2   4    9.80    2.40
  -6   2   4   11.00    2.90
   6   2  -4   10.00    2.20
  -5  -2   4  592.14   20.70
  -5  -2   4  601.54   20.00
  -5  -2   4  548.65   19.70
   5  -2  -4  614.34   20.10
  -5   2   4  633.34   21.80
   5   2  -4  640.64   20.70
  -5   2   4  585.14   21.20
  -5   2   4  589.64   20.70
   4  -2  -4  108.09    5.30
  -4  -2   4  111.79    5.20
  -4  -2   4  111.29    5.70
  -4  -2   4  107.59    5.30
  -4   2   4  125.99    6.30
   4   2  -4  112.99    5.50
  -4   2   4  125.49    5.80
  -4   2   4  117.59    6.10
  -3  -2   4   34.90    2.60
   3  -2  -4   37.20    2.50
  -3  -2   4   36.90    2.30
  -3  -2   4   38.50    2.70
  -3   2   4   33.70    2.50
   3   2  -4   45.10    2.60
  -3   2   4   34.00    2.80
  -3   2   4   39.20    1.80
  -3   2   4   41.20    3.20
  -2  -2   4 2585.54   75.99
  -2  -2   4 2572.34   75.49
   2  -2  -4 2635.94   75.59
  -2  -2   4 2630.44   75.09
  -2   2   4 2672.73   75.49
  -2   2   4 2539.95   76.09
   2   2  -4 2665.33   76.59
  -2   2   4 2548.05   76.69
   1  -2  -4   76.49    3.10
   1  -2  -4   70.09    2.90
  -1  -2   4   62.39    2.40
  -1  -2   4   68.49    3.50
  -1  -2   4   66.69    2.40
  -1   2   4   65.69    3.90
  -1   2   4   68.09    3.50
  -1   2   4   66.49    3.20
   1   2  -4   72.79    2.50
   0  -2  -4  357.86   11.50
   0  -2  -4  370.96   11.50
   0   2   4  358.76   12.60
  -1  -2  -4  370.56   12.40
   1  -2   4  387.96   12.30
   1  -2   4  393.06   11.90
   1  -2   4  396.56   11.50
   1   2   4  386.36   13.90
  -1   2  -4  382.06   12.00
   1   2   4  384.56   12.50
   1   2   4  385.26   12.70
   2  -2   4   47.00    3.00
   2  -2   4   52.79    2.80
  -2  -2  -4   52.49    3.00
   2   2   4   47.00    4.00
   2   2   4   59.19    3.50
   2   2   4   57.19    3.30
   3  -2   4   43.90    4.80
   3  -2   4   42.80    3.10
   3   2   4   47.10    3.40
   3   2   4   48.20    4.30
   4  -2   4  115.09    6.00
   4  -2   4  121.69    7.30
   4   2   4  111.89    6.10
   4   2   4  116.59    7.20
   5  -2   4    7.90    2.60
   5  -2   4    4.40    1.90
   5   2   4    4.90    2.30
   5   2   4    4.70    1.90
   6  -2   4   11.70    2.80
   6  -2   4   15.10    3.70
   6   2   4   10.50    2.70
   6   2   4    9.50    3.00
  -9  -3   4   29.60    4.80
   9  -3  -4   38.90    5.70
  -9   3   4   27.40    4.90
   9   3  -4   34.80    5.40
  -8  -3   4   74.79    6.20
   8  -3  -4   82.29    6.60
   8   3  -4   73.89    6.40
  -8   3   4   85.39    8.00
  -7  -3   4    6.00    2.40
  -7  -3   4    7.20    2.30
   7  -3  -4   10.60    2.90
  -7  -3   4    8.20    2.40
   7   3  -4   12.10    3.00
  -7   3   4   10.10    2.50
  -7   3   4   12.70    3.40
  -7   3   4    9.50    2.80
  -6  -3   4  322.87   14.10
  -6  -3   4  327.47   13.20
  -6  -3   4  351.56   13.50
   6  -3  -4  344.07   13.50
   6   3  -4  345.07   13.80
  -6   3   4  331.07   14.00
  -6   3   4  359.26   14.50
  -6   3   4  380.46   15.40
  -5  -3   4  257.67   10.00
  -5  -3   4  254.27   10.80
  -5  -3   4  240.78   10.00
   5  -3  -4  240.18   10.10
  -5   3   4  256.87   11.30
  -5   3   4  255.27   11.10
   5   3  -4  268.67   10.50
  -5   3   4  258.07   10.70
  -4  -3   4    2.90    1.10
   4  -3  -4    2.10    1.00
  -4  -3   4    3.30    1.20
  -4  -3   4    3.20    1.40
   4   3  -4    4.60    1.30
  -4   3   4    3.40    1.20
  -4   3   4    3.50    1.40
   4   3  -4    3.80    0.70
  -4   3   4    3.50    1.40
  -3  -3   4  536.25   16.50
  -3  -3   4  522.05   16.60
  -3  -3   4  494.75   16.90
   3  -3  -4  512.65   16.90
  -3   3   4  534.85   18.40
  -3   3   4  568.04   16.60
  -3   3   4  527.85   18.30
   3   3  -4  532.55   17.20
  -2  -3   4  223.78    7.90
   2  -3  -4  223.68    8.00
  -2  -3   4  218.48    7.90
  -2  -3   4  231.98    7.50
  -2   3   4  222.08    8.50
   2   3  -4  228.08    7.50
  -2   3   4  226.88    8.90
  -2   3   4  214.28    7.70
   1  -3  -4  109.59    4.50
  -1  -3   4  100.89    3.80
  -1  -3   4  105.09    3.60
  -1  -3   4   96.49    3.80
   1  -3  -4  108.99    4.30
  -1  -3   4  108.69    3.60
  -1  -3   4  101.39    4.40
  -1   3   4  105.49    5.20
  -1   3   4  101.19    4.60
  -1   3   4  102.29    4.70
   0  -3   4  233.48    6.60
   0  -3  -4  208.18    7.50
   0  -3  -4  208.48    7.50
   0  -3   4  211.58    7.00
   0  -3  -4  209.38    7.50
   0  -3   4  217.08    6.60
   0  -3   4  204.08    6.90
   0   3   4  201.58    8.10
   1  -3   4  180.68    5.80
   1  -3   4  176.68    6.10
  -1  -3  -4  186.28    6.90
  -1  -3  -4  166.88    6.60
   1  -3   4  175.38    6.40
   1   3   4  179.08    7.00
   1   3   4  183.78    7.20
   1   3   4  185.68    8.10
  -2  -3  -4   44.80    3.00
   2  -3   4   47.10    2.70
   2  -3   4   41.10    2.90
   2   3   4   41.60    3.00
   3  -3   4  170.48    7.10
   3   3   4  157.68    7.10
   4  -3   4    9.20    2.50
   4  -3   4   10.80    2.10
   4   3   4   11.80    2.70
   4   3   4   10.50    2.20
   5  -3   4    7.90    2.70
   5  -3   4    5.30    2.00
   5   3   4    4.90    1.90
   5   3   4    6.60    2.70
   6  -3   4   97.89    6.60
   6  -3   4  111.49    8.00
   6   3   4   98.49    6.70
   6   3   4   96.79    7.30
   9  -4  -4   95.39    7.70
  -9  -4   4   94.09    7.30
  -9   4   4   81.19    8.40
   9   4  -4   88.99    8.00
  -8  -4   4   36.50    4.80
   8  -4  -4   49.70    5.90
   8   4  -4   37.70    5.10
  -8   4   4   48.30    5.80
   7  -4  -4  193.98   10.00
  -7  -4   4  217.68   11.40
  -7  -4   4  220.38   10.50
  -7  -4   4  199.88    9.80
   7   4  -4  221.28   10.60
  -7   4   4  210.08   10.90
  -7   4   4  214.28   10.60
  -6  -4   4   49.30    4.80
  -6  -4   4   55.09    4.40
   6  -4  -4   48.70    4.90
  -6  -4   4   45.10    4.50
  -6   4   4   52.79    5.10
  -6   4   4   57.59    4.70
   6   4  -4   51.99    4.40
  -6   4   4   56.09    5.70
  -5  -4   4   36.60    3.20
   5  -4  -4   40.00    3.40
  -5  -4   4   32.50    3.50
  -5  -4   4   43.50    4.60
  -5   4   4   43.00    3.70
  -5   4   4   26.30    3.60
   5   4  -4   45.90    3.60
  -5   4   4   42.40    4.80
  -4  -4   4  172.28    7.30
  -4  -4   4  175.18    7.10
  -4  -4   4  163.58    7.80
   4  -4  -4  186.28    7.80
   4   4  -4  174.88    7.40
  -4   4   4  185.28    6.40
  -4   4   4  165.28    8.10
   4   4  -4  179.38    6.40
  -4   4   4  177.98    8.50
  -3  -4   4  219.68    8.80
   3  -4  -4  217.78    8.70
  -3  -4   4  238.78    8.20
  -3  -4   4  230.38    8.30
  -3   4   4  222.98    9.50
   3   4  -4  235.28    8.50
  -3   4   4  247.38    8.20
  -3   4   4  219.78    9.40
   3   4  -4  233.38    8.20
  -2  -4   4  112.79    4.50
  -2  -4   4  120.09    4.50
   2  -4  -4  111.39    5.10
  -2  -4   4  104.49    4.80
   2   4  -4  113.19    4.40
  -2   4   4  101.39    5.20
  -2   4   4  103.69    5.50
  -2   4   4  111.49    4.70
  -1  -4   4  541.15   16.60
   1  -4  -4  559.44   17.40
  -1  -4   4  607.34   16.70
  -1  -4   4  543.05   16.90
  -1  -4   4  538.25   17.00
   1  -4  -4  553.54   17.60
  -1  -4   4  510.05   16.80
  -1  -4   4  521.75   16.30
  -1   4   4  497.35   16.90
  -1   4   4  508.05   16.70
  -1   4   4  524.95   17.40
   0  -4   4    7.20    0.80
   0  -4   4    8.30    1.00
   0  -4  -4    6.40    1.30
   0  -4   4    7.70    1.10
   0  -4  -4    9.80    1.50
   0  -4   4    8.50    1.00
   0  -4   4    6.30    1.00
   0  -4  -4    7.00    1.30
   0  -4   4    7.10    0.80
   0   4   4    6.30    1.60
  -1  -4  -4   90.99    4.50
   1  -4   4  101.69    3.80
   1  -4   4   96.49    4.00
  -1  -4  -4   97.79    5.20
   1  -4   4   93.49    4.30
   1   4   4   98.19    4.90
   1   4   4   98.89    4.80
   1   4   4   94.89    5.40
   2  -4   4  124.99    5.70
  -2  -4  -4  121.09    5.70
   2  -4   4  130.59    5.40
   2   4   4  121.19    6.70
   2   4   4  122.19    5.80
   3  -4   4  143.39    6.40
   3   4   4  141.99    6.80
   3   4   4  133.99    7.60
   4  -4   4   -0.10    1.20
   4   4   4    2.90    1.50
   4   4   4   -0.90    1.20
   5  -4   4   23.10    3.40
   5  -4   4   26.90    4.40
   5   4   4   23.50    3.90
   5   4   4   23.40    3.50
   6  -4   4    4.40    2.60
   6  -4   4    6.80    2.40
   6   4   4    5.70    2.40
   6   4   4    3.60    1.70
  -9  -5   4  205.68   11.10
   9  -5  -4  206.48   12.00
   8  -5  -4   19.00    4.10
  -8  -5   4   31.10    4.30
   8   5  -4   29.20    4.70
  -8   5   4   33.60    5.10
  -7  -5   4  126.49    7.50
   7  -5  -4  111.49    7.30
  -7  -5   4  111.89    6.80
  -7  -5   4  118.09    8.30
  -7   5   4  124.09    8.00
  -7   5   4  118.89    7.60
   7   5  -4  124.69    7.60
  -6  -5   4  139.99    6.90
  -6  -5   4  131.79    7.40
   6  -5  -4  142.79    7.70
  -6  -5   4  131.79    8.10
   6   5  -4  146.89    7.70
  -6   5   4  116.89    7.50
  -6   5   4  136.89    8.50
  -6   5   4  137.59    7.70
  -5  -5   4   41.20    4.10
  -5  -5   4   41.40    4.00
   5  -5  -4   42.00    3.70
  -5  -5   4   39.80    3.20
   5   5  -4   43.20    3.70
  -5   5   4   42.60    4.40
  -5   5   4   46.10    4.70
  -5   5   4   36.50    4.50
  -4  -5   4   30.90    3.20
  -4  -5   4   35.30    2.60
  -4  -5   4   31.70    3.60
   4  -5  -4   27.70    3.20
  -4   5   4   31.80    3.60
  -4   5   4   36.10    2.40
   4   5  -4   34.30    3.30
  -4   5   4   30.30    3.60
   4   5  -4   35.50    2.40
  -3  -5   4   55.29    3.30
  -3  -5   4   62.19    3.90
   3  -5  -4   57.69    3.70
  -3  -5   4   51.19    2.80
  -3   5   4   62.79    3.30
   3   5  -4   56.49    3.30
  -3   5   4   58.39    4.20
   3   5  -4   55.99    3.30
  -3   5   4   53.69    4.00
   2  -5  -4  252.67    9.50
  -2  -5   4  256.67    8.70
  -2  -5   4  250.67    8.20
  -2  -5   4  242.08    9.20
  -2   5   4  247.58    9.00
   2   5  -4  251.87    8.70
  -2   5   4  247.88    9.80
  -2   5   4  235.58    9.80
  -1  -5   4   42.90    2.30
  -1  -5   4   43.40    2.50
   1  -5  -4   46.80    3.00
  -1  -5   4   44.40    2.20
   1  -5  -4   40.80    2.80
   1  -5  -4   44.40    3.10
  -1  -5   4   43.20    2.70
  -1  -5   4   38.80    2.60
  -1   5   4   45.70    3.50
  -1   5   4   38.00    3.00
   0  -5   4  255.37    8.10
   0  -5  -4  246.58    9.10
   0  -5   4  242.38    8.10
   0  -5  -4  241.08    9.00
   0  -5   4  234.58    8.60
   0  -5   4  243.08    8.80
   0  -5   4  242.68    8.40
   0  -5  -4  248.68    9.30
   0   5   4  235.28    9.50
   1  -5   4   77.59    3.40
   1  -5   4   74.49    3.60
   1  -5   4   73.49    3.90
  -1  -5  -4   75.19    4.10
  -1  -5  -4   68.49    3.90
   1   5   4   75.19    4.90
   2  -5   4  104.39    4.90
  -2  -5  -4  106.69    5.40
   2   5   4   96.49    5.20
   2   5   4   97.29    6.10
   3  -5   4   85.19    4.70
   3   5   4   76.09    5.00
   3   5   4   87.29    5.90
   4  -5   4   33.60    3.60
   4   5   4   28.50    4.20
   4   5   4   33.40    4.10
   5  -5   4    0.40    1.40
   5   5   4    0.70    1.60
   5   5   4    2.70    1.70
   6  -5   4   39.00    4.70
   6  -5   4   35.30    5.60
   6   5   4   37.90    5.30
   6   5   4   39.70    5.10
   8  -6  -4  107.59    7.90
  -8   6   4  106.49    8.00
  -7  -6   4   45.40    6.10
   7  -6  -4   29.40    4.40
  -7  -6   4   37.50    4.20
  -7   6   4   37.70    5.00
   7   6  -4   49.30    5.60
  -7   6   4   30.30    4.90
  -6  -6   4  455.65   17.40
  -6  -6   4  474.45   18.50
   6  -6  -4  463.35   17.80
  -6  -6   4  445.96   16.30
  -6   6   4  512.15   20.20
   6   6  -4  509.85   18.50
  -6   6   4  440.56   18.50
  -5  -6   4  378.56   14.30
  -5  -6   4  376.36   15.10
   5  -6  -4  356.56   14.50
  -5  -6   4  379.76   13.20
  -5   6   4  384.96   15.30
   5   6  -4  380.56   14.60
  -5   6   4  405.96   16.40
  -4  -6   4  410.46   14.60
  -4  -6   4  386.46   15.20
   4  -6  -4  410.16   15.10
  -4  -6   4  417.66   13.50
  -4   6   4  394.96   15.90
  -4   6   4  463.65   14.60
   4   6  -4  431.66   14.60
   4   6  -4  416.36   15.20
  -4   6   4  449.46   16.90
  -3  -6   4  246.38   10.10
   3  -6  -4  244.08   10.00
  -3  -6   4  259.27    9.50
  -3   6   4  258.57    9.40
   3   6  -4  250.97    9.50
  -3   6   4  253.47   10.80
   3   6  -4  248.98    9.50
  -3   6   4  253.27   10.40
  -2  -6   4  612.74   19.10
   2  -6  -4  578.64   19.60
  -2  -6   4  604.04   18.90
  -2  -6   4  575.14   19.40
  -2   6   4  564.84   20.00
   2   6  -4  581.84   19.20
   2   6  -4  609.34   18.60
  -2   6   4  569.84   18.90
  -2   6   4  572.44   19.70
  -1  -6   4  173.08    7.10
  -1  -6   4  179.08    6.60
  -1  -6   4  178.68    6.80
   1  -6  -4  174.28    7.30
  -1  -6   4  179.48    7.30
   1  -6  -4  177.28    7.40
  -1   6   4  171.08    7.40
  -1   6   4  175.78    7.80
   0  -6   4  354.36   12.70
   0  -6   4  374.56   12.10
   0  -6  -4  364.86   13.10
   0  -6   4  384.56   13.00
   0  -6  -4  376.26   13.20
   0  -6   4  378.06   12.50
   0   6   4  372.86   13.80
  -1  -6  -4   20.10    2.60
   1  -6   4   21.50    2.10
   1  -6   4   19.20    2.10
  -1  -6  -4   23.50    2.70
   1   6   4   17.90    2.70
   2  -6   4  679.23   21.90
   2   6   4  649.54   23.10
   2   6   4  661.93   22.20
   3  -6   4   66.49    4.20
   3   6   4   65.09    5.40
   3   6   4   75.29    5.00
   4  -6   4  263.87   10.90
   4   6   4  268.27   12.70
   4   6   4  281.47   12.10
   5  -6   4   16.50    3.00
   5   6   4   13.90    3.20
   5   6   4   13.10    3.40
   6  -6   4   83.09    6.30
   6  -6   4  103.69    7.80
   6   6   4   87.19    7.30
   6   6   4   98.29    7.20
   8  -7  -4   79.89    8.00
  -8   7   4   73.79    7.50
   7  -7  -4   27.70    4.70
  -7   7   4   23.00    4.10
  -6  -7   4  290.47   13.80
  -6  -7   4  303.47   12.90
   6  -7  -4  296.27   13.10
   6   7  -4  325.97   17.60
  -6   7   4  287.17   13.30
  -5  -7   4    3.40    1.90
  -5  -7   4    1.30    1.60
   5  -7  -4    4.30    1.90
  -5   7   4    6.40    2.10
  -5   7   4    7.30    2.60
   5   7  -4    2.50    1.60
   4  -7  -4   76.09    5.10
  -4  -7   4   79.39    4.80
  -4  -7   4   82.29    5.50
  -4   7   4   73.29    5.70
  -4   7   4   81.69    4.50
  -4   7   4   71.29    5.20
   4   7  -4   78.49    4.50
   4   7  -4   85.49    5.10
   3  -7  -4  313.77   12.30
  -3  -7   4  312.57   12.30
  -3  -7   4  312.47   11.50
   3   7  -4  314.77   11.80
  -3   7   4  312.97   12.50
  -3   7   4  314.17   13.10
  -3   7   4  334.97   11.90
  -2  -7   4  124.09    6.10
   2  -7  -4  116.89    6.00
  -2  -7   4  118.79    5.70
  -2  -7   4  121.39    5.50
  -2   7   4  127.29    6.80
  -2   7   4  120.39    6.30
  -2   7   4  123.19    6.00
   2   7  -4  118.59    6.10
  -1  -7   4  463.75   15.00
  -1  -7   4  450.55   15.70
   1  -7  -4  449.46   15.90
   1  -7  -4  451.65   15.90
  -1  -7   4  463.05   15.20
  -1   7   4  442.56   16.10
  -1   7   4  460.25   15.90
   0  -7  -4  107.19    5.50
   0  -7   4   99.39    5.20
   0  -7  -4  106.39    5.50
   0  -7   4  108.79    5.10
   0  -7   4  111.69    4.80
   0   7   4  109.39    6.10
   0   7   4  113.39    6.20
   1  -7   4  418.76   14.50
   1  -7   4  425.06   14.20
  -1  -7  -4  447.96   15.50
  -1  -7  -4  415.66   15.20
   1   7   4  410.86   15.60
   2  -7   4  213.98    8.80
   2   7   4  198.78    9.70
   3  -7   4   26.10    3.20
   3   7   4   36.60    4.70
   3   7   4   31.50    4.00
   4  -7   4   32.20    3.80
   4   7   4   24.70    3.70
   4   7   4   26.00    4.20
   5  -7   4  101.99    6.50
   5   7   4   98.39    6.90
   5   7   4   88.49    7.30
   6  -7   4   13.40    3.30
   6   7   4   12.80    3.50
   8  -8  -4   39.30    5.90
  -8   8   4   41.00    5.50
   7  -8  -4   53.59    6.30
  -7   8   4   54.39    6.20
  -6  -8   4   34.30    4.20
   6  -8  -4   39.30    4.90
  -6  -8   4   38.70    5.10
  -6   8   4   39.30    4.80
   5  -8  -4  417.56   16.70
  -5  -8   4  412.56   16.00
  -5  -8   4  432.36   17.30
  -5   8   4  408.76   16.80
  -5   8   4  470.05   18.60
  -4  -8   4   76.09    5.00
   4  -8  -4   70.09    5.20
  -4  -8   4   74.09    5.40
  -4   8   4   78.79    6.20
  -4   8   4   89.49    5.00
   4   8  -4   78.79    4.90
  -4   8   4   79.29    5.60
  -3  -8   4  118.69    6.70
   3  -8  -4  113.69    6.40
  -3  -8   4  117.39    6.00
  -3   8   4  107.79    6.80
   3   8  -4  103.39    5.70
  -3   8   4  112.19    5.70
  -3   8   4  104.19    6.00
   2  -8  -4   31.90    3.60
  -2  -8   4   32.90    3.30
  -2  -8   4   34.10    2.90
  -2  -8   4   31.30    3.50
  -2   8   4   25.60    3.30
  -2   8   4   28.70    3.70
  -2   8   4   30.60    3.30
   2   8  -4   28.00    3.30
  -1  -8   4  353.06   12.30
  -1  -8   4  339.97   13.00
  -1  -8   4  352.86   12.60
   1  -8  -4  366.76   13.40
   1  -8  -4  346.47   13.20
  -1   8   4  351.16   13.20
  -1   8   4  342.47   13.20
   1   8  -4  338.67   13.40
   0  -8   4  172.48    7.30
   0  -8  -4  176.38    7.90
   0  -8   4  170.08    7.00
   0  -8  -4  174.28    7.90
   0  -8   4  161.48    7.50
   0   8   4  167.98    7.80
   0   8   4  146.59    7.70
   1  -8   4  178.38    7.40
   1  -8   4  175.78    7.70
  -1  -8  -4  187.48    8.40
  -1  -8  -4  186.48    8.60
   1   8   4  166.28    8.50
   2  -8   4   54.69    4.00
   2  -8   4   56.59    3.70
   2   8   4   54.29    4.90
   3  -8   4  157.68    7.60
   3   8   4  162.68    9.30
   3   8   4  175.08    8.90
   4  -8   4   40.20    4.30
   4   8   4   34.50    4.80
   4   8   4   38.10    4.70
   5  -8   4  133.09    7.70
   5   8   4  116.09    7.90
   5   8   4  130.49    8.80
   7  -9  -4    3.90    2.60
  -7   9   4    6.10    2.90
  -6  -9   4  124.39    8.90
   6  -9  -4  132.39    8.50
  -6   9   4  122.69    8.00
   5  -9  -4    1.20    1.90
  -5  -9   4    2.30    2.00
  -5  -9   4    1.50    1.70
  -5   9   4   -1.40    1.50
  -4  -9   4    3.70    1.90
   4  -9  -4    1.70    1.90
  -4  -9   4    3.50    1.80
  -4   9   4    4.70    2.10
  -4   9   4    5.70    1.70
  -4   9   4    4.90    2.30
   4   9  -4    5.90    1.80
  -3  -9   4   53.49    4.50
  -3  -9   4   47.80    4.10
  -3  -9   4   58.39    4.20
   3  -9  -4   61.99    4.90
   3   9  -4   61.09    4.50
  -3   9   4   59.69    5.30
  -3   9   4   61.79    4.80
  -3   9   4   56.69    4.20
  -2  -9   4  143.39    7.50
  -2  -9   4  141.09    7.00
  -2  -9   4  153.18    6.90
   2  -9  -4  153.48    7.60
  -2   9   4  135.29    7.30
   2   9  -4  145.69    7.60
  -2   9   4  155.58    7.40
  -2   9   4  154.38    8.50
  -1  -9   4   45.80    3.60
   1  -9  -4   52.69    4.20
  -1  -9   4   47.30    3.90
  -1  -9   4   50.19    3.50
   1  -9  -4   36.40    3.90
  -1   9   4   47.70    4.50
  -1   9   4   45.40    4.00
   1   9  -4   37.20    4.20
   0  -9   4   18.00    2.50
   0  -9   4   14.40    2.40
   0  -9   4   14.30    2.20
   0  -9  -4   20.10    3.10
   0  -9  -4   18.50    2.90
   0   9   4   14.70    2.90
   0   9   4   19.50    3.00
   1  -9   4  161.08    8.00
  -1  -9  -4  179.88    8.50
   1  -9   4  173.28    7.90
   1  -9   4  178.68    7.60
   1   9   4  169.28    8.90
   2  -9   4   34.40    3.80
   2  -9   4   35.40    3.50
   2   9   4   26.90    3.90
   3  -9   4   37.50    4.20
   3   9   4   31.80    4.50
   4  -9   4  107.49    6.60
   4   9   4  112.59    8.00
   4   9   4  114.09    7.60
   5  -9   4   29.30    4.30
   5   9   4   24.30    4.60
   5   9   4   23.50    4.30
   7 -10  -4   55.59    7.10
  -7  10   4   61.99    6.90
  -6 -10   4   26.00    4.90
   6 -10  -4   23.70    4.30
  -6  10   4   19.10    3.90
   5 -10  -4   61.69    6.40
  -5 -10   4   68.09    6.10
  -5 -10   4   49.10    5.20
  -5  10   4   37.10    4.80
  -4 -10   4    3.30    1.90
   4 -10  -4    1.50    1.70
  -4 -10   4    1.20    1.50
  -4  10   4    0.00    1.60
  -4  10   4    0.90    1.30
   4  10  -4    4.90    1.80
  -4  10   4    1.90    2.00
  -3 -10   4   95.69    6.00
  -3 -10   4   92.69    6.20
  -3 -10   4  101.49    5.90
   3 -10  -4   84.09    6.20
  -3  10   4   92.09    7.00
  -3  10   4   98.79    6.10
   3  10  -4   96.59    6.00
  -3  10   4   94.89    5.80
  -2 -10   4  197.58    9.60
   2 -10  -4  203.78    9.60
  -2 -10   4  209.28    8.90
  -2 -10   4  197.08    9.00
   2 -10  -4  198.08    9.30
  -2  10   4  189.78    9.00
  -2  10   4  195.88    9.00
   2  10  -4  190.98    9.30
   1 -10  -4  321.87   13.10
   1 -10  -4  316.87   12.90
  -1 -10   4  313.77   12.00
  -1 -10   4  313.57   13.00
  -1 -10   4  313.67   12.40
   1  10  -4  292.67   12.60
  -1  10   4  274.07   12.00
  -1  10   4  302.67   12.00
   0 -10   4   88.89    5.10
   0 -10  -4   93.09    5.80
   0 -10  -4   91.79    5.90
   0 -10   4   87.19    5.30
   0 -10   4   89.59    5.70
   0  10   4   79.19    5.60
   0  10   4   84.29    5.60
   1 -10   4   45.90    3.90
   1 -10   4   44.10    3.90
   1 -10   4   46.90    3.70
   1  10   4   40.20    4.90
   1  10   4   51.59    5.20
   2 -10   4   31.90    3.90
   2 -10   4   30.90    3.40
   2  10   4   26.30    4.20
   3 -10   4   23.40    3.20
   3 -10   4   19.40    3.40
   3  10   4   19.00    3.90
   4 -10   4   14.00    3.00
   7 -11  -4   35.80    5.70
  -7  11   4   49.20    6.00
   6 -11  -4    3.00    2.70
  -6  11   4    0.50    2.40
  -5 -11   4   11.00    3.60
   5 -11  -4   13.60    3.60
  -5  11   4    6.20    2.70
  -4 -11   4   51.99    5.90
  -4 -11   4   49.99    5.20
   4 -11  -4   52.49    5.90
  -4 -11   4   39.10    4.90
  -4  11   4   38.40    4.40
   4  11  -4   46.90    4.90
  -4  11   4   43.30    4.80
  -3 -11   4   47.00    5.40
   3 -11  -4   47.70    5.50
  -3 -11   4   50.09    5.00
  -3 -11   4   56.39    4.50
  -3  11   4   45.80    4.80
  -3  11   4   51.09    5.00
  -3  11   4   57.29    6.50
   3  11  -4   50.39    4.50
   2 -11  -4    7.40    2.60
  -2 -11   4    7.60    2.20
   2 -11  -4    9.50    2.50
  -2 -11   4    7.70    2.20
  -2 -11   4    5.80    1.90
   2  11  -4    6.80    2.60
  -2  11   4    6.80    2.20
  -2  11   4    7.50    2.20
  -1 -11   4   87.59    6.00
   1 -11  -4   81.79    5.90
  -1 -11   4   94.39    5.50
  -1 -11   4   84.29    5.50
   1 -11  -4   84.79    6.10
  -1  11   4   79.09    5.40
  -1  11   4   77.29    5.60
   1  11  -4   86.79    6.00
   0 -11   4   23.60    3.50
   0 -11  -4   25.70    4.00
   0 -11   4   27.10    3.50
   0 -11   4   20.50    2.90
   0 -11  -4   23.30    3.50
   0  11   4   19.50    3.40
   0  11   4   20.80    3.20
   1 -11   4    6.60    2.00
   1 -11   4    7.10    2.00
   1 -11   4    7.50    2.30
   1  11   4    8.00    2.90
   1  11   4   12.00    2.90
   2 -11   4   34.20    4.20
   2 -11   4   37.40    3.90
   2  11   4   28.20    4.40
   3 -11   4   11.80    2.90
   3  11   4    6.50    2.40
   4 -11   4   14.70    3.30
   6 -12  -4   17.00    4.10
  -6  12   4   10.60    3.60
   5 -12  -4   67.19    7.00
  -5 -12   4   68.49    6.90
  -5  12   4   75.89    6.50
  -4 -12   4   46.60    5.50
  -4 -12   4   59.69    6.50
   4 -12  -4   58.89    6.50
   4  12  -4   44.10    5.30
  -4  12   4   45.70    5.50
  -4  12   4   59.09    5.70
  -3 -12   4    7.00    2.30
   3 -12  -4    7.80    3.00
   3 -12  -4   14.60    3.10
  -3 -12   4    7.90    2.60
  -3 -12   4   11.80    3.00
  -3  12   4    8.80    2.60
   3  12  -4   14.70    3.20
  -3  12   4    9.20    2.60
   2 -12  -4  106.59    7.30
  -2 -12   4  110.19    6.80
   2 -12  -4  109.29    7.10
  -2 -12   4  111.69    7.40
  -2 -12   4  113.69    6.60
   2  12  -4  100.19    6.80
  -2  12   4   98.19    6.70
  -2  12   4  109.59    6.60
   1 -12  -4   29.90    4.40
  -1 -12   4   27.90    3.70
  -1 -12   4   33.60    4.00
  -1 -12   4   30.40    4.20
   1 -12  -4   47.30    5.20
  -1  12   4   28.50    3.90
   1  12  -4   39.70    4.80
  -1  12   4   23.00    3.90
   0 -12   4   22.60    3.50
   0 -12   4   21.90    3.10
   0 -12   4   16.70    2.90
   0  12   4   18.80    3.20
   0  12   4   18.40    3.60
   1 -12   4    1.80    1.40
   1 -12   4   -0.40    1.50
   1  12   4   -1.20    1.50
   1  12   4    1.80    2.20
   2 -12   4   10.70    2.90
   2  12   4   15.50    3.70
   2  12   4   16.00    3.40
   3 -12   4   32.70    4.40
   3  12   4   37.60    5.40
  -5 -13   4   42.50    5.90
   5 -13  -4   40.00    6.00
   4 -13  -4    7.10    3.30
  -4 -13   4    4.60    2.60
   4  13  -4    4.70    2.60
  -3 -13   4   40.80    5.20
   3 -13  -4   44.30    5.60
   3 -13  -4   47.80    5.50
  -3  13   4   36.60    4.80
   3  13  -4   40.50    5.20
  -2 -13   4   30.20    4.10
   2 -13  -4   24.30    3.90
   2 -13  -4   21.90    4.10
  -2  13   4   20.20    3.90
   2  13  -4   17.70    3.50
   1 -13  -4   92.09    6.70
   1 -13  -4   95.09    7.00
  -1 -13   4   77.29    5.90
  -1  13   4   84.99    6.50
   1  13  -4   78.49    6.30
   0 -13   4   18.50    3.30
   0  13   4   14.60    3.40
   1 -13   4    0.50    1.70
   1  13   4    0.10    2.00
   2 -13   4   82.29    6.40
   2  13   4   75.59    8.00
   3 -13   4   -1.40    1.80
   3  13   4    0.40    2.70
   4 -14  -4    7.00    3.70
  -4 -14   4    9.60    3.20
   4  14  -4   12.70    3.10
  -3 -14   4   21.10    4.10
   3 -14  -4   27.90    5.00
  -3  14   4   17.90    3.70
   3  14  -4   20.70    4.20
   2 -14  -4   15.50    3.50
  -2 -14   4   15.70    3.50
  -2  14   4   16.90    3.90
   2  14  -4   19.70    4.00
  -1 -14   4   32.90    4.60
   1  14  -4   33.50    4.90
  -1  14   4   31.80    4.90
   0 -14   4   74.49    6.10
   0  14   4   75.49    6.70
   1 -14   4   52.29    5.80
   1  14   4   46.70    6.50
   2 -14   4   66.09    5.90
   2  14   4   54.19    7.00
   3 -15  -4   29.90    5.40
  -3 -15   4   28.50    4.70
   3  15  -4   24.50    4.60
  -3  15   4   24.00    4.40
   2 -15  -4   74.89    9.30
  -2 -15   4   75.29    6.60
  -2  15   4   78.69    7.90
   2  15  -4   84.79    7.40
  -1 -15   4    3.90    2.40
   1  15  -4    5.50    2.40
  -1  15   4    3.40    2.50
   0 -15   4   18.80    3.90
   0  15   4   22.80    4.60
  -9   0   5   28.80    4.60
  -8   0   5   -1.00    2.40
  -8   0   5    0.90    2.20
  -7   0   5   67.79    6.00
  -7   0   5   56.49    5.80
  -7   0   5   71.29    5.30
   7   0  -5   61.59    5.10
  -6   0   5   66.89    5.20
  -6   0   5   61.89    5.20
  -6   0   5   70.99    4.70
   6   0  -5   55.29    4.40
   5   0  -5   16.60    2.40
  -5   0   5   13.20    2.50
  -5   0   5   11.20    2.30
  -5   0   5   14.80    2.30
  -4   0   5  194.38    7.70
  -4   0   5  195.88    8.60
  -4   0   5  187.48    8.20
   4   0  -5  202.08    7.70
  -3   0   5  447.16   13.00
  -3   0   5  415.96   14.90
  -3   0   5  404.56   14.10
   3   0  -5  443.66   13.70
  -3   0   5  401.66   13.40
  -2   0   5  739.23   20.40
  -2   0   5  664.33   22.10
  -2   0   5  710.83   21.30
  -2   0   5  618.04   20.60
  -1   0   5    0.10    0.90
  -1   0   5    0.50    0.90
   1   0  -5    0.50    0.40
   0   0   5    0.20    0.90
   0   0  -5    1.30    0.40
   1   0   5   17.50    1.50
   1   0   5   17.40    1.20
   1   0   5   11.80    2.20
   2   0   5    1.90    0.90
   2   0   5    0.40    0.80
   2   0   5    0.10    1.50
   3   0   5  302.87   13.20
   3   0   5  293.97   10.80
   4   0   5    2.40    1.40
   4   0   5    3.60    2.10
   5   0   5  207.18    9.60
   5   0   5  214.28   11.50
   6   0   5   47.40    5.20
   6   0   5   51.89    6.70
  -9  -1   5   60.79    6.80
  -9   1   5   45.00    6.10
  -8  -1   5   15.10    4.10
  -8  -1   5   15.60    3.50
  -8   1   5   14.20    3.50
   7  -1  -5    9.80    2.60
  -7  -1   5    8.00    2.70
  -7  -1   5   10.70    2.50
  -7  -1   5   10.30    2.60
  -7   1   5    9.30    2.50
  -7   1   5   11.10    3.20
  -7   1   5   10.50    3.00
  -6  -1   5  390.46   15.20
   6  -1  -5  405.56   14.90
  -6  -1   5  406.66   16.00
  -6  -1   5  380.26   14.80
   6   1  -5  430.66   15.80
  -6   1   5  420.26   16.80
  -6   1   5  420.36   15.80
  -6   1   5  402.96   16.20
  -5  -1   5   39.00    4.00
   5  -1  -5   44.60    3.30
  -5  -1   5   36.50    3.10
  -5  -1   5   38.00    3.60
  -5   1   5   46.30    4.50
   5   1  -5   43.00    3.30
  -5   1   5   40.90    3.40
  -5   1   5   38.90    3.70
  -4  -1   5    7.30    1.40
   4  -1  -5    6.10    1.40
  -4  -1   5    7.20    1.60
  -4  -1   5    7.40    1.80
   4   1  -5    7.20    1.50
  -4   1   5    6.80    1.40
  -4   1   5   11.80    2.10
  -4   1   5   10.90    2.30
  -3  -1   5   66.49    2.80
  -3  -1   5   60.59    3.40
  -3  -1   5   62.49    3.00
   3  -1  -5   63.49    3.20
  -3  -1   5   63.29    3.90
  -3   1   5   61.49    2.70
   3   1  -5   64.69    3.20
  -3   1   5   61.89    3.60
  -3   1   5   65.39    4.30
  -2  -1   5  148.69    5.60
  -2  -1   5  172.98    5.30
  -2  -1   5  163.68    6.30
  -2  -1   5  158.48    6.80
  -2   1   5  160.58    6.30
  -2   1   5  187.68    6.00
  -2   1   5  158.18    6.20
  -2   1   5  162.88    7.30
  -1  -1   5  425.16   14.90
  -1  -1   5  438.56   15.10
   1  -1  -5  456.75   13.40
  -1   1   5  418.76   14.40
  -1   1   5  439.06   15.10
   0  -1   5   78.69    4.70
   0  -1  -5   84.69    3.20
   0   1   5   89.49    5.00
   1  -1   5  183.68    6.40
   1  -1   5  184.58    8.60
   1  -1   5  199.38    6.00
   1   1   5  173.48    8.40
   1   1   5  189.98    6.40
   1   1   5  179.28    6.60
   2  -1   5   28.60    2.10
   2  -1   5   24.80    3.50
   2  -1   5   25.60    2.20
   2   1   5   25.30    3.60
   2   1   5   30.70    2.40
   3  -1   5   57.79    3.60
   3  -1   5   56.59    5.80
   3   1   5   49.80    5.30
   3   1   5   58.29    3.70
   4  -1   5   17.60    3.70
   4  -1   5   20.00    2.70
   4   1   5   12.20    3.10
   4   1   5   16.80    2.60
   5  -1   5    1.70    1.50
   5   1   5    0.40    1.50
   6  -1   5   10.30    2.60
   6  -1   5    3.90    3.00
   6   1   5   10.80    3.40
   6   1   5   10.40    2.70
  -9  -2   5   19.70    4.00
  -9   2   5   14.60    4.10
   8  -2  -5   12.00    3.70
  -8  -2   5   13.40    3.80
  -8  -2   5   10.00    2.80
  -8   2   5   10.00    3.10
   7  -2  -5   18.20    3.20
  -7  -2   5   25.80    3.90
  -7  -2   5   20.30    3.40
  -7  -2   5   22.70    4.00
  -7   2   5   22.50    4.00
  -7   2   5   20.20    3.30
  -7   2   5   16.10    3.30
   6  -2  -5   84.69    5.40
  -6  -2   5   86.49    6.00
  -6  -2   5   90.79    5.70
  -6  -2   5   86.09    5.40
  -6   2   5   84.49    5.50
  -6   2   5   80.59    6.00
  -6   2   5   91.59    6.40
   5  -2  -5  382.56   14.00
  -5  -2   5  387.06   14.00
  -5  -2   5  388.46   14.80
  -5  -2   5  396.16   14.40
  -5   2   5  387.46   15.00
  -5   2   5  393.06   14.20
  -5   2   5  385.86   15.10
   4  -2  -5  108.99    5.20
  -4  -2   5  110.79    5.60
  -4  -2   5  111.79    5.10
  -4  -2   5  107.89    5.50
  -4   2   5  110.69    6.10
  -4   2   5  109.69    5.30
  -4   2   5  109.49    5.80
  -3  -2   5   80.49    4.10
   3  -2  -5   88.49    4.10
  -3  -2   5   83.39    3.70
  -3  -2   5   89.39    4.60
  -3   2   5   79.19    4.40
  -3   2   5   87.79    3.50
   2  -2  -5  175.48    6.30
  -2  -2   5  166.48    6.00
  -2  -2   5  169.48    7.00
  -2  -2   5  189.38    5.80
  -2   2   5  173.68    6.60
  -2   2   5  159.78    6.50
  -2   2   5  180.58    7.80
  -1  -2   5  281.17   10.30
  -1   2   5  269.97   10.50
  -1   2   5  258.27    9.80
   0  -2  -5   -0.50    0.30
   0   2   5  103.19    5.50
   1  -2   5   25.50    1.60
   1   2   5   26.30    2.20
   1   2   5   25.10    3.30
   2  -2   5  400.26   12.90
   2  -2   5  388.16   15.60
   2  -2   5  416.56   13.50
   2   2   5  407.56   16.00
   2   2   5  414.76   13.80
   3  -2   5   45.40    5.10
   3  -2   5   38.60    2.90
   3   2   5   45.70    5.30
   3   2   5   40.90    3.30
   4  -2   5  161.78    9.20
   4  -2   5  157.68    7.20
   4   2   5  165.28    7.80
   4   2   5  167.38    9.50
   5  -2   5   28.80    3.60
   5  -2   5   46.00    5.60
   5   2   5   27.10    4.70
   5   2   5   43.20    4.60
   6  -2   5   75.19    6.80
   6  -2   5   80.99    5.70
   6   2   5   85.39    6.10
   6   2   5   82.89    7.20
  -9  -3   5   58.29    6.50
  -9   3   5   41.10    5.90
   8  -3  -5   80.69    6.60
  -8  -3   5   84.69    6.50
  -8  -3   5   92.29    7.60
  -8   3   5  102.39    7.70
   7  -3  -5    4.90    2.10
  -7  -3   5    5.60    2.40
  -7  -3   5   -0.50    1.40
  -7  -3   5    5.10    2.20
  -7   3   5    7.10    2.80
  -7   3   5    6.60    2.50
  -7   3   5    7.60    2.20
  -6  -3   5  219.58   10.00
   6  -3  -5  230.48   10.20
  -6  -3   5  235.98   11.00
  -6  -3   5  247.98   10.30
  -6   3   5  232.38   11.20
  -6   3   5  244.48   11.60
  -6   3   5  238.98   10.60
   5  -3  -5  263.67   10.20
  -5  -3   5  244.48   10.00
  -5  -3   5  245.98    9.90
  -5  -3   5  237.98   10.60
  -5   3   5  238.78   10.70
  -5   3   5  241.68   10.90
  -5   3   5  252.27   10.20
  -4  -3   5  347.77   13.10
  -4  -3   5  353.56   12.80
   4  -3  -5  365.56   12.90
  -4  -3   5  371.76   12.50
  -4   3   5  357.26   13.70
  -4   3   5  352.36   13.60
  -3  -3   5  134.49    5.20
   3  -3  -5  133.69    5.70
  -3  -3   5  129.89    5.70
  -3  -3   5  133.19    5.80
  -3   3   5  141.19    6.90
  -3   3   5  141.39    5.20
  -3   3   5  127.09    6.20
  -2  -3   5   21.00    2.20
   2  -3  -5   20.80    1.80
  -2  -3   5   18.40    1.60
  -2   3   5   18.60    2.20
  -2   3   5   17.30    2.00
  -2   3   5   19.50    2.70
   1  -3  -5  125.79    5.20
  -1  -3   5  136.49    5.70
  -1   3   5  112.19    6.00
  -1   3   5  114.39    5.40
   0  -3  -5    8.70    1.30
   0   3   5    8.90    2.10
   1  -3   5   26.10    1.80
   1  -3   5   26.10    1.40
   1   3   5   23.30    2.20
   1   3   5   23.10    3.10
   2  -3   5   21.80    1.90
   2   3   5   23.70    2.60
   2   3   5   17.00    3.10
   3  -3   5  222.98    8.50
   3  -3   5  221.28   10.90
   3   3   5  216.88   10.80
   3   3   5  225.58    9.20
   4  -3   5    3.40    2.50
   4  -3   5    2.30    1.40
   4   3   5    3.60    1.80
   4   3   5    5.80    2.60
   5  -3   5   36.40    5.20
   5  -3   5   37.50    4.10
   5   3   5   39.50    5.60
   5   3   5   35.00    4.30
   6  -3   5   54.99    6.90
   6  -3   5   36.00    4.40
   6   3   5   33.60    4.60
   6   3   5   45.50    6.10
  -9  -4   5   62.89    6.80
  -9   4   5   50.59    6.60
   8  -4  -5   94.99    7.00
  -8  -4   5   77.99    6.00
  -8  -4   5   50.29    7.00
  -8   4   5   69.19    7.10
  -7  -4   5    6.70    2.60
  -7  -4   5    5.10    2.00
   7  -4  -5    8.50    2.70
  -7  -4   5    5.00    2.10
  -7   4   5    8.00    3.00
  -7   4   5    4.80    2.60
  -7   4   5    0.80    1.50
  -6  -4   5  137.89    7.90
   6  -4  -5  133.09    7.30
  -6  -4   5  131.09    6.90
  -6  -4   5  129.29    7.10
  -6   4   5  136.19    7.30
  -6   4   5  123.19    7.80
  -6   4   5  127.59    8.00
  -5  -4   5   96.19    5.30
   5  -4  -5   97.19    5.60
  -5  -4   5   95.09    5.30
  -5  -4   5   95.89    5.90
  -5   4   5   99.79    5.70
  -5   4   5   90.49    6.00
  -5   4   5   91.89    6.20
  -4  -4   5  143.99    6.10
  -4  -4   5  126.29    5.80
  -4  -4   5  129.29    6.50
   4  -4  -5  126.19    6.20
  -4   4   5  132.19    7.20
  -4   4   5  142.79    7.30
  -3  -4   5  177.38    7.00
  -3  -4   5  183.58    6.70
  -3  -4   5  169.88    7.20
   3  -4  -5  177.68    7.30
  -3   4   5  180.78    8.40
  -3   4   5  173.08    8.00
  -3   4   5  188.98    6.90
  -2  -4   5  518.75   17.10
  -2  -4   5  569.94   16.80
   2  -4  -5  558.74   17.70
  -2  -4   5  545.55   17.40
  -2  -4   5  535.45   16.40
  -2   4   5  524.35   16.90
  -2   4   5  502.85   17.40
  -2   4   5  521.85   18.20
  -1  -4   5  182.58    6.50
  -1  -4   5  194.58    6.60
   1  -4  -5  187.48    7.40
  -1  -4   5  204.08    6.20
  -1  -4   5  202.78    7.40
  -1   4   5  183.58    8.40
  -1   4   5  184.48    7.80
   0  -4   5  159.38    5.50
   0  -4   5  149.79    5.30
   0   4   5  146.99    7.00
   1  -4   5  252.27    8.10
   1  -4   5  244.58    8.60
   1   4   5  242.88   10.50
   2  -4   5   20.60    2.00
   2   4   5   19.30    2.50
   2   4   5   16.90    3.10
   3  -4   5  154.88    6.60
   3   4   5  165.68    7.70
   3   4   5  158.18    8.80
   4  -4   5   64.09    5.70
   4  -4   5   49.99    3.90
   4   4   5   47.40    4.70
   4   4   5   45.00    5.50
   5  -4   5   29.10    3.60
   5  -4   5   30.20    5.00
   5   4   5   33.50    4.30
   5   4   5   31.50    5.50
  -9   5   5   35.00    5.90
  -8  -5   5   20.70    3.60
   8  -5  -5   18.70    4.20
  -8   5   5   18.00    4.10
  -7  -5   5   23.70    3.40
  -7  -5   5   19.80    3.50
  -7  -5   5   22.60    4.20
   7  -5  -5   13.90    3.30
  -7   5   5   25.80    4.80
  -7   5   5   19.30    4.10
  -7   5   5   18.00    3.70
  -6  -5   5   23.00    3.90
  -6  -5   5   26.00    3.50
   6  -5  -5   31.30    4.10
  -6  -5   5   29.20    3.40
  -6   5   5   17.80    3.50
  -6   5   5   26.00    3.60
  -6   5   5   23.20    3.90
  -5  -5   5  128.09    6.20
  -5  -5   5  124.39    7.20
  -5  -5   5  135.29    6.60
   5  -5  -5  134.49    7.00
  -5   5   5  124.49    7.40
  -5   5   5  132.39    7.80
   4  -5  -5  414.06   14.90
  -4  -5   5  418.66   13.90
  -4  -5   5  409.96   14.20
  -4  -5   5  396.66   15.00
  -4   5   5  395.26   15.10
  -4   5   5  387.26   15.20
   3  -5  -5  195.38    8.10
  -3  -5   5  197.08    7.30
  -3  -5   5  195.98    7.40
  -3  -5   5  192.58    8.00
  -3   5   5  209.68    7.70
  -3   5   5  190.08    8.90
  -3   5   5  183.38    8.60
   2  -5  -5   49.90    3.30
  -2  -5   5   49.30    2.70
  -2  -5   5   50.69    2.50
  -2  -5   5   46.50    2.70
  -2  -5   5   46.10    2.90
  -2   5   5   51.99    4.10
  -2   5   5   50.79    3.40
  -2   5   5   43.10    3.50
   1  -5  -5 1075.99   32.70
  -1  -5   5  990.10   31.80
  -1  -5   5 1068.49   30.90
  -1  -5   5 1099.29   32.10
  -1  -5   5 1064.49   31.40
  -1  -5   5 1096.59   32.00
  -1   5   5 1019.80   32.00
  -1   5   5 1014.00   32.80
   0  -5   5   30.00    1.80
   0  -5   5   28.80    2.10
   0  -5   5   27.40    2.00
   0   5   5   23.20    3.00
   1  -5   5  248.48    8.90
   1  -5   5  241.38    8.20
   1  -5   5  248.28    8.40
   1   5   5  227.58   10.20
   2  -5   5  155.68    6.20
   2   5   5  161.28    8.70
   2   5   5  166.58    7.50
   3  -5   5   87.59    4.60
   3   5   5   85.39    5.30
   3   5   5   84.79    6.30
   4  -5   5   14.90    2.40
   4   5   5   16.70    3.10
   4   5   5   25.10    4.50
   5  -5   5   17.30    4.00
   5  -5   5   19.60    3.10
   5   5   5   18.00    3.50
   8  -6  -5   36.70    5.60
  -8   6   5   25.10    4.60
   7  -6  -5  125.99    8.00
  -7  -6   5  131.19    8.80
  -7   6   5  135.69    8.80
  -6  -6   5    8.10    2.40
   6  -6  -5   16.80    3.40
  -6  -6   5   13.00    2.80
  -6   6   5   15.80    3.40
  -6   6   5   10.20    2.90
  -5  -6   5  347.77   13.00
  -5  -6   5  317.27   13.70
   5  -6  -5  342.47   13.60
  -5   6   5  307.07   13.50
  -5   6   5  329.27   14.20
   4  -6  -5  239.08    9.90
  -4  -6   5  232.18    9.20
  -4  -6   5  225.78    9.90
  -4   6   5  230.98   10.70
  -4   6   5  225.08   10.40
  -3  -6   5  138.99    6.80
   3  -6  -5  168.28    7.20
  -3  -6   5  145.49    6.20
  -3   6   5  166.28    6.80
  -3   6   5  160.18    7.90
  -3   6   5  147.09    7.80
  -2  -6   5  700.03   21.50
  -2  -6   5  691.43   22.00
   2  -6  -5  701.33   22.60
  -2  -6   5  656.73   21.90
  -2  -6   5  668.13   21.00
  -2   6   5  653.03   20.80
  -2   6   5  627.94   21.80
  -2   6   5  617.04   21.60
  -1  -6   5  402.16   14.30
  -1  -6   5  459.95   14.70
  -1  -6   5  437.46   13.60
   1  -6  -5  440.26   15.10
  -1  -6   5  447.06   14.10
  -1   6   5  429.76   16.10
  -1   6   5  433.36   15.50
   0  -6   5  202.88    7.90
   0  -6   5  218.08    8.10
   0  -6   5  211.98    7.00
   0  -6   5  218.68    7.60
   0   6   5  195.68    8.80
   1  -6   5  202.38    6.90
   1  -6   5  202.78    7.50
   1   6   5  190.38    9.20
   2  -6   5   73.49    3.90
   2   6   5   65.29    5.30
   3  -6   5  150.18    6.70
   3   6   5  144.99    8.80
   3   6   5  156.98    7.80
   4  -6   5  135.19    6.80
   4   6   5  129.09    7.40
   4   6   5  130.09    8.50
   5  -6   5   33.40    5.20
   5  -6   5   31.50    3.90
   5   6   5   44.30    7.10
   5   6   5   36.50    4.80
   8  -7  -5   37.40    5.90
  -8   7   5   23.80    5.10
  -7  -7   5   31.50    5.10
   7  -7  -5   36.40    5.20
  -7   7   5   38.30    5.40
  -6  -7   5   96.29    6.40
   6  -7  -5  102.29    7.00
  -6  -7   5  104.99    7.20
  -6   7   5  109.39    8.00
  -6   7   5   94.79    6.80
  -5  -7   5  230.38   11.00
   5  -7  -5  252.87   11.00
  -5  -7   5  231.78   10.10
  -5   7   5  229.68   11.20
  -5   7   5  256.87   12.30
  -4  -7   5   93.79    5.10
  -4  -7   5   83.29    5.50
   4  -7  -5   80.69    5.50
  -4   7   5   83.39    6.10
  -4   7   5   88.09    6.00
   4   7  -5   93.69    6.80
   3  -7  -5   94.79    5.40
  -3  -7   5   73.09    4.80
  -3  -7   5   85.69    4.50
  -3   7   5   85.89    4.70
  -3   7   5   78.59    5.50
  -3   7   5   85.59    5.70
  -2  -7   5  322.87   11.00
  -2  -7   5  321.97   11.30
  -2  -7   5  304.47   11.60
  -2   7   5  315.57   11.90
  -2   7   5  317.47   12.70
  -2   7   5  309.67   12.80
  -1  -7   5   84.79    3.90
   1  -7  -5   78.99    6.60
  -1  -7   5   87.09    4.60
  -1  -7   5   87.99    4.20
  -1   7   5   96.49    5.90
  -1   7   5   85.59    5.30
   0  -7   5  255.27    8.60
   0  -7   5  264.87    9.10
   0  -7   5  233.58    9.40
   0   7   5  250.27   10.90
   0   7   5  238.08   10.50
   1  -7   5    5.20    1.30
   1  -7   5    6.10    1.50
   1  -7   5    5.50    1.10
   1   7   5    8.00    2.50
   2  -7   5  277.67   10.30
   2   7   5  274.47   12.50
   3  -7   5    9.60    2.00
   3   7   5    9.60    2.90
   3   7   5   11.30    2.70
   4  -7   5   15.80    2.70
   4   7   5   16.70    3.30
   4   7   5   10.90    3.50
   5  -7   5   22.70    3.40
   5   7   5   27.20    4.20
   8  -8  -5   89.99   12.10
   7  -8  -5   15.80    3.50
  -7   8   5    8.00    3.50
  -6  -8   5   45.30    5.20
  -6  -8   5   51.79    6.00
   6  -8  -5   47.50    5.50
  -6   8   5   48.50    5.50
  -6   8   5   52.99    7.10
   5  -8  -5  182.08    9.40
  -5  -8   5  192.38    8.90
  -5  -8   5  183.58    9.70
  -5   8   5  212.98   11.00
  -5   8   5  175.98    9.60
  -4  -8   5  110.79    5.90
  -4  -8   5  102.79    6.50
   4  -8  -5  113.99    6.60
  -4   8   5   90.69    6.30
  -4   8   5   99.89    6.90
   4   8  -5  100.89    6.10
  -3  -8   5  120.69    6.50
  -3  -8   5  113.39    5.90
   3  -8  -5  119.89    6.70
  -3  -8   5  116.29    5.80
   3   8  -5  109.19    6.20
  -3   8   5  114.79    7.20
  -3   8   5  121.79    6.10
  -3   8   5  115.19    6.90
   2  -8  -5  390.36   14.40
  -2  -8   5  380.46   13.50
  -2  -8   5  386.66   13.20
  -2  -8   5  376.36   14.10
  -2   8   5  373.16   14.50
  -2   8   5  368.96   13.90
  -1  -8   5  228.68    8.40
  -1  -8   5  235.38    8.90
  -1  -8   5  219.48    9.30
  -1   8   5  220.58    9.60
  -1   8   5  212.38    9.90
   0  -8   5  214.28    8.90
   0  -8   5  220.38    8.10
   0  -8   5  227.68    8.70
   0   8   5  212.18    9.90
   0   8   5  204.58    9.70
   1  -8   5  103.89    5.70
   1  -8   5  110.89    4.90
   1  -8   5  114.09    5.40
   1   8   5   96.39    6.60
   2  -8   5   77.19    4.60
   2   8   5   88.59    6.70
   3  -8   5   46.80    3.70
   3   8   5   43.60    5.40
   4  -8   5   16.20    2.80
   4   8   5   13.80    3.20
   4   8   5   14.10    3.60
   7  -9  -5    0.50    2.50
  -7   9   5    2.00    2.70
   6  -9  -5   75.59    6.40
  -6  -9   5   74.99    6.70
  -6   9   5   70.29    6.90
  -5  -9   5   82.69    6.60
   5  -9  -5   86.99    6.30
  -5  -9   5   76.49    5.50
  -5   9   5   70.89    5.80
  -5   9   5   86.79    7.10
  -4  -9   5  145.69    8.30
   4  -9  -5  162.48    8.40
  -4  -9   5  146.79    7.40
  -4   9   5  143.19    8.20
   4   9  -5  152.58    7.80
  -4   9   5  147.89    9.00
   3  -9  -5  112.39    9.50
  -3  -9   5  118.29    6.70
  -3  -9   5  109.09    6.20
  -3  -9   5  124.29    6.20
  -3   9   5  120.69    6.50
  -3   9   5  109.39    7.40
  -3   9   5  116.89    7.00
   3   9  -5  123.99    6.60
  -2  -9   5   27.30    3.30
  -2  -9   5   26.00    2.80
  -2  -9   5   26.10    3.00
  -2   9   5   22.20    3.20
  -2   9   5   28.10    3.50
  -1  -9   5    6.10    1.60
  -1  -9   5    8.00    2.00
  -1  -9   5    6.30    1.50
  -1   9   5    6.90    2.10
  -1   9   5    7.00    2.30
   0  -9   5   70.69    3.90
   0  -9   5   74.59    4.40
   0  -9   5   63.19    4.40
   0   9   5   67.59    5.30
   0   9   5   82.49    5.80
   1  -9   5   58.09    3.60
   1  -9   5   49.90    4.00
   1  -9   5   49.50    3.70
   1   9   5   51.59    5.60
   2  -9   5    7.40    1.90
   2   9   5    7.40    2.90
   3  -9   5   42.00    4.20
   3   9   5   44.00    5.90
   4  -9   5    4.70    1.90
   4   9   5    7.30    3.10
  -7  10   5   18.50    4.20
   6 -10  -5   18.50    4.20
  -6  10   5   19.50    3.80
  -5 -10   5   22.40    3.90
   5 -10  -5   30.20    4.70
  -5  10   5   19.20    3.70
  -4 -10   5   27.20    3.50
   4 -10  -5   24.10    4.60
  -4 -10   5   20.70    3.40
  -4 -10   5   28.30    3.80
   4  10  -5   33.40    4.40
  -4  10   5   25.50    3.90
  -4  10   5   27.00    4.60
  -3 -10   5   94.19    5.60
  -3 -10   5   90.89    5.80
  -3 -10   5   93.39    6.30
  -3  10   5   87.99    6.10
  -3  10   5   88.79    6.80
   3  10  -5   86.99    5.80
  -3  10   5   90.79    5.80
  -2 -10   5   21.80    2.80
  -2 -10   5   13.20    2.60
  -2 -10   5   19.70    2.90
  -2  10   5   18.60    3.10
  -2  10   5   14.00    2.90
  -1 -10   5   33.50    3.30
  -1 -10   5   34.20    3.60
  -1 -10   5   38.50    3.70
  -1  10   5   35.10    4.20
  -1  10   5   32.30    4.10
   0 -10   5   66.99    4.50
   0 -10   5   58.49    4.50
   0 -10   5   64.69    4.00
   0  10   5   54.49    5.60
   0  10   5   66.49    5.30
   1 -10   5   55.59    4.60
   1 -10   5   60.79    3.90
   1 -10   5   59.99    4.30
   1  10   5   64.39    5.60
   1  10   5   65.99    5.80
   2 -10   5   25.30    3.40
   2  10   5   23.10    4.20
   3 -10   5   55.79    4.40
   3  10   5   51.29    6.20
   4 -10   5   21.90    3.30
   4  10   5   28.40    4.90
  -6  11   5    8.30    3.00
  -5  11   5   93.59    7.00
  -4 -11   5   51.79    8.70
  -4 -11   5   50.19    7.30
  -4 -11   5   52.49    5.40
  -4  11   5   50.49    7.70
  -4  11   5   38.50    5.10
  -3 -11   5   38.80    4.80
  -3 -11   5   44.80    4.40
  -3 -11   5   38.50    4.30
  -3  11   5   35.60    4.50
  -3  11   5   39.10    5.30
   3  11  -5   39.10    4.60
  -3  11   5   33.40    4.20
  -2 -11   5   27.40    3.20
  -2 -11   5   19.10    3.10
  -2 -11   5   24.00    3.70
  -2  11   5   21.70    3.60
  -2  11   5   20.40    3.50
  -1 -11   5   18.80    3.10
  -1 -11   5   23.80    3.20
  -1 -11   5   21.10    2.90
  -1  11   5   23.20    3.80
  -1  11   5   22.60    3.80
   0 -11   5  106.09    5.60
   0 -11   5   95.79    6.00
   0  11   5   80.79    6.20
   0  11   5   83.39    6.20
   1 -11   5    1.50    2.00
   1 -11   5   -0.60    1.30
   1  11   5    0.10    2.10
   1  11   5    1.10    2.10
   2 -11   5  154.28    7.90
   2  11   5  143.99    9.30
   3 -11   5   76.59    5.50
   3  11   5   70.09    7.60
  -6  12   5   55.69    6.70
  -5 -12   5   52.29    6.00
  -5  12   5   60.49    6.30
  -4 -12   5   10.50    2.90
  -4  12   5    7.80    3.10
  -3 -12   5   94.69    6.40
  -3  12   5   86.39    6.50
  -3  12   5   88.59    6.20
   3  12  -5   85.69    6.50
  -2 -12   5   34.10    4.10
  -2 -12   5   34.40    3.90
  -2  12   5   28.90    4.20
  -2  12   5   25.00    4.00
   2  12  -5   33.50    4.60
  -1 -12   5  202.18    9.00
  -1 -12   5  186.58    9.20
  -1  12   5  182.58    9.60
  -1  12   5  180.08    9.80
   0 -12   5   15.10    2.90
   0 -12   5   19.40    2.90
   0  12   5   16.40    3.50
   0  12   5   14.80    3.50
   1 -12   5   32.70    4.10
   1  12   5   29.60    4.70
   1  12   5   32.50    5.10
   2 -12   5   98.09    6.20
   2  12   5  117.49    8.60
   2  12   5  108.19    7.90
  -5 -13   5    6.20    2.90
  -4 -13   5   32.50    4.70
  -4  13   5   32.60    6.30
  -3 -13   5   12.00    2.90
  -3  13   5   12.00    3.20
   3  13  -5   14.20    3.60
  -3  13   5   13.40    3.40
  -2 -13   5   34.20    4.50
  -2  13   5   33.90    5.00
   2  13  -5   28.90    4.60
  -2  13   5   36.80    4.80
  -1 -13   5   92.09    6.30
  -1  13   5   92.69    7.20
  -1  13   5   98.39    7.00
   0 -13   5   94.19    6.50
   0  13   5   97.59    7.30
   0  13   5   81.99    7.00
   1 -13   5   91.49    6.30
   1  13   5   90.59    7.30
   2 -13   5   44.90    4.90
   2  13   5   37.90    5.70
  -4 -14   5   35.40    5.10
  -3 -14   5   18.40    3.70
  -3  14   5   15.20    3.70
   3  14  -5   15.50    3.30
  -2 -14   5  181.08    9.80
  -2  14   5  157.68    9.50
  -1 -14   5   19.90    3.60
  -1  14   5   14.90    3.70
   0 -14   5  135.89    8.20
   0  14   5  139.79    9.30
  -9   0   6    5.20    2.60
  -8   0   6   32.20    5.20
  -8   0   6   27.50    4.30
  -7   0   6   19.80    3.40
  -7   0   6   24.00    4.00
  -7   0   6   20.50    3.30
  -6   0   6   12.60    2.40
  -6   0   6   11.60    2.70
  -6   0   6   10.70    2.60
  -5   0   6   43.80    3.30
  -5   0   6   40.30    3.70
  -5   0   6   38.50    4.10
  -4   0   6  141.89    6.70
  -4   0   6  149.88    6.00
  -4   0   6  150.78    7.40
  -3   0   6  112.19    5.10
  -3   0   6  129.69    6.40
  -2   0   6   78.99    4.10
  -2   0   6   80.79    4.90
  -2   0   6   70.39    2.90
  -1   0   6   -0.70    1.00
  -1   0   6   -0.80    0.90
   0   0   6   97.79    5.70
   1   0   6   -0.50    1.40
   1   0   6    0.80    0.50
   2   0   6   61.79    5.40
   3   0   6   56.59    6.40
   4   0   6  319.57   15.00
  -9  -1   6   37.10    5.20
  -9   1   6   27.10    5.00
  -8  -1   6   11.30    3.20
  -8  -1   6   15.00    3.70
  -8   1   6   11.50    3.70
  -8   1   6   12.30    3.70
  -7  -1   6   -0.40    1.70
  -7  -1   6   -1.00    1.10
  -7  -1   6   -0.70    1.50
  -7   1   6    3.30    1.80
  -7   1   6   -1.60    1.50
  -7   1   6    1.10    1.80
  -6  -1   6   62.79    4.40
  -6  -1   6   56.19    4.80
  -6  -1   6   59.59    4.90
  -6   1   6   59.09    5.00
  -6   1   6   55.89    4.30
  -6   1   6   61.69    5.90
  -5  -1   6  247.88   10.50
  -5  -1   6  251.37    9.60
  -5  -1   6  233.08   10.40
  -5   1   6  242.58   10.40
  -5   1   6  231.18    9.40
  -5   1   6  234.68   10.60
  -4  -1   6   11.20    1.70
  -4  -1   6   15.50    2.70
  -4  -1   6   14.30    2.20
  -4   1   6   11.30    2.10
  -4   1   6    9.30    2.20
  -3  -1   6  199.18    7.50
  -3  -1   6  214.78    8.90
  -3   1   6  217.68    9.30
  -3   1   6  201.48    8.00
  -2  -1   6   53.99    3.40
  -2  -1   6   54.89    3.90
  -2   1   6   45.60    2.50
  -2   1   6   45.40    3.80
  -2   1   6   49.10    3.10
  -1  -1   6   -0.20    1.10
  -1  -1   6    1.50    1.20
  -1   1   6    1.70    1.20
  -1   1   6    1.40    1.30
   0  -1   6   76.79    5.00
   0   1   6   82.09    5.10
   1  -1   6   47.30    4.90
   1   1   6   40.20    4.30
   2  -1   6   87.29    6.20
   2   1   6   69.89    5.70
   2   1   6   75.99    3.70
   3  -1   6   40.30    5.20
   3   1   6   52.89    6.20
   3   1   6   48.90    3.40
   4  -1   6   23.70    4.40
   4   1   6   16.50    2.50
   4   1   6   20.40    4.00
  -9  -2   6   13.40    3.60
  -9   2   6   23.90    5.00
  -8  -2   6   15.80    3.30
  -8  -2   6    9.40    3.80
  -8   2   6   13.10    3.40
  -8   2   6   25.00    4.40
  -7  -2   6   51.99    5.10
  -7  -2   6   54.89    5.60
  -7  -2   6   53.09    4.60
  -7   2   6   46.80    4.90
  -7   2   6   57.39    6.30
  -7   2   6   53.79    6.20
  -6  -2   6   76.49    5.40
  -6  -2   6   72.49    4.80
  -6  -2   6   71.09    5.40
  -6   2   6   80.59    5.80
  -6   2   6   79.69    6.20
  -6   2   6   83.99    5.30
  -5  -2   6  476.95   16.50
  -5  -2   6  481.95   17.40
  -5  -2   6  496.25   17.50
  -5   2   6  495.65   17.20
  -5   2   6  480.15   18.50
  -5   2   6  509.95   18.40
  -4  -2   6   71.89    3.60
  -4  -2   6   62.09    4.40
  -4  -2   6   60.29    4.00
  -4   2   6   59.59    4.80
  -4   2   6   62.99    4.30
  -3  -2   6  524.35   18.00
  -3  -2   6  437.06   15.20
  -3  -2   6  484.35   14.30
  -3  -2   6  459.45   16.40
  -3   2   6  434.26   16.10
  -3   2   6  442.66   15.00
  -2  -2   6  342.77   12.50
  -2   2   6  339.47   11.70
  -2   2   6  342.97   13.10
  -2   2   6  309.77   11.10
  -1  -2   6  341.07   12.60
  -1   2   6  350.36   12.70
  -1   2   6  323.17   13.10
   0  -2   6   38.30    4.00
   0   2   6   41.40    3.70
   1  -2   6  236.48   10.70
   1   2   6  241.78   10.90
   2  -2   6    3.30    2.00
   2   2   6    6.20    2.40
   2   2   6    6.60    1.40
   3  -2   6  160.58    9.40
   3   2   6  172.98    7.40
   3   2   6  167.48    9.70
   4  -2   6   51.69    6.40
   4   2   6   48.30    3.90
   4   2   6   47.00    6.30
   5   2   6   92.69    6.30
  -9  -3   6   45.80    5.80
  -9   3   6   49.50    6.60
  -8  -3   6   56.49    6.00
  -8   3   6   65.59    7.50
  -8   3   6   51.29    6.40
  -7  -3   6   88.09    6.20
  -7  -3   6   93.99    6.90
  -7  -3   6  105.69    6.30
  -7   3   6  106.39    6.80
  -7   3   6   99.89    7.30
  -7   3   6  110.09    7.70
  -6  -3   6   67.19    5.10
  -6  -3   6   63.59    4.40
  -6  -3   6   55.39    4.50
  -6   3   6   69.79    4.90
  -6   3   6   59.29    6.00
  -6   3   6   68.19    5.60
  -5  -3   6  251.47    9.90
  -5  -3   6  254.87   10.80
  -5  -3   6  263.97   10.60
  -5   3   6  276.87   11.90
  -5   3   6  268.57   12.10
  -4  -3   6  665.13   22.20
  -4  -3   6  691.63   22.50
  -4  -3   6  687.13   21.40
  -4   3   6  683.63   23.10
  -4   3   6  682.23   23.80
  -3  -3   6   64.09    4.00
  -3  -3   6   67.89    2.70
  -3  -3   6   62.09    3.40
  -3   3   6   67.69    4.10
  -3   3   6   66.69    4.80
  -2  -3   6  285.17    8.70
  -2  -3   6  285.97   10.50
  -2  -3   6  266.47    8.70
  -2   3   6  293.67   10.30
  -2   3   6  277.37   11.60
  -2   3   6  257.67    9.90
  -1  -3   6  566.24   18.90
  -1   3   6  517.35   19.20
  -1   3   6  560.44   18.60
   0   3   6  377.76   14.40
   1   3   6   60.59    4.90
   2  -3   6  308.27   13.60
   2   3   6  331.67   14.30
   3  -3   6   18.20    3.70
   3   3   6   17.10    3.60
   3   3   6   18.20    2.50
   4  -3   6  112.99    8.20
   4   3   6   99.99    5.90
   4   3   6  112.59    8.20
   5   3   6    1.60    1.80
  -9  -4   6    3.20    3.50
  -9   4   6    1.80    2.60
  -8  -4   6   24.30    3.90
  -8   4   6   35.80    5.50
  -7  -4   6   39.70    4.60
  -7  -4   6   40.20    5.40
  -7  -4   6   32.70    4.20
  -7   4   6   38.80    5.10
  -7   4   6   35.40    5.10
  -6  -4   6  141.89    7.20
  -6  -4   6  129.19    7.70
  -6  -4   6  142.99    7.10
  -6   4   6  149.69    8.80
  -6   4   6  136.09    8.20
  -5  -4   6  102.59    6.10
  -5  -4   6  104.49    5.80
  -5  -4   6  103.59    5.30
  -5   4   6  111.09    6.80
  -5   4   6   98.89    6.80
  -4  -4   6  568.94   18.80
  -4  -4   6  577.44   18.20
  -4  -4   6  550.34   19.10
  -4   4   6  579.54   21.00
  -4   4   6  585.04   20.60
  -3  -4   6   23.70    2.20
  -3  -4   6   25.70    2.60
  -3  -4   6   23.60    1.60
  -3   4   6   23.60    3.30
  -3   4   6   22.90    2.80
  -2  -4   6  568.64   18.70
  -2  -4   6  649.74   20.00
  -2  -4   6  633.64   18.80
  -2   4   6  609.54   20.60
  -2   4   6  644.24   20.60
  -2   4   6  625.84   22.00
  -1  -4   6  214.48    8.50
  -1   4   6  199.48    9.30
  -1   4   6  196.28    8.60
   0   4   6   76.89    5.20
   1  -4   6   23.30    1.60
   1   4   6   25.60    3.90
   2   4   6   91.99    6.50
   3  -4   6  104.29    7.50
   3   4   6   97.99    7.30
   3   4   6  104.49    5.70
   4  -4   6   96.09    7.60
   4   4   6  103.59    6.20
   4   4   6  115.19    8.30
   5   4   6   46.30    9.90
   5   4   6   51.19    5.10
  -8   5   6  138.79    9.20
  -7  -5   6   27.80    4.40
  -7   5   6   28.20    4.40
  -7   5   6   25.40    4.40
  -6  -5   6   88.69    5.50
  -6  -5   6   83.99    6.10
  -6   5   6   85.79    6.40
  -6   5   6   88.59    6.80
  -5  -5   6   96.59    6.10
  -5  -5   6  109.49    5.60
  -5   5   6  110.99    7.20
  -5   5   6  106.49    6.90
  -4  -5   6   49.60    3.70
  -4  -5   6   46.30    3.10
  -4   5   6   53.39    4.50
  -4   5   6   53.69    5.40
  -3  -5   6   77.69    4.30
  -3  -5   6   83.49    3.60
  -3   5   6   89.39    5.40
  -3   5   6   91.29    5.90
  -3   5   6   88.99    5.10
  -2  -5   6   31.90    1.80
  -2  -5   6   30.70    2.20
  -2  -5   6   32.60    2.20
  -2   5   6   30.50    4.00
  -2   5   6   35.00    3.00
  -1  -5   6  332.37   10.70
  -1  -5   6  343.77   10.70
  -1   5   6  337.57   13.90
  -1   5   6  349.96   13.20
   0  -5   6   64.79    2.70
   0  -5   6   62.49    2.80
   0   5   6   70.59    5.10
   1  -5   6   41.30    2.50
   1  -5   6   45.00    2.60
   1   5   6   46.10    5.00
   2   5   6   11.90    3.00
   3   5   6   68.49    7.10
   3   5   6   58.69    4.60
   4  -5   6    0.20    1.90
   4   5   6    0.80    2.40
   4   5   6    3.20    2.00
  -8   6   6  143.49    9.70
  -7   6   6   60.29    6.40
  -7   6   6   62.59    7.20
  -6  -6   6  204.18   10.60
  -6  -6   6  229.58   10.00
  -6   6   6  209.08   11.10
  -6   6   6  224.58   11.70
  -5  -6   6   58.69    4.00
  -5  -6   6   47.70    4.30
  -5   6   6   57.19    6.00
  -5   6   6   61.69    5.40
  -4  -6   6   62.19    4.40
  -4  -6   6   61.99    3.80
  -4   6   6   70.09    5.40
  -4   6   6   63.69    5.10
  -3  -6   6  671.03   22.30
  -3  -6   6  701.73   21.80
  -3  -6   6  693.13   21.30
  -3   6   6  659.23   23.80
  -3   6   6  657.53   23.30
  -3   6   6  717.03   23.10
  -2  -6   6   59.39    2.90
  -2  -6   6   52.99    3.30
  -2   6   6   58.79    4.10
  -2   6   6   55.59    5.50
  -1  -6   6   21.50    1.90
  -1  -6   6   18.50    1.80
  -1   6   6   14.90    3.20
  -1   6   6   15.90    2.70
   0  -6   6  193.48    7.20
   0  -6   6  208.48    7.40
   0   6   6  200.98    9.60
   0   6   6  204.68   10.00
   1  -6   6   15.30    1.90
   1   6   6   19.50    3.70
   2   6   6   65.99    5.80
   3   6   6   41.40    5.70
   4   6   6   19.50    3.50
   4   6   6   27.30    4.90
  -7   7   6   56.49    6.30
  -7   7   6   62.39    7.20
  -6  -7   6   27.80    4.10
  -6  -7   6   30.00    3.60
  -6   7   6   17.20    3.90
  -6   7   6   22.90    4.30
  -5  -7   6   12.10    2.40
  -5  -7   6   16.80    3.10
  -5   7   6   15.70    3.20
  -5   7   6   13.40    3.30
  -4  -7   6   35.20    3.50
  -4  -7   6   42.40    3.20
  -4   7   6   44.70    4.40
  -4   7   6   45.00    4.90
  -3  -7   6   49.70    3.40
  -3  -7   6   51.99    3.10
  -3  -7   6   48.70    3.70
  -3   7   6   50.39    4.50
  -3   7   6   57.49    5.60
  -3   7   6   57.49    4.60
  -2  -7   6  112.39    4.90
  -2  -7   6  105.49    5.30
  -2   7   6  105.69    5.80
  -2   7   6  100.39    6.50
  -1  -7   6  137.19    5.60
  -1  -7   6  128.39    5.70
  -1   7   6  129.99    7.10
  -1   7   6  131.19    7.70
   0  -7   6   48.60    3.10
   0   7   6   53.69    5.50
   0   7   6   55.69    4.80
   1  -7   6   88.19    4.60
   1   7   6   94.79    6.60
   2   7   6  120.69    8.00
   3   7   6   82.19    7.10
   4   7   6   28.40    5.10
  -7   8   6  178.08   10.60
  -6   8   6    4.90    2.80
  -6   8   6    6.70    2.50
  -5  -8   6  177.18    8.30
  -5  -8   6  186.58    9.60
  -5   8   6  185.78   10.00
  -5   8   6  174.08   10.00
  -4  -8   6  190.68    9.20
  -4  -8   6  196.08    8.30
  -4   8   6  188.78   10.00
  -4   8   6  180.38    9.80
  -3  -8   6   39.80    3.30
  -3  -8   6   42.10    3.60
  -3  -8   6   46.40    3.10
  -3   8   6   46.50    5.10
  -3   8   6   41.90    5.90
  -3   8   6   41.80    4.80
  -2  -8   6  210.98    8.20
  -2  -8   6  207.28    8.80
  -2   8   6  202.18    9.30
  -2   8   6  204.78   10.10
  -1  -8   6   94.29    5.00
  -1  -8   6  101.39    4.70
  -1   8   6  101.49    6.40
  -1   8   6  100.49    6.70
   0  -8   6   43.30    3.20
   0   8   6   44.90    4.90
   0   8   6   45.80    5.20
   1  -8   6  113.49    5.70
   1   8   6  128.29    7.90
   2   8   6   47.10    5.80
   3   8   6   75.39    7.90
   4   8   6    2.90    2.80
  -7   9   6    7.40    3.30
  -6   9   6   89.59    8.00
  -5  -9   6   15.40    2.80
  -5   9   6   20.50    3.80
  -5   9   6   13.70    3.40
  -4  -9   6   11.90    2.60
  -4  -9   6   14.70    2.40
  -4  -9   6   15.40    2.80
  -4   9   6   14.60    3.10
  -4   9   6   11.30    3.00
  -3  -9   6    8.70    1.70
  -3  -9   6    7.40    1.90
  -3  -9   6    4.50    1.90
  -3   9   6   10.20    2.90
  -3   9   6   13.70    3.00
  -2  -9   6   22.70    3.00
  -2  -9   6   27.60    2.90
  -2   9   6   18.70    3.20
  -2   9   6   25.00    3.70
  -1  -9   6   42.50    3.10
  -1  -9   6   40.60    3.50
  -1   9   6   38.70    4.90
  -1   9   6   32.90    4.30
   0  -9   6    8.80    1.80
   0   9   6    4.40    2.40
   0   9   6    5.40    2.10
   1   9   6   15.10    3.40
   1   9   6   13.90    3.20
   2   9   6   38.00    5.20
   3   9   6   25.20    4.70
  -7  10   6   98.39    8.10
  -6  10   6    4.80    2.80
  -5  10   6   15.80    3.90
  -5  10   6   27.10    4.80
  -4 -10   6   29.40    3.80
  -4 -10   6   21.60    3.00
  -4  10   6   27.20    4.80
  -4  10   6   37.20    5.10
  -3 -10   6   13.90    2.20
  -3 -10   6   17.70    2.70
  -3  10   6   17.10    3.70
  -2 -10   6    3.20    1.70
  -2 -10   6    6.30    1.80
  -2  10   6    3.60    2.60
  -2  10   6    4.80    2.10
  -1 -10   6  164.18    7.40
  -1  10   6  155.88    9.20
  -1  10   6  161.48    8.80
   0  10   6    7.30    2.90
   0  10   6   12.80    3.10
   1  10   6   79.89    6.70
   1  10   6   82.79    6.80
   2  10   6    6.70    3.00
   3  10   6  115.99    8.90
  -6  11   6   74.19    7.40
  -5 -11   6  133.79    8.10
  -5  11   6   97.39    7.60
  -4 -11   6   24.60    3.80
  -4  11   6   30.80    6.70
  -4  11   6   37.40    5.00
  -3 -11   6   14.00    2.50
  -3 -11   6    8.90    2.30
  -3  11   6   12.90    3.50
  -2 -11   6    1.90    1.60
  -2  11   6    0.90    2.00
  -2  11   6    3.80    2.20
  -1 -11   6   85.09    5.20
  -1  11   6   83.09    6.90
  -1  11   6   85.79    6.50
   0  11   6   73.79    6.40
   0  11   6   70.69    7.20
   1  11   6   56.69    6.40
   1  11   6   56.19    6.50
   2  11   6   10.30    3.60
   2  11   6    8.10    3.00
  -5 -12   6   21.00    4.10
  -5  12   6   35.60    5.30
  -4 -12   6    2.80    2.20
  -4  12   6    5.70    3.00
  -3 -12   6    3.20    1.90
  -3  12   6    1.20    2.40
  -2 -12   6  184.88    8.80
  -2  12   6  176.68    9.50
  -2  12   6  169.98    9.70
  -1 -12   6   15.80    2.90
  -1  12   6   12.10    3.20
  -1  12   6   13.40    3.50
   0  12   6  177.08    9.90
   0  12   6  143.09    9.30
   1  12   6    3.70    2.90
   1  12   6   -2.50    2.00
  -4 -13   6   42.40    5.20
  -4  13   6   52.49    6.10
  -3 -13   6   29.30    4.10
  -3  13   6   37.10    5.50
  -2 -13   6   16.30    3.20
  -2  13   6   19.50    4.30
  -2  13   6   15.90    3.50
  -1 -13   6   15.40    3.00
  -1  13   6   13.70    3.70
  -1  13   6   17.70    4.20
   0  13   6   13.40    3.80
   0  13   6   17.70    4.40
  -9   0   7   14.90    4.10
  -8   0   7    2.10    2.60
  -7   0   7    2.30    2.20
  -7   0   7    2.20    1.60
  -7   0   7   -0.40    1.10
  -6   0   7    0.50    1.30
  -6   0   7    0.90    1.90
  -6   0   7   -1.20    1.00
  -5   0   7   50.89    4.00
  -5   0   7   46.80    3.30
  -5   0   7   45.30    4.90
  -4   0   7   18.10    3.00
  -4   0   7   24.00    2.70
  -3   0   7  967.10   29.90
  -3   0   7 1026.50   32.50
  -2   0   7  202.48    9.50
  -2   0   7  216.18    8.70
  -1   0   7  370.56   14.50
  -1   0   7  367.46   14.10
   0   0   7  384.16   15.20
   1   0   7   15.40    3.20
   2   0   7   20.30    3.90
   3   0   7  194.08   11.10
   4   0   7   -0.20    2.50
  -9  -1   7   15.30    4.20
  -9   1   7   13.70    3.90
  -8  -1   7   17.20    3.90
  -8   1   7   15.10    3.90
  -7  -1   7    3.70    2.30
  -7  -1   7    4.70    1.80
  -7  -1   7    3.40    1.90
  -7   1   7    3.20    1.80
  -7   1   7    5.60    2.10
  -7   1   7    0.70    1.80
  -6  -1   7   28.80    4.00
  -6  -1   7   30.60    3.40
  -6  -1   7   18.70    3.20
  -6   1   7   23.20    4.00
  -6   1   7   25.20    3.10
  -6   1   7   22.90    3.50
  -5  -1   7   44.80    3.80
  -5  -1   7   55.59    4.70
  -5  -1   7   52.79    3.40
  -5   1   7   51.49    5.40
  -5   1   7   45.80    4.00
  -4  -1   7    7.70    2.10
  -4  -1   7    8.20    1.70
  -4   1   7    8.60    2.50
  -4   1   7   11.60    2.10
  -3  -1   7   11.70    1.40
  -3  -1   7   12.90    2.50
  -3   1   7    8.20    2.20
  -3   1   7   10.80    1.60
  -2  -1   7   54.09    4.30
  -2  -1   7   60.79    4.00
  -2   1   7   62.89    4.10
  -2   1   7   62.19    4.90
  -1  -1   7  170.58    8.10
  -1  -1   7  176.38    8.40
  -1   1   7  173.08    8.70
  -1   1   7  185.68    8.50
   0  -1   7   -0.50    1.40
   0   1   7    0.30    1.50
   1  -1   7  183.28    9.60
   1   1   7  184.28    9.70
   2  -1   7   66.09    5.80
   2   1   7   68.09    6.10
   3  -1   7   39.40    5.80
   3   1   7   42.50    5.90
   4  -1   7   58.59    7.20
   4   1   7   57.49    7.10
  -8  -2   7   63.69    6.50
  -8   2   7   81.69    8.00
  -7  -2   7    0.10    1.50
  -7  -2   7    0.20    2.50
  -7  -2   7    2.30    2.10
  -7   2   7   -1.90    1.30
  -7   2   7   -0.90    1.60
  -7   2   7   -0.10    2.00
  -6  -2   7   44.50    3.60
  -6  -2   7   38.50    4.50
  -6  -2   7   35.80    4.20
  -6   2   7   43.80    4.90
  -6   2   7   43.50    3.80
  -6   2   7   40.20    5.00
  -5  -2   7   97.49    4.70
  -5  -2   7   91.09    5.40
  -5  -2   7   85.59    5.60
  -5   2   7   95.29    5.80
  -5   2   7   85.49    6.30
  -4  -2   7  435.36   15.10
  -4  -2   7  452.15   16.30
  -4   2   7  469.75   17.50
  -4   2   7  435.16   15.80
  -3  -2   7   89.49    3.80
  -3  -2   7   89.49    5.40
  -3   2   7   85.99    4.50
  -3   2   7   99.49    6.20
  -2  -2   7  938.01   31.00
  -2  -2   7  987.80   30.70
  -2   2   7  919.41   31.60
  -2   2   7  982.00   30.20
  -1  -2   7  201.08    9.30
  -1  -2   7  222.18    9.50
  -1   2   7  212.88   10.10
  -1   2   7  214.98    9.50
   0  -2   7  247.18   11.10
   0   2   7  255.07   11.30
   1  -2   7   88.29    6.20
   1   2   7  101.49    6.90
   2  -2   7  163.28    9.50
   2   2   7  191.98   10.60
   3  -2   7   30.00    5.10
   3   2   7   21.60    4.10
   4  -2   7   43.40    6.50
   4   2   7   50.09    6.90
  -8  -3   7   56.69    5.90
  -8   3   7   60.39    7.10
  -7  -3   7   73.39    5.70
  -7  -3   7   80.59    5.50
  -7   3   7   84.09    7.90
  -7   3   7   88.69    7.80
  -6  -3   7   22.30    3.30
  -6  -3   7   23.80    3.50
  -6  -3   7   20.20    2.80
  -6   3   7   18.90    3.90
  -6   3   7   18.80    3.40
  -5  -3   7   55.49    4.30
  -5  -3   7   60.29    4.30
  -5  -3   7   54.39    3.50
  -5   3   7   61.19    5.30
  -5   3   7   61.49    4.80
  -4  -3   7   73.19    4.20
  -4  -3   7   81.99    5.00
  -4   3   7   72.29    4.70
  -4   3   7   71.09    5.70
  -3  -3   7   42.30    2.40
  -3  -3   7   43.50    3.50
  -3   3   7   37.40    4.40
  -3   3   7   38.30    3.00
  -2  -3   7  116.39    6.10
  -2   3   7  109.19    6.80
  -2   3   7  115.59    5.90
  -1  -3   7   76.49    4.90
  -1   3   7   62.39    4.60
  -1   3   7   63.19    5.30
   0  -3   7  257.87   11.50
   0   3   7  260.57   11.50
   1  -3   7   15.90    3.40
   1   3   7   21.40    3.90
   2  -3   7  246.48   12.20
   2   3   7  259.47   12.70
   3  -3   7   81.19    6.90
   3   3   7   88.39    7.40
   4  -3   7   16.40    4.20
   4   3   7   12.90    3.90
  -8   4   7    4.70    3.20
  -7   4   7   54.09    6.40
  -6  -4   7   52.09    3.90
  -6  -4   7   47.00    4.40
  -6   4   7   53.89    5.20
  -6   4   7   52.79    5.90
  -5  -4   7   46.80    3.90
  -5  -4   7   52.89    3.40
  -5   4   7   53.09    5.80
  -5   4   7   55.49    4.70
  -4  -4   7   58.59    3.80
  -4   4   7   58.69    6.00
  -4   4   7   52.59    4.20
  -3  -4   7  218.08   11.70
  -3  -4   7  201.98    7.40
  -3   4   7  215.38    9.10
  -3   4   7  216.28   10.40
  -2  -4   7   17.90    3.90
  -2   4   7   15.70    2.50
  -2   4   7   14.60    3.10
  -1  -4   7  518.95   21.60
  -1   4   7  471.95   17.20
  -1   4   7  465.35   18.10
   0   4   7   26.20    3.70
   1   4   7  161.48    9.10
   2  -4   7   23.40    4.20
   2   4   7   25.20    4.30
   3  -4   7   55.39    6.90
   3   4   7   46.60    6.10
   4  -4   7    7.70    2.90
   4   4   7    5.10    3.10
  -8   5   7   28.80    5.30
  -7   5   7   43.90    6.10
  -6  -5   7    7.30    1.90
  -6  -5   7    8.10    2.30
  -6   5   7    3.90    2.50
  -6   5   7    9.60    2.80
  -5  -5   7    8.20    1.70
  -5  -5   7    9.20    2.20
  -5   5   7    4.90    2.50
  -5   5   7    7.00    2.20
  -4  -5   7   17.50    2.40
  -4   5   7   17.30    2.90
  -4   5   7    8.50    2.90
  -3  -5   7   60.59    3.40
  -3   5   7   65.19    4.60
  -3   5   7   66.69    5.60
  -2   5   7  169.88    7.80
  -2   5   7  155.48    8.80
  -1   5   7  105.59    6.30
  -1   5   7  107.09    7.10
   0   5   7    4.50    2.20
   0   5   7    6.10    2.30
   1   5   7    3.80    2.20
   2   5   7   30.50    4.90
   3  -5   7    4.60    2.90
   3   5   7    3.50    2.80
  -8   6   7   17.10    4.60
  -7   6   7   65.79    7.20
  -6  -6   7   28.10    3.20
  -6   6   7   24.40    4.30
  -6   6   7   29.80    5.20
  -5  -6   7    4.10    1.30
  -5  -6   7    0.10    1.20
  -5   6   7    4.50    2.10
  -5   6   7   -0.30    2.30
  -4  -6   7    3.10    1.30
  -4   6   7    1.20    2.40
  -4   6   7    3.00    1.60
  -3  -6   7    5.80    1.50
  -3   6   7    3.40    2.00
  -3   6   7    6.10    1.80
  -2  -6   7   26.70    1.90
  -2   6   7   34.50    3.80
  -2   6   7   29.00    4.20
  -1   6   7  140.09    7.60
  -1   6   7  129.59    8.30
   0   6   7   64.89    5.40
   0   6   7   66.69    6.50
   1   6   7    2.20    2.20
   2   6   7   31.20    4.90
   3  -6   7   10.70    3.40
   3   6   7   15.90    4.10
  -7   7   7   -0.10    2.20
  -6  -7   7   14.70    2.60
  -6   7   7   16.90    3.50
  -5  -7   7  101.19    5.40
  -5   7   7  100.59    7.30
  -5   7   7   91.19    6.80
  -4  -7   7    8.00    1.90
  -4  -7   7    8.20    1.90
  -4   7   7    8.50    2.30
  -4   7   7    9.40    3.00
  -3  -7   7   21.40    2.60
  -3   7   7   23.00    3.40
  -3   7   7   24.80    4.00
  -2  -7   7   25.30    2.20
  -2   7   7   27.50    3.60
  -2   7   7   22.50    4.10
  -1  -7   7  100.19    4.20
  -1   7   7   94.79    6.90
  -1   7   7  109.29    6.70
   0  -7   7   29.30    2.00
   0   7   7   34.50    4.80
   0   7   7   34.70    4.70
   1   7   7   31.80    4.90
   2   7   7   37.80    5.40
   3   7   7   79.69    8.60
  -7   8   7   41.50    5.90
  -6   8   7   32.10    5.10
  -5  -8   7   11.70    3.60
  -5   8   7   15.80    3.40
  -4  -8   7   89.89    5.10
  -4   8   7   77.69    6.10
  -4   8   7   72.49    6.20
  -3  -8   7   38.20    3.40
  -3   8   7   40.00    4.90
  -2  -8   7   19.50    2.40
  -2   8   7   23.20    3.60
  -2   8   7   30.40    4.50
  -1  -8   7    1.50    1.00
  -1   8   7   -0.50    1.70
  -1   8   7    2.00    1.80
   0   8   7   43.40    5.40
   0   8   7   50.79    5.90
   1   8   7  115.29    7.90
   1   8   7  104.79    7.80
   2   8   7    7.60    3.50
  -6   9   7   10.00    3.20
  -5  -9   7   60.79    4.90
  -5   9   7   55.59    6.40
  -4  -9   7    0.20    1.30
  -4   9   7   -3.70    1.40
  -3   9   7  137.39    8.60
  -2   9   7   40.30    4.70
  -2   9   7   45.60    5.40
  -1   9   7  134.09    8.40
  -1   9   7  115.69    7.40
   0   9   7   20.20    4.00
   0   9   7   16.60    3.70
   1   9   7    1.30    2.30
   1   9   7    3.90    2.50
   2   9   7   81.19    7.30
  -6  10   7  148.39   15.40
  -5 -10   7    7.00    2.50
  -5  10   7    4.00    3.10
  -4 -10   7   50.39    4.20
  -4  10   7   51.19    6.80
  -2  10   7   34.80    4.50
  -1  10   7    7.60    2.70
   0  10   7  142.19    9.10
   0  10   7  145.79    9.10
   1  10   7   65.29    7.30
   1  10   7   49.50    6.40
  -5 -11   7   23.80    4.00
  -5  11   7   28.30    5.00
  -4 -11   7  117.39    6.80
  -4  11   7  110.29    8.20
  -3  11   7   99.59    7.90
  -2  11   7   61.79    6.90
  -2  11   7   64.29    7.00
  -1  11   7   29.30    4.60
  -1  11   7   36.90    5.40
   0  11   7   21.90    4.50
   0  11   7   25.80    4.60
   1  11   7   29.00    5.10
   1  11   7   39.40    5.60
  -4 -12   7   22.90    3.60
  -4  12   7   13.50    3.90
  -3  12   7   60.39    6.80
  -2  12   7    4.50    2.60
  -1  12   7   40.40    5.80
  -1  12   7   32.50    5.20
  -8   0   8  228.88   12.10
  -7   0   8   83.09    7.00
  -6   0   8   95.89    6.90
  -5   0   8    0.40    1.70
  -5   0   8   -0.50    1.00
  -4   0   8  200.88    8.00
  -4   0   8  210.68   10.20
  -3   0   8    0.30    1.70
  -2   0   8  200.58    9.90
  -1   0   8  172.08    8.50
  -1   0   8  163.18    8.80
   0   0   8  211.78   10.60
   0   0   8  221.78   10.70
   1   0   8    5.00    2.60
   2   0   8   -1.90    1.80
   3   0   8    7.10    3.20
  -8  -1   8   23.70    4.40
  -8   1   8   34.20    5.40
  -7  -1   8   60.79    5.00
  -7  -1   8   50.59    6.00
  -7   1   8   54.49    6.30
  -6  -1   8   31.80    4.50
  -6   1   8   36.30    4.80
  -5  -1   8   56.79    5.60
  -5  -1   8   58.59    4.10
  -5   1   8   62.79    4.50
  -5   1   8   64.99    5.70
  -4  -1   8   19.00    3.30
  -4  -1   8   20.30    2.30
  -4   1   8   19.30    3.60
  -4   1   8   20.80    2.50
  -3  -1   8   54.59    4.70
  -3   1   8   43.90    4.80
  -2  -1   8   48.30    5.00
  -2   1   8   42.30    4.80
  -1  -1   8  268.27   11.80
  -1  -1   8  278.57   12.10
  -1   1   8  251.97   11.40
  -1   1   8  276.27   12.20
   0  -1   8   42.90    5.00
   0  -1   8   48.30    5.10
   0   1   8   30.20    4.10
   0   1   8   36.30    4.70
   1  -1   8   36.40    5.20
   1   1   8   26.70    4.40
   2  -1   8   50.59    6.60
   2   1   8   52.19    6.60
   3  -1   8   57.19    7.00
   3   1   8   57.59    7.20
  -8  -2   8   14.70    3.70
  -8   2   8    9.70    3.80
  -7  -2   8  121.69    9.50
  -7  -2   8  117.49    7.80
  -7   2   8  125.49    8.60
  -6  -2   8   17.90    3.50
  -6   2   8   15.80    3.50
  -5  -2   8    4.70    1.50
  -5  -2   8    1.60    1.80
  -5   2   8    3.20    1.50
  -5   2   8    7.00    2.50
  -4  -2   8   51.39    5.00
  -4  -2   8   47.80    3.00
  -4   2   8   51.29    3.60
  -4   2   8   50.19    5.70
  -3  -2   8  125.49    7.00
  -3   2   8  113.09    7.30
  -2  -2   8   78.29    5.40
  -2   2   8   77.79    6.00
  -1  -2   8  145.49    7.70
  -1  -2   8  141.49    7.70
  -1   2   8  142.89    7.60
  -1   2   8  128.29    8.00
   0  -2   8   43.50    5.00
   0  -2   8   27.90    3.90
   0   2   8   49.00    5.40
   0   2   8   31.20    4.40
   1  -2   8   73.29    6.20
   1   2   8   79.19    6.70
   2  -2   8   21.10    4.20
   2   2   8   15.10    3.80
   3  -2   8   47.60    6.40
   3   2   8   56.69    7.30
  -8   3   8  124.69    9.40
  -7   3   8   27.00    5.10
  -6   3   8   58.19    6.50
  -5  -3   8   34.20    4.00
  -5  -3   8   32.90    3.50
  -5   3   8   36.80    4.30
  -5   3   8   24.10    4.30
  -4  -3   8   23.70    2.10
  -4  -3   8   23.70    3.30
  -4   3   8   27.30    3.20
  -4   3   8   25.90    4.40
  -3  -3   8   13.20    2.60
  -3   3   8   19.50    3.70
  -2  -3   8  123.39    6.80
  -2   3   8  115.39    7.60
  -1  -3   8   38.50    4.30
  -1  -3   8   33.40    4.20
  -1   3   8   33.40    4.60
  -1   3   8   32.10    4.10
   0  -3   8  319.57   13.00
   0  -3   8  297.67   13.50
   0   3   8  310.67   13.90
   0   3   8  296.77   13.40
   1  -3   8   24.00    4.00
   1   3   8   33.50    5.10
   2  -3   8   54.09    6.30
   2   3   8   63.09    6.90
   3  -3   8   97.09    8.40
   3   3   8  105.19    8.70
  -8   4   8   66.79    7.90
  -7   4   8   78.19    7.80
  -6   4   8    5.40    3.20
  -5  -4   8   47.30    3.90
  -5   4   8   47.50    4.40
  -5   4   8   55.59    6.20
  -4  -4   8   45.60    3.00
  -4   4   8   41.80    5.20
  -4   4   8   44.30    3.80
  -3   4   8   16.30    3.50
  -2   4   8    9.50    2.90
  -1  -4   8   11.30    2.70
  -1   4   8   10.60    2.70
  -1   4   8    9.90    3.00
   0  -4   8   40.90    5.00
   0   4   8   33.20    4.50
   0   4   8   39.00    5.00
   1  -4   8    4.70    2.50
   1   4   8    5.40    2.90
   2  -4   8   86.29    7.30
   2   4   8   78.39    8.10
  -8   5   8   58.59    7.40
  -7   5   8    7.60    3.50
  -6   5   8   85.89    7.30
  -5   5   8   18.70    4.00
  -4  -5   8   52.99    3.40
  -4   5   8   56.29    6.20
  -4   5   8   59.79    4.70
  -3   5   8   11.00    3.10
  -2   5   8    3.80    2.30
  -1   5   8  110.29    6.80
  -1   5   8   92.09    7.10
   0   5   8    1.90    2.10
   0   5   8   -1.20    2.00
   1  -5   8   55.39    6.20
   1   5   8   75.29    7.60
   2  -5   8    0.90    2.30
   2   5   8    5.10    3.10
  -7   6   8   16.10    4.30
  -6   6   8    4.50    3.20
  -5   6   8  115.09    8.40
  -4   6   8   24.70    4.40
  -3  -6   8   36.60    2.20
  -3   6   8   40.60    5.50
  -2   6   8  106.39    7.70
  -1   6   8    4.70    2.20
  -1   6   8    9.60    3.20
   0   6   8    2.00    2.10
   0   6   8    7.50    3.20
   1   6   8   47.10    6.10
   2  -6   8    5.10    2.80
   2   6   8    2.30    2.70
  -7   7   8  149.79   10.30
  -6   7   8   45.10    6.10
  -5   7   8  123.49    8.80
  -4   7   8    3.80    2.60
  -3   7   8   29.30    4.60
  -2   7   8   14.70    3.50
  -1   7   8    0.40    1.90
  -1   7   8    4.20    2.20
   0   7   8   55.79    6.60
   0   7   8   53.19    6.20
   1   7   8   49.99    6.40
   1   7   8   44.60    6.00
   2   7   8   84.89    7.60
  -6   8   8   79.29    8.90
  -5   8   8    0.40    2.50
  -4   8   8  112.19    8.30
  -3   8   8  176.38   10.20
  -2   8   8   22.80    4.30
  -1   8   8   97.29    6.90
  -1   8   8   97.59    7.40
   0   8   8   14.40    3.60
   0   8   8   18.80    3.50
   1   8   8   16.30    4.20
  -6  -9   8   32.10    5.20
  -6   9   8   38.90    5.50
  -5   9   8   15.80    3.90
  -4   9   8   46.90    6.20
  -3   9   8   35.40    5.10
  -2   9   8   62.59    6.90
  -1   9   8    8.00    2.90
  -1   9   8   10.60    3.30
   0   9   8   61.99    7.10
   0   9   8   53.69    6.60
  -4  10   8   24.50    5.30
  -3  10   8   82.79    8.30
  -2  10   8   27.90    5.10
  -1  10   8   11.70    5.80
  -1  10   8   13.90    3.50
   0  10   8   40.70    5.80
  -3  11   8   58.99    6.90
  -2  11   8  150.78   10.00
  -7   0   9  312.97   14.90
  -6   0   9   78.09    6.70
  -5   0   9   68.89    6.80
  -4   0   9   31.70    2.10
  -4   0   9   39.20    5.10
  -3   0   9    4.30    2.40
  -2   0   9    9.80    2.90
  -1   0   9   25.60    4.20
   0   0   9    2.00    2.00
   0   0   9    0.50    1.90
   1   0   9   10.60    3.50
   2   0   9    3.00    3.00
  -7  -1   9   14.60    3.80
  -7   1   9   18.40    4.40
  -6  -1   9   52.29    5.80
  -6   1   9   39.40    5.50
  -5  -1   9    5.70    2.60
  -5   1   9    6.40    2.80
  -4  -1   9   -0.60    1.60
  -4   1   9    1.00    0.90
  -4   1   9    0.60    2.30
  -3  -1   9    4.60    2.30
  -3   1   9    4.50    2.50
  -2  -1   9   14.10    3.20
  -2   1   9    8.90    3.10
  -1  -1   9    8.90    3.80
  -1  -1   9   15.60    3.30
  -1   1   9   15.90    3.70
   0  -1   9  117.39    7.70
   0  -1   9  101.09    7.30
   0   1   9   99.19    7.60
   0   1   9  121.39    7.90
   1  -1   9  111.59    8.30
   1   1   9  122.29    8.70
  -7   2   9  168.38   10.50
  -6  -2   9   93.29    6.80
  -6   2   9  105.29    8.20
  -5  -2   9   16.30    3.30
  -5   2   9   15.40    3.70
  -4  -2   9  130.99    7.80
  -4   2   9  128.39    8.60
  -3  -2   9   23.80    3.60
  -3   2   9   27.00    4.30
  -2  -2   9   41.90    4.90
  -2   2   9   27.00    4.30
  -1  -2   9   31.40    5.00
  -1  -2   9   32.80    4.40
  -1   2   9   30.60    4.80
   0  -2   9   29.40    4.60
   0  -2   9   33.30    4.60
   0   2   9   33.60    4.90
   0   2   9   32.80    5.00
   1  -2   9   32.90    5.30
   1   2   9   29.90    5.10
  -7   3   9   84.49    8.60
  -6   3   9    4.90    3.10
  -5   3   9   23.20    4.40
  -4   3   9   19.40    4.30
  -3   3   9   74.99    6.60
  -2   3   9    3.30    2.30
  -1  -3   9   25.10    3.90
  -1   3   9   24.40    4.50
   0  -3   9   15.60    3.70
   0   3   9   24.50    4.20
   0   3   9   14.40    3.70
   1  -3   9  119.29    8.70
   1   3   9   93.59    7.70
  -7   4   9   17.40    4.60
  -6   4   9    5.50    3.50
  -5   4   9   15.40    4.00
  -4   4   9   41.50    5.80
  -3   4   9    3.40    2.50
  -2   4   9   15.40    3.70
  -1  -4   9   15.50    3.60
  -1   4   9   21.10    4.30
   0  -4   9   77.89    6.50
   0   4   9   92.39    7.70
   0   4   9   92.99    7.20
   1  -4   9   -1.40    1.90
   1   4   9    0.50    2.80
   1   4   9   -1.00    2.30
  -7   5   9    5.10    3.50
  -6   5   9   64.39    7.40
  -5   5   9   14.60    4.10
  -4   5   9   16.10    4.10
  -3   5   9   84.09    7.30
  -2   5   9   50.19    6.20
  -1  -5   9   28.30    5.90
  -1   5   9   23.70    4.50
   0  -5   9   20.00    4.00
   0   5   9   29.00    4.80
   0   5   9   32.10    5.40
   1  -5   9   17.90    4.20
   1   5   9   21.90    4.40
   1   5   9   30.10    5.20
  -6   6   9   66.19    7.90
  -5   6   9   15.10    4.50
  -4   6   9    9.00    3.40
  -3   6   9    1.80    2.60
  -2   6   9   16.00    4.10
  -1   6   9   84.69    8.40
   0  -6   9    2.10    2.20
   0   6   9   -1.40    2.40
   0   6   9    2.30    2.30
  -6   7   9  152.88   10.90
  -5   7   9   22.20    5.10
  -4   7   9   55.59    7.10
  -3   7   9   58.89    7.00
  -2   7   9   24.70    5.00
  -1   7   9   -0.70    2.50
   0   7   9    6.70    3.30
   0   7   9    3.10    3.10
  -5   8   9   12.40    4.20
  -4   8   9   50.69    6.80
  -3   8   9   95.19    7.90
  -2   8   9  119.29    9.20
  -1   8   9   96.19    9.40
  -6   0  10   54.49    6.60
  -5   0  10    0.40    2.30
  -4   0  10  245.68   12.60
  -3   0  10    5.80    2.70
  -2   0  10   15.90    3.80
  -1   0  10   45.30    5.70
   0   0  10    9.70    3.50
   0   0  10    9.30    3.10
  -6  -1  10  196.78   12.10
  -6   1  10  182.08   11.30
  -5  -1  10   78.89    6.70
  -5   1  10   93.79    7.70
  -4  -1  10   17.50    3.70
  -4   1  10   17.80    4.20
  -3  -1  10  171.28    9.80
  -3   1  10  189.48   10.80
  -2  -1  10    2.60    2.20
  -2   1  10   10.30    3.20
  -1  -1  10   83.29    6.80
  -1   1  10   76.19    7.50
   0  -1  10   32.50    5.30
   0   1  10   28.60    5.10
   0   1  10   22.60    4.80
  -6   2  10    8.50    3.70
  -5   2  10   85.39    8.40
  -4   2  10    5.30    3.20
  -3   2  10   38.20    5.80
  -2   2  10   32.70    5.30
  -1   2  10   19.40    4.30
   0  -2  10   10.40    3.60
   0   2  10    8.50    3.40
   0   2  10   19.50    6.10
  -6   3  10  161.78   10.90
  -5   3  10   49.70    6.60
  -4   3  10   61.39    7.40
  -3   3  10   63.19    7.20
  -2   3  10  109.69    8.40
  -1   3  10    3.40    2.70
  -6   4  10    4.00    2.80
  -5   4  10   74.79    8.10
  -4   4  10   29.00    5.10
  -3   4  10  168.58   10.60
  -2   4  10    1.20    2.40
  -1   4  10   18.40    4.20
  -5   5  10   39.30    6.50
  -4   5  10   19.70    4.90
  -3   5  10   23.90    5.00
  -2   5  10   31.50    5.50
  -4   6  10  128.39   10.00
  -3   6  10   12.20    4.10
  -2   6  10   46.00    6.70
   0   0   0    0.00    0.00


_computing_structure_solution     'SHELXT 2014/5 (Sheldrick, 2014)'
_computing_structure_solution     'SHELXT 2014/5 (Sheldrick, 2014)'
;
_shelx_hkl_checksum              67991
_olex2_submission_special_instructions 'No special instructions were received'
loop_
_space_group_symop_operation_xyz
'x, y, z'
'-x, y+1/2, -z'
loop_
_atom_site_label
_atom_site_type_symbol
_atom_site_fract_x
_atom_site_fract_y
_atom_site_fract_z
_atom_site_U_iso_or_equiv
_atom_site_adp_type
_atom_site_occupancy
_atom_site_site_symmetry_order
_atom_site_calc_flag
_atom_site_refinement_flags_posn
O1 O 0.0173(2) 0.31984(13) 0.5028(2) 0.0132(3) Uani 1 1 d .
O5 O 0.2978(2) 0.52165(14) 0.5003(2) 0.0144(3) Uani 1 1 d .
O11 O 0.5120(2) 0.58332(13) 0.1477(2) 0.0159(3) Uani 1 1 d .
O13 O 0.3842(3) 0.72921(15) -0.0517(3) 0.0241(4) Uani 1 1 d .
O15 O 0.0451(3) 0.27045(13) 0.7847(2) 0.0195(3) Uani 1 1 d .
C2 C 0.0199(3) 0.34585(17) 0.6731(3) 0.0131(4) Uani 1 1 d .
C3 C -0.0004(3) 0.46640(18) 0.7172(3) 0.0154(4) Uani 1 1 d .
H3 H -0.034704 0.484588 0.822257 0.018 Uiso 1 1 calc R
C4 C 0.0281(3) 0.55009(17) 0.6137(3) 0.0150(4) Uani 1 1 d .
H4 H 0.022136 0.627181 0.648663 0.018 Uiso 1 1 calc R
C4A C 0.0697(3) 0.52235(18) 0.4415(3) 0.0122(4) Uani 1 1 d .
H4A H 0.008412 0.583419 0.346187 0.015 Uiso 1 1 calc R
C6 C 0.3721(3) 0.50342(18) 0.3532(3) 0.0136(4) Uani 1 1 d .
H6 H 0.522006 0.474974 0.412192 0.016 Uiso 1 1 calc R
C7 C 0.2472(3) 0.41260(17) 0.2203(3) 0.0146(4) Uani 1 1 d .
H7 H 0.298702 0.385738 0.129271 0.017 Uiso 1 1 calc R
C8 C 0.0686(3) 0.36802(18) 0.2237(3) 0.0143(4) Uani 1 1 d .
H8 H -0.001576 0.309418 0.137933 0.017 Uiso 1 1 calc R
C8A C -0.0243(3) 0.40865(17) 0.3607(3) 0.0122(4) Uani 1 1 d .
H8A H -0.182028 0.417395 0.294816 0.015 Uiso 1 1 calc R
C9 C 0.3815(3) 0.61558(18) 0.2523(3) 0.0132(4) Uani 1 1 d .
H9 H 0.235355 0.637933 0.165151 0.016 Uiso 1 1 calc R
C10 C 0.4844(3) 0.71220(19) 0.3848(3) 0.0193(4) Uani 1 1 d .
H10A H 0.630504 0.691012 0.464283 0.029 Uiso 1 1 calc GR
H10B H 0.402045 0.727617 0.462721 0.029 Uiso 1 1 calc GR
H10C H 0.487156 0.780585 0.313197 0.029 Uiso 1 1 calc GR
C12 C 0.4985(3) 0.64758(19) -0.0009(3) 0.0164(4) Uani 1 1 d .
C14 C 0.6418(3) 0.6017(2) -0.0918(3) 0.0184(4) Uani 1 1 d .
H14A H 0.766195 0.565341 0.002461 0.028 Uiso 1 1 calc GR
H14B H 0.689149 0.664120 -0.150910 0.028 Uiso 1 1 calc GR
H14C H 0.563899 0.545430 -0.186540 0.028 Uiso 1 1 calc GR
loop_
_atom_site_aniso_label
_atom_site_aniso_U_11
_atom_site_aniso_U_22
_atom_site_aniso_U_33
_atom_site_aniso_U_23
_atom_site_aniso_U_13
_atom_site_aniso_U_12
O1 0.0187(7) 0.0100(6) 0.0121(7) 0.0002(5) 0.0073(5) -0.0001(6)
O5 0.0132(6) 0.0189(7) 0.0119(7) -0.0019(6) 0.0056(5) -0.0029(6)
O11 0.0157(7) 0.0184(7) 0.0164(8) 0.0026(6) 0.0091(6) 0.0022(6)
O13 0.0235(8) 0.0267(9) 0.0229(9) 0.0084(7) 0.0097(7) 0.0076(7)
O15 0.0273(8) 0.0142(7) 0.0186(8) 0.0023(6) 0.0106(7) -0.0011(6)
C2 0.0124(8) 0.0136(9) 0.0141(10) -0.0016(7) 0.0058(7) -0.0006(7)
C3 0.0183(9) 0.0138(9) 0.0164(11) -0.0013(8) 0.0091(8) 0.0023(7)
C4 0.0179(9) 0.0126(9) 0.0155(10) -0.0017(7) 0.0075(8) 0.0028(7)
C4A 0.0145(8) 0.0103(8) 0.0124(9) 0.0008(7) 0.0056(7) 0.0011(7)
C6 0.0119(8) 0.0165(9) 0.0132(10) 0.0011(7) 0.0054(7) 0.0000(7)
C7 0.0191(9) 0.0135(9) 0.0117(9) -0.0002(8) 0.0066(8) 0.0012(8)
C8 0.0198(9) 0.0127(8) 0.0103(9) -0.0016(7) 0.0056(7) -0.0004(7)
C8A 0.0130(8) 0.0127(9) 0.0107(10) 0.0014(8) 0.0043(7) -0.0004(7)
C9 0.0121(8) 0.0138(9) 0.0152(10) 0.0005(8) 0.0069(7) -0.0002(7)
C10 0.0190(10) 0.0181(10) 0.0220(12) -0.0030(9) 0.0091(9) -0.0050(8)
C12 0.0143(8) 0.0192(10) 0.0150(10) -0.0005(8) 0.0048(7) -0.0025(7)
C14 0.0191(9) 0.0238(11) 0.0137(10) -0.0009(9) 0.0077(8) -0.0015(8)
loop_
_atom_type_symbol
_atom_type_description
_atom_type_scat_dispersion_real
_atom_type_scat_dispersion_imag
_atom_type_scat_source
C C 0.0033 0.0016 'International Tables Vol C Tables 4.2.6.8 and 6.1.1.4'
H H 0.0000 0.0000 'International Tables Vol C Tables 4.2.6.8 and 6.1.1.4'
O O 0.0106 0.0060 'International Tables Vol C Tables 4.2.6.8 and 6.1.1.4'
loop_
_geom_angle_atom_site_label_1
_geom_angle_atom_site_label_2
_geom_angle_atom_site_label_3
_geom_angle
C2 O1 C8A 120.12(16)
C6 O5 C4A 114.13(15)
C12 O11 C9 117.92(16)
O1 C2 C3 118.45(18)
O15 C2 O1 118.80(19)
O15 C2 C3 122.7(2)
C2 C3 H3 119.2
C4 C3 C2 121.6(2)
C4 C3 H3 119.2
C3 C4 H4 120.2
C3 C4 C4A 119.67(19)
C4A C4 H4 120.2
O5 C4A C4 105.00(16)
O5 C4A H4A 109.6
O5 C4A C8A 111.19(16)
C4 C4A H4A 109.6
C4 C4A C8A 111.68(17)
C8A C4A H4A 109.6
O5 C6 H6 106.7
O5 C6 C7 112.17(17)
O5 C6 C9 111.75(17)
C7 C6 H6 106.7
C7 C6 C9 112.26(17)
C9 C6 H6 106.7
C6 C7 H7 118.4
C8 C7 C6 123.3(2)
C8 C7 H7 118.4
C7 C8 H8 119.5
C7 C8 C8A 121.1(2)
C8A C8 H8 119.5
O1 C8A C4A 112.78(16)
O1 C8A C8 106.95(16)
O1 C8A H8A 108.8
C4A C8A H8A 108.8
C8 C8A C4A 110.52(17)
C8 C8A H8A 108.8
O11 C9 C6 102.04(15)
O11 C9 H9 110.3
O11 C9 C10 110.62(16)
C6 C9 H9 110.3
C10 C9 C6 113.13(18)
C10 C9 H9 110.3
C9 C10 H10A 109.5
C9 C10 H10B 109.5
C9 C10 H10C 109.5
H10A C10 H10B 109.5
H10A C10 H10C 109.5
H10B C10 H10C 109.5
O11 C12 C14 110.58(19)
O13 C12 O11 123.6(2)
O13 C12 C14 125.8(2)
C12 C14 H14A 109.5
C12 C14 H14B 109.5
C12 C14 H14C 109.5
H14A C14 H14B 109.5
H14A C14 H14C 109.5
H14B C14 H14C 109.5
loop_
_geom_bond_atom_site_label_1
_geom_bond_atom_site_label_2
_geom_bond_distance
O1 C2 1.347(3)
O1 C8A 1.464(2)
O5 C4A 1.435(2)
O5 C6 1.424(3)
O11 C9 1.455(2)
O11 C12 1.350(3)
O13 C12 1.201(3)
O15 C2 1.203(3)
C2 C3 1.475(3)
C3 H3 0.9500
C3 C4 1.327(3)
C4 H4 0.9500
C4 C4A 1.499(3)
C4A H4A 1.0000
C4A C8A 1.510(3)
C6 H6 1.0000
C6 C7 1.502(3)
C6 C9 1.545(3)
C7 H7 0.9500
C7 C8 1.326(3)
C8 H8 0.9500
C8 C8A 1.501(3)
C8A H8A 1.0000
C9 H9 1.0000
C9 C10 1.512(3)
C10 H10A 0.9800
C10 H10B 0.9800
C10 H10C 0.9800
C12 C14 1.497(3)
C14 H14A 0.9800
C14 H14B 0.9800
C14 H14C 0.9800
