#------------------------------------------------------------------------------
#$Date: 2019-11-23 21:12:24 +0200 (Sat, 23 Nov 2019) $
#$Revision: 235027 $
#$URL: file:///home/coder/svn-repositories/cod/cif/4/03/66/4036649.cif $
#------------------------------------------------------------------------------
#
# This file is available in the Crystallography Open Database (COD),
# http://www.crystallography.net/
#
# All data on this site have been placed in the public domain by the
# contributors.
#
data_4036649
loop_
_publ_author_name
'Kerisit, Nicolas'
'Rouxel, C\'edric'
'Colombel-Rouen, Sophie'
'Toupet, Lo\"ic'
'Guillemin, Jean-Claude'
'Trolez, Yann'
_publ_section_title
;
 Synthesis, Chemistry, and Photochemistry of Methylcyanobutadiyne in the
 Context of Space Science.
;
_journal_issue                   9
_journal_name_full               'The Journal of organic chemistry'
_journal_page_first              3560
_journal_page_last               3567
_journal_paper_doi               10.1021/acs.joc.6b00205
_journal_volume                  81
_journal_year                    2016
_chemical_formula_sum            'C8 H10 N2'
_chemical_formula_weight         134.18
_space_group_crystal_system      triclinic
_space_group_IT_number           2
_space_group_name_Hall           '-P 1'
_space_group_name_H-M_alt        'P -1'
_atom_sites_solution_hydrogens   difmap
_audit_creation_method           SHELXL-2014/6
_cell_angle_alpha                95.4420(10)
_cell_angle_beta                 90.2470(10)
_cell_angle_gamma                95.8640(10)
_cell_formula_units_Z            2
_cell_length_a                   4.1693(5)
_cell_length_b                   8.6870(10)
_cell_length_c                   10.729(2)
_cell_measurement_reflns_used    1241
_cell_measurement_temperature    140(2)
_cell_measurement_theta_max      27.5
_cell_measurement_theta_min      3.18
_cell_volume                     384.78(10)
_computing_cell_refinement
'CrysAlis RED, Oxford Diffraction Ltd.,Version 1.171.35.11'
_computing_data_collection
'CrysAlis CCD, Oxford Diffraction Ltd.,Version 1.171.35.11'
_computing_data_reduction
'CrysAlis RED, Oxford Diffraction Ltd.,Version 1.171.35.11'
_computing_molecular_graphics    'MERCURY 3.3(CCDC, 2014)'
_computing_publication_material  'WINGX (Farrugia, 1999)'
_computing_structure_refinement  'SHELXL-2014/6 (Sheldrick, 2014)'
_computing_structure_solution    'SIR-97_(Altomare & al., 1999)'
_diffrn_ambient_temperature      140(2)
_diffrn_detector_area_resol_mean 16.1852
_diffrn_measured_fraction_theta_full 0.998
_diffrn_measured_fraction_theta_max 0.998
_diffrn_measurement_device_type  'CCD Saphire 3 Xcalibur'
_diffrn_measurement_method       'omega scan'
_diffrn_radiation_type           MoK\a
_diffrn_radiation_wavelength     0.71073
_diffrn_reflns_av_R_equivalents  0.0398
_diffrn_reflns_av_unetI/netI     0.0576
_diffrn_reflns_Laue_measured_fraction_full 0.998
_diffrn_reflns_Laue_measured_fraction_max 0.998
_diffrn_reflns_limit_h_max       5
_diffrn_reflns_limit_h_min       -5
_diffrn_reflns_limit_k_max       11
_diffrn_reflns_limit_k_min       -10
_diffrn_reflns_limit_l_max       13
_diffrn_reflns_limit_l_min       -12
_diffrn_reflns_number            2771
_diffrn_reflns_point_group_measured_fraction_full 0.998
_diffrn_reflns_point_group_measured_fraction_max 0.998
_diffrn_reflns_theta_full        25.242
_diffrn_reflns_theta_max         26.982
_diffrn_reflns_theta_min         3.180
_exptl_absorpt_coefficient_mu    0.071
_exptl_absorpt_correction_type   none
_exptl_crystal_colour            colourless
_exptl_crystal_density_diffrn    1.158
_exptl_crystal_description       prism
_exptl_crystal_F_000             144
_exptl_crystal_size_max          0.292
_exptl_crystal_size_mid          0.159
_exptl_crystal_size_min          0.061
_refine_diff_density_max         0.201
_refine_diff_density_min         -0.187
_refine_diff_density_rms         0.042
_refine_ls_extinction_method     none
_refine_ls_goodness_of_fit_ref   1.065
_refine_ls_hydrogen_treatment    constr
_refine_ls_matrix_type           full
_refine_ls_number_parameters     94
_refine_ls_number_reflns         1676
_refine_ls_number_restraints     0
_refine_ls_restrained_S_all      1.065
_refine_ls_R_factor_all          0.0787
_refine_ls_R_factor_gt           0.0529
_refine_ls_shift/su_max          0.003
_refine_ls_shift/su_mean         0.000
_refine_ls_structure_factor_coef Fsqd
_refine_ls_weighting_details
'w=1/[\s^2^(Fo^2^)+(0.0678P)^2^+0.0237P] where P=(Fo^2^+2Fc^2^)/3'
_refine_ls_weighting_scheme      calc
_refine_ls_wR_factor_gt          0.1350
_refine_ls_wR_factor_ref         0.1622
_reflns_Friedel_coverage         0.000
_reflns_number_gt                1183
_reflns_number_total             1676
_reflns_threshold_expression     'I > 2\s(I)'
_cod_data_source_file            jo6b00205_si_001.cif
_cod_data_source_block           shelx
_cod_database_code               4036649
_shelx_space_group_comment
;
The symmetry employed for this shelxl refinement is uniquely defined
by the following loop, which should always be used as a source of
symmetry information in preference to the above space-group names.
They are only intended as comments.
;
_shelxl_version_number           2014/6
_shelx_res_file
;
TITL test structure: cr63f1
CELL  0.71073   4.1693   8.6870  10.7290   95.442   90.247   95.864
ZERR     2.00   0.0005   0.0010   0.0020    0.001    0.001    0.001
LATT   1
SFAC  C    H    N
UNIT  16   20   4
MERG   2
OMIT    -4.00  54.00
FMAP   2
PLAN   45
ACTA
BOND   $H
CONF
LIST   4
WPDB  -2
L.S.   8
TEMP  -133.00
WGHT    0.067800    0.023700
FVAR      11.60565
N1    3    0.505670    0.260446    0.200882    11.00000    0.04058    0.03033 =
         0.02892    0.00515    0.00282   -0.00038
N2    3   -0.067489    0.240310    0.842822    11.00000    0.06422    0.04997 =
         0.03676    0.00651    0.00944    0.00319
C1    1    0.232280    0.427519    0.351514    11.00000    0.04302    0.03179 =
         0.03515    0.00814    0.00126    0.00503
AFIX 137
H1A   2    0.146009    0.425963    0.436258    11.00000   -1.50000
H1B   2    0.057053    0.436267    0.292244    11.00000   -1.50000
H1C   2    0.395583    0.516663    0.348987    11.00000   -1.50000
AFIX   0
C2    1    0.382176    0.280457    0.316484    11.00000    0.02827    0.02985 =
         0.02687    0.00241    0.00024   -0.00015
C3    1    0.392839    0.171050    0.401121    11.00000    0.03870    0.02803 =
         0.03012    0.00400    0.00456    0.00488
AFIX  43
H3    2    0.490853    0.078961    0.376968    11.00000   -1.20000
AFIX   0
C4    1    0.265208    0.190514    0.520770    11.00000    0.03675    0.02353 =
         0.03610    0.00834   -0.00090    0.00127
C5    1    0.157274    0.204635    0.625668    11.00000    0.04353    0.02775 =
         0.03378    0.00799    0.00203    0.00373
C6    1    0.034609    0.223120    0.743309    11.00000    0.04467    0.03007 =
         0.03153    0.00735    0.00116    0.00107
C7    1    0.480318    0.370527    0.107131    11.00000    0.04874    0.04910 =
         0.03151    0.01480    0.00049    0.00304
AFIX 137
H7A   2    0.668980    0.370259    0.052974    11.00000   -1.50000
H7B   2    0.470849    0.475093    0.149235    11.00000   -1.50000
H7C   2    0.284140    0.339982    0.056372    11.00000   -1.50000
AFIX   0
C8    1    0.649115    0.117924    0.160312    11.00000    0.04762    0.03748 =
         0.03429   -0.00009    0.00870    0.00076
AFIX 137
H8A   2    0.740669    0.125894    0.076915    11.00000   -1.50000
H8B   2    0.482971    0.029230    0.157140    11.00000   -1.50000
H8C   2    0.819994    0.102975    0.219648    11.00000   -1.50000
AFIX   0
HKLF    4

REM  test structure: cr63f1
REM R1 =  0.0529 for    1183 Fo > 4sig(Fo)  and  0.0787 for all    1676 data
REM     94 parameters refined using      0 restraints

END

WGHT      0.0712      0.0167

REM Highest difference peak  0.201,  deepest hole -0.187,  1-sigma level  0.042
Q1    1   0.2927  0.4337  0.1197  11.00000  0.05    0.20
Q2    1   0.7237  0.4461  0.1106  11.00000  0.05    0.19
Q3    1   0.5052  0.3140  0.0213  11.00000  0.05    0.18
Q4    1  -0.1993  0.2528  0.9568  11.00000  0.05    0.16
Q5    1   0.5197  0.1426  0.2838  11.00000  0.05    0.16
Q6    1   0.1606  0.1374  0.5718  11.00000  0.05    0.15
Q7    1  -0.0597  0.1612  0.5241  11.00000  0.05    0.12
Q8    1  -0.2262  0.3368  0.8881  11.00000  0.05    0.12
Q9    1   0.7748  0.3165  0.2505  11.00000  0.05    0.12
Q10   1   0.4987  0.2033  0.1810  11.00000  0.05    0.12
Q11   1   0.3441  0.2534 -0.0178  11.00000  0.05    0.12
Q12   1   0.9654  0.1456  0.2036  11.00000  0.05    0.12
Q13   1   0.2801  0.3497  0.3354  11.00000  0.05    0.11
Q14   1   0.5919  0.1214  0.3978  11.00000  0.05    0.11
Q15   1  -0.1587  0.4273  0.3081  11.00000  0.05    0.11
Q16   1  -0.0017  0.4271  0.3556  11.00000  0.05    0.10
Q17   1   0.9511  0.1431  0.1482  11.00000  0.05    0.10
Q18   1   0.2817  0.2521  0.1809  11.00000  0.05    0.10
Q19   1   0.1995  0.1841  0.1672  11.00000  0.05    0.10
Q20   1   0.1898  0.2768  0.5528  11.00000  0.05    0.10
Q21   1  -0.1692  0.2947  0.3587  11.00000  0.05    0.10
Q22   1   0.3586  0.6401  0.3650  11.00000  0.05    0.10
Q23   1   0.8321  0.0211  0.2315  11.00000  0.05    0.09
Q24   1   0.1608  0.3231  0.5414  11.00000  0.05    0.09
Q25   1  -0.0685  0.1285  0.9407  11.00000  0.05    0.09
Q26   1  -0.0900  0.2924  0.2997  11.00000  0.05    0.09
Q27   1   0.1146  0.2476  0.5347  11.00000  0.05    0.09
Q28   1  -0.0486  0.5336  0.4324  11.00000  0.05    0.09
Q29   1  -0.0077  0.3573  0.3833  11.00000  0.05    0.09
Q30   1   0.2706  0.3090  0.4270  11.00000  0.05    0.09
Q31   1   0.3428  0.2717  0.8565  11.00000  0.05    0.09
Q32   1   0.2225  0.1925  0.3571  11.00000  0.05    0.09
Q33   1   0.9482  0.0039  0.0975  11.00000  0.05    0.08
Q34   1   0.7560  0.1060  0.4465  11.00000  0.05    0.08
Q35   1   0.8571  0.1781  0.0443  11.00000  0.05    0.08
Q36   1   0.0401  0.2313  0.0223  11.00000  0.05    0.08
Q37   1  -0.0026  0.2700  0.0444  11.00000  0.05    0.08
Q38   1   0.6555  0.3640  0.3733  11.00000  0.05    0.08
Q39   1   0.1145  0.3781  0.1642  11.00000  0.05    0.08
Q40   1   0.0860  0.4277  0.4601  11.00000  0.05    0.08
Q41   1   0.8905  0.4600  0.0748  11.00000  0.05    0.08
Q42   1   0.9984  0.2223  0.3070  11.00000  0.05    0.08
Q43   1   0.3832  0.2014  0.6227  11.00000  0.05    0.08
Q44   1  -0.1119  0.3977  0.5215  11.00000  0.05    0.08
Q45   1  -0.2500  0.3257  0.4438  11.00000  0.05    0.08
;
_shelx_res_checksum              88439
_shelx_hkl_file
;
   0   0  -2 74570.9 1392.38   5 0.72424-0.72636-0.61098 0.59878-0.06648-0.06648
   0   0   2 66473.3 1345.68   6 0.80778-0.80625 0.67182-0.65876 0.06644 0.06644
   0   0   2 68523.7 1336.83   3 0.38338-0.38135 0.95849-0.94558 0.06567 0.06698
   0   0   2 72081.2 1377.18   5 0.78989-0.78777-0.51877 0.53097 0.06648 0.06648
   0   0  -3 21306.1 565.722   3 0.54204-0.54508 0.87172-0.89110-0.10020-0.09876
   0   0   3 20249.8 602.903   5 0.80305-0.79987-0.49330 0.51160 0.09972 0.09972
   0   0   3 19591.3 558.398   3 0.34835-0.34532 0.96894-0.94957 0.09879 0.10018
   0   0   4 63726.3 1429.75   3 0.31231-0.30827 0.97701-0.95118 0.13180 0.13350
   0   0   4 68583.8 1526.62   5 0.81488-0.81064-0.46684 0.49124 0.13295 0.13295
   0   0   5 3045.93 230.921   3 0.27441-0.26935 0.98276-0.95047 0.16542 0.16620
   0   0   5 3089.16 260.015   5 0.82537-0.82007-0.43939 0.46988 0.16619 0.16619
   0   0   6 13724.1 633.325   5 0.83447-0.82811-0.41090 0.44750 0.19943 0.19943
   0   0   6 12619.4 554.476   3 0.23613-0.23006 0.98589-0.94715 0.19829 0.19964
   0   0   7 1276.70 189.419   5 0.84215-0.83473-0.38136 0.42406 0.23267 0.23267
   0   0   7 1134.77 165.015   3 0.19598-0.18890 0.98643-0.94123 0.23168 0.23258
   0   0   8 1484.79 240.437   5 0.84835-0.83988-0.35073 0.39952 0.26591 0.26591
   0   0   8 1661.35 216.420   3 0.15477-0.14668 0.98420-0.93254 0.26482 0.26576
   0   0   9 2298.38 299.504   5 0.85302-0.84348-0.31895 0.37384 0.29915 0.29915
   0   0   9 1787.80 238.938   3 0.11216-0.10306 0.97903-0.92091 0.29795 0.29896
   0   0  10-11.3927 33.8811   3 0.06801-0.05789 0.97067-0.90610 0.33107 0.33216
   0   0  10-78.1237 78.4305   5 0.85607-0.84547-0.28597 0.34697 0.33239 0.33239
   0   0  11 108.205 77.6037   5 0.85740-0.84575-0.25172 0.31881 0.36562 0.36562
   0   0  11 31.2782 73.0461   2 0.85978-0.84956 0.48896-0.41683 0.36593 0.36593
   0   0  12 362.689 153.822   2 0.85280-0.84164 0.47388-0.39519 0.39920 0.39920
   0   0  12 333.500 148.492   5 0.85691-0.84420-0.21611 0.28931 0.39886 0.39886
   0   0  13 179.634 103.031   2 0.84438-0.83230 0.45780-0.37256 0.43247 0.43247
   0   0  14 872.985 289.781   2 0.83447-0.82145 0.44067-0.34887 0.46573 0.46573
   0  -1  14 403.943 177.189   2 0.82305-0.81870 0.42259-0.41334 0.49871 0.42462
   0  -1  13 1302.57 311.227   2 0.83304-0.82963 0.43834-0.43565 0.47011 0.38669
   0  -1  12 640.427 216.514   2 0.84165-0.83917 0.45292-0.45679 0.44216 0.34810
   0  -1  11 465.990 158.809   5 0.85592-0.85276-0.28811 0.27287 0.33027 0.39343
   0  -1  11 585.733 193.608   2 0.84897-0.84741 0.46634-0.47677 0.41506 0.30868
   0  -1  10 7330.77 558.385   5 0.85179-0.84969-0.32854 0.30721 0.28924 0.36798
   0  -1  10 6702.88 617.696   2 0.85508-0.85445 0.47859-0.49557 0.38903 0.26816
   0  -1  10 5880.08 451.971   3-0.09329 0.09467 0.91492-0.93296 0.44195 0.21323
   0  -1   9 57462.9 1663.80   5 0.84491-0.84387-0.36873 0.34130 0.24652 0.34422
   0  -1   9 57665.6 1894.37   2 0.86006-0.86037 0.48961-0.51315 0.36445 0.22621
   0  -1   8 1138.31 199.227   5 0.83496-0.83498-0.40920 0.37567 0.20138 0.32288
   0  -1   8 1043.18 164.501   3-0.04263 0.04199 0.93669-0.96765 0.40883 0.11371
   0  -1   7 5468.31 369.697   3-0.02725 0.02560 0.94252-0.97994 0.39847 0.05774
   0  -1   7 6592.11 422.083   5 0.82126-0.82234-0.45069 0.41105 0.15266 0.30512
   0  -1   6 3775.02 295.790   5 0.80253-0.80466-0.49438 0.44865 0.09833 0.29298
   0  -1   6 3567.46 273.125   3-0.02198 0.01932 0.94444-0.98831 0.39488-0.00499
   0   1  -5 1467.47 186.175   6 0.77533-0.77041 0.70706-0.65720 0.00737-0.33147
   0  -1   5 1266.96 140.497   3-0.03204 0.02837 0.94074-0.99107 0.40172-0.07815
   0  -1   5 1543.14 165.654   5 0.77599-0.77919-0.54236 0.49052 0.03450 0.29034
   0   1  -4 10282.4 466.009   6 0.80970-0.80401 0.66939-0.61300 0.07024-0.32790
   0  -1   4 10347.8 405.296   5 0.73506-0.73931-0.59855 0.54062-0.04718 0.30553
   0  -1   4 9442.39 390.904   3-0.06743 0.06274 0.92652-0.98331 0.42525-0.16800
   0   1  -3 9137.48 324.506   5 0.42955-0.42423-0.77781 0.84184-0.43026 0.23838
   0   1  -3 8766.91 322.464   3 0.11284-0.10714 0.97913-0.91589 0.29742-0.48835
   0  -1   3 8825.60 319.477   5 0.66015-0.66546-0.67075 0.60672-0.16775 0.35963
   0  -1   3 8217.97 323.210   3-0.14812 0.14242 0.88689-0.95014 0.47600-0.28508
   0   1  -3 8984.13 390.817   6 0.84365-0.83719 0.61652-0.55359 0.14657-0.33779
   0   1  -2 3641.60 176.158   3-0.13919 0.14591 0.89178-0.82207 0.47059-0.59519
   0  -1   2 3861.78 213.440   6 0.88820-0.89542 0.43140-0.50085 0.35181-0.22704
   0  -1   2 3644.15 156.743   5 0.47156-0.47794-0.76673 0.69660-0.39038 0.51578
   0  -1   2 3860.02 214.538   2 0.85643-0.86324 0.48148-0.55091 0.38270-0.25777
   0   1  -2 3940.94 215.166   6 0.87472-0.86750 0.53387-0.46441 0.24754-0.37231
   0   1  -2 4106.25 216.339   4 0.77913-0.77261-0.45342 0.52303-0.36618 0.24170
   0   1   1 54621.3 1113.00   3 0.77591-0.76617 0.44634-0.35727-0.46400 0.53837
   0   1   2 502.516 74.1416   3 0.70404-0.69328 0.66719-0.57166-0.31605 0.45674
   0   1   2 631.744 91.0637   5 0.85286-0.84225-0.32023 0.41476 0.29783-0.15732
   0   1   3 44433.0 1138.36   5 0.84872-0.83705-0.34860 0.44923 0.26817-0.06119
   0   1   3 46348.1 1089.06   3 0.62622-0.61445 0.78820-0.68621-0.20324 0.41025
   0   1   4 10.1421 33.6014   3 0.55506-0.54228 0.86099-0.75254-0.11526 0.38860
   0   1   4-41.4515 48.3501   5 0.84783-0.83510-0.35368 0.46041 0.26276 0.01070
   0   1   5 27118.1 931.456   5 0.84899-0.83520-0.34698 0.45981 0.26989 0.07005
   0   1   5 26953.1 861.753   3 0.49049-0.47669 0.90811-0.79321-0.04302 0.38268
   0   1   6 4102.10 349.430   5 0.85112-0.83627-0.33330 0.45223 0.28428 0.12214
   0   1   6 4058.50 317.343   3 0.42987-0.41506 0.94030-0.81894 0.01996 0.38602
   0   1   7-35.0067 45.9256   3 0.37275-0.35693 0.96195-0.83413 0.07583 0.39647
   0   1   7-17.1630 50.6959   5 0.85348-0.83757-0.31496 0.43999 0.30323 0.16966
   0   1   8 1598.93 245.197   5 0.85555-0.83858-0.29318 0.42431 0.32522 0.21415
   0   1   8 1620.33 229.560   3 0.31763-0.30080 0.97598-0.84170 0.12699 0.41163
   0   1   9 3819.29 413.110   5 0.85697-0.83894-0.26866 0.40589 0.34934 0.25651
   0   1   9 3199.22 337.989   3 0.26260-0.24476 0.98401-0.84327 0.17567 0.42928
   0   1  10 5611.56 479.503   3 0.20835-0.18949 0.98656-0.83937 0.22151 0.44976
   0   1  10 7094.29 597.558   5 0.85745-0.83837-0.24183 0.38516 0.37499 0.29734
   0   1  11 2880.77 406.173   5 0.85678-0.83663-0.21291 0.36234 0.40179 0.33702
   0   1  12 48.7725 44.1256   5 0.85472-0.83351-0.18204 0.33757 0.42945 0.37583
   0   1  13 953.910 264.226   5 0.85108-0.82881-0.14928 0.31091 0.45780 0.41396
   0   1  13 364.107 150.948   2 0.85277-0.83202 0.47382-0.30603 0.39932 0.47375
   0   1  14 108.024 128.974   2 0.84308-0.82140 0.45545-0.28109 0.43716 0.50244
   0  -2  14 1536.34 371.849   2 0.80842-0.81275 0.40118-0.47449 0.53521 0.37999
   0  -2  13 143.767 72.8713   2 0.81827-0.82352 0.41540-0.49527 0.51125 0.33741
   0  -2  12 1277.80 292.771   2 0.82674-0.83292 0.42827-0.51469 0.48856 0.29356
   0  -2  11 357.411 157.456   2 0.83390-0.84101 0.43974-0.53271 0.46749 0.24811
   0  -2  10 1112.60 200.150   5 0.84487-0.85126-0.36895 0.26529 0.24628 0.40338
   0  -2  10 1138.82 253.853   2 0.83981-0.84785 0.44969-0.54923 0.44847 0.20059
   0  -2   9 32.3307 31.2041   3-0.24693 0.23857 0.82410-0.93122 0.53245 0.04837
   0  -2   9-31.7154 52.2586   2 0.84447-0.85344 0.45795-0.56404 0.43216 0.15037
   0  -2   9 114.102 81.2736   5 0.83250-0.83995-0.41755 0.30779 0.19178 0.39141
   0  -2   8 14356.0 671.114   5 0.81434-0.82285-0.46815 0.35228 0.13134 0.38536
   0  -2   8 13293.5 632.866   3-0.24458 0.23520 0.82579-0.93936 0.53118-0.01669
   0  -2   8 13884.0 829.318   2 0.84785-0.85775 0.46420-0.57685 0.41946 0.09653
   0  -2   7 139.042 62.9208   3-0.25369 0.24330 0.81920-0.93923 0.53607-0.08790
   0  -2   7 84.4862 66.3471   2 0.84979-0.86063 0.46793-0.58714 0.41175 0.03772
   0  -2   7 71.2116 42.8561   5 0.78798-0.79756-0.52218 0.40022 0.06192 0.38831
   0   2  -7 128.422 88.8699   6 0.77429-0.76215 0.70804-0.58872 0.00562-0.45449
   0   2  -6 214.971 85.3958   6 0.80552-0.79261 0.67463-0.54879 0.06200-0.44443
   0  -2   6 176.801 85.5641   2 0.84995-0.86171 0.46823-0.59399 0.41113-0.02820
   0  -2   6 199.018 64.8371   5 0.74859-0.75922-0.58174 0.45368-0.02185 0.40560
   0  -2   6 167.902 65.1925   3-0.27795 0.26655 0.80093-0.92742 0.54878-0.16693
   0  -2   5 5206.88 391.150   2 0.84744-0.86013 0.46344-0.59576 0.42104-0.10465
   0   2  -5 5160.69 376.516   6 0.83437-0.82070 0.63322-0.50085 0.12367-0.43966
   0  -2   5 5131.04 290.055   5 0.68557-0.69726-0.64948 0.51532-0.12988 0.44716
   0   2  -4 40744.2 1146.67   6 0.85986-0.84542 0.58067-0.44176 0.19265-0.44220
   0  -2   4 37895.6 921.507   5 0.57328-0.58603-0.72610 0.58584-0.28080 0.53160
   0  -2   4 40781.2 1176.77   2 0.84014-0.85376 0.45027-0.58915 0.44735-0.19749
   0  -2   3 7068.47 312.498   1 0.10214-0.11659 0.72574-0.87147 0.75334-0.57035
   0   2  -3 7910.57 401.583   6 0.87967-0.86447 0.51165-0.36622 0.27184-0.45495
   0  -2   3 8085.17 402.367   2 0.82237-0.83692 0.42156-0.56699 0.50052-0.31719
   0  -2   2 53752.7 1196.60   2 0.77718-0.79266 0.35979-0.51178 0.59910-0.48231
   0   2  -2 52156.0 1219.06   6 0.88837-0.87240 0.41694-0.26498 0.36508-0.48175
   0  -2   2 48877.1 1078.28   1-0.15591 0.14076 0.56053-0.71257 0.84970-0.73293
   0  -2   2 51556.9 1166.44   4 0.77221-0.78706-0.44272 0.29062-0.39830 0.51476
   0   2  -2 49755.8 1076.10   1 0.10561-0.09046 0.72751-0.57547 0.75150-0.86827
   0   2  -1 4760.95 214.597   4 0.56293-0.54717-0.22845 0.38698-0.79138 0.74116
   0   2  -1 5005.31 231.083   2 0.76214-0.74573 0.34131-0.18276 0.62512-0.67538
   0   2  -1 4704.54 252.166   6 0.87302-0.85628 0.28091-0.12242 0.47577-0.52600
   0  -2   1 4957.26 222.713   4 0.68538-0.70114-0.34132 0.18279-0.62745 0.67767
   0   2   0 305956. 5252.62   6 0.80510-0.78760 0.08251 0.08251 0.59925-0.58303
   0  -2   0 316541. 5248.32   5 0.83912-0.85611-0.08233-0.08233 0.51256-0.52767
   0  -2   0 314679. 5255.96   6 0.71302-0.73052-0.08251-0.08251 0.67225-0.68847
   0   2   1 34181.2 801.261   6 0.64319-0.62492-0.18068 0.35223 0.70312-0.62046
   0   2   1 37573.3 917.201   5 0.84277-0.82472-0.09956 0.27032 0.49887-0.41729
   0   2   2 8422.90 389.915   3 0.76520-0.74571 0.49724-0.31909-0.43474 0.58347
   0   2   2 7786.52 385.689   5 0.85551-0.83640-0.19167 0.36853 0.42093-0.27286
   0   2   3 23217.7 804.224   5 0.85743-0.83727-0.23759 0.42055 0.37897-0.16443
   0   2   3 24697.7 786.077   3 0.71979-0.69928 0.63355-0.44894-0.34255 0.55761
   0   2   4 9260.54 510.676   5 0.85728-0.83606-0.25851 0.44758 0.35913-0.07811
   0   2   4 9581.89 477.416   3 0.66578-0.64426 0.73406-0.54300-0.25762 0.53900
   0   2   5 2433.07 246.093   3 0.60867-0.58613 0.80869-0.61117-0.18052 0.52822
   0   2   5 2221.28 268.885   5 0.85711-0.83482-0.26467 0.45983 0.35320-0.00571
   0   2   6 5297.91 395.128   3 0.55081-0.52726 0.86457-0.66059-0.11031 0.52434
   0   2   6 4977.21 426.511   5 0.85721-0.83386-0.26134 0.46260 0.35642 0.05756
   0   2   7-5.45470 56.2492   5 0.85741-0.83300-0.25144 0.45880 0.36588 0.11456
   0   2   7-0.07454 43.8800   3 0.49313-0.46858 0.90646-0.69603-0.04587 0.52621
   0   2   8 10742.4 709.913   5 0.85742-0.83196-0.23670 0.45016 0.37980 0.16713
   0   2   8 10257.0 630.462   3 0.43513-0.40956 0.93790-0.72101 0.01466 0.53201
   0   2   9 6223.13 510.002   3 0.37782-0.35124 0.96033-0.73698 0.07099 0.54200
   0   2   9 6963.04 592.072   5 0.85699-0.83047-0.21818 0.43774 0.39696 0.21644
   0   2  10 681.580 174.336   3 0.32037-0.29278 0.97543-0.74562 0.12451 0.55481
   0   2  10 845.178 237.825   5 0.85585-0.82827-0.19654 0.42220 0.41657 0.26331
   0   2  11 1823.43 344.511   5 0.85378-0.82514-0.17223 0.40399 0.43805 0.30830
   0   2  12 784.337 233.082   5 0.85056-0.82086-0.14550 0.38336 0.46100 0.35183
   0   2  13 493.900 184.539   5 0.84598-0.81522-0.11654 0.36050 0.48510 0.39421
   0   2  13 610.880 199.464   2 0.85868-0.82926 0.48644-0.23609 0.37164 0.50956
   0   2  14 33.6648 100.753   2 0.84926-0.81891 0.46691-0.21000 0.41388 0.53386
   0   2  14 333.129 141.764   5 0.83980-0.80798-0.08542 0.33548 0.51013 0.43566
   0  -3  13-42.9509 70.7290   2 0.79960-0.81353 0.38899-0.55140 0.55490 0.28563
   0  -3  12-152.662 122.059   2 0.80753-0.82239 0.39993-0.56891 0.53726 0.23673
   0  -3  11 3437.36 497.597   2 0.81401-0.82980 0.40917-0.58470 0.52189 0.18557
   0  -3  10 1644.06 322.361   2 0.81899-0.83571 0.41648-0.59857 0.50938 0.13155
   0  -3   9 54873.1 1540.70   5 0.81578-0.83173-0.46466 0.27257 0.13564 0.43999
   0  -3   9 58009.1 1971.34   2 0.82236-0.84000 0.42154-0.61018 0.50055 0.07384
   0  -3   8 1113.41 164.005   5 0.78549-0.80250-0.52655 0.32836 0.05605 0.45310
   0  -3   8 978.966 223.563   2 0.82385-0.84242 0.42381-0.61901 0.49654 0.01132
   0   3  -8 1170.22 221.568   6 0.78578-0.76565 0.69679-0.50149 0.02541-0.53262
   0  -3   7 3273.09 369.141   2 0.82296-0.84246 0.42245-0.62421 0.49895-0.05762
   0   3  -7 3947.87 389.254   6 0.81409-0.79319 0.66365-0.46183 0.07912-0.51988
   0  -3   7 3284.79 266.275   5 0.73926-0.75733-0.59348 0.38919-0.03945 0.48213
   0  -3   6 3924.02 382.087   2 0.81870-0.83914 0.41605-0.62437 0.51013-0.13533
   0   3  -6 4212.98 387.998   6 0.83941-0.81775 0.62442-0.41606 0.13587-0.51019
   0  -3   6 3657.80 255.800   5 0.66603-0.68515-0.66608 0.45568-0.15922 0.53542
   0  -3   5 35229.5 912.794   5 0.54380-0.56399-0.74014 0.52365-0.31469 0.62441
   0  -3   5 34061.6 1007.41   1 0.07767-0.09900 0.71292-0.92837 0.76591-0.45830
   0  -3   5 39653.2 1251.68   2 0.80914-0.83050 0.40220-0.61707 0.53353-0.22527
   0   3  -5 38063.7 1226.64   6 0.86103-0.83861 0.57762-0.36274 0.19639-0.50427
   0  -3   4 192.366 59.5117   1-0.04748 0.02545 0.63805-0.85980 0.81895-0.57757
   0  -3   4 282.648 87.3308   2 0.79024-0.81253 0.37651-0.59794 0.57427-0.33254
   0   3  -4 169.978 91.0788   6 0.87771-0.85452 0.52116-0.29974 0.26157-0.50301
   0  -3   3 42018.4 1155.32   2 0.75324-0.77646 0.33073-0.55871 0.63939-0.46420
   0  -3   3 39871.2 1017.07   1-0.22092 0.19820 0.50820-0.73626 0.86109-0.68594
   0   3  -3 41748.4 1194.92   6 0.88728-0.86333 0.45203-0.22409 0.33232-0.50732
   0  -3   3 42089.2 1129.72   4 0.78329-0.80557-0.46042 0.23228-0.34389 0.51859
   0  -3   2 136.293 56.0336   4 0.74630-0.76948-0.40821 0.17364-0.48911 0.59757
   0   3  -2 176.165 60.4994   6 0.88604-0.86132 0.36610-0.13163 0.40930-0.51786
   0   3  -1 216383. 4064.37   6 0.86779-0.84231 0.25822-0.01722 0.49202-0.53413
   0  -3   1 218768. 3909.41   4 0.65217-0.67626-0.30877 0.06776-0.68212 0.72433
   0  -3   0 56528.3 1206.28   4 0.43440-0.45940-0.12372-0.12372-0.89090 0.86686
   0   3   0 60019.2 1351.99   6 0.82320-0.79695 0.12377 0.12376 0.57688-0.55256
   0   3   1 264.149 62.1840   6 0.74187-0.71485-0.03647 0.29053 0.65451-0.56375
   0   3   2 7234.10 333.016   6 0.62107-0.59329-0.20874 0.46932 0.71014-0.55293
   0   3   2 8241.22 442.178   5 0.84241-0.81481-0.09781 0.35700 0.50027-0.34465
   0   3   3 11254.5 552.624   3 0.75174-0.72250 0.54676-0.27954-0.40376 0.62686
   0   3   3 10666.0 545.708   5 0.85092-0.82226-0.14813 0.41342 0.45878-0.23668
   0   3   4 2787.69 282.849   3 0.71383-0.68358 0.64679-0.37311-0.33233 0.62175
   0   3   4 2862.45 293.935   5 0.85421-0.82449-0.17653 0.44792 0.43430-0.14573
   0   3   5 0.99181 45.7129   3 0.66925-0.63798 0.72867-0.44854-0.26266 0.61840
   0   3   5 29.2657 69.7588   5 0.85541-0.82463-0.19037 0.46786 0.42208-0.06704
   0   3   6 1368.35 224.818   3 0.62040-0.58812 0.79521-0.50862-0.19562 0.61769
   0   3   6 1456.11 247.797   5 0.85568-0.82385-0.19410 0.47769 0.41876 0.00276
   0   3   7 2889.25 325.192   3 0.56876-0.53547 0.84892-0.55587-0.13142 0.61981
   0   3   7 2857.72 362.240   5 0.85542-0.82252-0.19048 0.48017 0.42198 0.06602
   0   3   8 8906.36 624.637   3 0.51542-0.48111 0.89167-0.59216-0.07021 0.62492
   0   3   8 8440.31 679.598   5 0.85465-0.82069-0.18128 0.47708 0.43012 0.12436
   0   3   9 1338.68 281.574   5 0.85331-0.81829-0.16767 0.46956 0.44201 0.17894
   0   3   9 980.532 215.357   3 0.46021-0.42489 0.92548-0.61952-0.01104 0.63208
   0   3  10 6767.95 642.927   5 0.85123-0.81515-0.15043 0.45842 0.45682 0.23061
   0   3  10 5946.53 544.633   3 0.40354-0.36721 0.95124-0.63881 0.04610 0.64126
   0   3  11 2565.47 424.433   5 0.84826-0.81113-0.13008 0.44417 0.47394 0.27998
   0   3  12 911.276 272.378   5 0.84422-0.80602-0.10698 0.42717 0.49289 0.32750
   0   3  13 923.895 265.992   5 0.83890-0.79965-0.08137 0.40766 0.51332 0.37355
   0  -4  13 517.958 235.328   2 0.77666-0.79925 0.35912-0.60409 0.60006 0.23233
   0  -4  12 852.812 249.669   2 0.78363-0.80716 0.36796-0.61949 0.58713 0.17873
   0  -4  11 459.877 154.909   2 0.78888-0.81333 0.37474-0.63282 0.57696 0.12236
   0  -4  10 2616.91 394.993   2 0.79224-0.81763 0.37915-0.64379 0.57024 0.06255
   0  -4   9 337.197 137.459   2 0.79342-0.81973 0.38070-0.65190 0.56785-0.00159
   0   4  -9 265.639 113.355   6 0.78643-0.75832 0.69611-0.42484 0.02657-0.59211
   0  -4   9 250.996 90.5555   1 0.09565-0.12245 0.72240-0.99495 0.75675-0.19209
   0  -4   8 2296.50 348.279   2 0.79189-0.81913 0.37869-0.65644 0.57095-0.07123
   0   4  -8 2598.67 354.581   6 0.81310-0.78422 0.66497-0.38716 0.07710-0.57620
   0  -4   8 2112.07 257.029   1 0.06183-0.08933 0.70431-0.98317 0.77366-0.27522
   0  -4   8 2772.96 248.718   5 0.74793-0.77343-0.58259 0.30207-0.02311 0.52471
   0  -4   7 708.332 141.917   1 0.01056-0.03876 0.67470-0.95987 0.79667-0.36446
   0   4  -7 662.063 164.127   6 0.83672-0.80707 0.62920-0.34486 0.12928-0.56194
   0  -4   7 746.965 187.124   2 0.78676-0.81493 0.37198-0.65629 0.58112-0.14793
   0  -4   7 662.488 114.328   5 0.67365-0.70021-0.65980 0.37318-0.14796 0.58308
   0   4  -6 725.437 174.753   6 0.85687-0.82646 0.58812-0.29725 0.18339-0.54960
   0  -4   6 727.349 162.882   2 0.77643-0.80553 0.35885-0.64972 0.60046-0.23380
   0  -4   6 474.388 106.873   1-0.06271 0.03380 0.62788-0.91935 0.82413-0.45814
   0  -4   6 576.551 94.2794   5 0.55542-0.58304-0.73485 0.44213-0.30157 0.67021
   0  -4   5 6773.37 489.916   2 0.75811-0.78814 0.33649-0.63391 0.63168-0.33156
   0   4  -5 6844.85 499.999   6 0.87291-0.84173 0.54084-0.24344 0.23969-0.53947
   0  -4   5 6617.54 395.330   1-0.16172 0.13212 0.55604-0.85381 0.85094-0.55117
   0   4  -4 7001.12 483.383   6 0.88387-0.85193 0.48622-0.18230 0.29843-0.53176
   0  -4   4 6841.08 440.047   4 0.79159-0.82129-0.47662 0.17244-0.28760 0.52053
   0  -4   4 7046.12 460.466   2 0.72664-0.75760 0.30032-0.60431 0.67802-0.44442
   0   4  -3 5915.83 417.745   6 0.88835-0.85564 0.42285-0.11240 0.35969-0.52658
   0  -4   3 5679.20 366.141   4 0.77287-0.80348-0.44371 0.13308-0.39542 0.56211
   0  -4   2 15756.9 595.301   4 0.73177-0.76329-0.39101 0.07396-0.52870 0.62914
   0   4  -2 15856.6 681.470   6 0.88432-0.85085 0.34913-0.03215 0.42327-0.52372
   0   4  -1 3755.68 297.946   6 0.86906-0.83483 0.26348 0.06003 0.48830-0.52231
   0  -4   1 3801.97 247.649   4 0.64685-0.67927-0.30373-0.01977-0.69000 0.72420
   0   4   0 13220.7 565.132   6 0.83927-0.80427 0.16502 0.16502 0.55284-0.52040
   0  -4   0 13274.6 465.645   4 0.48646-0.51979-0.16496-0.16496-0.85682 0.82477
   0   4   1 18595.6 661.086   6 0.79181-0.75605 0.05476 0.28181 0.61335-0.51448
   0  -4  -1 16720.7 547.386   4 0.24681-0.28105 0.01511-0.35147-0.96200 0.86370
   0   4   2 37667.0 1036.91   6 0.72561-0.68908-0.06289 0.40599 0.66494-0.49963
   0   4   3 1789.25 244.214   3 0.76367-0.72569 0.50352-0.15368-0.43095 0.66210
   0   4   3 1658.38 172.936   6 0.64395-0.60666-0.17968 0.52931 0.70285-0.47109
   0   4   3 2055.94 261.190   5 0.83674-0.79958-0.07196 0.41958 0.52067-0.29102
   0   4   4 7530.49 532.043   5 0.84359-0.80537-0.10370 0.45742 0.49554-0.19941
   0   4   4 8023.30 528.065   3 0.73546-0.69647 0.59487-0.23857-0.37101 0.66848
   0   4   5 159.895 89.8534   3 0.70035-0.66035 0.67446-0.31170-0.31009 0.67388
   0   4   5 324.566 116.709   5 0.84695-0.80767-0.12211 0.48193 0.48053-0.11793
   0   4   5 182.036 60.4099   6 0.46981-0.43099-0.37344 0.73612 0.73348-0.36884
   0   4   6 6035.20 508.193   3 0.65989-0.61888 0.74293-0.37372-0.24921 0.67932
   0   4   6 6339.31 538.301   5 0.84835-0.80802-0.13064 0.49656 0.47347-0.04439
   0   4   7 2678.09 336.069   3 0.61528-0.57325 0.80119-0.42553-0.18899 0.68542
   0   4   7 3187.13 391.638   5 0.84852-0.80712-0.13168 0.50370 0.47261 0.02295
   0   4   8 184.514 117.421   3 0.56737-0.52433 0.85018-0.46805-0.12976 0.69252
   0   4   8 87.0362 89.4863   5 0.84774-0.80528-0.12683 0.50495 0.47663 0.08540
   0   4   9 768.881 183.328   3 0.51697-0.47291 0.89058-0.50200-0.07192 0.70100
   0   4   9 850.004 238.124   5 0.84610-0.80259-0.11724 0.50146 0.48453 0.14398
   0   4  10 430.538 167.380   5 0.84358-0.79901-0.10369 0.49401 0.49554 0.19945
   0   4  10 941.994 226.685   3 0.46385-0.41878 0.92354-0.52850-0.01483 0.71023
   0   4  11 343.932 183.226   5 0.84009-0.79446-0.08676 0.48318 0.50907 0.25240
   0   4  11 513.365 168.305   3 0.40840-0.36232 0.94935-0.54785 0.04133 0.72040
   0   4  12 142.257 99.8916   5 0.83550-0.78881-0.06683 0.46935 0.52465 0.30330
   0  -5  13 3090.28 526.743   2 0.74910-0.78036 0.32587-0.65339 0.64579 0.17846
   0  -5  12 42.6401 55.2359   2 0.75471-0.78690 0.33245-0.66653 0.63709 0.12063
   0  -5  11 3824.21 522.356   2 0.75822-0.79134 0.33662-0.67726 0.63150 0.05969
   0   5 -10 243.527 139.220   6 0.78050-0.74440 0.70209-0.35483 0.01620-0.64007
   0  -5  10 109.890 95.9058   2 0.75934-0.79339 0.33796-0.68515 0.62969-0.00503
   0  -5   9 3118.62 426.925   2 0.75759-0.79257 0.33587-0.68962 0.63251-0.07439
   0   5  -9 2875.00 411.967   6 0.80647-0.76961 0.67345-0.31967 0.06387-0.62130
   0  -5   8 309.993 135.714   2 0.75220-0.78811 0.32950-0.68981 0.64102-0.14943
   0  -5   8 371.249 114.666   1-0.12119 0.08541 0.58666-0.94784 0.84142-0.35082
   0   5  -8 238.457 91.6729   6 0.82950-0.79187 0.64121-0.28089 0.11235-0.60334
   0  -5   7 1816.19 292.162   2 0.74191-0.77875 0.31756-0.68442 0.65654-0.23148
   0  -5   7 1488.69 205.980   1-0.18198 0.14550 0.54009-0.90758 0.85492-0.43055
   0  -5   7 1643.40 174.812   5 0.59438-0.62944-0.71472 0.34577-0.25529 0.68285
   0   5  -7 1814.56 304.464   6 0.84935-0.81095 0.60506-0.23821 0.16173-0.58628
   0  -5   6 15.2655 38.6866   2 0.72470-0.76247 0.29817-0.67160 0.68062-0.32210
   0  -5   6 84.9907 56.9285   1-0.25900 0.22182 0.47540-0.84919 0.86517-0.50702
   0   5  -6-53.4230 95.4767   6 0.86569-0.82653 0.56463-0.19126 0.21207-0.57018
   0  -5   6 17.5559 17.3594   5 0.43189-0.46800-0.77727 0.40222-0.42811 0.78920
   0   5  -5 112.755 82.1929   6 0.87807-0.83814 0.51948-0.13958 0.26339-0.55506
   0  -5   5-4.93520 61.3810   2 0.69729-0.73599 0.26853-0.64851 0.71491-0.42293
   0   5  -4 47.4915 48.4850   6 0.88588-0.84519 0.46910-0.08267 0.31565-0.54087
   0  -5   4 100.359 69.3927   4 0.78778-0.82582-0.46869 0.08202-0.31608 0.54100
   0   5  -3 4257.65 386.867   6 0.88835-0.84689 0.41296-0.02000 0.36867-0.52745
   0  -5   3 4522.81 337.311   4 0.76754-0.80648-0.43597 0.04286-0.41747 0.57615
   0  -5   2 261.211 72.7445   4 0.72841-0.76826-0.38717-0.01237-0.53711 0.62954
   0   5  -2 105.122 43.4163   6 0.88448-0.84226 0.35057 0.04892 0.42209-0.51444
   0   5  -1 19751.9 809.634   6 0.87317-0.83019 0.28163 0.12439 0.47525-0.50115
   0  -5   1 18857.0 668.953   4 0.65707-0.69783-0.31346-0.09251-0.67466 0.70085
   0  -5   0 16511.8 593.808   4 0.53667-0.57833-0.20621-0.20621-0.81621 0.77615
   0   5   0 17305.7 731.583   6 0.85326-0.80951 0.20627 0.20628 0.52705-0.48651
   0  -5  -1 7583.91 372.167   4 0.36281-0.40539-0.06911-0.34974-0.92666 0.82035
   0   5   1 7983.01 462.339   6 0.82387-0.77935 0.12539 0.29368 0.57597-0.46898
   0   5   2 21012.3 779.658   6 0.78490-0.73962 0.04101 0.38460 0.62007-0.44664
   0   5   3 6561.51 505.772   3 0.76782-0.72111 0.48602-0.05357-0.44140 0.68059
   0   5   3 5853.87 374.892   6 0.73756-0.69151-0.04361 0.47575 0.65740-0.41753
   0   5   4 2154.77 299.928   3 0.74512-0.69739 0.56754-0.12863-0.38995 0.69546
   0   5   4 1551.85 186.510   6 0.68471-0.63790-0.12429 0.56296 0.68656-0.38025
   0   5   5 47.0803 28.2479   6 0.63056-0.58299-0.19685 0.64205 0.70726-0.33451
   0   5   5-104.427 82.4555   3 0.71625-0.66751 0.64151-0.19614-0.33644 0.70827
   0   5   5-54.9051 107.084   5 0.83340-0.78563-0.05836 0.50051 0.53116-0.16100
   0   5   6 7328.94 622.533   5 0.83631-0.78748-0.07018 0.51843 0.52206-0.08542
   0   5   6 7388.53 592.588   3 0.68208-0.63232 0.70771-0.25588-0.28166 0.71982
   0   5   6 5530.95 371.837   6 0.57969-0.53135-0.25811 0.70984 0.72045-0.28126
   0   5   7 11726.8 785.510   3 0.64338-0.59262 0.76622-0.30793-0.22623 0.73071
   0   5   7 12029.8 846.733   5 0.83737-0.78748-0.07466 0.52901 0.51857-0.01546
   0   5   8 29133.8 1419.88   5 0.83703-0.78609-0.07323 0.53368 0.51968 0.04991
   0   5   8 28914.9 1334.46   3 0.60080-0.54902 0.81728-0.35253-0.17057 0.74138
   0   5   9 198.818 119.428   3 0.55483-0.50204 0.86118-0.38998-0.11500 0.75212
   0   5   9 0.47843 65.3349   5 0.83552-0.78352-0.06692 0.53347 0.52458 0.11149
   0   5  10 421.066 160.221   3 0.50599-0.45220 0.89813-0.42047-0.05984 0.76328
   0   5  10 415.022 158.739   5 0.83292-0.77985-0.05648 0.52914 0.53259 0.16995
   0   5  11 156.265 119.130   3 0.45392-0.39911 0.92876-0.44464-0.00453 0.77430
   0  -6  12 690.896 252.600   2 0.72053-0.76139 0.29356-0.71019 0.68615 0.06344
   0  -6  11 96.1164 112.483   2 0.72186-0.76365 0.29503-0.71822 0.68440-0.00135
   0   6 -11 84.0454 80.9487   6 0.76972-0.72563 0.71223-0.28899-0.00200-0.68020
   0  -6  10 7574.09 759.830   2 0.72023-0.76296 0.29324-0.72299 0.68653-0.07001
   0   6 -10 9267.98 824.249   6 0.79566-0.75081 0.68618-0.25642 0.04329-0.65905
   0  -6   9 4620.49 548.858   2 0.71501-0.75866 0.28753-0.72383 0.69328-0.14329
   0   6  -9 5598.71 606.094   6 0.81877-0.77315 0.65723-0.22093 0.08885-0.63818
   0   6  -8 459.706 188.587   6 0.83894-0.79256 0.62527-0.18244 0.13470-0.61758
   0  -6   8 418.266 140.547   2 0.70519-0.74977 0.27693-0.71979 0.70549-0.22204
   0   6  -7 1654.69 303.032   6 0.85601-0.80887 0.59016-0.14081 0.18082-0.59726
   0  -6   7 2120.69 331.356   2 0.68929-0.73480 0.26014-0.70955 0.72410-0.30718
   0   6  -6 6689.67 586.658   6 0.86979-0.82188 0.55178-0.09590 0.22716-0.57716
   0   6  -5 293.539 111.942   6 0.88000-0.83132 0.50997-0.04755 0.27363-0.55719
   0   6  -4 988.374 197.820   6 0.88631-0.83687 0.46459 0.00435 0.32010-0.53722
   0  -6   4 922.479 164.065   4 0.78653-0.83291-0.46630-0.00286-0.32431 0.54122
   0  -6   3 3294.44 308.202   4 0.76745-0.81472-0.43584-0.03975-0.41783 0.56849
   0   6  -3 3233.73 360.582   6 0.88836-0.83816 0.41556 0.05991 0.36633-0.51700
   0  -6   2 39498.4 1162.77   4 0.73332-0.78151-0.39280-0.08923-0.52475 0.60916
   0   6  -2 37028.8 1334.11   6 0.88575-0.83478 0.36289 0.11911 0.41197-0.49621
   0   6  -1 44970.1 1446.37   6 0.87809-0.82636 0.30673 0.18180 0.45656-0.47435
   0  -6   1 44750.3 1221.88   4 0.67577-0.72486-0.33170-0.15676-0.64434 0.66251
   0   6   0 8438.71 538.306   6 0.86509-0.81259 0.24753 0.24753 0.49947-0.45082
   0  -6   0 7950.88 417.329   4 0.58485-0.63485-0.24745-0.24745-0.76844 0.72036
   0  -6  -1 7595.70 397.456   4 0.45624-0.50715-0.14085-0.36048-0.87751 0.76319
   0   6   1 7890.76 502.161   6 0.84666-0.79340 0.18606 0.31553 0.53991-0.42482
   0   6   2 5473.20 407.761   6 0.82310-0.76907 0.12354 0.38458 0.57701-0.39548
   0  -6  -2 5307.27 336.745   4 0.30169-0.35350-0.02413-0.48364-0.94847 0.76790
   0   6   3 171.416 76.1103   6 0.79521-0.74042 0.06168 0.45297 0.60990-0.36193
   0   6   3 257.790 131.939   3 0.76821-0.71275 0.48433 0.03074-0.44240 0.68963
   0   6   4 245.819 127.143   3 0.74862-0.69215 0.55680-0.03527-0.39715 0.71071
   0   6   4 198.596 83.4729   6 0.76439-0.70884 0.00254 0.51864 0.63789-0.32347
   0   6   5 1691.35 211.381   6 0.73263-0.67631-0.05164 0.57935 0.66058-0.27973
   0   6   5 2123.71 332.774   3 0.72372-0.66624 0.62440-0.09641-0.34947 0.72935
   0   6   6 2031.29 330.738   3 0.69395-0.63546 0.68660-0.15216-0.29994 0.74613
   0   6   7 2757.86 400.540   3 0.65976-0.60026 0.74312-0.20222-0.24902 0.76154
   0   6   8 1033.79 243.787   3 0.62156-0.56105 0.79383-0.24648-0.19713 0.77597
   0   6   9 223.615 105.659   3 0.57968-0.51816 0.83870-0.28488-0.14454 0.78971
   0   6  10-85.7978 112.152   3 0.53443-0.47190 0.87770-0.31742-0.09152 0.80301
   0   6  11 450.170 179.866   3 0.48605-0.42250 0.91083-0.34410-0.03826 0.81607
   0  -7  12-294.667 180.886   2 0.68092-0.73045 0.25145-0.75064 0.73337 0.00808
   0   7 -11 5811.66 696.903   6 0.78120-0.72836 0.70140-0.19565 0.01741-0.69150
   0  -7  11 4473.75 579.658   2 0.67971-0.73017 0.25021-0.75595 0.73468-0.05976
   0   7 -10 693.189 253.897   6 0.80484-0.75124 0.67546-0.16318 0.06068-0.66834
   0   7  -9 833.840 250.509   6 0.82571-0.77135 0.64709-0.12828 0.10385-0.64507
   0   7  -8 125.322 128.313   6 0.84376-0.78863 0.61630-0.09096 0.14687-0.62164
   0   7  -7 2214.93 372.381   6 0.85891-0.80302 0.58307-0.05121 0.18967-0.59801
   0   7  -6 3305.82 436.360   6 0.87107-0.81441 0.54743-0.00904 0.23217-0.57406
   0   7  -5 607.133 178.169   6 0.88010-0.82268 0.50941 0.03551 0.27423-0.54968
   0  -7   4 248.482 100.949   4 0.78781-0.84251-0.46874-0.08290-0.31590 0.52480
   0   7  -4 81.6318 57.6928   6 0.88589-0.82770 0.46907 0.08238 0.31568-0.52469
   0   7  -3 2447.32 338.309   6 0.88830-0.82935 0.42655 0.13143 0.35630-0.49886
   0  -7   3 2598.92 285.083   4 0.77152-0.82713-0.44170-0.11637-0.40124 0.54389
   0   7  -2 3362.80 387.470   6 0.88724-0.82752 0.38207 0.18244 0.39580-0.47192
   0  -7   2 3592.38 320.562   4 0.74366-0.80018-0.40501-0.15950-0.49674 0.57314
   0   7  -1 1740.59 268.337   6 0.88268-0.82219 0.33598 0.23506 0.43383-0.44352
   0  -7   1 1527.51 193.099   4 0.69885-0.75628-0.35513-0.21581-0.60204 0.61220
   0  -7   0 47.8621 41.5464   4 0.63075-0.68908-0.28869-0.28869-0.71261 0.65652
   0   7   0 43.9369 50.8434   6 0.87466-0.81341 0.28879 0.28879 0.47000-0.41324
   0   7   1 491.900 128.392   6 0.86341-0.80140 0.24118 0.34292 0.50384-0.38064
   0  -7  -1 354.108 92.9517   4 0.53540-0.59464-0.20514-0.37867-0.81734 0.69501
   0   7   2 16.2766 42.7640   6 0.84934-0.78656 0.19407 0.39656 0.53486-0.34522
   0  -7  -2-56.3211 46.5657   4 0.41675-0.47689-0.11004-0.48021-0.90084 0.71225
   0   7   3 633.590 148.774   6 0.83312-0.76957 0.14861 0.44855 0.56261-0.30653
   0   7   3 716.707 198.852   3 0.76625-0.70206 0.49285 0.10484-0.43736 0.69264
   0   7   4 924.935 170.729   6 0.81569-0.75138 0.10610 0.49759 0.58667-0.26414
   0   7   4 993.968 221.268   3 0.74842-0.68322 0.55744 0.04671-0.39673 0.71833
   0   7   5-27.9689 63.0697   3 0.72603-0.65982 0.61886-0.00826-0.35360 0.74152
   0   7   6 1916.99 339.974   3 0.69927-0.63205 0.67655-0.05949-0.30836 0.76260
   0   7   7 1486.76 309.777   3 0.66837-0.60014 0.73005-0.10653-0.26138 0.78195
   0   7   8 10161.6 849.638   3 0.63356-0.56431 0.77906-0.14908-0.21296 0.79985
   0   7   9 609.800 209.322   3 0.59503-0.52477 0.82335-0.18692-0.16338 0.81659
   0   7  10 142.522 115.501   3 0.55298-0.48171 0.86274-0.21985-0.11284 0.83238
   0   7  11-38.5752 107.501   3 0.50766-0.43538 0.89701-0.24766-0.06166 0.84752
   0   8 -10 23.1888 86.6055   6 0.80956-0.74721 0.66957-0.07478 0.06997-0.66952
   0   8  -9 554.662 214.719   6 0.82876-0.76564 0.64238-0.04107 0.11066-0.64377
   0   8  -8 1086.19 273.467   6 0.84530-0.78142 0.61330-0.00546 0.15087-0.61753
   0   8  -7 946.148 253.245   6 0.85918-0.79453 0.58241 0.03197 0.19050-0.59072
   0   8  -6 623.620 199.291   6 0.87038-0.80497 0.54981 0.07110 0.22944-0.56322
   0   8  -5 68.7031 61.5168   6 0.87887-0.81270 0.51564 0.11179 0.26755-0.53489
   0  -8   4-29.2190 88.7434   4 0.79091-0.85395-0.47512-0.15900-0.29315 0.49403
   0   8  -4 10.3789 65.3363   6 0.88466-0.81772 0.48009 0.15388 0.30466-0.50556
   0  -8   3 6526.42 485.406   4 0.77830-0.84224-0.45208-0.18847-0.37031 0.50495
   0   8  -3 6993.52 612.696   6 0.88777-0.82006 0.44339 0.19710 0.34057-0.47502
   0  -8   2 16854.4 783.581   4 0.75707-0.82192-0.42180-0.22519-0.45538 0.52377
   0   8  -2 17847.5 983.217   6 0.88824-0.81977 0.40586 0.24117 0.37504-0.44305
   0   8  -1 45623.4 1652.98   6 0.88620-0.81697 0.36790 0.28565 0.40779-0.40937
   0   8   0 23.7369 62.6884   6 0.88185-0.81185 0.33004 0.33004 0.43854-0.37367
   0   8   1 196.870 89.7038   6 0.87549-0.80473 0.29291 0.37370 0.46694-0.33563
   0   8   2 15.5485 50.1122   6 0.86756-0.79603 0.25729 0.41585 0.49267-0.29492
   0   8   2-43.6049 55.4939   3 0.77540-0.70349 0.44913 0.22471-0.46246 0.65945
   0   8   3 3546.24 375.369   6 0.85864-0.78634 0.22410 0.45557 0.51536-0.25117
   0   8   3 4783.03 546.874   3 0.76247-0.68955 0.50828 0.17202-0.42806 0.69137
   0   8   4 259.839 134.716   3 0.74560-0.67167 0.56608 0.12068-0.39094 0.72058
   0   8   5 701.681 226.006   3 0.72479-0.64984 0.62185 0.07137-0.35137 0.74734
   0   8   6 452.925 219.403   3 0.70006-0.62410 0.67502 0.02466-0.30963 0.77191
   0   8   7 1135.55 290.023   3 0.67151-0.59454 0.72510-0.01897-0.26596 0.79457
   0   8   8 1030.81 276.887   3 0.63924-0.56126 0.77172-0.05912-0.22060 0.81554
   0   8   9-18.1557 115.047   3 0.60334-0.52434 0.81454-0.09549-0.17377 0.83502
   0   9  -9 691.224 247.473   6 0.82875-0.75688 0.64239 0.04143 0.11065-0.63565
   0   9  -8 159.947 108.711   6 0.84426-0.77163 0.61534 0.07502 0.14815-0.60671
   0   9  -7 10.0900 78.6946   6 0.85734-0.78394 0.58698 0.10990 0.18481-0.57692
   0   9  -6-35.8809 48.7043   6 0.86803-0.79387 0.55749 0.14592 0.22050-0.54617
   0   9  -5 601.807 211.457   6 0.87637-0.80145 0.52707 0.18287 0.25508-0.51431
   0   9  -4 750.410 216.312   6 0.88244-0.80675 0.49595 0.22052 0.28840-0.48119
   0   9  -3 24.3257 71.1853   6 0.88633-0.80987 0.46442 0.25858 0.32027-0.44662
   0   9  -2 74.3353 85.1428   6 0.88816-0.81094 0.43284 0.29669 0.35047-0.41038
   0   9  -1 1356.61 275.460   6 0.88813-0.81015 0.40163 0.33443 0.37879-0.37225
   0   9   0 46.7239 61.5650   6 0.88648-0.80773 0.37130 0.37130 0.40495-0.33197
   0   9   1 47.4103 60.3774   6 0.88352-0.80400 0.34244 0.40668 0.42867-0.28925
   0   9   2 1340.88 252.685   6 0.87964-0.79937 0.31578 0.43987 0.44964-0.24379
   0   9   2 1475.78 318.738   3 0.77005-0.68940 0.47595 0.28051-0.44728 0.65232
   0   9   3 183.667 149.993   3 0.75705-0.67539 0.52858 0.23434-0.41544 0.68680
   0   9   4 520.871 204.972   3 0.74067-0.65799 0.58053 0.18885-0.38107 0.71875
   0   9   5 112.828 57.2111   3 0.72080-0.63712 0.63121 0.14463-0.34433 0.74834
   0   9   6 117.108 153.546   3 0.69743-0.61273 0.68008 0.10221-0.30542 0.77575
   0   9   7-125.412 178.278   3 0.67052-0.58482 0.72667 0.06208-0.26451 0.80117
   0  10  -7 820.156 286.460   6 0.85358-0.77143 0.59581 0.18358 0.17366-0.55766
   0  10  -6 242.540 153.798   6 0.86404-0.78113 0.56939 0.21654 0.20638-0.52394
   0  10  -5 1460.95 331.190   6 0.87245-0.78878 0.54252 0.24993 0.23778-0.48891
   0  10  -4-110.557 133.806   6 0.87891-0.79447 0.51547 0.28351 0.26773-0.45241
   0  10  -3 455.098 160.702   6 0.88355-0.79834 0.48855 0.31696 0.29604-0.41428
   0  10  -2 616.759 210.184   6 0.88653-0.80056 0.46213 0.34991 0.32251-0.37431
   0  10  -1 5752.17 597.426   6 0.88805-0.80131 0.43663 0.38194 0.34693-0.33229
   0  10   0 89.2861 84.0635   6 0.88834-0.80084 0.41255 0.41255 0.36904-0.28796
   0  10   1 141.638 109.725   3 0.77362-0.68525 0.45854 0.37408-0.45721 0.60397
   0  10   2 113.253 92.3648   3 0.76322-0.67384 0.50531 0.33377-0.42987 0.64295
   0  10   3 54.6019 82.8398   3 0.75000-0.65960 0.55241 0.29312-0.40005 0.67946
   0  10   4 82.1695 141.861   3 0.73379-0.64238 0.59929 0.25271-0.36786 0.71359
   0  10   5-77.1881 70.7746   3 0.71447-0.62205 0.64540 0.21305-0.33341 0.74546
   0  11  -5 200.684 96.4579   6 0.86686-0.77444 0.56111 0.31386 0.21624-0.45926
   0  11  -4-56.4602 89.0699   6 0.87372-0.78053 0.53779 0.34370 0.24313-0.41971
   0  11  -3 265.018 161.015   6 0.87900-0.78505 0.51501 0.37301 0.26823-0.37836
   0  11  -2 4675.77 581.655   6 0.88288-0.78816 0.49313 0.40142 0.29133-0.33502
   0  11  -1 1266.99 293.463   6 0.88553-0.79004 0.47256 0.42852 0.31221-0.28946
   0  11   0 608.198 213.364   3 0.77449-0.67839 0.45402 0.45476-0.45974 0.54822
   0  11   1-105.657 103.203   3 0.76580-0.66869 0.49475 0.42049-0.43623 0.59103
  -1  11   2 352.708 183.583   3 0.70984-0.78270 0.65531 0.24831-0.32561 0.54413
  -1  11   1 201.338 110.211   3 0.72447-0.79835 0.62261 0.27455-0.35081 0.50301
  -1  11   0 2433.45 440.504   3 0.73702-0.81190 0.59067 0.30003-0.37398 0.45986
  -1  11  -1 380.525 180.570   3 0.74760-0.82350 0.55998 0.32427-0.39504 0.41459
  -1  11  -2 1885.26 382.874   3 0.75636-0.83328 0.53103 0.34676-0.41389 0.36711
  -1  11  -3-177.031 183.713   3 0.76346-0.84138 0.50435 0.36698-0.43045 0.31735
  -1  11  -3-26.8498 54.7767   6 0.83199-0.90903 0.63719 0.23270 0.11808-0.23018
  -1  11  -4 388.102 173.723   6 0.82399-0.90179 0.64969 0.21367 0.10005-0.27860
  -1  11  -4 383.393 165.045   3 0.76906-0.84799 0.48051 0.38436-0.44463 0.26522
  -1  11  -5-44.7828 55.1065   6 0.81438-0.89295 0.66326 0.19357 0.07972-0.32470
  -1  11  -6 349.801 155.701   6 0.80313-0.88246 0.67753 0.17277 0.05738-0.36880
  -1  10   5 1518.73 363.535   3 0.65822-0.73679 0.74539 0.09498-0.24684 0.65629
  -1  10   4 179.242 143.362   3 0.68049-0.76006 0.71040 0.12352-0.27927 0.62239
  -1  10   3 106.550 108.385   3 0.70028-0.78087 0.67459 0.15287-0.30998 0.58678
  -1  10   2 572.275 238.220   3 0.71765-0.79925 0.63838 0.18262-0.33885 0.54933
  -1  10   1 947.955 275.798   3 0.73267-0.81528 0.60221 0.21234-0.36577 0.50992
  -1  10   0 97.5542 66.2997   3 0.74544-0.82907 0.56657 0.24151-0.39061 0.46844
  -1  10  -1 528.308 202.322   3 0.75609-0.84072 0.53200 0.26963-0.41327 0.42477
  -1  10  -1 795.709 201.092   6 0.85227-0.93653 0.59875 0.20169 0.16990-0.15723
  -1  10  -2 1660.10 342.565   3 0.76476-0.85041 0.49908 0.29610-0.43364 0.37882
  -1  10  -2 2173.42 359.588   6 0.84672-0.93174 0.61047 0.18344 0.15462-0.20839
  -1  10  -3 6872.91 680.164   3 0.77164-0.85830 0.46840 0.32031-0.45162 0.33048
  -1  10  -3 6197.69 631.990   6 0.83962-0.92540 0.62404 0.16333 0.13637-0.25658
  -1  10  -4 354.819 146.782   6 0.83093-0.91749 0.63890 0.14195 0.11564-0.30229
  -1  10  -4 377.739 149.750   3 0.77693-0.86460 0.44063 0.34162-0.46713 0.27967
  -1  10  -5-57.9825 74.1823   6 0.82063-0.90795 0.65459 0.11973 0.09280-0.34589
   1 -10   6 122.740 88.5773   4 0.78616-0.69307-0.46560-0.30334-0.32668 0.64637
  -1  10  -6 52.7278 99.7705   6 0.80865-0.89673 0.67073 0.09706 0.06815-0.38769
  -1  10  -7 2043.58 414.049   6 0.79493-0.88378 0.68700 0.07426 0.04194-0.42791
  -1   9   7 842.762 283.139   3 0.60614-0.69141 0.81149-0.04082-0.17731 0.71135
  -1   9   6 1696.45 369.738   3 0.63475-0.72104 0.77754-0.01332-0.21456 0.68228
  -1   9   5-224.435 185.888   3 0.66076-0.74806 0.74164 0.01612-0.25045 0.65184
  -1   9   4 94.3455 86.2231   3 0.68417-0.77248 0.70412 0.04718-0.28483 0.61990
  -1   9   3 170.393 94.7695   3 0.70496-0.79429 0.66533 0.07951-0.31756 0.58632
  -1   9   2 152.527 59.0989   3 0.72317-0.81350 0.62570 0.11269-0.34850 0.55093
  -1   9   1 335.188 166.678   3 0.73883-0.83017 0.58570 0.14623-0.37747 0.51358
  -1   9   0 256.048 153.880   3 0.75201-0.84437 0.54587 0.17960-0.40434 0.47412
  -1   9   0 163.566 80.0444   6 0.86325-0.95549 0.57163 0.15283 0.20368-0.13267
   1  -9   0 98.3448 57.1547   4 0.57708-0.48109-0.24067-0.48440-0.77682 0.70705
  -1   9  -1 648.094 208.003   3 0.76284-0.85621 0.50682 0.21219-0.42895 0.43241
   1  -9   1 463.649 138.045   4 0.63070-0.53380-0.28864-0.42999-0.71267 0.70915
  -1   9  -1 520.806 159.316   6 0.85854-0.95154 0.58402 0.13390 0.18849-0.18393
   1  -9   2 11217.3 732.608   4 0.67617-0.57837-0.33209-0.38010-0.64366 0.70638
  -1   9  -2 11603.4 799.246   6 0.85229-0.94607 0.59870 0.11270 0.16996-0.23184
  -1   9  -2 11874.8 850.993   3 0.77147-0.86586 0.46922 0.24334-0.45116 0.38830
  -1   9  -3 812.356 215.575   6 0.84448-0.93901 0.61491 0.08996 0.14872-0.27704
   1  -9   3 631.507 167.783   4 0.71326-0.61455-0.37041-0.33535-0.57219 0.70116
  -1   9  -3 743.270 201.332   3 0.77811-0.87350 0.43378 0.27232-0.47085 0.34167
   1  -9   4 778.501 202.650   4 0.74243-0.64282-0.40353-0.29580-0.50022 0.69544
  -1   9  -4 1011.88 241.411   6 0.83503-0.93034 0.63210 0.06624 0.12524-0.32000
  -1   9  -5-8.62428 57.3460   6 0.82391-0.91998 0.64980 0.04201 0.09989-0.36109
   1  -9   5 38.1054 36.0588   4 0.76450-0.66398-0.43173-0.26115-0.42911 0.69057
   1  -9   6 1963.80 341.556   4 0.78039-0.67896-0.45549-0.23096-0.35970 0.68741
  -1   9  -6 1842.14 353.236   6 0.81105-0.90788 0.66765 0.01763 0.07295-0.40059
   1  -9   7 30.8111 83.0249   4 0.79100-0.68866-0.47532-0.20470-0.29242 0.68637
  -1   9  -7 131.597 134.428   6 0.79639-0.89399 0.68536-0.00661 0.04464-0.43873
  -1   9  -8 417.899 190.636   6 0.77989-0.87826 0.70268-0.03046 0.01515-0.47568
  -1   9  -9-20.1201 76.9986   6 0.76150-0.86063 0.71940-0.05371-0.01537-0.51159
  -1   8   9 1345.26 339.219   3 0.53338-0.62537 0.87850-0.17753-0.09032 0.74897
  -1   8   8 909.451 265.690   3 0.56866-0.66166 0.84901-0.15450-0.13130 0.72363
  -1   8   7 3545.15 527.458   3 0.60153-0.69554 0.81649-0.12844-0.17149 0.69749
  -1   8   6 71.9178 113.567   3 0.63181-0.72684 0.78126-0.09967-0.21064 0.67032
  -1   8   5 194.106 146.056   3 0.65947-0.75550 0.74356-0.06842-0.24861 0.64196
  -1   8   4 152.849 78.1817   3 0.68444-0.78148 0.70365-0.03497-0.28524 0.61227
   1  -8  -4 68.6995 29.2040   4 0.22170-0.12101 0.03272-0.70105-0.96641 0.63966
  -1   8   3 729.893 218.090   3 0.70667-0.80473 0.66187 0.00035-0.32036 0.58107
   1  -8  -3 689.699 179.263   4 0.29651-0.19491-0.02038-0.64151-0.94998 0.68948
  -1   8   2 91.7591 66.9772   3 0.72612-0.82519 0.61864 0.03713-0.35377 0.54815
   1  -8  -2 164.482 91.1249   4 0.37509-0.27258-0.07832-0.57714-0.92135 0.72710
   1  -8  -1 2415.68 305.492   4 0.45336-0.34994-0.13857-0.51044-0.87935 0.75134
  -1   8   1 2275.68 281.730   6 0.87149-0.97172 0.54595 0.10253 0.23387-0.10453
  -1   8   1 2394.93 366.256   3 0.74279-0.84287 0.57443 0.07488-0.38526 0.51333
  -1   8   0-44.6300 92.6920   3 0.75670-0.85779 0.52984 0.11301-0.41464 0.47638
  -1   8   0 38.2533 47.7585   6 0.86761-0.96860 0.55881 0.08314 0.21896-0.15606
   1  -8   0 0.84969 41.3591   4 0.52710-0.42278-0.19822-0.44436-0.82461 0.76285
  -1   8  -1 5.27215 45.6771   6 0.86218-0.96394 0.57456 0.06086 0.20013-0.20367
   1  -8   1-58.5717 40.6789   4 0.59291-0.48768-0.25454-0.38161-0.75944 0.76393
  -1   8  -1-41.3907 58.0879   3 0.76793-0.87004 0.48555 0.15085-0.44168 0.43710
  -1   8  -2 452.656 139.793   6 0.85516-0.95768 0.59218 0.03670 0.17827-0.24825
   1  -8   2 604.381 168.263   4 0.64879-0.54265-0.30556-0.32415-0.68715 0.75788
  -1   8  -2 407.837 142.678   3 0.77663-0.87975 0.44232 0.18761-0.46621 0.39530
  -1   8  -3 247.924 99.4664   6 0.84648-0.94977 0.61094 0.01142 0.15400-0.29043
   1  -8   3 305.313 122.785   4 0.69419-0.58715-0.35030-0.27297-0.61109 0.74807
  -1   8  -4 35.9675 75.1959   6 0.83610-0.94015 0.63027-0.01444 0.12778-0.33065
   1  -8   4 171.048 84.8374   4 0.72966-0.62171-0.38859-0.22825-0.53402 0.73725
   1  -8   5 438.263 146.513   4 0.75631-0.64746-0.42081-0.18959-0.45790 0.72737
  -1   8  -5 456.616 152.064   6 0.82394-0.92876 0.64975-0.04045 0.09996-0.36927
   1  -8   6 751.740 209.911   4 0.77545-0.66569-0.44761-0.15636-0.38387 0.71959
  -1   8  -6 597.031 192.897   6 0.80998-0.91556 0.66903-0.06626 0.07080-0.40655
  -1   8  -7 97.3027 79.2628   6 0.79416-0.90051 0.68786-0.09162 0.04051-0.44270
   1  -8   7 97.0153 84.3400   4 0.78830-0.67763-0.46971-0.12783-0.31252 0.71448
  -1   8  -8 61.5169 86.3536   6 0.77645-0.88356 0.70601-0.11629 0.00926-0.47789
   1  -8   8-35.0723 81.0852   2 0.69117-0.58253 0.26210-0.85215 0.72197-0.25241
   1  -8   9 35.6383 58.9183   2 0.70305-0.59348 0.27465-0.85814 0.70808-0.17198
   1  -8  10 726.306 251.094   2 0.70988-0.59938 0.28198-0.85891 0.69973-0.09710
   1  -8  11 8083.50 842.409   2 0.71279-0.60136 0.28512-0.85550 0.69608-0.02692
  -1   7  10 200.379 125.794   3 0.47947-0.57918 0.91475-0.28994-0.03125 0.74818
  -1   7   9-159.744 167.769   3 0.51916-0.61989 0.88902-0.27067-0.07436 0.72497
  -1   7   8 62.8709 91.9777   3 0.55631-0.65805 0.85991-0.24802-0.11673 0.70101
  -1   7   7 1037.54 270.329   3 0.59116-0.69391 0.82733-0.22189-0.15858 0.67654
  -1   7   6 1794.55 321.263   3 0.62354-0.72730 0.79146-0.19248-0.19971 0.65135
  -1   7   5 29.6327 56.6520   3 0.65332-0.75809 0.75248-0.15995-0.23995 0.62526
  -1   7   4 342.399 145.006   3 0.68038-0.78617 0.71057-0.12451-0.27911 0.59810
  -1   7   3-72.9756 122.282   3 0.70462-0.81142 0.66601-0.08640-0.31701 0.56967
   1  -7  -3 36.2219 57.6495   4 0.20458-0.09464 0.04462-0.62403-0.96880 0.71631
  -1   7   2 6493.59 421.745   6 0.87706-0.98527 0.52407 0.04843 0.25838-0.07071
  -1   7   2 7027.98 611.869   3 0.72591-0.83372 0.61914-0.04599-0.35340 0.53974
   1  -7  -2 5932.24 467.149   4 0.29449-0.18365-0.01893-0.55405-0.95056 0.76431
  -1   7   1 229.330 104.453   3 0.74416-0.85298 0.57041-0.00372-0.38801 0.50803
   1  -7  -1 237.683 93.3360   4 0.38669-0.27494-0.08708-0.47946-0.91603 0.79604
  -1   7   1 312.342 87.3829   6 0.87399-0.98297 0.53673 0.02923 0.24433-0.12309
  -1   7   0 7.69388 37.4371   6 0.86932-0.97906 0.55333 0.00611 0.22536-0.17057
  -1   7   0 33.0751 82.4307   3 0.75929-0.86913 0.52042 0.03981-0.42056 0.47426
   1  -7   0 47.3936 40.8860   4 0.47528-0.36262-0.15598-0.40412-0.86479 0.81104
  -1   7  -1-24.0444 32.2767   6 0.86300-0.97351 0.57231-0.01941 0.20285-0.21450
   1  -7   1 122.067 63.4043   4 0.55501-0.44145-0.22169-0.33197-0.79915 0.81165
  -1   7  -1 127.349 65.4371   3 0.77133-0.88217 0.46992 0.08386-0.45076 0.43813
  -1   7  -2 69056.0 2018.31   6 0.85496-0.96623 0.59264-0.04626 0.17769-0.25578
   1  -7   2 69412.5 1988.64   4 0.62261-0.50814-0.28121-0.26602-0.72338 0.80213
   1  -7   3 14041.4 785.049   4 0.67705-0.56167-0.33297-0.20783-0.64215 0.78714
  -1   7  -3 13295.4 794.297   6 0.84515-0.95719 0.61359-0.07374 0.15048-0.29501
   1  -7   4 7346.13 580.496   4 0.71901-0.60272-0.37667-0.15769-0.55939 0.77063
  -1   7  -4 7213.53 599.612   6 0.83352-0.94633 0.63465-0.10133 0.12166-0.33264
   1  -7   5 197.693 124.383   4 0.75007-0.63288-0.41288-0.11504-0.47779 0.75527
   1  -7   5 48.9387 73.8798   2 0.68903-0.57450 0.25986-0.78703 0.72440-0.44630
  -1   7  -5 100.650 74.3395   6 0.82004-0.93361 0.65543-0.12864 0.09155-0.36897
   1  -7   6 589.721 170.344   2 0.71860-0.60315 0.29145-0.81207 0.68866-0.34402
   1  -7   6 564.190 169.811   4 0.77207-0.65397-0.44251-0.07898-0.39889 0.74262
  -1   7  -6 810.630 209.400   6 0.80469-0.91902 0.67564-0.15538 0.06039-0.40425
   1  -7   7 43.7757 45.8979   4 0.78668-0.66767-0.46656-0.04849-0.32340 0.73338
   1  -7   7 161.171 95.9140   2 0.73727-0.62088 0.31227-0.82632 0.66325-0.25209
  -1   7  -7 236.606 129.998   6 0.78744-0.90254 0.69507-0.18134 0.02836-0.43866
   1  -7   8 1350.03 273.714   2 0.74866-0.63134 0.32536-0.83286 0.64646-0.16876
  -1   7  -8 1275.71 308.398   6 0.76827-0.88413 0.71353-0.20633-0.00439-0.47235
   1  -7   9 932.505 251.406   2 0.75494-0.63669 0.33273-0.83367 0.63673-0.09250
   1  -7  10 305.353 145.856   2 0.75745-0.63827 0.33570-0.83008 0.63274-0.02198
   1  -7  11 255.117 173.469   2 0.75700-0.63690 0.33517-0.82300 0.63346 0.04384
   1  -7  12 263.330 167.152   2 0.75411-0.63308 0.33175-0.81303 0.63803 0.10581
  -1   6  11 784.647 243.339   3 0.41140-0.51883 0.94815-0.39950 0.03837 0.73683
  -1   6  10-125.188 132.885   3 0.45522-0.56367 0.92809-0.38589-0.00588 0.71476
  -1   6   9 240.049 160.713   3 0.49690-0.60636 0.90408-0.36834-0.04993 0.69249
  -1   6   8 1009.91 259.895   3 0.53619-0.64667 0.87633-0.34705-0.09352 0.66976
  -1   6   7 21318.1 1194.98   3 0.57332-0.68480 0.84472-0.32190-0.13687 0.64678
  -1   6   6 1301.23 274.560   3 0.60817-0.72067 0.80924-0.29288-0.17989 0.62348
  -1   6   5 4168.29 478.559   3 0.64058-0.75409 0.76994-0.26004-0.22242 0.59969
  -1   6   4 238.942 111.965   3 0.67039-0.78491 0.72689-0.22344-0.26431 0.57526
  -1   6   3 1226.28 245.082   3 0.69738-0.81291 0.68017-0.18318-0.30535 0.54997
  -1   6   3 1068.30 135.640   6 0.87949-0.99569 0.51258-0.01606 0.27084-0.02484
   1  -6  -2 640.229 150.278   4 0.20882-0.08965 0.04168-0.53217-0.96825 0.79002
  -1   6   2 779.781 174.774   3 0.72133-0.83788 0.62999-0.13945-0.34526 0.52356
  -1   6   2 711.466 119.975   6 0.87740-0.99437 0.52254-0.03256 0.26005-0.08049
  -1   6   1-19.3239 28.0504   6 0.87343-0.99116 0.53887-0.05541 0.24192-0.12880
   1  -6  -1-41.0882 47.6675   4 0.31618-0.19610-0.03467-0.44939-0.94397 0.83198
  -1   6   1 66.9694 55.3210   3 0.74202-0.85957 0.57667-0.09259-0.38373 0.49571
  -1   6   0 739.762 144.286   6 0.86767-0.98616 0.55862-0.08169 0.21918-0.17250
   1  -6   0 722.034 152.968   4 0.42183-0.30084-0.11397-0.36365-0.89805 0.85232
  -1   6   0 636.784 149.733   3 0.75922-0.87778 0.52071-0.04309-0.42038 0.46603
  -1   6  -1 123.951 82.1821   3 0.77277-0.89235 0.46286 0.00830-0.45478 0.43411
   1  -6   1 140.554 70.2438   4 0.51783-0.39593-0.19054-0.28064-0.83244 0.85295
  -1   6  -1 209.494 77.2623   6 0.86007-0.97933 0.58013-0.10973 0.19331-0.21307
  -1   6  -2 147.521 68.6539   6 0.85061-0.97063 0.60238-0.13851 0.16522-0.25142
   1  -6   2 220.675 83.6201   4 0.59884-0.47604-0.25979-0.20495-0.75262 0.83938
  -1   6  -3 7792.84 560.046   6 0.83926-0.96005 0.62469-0.16735 0.13549-0.28813
   1  -6   3 7508.09 537.443   4 0.66311-0.53940-0.31928-0.13903-0.66522 0.81822
   1  -6   4 949.455 175.223   2 0.73229-0.61002 0.30664-0.75782 0.67027-0.45057
   1  -6   4 925.620 190.275   4 0.71160-0.58698-0.36861-0.08326-0.57580 0.79505
  -1   6  -4 1047.53 198.942   6 0.82602-0.94757 0.64662-0.19581 0.10453-0.32361
   1  -6   5 371.228 121.689   2 0.76282-0.63962 0.34213-0.78675 0.62400-0.33776
  -1   6  -5 538.972 155.906   6 0.81088-0.93320 0.66787-0.22359 0.07261-0.35814
   1  -6   5 423.876 139.816   4 0.74665-0.62113-0.40865-0.03679-0.48807 0.77357
  -1   6  -6 565.240 167.115   6 0.79385-0.91693 0.68820-0.25045 0.03994-0.39191
   1  -6   6 394.348 135.420   4 0.77086-0.64443-0.44074 0.00173-0.40400 0.75574
   1  -6   6 426.914 139.371   2 0.78057-0.65645 0.36406-0.80213 0.59287-0.24011
   1  -6   7 3605.30 422.980   2 0.79065-0.66559 0.37705-0.80856 0.57345-0.15415
  -1   6  -7 4136.59 483.414   6 0.77491-0.89876 0.70746-0.27623 0.00667-0.42507
   1  -6   7 3941.86 455.100   4 0.78653-0.65919-0.46629 0.03372-0.32434 0.74233
   1  -6   8 1021.60 192.342   5 0.46211-0.33345-0.76948 0.34196-0.39959 0.88881
   1  -6   8 1074.00 239.922   2 0.79577-0.66978 0.38383-0.80877 0.56300-0.07717
   1  -6   9 108.493 137.386   2 0.79744-0.67052 0.38607-0.80446 0.55950-0.00713
   1  -6  10 728.498 224.710   2 0.79652-0.66867 0.38483-0.79667 0.56143 0.05747
   1  -6  11 497.817 194.599   2 0.79351-0.66473 0.38082-0.78610 0.56767 0.11777
   1  -6  12 2804.21 479.563   2 0.78868-0.65898 0.37448-0.77320 0.57735 0.17462
  -1   5  12 592.426 214.116   3 0.32916-0.44432 0.97356-0.50107 0.11650 0.71698
  -1   5  11 436.031 198.833   3 0.37604-0.49221 0.96090-0.49487 0.07269 0.69447
  -1   5  10 1783.27 344.250   3 0.42098-0.53817 0.94418-0.48460 0.02886 0.67198
  -1   5   9 56.3381 82.8773   3 0.46460-0.58280 0.92313-0.47001-0.01562 0.65013
  -1   5   8 268.111 136.481   3 0.50609-0.62530 0.89806-0.45140-0.05994 0.62814
  -1   5   7 545.723 172.247   3 0.54546-0.66568 0.86897-0.42877-0.10413 0.60600
  -1   5   6 9190.62 700.014   3 0.58298-0.70422 0.83549-0.40175-0.14855 0.58410
  -1   5   5 1922.56 303.668   3 0.61844-0.74068 0.79752-0.37023-0.19307 0.56229
  -1   5   4 4355.42 441.304   3 0.65159-0.77485 0.75492-0.33408-0.23754 0.54045
  -1   5   4 4278.07 202.262   6 0.87249-0.99668 0.54237-0.12184 0.23796 0.06638
  -1   5   3 619.299 165.387   3 0.68219-0.80645 0.70752-0.29314-0.28183 0.51841
  -1   5   3 541.580 80.0056   6 0.87496-0.99991 0.53291-0.11890 0.24861-0.01071
  -1   5   2 916.342 193.544   3 0.70989-0.83517 0.65520-0.24728-0.32570 0.49595
  -1   5   2 1036.69 125.280   6 0.87248-0.99820 0.54239-0.13492 0.23793-0.06647
  -1   5   1 7224.09 386.316   6 0.86738-0.99386 0.55952-0.15858 0.21811-0.11310
   1  -5  -1 6616.85 441.346   4 0.24130-0.11289 0.01899-0.42056-0.96305 0.85909
  -1   5   1 7789.58 521.065   3 0.73430-0.86059 0.59795-0.19649-0.36882 0.47275
  -1   5   0 18209.2 814.042   3 0.75496-0.88226 0.53593-0.14092-0.41076 0.44837
  -1   5   0 18204.6 698.597   6 0.86009-0.98734 0.58007-0.18565 0.19338-0.15481
   1  -5   0 17245.0 747.539   4 0.36698-0.23766-0.07223-0.32291-0.92489 0.88717
  -1   5  -1 13339.4 625.522   6 0.85077-0.97878 0.60202-0.21414 0.16567-0.19354
  -1   5  -1 13546.9 659.642   3 0.77139-0.89971 0.46960-0.08106-0.45094 0.42222
   1  -5   1 12319.7 631.366   4 0.48243-0.35221-0.16172-0.22698-0.85973 0.88826
   1  -5   2 64611.3 1493.27   2 0.71373-0.58465 0.28614-0.66788 0.69490-0.60013
  -1   5  -2 60424.0 1681.98   6 0.83947-0.96824 0.62431-0.24295 0.13601-0.23032
   1  -5   2 60978.2 1701.05   4 0.57903-0.44790-0.24237-0.13990-0.77474 0.86951
   1  -5   3 33804.0 1196.79   4 0.65390-0.52186-0.31043-0.06540-0.67951 0.84052
   1  -5   3 35621.0 1072.61   2 0.77580-0.64579 0.35805-0.73323 0.60161-0.44031
  -1   5  -3 33888.5 1202.12   6 0.82624-0.95578 0.64629-0.27146 0.10502-0.26577
  -1   5  -4 5252.75 450.744   6 0.81110-0.94141 0.66758-0.29928 0.07306-0.30025
   1  -5   4 5031.31 437.785   4 0.70865-0.57571-0.36546-0.00393-0.58207 0.80934
   1  -5   4 5555.93 410.951   2 0.80564-0.67470 0.39729-0.76591 0.54158-0.31374
   1  -5   5 2018.41 285.586   4 0.74687-0.61302-0.40892 0.04596-0.48742 0.78093
   1  -5   5 1872.16 253.329   2 0.82075-0.68888 0.41911-0.78118 0.50481-0.21044
  -1   5  -5 2430.25 318.750   6 0.79409-0.92516 0.68793-0.32616 0.04039-0.33402
   1  -5   6 752.601 176.028   2 0.82831-0.69552 0.43075-0.78626 0.48409-0.12318
  -1   5  -6 747.918 173.172   6 0.77522-0.90705 0.70717-0.35193 0.00718-0.36726
   1  -5   6 815.815 199.423   4 0.77230-0.63754-0.44286 0.08633-0.39789 0.75765
   1  -5   7 3646.87 406.602   2 0.83155-0.69782 0.43590-0.78486 0.47463-0.04719
   1  -5   7 3137.65 334.708   5 0.41082-0.27472-0.78183 0.43053-0.44717 0.87746
   1  -5   7 3949.64 444.288   4 0.78806-0.65239-0.46923 0.11914-0.31419 0.74020
   1  -5   8 1678.96 298.494   2 0.83199-0.69733 0.43662-0.77902 0.47330 0.02067
   1  -5   8 1476.10 239.356   5 0.51710-0.37994-0.75118 0.40598-0.34381 0.84058
   1  -5   9 74.7646 70.0645   5 0.60455-0.46634-0.70881 0.36971-0.24258 0.80583
   1  -5   9 7.65190 57.3471   2 0.83041-0.69483 0.43408-0.76992 0.47799 0.08251
   1  -5  10 4700.35 559.425   2 0.82720-0.69069 0.42900-0.75828 0.48724 0.13979
   1  -5  11 5985.63 671.727   2 0.82256-0.68512 0.42184-0.74457 0.50002 0.19355
   1  -5  12 131.093 133.789   2 0.81656-0.67819 0.41289-0.72905 0.51557 0.24453
   1  -5  13 989.896 297.183   2 0.80922-0.66992 0.40231-0.71192 0.53334 0.29329
  -1   4  12 216.188 98.6207   3 0.28130-0.40519 0.98191-0.59204 0.15939 0.66605
  -1   4  11 461.808 171.332   3 0.32914-0.45405 0.97357-0.59015 0.11652 0.64260
  -1   4  10-8.04754 83.7049   3 0.37487-0.50079 0.96128-0.58432 0.07381 0.61899
  -1   4   9 2114.55 341.031   3 0.41919-0.54613 0.94494-0.57444 0.03064 0.59583
  -1   4   8-45.9556 90.4274   3 0.46249-0.59043 0.92427-0.56022-0.01341 0.57356
  -1   4   8 58.1067 59.3709   2 0.85423-0.98269 0.47682-0.11207 0.39286 0.16956
  -1   4   7 47296.5 1712.43   3 0.50404-0.63300 0.89943-0.54184-0.05770 0.55153
  -1   4   6 9413.16 666.548   3 0.54387-0.67384 0.87026-0.51913-0.10230 0.52980
  -1   4   5 15051.9 821.837   3 0.58227-0.71325 0.83619-0.49152-0.14768 0.50886
  -1   4   4 301.824 90.3169   3 0.61901-0.75100 0.79685-0.45864-0.19381 0.48866
  -1   4   3 8579.01 278.731   6 0.84155-0.97524 0.62050-0.28900 0.14121 0.08858
  -1   4   3 8554.98 268.097   2 0.85694-0.99004 0.48257-0.15060 0.38028-0.15052
  -1   4   2 8893.99 533.970   3 0.68639-0.82040 0.70024-0.37494-0.28822 0.45043
  -1   4   2 8405.92 320.068   6 0.84930-0.98376 0.60516-0.28019 0.16160 0.00175
  -1   4   1 56364.5 1525.57   3 0.71619-0.85122 0.64163-0.32278-0.33635 0.43223
  -1   4   1 52154.3 1225.94   6 0.84617-0.98140 0.61157-0.29313 0.15317-0.05626
  -1   4   0 7920.82 390.051   6 0.83869-0.97469 0.62571-0.31380 0.13409-0.10363
  -1   4   0 8274.60 471.093   3 0.74253-0.87857 0.57519-0.26280-0.38475 0.41431
   1  -4   0 7564.80 446.748   4 0.31094-0.17329-0.03085-0.28180-0.94564 0.91593
   1  -4   1 30641.4 1028.30   4 0.45037-0.31181-0.13622-0.17000-0.88123 0.91777
   1  -4   1 35257.5 832.742   2 0.74838-0.61156 0.32503-0.63077 0.64689-0.61052
  -1   4  -1 34023.7 1029.78   3 0.76444-0.90150 0.50037-0.19444-0.43286 0.39610
  -1   4  -1 32086.3 987.849   6 0.82836-0.96512 0.64301-0.33763 0.10977-0.14574
  -1   4  -2 23886.3 860.078   6 0.81570-0.95322 0.66147-0.36263 0.08244-0.18486
   1  -4   2 21996.7 861.025   4 0.56533-0.42586-0.23052-0.06926-0.78897 0.89175
   1  -4   2 24479.2 741.356   2 0.82190-0.68415 0.42084-0.72003 0.50178-0.39887
   1  -4   3-59.3937 50.7200   4 0.65136-0.51099-0.30801 0.01466-0.68333 0.85236
  -1   4  -3-1.90268 40.3985   6 0.80096-0.93925 0.68010-0.38778 0.05323-0.22209
   1  -4   3-13.7042 31.3044   2 0.84619-0.70752 0.46111-0.75374 0.42578-0.25634
   1  -4   4 4987.37 371.792   2 0.85554-0.71593 0.47956-0.76563 0.38691-0.15094
   1  -4   4 4439.71 393.452   4 0.71148-0.57020-0.36849 0.08158-0.57605 0.81133
  -1   4  -4 4685.34 399.977   6 0.78428-0.92333 0.69832-0.41253 0.02277-0.25807
   1  -4   5 316.988 111.539   2 0.85913-0.71859 0.48745-0.76696 0.36936-0.06686
   1  -4   5 337.933 112.946   4 0.75141-0.60922-0.41455 0.13408-0.47366 0.77518
  -1   4  -5 502.212 134.028   6 0.76571-0.90553 0.71579-0.43653-0.00858-0.29316
   1  -4   6-16.0704 34.9352   2 0.85996-0.71849 0.48937-0.76233 0.36500 0.00404
   1  -4   6 17.0923 59.4265   4 0.77657-0.63348-0.44935 0.17531-0.37865 0.74642
   1  -4   6-25.4204 21.1990   1-0.17908 0.32076 0.54240-0.81672 0.85438-0.48659
   1  -4   6-49.9349 50.8915   5 0.37203-0.22850-0.78847 0.51341-0.48061 0.85198
   1  -4   7 22.8166 61.0721   2 0.85914-0.71675 0.48748-0.75388 0.36929 0.06628
   1  -4   7-23.5667 52.5519   5 0.48471-0.34012-0.76264 0.49367-0.37731 0.81516
   1  -4   7 18.1381 77.9083   4 0.79113-0.64713-0.47561 0.20800-0.29134 0.72535
   1  -4   8 824.935 182.238   5 0.57636-0.43071-0.72451 0.46164-0.27714 0.78147
   1  -4   8 690.468 191.021   2 0.85709-0.71377 0.48290-0.74274 0.37955 0.12256
   1  -4   9 653.408 159.887   5 0.64985-0.50314-0.67861 0.42185-0.18238 0.75318
   1  -4   9 781.686 235.691   2 0.85396-0.70971 0.47626-0.72954 0.39409 0.17455
   1  -4  10 3970.82 502.919   2 0.84978-0.70460 0.46791-0.71463 0.41180 0.22337
   1  -4  10 2922.66 362.907   5 0.70825-0.56048-0.62792 0.37726-0.09366 0.73094
   1  -4  11 209.125 101.448   2 0.84454-0.69842 0.45807-0.69824 0.43191 0.26979
   1  -4  12 3097.25 498.482   2 0.83817-0.69113 0.44689-0.68050 0.45390 0.31434
   1  -4  13 160.403 104.238   2 0.83062-0.68265 0.43442-0.66147 0.47737 0.35740
  -1   3  12-4.83933 81.0129   3 0.22145-0.35409 0.98641-0.67915 0.21062 0.60677
  -1   3  11 123.450 91.4849   3 0.26817-0.40181 0.98345-0.68265 0.17085 0.58023
  -1   3  11 75.7478 47.0060   2 0.82559-0.95992 0.42649-0.12462 0.49176 0.26213
  -1   3  10 1050.38 257.911   3 0.31421-0.44887 0.97665-0.68230 0.13008 0.55467
  -1   3  10 946.842 209.909   2 0.83442-0.96968 0.44059-0.14527 0.46589 0.22147
  -1   3   9 937.640 217.816   3 0.35833-0.49400 0.96623-0.67835 0.08946 0.52896
  -1   3   9 779.754 180.377   2 0.84173-0.97792 0.45305-0.16429 0.44191 0.17892
  -1   3   8 1332.89 253.902   3 0.40154-0.53823 0.95200-0.67057 0.04805 0.50405
  -1   3   8 1264.40 210.570   2 0.84754-0.98466 0.46363-0.18143 0.42064 0.13365
  -1   3   7 237.906 121.166   3 0.44355-0.58125 0.93392-0.65895 0.00610 0.47968
  -1   3   7 67.9659 55.2164   2 0.85179-0.98985 0.47186-0.19622 0.40348 0.08428
  -1   3   6 5451.84 366.731   2 0.85421-0.99319 0.47678-0.20769 0.39296 0.02826
  -1   3   6 5262.35 463.834   3 0.48497-0.62368 0.91148-0.64297-0.03711 0.45657
  -1   3   5 4971.49 309.196   2 0.85392-0.99383 0.47618-0.21364 0.39426-0.03957
  -1   3   5 4915.42 424.721   3 0.52507-0.66479 0.88474-0.62268-0.08096 0.43410
  -1   3   4-43.5995 78.2955   3 0.56414-0.70487 0.85308-0.59748-0.12594 0.41275
  -1   3   4 38.3625 30.0523   2 0.84775-0.98859 0.46403-0.20805 0.41982-0.13167
  -1   3   3 18436.1 481.612   2 0.81910-0.96086 0.41663-0.16722 0.50912-0.28749
  -1   3   3 18708.0 792.084   3 0.60242-0.74416 0.81553-0.56639-0.17262 0.39311
   1  -3  -2 12055.5 329.218   6 0.71635-0.57314-0.07739-0.16506 0.67038-0.82562
  -1   3   2 15007.4 639.351   3 0.63972-0.78247 0.77109-0.52840-0.22125 0.37542
   1  -3  -1 45384.9 990.035   6 0.87747-0.73349 0.30330-0.53922 0.45917-0.54797
  -1   3   1 44055.1 984.749   6 0.77003-0.91401 0.71195-0.47602-0.00149 0.09028
  -1   3   1 45605.6 1240.05   3 0.67581-0.81958 0.71816-0.48194-0.27229 0.36014
  -1   3   0 30542.2 810.969   6 0.77944-0.92418 0.70313-0.47373 0.01437 0.00799
   1  -3   0 29585.8 618.610   2 0.79511-0.65055 0.38295-0.61270 0.56437-0.58639
   1  -3   0 29342.5 912.742   4 0.25402-0.10804 0.01001-0.24018-0.96052 0.93883
  -1   3  -1 15187.0 571.356   6 0.77623-0.92174 0.70621-0.48335 0.00889-0.05297
   1  -3   1 14554.1 610.335   4 0.42404-0.27714-0.11567-0.10806-0.89683 0.94138
  -1   3  -1 15715.0 570.643   3 0.74196-0.88774 0.57685-0.35353-0.38361 0.33881
  -1   3  -2 154.830 46.7820   3 0.76891-0.91571 0.48117-0.26431-0.44425 0.33313
   1  -3   2 101.541 31.7846   4 0.56085-0.41305-0.22667 0.00937-0.79344 0.90424
  -1   3  -2 155.682 60.1123   6 0.76697-0.91324 0.71468-0.49834-0.00652-0.10400
   1  -3   3 16958.3 714.582   4 0.65786-0.50915-0.31422 0.10335-0.67345 0.85049
   1  -3   4 13529.8 665.462   4 0.72129-0.57167-0.37919 0.17476-0.55415 0.79743
   1  -3   5 6747.14 489.570   4 0.76052-0.61000-0.42635 0.22836-0.44352 0.75306
   1  -3   5 6109.74 250.333   1 0.09590 0.05336 0.72253-0.92083 0.75662-0.44721
   1  -3   6 7367.65 480.452   5 0.46748-0.31545-0.76794 0.57521-0.39438 0.77330
   1  -3   6 8193.51 576.108   4 0.78335-0.63192-0.46052 0.26896-0.34358 0.71936
   1  -3   7 65.1966 56.4215   5 0.56145-0.40836-0.73198 0.54534-0.29463 0.74004
   1  -3   8 667.164 159.791   5 0.63575-0.48161-0.68874 0.50820-0.20180 0.71368
   1  -3   9 2106.58 294.799   5 0.69442-0.53922-0.64139 0.46695-0.11605 0.69440
   1  -3  10 6.41743 69.4810   5 0.74072-0.58446-0.59169 0.42335-0.03674 0.68157
   1  -3  11 986.348 265.163   2 0.85999-0.70521 0.48945-0.64706 0.36483 0.34502
   1  -3  11 816.076 202.633   5 0.77713-0.61980-0.54054 0.37830 0.03700 0.67431
   1  -3  12 345.915 171.424   2 0.85407-0.69836 0.47649-0.62755 0.39359 0.38278
   1  -3  13 834.576 269.785   2 0.84693-0.69029 0.46248-0.60698 0.42300 0.41991
  -1   2  13 552.023 194.621   2 0.79765-0.93879 0.38635-0.15391 0.55906 0.31976
  -1   2  12 2094.34 372.476   2 0.80877-0.95085 0.40168-0.17580 0.53439 0.27790
  -1   2  12 1804.80 342.209   3 0.14776-0.28913 0.98355-0.75891 0.27035 0.53900
  -1   2  11 2148.87 345.975   2 0.81826-0.96126 0.41539-0.19607 0.51127 0.23449
  -1   2  11 1060.70 247.710   3 0.19272-0.33510 0.98636-0.76818 0.23434 0.50869
  -1   2  10 2138.85 324.008   2 0.82615-0.97008 0.42736-0.21460 0.49020 0.18902
  -1   2  10 1717.47 305.945   3 0.23640-0.37979 0.98588-0.77415 0.19806 0.47864
  -1   2   9 11916.2 732.358   2 0.83244-0.97731 0.43736-0.23115 0.47193 0.14076
  -1   2   9 11911.7 778.966   3 0.27851-0.42291 0.98227-0.77700 0.16183 0.44855
  -1   2   8 858.423 198.976   3 0.31982-0.46524 0.97554-0.77673 0.12500 0.41906
  -1   2   8 998.518 191.557   2 0.83703-0.98282 0.44495-0.24530 0.45761 0.08855
  -1   2   7 8476.65 591.267   3 0.35954-0.50597 0.96589-0.77354 0.08832 0.38941
  -1   2   7 8967.06 548.969   2 0.83962-0.98634 0.44937-0.25628 0.44909 0.03053
  -1   2   6 1037.18 192.086   3 0.39856-0.54600 0.95312-0.76722 0.05097 0.36044
  -1   2   6 1154.04 174.835   2 0.83947-0.98712 0.44912-0.26258 0.44959-0.03650
  -1   2   6 679.233 79.7695   6 0.82079-0.96969 0.11800 0.06806 0.58011-0.16721
  -1   2   5 1532.54 222.012   3 0.43650-0.58495 0.93727-0.75783 0.01327 0.33182
  -1   2   5 1626.16 181.665   2 0.83467-0.98325 0.44100-0.26102 0.46511-0.11855
  -1   2   4 266.809 64.2330   2 0.81949-0.96900 0.41723-0.24381 0.50809-0.22807
  -1   2   4 246.114 87.9809   3 0.47417-0.62364 0.91781-0.74483-0.02566 0.30443
  -1   2   3 6541.28 411.716   3 0.51085-0.66133 0.89483-0.72831-0.06517 0.27762
  -1   2   3 7086.59 290.731   2 0.77256-0.92300 0.35403-0.18716 0.60737-0.39388
  -1   2   2 10749.0 498.462   3 0.54708-0.69857 0.86765-0.70758-0.10600 0.25212
  -1   2   1 11083.5 471.950   3 0.58345-0.73595 0.83504-0.68143-0.14912 0.22892
   1  -2  -1 11030.2 328.534   6 0.82891-0.67618 0.64214-0.79555 0.11102-0.19171
  -1   2   0 5835.29 298.601   3 0.62055-0.77406 0.79504-0.64788-0.19581 0.20929
   1  -2   0 5543.01 317.482   4 0.19670-0.04238 0.05006-0.19775-0.96974 0.95605
   1  -2   0 5783.90 267.907   6 0.80237-0.64887 0.67844-0.82533 0.05591-0.07016
   1  -2   1 71348.7 1640.83   4 0.40752-0.25230-0.10295-0.03830-0.90572 0.95829
  -1   2  -1 74334.8 1501.63   3 0.65946-0.81399 0.74357-0.60287-0.24860 0.19576
  -1   2  -2 143976. 2589.85   3 0.70220-0.85774 0.67083-0.53660-0.31307 0.19391
   1  -2   2 140900. 2877.74   4 0.57020-0.41406-0.23471 0.09989-0.78401 0.90281
   1  -2   3 317.012 92.4658   4 0.67606-0.51902-0.33199 0.20360-0.64385 0.82890
  -1   2  -3 261.287 40.8366   3 0.75086-0.90740 0.54965-0.42187-0.40187 0.21638
   1  -2   4 42351.0 1210.46   4 0.73870-0.58075-0.39908 0.27714-0.51053 0.76183
  -1   2  -4 35442.2 712.617   3 0.00901-0.16657 0.95486-0.83353 0.37346-0.62528
   1  -2   5 2627.16 277.085   5 0.46981-0.31035-0.76725 0.65075-0.39209 0.71210
  -1   2  -5 2887.34 125.737   3 0.43817-0.59674 0.93649-0.82162 0.01158-0.32972
   1  -2   5 3155.36 311.552   4 0.77358-0.61473-0.44477 0.32926-0.39230 0.70985
   1  -2   6 17686.9 773.933   5 0.56290-0.40238-0.73128 0.62087-0.29296 0.67944
   1  -2   6 17641.6 855.691   4 0.79140-0.63164-0.47620 0.36712-0.28918 0.67297
  -1   2  -6 16519.2 431.773   3 0.59516-0.75474 0.82322-0.71481-0.16354-0.22092
  -1   2  -7 1721.41 128.660   3 0.66558-0.82618 0.73436-0.63241-0.25735-0.19343
   1  -2   7 2074.66 266.744   5 0.63501-0.47343-0.68925 0.58494-0.20280 0.65576
   1  -2   8 4561.08 422.820   5 0.69136-0.52872-0.64423 0.54603-0.12087 0.64031
   1  -2   9 3531.79 391.063   5 0.73574-0.57204-0.59773 0.50563-0.04593 0.63184
   1  -2  10 44395.6 1610.93   5 0.77083-0.60607-0.55043 0.46442 0.02326 0.62913
   1  -2  11 415.843 185.223   5 0.79848-0.63266-0.50255 0.42264 0.08779 0.63108
   1  -2  12 1418.35 280.174   5 0.81997-0.65309-0.45410 0.38029 0.14854 0.63681
   1  -2  13-13.5178 85.6222   2 0.85875-0.69344 0.48660-0.54855 0.37128 0.47977
  -1   1  14 755.487 242.470   2 0.77692-0.92580 0.35946-0.20302 0.59958 0.33764
  -1   1  13 226.297 135.912   2 0.78883-0.93864 0.37467-0.22479 0.57707 0.29362
  -1   1  12 1607.35 326.480   2 0.79902-0.94976 0.38820-0.24487 0.55615 0.24801
  -1   1  12 1368.84 281.344   3 0.06102-0.21113 0.96908-0.82705 0.33620 0.46511
  -1   1  11 480.572 167.143   3 0.10200-0.25312 0.97737-0.84180 0.30567 0.42931
  -1   1  11 807.186 216.293   2 0.80752-0.95919 0.39992-0.26315 0.53728 0.20034
  -1   1  10 2105.37 330.074   2 0.81433-0.96693 0.40962-0.27941 0.52112 0.14997
  -1   1  10 1968.07 311.972   3 0.14114-0.29327 0.98286-0.85375 0.27554 0.39312
  -1   1   9 4.40376 67.4578   2 0.81931-0.97284 0.41696-0.29330 0.50856 0.09599
  -1   1   9 37.4947 64.1109   3 0.17846-0.33160 0.98582-0.86317 0.24590 0.35644
  -1   1   8 14174.0 771.670   2 0.82220-0.97666 0.42130-0.30420 0.50097 0.03705
  -1   1   8 12843.9 756.745   3 0.21414-0.36829 0.98653-0.87033 0.21671 0.31930
  -1   1   7 15453.2 792.511   3 0.24755-0.40271 0.98523-0.87549 0.18859 0.28110
  -1   1   7 16557.6 780.903   2 0.82240-0.97779 0.42160-0.31106 0.50045-0.02896
  -1   1   6 49.6396 78.8262   3 0.27881-0.43499 0.98223-0.87895 0.16156 0.24181
  -1   1   6 10.0807 43.6670   2 0.81861-0.97492 0.41591-0.31192 0.51038-0.10543
  -1   1   5 10093.5 560.572   3 0.30799-0.46517 0.97780-0.88098 0.13569 0.20136
  -1   1   5 10428.6 513.207   2 0.80788-0.96513 0.40042-0.30299 0.53646-0.19804
  -1   1   4 14821.0 557.264   2 0.78284-0.94102 0.36695-0.27608 0.58862-0.31674
   1  -1  -4 14397.7 402.896   6 0.84630-0.68711 0.61131-0.70181 0.15351-0.42541
  -1   1   4 13593.8 620.020   3 0.33387-0.49207 0.97250-0.88213 0.11218 0.15854
  -1   1   3 19081.7 579.047   2 0.72272-0.88182 0.29598-0.21166 0.68327-0.47791
   1  -1  -3 17330.4 428.289   6 0.88382-0.72387 0.34486-0.42883 0.42672-0.63219
  -1   1   3 17839.5 676.977   3 0.35569-0.51490 0.96697-0.88306 0.09194 0.11246
   1  -1  -2 39951.6 812.453   6 0.59392-0.43321-0.24156 0.16413 0.71729-0.85631
   1  -1  -2 41930.2 915.981   2 0.78656-0.62652 0.37173-0.44948 0.58150-0.72032
  -1   1   2 41462.0 1083.28   3 0.37201-0.53223 0.96218-0.88473 0.07654 0.06154
  -1   1   1 11786.9 450.615   3 0.37911-0.54034 0.95991-0.88892 0.06976 0.00199
   1  -1   0 77759.3 1511.69   3 0.52430-0.36205 0.88530-0.94984-0.08010 0.07467
  -1   1   0 71011.7 1495.04   3 0.36839-0.53063 0.96329-0.89875 0.07997-0.07454
   1  -1   1 320402. 5204.73   3 0.56822-0.40496 0.84940-0.90748-0.13078 0.19167
   1  -1   1 311148. 5408.03   4 0.40842-0.24486-0.10364 0.04487-0.90526 0.96583
  -1   1  -1 288314. 5149.54   1-0.17583 0.01282 0.54498-0.48610 0.85377-0.91396
  -1   1  -1 299474. 5190.08   3 0.31277-0.47603 0.97692-0.91884 0.13138-0.19227
   1  -1   2 6374.54 339.800   4 0.60014-0.43567-0.26094 0.20861-0.75111 0.87793
   1  -1   3 37695.5 1025.73   4 0.70804-0.54267-0.36481 0.31890-0.58337 0.77643
   1  -1   3 32433.3 992.847   5 0.38049-0.21466-0.78721 0.74084-0.47348 0.66809
   1  -1   4 10108.1 522.553   5 0.49736-0.33046-0.75841 0.71813-0.36445 0.62553
   1  -1   4 11646.3 550.588   4 0.76258-0.59630-0.42911 0.38965-0.43619 0.69550
   1  -1   5 8445.43 495.809   5 0.58404-0.41608-0.72044 0.68627-0.26793 0.59549
   1  -1   5 8599.95 505.552   4 0.78813-0.62095-0.46938 0.43635-0.31368 0.63924
   1  -1   6 1587.74 114.022   3-0.16838 0.33670 0.87533-0.90112 0.48811-0.09561
   1  -1   6 2017.15 251.244   5 0.64963-0.48061-0.67878 0.65070-0.18268 0.57672
   1  -1   7 681.901 86.7597   3-0.14127 0.31060 0.89065-0.90999 0.47185-0.01303
   1  -1   7 754.939 162.773   5 0.70034-0.53026-0.63575 0.61378-0.10659 0.56710
   1  -1   8 80.8849 93.9742   5 0.74023-0.56910-0.59230 0.57642-0.03766 0.56465
   1  -1   9 8582.94 634.028   5 0.77196-0.59977-0.54869 0.53891 0.02570 0.56777
   1  -1  10 885.938 216.962   5 0.79727-0.62402-0.50492 0.50124 0.08471 0.57524
   1  -1  11 352.646 141.480   5 0.81731-0.64300-0.46087 0.46329 0.14029 0.58613
   1  -1  12-32.0798 107.441   5 0.83286-0.65749-0.41635 0.42488 0.19316 0.59974
   1  -1  13 1284.45 290.774   5 0.84441-0.66798-0.37116 0.38579 0.24387 0.61550
  -1   0  14 135.531 55.1091   2 0.76570-0.92326 0.34562-0.27173 0.61918 0.30991
  -1   0  13 272.548 163.849   2 0.77666-0.93514 0.35913-0.29180 0.60006 0.26249
  -1   0  12 1077.90 262.788   2 0.78583-0.94524 0.37079-0.31001 0.58292 0.21310
  -1   0  12 467.842 142.375   3-0.03715-0.12170 0.93881-0.87940 0.40516 0.38811
  -1   0  11 158.171 124.793   2 0.79320-0.95355 0.38042-0.32620 0.56829 0.16120
  -1   0  11 27.8630 74.4218   3-0.00207-0.15778 0.95130-0.89835 0.38119 0.34575
  -1   0  10 1956.20 321.819   2 0.79867-0.95994 0.38772-0.34007 0.55689 0.10606
  -1   0  10 1869.41 297.048   3 0.03035-0.19122 0.96119-0.91470 0.35837 0.30225
  -1   0   9 10143.6 703.968   2 0.80197-0.96417 0.39222-0.35112 0.54975 0.04667
  -1   0   9 8452.53 617.936   3 0.05990-0.22178 0.96881-0.92878 0.33702 0.25727
  -1   0   8 4565.91 445.670   2 0.80264-0.96577 0.39314-0.35859 0.54829-0.01840
  -1   0   8 4359.64 413.658   3 0.08620-0.24908 0.97448-0.94090 0.31757 0.21040
   1   0  -7 1702.06 200.995   6 0.78683-0.62119 0.69571-0.72328 0.02727-0.49039
  -1   0   7 1493.59 225.945   3 0.10866-0.27256 0.97847-0.95135 0.30062 0.16103
  -1   0   7 1688.32 245.459   2 0.79974-0.96380 0.38917-0.36119 0.55460-0.09125
  -1   0   6 141.987 69.2740   2 0.79146-0.95645 0.37812-0.35669 0.57182-0.17500
   1   0  -6 118.707 46.5879   6 0.83447-0.66807 0.63305-0.65410 0.12390-0.52058
  -1   0   6 58.6980 31.3697   3 0.12638-0.29129 0.98107-0.96041 0.28702 0.10831
   1   0  -5 10476.7 444.524   6 0.87330-0.70613 0.53936-0.55388 0.24136-0.57160
  -1   0   5 9900.45 542.976   3 0.13792-0.30385 0.98250-0.96829 0.27806 0.05095
  -1   0   5 10497.8 540.966   2 0.77413-0.94005 0.35598-0.34110 0.60459-0.27431
  -1   0   4 43208.3 1185.25   2 0.73986-0.90671 0.31522-0.30690 0.65952-0.39577
   1   0  -4 44886.7 1049.00   6 0.88787-0.71994 0.39418-0.40216 0.38533-0.64913
  -1   0   3 4516.26 307.296   3 0.13145-0.29940 0.98172-0.98043 0.28310-0.08674
   1   0  -3 4531.02 236.376   6 0.84081-0.67211 0.16927-0.17073 0.55026-0.74762
   1   0  -2 25658.0 654.836   6 0.67311-0.50365-0.14057 0.14565 0.69167-0.82259
  -1   0   2 24927.2 757.752   3 0.10215-0.27111 0.97740-0.98256 0.30556-0.17552
  -1   0   1 114.146 49.0821   3 0.03902-0.20899 0.96356-0.97519 0.35216-0.28845
  -1   0   0 41026.8 960.696   3-0.08609-0.08489 0.91826-0.93634 0.43734-0.43995
   1   0   0 44378.2 967.722   3 0.08506 0.08592 0.97426-0.95618 0.31842-0.31581
  -1   0   0 42862.4 971.580   1-0.08529-0.08529 0.61236-0.62951 0.83130-0.83310
   1   0   1 12976.2 382.001   3-0.06604 0.23804 0.92712-0.90258 0.42434-0.35540
   1   0   1 12423.2 423.904   1-0.23616 0.40745 0.49527-0.47182 0.86296-0.79494
  -1   0  -1 13643.2 444.023   4 0.27139-0.44329-0.00234-0.02137-0.95661 0.88802
   1   0   2 9958.40 388.200   4 0.65905-0.48625-0.31536 0.34551-0.67160 0.80644
   1   0   2 8663.72 425.327   5 0.45503-0.28177-0.77144 0.80130-0.40640 0.54208
   1   0   3 1743.36 175.622   4 0.75202-0.57832-0.41533 0.45191-0.47174 0.67282
   1   0   3 1579.63 186.122   5 0.55581-0.38148-0.73466 0.77062-0.30111 0.50327
   1   0   4 200.785 87.8325   5 0.62737-0.45198-0.69443 0.73649-0.21304 0.48168
   1   0   4 150.815 36.8106   3 0.64153-0.46650 0.76869-0.72478-0.22371 0.49161
   1   0   4 172.917 77.7390   4 0.78748-0.61286-0.46809 0.51111-0.31813 0.58546
   1   0   5 3873.75 197.716   3 0.48748-0.31144 0.90996-0.85960-0.03979 0.37402
   1   0   5 4169.68 353.688   5 0.68061-0.50417-0.65385 0.70201-0.13747 0.47259
   1   0   6 891.737 103.612   3 0.36955-0.19250 0.96294-0.90611 0.07887 0.32168
   1   0   6 758.339 159.572   5 0.72174-0.54424-0.61373 0.66798-0.07082 0.47241
   1   0   7 1014.48 209.012   5 0.75437-0.57580-0.57409 0.63444-0.01058 0.47865
   1   0   7 1002.84 119.383   3 0.27630-0.09824 0.98254-0.91925 0.16376 0.30311
   1   0   8 3865.60 264.628   3 0.19574-0.01666 0.98643-0.91669 0.23187 0.30132
   1   0   8 3910.91 414.186   5 0.78066-0.60104-0.53475 0.60121 0.04494 0.48960
   1   0   9-58.5214 81.9639   5 0.80200-0.62131-0.49547 0.56802 0.09693 0.50409
   1   0  10 26527.2 1271.16   5 0.81923-0.63749-0.45600 0.53465 0.14623 0.52127
   1   0  11 2471.82 390.333   5 0.83293-0.65012-0.41612 0.50088 0.19343 0.54054
   1   0  12 20.3208 65.5322   5 0.84344-0.65958-0.37562 0.46648 0.23899 0.56146
   1   0  13 340.851 171.733   5 0.85098-0.66606-0.33430 0.43125 0.28324 0.58369
   1   0  14 611.996 228.670   5 0.85564-0.66966-0.29194 0.39500 0.32645 0.60695
  -1  -1  14 319.615 173.070   2 0.75111-0.91733 0.32822-0.33689 0.64271 0.27824
  -1  -1  13 1492.04 330.803   2 0.76103-0.92818 0.33998-0.35520 0.62694 0.22748
  -1  -1  12 188.497 148.067   2 0.76905-0.93713 0.34971-0.37149 0.61348 0.17441
  -1  -1  11 531.894 167.514   3-0.11505-0.05354 0.90436-0.93403 0.45570 0.26320
  -1  -1  11 532.429 183.318   2 0.77508-0.94409 0.35716-0.38550 0.60289 0.11846
  -1  -1  10-7.04069 55.7310   3-0.09094-0.07866 0.91602-0.95214 0.44045 0.21212
  -1  -1  10 144.373 118.246   2 0.77891-0.94885 0.36196-0.39685 0.59595 0.05887
   1   1  -9-19.0259 65.6229   6 0.76893-0.59607 0.71294-0.67106-0.00330-0.58460
  -1  -1   9 27.1775 37.3200   2 0.78015-0.95101 0.36352-0.40497 0.59367-0.00539
  -1  -1   9 15.8337 79.0717   3-0.07103-0.09958 0.92497-0.96755 0.42760 0.15865
  -1  -1   8 573.493 163.166   2 0.77809-0.94989 0.36093-0.40894 0.59744-0.07570
  -1  -1   8 406.151 124.724   3-0.05611-0.11551 0.93128-0.98032 0.41780 0.10213
   1   1  -8 480.570 126.312   6 0.81062-0.63700 0.66821-0.61980 0.07209-0.59355
  -1  -1   7 320.345 98.9376   3-0.04728-0.12535 0.93485-0.99035 0.41194 0.04166
  -1  -1   7 291.845 96.4239   2 0.77154-0.94427 0.35276-0.40733 0.60916-0.15395
   1   1  -7 330.145 96.9742   6 0.84692-0.67253 0.61006-0.55512 0.15517-0.61018
  -1  -1   6 2404.85 271.942   3-0.04618-0.12747 0.93529-0.99724 0.41121-0.02392
  -1  -1   6 2540.10 295.478   2 0.75829-0.93195 0.33671-0.39783 0.63138-0.24270
   1   1  -6 2746.53 263.507   6 0.87471-0.69956 0.53391-0.47244 0.24749-0.63606
  -1  -1   5 14796.8 689.200   2 0.73434-0.90893 0.30895-0.37663 0.66741-0.34526
   1   1  -5 14648.6 612.644   6 0.88815-0.71223 0.43335-0.36536 0.35000-0.67213
  -1  -1   5 13662.8 654.646   3-0.05521-0.11945 0.93165-1.00006 0.41720-0.09624
  -1  -1   4 8721.94 481.392   2 0.69218-0.86770 0.26316-0.33740 0.72082-0.46520
  -1  -1   4 8903.43 478.735   3-0.07792-0.09775 0.92194-0.99681 0.43207-0.17743
   1   1  -4 9061.94 439.837   6 0.87695-0.70027 0.30050-0.22598 0.46127-0.71696
   1   1  -4 9894.77 339.011   5 0.84043-0.66502-0.38858 0.46417 0.22466-0.48029
  -1  -1   3 38833.3 1084.94   3-0.11954-0.05714 0.90209-0.98341 0.45849-0.27018
   1   1  -3 39541.2 1024.70   6 0.82535-0.64790 0.12900-0.04795 0.57393-0.76317
   1   1  -3 37154.8 805.094   5 0.84412-0.66765-0.10646 0.18815 0.49331-0.68246
  -1  -1   2 20169.9 672.511   3-0.18743 0.00974 0.86385-0.95163 0.49924-0.37725
   1   1  -2 20244.4 637.219   6 0.71631-0.53810-0.07745 0.16504 0.67040-0.79321
  -1  -1   2 18603.3 660.427   1 0.08712-0.26458 0.71794-0.80481 0.76114-0.63834
  -1  -1   1 77862.0 1732.89   1-0.09221-0.08595 0.60751-0.70068 0.83337-0.77679
   1   1  -1 82081.2 1713.92   6 0.54734-0.36836-0.29426 0.38837 0.72627-0.78263
   1   1   0 52523.5 1147.59   5 0.48126-0.30162-0.76374 0.86373-0.38076 0.39104
   1   1   1 999999. 16916.1   5 0.58251-0.40181-0.72126 0.82735-0.26977 0.34653
   1   1   2 428.936 100.682   5 0.64647-0.46471-0.68110 0.79329-0.18709 0.33032
  -1  -1  -2 428.101 66.4063   4 0.55359-0.73472-0.22048 0.10785-0.80052 0.65768
   1   1   2 563.472 76.8482   4 0.74730-0.56617-0.40944 0.52207-0.48616 0.62900
   1   1   3 9155.35 477.224   5 0.69180-0.50897-0.64383 0.76212-0.12018 0.32990
   1   1   4 4032.82 342.218   5 0.72643-0.54255-0.60852 0.73291-0.06262 0.33882
   1   1   4 4343.20 258.159   3 0.76413-0.58036 0.50165-0.37512-0.43209 0.70803
   1   1   5 24450.1 969.868   5 0.75417-0.56923-0.57435 0.70484-0.01096 0.35363
   1   1   5 25659.1 759.183   3 0.69000-0.50522 0.69383-0.56084-0.29377 0.63604
   1   1   6 128.230 74.8470   5 0.77702-0.59102-0.54071 0.67730 0.03677 0.37238
   1   1   6 148.012 62.3735   3 0.60002-0.41423 0.81811-0.67867-0.16960 0.57819
   1   1   7 4527.52 311.212   3 0.50887-0.32206 0.89619-0.75029-0.06298 0.53789
   1   1   7 4520.24 429.606   5 0.79610-0.60904-0.50718 0.64986 0.08176 0.39386
   1   1   8 521.241 110.467   3 0.41998-0.23216 0.94461-0.79225 0.02986 0.51137
   1   1   8 449.501 135.532   5 0.81210-0.62398-0.47344 0.62223 0.12478 0.41732
   1   1   9 2410.04 353.561   5 0.82541-0.63623-0.43927 0.59416 0.16633 0.44225
   1   1  10 1837.03 319.470   5 0.83629-0.64605-0.40447 0.56546 0.20677 0.46828
   1   1  11-19.9392 93.1535   5 0.84488-0.65358-0.36889 0.53598 0.24635 0.49519
   1   1  12-31.6525 91.7378   5 0.85126-0.65890-0.33238 0.50557 0.28524 0.52276
   1   1  13 70.5272 75.9051   5 0.85542-0.66200-0.29480 0.47408 0.32361 0.55088
   1   1  14-89.8644 140.591   5 0.85733-0.66286-0.25599 0.44138 0.36155 0.57942
  -1  -2  13 1365.50 311.902   2 0.74181-0.91763 0.31744-0.41522 0.65669 0.18959
  -1  -2  12 1586.05 324.251   2 0.74851-0.92526 0.32518-0.42952 0.64669 0.13305
  -1  -2  11 789.063 207.047   3-0.23040 0.05307 0.83575-0.94803 0.52346 0.18739
  -1  -2  11 1199.69 287.138   2 0.75296-0.93064 0.33039-0.44128 0.63983 0.07338
  -1  -2  10 2009.47 343.586   2 0.75485-0.93346 0.33263-0.45007 0.63686 0.00982
   1   2 -10 1850.05 287.061   6 0.77935-0.59850 0.70322-0.58536 0.01421-0.66044
  -1  -2   9 13228.4 789.962   3-0.20446 0.02512 0.85308-0.97828 0.50899 0.06922
   1   2  -9 15276.5 829.634   6 0.81586-0.63425 0.66126-0.53687 0.08276-0.66255
  -1  -2   9 14182.3 892.356   2 0.75366-0.93320 0.33122-0.45522 0.63874-0.05859
  -1  -2   8 63264.2 1916.86   3-0.20043 0.02007 0.85568-0.98733 0.50670 0.00519
  -1  -2   8 67876.0 2115.31   2 0.74850-0.92897 0.32518-0.45574 0.64670-0.13308
  -1  -2   7 3661.34 364.470   3-0.20396 0.02259 0.85341-0.99152 0.50871-0.06314
   1   2  -7 4405.58 392.563   6 0.87124-0.68810 0.54685-0.40940 0.23284-0.67975
  -1  -2   7 3896.59 412.987   2 0.73794-0.91934 0.31303-0.45015 0.66229-0.21521
  -1  -2   6 2661.18 292.794   3-0.21676 0.03437 0.84501-0.98958 0.51591-0.13667
   1   2  -6 2885.02 296.664   6 0.88581-0.70191 0.46980-0.32582 0.31496-0.69542
  -1  -2   6 2966.96 332.875   2 0.71959-0.90191 0.29253-0.43621 0.68738-0.30683
   1   2  -6 2677.50 176.516   5 0.50860-0.32682-0.75438 0.90010-0.35278-0.02824
  -1  -2   5 2302.84 256.758   3-0.24099 0.05759 0.82834-0.97937 0.52924-0.21632
   1   2  -5 2926.12 281.577   6 0.88682-0.70215 0.37574-0.22524 0.40119-0.71521
  -1  -2   5 2419.45 279.941   2 0.68944-0.87269 0.26029-0.41052 0.72394-0.40993
   1   2  -5 2290.17 127.942   5 0.50574-0.32290-0.75543 0.90725-0.35577 0.04122
  -1  -2   4 3859.39 321.435   3-0.27926 0.09485 0.79992-0.95740 0.54945-0.30286
  -1  -2   4 3607.17 309.348   1 0.10532-0.28966 0.72736-0.88394 0.75166-0.50424
   1   2  -4 3960.69 316.207   6 0.86870-0.68327 0.26196-0.10492 0.48938-0.73696
  -1  -2   3 7416.51 429.753   1 0.00544-0.19048 0.67160-0.83449 0.79880-0.61761
   1   2  -3 7767.33 437.102   6 0.82470-0.63850 0.12742 0.03615 0.57483-0.75596
   1   2  -2 7942.16 432.918   6 0.74884-0.56188-0.02471 0.19481 0.64966-0.76436
  -1  -2   2 7983.17 430.731   1-0.12689-0.05884 0.58245-0.75163 0.84288-0.72791
   1   2  -2 8405.49 230.150   5 0.76628-0.58026-0.55726 0.72738 0.01363-0.12875
   1   2  -1 686.850 73.6864   5 0.74210-0.55502-0.58999 0.76621-0.03417-0.01447
   1   2  -1 711.222 122.463   6 0.64018-0.45245-0.18456 0.36119 0.70414-0.75239
  -1  -2   1 619.839 75.0475   5 0.38682-0.57390-0.78620 0.60998-0.46810 0.51674
   1   2   0 1177.98 155.072   6 0.50727-0.31877-0.33639 0.51955 0.73110-0.71291
   1   2   0 1750.74 147.264   5 0.74540-0.55726-0.58584 0.76816-0.02795 0.04578
   1   2   1 13974.0 533.025   5 0.75556-0.56636-0.57247 0.76089-0.00822 0.09253
  -1  -2  -2 11098.2 337.562   4 0.58686-0.77633-0.24921 0.05410-0.76622 0.61536
   1   2   2 11647.9 524.665   5 0.76789-0.57763-0.55487 0.74939 0.01701 0.13378
   1   2   3 151.436 63.0151   5 0.78070-0.58938-0.53469 0.73531 0.04502 0.17224
   1   2   4 7247.56 483.339   5 0.79324-0.60087-0.51260 0.71932 0.07464 0.20910
   1   2   5 696.422 168.065   5 0.80512-0.61168-0.48894 0.70176 0.10528 0.24495
   1   2   5 656.977 123.498   3 0.74466-0.55115 0.56891-0.35331-0.38903 0.73934
   1   2   6 7098.84 539.358   5 0.81609-0.62160-0.46389 0.68281 0.13659 0.28011
   1   2   6 6765.56 423.238   3 0.68733-0.49281 0.69858-0.47652-0.28967 0.70630
   1   2   7 865.993 197.958   5 0.82601-0.63045-0.43754 0.66256 0.16838 0.31479
   1   2   7 698.212 141.073   3 0.61915-0.42361 0.79669-0.56817-0.19399 0.67695
   1   2   8-111.054 85.8495   5 0.83474-0.63813-0.40994 0.64106 0.20053 0.34912
   1   2   8-43.1775 38.8433   3 0.54546-0.34891 0.86897-0.63400-0.10413 0.65341
   1   2   9 1298.67 273.586   5 0.84220-0.64453-0.38111 0.61833 0.23295 0.38319
   1   2  10 2108.19 363.484   5 0.84830-0.64956-0.35104 0.59436 0.26557 0.41704
   1   2  11 2891.70 449.976   5 0.85293-0.65313-0.31971 0.56912 0.29837 0.45072
   1   2  12 1800.36 369.831   5 0.85599-0.65514-0.28706 0.54258 0.33130 0.48426
   1   2  13 56.7206 118.763   5 0.85738-0.65547-0.25305 0.51467 0.36435 0.51769
  -1  -3  13 1268.13 317.862   2 0.71883-0.90332 0.29170-0.47203 0.68836 0.14979
  -1  -3  12 329.029 169.820   2 0.72402-0.90944 0.29742-0.48430 0.68153 0.09008
  -1  -3  11 1144.73 276.999   2 0.72667-0.91302 0.30036-0.49380 0.67798 0.02710
   1   3 -11 1266.55 270.316   6 0.77885-0.59002 0.70370-0.50986 0.01336-0.71792
  -1  -3  10 284.841 133.871   2 0.72637-0.91364 0.30002-0.50002 0.67839-0.03984
   1   3 -10 326.696 133.145   6 0.81271-0.62311 0.66548-0.46511 0.07630-0.71443
  -1  -3   9 1334.07 272.172   2 0.72246-0.91067 0.29569-0.50225 0.68361-0.11160
   1   3  -9 1685.03 281.676   6 0.84168-0.65132 0.62024-0.41334 0.14155-0.71323
  -1  -3   8 1137.43 235.372   2 0.71393-0.90307 0.28636-0.49947 0.69464-0.18917
   1   3  -8 1102.94 226.839   6 0.86487-0.67375 0.56701-0.35358 0.20923-0.71446
  -1  -3   7 12177.7 709.067   1 0.11605-0.30657 0.73275-0.95274 0.74587-0.30763
  -1  -3   7 13655.9 803.634   2 0.69922-0.88929 0.27058-0.49025 0.71264-0.27370
   1   3  -7 13497.8 764.118   6 0.88098-0.68909 0.50465-0.28470 0.27928-0.71807
  -1  -3   6 279.901 101.430   1 0.07136-0.26257 0.70952-0.93581 0.76903-0.39701
   1   3  -6 462.617 140.538   6 0.88819-0.69553 0.43191-0.20542 0.35134-0.72370
  -1  -3   5 1352.15 208.401   1 0.00977-0.20168 0.67423-0.90682 0.79701-0.49120
   1   3  -5 1590.50 232.624   6 0.88414-0.69072 0.34758-0.11457 0.42452-0.73044
  -1  -3   4 406.052 103.673   1-0.07148-0.12113 0.62191-0.86081 0.82699-0.58741
   1   3  -4 457.299 123.426   6 0.86596-0.67178 0.25093-0.01138 0.49711-0.73658
   1   3  -3 23145.7 894.620   6 0.83065-0.63570 0.14226 0.10382 0.56632-0.73935
  -1  -3   3 23526.9 874.576   1-0.17328-0.02003 0.54699-0.79220 0.85328-0.67992
  -1  -3   2 3119.76 150.257   5 0.48701-0.68152-0.76189 0.50944-0.37499 0.48255
   1   3  -2 2841.09 147.817   5 0.83946-0.64495-0.08387 0.33632 0.51135-0.61891
   1   3  -2 2811.36 275.265   6 0.77592-0.58020 0.02377 0.22884 0.62823-0.73482
   1   3  -1 39546.4 833.463   4 0.76990-0.57482-0.43935 0.69763-0.40797 0.36810
   1   3  -1 38419.1 909.658   5 0.85449-0.65892-0.30529 0.56384 0.31306-0.35415
   1   3   0 592.203 121.588   6 0.61099-0.41375-0.22111 0.48678 0.71297-0.68668
   1   3   0 859.222 114.828   5 0.84180-0.64516-0.38286 0.64751 0.23101-0.20562
   1   3   1 99325.3 2427.12   6 0.51122-0.31321-0.33236 0.60455 0.73073-0.63799
   1   3   1 125392. 2429.21   5 0.83354-0.63585-0.41406 0.68481 0.19580-0.10393
   1   3   2 6179.19 397.860   5 0.83036-0.63161-0.42443 0.70127 0.18380-0.02546
  -1  -3  -2 4733.76 168.099   4 0.59721-0.79501-0.25834-0.01925-0.75452 0.59564
  -1  -3  -3 4682.34 229.431   4 0.73727-0.93598-0.39740 0.11337-0.51438 0.28926
   1   3   3 5256.74 399.428   5 0.83067-0.63086-0.42346 0.70641 0.18493 0.03989
   1   3   4 4375.26 390.887   5 0.83313-0.63226-0.41545 0.70450 0.19420 0.09710
   1   3   5 1809.05 263.511   5 0.83679-0.63486-0.40264 0.69778 0.20885 0.14892
   1   3   5 1797.86 228.008   3 0.76300-0.56075 0.50621-0.20799-0.42932 0.78767
   1   3   6-19.5297 53.3196   3 0.72369-0.52042 0.62447-0.31979-0.34942 0.77410
   1   3   6 61.3783 87.3263   5 0.84100-0.63801-0.38624 0.68749 0.22726 0.19699
   1   3   7 1762.61 250.270   3 0.67294-0.46866 0.72283-0.41169-0.26805 0.75905
   1   3   7 2128.55 317.956   5 0.84527-0.64122-0.36702 0.67437 0.24838 0.24235
   1   3   8 54.3722 78.9989   3 0.61407-0.40878 0.80258-0.48499-0.18743 0.74475
   1   3   8-50.3131 77.5097   5 0.84925-0.64414-0.34544 0.65889 0.27152 0.28569
   1   3   9 5256.64 581.787   5 0.85267-0.64650-0.32179 0.64134 0.29622 0.32747
   1   3   9 4814.07 439.738   3 0.54951-0.34321 0.86565-0.54160-0.10880 0.73245
   1   3  10 2814.16 440.550   5 0.85530-0.64807-0.29628 0.62192 0.32213 0.36803
   1   3  11 1196.92 299.052   5 0.85695-0.64867-0.26900 0.60075 0.34901 0.40763
   1   3  12 646.459 246.111   5 0.85745-0.64810-0.24003 0.57788 0.37667 0.44644
   1   3  13 372.323 165.989   5 0.85661-0.64620-0.20940 0.55334 0.40498 0.48461
  -1  -4  13 181.071 150.275   2 0.69197-0.88513 0.26293-0.52581 0.72107 0.10894
  -1  -4  12 95.2357 99.8602   2 0.69547-0.88956 0.26661-0.53605 0.71703 0.04644
   1   4 -12 73.9686 92.9852   6 0.77165-0.57483 0.71048-0.44066 0.00120-0.76409
  -1  -4  12 205.278 143.693   1 0.07338-0.26867 0.71061-0.98140 0.76804-0.00652
  -1  -4  11 149.429 95.9374   1 0.06966-0.26565 0.70860-0.98569 0.76986-0.07456
   1   4 -11-122.866 131.563   6 0.80436-0.60678 0.67605-0.39970 0.05974-0.75620
  -1  -4  11-13.9780 51.4549   2 0.69611-0.89113 0.26729-0.54328 0.71629-0.01935
  -1  -4  10 4752.95 503.201   1 0.05904-0.25573 0.70276-0.98616 0.77499-0.14591
   1   4 -10 5806.81 582.523   6 0.83260-0.63426 0.63618-0.35330 0.11950-0.74952
  -1  -4  10 5505.26 610.125   2 0.69339-0.88934 0.26443-0.54698 0.71943-0.08903
  -1  -4   9 2493.61 344.120   1 0.04032-0.23771 0.69221-0.98191 0.78369-0.22084
  -1  -4   9 2712.66 400.646   2 0.68657-0.88345 0.25730-0.54641 0.72715-0.16328
   1   4  -9 3170.35 410.022   6 0.85591-0.65680 0.59042-0.30101 0.18050-0.74407
  -1  -4   8 44844.8 1600.03   1 0.01209-0.21017 0.67562-0.97163 0.79604-0.29940
   1   4  -8 50150.9 1751.09   6 0.87360-0.67373 0.53823-0.24229 0.24264-0.73977
  -1  -4   7 146.879 92.2552   1-0.02731-0.17148 0.65116-0.95347 0.81167-0.38126
   1   4  -7 30.0827 55.3313   6 0.88479-0.68415 0.47905-0.17659 0.30570-0.73639
   1   4  -6 1270.21 228.515   6 0.88834-0.68694 0.41237-0.10337 0.36921-0.73346
  -1  -4   6 1015.74 202.808   1-0.07949-0.12000 0.61640-0.92501 0.82952-0.46533
   1   4  -5 1241.75 217.040   6 0.88292-0.68075 0.33780-0.02227 0.43239-0.73019
  -1  -4   5 1042.88 186.002   1-0.14562-0.05457 0.56840-0.88332 0.84740-0.54944
  -1  -4   4 28017.8 1046.70   1-0.22565 0.02477 0.50422-0.82544 0.86171-0.62997
   1   4  -4 29258.5 1130.76   6 0.86708-0.66414 0.25534 0.06671 0.49403-0.72540
  -1  -4   3 1165.51 80.6693   5 0.54284-0.74478-0.74057 0.41189-0.31577 0.48225
   1   4  -3 1444.79 224.408   6 0.83948-0.63578 0.16560 0.16299 0.55249-0.71741
   1   4  -2 16145.9 757.846   6 0.79927-0.59480 0.07010 0.26502 0.60565-0.70413
   1   4  -1 680.021 74.3976   4 0.55523-0.35182-0.22188 0.56264-0.79894 0.76709
   1   4  -1 472.341 121.110   6 0.74661-0.54138-0.02850 0.37015 0.65124-0.68328
   1   4  -1 615.815 99.8004   5 0.84558-0.64151-0.11431 0.45519 0.48693-0.52046
   1   4   0 65835.5 1553.19   5 0.85701-0.65188-0.21860 0.56558 0.39658-0.36363
   1   4   0 60605.8 1694.77   6 0.68316-0.47716-0.12649 0.47467 0.68727-0.65287
   1   4   1 17683.0 774.416   6 0.61224-0.40548-0.21960 0.57430 0.71263-0.61179
   1   4   1 19245.4 744.579   5 0.85672-0.65053-0.27446 0.62755 0.34369-0.24427
   1   4   2 590.431 141.479   6 0.53844-0.33092-0.30385 0.66508 0.72756-0.56027
   1   4   2 766.751 151.205   5 0.85461-0.64736-0.30409 0.66327 0.31427-0.14837
   1   4   3 1461.65 218.718   6 0.46670-0.25841-0.37643 0.74419 0.73359-0.49987
  -1  -4  -3 1697.82 124.487   4 0.75428-0.96132-0.41820 0.05169-0.46455 0.23142
   1   4   3 2083.86 265.412   5 0.85313-0.64482-0.31800 0.68327 0.30012-0.06775
   1   4   4 3045.41 348.090   5 0.85268-0.64332-0.32167 0.69305 0.29634 0.00251
   1   4   5 365.580 112.282   3 0.76962-0.55863 0.47796-0.09712-0.44612 0.81252
   1   4   5 330.549 122.760   5 0.85310-0.64268-0.31824 0.69572 0.29987 0.06546
   1   4   6 164.546 85.0688   3 0.73988-0.52788 0.58275-0.19546-0.37953 0.81225
   1   4   6 122.874 77.9654   5 0.85407-0.64258-0.30956 0.69314 0.30874 0.12307
   1   4   7 318.942 124.511   3 0.70016-0.48714 0.67483-0.28108-0.30978 0.80882
   1   4   7 415.797 170.551   5 0.85526-0.64272-0.29680 0.68648 0.32160 0.17668
   1   4   8 3376.57 386.713   3 0.65227-0.43825 0.75396-0.35375-0.23849 0.80386
   1   4   8 3674.71 475.402   5 0.85639-0.64278-0.28074 0.67652 0.33754 0.22723
   1   4   9 5983.83 636.083   5 0.85719-0.64253-0.26190 0.66378 0.35587 0.27537
   1   4   9 5248.88 496.938   3 0.59778-0.38275 0.82047-0.41381-0.16680 0.79849
   1   4  10 1089.48 283.397   5 0.85745-0.64173-0.24062 0.64860 0.37613 0.32159
   1   4  11 2717.00 457.757   5 0.85695-0.64017-0.21713 0.63121 0.39792 0.36627
   1   4  12 1352.03 337.672   5 0.85550-0.63766-0.19160 0.61178 0.42099 0.40968
   1   5 -12 1218.44 311.572   6 0.79193-0.58636 0.69030-0.33797 0.03644-0.79122
   1   5 -11 946.593 254.936   6 0.82030-0.61397 0.65507-0.29620 0.09209-0.78044
   1   5 -10 784.729 232.207   6 0.84430-0.63721 0.61525-0.24986 0.14827-0.77018
  -1  -5  10 160.410 105.409   1-0.06336-0.14160 0.62743-0.99315 0.82435-0.20311
   1   5  -9 4172.76 500.339   6 0.86360-0.65574 0.57063-0.19871 0.20489-0.76035
  -1  -5   9 3120.71 392.081   1-0.08773-0.11793 0.61066-0.98268 0.83204-0.27702
  -1  -5   8 911.648 204.912   1-0.12115-0.08521 0.58668-0.96501 0.84141-0.35261
   1   5  -8 1112.62 251.189   6 0.87775-0.66913 0.52096-0.14251 0.26178-0.75080
   1   5  -7 2353.30 342.692   6 0.88618-0.67679 0.46604-0.08106 0.31868-0.74126
  -1  -5   7 2253.17 318.581   1-0.16444-0.04263 0.55393-0.93856 0.85150-0.42893
   1   5  -6 61.5688 73.7331   6 0.88824-0.67808 0.40573-0.01422 0.37515-0.73129
  -1  -5   6 162.622 84.1891   1-0.21799 0.01023 0.51066-0.90160 0.86070-0.50435
   1   5  -5 42.3793 49.9669   6 0.88321-0.67229 0.34004 0.05800 0.43060-0.72030
   1   5  -4 2443.86 317.723   6 0.87041-0.65873 0.26923 0.13534 0.48421-0.70747
   1   5  -3 5536.21 476.164   6 0.84929-0.63684 0.19391 0.21718 0.53496-0.69178
   1   5  -2 825.708 177.419   6 0.81960-0.60639 0.11520 0.30242 0.58166-0.67204
   1   5  -1 7452.07 528.551   6 0.78166-0.56768 0.03471 0.38944 0.62308-0.64701
   1   5  -1 6438.24 263.200   4 0.29002-0.07827-0.01570 0.43895-0.95181 0.92796
   1   5   0 4809.46 423.906   6 0.73646-0.52172-0.04540 0.47609 0.65812-0.61560
   1   5   0 5252.68 373.339   5 0.84091-0.62729-0.09056 0.51987 0.50606-0.46556
   1   5   1 4732.11 376.823   5 0.85197-0.63729-0.15622 0.59163 0.45188-0.34490
   1   5   1 4028.59 379.856   6 0.68582-0.47031-0.12271 0.55992 0.68605-0.57710
   1   5   2 3353.02 346.569   6 0.63222-0.41595-0.19475 0.63849 0.70674-0.53135
   1   5   2 3991.29 368.683   5 0.85587-0.64013-0.19672 0.63823 0.41642-0.24296
   1   5   3 11847.3 685.792   6 0.57853-0.36149-0.25945 0.70973 0.72069-0.47886
   1   5   3 15132.5 795.792   5 0.85708-0.64028-0.22059 0.66820 0.39475-0.15482
   1   5   4 127.562 96.2139   5 0.85738-0.63952-0.23295 0.68666 0.38330-0.07689
   1   5   4 37.1486 25.5116   6 0.52754-0.30973-0.31542 0.77222 0.72896-0.42069
   1   5   5 1883.95 280.566   6 0.48162-0.26305-0.36199 0.82532 0.73294-0.35822
   1   5   5 2275.16 332.551   3 0.77135-0.55162 0.46982-0.00637-0.45081 0.82525
   1   5   5 2431.84 363.387   5 0.85743-0.63851-0.23698 0.69679 0.37954-0.00665
   1   5   6 77.8765 120.208   5 0.85740-0.63742-0.23473 0.70064 0.38165 0.05772
   1   5   6 52.1519 84.9625   3 0.74681-0.52608 0.56241-0.09251-0.39341 0.83417
   1   5   7 3917.34 440.899   3 0.71389-0.49215 0.64666-0.17030-0.33243 0.83951
   1   5   7 3759.25 468.266   5 0.85727-0.63624-0.22754 0.69955 0.38833 0.11751
   1   5   8 1120.40 238.820   3 0.67355-0.45079 0.72183-0.23901-0.26896 0.84236
   1   5   8 896.940 259.143   5 0.85692-0.63482-0.21636 0.69447 0.39863 0.17368
   1   5   9 325.762 135.063   3 0.62670-0.40293 0.78762-0.29834-0.20387 0.84360
   1   5   9 132.572 92.9559   5 0.85619-0.63304-0.20182 0.68603 0.41183 0.22696
   1   5  10 346.803 172.440   5 0.85492-0.63071-0.18439 0.67470 0.42738 0.27789
   1   5  11 172.010 111.857   5 0.85294-0.62767-0.16438 0.66079 0.44487 0.32688
   1   6 -12 3210.95 531.305   6 0.80485-0.59053 0.67545-0.24061 0.06069-0.80737
   1   6 -11-93.3523 54.9375   6 0.82991-0.61483 0.64055-0.19918 0.11329-0.79353
   1   6 -10 3727.99 518.464   6 0.85085-0.63500 0.60186-0.15396 0.16588-0.77968
  -1  -6   9 267.674 124.317   1-0.21137-0.00257 0.51617-0.97052 0.85976-0.31258
   1   6  -9 5.53114 53.1406   6 0.86744-0.65083 0.55932-0.10489 0.21835-0.76571
   1   6  -8 1975.90 354.637   6 0.87943-0.66205 0.51288-0.05192 0.27052-0.75143
  -1  -6   8 1360.77 253.819   1-0.24634 0.03170 0.48649-0.94714 0.86404-0.38308
   1   6  -7 142.944 109.903   6 0.88649-0.66835 0.46253 0.00496 0.32212-0.73659
   1   6  -6 1685.89 305.187   6 0.88829-0.66938 0.40834 0.06568 0.37282-0.72085
   1   6  -5 98.0322 73.2649   6 0.88447-0.66481 0.35049 0.13006 0.42217-0.70376
   1   6  -4 18.5764 41.6078   6 0.87477-0.65434 0.28931 0.19776 0.46961-0.68476
   1   6  -3 253.541 88.6162   6 0.85901-0.63781 0.22539 0.26822 0.51450-0.66321
   1   6  -2 1072.98 216.108   6 0.83725-0.61528 0.15953 0.34060 0.55613-0.63840
   1   6  -1 143.074 60.2428   6 0.80982-0.58709 0.09284 0.41382 0.59380-0.60962
   1   6   0 8198.60 598.878   6 0.77745-0.55396 0.02666 0.48653 0.62688-0.57626
   1   6   1 5292.73 473.158   6 0.74126-0.51700-0.03748 0.55720 0.65493-0.53787
   1   6   1 6071.51 464.738   5 0.83254-0.60937-0.05503 0.57278 0.53370-0.41917
   1   6   2 3924.04 407.477   6 0.70274-0.47772-0.09804 0.62429 0.67777-0.49427
   1   6   2 4572.83 427.944   5 0.84304-0.61881-0.10094 0.62478 0.49776-0.31675
   1   6   3 4485.00 432.531   6 0.66363-0.43784-0.15357 0.68635 0.69556-0.44561
   1   6   3 5010.68 470.547   5 0.84841-0.62312-0.13102 0.66096 0.47316-0.22567
   1   6   4 2107.69 305.186   6 0.62574-0.39919-0.20291 0.74222 0.70875-0.39236
   1   6   4 3200.88 396.324   5 0.85111-0.62475-0.14949 0.68553 0.45763-0.14366
   1   6   5 116.899 93.9462   3 0.77042-0.54196 0.47423 0.07184-0.44828 0.83076
   1   6   5-28.5901 56.3697   5 0.85234-0.62492-0.15919 0.70133 0.44933-0.06889
   1   6   5 164.408 86.2072   6 0.59078-0.36346-0.24525 0.79109 0.71802-0.33519
   1   6   6 150.180 114.443   3 0.74874-0.51927 0.55641-0.00389-0.39741 0.84622
   1   6   6 58.4856 29.5646   6 0.56017-0.33208-0.28017 0.83254 0.72418-0.27491
   1   6   6 238.016 145.102   5 0.85268-0.62421-0.16209 0.71033 0.44684 0.00008
   1   6   7 2819.48 397.861   3 0.72005-0.48956 0.63295-0.07397-0.34301 0.85814
   1   6   7 3060.80 449.019   5 0.85238-0.62285-0.15956 0.71390 0.44902 0.06438
   1   6   8 8544.93 730.786   3 0.68479-0.45330 0.70303-0.13759-0.28578 0.86723
   1   6   8 8981.98 816.656   5 0.85151-0.62092-0.15257 0.71301 0.45500 0.12487
   1   6   9 10831.8 947.233   5 0.85004-0.61839-0.14182 0.70836 0.46411 0.18223
   1   6   9 11630.3 868.182   3 0.64347-0.41096 0.76610-0.19420-0.22635 0.87412
   1   6  10 141.388 139.710   5 0.84790-0.61519-0.12782 0.70046 0.47581 0.23701
   1   7 -11 627.722 255.313   6 0.83515-0.61132 0.63190-0.10802 0.12551-0.79764
   1   7 -10-7.34262 92.7549   6 0.85394-0.62935 0.59499-0.06458 0.17470-0.78039
   1   7  -9 8474.06 801.432   6 0.86880-0.64344 0.55503-0.01809 0.22338-0.76262
   1   7  -8 3532.38 499.725   6 0.87958-0.65346 0.51209 0.03138 0.27136-0.74417
   1   7  -7 809.789 226.815   6 0.88616-0.65927 0.46627 0.08372 0.31844-0.72481
   1   7  -6 822.363 219.923   6 0.88837-0.66071 0.41775 0.13878 0.36435-0.70427
   1   7  -5 6956.43 640.572   6 0.88610-0.65768 0.36676 0.19630 0.40875-0.68223
   1   7  -4-33.0067 69.1512   6 0.87929-0.65011 0.31368 0.25591 0.45126-0.65830
   1   7  -3 346.383 129.490   6 0.86798-0.63803 0.25900 0.31712 0.49147-0.63207
   1   7  -2 711.756 194.923   6 0.85234-0.62162 0.20336 0.37929 0.52893-0.60309
   1   7  -1 25269.2 1182.03   6 0.83271-0.60124 0.14756 0.44162 0.56322-0.57094
   1   7   0 19519.4 1024.64   6 0.80968-0.57743 0.09252 0.50318 0.59397-0.53525
   1   7   1 3222.48 400.950   6 0.78401-0.55100 0.03927 0.56296 0.62090-0.49574
   1   7   2 1604.87 280.693   6 0.75670-0.52292-0.01114 0.61990 0.64388-0.45227
   1   7   3 1814.96 288.104   6 0.72888-0.49434-0.05768 0.67298 0.66294-0.40489
   1   7   4-49.5821 60.5999   6 0.70178-0.46648-0.09947 0.72129 0.67827-0.35377
   1   7   4-25.0967 76.5462   5 0.83646-0.60162-0.07082 0.68919 0.52156-0.20004
   1   7   5 32.7315 52.8071   3 0.76762-0.53042 0.48694 0.14174-0.44086 0.83139
   1   7   5-24.3099 61.3097   6 0.67659-0.44052-0.13574 0.76409 0.69018-0.29925
   1   7   5 54.4057 92.7491   5 0.83965-0.60374-0.08473 0.70920 0.51067-0.12268
   1   7   6 666.811 199.644   3 0.74749-0.50928 0.56032 0.07482-0.39481 0.85166
   1   7   6 1033.69 255.192   5 0.84115-0.60418-0.09168 0.72225 0.50517-0.05069
   1   7   7 1477.05 311.026   3 0.72141-0.48220 0.62980 0.01180-0.34540 0.86858
   1   7   7 1386.21 322.786   5 0.84141-0.60339-0.09295 0.72962 0.50415 0.01680
   1   7   8 543.346 194.029   3 0.68957-0.44934 0.69459-0.04654-0.29311 0.88261
   1   7   8 562.529 232.891   5 0.84068-0.60160-0.08950 0.73227 0.50690 0.08053
   1   7   9 907.611 251.666   3 0.65218-0.41093 0.75409-0.09958-0.23836 0.89418
   1   7   9 1018.45 298.681   5 0.83905-0.59891-0.08202 0.73089 0.51280 0.14110
   1   8 -10 5719.35 705.836   6 0.85453-0.62118 0.59364 0.01928 0.17642-0.77400
   1   8  -9 920.684 272.987   6 0.86834-0.63423 0.55650 0.06295 0.22167-0.75280
   1   8  -8 468.152 199.205   6 0.87857-0.64370 0.51710 0.10888 0.26598-0.73067
   1   8  -7 127.308 90.6623   6 0.88519-0.64955 0.47561 0.15690 0.30917-0.70742
   1   8  -6 2845.98 429.175   6 0.88818-0.65178 0.43225 0.20679 0.35102-0.68284
   1   8  -5 1536.51 314.354   6 0.88754-0.65038 0.38730 0.25827 0.39130-0.65668
   1   8  -4 747.343 206.086   6 0.88335-0.64542 0.34111 0.31099 0.42974-0.62867
   1   8  -3 1.42876 129.316   6 0.87573-0.63703 0.29411 0.36452 0.46605-0.59854
   1   8  -2 2652.26 386.969   6 0.86491-0.62544 0.24683 0.41832 0.49995-0.56600
   1   8  -1 800.888 219.879   6 0.85123-0.61100 0.19989 0.47179 0.53116-0.53076
   1   8   0 2660.07 383.427   6 0.83516-0.59417 0.15397 0.52424 0.55944-0.49261
   1   8   1-13.7491 44.9946   6 0.81730-0.57555 0.10982 0.57492 0.58463-0.45135
   1   8   2 125.163 83.1620   6 0.79837-0.55585 0.06822 0.62306 0.60660-0.40689
   1   8   3 39.8553 64.3346   6 0.77916-0.53587 0.02992 0.66788 0.62535-0.35919
   1   8   4 511.941 173.304   6 0.76055-0.51650-0.00434 0.70867 0.64093-0.30833
   1   8   4 909.409 255.762   3 0.77746-0.53254 0.43757 0.26727-0.46880 0.80105
   1   8   5 775.515 229.576   3 0.76320-0.51727 0.50540 0.20590-0.42981 0.82839
   1   8   6 56.2009 67.9500   3 0.74386-0.49691 0.57130 0.14646-0.38740 0.85230
   1   8   7 639.548 222.352   3 0.71939-0.47143 0.63446 0.08976-0.34186 0.87308
   1   8   8 913.410 250.716   3 0.68981-0.44084 0.69417 0.03650-0.29347 0.89102
   1   8   9 2509.08 446.459   3 0.65517-0.40519 0.74982-0.01269-0.24254 0.90641
   1   9  -8 490.667 224.169   6 0.87645-0.63283 0.52673 0.18176 0.25545-0.71204
   1   9  -7 1107.52 283.958   6 0.88344-0.63905 0.48932 0.22570 0.29526-0.68540
   1   9  -6 964.154 283.960   6 0.88737-0.64222 0.45066 0.27089 0.33363-0.65734
   1   9  -5 331.907 162.377   6 0.88833-0.64241 0.41105 0.31703 0.37040-0.62766
   1   9  -4 6.09274 46.7074   6 0.88644-0.63976 0.37081 0.36380 0.40536-0.59618
   1   9  -3 266.014 104.126   6 0.88189-0.63444 0.33033 0.41081 0.43831-0.56269
   1   9  -2 3094.28 448.572   6 0.87492-0.62671 0.29006 0.45760 0.46905-0.52699
   1   9  -1 12591.4 910.242   6 0.86586-0.61688 0.25051 0.50369 0.49740-0.48890
   1   9   0 16972.3 1061.89   6 0.85509-0.60535 0.21222 0.54851 0.52319-0.44825
   1   9   1 152.940 120.081   6 0.84312-0.59261 0.17577 0.59148 0.54628-0.40490
   1   9   2 111.876 66.2157   6 0.83047-0.57920 0.14180 0.63198 0.56658-0.35876
   1   9   3-0.55728 75.2159   6 0.81777-0.56574 0.11091 0.66940 0.58403-0.30976
   1   9   4 1184.76 329.446   3 0.77188-0.51823 0.46722 0.32024-0.45230 0.79259
   1   9   5 179.175 132.250   3 0.75722-0.50255 0.52798 0.26594-0.41582 0.82244
   1   9   6 209.150 112.853   3 0.73819-0.48251 0.58747 0.21290-0.37623 0.84917
   1   9   7-264.250 225.936   3 0.71465-0.45796 0.64502 0.16182-0.33371 0.87297
   1  10  -6-25.9562 94.7551   6 0.88558-0.63167 0.47211 0.33194 0.31266-0.62825
   1  10  -5 166.657 130.801   6 0.88802-0.63336 0.43726 0.37333 0.34635-0.59550
   1  10  -4 880.441 261.824   6 0.88815-0.63272 0.40223 0.41489 0.37826-0.56097
   1  10  -3 402.566 177.285   6 0.88616-0.62996 0.36739 0.45626 0.40823-0.52450
   1  10  -2 79.1077 103.383   6 0.88228-0.62532 0.33312 0.49706 0.43611-0.48594
   1  10  -1 316.521 170.489   6 0.87683-0.61910 0.29986 0.53685 0.46176-0.44515
   1  10   0 1148.97 283.248   6 0.87015-0.61165 0.26807 0.57516 0.48503-0.40198
   1  10   1 20.3402 74.4958   6 0.86262-0.60337 0.23826 0.61150 0.50582-0.35633
   1  10   2-54.1758 47.0971   6 0.85471-0.59469 0.21096 0.64534 0.52401-0.30808
   1  10   3 458.543 190.637   3 0.77635-0.51496 0.44395 0.41967-0.46532 0.74733
   1  10   4 555.461 255.461   3 0.76481-0.50242 0.49887 0.37121-0.43376 0.78210
   1  11  -3 35.7379 71.2356   6 0.88822-0.62327 0.40509 0.50107 0.37572-0.48388
   1  11  -2 193.016 140.967   6 0.88684-0.62113 0.37605 0.53664 0.40093-0.44265
   1  11  -1 297.042 156.424   6 0.88422-0.61774 0.34826 0.57096 0.42398-0.39926
   1  11   0 2032.90 387.726   6 0.88066-0.61342 0.32213 0.60361 0.44473-0.35357
  -2  11   1-103.962 164.407   3 0.65248-0.89734 0.75366 0.12542-0.23879 0.38837
  -2  11   0 674.714 249.512   3 0.66647-0.91234 0.73300 0.13962-0.25862 0.34189
  -2  11  -1 1127.80 288.964   3 0.67851-0.92539 0.71372 0.15245-0.27630 0.29324
  -2  11  -2 1021.07 282.208   3 0.68861-0.93651 0.69631 0.16340-0.29163 0.24225
   2 -11   5 150.774 118.541   4 0.74727-0.49243-0.40941-0.43117-0.48624 0.73402
   2 -11   6-254.867 148.092   4 0.76514-0.50938-0.43261-0.40153-0.42673 0.74075
  -2  10   4 765.721 245.175   3 0.60068-0.85124 0.81740-0.00157-0.17043 0.51094
  -2  10   3 1838.57 398.982   3 0.62140-0.87297 0.79402 0.01536-0.19692 0.47111
  -2  10   2-15.4351 108.026   3 0.64009-0.89267 0.77060 0.03232-0.22175 0.42962
   2 -10  -1 337.063 145.756   4 0.50534-0.24761-0.18029-0.61642-0.84252 0.70083
  -2  10   1 651.924 263.943   3 0.65676-0.91035 0.74753 0.04893-0.24477 0.38632
  -2  10   0 232.017 110.512   3 0.67142-0.92602 0.72525 0.06475-0.26582 0.34104
   2 -10   0 264.748 97.9004   4 0.55260-0.29396-0.21964-0.57063-0.80147 0.72602
   2 -10   1 2282.04 382.799   4 0.59722-0.33767-0.25835-0.52549-0.75451 0.74532
  -2  10  -1 2173.73 399.070   3 0.68408-0.93970 0.70427 0.07928-0.28469 0.29359
   2 -10   2 712.853 204.506   4 0.63813-0.37768-0.29554-0.48186-0.70246 0.75951
  -2  10  -2 765.347 238.159   3 0.69474-0.95137 0.68514 0.09195-0.30117 0.24375
   2 -10   3 1905.29 352.756   4 0.67461-0.41325-0.33055-0.44042-0.64631 0.76961
  -2  10  -3 1764.51 341.770   3 0.70338-0.96103 0.66849 0.10214-0.31499 0.19124
   2 -10   4 28.3850 52.4396   4 0.70624-0.44397-0.36289-0.40164-0.58712 0.77666
   2 -10   5 166.084 106.641   4 0.73288-0.46971-0.39229-0.36580-0.52587 0.78166
   2 -10   6-132.342 160.226   4 0.75462-0.49054-0.41863-0.33303-0.46344 0.78548
   2 -10   7 382.706 176.824   4 0.77168-0.50669-0.44194-0.30328-0.40054 0.78882
  -2   9   6 1985.31 393.092   3 0.54874-0.80601 0.86628-0.12015-0.10792 0.57303
  -2   9   5 546.321 201.766   3 0.57450-0.83278 0.84362-0.10394-0.13829 0.53708
   2  -9  -5 1367.24 299.764   4 0.23898 0.02346 0.02062-0.76059-0.96349 0.56482
  -2   9   4 1075.67 282.992   3 0.59824-0.85754 0.81999-0.08677-0.16738 0.49984
   2  -9  -4 752.750 211.426   4 0.28789-0.02454-0.01417-0.71937-0.95239 0.61997
  -2   9   3 131.469 143.870   3 0.61994-0.88025 0.79576-0.06900-0.19502 0.46116
   2  -9  -3 89.5192 80.3633   4 0.34069-0.07644-0.05267-0.67443-0.93542 0.66924
  -2   9   2 140.557 151.217   3 0.63958-0.90090 0.77127-0.05097-0.22106 0.42088
   2  -9  -2 86.6591 44.1906   4 0.39598-0.13082-0.09414-0.62653-0.91156 0.71163
  -2   9   1 220.685 114.262   3 0.65715-0.91948 0.74695-0.03311-0.24533 0.37883
   2  -9  -1 225.872 82.1034   4 0.45207-0.18600-0.13756-0.57666-0.88016 0.74649
  -2   9   0 646.351 208.782   3 0.67266-0.93600 0.72327-0.01588-0.26764 0.33482
   2  -9   0 1225.90 274.807   4 0.50714-0.24017-0.18176-0.52603-0.84110 0.77367
  -2   9  -1 46.6859 69.7015   3 0.68610-0.95045 0.70075 0.00018-0.28777 0.28862
   2  -9   1 206.725 111.394   4 0.55949-0.29161-0.22551-0.47584-0.79478 0.79360
  -2   9  -2 554.401 171.860   3 0.69745-0.96281 0.68004 0.01443-0.30545 0.23998
   2  -9   2 646.896 203.478   4 0.60768-0.33889-0.26769-0.42723-0.74211 0.80718
  -2   9  -3 1776.98 311.794   3 0.70667-0.97305 0.66186 0.02616-0.32037 0.18858
   2  -9   3 1291.36 284.833   4 0.65071-0.38101-0.30738-0.38110-0.68431 0.81562
   2  -9   4 4532.96 540.541   4 0.68799-0.41739-0.34396-0.33809-0.62270 0.82026
   2  -9   5 164.682 115.905   4 0.71936-0.44785-0.37706-0.29856-0.55859 0.82239
   2  -9   6 370.313 158.180   4 0.74493-0.47252-0.40655-0.26263-0.49309 0.82314
   2  -9   7-52.2550 106.516   4 0.76504-0.49171-0.43248-0.23027-0.42709 0.82339
   2  -9   8 1596.40 359.613   4 0.78009-0.50586-0.45499-0.20132-0.36128 0.82382
  -2   8   8 889.334 287.335   3 0.47913-0.74311 0.91495-0.23852-0.03089 0.62061
  -2   8   7 799.535 264.616   3 0.50997-0.77496 0.89544-0.22547-0.06419 0.58759
  -2   8   6 1309.87 320.004   3 0.53872-0.80473 0.87436-0.21084-0.09640 0.55347
  -2   8   5 2801.76 457.109   3 0.56555-0.83257 0.85182-0.19476-0.12761 0.51835
  -2   8   4 64.1342 49.2721   3 0.59042-0.85845 0.82809-0.17749-0.15766 0.48209
   2  -8  -4-42.0151 103.289   4 0.21374 0.05794 0.03827-0.68932-0.96758 0.64317
  -2   8   3-247.805 179.641   3 0.61325-0.88229 0.80352-0.15938-0.18637 0.44448
   2  -8  -3 95.2022 92.1874   4 0.27200 0.00058-0.00278-0.64184-0.95646 0.69830
  -2   8   2-118.414 107.040   3 0.63401-0.90407 0.77848-0.14079-0.21357 0.40535
   2  -8  -2 12.2830 62.2906   4 0.33407-0.06058-0.04778-0.59040-0.93784 0.74593
  -2   8   1 545.808 189.682   3 0.65269-0.92375 0.75337-0.12214-0.23907 0.36453
   2  -8  -1 306.024 113.744   4 0.39794-0.12354-0.09563-0.53611-0.91059 0.78492
   2  -8   0 753.504 195.661   4 0.46135-0.18605-0.14490-0.48041-0.87419 0.81477
  -2   8   0 494.435 173.890   3 0.66924-0.94131 0.72870-0.10393-0.26263 0.32177
  -2   8  -1 151.480 122.485   3 0.68362-0.95671 0.70505-0.08674-0.28400 0.27681
   2  -8   1 50.0416 74.1440   4 0.52204-0.24583-0.19402-0.42485-0.82892 0.83575
  -2   8  -2 1342.04 249.478   3 0.69581-0.96991 0.68314-0.07128-0.30286 0.22934
   2  -8   2 1103.18 246.422   4 0.57808-0.30096-0.24154-0.37090-0.77575 0.84883
   2  -8   3 14857.9 943.736   4 0.62808-0.35005-0.28623-0.31977-0.71619 0.85551
  -2   8  -3 14138.4 841.689   3 0.70572-0.98084 0.66379-0.05839-0.31881 0.17897
  -2   8  -4 564.607 159.182   3 0.71326-0.98938 0.64804-0.04910-0.33135 0.12519
   2  -8   4 273.837 117.786   4 0.67127-0.39233-0.32726-0.27231-0.65193 0.85750
   2  -8   5 925.234 243.221   4 0.70743-0.42759-0.36415-0.22898-0.58465 0.85646
   2  -8   6 203.053 124.494   4 0.73675-0.45600-0.39678-0.18991-0.51578 0.85384
   2  -8   7 1574.96 338.142   4 0.75968-0.47803-0.42523-0.15503-0.44646 0.85077
   2  -8   8-44.1859 60.4935   4 0.77681-0.49425-0.44972-0.12410-0.37752 0.84807
   2  -8   9 286.092 182.431   4 0.78873-0.50526-0.47056-0.09683-0.30951 0.84631
   2  -8  11 155.852 111.040   2 0.77141-0.48941 0.35261-0.90508 0.60939 0.06216
  -2   7   9 68.4740 76.5853   3 0.42606-0.69776 0.94199-0.34172 0.02379 0.62420
  -2   7   8 1566.74 365.092   3 0.46007-0.73279 0.92556-0.33174-0.01090 0.59257
  -2   7   7 1957.28 393.176   3 0.49188-0.76561 0.90725-0.31989-0.04452 0.55987
  -2   7   6 4461.32 564.444   3 0.52181-0.79655 0.88712-0.30622-0.07732 0.52634
  -2   7   5 253.143 100.767   3 0.54971-0.82547 0.86548-0.29104-0.10904 0.49174
  -2   7   4 441.810 159.060   3 0.57571-0.85248 0.84248-0.27449-0.13974 0.45612
  -2   7   3 480.996 190.400   3 0.59976-0.87754 0.81839-0.25686-0.16927 0.41933
   2  -7  -3 69.0597 97.3901   4 0.20239 0.07853 0.04613-0.60826-0.96907 0.71892
  -2   7   2 1132.07 248.836   3 0.62176-0.90055 0.79359-0.23852-0.19739 0.38112
   2  -7  -2 1040.73 224.413   4 0.27124 0.01059-0.00223-0.55347-0.95665 0.77275
  -2   7   1-10.7906 81.0884   3 0.64166-0.92146 0.76852-0.21991-0.22388 0.34129
   2  -7  -1 72.1403 97.2117   4 0.34327-0.06054-0.05458-0.49469-0.93445 0.81679
   2  -7   0 2412.50 338.972   4 0.41567-0.13203-0.10921-0.43361-0.90142 0.85001
  -2   7   0 2485.30 353.528   3 0.65938-0.94019 0.74369-0.20153-0.24848 0.29957
  -2   7  -1-47.9907 53.3747   3 0.67485-0.95667 0.71974-0.18404-0.27086 0.25563
   2  -7   1 75.8835 56.4557   4 0.48547-0.20092-0.16417-0.37222-0.85754 0.87238
  -2   7  -2 127.308 89.9325   3 0.68796-0.97080 0.69747-0.16823-0.29062 0.20907
   2  -7   2-19.0184 70.6984   4 0.55006-0.26461-0.21749-0.31246-0.80388 0.88497
  -2   7  -3 20.5504 55.9050   3 0.69858-0.98243 0.67788-0.15509-0.30726 0.15938
   2  -7   3-48.6171 109.805   4 0.60755-0.32119-0.26757-0.25595-0.74227 0.88960
  -2   7  -4 1147.59 201.962   3 0.70649-0.99136 0.66223-0.14590-0.32007 0.10587
   2  -7   4 1068.31 242.538   4 0.65691-0.36964-0.31330-0.20378-0.67492 0.88850
   2  -7   5 34.4599 52.0005   4 0.69786-0.40968-0.35410-0.15655-0.60399 0.88382
   2  -7   6 244.292 111.988   4 0.73073-0.44165-0.38982-0.11439-0.53133 0.87741
   2  -7   6 198.901 73.1932   2 0.80428-0.51826 0.39540-0.89810 0.54464-0.19763
   2  -7   7 630.698 215.099   4 0.75617-0.46618-0.42063-0.07715-0.45838 0.87070
   2  -7   7 657.595 193.807   2 0.81135-0.52440 0.40534-0.90148 0.52832-0.11477
   2  -7   8-78.4494 104.771   5 0.36399-0.07267-0.78958 0.29738-0.48728 0.97168
   2  -7   8 28.6394 53.3503   4 0.77496-0.48407-0.44687-0.04448-0.38611 0.86468
   2  -7   8-22.4838 112.792   2 0.81440-0.52652 0.40973-0.89932 0.52094-0.04086
   2  -7   9-25.9952 63.9483   4 0.78792-0.49611-0.46895-0.01596-0.31517 0.85998
   2  -7   9-67.4427 91.6793   2 0.81465-0.52584 0.41010-0.89313 0.52031 0.02630
   2  -7  10 483.252 175.918   2 0.81278-0.52304 0.40739-0.88387 0.52488 0.08827
   2  -7  11 142.978 150.296   2 0.80914-0.51847 0.40220-0.87212 0.53352 0.14616
  -2   6  10 387.696 164.764   3 0.36202-0.64146 0.96518-0.44106 0.08599 0.62029
  -2   6   9 12.4359 62.9497   3 0.39822-0.67867 0.95324-0.43559 0.05130 0.58865
  -2   6   8-21.5463 54.2907   3 0.43244-0.71390 0.93914-0.42794 0.01737 0.55625
  -2   6   7-9.27250 69.7500   3 0.46529-0.74775 0.92276-0.41802-0.01633 0.52363
  -2   6   6 608.685 199.479   3 0.49603-0.77951 0.90463-0.40635-0.04899 0.48997
  -2   6   5 950.210 235.192   3 0.52494-0.80943 0.88484-0.39301-0.08081 0.45547
  -2   6   4 164.365 116.830   3 0.55193-0.83744 0.86363-0.37826-0.11162 0.41996
  -2   6   3 709.591 194.449   3 0.57702-0.86353 0.84124-0.36233-0.14132 0.38333
  -2   6   2 215.926 115.350   3 0.60013-0.88766 0.81799-0.34553-0.16974 0.34543
   2  -6  -2 104.818 51.9706   4 0.20776 0.08240 0.04242-0.51563-0.96839 0.79250
   2  -6  -1 6215.45 534.588   4 0.28840 0.00266-0.01454-0.45224-0.95225 0.84261
  -2   6   1 6718.52 554.429   3 0.62114-0.90968 0.79434-0.32834-0.19658 0.30594
  -2   6   0 1091.64 209.720   3 0.63991-0.92946 0.77083-0.31129-0.22151 0.26456
   2  -6   0 1111.21 222.930   4 0.37061-0.07864-0.07495-0.38539-0.92332 0.87993
  -2   6  -1 196.319 74.6904   3 0.65630-0.94686 0.74819-0.29511-0.24413 0.22086
   2  -6   1 89.6359 49.7261   4 0.45050-0.15762-0.13633-0.31758-0.88115 0.90400
  -2   6  -2 187.082 94.6837   3 0.67010-0.96167 0.72734-0.28072-0.26389 0.17429
   2  -6   2 121.307 87.1817   4 0.52452-0.23073-0.19608-0.25139-0.82682 0.91592
   2  -6   3 72150.0 2209.31   4 0.59008-0.29539-0.25204-0.18900-0.76264 0.91798
   2  -6   3 74205.7 1802.78   2 0.81957-0.52767 0.41734-0.85717 0.50789-0.35234
  -2   6  -3 72849.3 1948.65   3 0.68100-0.97359 0.70954-0.26937-0.28004 0.12411
   2  -6   4 6391.93 579.642   4 0.64582-0.35022-0.30275-0.13185-0.69150 0.91310
   2  -6   4 6765.55 475.337   2 0.83713-0.54430 0.44511-0.87838 0.45730-0.23522
  -2   6  -4 6976.49 460.532   3 0.68852-0.98212 0.69647-0.26276-0.29149 0.06925
   2  -6   5 5428.69 544.911   4 0.69147-0.39496-0.34751-0.08066-0.61625 0.90409
   2  -6   5 5171.08 453.932   2 0.84515-0.55139 0.45920-0.88591 0.42965-0.14103
   2  -6   6 66.5798 94.5825   4 0.72754-0.43012-0.38619-0.03554-0.53925 0.89333
   2  -6   6 29.8812 100.284   2 0.84856-0.55387 0.46556-0.88571 0.41667-0.06152
   2  -6   7 1092.67 258.729   4 0.75499-0.45666-0.41910 0.00381-0.46226 0.88259
   2  -6   7 1291.68 247.309   2 0.84933-0.55370 0.46703-0.88062 0.41363 0.00805
   2  -6   8 39.4032 62.3368   5 0.40291-0.10310-0.78336 0.37349-0.45415 0.94610
   2  -6   8-57.5009 83.5656   4 0.77489-0.47566-0.44675 0.03789-0.38645 0.87303
   2  -6   8 1.20709 74.2175   2 0.84831-0.55176 0.46509-0.87212 0.41764 0.07057
   2  -6   9 974.701 226.614   5 0.48645-0.18558-0.76208 0.35830-0.37555 0.93398
   2  -6   9 1361.11 338.872   4 0.78830-0.48816-0.46971 0.06728-0.31252 0.86535
   2  -6   9 1270.80 283.700   2 0.84591-0.54843 0.46059-0.86107 0.42683 0.12792
   2  -6  10 669.348 222.689   2 0.84229-0.54388 0.45405-0.84797 0.43993 0.18135
   2  -6  11 772.327 244.703   2 0.83751-0.53817 0.44576-0.83312 0.45606 0.23175
   2  -6  12-9.14516 53.2938   2 0.83156-0.53129 0.43592-0.81673 0.47459 0.27976
  -2   5  11 319.028 153.485   3 0.28643-0.57359 0.98123-0.53327 0.15487 0.60968
  -2   5  10 774.618 243.549   3 0.32458-0.61275 0.97455-0.53306 0.12068 0.57755
  -2   5   9 255.438 123.116   3 0.36059-0.64977 0.96559-0.53055 0.08734 0.54457
  -2   5   8 64.7235 63.6947   3 0.39513-0.68532 0.95438-0.52580 0.05431 0.51127
  -2   5   7 1512.07 310.884   3 0.42779-0.71899 0.94123-0.51910 0.02206 0.47720
  -2   5   6 27670.8 1348.48   3 0.45913-0.75135 0.92605-0.51038-0.00992 0.44286
  -2   5   5 198.424 93.7934   3 0.48843-0.78166 0.90938-0.50017-0.04081 0.40743
  -2   5   4 5536.71 532.523   3 0.51588-0.81012 0.89134-0.48859-0.07072 0.37102
  -2   5   3 304.745 121.838   3 0.54138-0.83663 0.87226-0.47596-0.09944 0.33341
  -2   5   2 677.296 173.602   3 0.56485-0.86111 0.85245-0.46261-0.12677 0.29442
  -2   5   1 660.575 158.060   3 0.58617-0.88345 0.83235-0.44897-0.15245 0.25377
   2  -5  -1 491.875 145.528   4 0.23375 0.06565 0.02430-0.40860-0.96442 0.86280
  -2   5   0 619.798 145.114   3 0.60508-0.90337 0.81265-0.43572-0.17597 0.21097
   2  -5   0 550.291 144.042   4 0.32681-0.02650-0.04245-0.33542-0.94040 0.90502
   2  -5   1 1037.89 113.878   2 0.84353-0.54481 0.45625-0.82663 0.43556-0.40494
  -2   5  -1 1075.40 181.273   3 0.62124-0.92054 0.79421-0.42375-0.19671 0.16539
   2  -5   1 999.499 195.967   4 0.41803-0.11682-0.11103-0.26039-0.90014 0.93100
  -2   5  -2 95.0641 64.5792   3 0.63418-0.93449 0.77827-0.41426-0.21379 0.11615
   2  -5   2 29.6972 73.3149   4 0.50255-0.20043-0.17801-0.18698-0.84471 0.94182
   2  -5   3 252.070 84.8575   4 0.57682-0.27380-0.24045-0.11811-0.77709 0.94045
  -2   5  -3 327.044 87.0587   3 0.64310-0.94442 0.76659-0.40904-0.22585 0.06188
   2  -5   4 7063.81 581.795   4 0.63907-0.33514-0.29642-0.05570-0.70114 0.93075
  -2   5  -4 7295.77 410.222   3 0.64658-0.94891 0.76188-0.41079-0.23061 0.00032
  -2   5  -5 491.368 95.6970   3 0.64160-0.94495 0.76860-0.42396-0.22381-0.07281
   2  -5   5 469.989 186.288   4 0.68911-0.38427-0.34510-0.00058-0.62064 0.91649
   2  -5   6 1178.97 266.126   4 0.72780-0.42206-0.38649 0.04724-0.53860 0.90070
   2  -5   7 180.860 98.2551   5 0.36270-0.05545-0.78975 0.45611-0.48835 0.92137
   2  -5   7 163.614 107.345   4 0.75653-0.44988-0.42110 0.08829-0.45717 0.88551
   2  -5   8 4351.60 520.089   4 0.77678-0.46922-0.44968 0.12331-0.37765 0.87224
   2  -5   8 3258.25 412.238   5 0.44936-0.14105-0.77295 0.44541-0.41180 0.91130
   2  -5   9 302.488 134.582   5 0.52670-0.21733-0.74739 0.42595-0.33350 0.89948
   2  -5   9 426.135 174.361   4 0.78993-0.48146-0.47303 0.15308-0.30074 0.86158
   2  -5  10-135.485 113.381   5 0.59469-0.28426-0.71455 0.39921-0.25491 0.88736
   2  -5  11 412.493 148.342   5 0.65368-0.34219-0.67574 0.36650-0.17698 0.87591
   2  -5  11 712.239 228.132   2 0.85726-0.54926 0.48328-0.78810 0.37870 0.31725
   2  -5  12 126.858 134.324   2 0.85162-0.54268 0.47151-0.76976 0.40424 0.35825
  -2   4  12 64.1633 65.9722   3 0.20036-0.49524 0.98651-0.61471 0.22809 0.59474
  -2   4  11 861.767 261.060   3 0.23926-0.53516 0.98573-0.62040 0.19564 0.56087
  -2   4  10 161.287 65.0712   3 0.27632-0.57322 0.98253-0.62365 0.16375 0.52644
  -2   4   9 1857.23 358.282   3 0.31202-0.60993 0.97706-0.62464 0.13206 0.49180
  -2   4   8 284.049 108.128   3 0.34570-0.64463 0.96962-0.62366 0.10126 0.45628
  -2   4   7 39.3503 111.347   3 0.37772-0.67766 0.96036-0.62085 0.07109 0.42013
  -2   4   6 77.2787 68.6301   3 0.40797-0.70893 0.94951-0.61646 0.04175 0.38315
  -2   4   5 16460.8 927.145   3 0.43638-0.73835 0.93732-0.61073 0.01339 0.34518
  -2   4   4 530.648 145.305   3 0.46314-0.76611 0.92392-0.60378-0.01409 0.30634
  -2   4   3 3448.09 373.387   3 0.48752-0.79151 0.90994-0.59626-0.03983 0.26576
  -2   4   2 411.462 109.403   3 0.50956-0.81456 0.89572-0.58850-0.06375 0.22335
  -2   4   1 3808.21 353.721   3 0.52873-0.83474 0.88202-0.58126-0.08508 0.17836
   2  -4   0 3515.19 360.593   4 0.28509 0.02355-0.01215-0.28323-0.95314 0.92577
  -2   4   0 3857.16 337.164   3 0.54475-0.85177 0.86955-0.57524-0.10331 0.13027
   2  -4   1 19003.3 884.661   4 0.38925-0.07971-0.08902-0.19992-0.91482 0.95370
  -2   4  -1 19508.5 769.858   3 0.55659-0.86462 0.85968-0.57183-0.11705 0.07769
  -2   4  -2 6127.91 227.917   1 0.08373-0.39320 0.71615-0.43376 0.76286-0.86757
   2  -4   2 6681.04 508.803   4 0.48560-0.17514-0.16427-0.11824-0.85745 0.96258
  -2   4  -2 6794.27 401.111   3 0.56274-0.87178 0.85432-0.57293-0.12428 0.01859
   2  -4   3 33186.3 1255.63   4 0.56923-0.25787-0.23387-0.04220-0.78500 0.95637
  -2   4  -3 32737.9 950.863   3 0.56019-0.87025 0.85656-0.58162-0.12128-0.05073
   2  -4   4 13359.2 783.547   4 0.63790-0.32564-0.29533 0.02569-0.70278 0.94040
  -2   4  -4 13622.6 499.231   3 0.54206-0.85313 0.87171-0.60324-0.10022-0.13811
   2  -4   5 1843.79 295.978   4 0.69170-0.37852-0.34774 0.08454-0.61581 0.91968
  -2   4  -5 1673.51 132.364   3 0.48628-0.79836 0.91069-0.64867-0.03851-0.26615
   2  -4   6 1280.07 250.637   4 0.73207-0.41799-0.39135 0.13459-0.52795 0.89806
   2  -4   7 631.434 168.413   5 0.42227-0.10653-0.77944 0.52813-0.43689 0.87746
   2  -4   7 641.672 180.029   4 0.76104-0.44606-0.42705 0.17671-0.44168 0.87804
   2  -4   8 891.396 210.345   5 0.50154-0.18474-0.75694 0.51173-0.36014 0.86719
   2  -4   8 1094.61 264.679   4 0.78064-0.46474-0.45590 0.21201-0.35840 0.86100
   2  -4   9 748.736 190.844   5 0.57100-0.25314-0.72726 0.48815-0.28349 0.85702
   2  -4  10-23.2490 62.8833   5 0.63120-0.31228-0.69186 0.45885-0.20793 0.84794
   2  -4  11 2663.71 411.633   5 0.68289-0.36291-0.65186 0.42495-0.13400 0.84049
   2  -4  12 1425.38 297.230   5 0.72680-0.40576-0.60810 0.38729-0.06197 0.83494
  -2   3  13-111.995 146.451   3 0.10515-0.40775 0.97790-0.68227 0.30329 0.57782
  -2   3  12 435.768 187.289   3 0.14425-0.44787 0.98319-0.69401 0.27311 0.54168
  -2   3  11 948.805 266.184   3 0.18150-0.48613 0.98597-0.70325 0.24345 0.50501
  -2   3  10 117.552 57.1972   3 0.21708-0.52272 0.98649-0.71023 0.21427 0.46787
  -2   3   9 264.102 132.896   3 0.25062-0.55728 0.98501-0.71521 0.18597 0.42985
  -2   3   8 4696.25 519.790   3 0.28225-0.58992 0.98179-0.71844 0.15855 0.39095
  -2   3   7-137.580 101.995   3 0.31233-0.62100 0.97700-0.72011 0.13178 0.35139
  -2   3   6 56493.3 1892.61   3 0.34005-0.64974 0.97103-0.72060 0.10649 0.31036
  -2   3   5 2941.08 357.360   3 0.36552-0.67622 0.96415-0.72018 0.08269 0.26784
  -2   3   4 10969.8 684.467   3 0.38857-0.70028 0.95672-0.71920 0.06067 0.22354
   2  -3  -3 734.635 75.0158   6 0.83476-0.52132 0.63256-0.86341 0.12459-0.34430
  -2   3   3 815.849 172.086   3 0.40858-0.72130 0.94928-0.71821 0.04115 0.17673
   2  -3  -2 16453.7 472.219   2 0.75896-0.44570 0.33751-0.56246 0.63030-0.78301
  -2   3   2 16882.3 777.642   3 0.42497-0.73871 0.94246-0.71786 0.02487 0.12669
  -2   3   1 1435.71 202.564   3 0.43688-0.75163 0.93709-0.71894 0.01288 0.07235
   2  -3   0 30138.0 1101.13   4 0.24657 0.07041 0.01528-0.22818-0.96204 0.94269
  -2   3   0 30179.8 993.541   3 0.44248-0.75824 0.93444-0.72275 0.00720 0.01172
   2  -3   1 1300.54 202.803   4 0.36581-0.04793-0.07135-0.13511-0.92539 0.97228
  -2   3  -1 1316.15 167.512   3 0.43878-0.75555 0.93620-0.73097 0.01096-0.05837
   2  -3   2 33196.7 1151.01   4 0.47559-0.15681-0.15624-0.04379-0.86456 0.97770
  -2   3  -2 32491.9 885.142   3 0.41952-0.73731 0.94480-0.74602 0.03031-0.14405
   2  -3   3 19556.3 873.970   4 0.56912-0.24943-0.23378 0.04019-0.78511 0.96449
  -2   3  -3 17344.6 556.681   3 0.37012-0.68892 0.96276-0.77044 0.07833-0.25838
   2  -3   4-22.8443 49.5100   4 0.64372-0.32312-0.30078 0.11362-0.69454 0.94017
  -2   3  -4 5.15070 15.6725   3 0.23765-0.55746 0.98582-0.79996 0.19700-0.44338
   2  -3   5 2793.04 344.685   4 0.70008-0.37857-0.35641 0.17569-0.59962 0.91150
   2  -3   6 714.444 177.236   5 0.40723-0.08405-0.78254 0.60746-0.45035 0.83200
   2  -3   6 818.729 204.729   4 0.74067-0.41826-0.40142 0.22714-0.50513 0.88326
   2  -3   7 6.13959 65.3000   5 0.48734-0.16310-0.76178 0.59281-0.37466 0.82279
   2  -3   7 44.3845 46.9446   4 0.76845-0.44513-0.43727 0.26942-0.41384 0.85821
   2  -3   8-162.468 85.1600   5 0.55707-0.23178-0.73407 0.57119-0.29967 0.81428
   2  -3   8-84.0928 107.444   4 0.78611-0.46188-0.46550 0.30409-0.32700 0.83761
   2  -3   9 212.707 116.499   5 0.61728-0.29093-0.70098 0.54421-0.22629 0.80737
   2  -3  10 1083.03 254.972   5 0.66892-0.34151-0.66372 0.51305-0.15497 0.80254
   2  -3  11 2410.90 380.980   5 0.71292-0.38444-0.62314 0.47856-0.08588 0.79992
   2  -3  12-4.62191 65.9226   5 0.75008-0.42054-0.57980 0.44132-0.01898 0.79949
   2  -3  13 1059.75 279.024   5 0.78108-0.45048-0.53407 0.40169 0.04587 0.80112
  -2   2  13 880.614 266.239   3 0.04190-0.35324 0.96433-0.75131 0.35009 0.52298
  -2   2  12-59.6672 128.307   3 0.07853-0.39088 0.97294-0.76638 0.32328 0.48346
  -2   2  11 412.711 181.504   3 0.11312-0.42649 0.97917-0.77907 0.29721 0.44321
  -2   2  10 302.439 133.825   2 0.68346-0.99796 0.25408-0.05922 0.73060-0.05376
  -2   2  10 137.281 111.289   3 0.14565-0.46003 0.98334-0.78969 0.27201 0.40209
  -2   2   9 2387.59 375.300   3 0.17606-0.49145 0.98570-0.79851 0.24784 0.35993
  -2   2   8 411.566 138.898   3 0.20422-0.52063 0.98655-0.80581 0.22491 0.31654
  -2   2   7 1741.16 293.892   3 0.23012-0.54753 0.98615-0.81187 0.20336 0.27177
  -2   2   6 844.967 199.141   3 0.25278-0.57121 0.98485-0.81703 0.18412 0.22469
   2  -2  -5 3917.10 175.331   6 0.88077-0.56011 0.50579-0.66719 0.27807-0.62256
  -2   2   5 5195.55 466.244   3 0.27224-0.59168 0.98301-0.82165 0.16730 0.17518
   2  -2  -4 1726.95 124.708   6 0.81282-0.49139 0.09956-0.25443 0.59021-0.86825
  -2   2   4 2224.40 284.383   3 0.28814-0.60859 0.98099-0.82609 0.15336 0.12280
  -2   2   3 81.0421 40.3893   3 0.29900-0.62046 0.97934-0.83089 0.14373 0.06611
   2  -2  -3 17.9751 18.8037   6 0.53408-0.21189-0.30850 0.16016 0.72814-0.93975
  -2   2   2 7411.27 478.120   3 0.30353-0.62600 0.97858-0.83660 0.13968 0.00383
  -2   2   1 7791.58 460.733   3 0.29873-0.62221 0.97938-0.84385 0.14397-0.06678
   2  -2   0 9540.05 539.493   4 0.21286 0.11244 0.03888-0.16929-0.96770 0.95636
  -2   2   0 9406.91 476.953   3 0.28046-0.60496 0.98202-0.85295 0.16012-0.14925
  -2   2  -1 12123.3 452.349   1-0.04979-0.27554 0.63652-0.51247 0.81975-0.87391
   2  -2   1 12362.8 627.239   4 0.35008-0.02387-0.05962-0.06436-0.93182 0.98673
  -2   2  -1 11867.0 497.716   3 0.23989-0.56540 0.98570-0.86308 0.19511-0.25056
   2  -2   2 13221.1 651.998   4 0.47522-0.14810-0.15594 0.03839-0.86482 0.98597
  -2   2  -2 12163.5 458.653   3 0.15873-0.48525 0.98454-0.86838 0.26169-0.38346
   2  -2   3 346.880 56.8423   3 0.74583-0.41829 0.56542-0.67512-0.39139 0.57949
   2  -2   3 406.661 104.600   4 0.57882-0.25079-0.24218 0.13107-0.77497 0.96236
  -2   2  -3 409.231 61.8575   3-0.01587-0.31166 0.94661-0.83691 0.39071-0.57880
   2  -2   4 7917.43 526.335   4 0.65800-0.32907-0.31436 0.20969-0.67322 0.92687
   2  -2   4 5929.96 257.709   1-0.03080 0.35823 0.64892-0.75406 0.81296-0.56014
   2  -2   5 12061.7 694.517   4 0.71486-0.38502-0.37214 0.27390-0.56869 0.88858
   2  -2   5 10223.9 653.672   5 0.40690-0.07629-0.78260 0.68375-0.45064 0.77337
   2  -2   6 4058.47 421.705   4 0.75351-0.42276-0.41721 0.32541-0.46703 0.85317
   2  -2   6 3744.98 402.208   5 0.48619-0.15452-0.76216 0.66941-0.37582 0.76503
   2  -2   7 5166.35 513.779   4 0.77817-0.44652-0.45188 0.36651-0.37094 0.82333
   2  -2   7 5094.86 487.517   5 0.55456-0.22183-0.73525 0.64861-0.30255 0.75824
   2  -2   8-6.84924 44.6079   5 0.61321-0.27942-0.70354 0.62299-0.23155 0.75371
   2  -2   9 1024.80 244.719   5 0.66337-0.32853-0.66820 0.59376-0.16308 0.75172
   2  -2  10 1216.72 273.278   5 0.70613-0.37022-0.63005 0.56171-0.09715 0.75227
   2  -2  11 357.167 152.093   5 0.74240-0.40543-0.58962 0.52737-0.03361 0.75521
   2  -2  12 323.076 161.589   5 0.77291-0.43488-0.54722 0.49107 0.02775 0.76032
   2  -2  13 409.044 215.472   5 0.79824-0.45915-0.50302 0.45297 0.08718 0.76737
   2  -2  14 584.616 246.321   5 0.81882-0.47867-0.45707 0.41312 0.14493 0.77610
  -2   1  13 498.019 187.698   3-0.02934-0.29074 0.94175-0.81135 0.39989 0.46514
  -2   1  12 11.3040 88.7254   3 0.00389-0.32498 0.95324-0.82929 0.37704 0.42166
  -2   1  11 1970.20 374.676   3 0.03475-0.35686 0.96241-0.84492 0.35523 0.37715
  -2   1  10 3701.46 477.268   3 0.06314-0.38626 0.96957-0.85854 0.33464 0.33141
  -2   1   9 861.675 211.520   3 0.08887-0.41300 0.97499-0.87042 0.31557 0.28416
  -2   1   8 11369.2 788.121   3 0.11165-0.43679 0.97895-0.88083 0.29834 0.23507
  -2   1   7 685.289 167.500   3 0.13107-0.45722 0.98168-0.89002 0.28339 0.18369
   2  -1  -6 4341.84 266.665   6 0.88528-0.55663 0.47481-0.56023 0.30996-0.71278
  -2   1   6 3894.32 408.255   3 0.14653-0.47369 0.98343-0.89822 0.27132 0.12944
   2  -1  -5 483.568 84.5161   6 0.87125-0.54184 0.27290-0.35179 0.48158-0.81796
  -2   1   5 591.771 157.953   3 0.15719-0.48536 0.98441-0.90567 0.26291 0.07153
   2  -1  -4 2724.00 205.096   6 0.77325-0.44307 0.01876-0.09112 0.63055-0.90049
  -2   1   4 2616.07 306.972   3 0.16178-0.49097 0.98478-0.91249 0.25926 0.00886
   2  -1  -3 9.78081 25.3575   6 0.59226-0.26131-0.24352 0.17769 0.71768-0.92118
  -2   1   3-30.5727 68.7868   3 0.15844-0.48864 0.98451-0.91868 0.26191-0.06012
  -2   1   2 2235.75 254.027   3 0.14426-0.47547 0.98319-0.92382 0.27310-0.13763
  -2   1   1 925.312 146.552   3 0.11455-0.44677 0.97939-0.92648 0.29612-0.22697
  -2   1   0 3901.88 280.428   1-0.01292-0.31998 0.66027-0.61224 0.80617-0.80194
  -2   1   0 4140.92 293.698   3 0.06145-0.39469 0.96918-0.92272 0.33588-0.33306
   2  -1   1 494.475 111.512   4 0.34563-0.01109-0.05632 0.01483-0.93355 0.99646
  -2   1  -1 473.929 94.1674   1-0.22279-0.11081 0.50663-0.46490 0.86134-0.92333
  -2   1  -1 511.908 96.2551   3-0.02870-0.30554 0.94199-0.90199 0.39945-0.46295
  -2   1  -2 12688.1 468.333   3-0.18008-0.15517 0.86835-0.83481 0.49497-0.62479
   2  -1   2 14983.1 659.129   4 0.48828-0.15283-0.16643 0.13137-0.85549 0.98466
   2  -1   3 22518.3 867.273   4 0.60111-0.26475-0.26181 0.23319-0.74996 0.94537
   2  -1   3 19692.5 545.910   3 0.45564-0.11937 0.92787-0.95496-0.00631 0.20245
   2  -1   4 3008.91 306.569   4 0.68203-0.34476-0.33794 0.31575-0.63346 0.89511
   2  -1   4 2866.41 319.355   5 0.42460-0.08656-0.77893 0.75631-0.43477 0.69858
   2  -1   5 12911.3 700.378   4 0.73595-0.39777-0.39585 0.38009-0.51790 0.84580
   2  -1   5 12222.8 713.615   5 0.50050-0.16140-0.75731 0.74079-0.36121 0.69150
   2  -1   6 2303.36 304.322   4 0.76958-0.43050-0.43888 0.42956-0.40928 0.80343
   2  -1   6 1751.29 277.867   5 0.56517-0.22500-0.73017 0.71975-0.29032 0.68708
   2  -1   7 4305.66 443.166   4 0.78873-0.44874-0.47056 0.46768-0.30952 0.76992
   2  -1   7 3816.87 430.088   5 0.62024-0.27902-0.69909 0.69478-0.22243 0.68567
   2  -1   8 500.230 160.785   5 0.66719-0.32490-0.66514 0.66692-0.15753 0.68724
   2  -1   9 3387.33 433.704   5 0.70720-0.36386-0.62898 0.63686-0.09539 0.69159
   2  -1  10 4047.04 500.359   5 0.74126-0.39686-0.59103 0.60501-0.03574 0.69842
   2  -1  11 20173.4 1209.88   5 0.77010-0.42464-0.55153 0.57162 0.02171 0.70744
   2  -1  12 81.8774 75.6677   5 0.79431-0.44779-0.51060 0.53678 0.07728 0.71835
   2  -1  13 428.128 207.801   5 0.81429-0.46671-0.46826 0.50054 0.13121 0.73090
  -2   0  13 57.8590 75.3139   3-0.10708-0.22173 0.90831-0.86053 0.45070 0.40628
  -2   0  12-49.6592 76.2229   3-0.07804-0.25178 0.92189-0.88056 0.43215 0.35850
  -2   0  11 1813.69 349.645   3-0.05181-0.27903 0.93304-0.89817 0.41495 0.30938
  -2   0  10 26.5313 86.6412   3-0.02859-0.30326 0.94203-0.91361 0.39938 0.25863
  -2   0   9 1494.58 289.795   3-0.00872-0.32414 0.94907-0.92712 0.38579 0.20590
  -2   0   8 100.834 94.5661   3 0.00733-0.34120 0.95433-0.93883 0.37464 0.15073
   2   0  -7 17875.8 715.842   6 0.88344-0.54681 0.48931-0.49875 0.29526-0.75642
  -2   0   7 15434.3 880.832   3 0.01893-0.35381 0.95789-0.94884 0.36648 0.09256
   2   0  -6 10803.6 523.255   6 0.88513-0.54773 0.35651-0.35942 0.41724-0.81195
  -2   0   6 10042.1 675.527   3 0.02517-0.36107 0.95971-0.95713 0.36206 0.03066
   2   0  -5 42.9484 27.7466   6 0.84890-0.51074 0.19275-0.18913 0.53570-0.86397
  -2   0   5 78.0146 91.7324   3 0.02480-0.36171 0.95961-0.96348 0.36232-0.03593
   2   0  -4 7508.14 409.611   6 0.76595-0.42702 0.00535 0.00480 0.63664-0.89847
  -2   0   4 7579.27 521.721   3 0.01607-0.35399 0.95703-0.96736 0.36850-0.10843
   2   0  -3 16507.2 635.447   6 0.63767-0.29798-0.18779 0.20447 0.70497-0.90036
  -2   0   3 14041.8 716.785   3-0.00356-0.33537 0.95081-0.96760 0.38222-0.18847
  -2   0   2 3483.11 308.375   3-0.03767-0.30228 0.93861-0.96186 0.40551-0.27808
  -2   0   2 2901.94 291.742   1 0.09833-0.43811 0.72378-0.74547 0.75535-0.62650
   2   0  -2 3074.64 261.144   6 0.48010-0.13965-0.36347 0.38668 0.73302-0.86196
  -2   0   1 8796.21 477.764   3-0.09138-0.24958 0.91581-0.94552 0.44073-0.37963
  -2   0   1 8461.18 479.310   1-0.01935-0.32112 0.65623-0.68422 0.80866-0.74604
  -2   0   0 8524.08 451.591   3-0.17166-0.17031 0.87340-0.90956 0.49004-0.49525
  -2   0   0 9189.14 470.450   1-0.17059-0.17059 0.54911-0.58340 0.85275-0.85635
   2   0   1 49299.2 1297.49   4 0.35819-0.01531-0.06566 0.10664-0.92857 0.99950
   2   0   2 134434. 2747.96   4 0.52022-0.17643-0.19251 0.23993-0.83045 0.96763
   2   0   2 125278. 2856.39   5 0.38238-0.03796-0.78692 0.83443-0.47189 0.61030
   2   0   3 3784.60 315.403   4 0.63900-0.29430-0.29635 0.35021-0.70125 0.90467
   2   0   3 3790.65 350.944   5 0.46411-0.11863-0.76892 0.82253-0.39766 0.60254
   2   0   4 6419.70 282.901   3-0.03756 0.38357 0.93865-0.87666 0.40543-0.13492
   2   0   4 7644.90 470.550   4 0.71600-0.37039-0.37338 0.43367-0.56617 0.83584
   2   0   4 7430.55 526.963   5 0.53268-0.18614-0.74492 0.80464-0.32699 0.59835
   2   0   5 3109.47 172.389   3-0.09227 0.43930 0.91540-0.84695 0.44130-0.10447
   2   0   5 3898.31 355.258   4 0.76165-0.41515-0.42786 0.49459-0.43952 0.77543
   2   0   5 2801.23 172.291   3 0.76979-0.42276 0.47718-0.40873-0.44657 0.78340
   2   0   5 3953.94 397.806   5 0.59043-0.24284-0.71694 0.78275-0.26014 0.59798
   2   0   6 948.728 206.114   5 0.63934-0.29068-0.68622 0.75814-0.19691 0.60123
   2   0   6 860.933 173.268   4 0.78628-0.43886-0.46581 0.53898-0.32595 0.72811
   2   0   7 151.471 77.1385   5 0.68099-0.33127-0.65353 0.73154-0.13691 0.60770
   2   0   8 881.244 222.638   5 0.71657-0.36580-0.61930 0.70341-0.07969 0.61697
   2   0   9 242.689 136.953   5 0.74702-0.39518-0.58378 0.67399-0.02487 0.62862
   2   0  10 2882.26 447.706   5 0.77300-0.42010-0.54708 0.64339 0.02794 0.64229
   2   0  11 1299.84 302.581   5 0.79502-0.44106-0.50925 0.61167 0.07904 0.65766
   2   0  12 199.688 95.9967   5 0.81345-0.45843-0.47027 0.57879 0.12871 0.67447
   2   0  13 347.256 179.931   5 0.82853-0.47245-0.43009 0.54470 0.17718 0.69248
  -2  -1  13 601.068 228.997   3-0.18905-0.14850 0.86285-0.89768 0.50018 0.34876
  -2  -1  12 356.960 173.139   3-0.16471-0.17385 0.87747-0.91876 0.48593 0.29668
  -2  -1  11 571.519 196.304   3-0.14363-0.19595 0.88937-0.93711 0.47329 0.24300
  -2  -1  10 148.842 104.800   3-0.12613-0.21446 0.89870-0.95290 0.46258 0.18739
  -2  -1   9 664.598 184.224   3-0.11266-0.22894 0.90556-0.96622 0.45420 0.12944
  -2  -1   8 9733.58 722.360   3-0.10382-0.23879 0.90990-0.97702 0.44864 0.06868
   2   1  -8 11446.4 639.029   6 0.87928-0.53466 0.51365-0.44711 0.26969-0.78917
  -2  -1   7 5213.40 502.838   3-0.10041-0.24321 0.91155-0.98512 0.44648 0.00452
   2   1  -7 5276.64 418.139   6 0.88836-0.54298 0.41498-0.34191 0.36686-0.81990
  -2  -1   6 613.465 169.901   3-0.10349-0.24114 0.91006-0.99009 0.44843-0.06376
   2   1  -6 546.584 125.835   6 0.87641-0.53026 0.29763-0.21803 0.46343-0.85003
  -2  -1   5 139.219 64.3194   3-0.11446-0.23119 0.90466-0.99115 0.45532-0.13697
   2   1  -5 129.335 65.6465   6 0.83844-0.49152 0.16275-0.07662 0.55420-0.87436
  -2  -1   4 8303.21 556.041   3-0.13512-0.21154 0.89396-0.98691 0.46810-0.21607
   2   1  -4 9279.51 517.820   6 0.77128-0.42360 0.01510 0.07756 0.63223-0.88595
  -2  -1   3 10250.7 626.811   3-0.16778-0.17989 0.87568-0.97509 0.48775-0.30204
  -2  -1   3 11125.7 629.836   1 0.04675-0.39410 0.69587-0.79357 0.78075-0.59352
   2   1  -3 12305.0 589.883   6 0.67608-0.32764-0.13645 0.23564 0.69040-0.87768
  -2  -1   2 2665.73 278.821   3-0.21523-0.13345 0.84603-0.95189 0.51505-0.39567
  -2  -1   2 2442.34 279.483   1-0.04641-0.30164 0.63875-0.74276 0.81858-0.69757
   2   1  -2 2590.69 265.551   6 0.55990-0.21070-0.28046 0.38618 0.72422-0.84506
  -2  -1   1 1633.03 206.278   3-0.28045-0.06924 0.79899-0.91131 0.55007-0.49700
  -2  -1   1 1606.93 216.186   1-0.16195-0.18680 0.55586-0.66617 0.85099-0.79620
   2   1   0 1859.60 206.810   5 0.37894-0.02815-0.78745 0.90510-0.47480 0.48781
   2   1   1 5904.61 333.708   4 0.39757-0.04636-0.09535 0.21881-0.91077 0.98971
   2   1   1 6196.85 405.746   5 0.46139-0.10954-0.76969 0.89343-0.40029 0.47977
   2   1   2 9413.35 441.074   4 0.57857-0.22645-0.24196 0.37187-0.77523 0.92042
   2   1   2 9620.94 544.210   5 0.52869-0.17577-0.74658 0.87642-0.33135 0.47731
   2   1   3 1483.87 178.305   4 0.69410-0.34107-0.35021 0.48655-0.61126 0.82269
   2   1   3 1579.02 226.279   5 0.58435-0.23037-0.72028 0.85622-0.26756 0.48000
   2   1   4 436.382 137.662   5 0.63105-0.27602-0.69196 0.83401-0.20813 0.48705
   2   1   4 363.172 101.786   4 0.75686-0.40292-0.42152 0.56429-0.45609 0.73378
   2   1   5 54.1069 62.1206   5 0.67073-0.31464-0.66224 0.81038-0.15230 0.49770
   2   1   5 110.450 52.4923   4 0.78683-0.43199-0.46686 0.61607-0.32237 0.66630
   2   1   6 1808.96 177.372   3 0.74123-0.38446 0.57892-0.42140-0.38218 0.79338
   2   1   6 1990.32 298.718   5 0.70477-0.34762-0.63141 0.78566-0.09939 0.51126
   2   1   7 887.481 222.232   5 0.73414-0.37593-0.59963 0.75997-0.04883 0.52718
   2   1   8 107.868 125.314   5 0.75956-0.40029-0.56694 0.73338-0.00020 0.54503
   2   1   9 2252.87 380.726   5 0.78151-0.42118-0.53334 0.70588 0.04687 0.56444
   2   1  10 73.3761 94.1078   5 0.80036-0.43897-0.49879 0.67744 0.09265 0.58513
   2   1  11 11369.0 933.133   5 0.81636-0.45391-0.46325 0.64799 0.13738 0.60688
   2   1  12 421.162 201.601   5 0.82966-0.46615-0.42663 0.61747 0.18123 0.62950
  -2  -2  13 5.60513 112.646   3-0.27246-0.07382 0.80516-0.92260 0.54594 0.29495
  -2  -2  12 1479.09 332.920   3-0.25291-0.09439 0.81977-0.94368 0.53565 0.23892
  -2  -2  11 43.9705 59.0119   3-0.23699-0.11132 0.83116-0.96153 0.52707 0.18118
  -2  -2  10 416.172 152.011   3-0.22510-0.12422 0.83939-0.97621 0.52054 0.12138
  -2  -2   9-9.96741 59.6804   3-0.21772-0.13261 0.84437-0.98764 0.51645 0.05915
   2   2  -9 4.60997 36.1778   6 0.87277-0.52017 0.54133-0.39881 0.23913-0.81695
  -2  -2   8-124.947 90.4338   3-0.21550-0.13584 0.84585-0.99558 0.51521-0.00593
   2   2  -8-54.4689 64.4688   6 0.88645-0.53308 0.46307-0.31401 0.32160-0.83298
  -2  -2   7 63.8270 39.2715   3-0.21923-0.13313 0.84336-0.99955 0.51729-0.07433
   2   2  -7 39.6179 68.8371   6 0.88658-0.53245 0.37260-0.21702 0.40385-0.84879
  -2  -2   6 187.104 97.6780   3-0.22989-0.12348 0.83611-0.99876 0.52318-0.14655
   2   2  -6 206.218 85.1957   6 0.87060-0.51570 0.27005-0.10794 0.48362-0.86211
  -2  -2   6 100.214 56.9600   1 0.09633-0.44986 0.72275-0.88386 0.75639-0.37833
  -2  -2   5 1449.84 244.460   1 0.05043-0.40465 0.69795-0.86537 0.77905-0.46721
  -2  -2   5 1346.37 230.521   3-0.24864-0.10574 0.82287-0.99197 0.53337-0.22306
   2   2  -5 1424.78 227.975   6 0.83623-0.48057 0.15681 0.01183 0.55776-0.86982
  -2  -2   4 5962.25 486.998   3-0.27683-0.07856 0.80180-0.97736 0.54820-0.30422
  -2  -2   4 5471.65 458.101   1-0.00952-0.34541 0.66240-0.83612 0.80483-0.55922
   2   2  -4 6834.79 475.312   6 0.78231-0.42588 0.03597 0.13920 0.62249-0.86810
  -2  -2   3 6095.54 472.869   1-0.08505-0.27057 0.61253-0.79256 0.83123-0.65184
   2   2  -3 6862.05 475.062   6 0.70974-0.35255-0.08751 0.26921 0.67405-0.85322
   2   2  -2 5260.88 409.561   6 0.62217-0.26421-0.20738 0.39560 0.70982-0.82255
  -2  -2   2 4966.28 416.914   1-0.17640-0.17993 0.54453-0.73086 0.85388-0.74071
   2   2  -2 5795.99 306.861   5 0.46002-0.10285-0.77007 0.95785-0.40161 0.28922
   2   2  -1 4098.21 362.143   6 0.52566-0.16694-0.31739 0.51214 0.72919-0.77548
   2   2  -1 4668.36 300.957   5 0.52493-0.16670-0.74810 0.94198-0.33542 0.28950
   2   2   0 21523.9 666.935   4 0.20659 0.15205 0.04323 0.15629-0.96854 0.98925
   2   2   0 25152.3 828.968   5 0.57628-0.21699-0.72455 0.92453-0.27723 0.29780
   2   2   1 26728.1 739.904   4 0.48243-0.12288-0.16172 0.36767-0.85974 0.94669
   2   2   1 27774.0 958.673   5 0.61860-0.25825-0.70014 0.90622-0.22457 0.31161
   2   2   2 189599. 3495.01   4 0.67153-0.31108-0.32751 0.53990-0.65149 0.80469
   2   2   2 184087. 3894.44   5 0.65455-0.29314-0.67507 0.88725-0.17574 0.32926
   2   2   3-35.1328 51.2009   5 0.68572-0.32325-0.64935 0.86763-0.12965 0.34964
   2   2   3 46.6909 47.4142   4 0.76058-0.39922-0.42642 0.64524-0.44334 0.66279
   2   2   4 1163.41 216.310   5 0.71311-0.34959-0.62293 0.84731-0.08555 0.37202
   2   2   5 142.852 85.5673   5 0.73737-0.37279-0.59577 0.82625-0.04294 0.39589
   2   2   6 6161.49 406.558   3 0.76889-0.40338 0.48127-0.24113-0.44419 0.86343
   2   2   6 7224.30 598.957   5 0.75893-0.39329-0.56781 0.80439-0.00146 0.42089
   2   2   7 195.607 121.754   5 0.77808-0.41138-0.53899 0.78167 0.03913 0.44677
   2   2   8 1416.42 297.041   5 0.79501-0.42725-0.50926 0.75804 0.07903 0.47335
   2   2   9 438.609 200.697   5 0.80986-0.44103-0.47857 0.73344 0.11838 0.50048
   2   2  10 1095.06 278.675   5 0.82269-0.45281-0.44684 0.70782 0.15728 0.52805
   2   2  11 1558.30 375.641   5 0.83355-0.46261-0.41403 0.68111 0.19584 0.55598
   2   2  12 210.913 124.919   5 0.84245-0.47044-0.38006 0.65323 0.23411 0.58418
  -2  -3  13 391.996 186.675   1 0.09133-0.44823 0.72015-0.91945 0.75899 0.07480
  -2  -3  12 1330.29 320.430   1 0.09446-0.45206 0.72178-0.92739 0.75737 0.01019
  -2  -3  11 755.177 233.751   1 0.09267-0.45097 0.72085-0.93276 0.75829-0.05696
   2   3 -10 941.933 229.220   6 0.86377-0.50318 0.57017-0.35167 0.20544-0.84159
  -2  -3  10 814.352 236.839   1 0.08531-0.44431 0.71699-0.93521 0.76207-0.12695
  -2  -3   9 1469.15 292.850   1 0.07156-0.43126 0.70963-0.93415 0.76893-0.20004
   2   3  -9 2426.38 345.621   6 0.88081-0.51945 0.50560-0.28057 0.27827-0.84799
  -2  -3   8 16621.8 997.165   1 0.05045-0.41085 0.69796-0.92879 0.77904-0.27637
   2   3  -8 18990.8 995.750   6 0.88817-0.52606 0.43248-0.20092 0.35081-0.85408
  -2  -3   7 43177.7 1668.25   1 0.02082-0.38192 0.68083-0.91797 0.79232-0.35588
   2   3  -7 51008.5 1678.45   6 0.88451-0.52163 0.35080-0.11271 0.42191-0.85874
   2   3  -6 4235.68 425.248   6 0.86848-0.50483 0.26106-0.01644 0.49002-0.86040
  -2  -3   6 4159.12 443.118   1-0.01856-0.34324 0.65673-0.90016 0.80836-0.43813
   2   3  -5 1077.34 207.519   6 0.83906-0.47464 0.16445 0.08670 0.55318-0.85713
  -2  -3   5 990.923 202.791   1-0.06886-0.29364 0.62370-0.87344 0.82614-0.52215
  -2  -3   4 462.745 137.675   1-0.13087-0.23233 0.57949-0.83554 0.84388-0.60610
   2   3  -4 721.239 166.877   6 0.79589-0.43071 0.06308 0.19460 0.60920-0.84670
   2   3  -3 452.936 147.848   6 0.73973-0.37379-0.04002 0.30423 0.65596-0.82702
   2   3  -3 461.256 68.8005   5 0.73103-0.36642-0.60327 0.86728-0.05445-0.11686
  -2  -3   3 224.908 72.5895   1-0.20454-0.15936 0.52182-0.78417 0.85874-0.68719
   2   3  -2 2184.60 286.671   6 0.67267-0.30597-0.14118 0.41192 0.69186-0.79648
   2   3  -2 2468.57 194.972   5 0.71655-0.35089-0.61932 0.88943-0.07973-0.02511
   2   3  -1 3067.56 340.206   6 0.59816-0.23069-0.23655 0.51381 0.71627-0.75445
   2   3  -1 3712.93 272.235   5 0.71765-0.35093-0.61815 0.89436-0.07786 0.03950
   2   3   0-23.4272 31.1396   5 0.72555-0.35776-0.60952 0.89182-0.06418 0.09230
   2   3   0 6.61192 13.4150   4 0.30438 0.06259-0.02609 0.30808-0.94766 0.97638
   2   3   0 2.65515 42.0836   6 0.52047-0.15224-0.32281 0.60660 0.72978-0.70152
   2   3   1 38.6449 30.9287   5 0.73671-0.36786-0.59658 0.88499-0.04416 0.13876
   2   3   1 51.5491 19.2257   4 0.65364-0.28576-0.31018 0.59861-0.67990 0.77487
   2   3   2 9012.71 316.959   4 0.78598-0.41719-0.46525 0.76012-0.32785 0.48907
   2   3   2 9775.71 578.172   5 0.74939-0.37949-0.58070 0.87521-0.02031 0.18138
   2   3   3 2925.86 334.649   5 0.76263-0.39167-0.56258 0.86319 0.00606 0.22149
   2   3   4-6.58460 101.451   5 0.77584-0.40382-0.54259 0.84930 0.03417 0.25986
   2   3   5 2338.46 339.661   5 0.78866-0.41558-0.52098 0.83379 0.06353 0.29698
   2   3   6 732.140 203.130   5 0.80081-0.42667-0.49788 0.81679 0.09383 0.33315
   2   3   6 662.754 173.292   3 0.77695-0.40270 0.44053-0.11777-0.46719 0.89447
   2   3   7 2277.04 355.700   5 0.81212-0.43692-0.47338 0.79839 0.12485 0.36861
   2   3   8-43.7294 96.0087   5 0.82243-0.44617-0.44754 0.77865 0.15644 0.40349
   2   3   9 184.043 144.450   5 0.83163-0.45431-0.42039 0.75759 0.18850 0.43792
   2   3  10 983.310 282.896   5 0.83960-0.46122-0.39192 0.73522 0.22093 0.47196
   2   3  11 1152.90 301.060   5 0.84624-0.46681-0.36212 0.71153 0.25368 0.50568
  -2  -4  13 51.6100 82.2315   1 0.00598-0.37116 0.67193-0.95356 0.79858 0.02737
  -2  -4  12 868.845 251.592   1 0.00554-0.37142 0.67167-0.95960 0.79876-0.03904
  -2  -4  11 48.0552 89.1129   1-0.00015-0.36643 0.66819-0.96243 0.80109-0.10759
   2   4 -11-5.55953 101.384   6 0.85207-0.48349 0.59920-0.30471 0.16932-0.86381
  -2  -4  10 468.530 164.637   1-0.01166-0.35562 0.66106-0.96161 0.80568-0.17840
   2   4 -10 315.285 149.333   6 0.87188-0.50254 0.54457-0.24356 0.23545-0.86349
  -2  -4   9-116.630 113.584   1-0.02969-0.33829 0.64964-0.95649 0.81255-0.25150
   2   4  -9 128.271 97.2803   6 0.88422-0.51412 0.48360-0.17605 0.30110-0.86270
   2   4  -8 564.677 165.585   6 0.88837-0.51750 0.41630-0.10222 0.36566-0.86083
  -2  -4   8 510.334 156.130   1-0.05498-0.31370 0.63307-0.94622 0.82154-0.32671
   2   4  -7 4759.12 501.105   6 0.88358-0.51194 0.34291-0.02231 0.42830-0.85702
  -2  -4   7 4352.61 483.948   1-0.08831-0.28107 0.61026-0.92971 0.83221-0.40360
   2   4  -6 7185.68 611.589   6 0.86919-0.49679 0.26401 0.06312 0.48793-0.85021
  -2  -4   6 6008.65 554.701   1-0.13033-0.23974 0.57990-0.90566 0.84374-0.48136
   2   4  -5 135.503 82.6957   6 0.84479-0.47163 0.18058 0.15308 0.54332-0.83916
  -2  -4   5 185.478 120.771   1-0.18144-0.18933 0.54052-0.87259 0.85482-0.55866
  -2  -4   4 737.924 186.210   1-0.24146-0.13001 0.49071-0.82908 0.86354-0.63360
   2   4  -4 811.252 191.105   6 0.81038-0.43646 0.09409 0.24610 0.59314-0.82253
   2   4  -3 102.614 62.4080   6 0.76660-0.39190 0.00652 0.34020 0.63611-0.79907
   2   4  -2 8637.56 616.840   6 0.71478-0.33933-0.07981 0.43306 0.67127-0.76778
   2   4  -2 8950.01 398.759   5 0.83920-0.46505-0.39348 0.74592 0.21918-0.31646
   2   4  -1 145.368 58.4790   5 0.82297-0.44775-0.44609 0.80463 0.15819-0.18900
   2   4  -1 116.516 79.4266   6 0.65704-0.28081-0.16244 0.52222 0.69811-0.72819
   2   4   0 11707.8 735.549   6 0.59600-0.21901-0.23911 0.60541 0.71679-0.68042
   2   4   0 13966.5 632.850   5 0.81422-0.43794-0.46844 0.83307 0.13099-0.09531
   2   4   1-46.9077 29.4814   5 0.81106-0.43372-0.47583 0.84657 0.12180-0.01965
   2   4   1 83.0928 72.6844   6 0.53455-0.15680-0.30800 0.68083 0.72808-0.62527
   2   4   2 21312.8 1023.70   6 0.47544-0.09692-0.36801 0.74737 0.73325-0.56399
   2   4   2 26504.6 1040.49   5 0.81167-0.43327-0.47443 0.85126 0.12355 0.04508
   2   4   3 939.265 199.437   5 0.81473-0.43527-0.46721 0.85015 0.13250 0.10261
   2   4   4 996.564 221.329   5 0.81930-0.43879-0.45581 0.84485 0.14645 0.15513
   2   4   5 740.661 179.490   5 0.82473-0.44316-0.44119 0.83633 0.16405 0.20401
   2   4   6 460.992 180.402   5 0.83052-0.44788-0.42393 0.82517 0.18437 0.25016
   2   4   7 276.346 154.193   5 0.83630-0.45260-0.40444 0.81177 0.20681 0.29420
   2   4   7 27.5916 97.3620   3 0.75189-0.36789 0.54628-0.13445-0.40407 0.90573
   2   4   8 510.885 190.043   5 0.84178-0.45702-0.38295 0.79639 0.23091 0.33658
   2   4   9-31.2966 71.7343   5 0.84672-0.46091-0.35965 0.77919 0.25635 0.37762
   2   4  10 1266.19 321.449   5 0.85093-0.46406-0.33465 0.76028 0.28288 0.41757
   2   4  11 1269.46 349.559   5 0.85423-0.46629-0.30800 0.73974 0.31032 0.45660
   2   5 -12 273.736 133.343   6 0.83747-0.46091 0.62789-0.25742 0.13109-0.88391
  -2  -5  12 142.954 110.436   1-0.08659-0.28756 0.61146-0.98172 0.83169-0.07981
   2   5 -11 129.260 62.1811   6 0.85977-0.48244 0.58091-0.20392 0.19235-0.87872
  -2  -5  11 36.1958 65.0789   1-0.09542-0.27943 0.60524-0.98181 0.83431-0.14865
  -2  -5  10-44.7909 48.0996   1-0.11005-0.26550 0.59478-0.97764 0.83845-0.21901
   2   5 -10-69.9662 96.2649   6 0.87592-0.49783 0.52898-0.14546 0.25297-0.87291
   2   5  -9 5015.24 567.498   6 0.88557-0.50672 0.47218-0.08212 0.31259-0.86609
  -2  -5   9 4459.28 532.080   1-0.13095-0.24530 0.57944-0.96861 0.84390-0.29068
   2   5  -8 3478.64 459.464   6 0.88832-0.50870 0.41067-0.01409 0.37073-0.85779
  -2  -5   8 3180.30 437.398   1-0.15859-0.21836 0.55846-0.95394 0.85028-0.36328
   2   5  -7 29158.3 1387.81   6 0.88381-0.50342 0.34479 0.05832 0.42678-0.84739
  -2  -5   7 28070.1 1332.93   1-0.19333-0.18432 0.53097-0.93275 0.85692-0.43615
   2   5  -6 294.483 155.963   6 0.87174-0.49060 0.27510 0.13455 0.47999-0.83416
  -2  -5   6 400.188 109.014   1-0.23531-0.14304 0.49600-0.90409 0.86287-0.50832
   2   5  -5 19.3397 48.4555   6 0.85202-0.47011 0.20237 0.21380 0.52957-0.81730
   2   5  -4-68.6583 80.0027   6 0.82482-0.44214 0.12770 0.29500 0.57466-0.79595
   2   5  -3 12768.6 815.186   6 0.79065-0.40721 0.05243 0.37680 0.61450-0.76935
   2   5  -2 2248.14 325.508   6 0.75049-0.36628-0.02189 0.45765 0.64847-0.73688
   2   5  -1 3389.18 399.230   6 0.70570-0.32073-0.09361 0.53590 0.67622-0.69818
   2   5  -1 3132.37 276.350   5 0.85669-0.47297-0.27511 0.71598 0.34306-0.36631
   2   5   0 466.077 159.785   6 0.65800-0.27226-0.16116 0.60998 0.69775-0.65327
   2   5   0 313.008 65.3946   5 0.85224-0.46746-0.32520 0.77217 0.29270-0.24948
   2   5   1 16898.9 937.021   6 0.60930-0.22280-0.22318 0.67852 0.71343-0.60251
   2   5   1 20180.7 875.322   5 0.84811-0.46227-0.35212 0.80519 0.26442-0.15472
   2   5   2 3781.56 431.154   6 0.56153-0.17426-0.27865 0.74053 0.72394-0.54658
   2   5   2 4788.65 435.788   5 0.84564-0.45875-0.36516 0.82433 0.25040-0.07422
   2   5   3 742.063 193.547   6 0.51644-0.12841-0.32698 0.79539 0.73021-0.48640
   2   5   3 1120.67 223.240   5 0.84485-0.45690-0.36906 0.83433 0.24616-0.00350
   2   5   4 273.165 124.821   6 0.47548-0.08669-0.36797 0.84290 0.73324-0.42300
   2   5   4 458.359 153.485   5 0.84537-0.45636-0.36650 0.83787 0.24895 0.06019
   2   5   5 1535.34 298.914   5 0.84683-0.45676-0.35909 0.83655 0.25696 0.11866
   2   5   6 33.0277 43.9319   3 0.77868-0.38696 0.43033 0.05766-0.47271 0.91608
   2   5   6 38.6095 90.2574   5 0.84884-0.45772-0.34786 0.83143 0.26896 0.17313
   2   5   7 6.61536 58.0169   3 0.75560-0.36287 0.53370-0.03926-0.41218 0.92188
   2   5   7 56.5693 107.508   5 0.85110-0.45891-0.33350 0.82317 0.28408 0.22449
   2   5   8-22.1481 90.5863   5 0.85331-0.46006-0.31647 0.81224 0.30169 0.27336
   2   5   9 1932.38 394.934   5 0.85523-0.46093-0.29709 0.79895 0.32132 0.32021
   2   5  10 2555.71 469.637   5 0.85666-0.46130-0.27558 0.78354 0.34260 0.36540
   2   6 -12 1176.49 334.987   6 0.84439-0.45908 0.61509-0.16211 0.14848-0.89320
   2   6 -11 1182.01 320.543   6 0.86374-0.47767 0.57025-0.11074 0.20534-0.88361
  -2  -6  11 479.336 185.548   1-0.19061-0.19251 0.53316-0.99205 0.85646-0.17864
  -2  -6  10 341.718 181.253   1-0.20708-0.17674 0.51973-0.98492 0.85913-0.24753
   2   6 -10 521.834 196.956   6 0.87763-0.49080 0.52149-0.05545 0.26121-0.87303
   2   6  -9 513.717 223.370   6 0.88590-0.49829 0.46898 0.00358 0.31577-0.86116
  -2  -6   9 268.907 124.657   1-0.22931-0.15522 0.50112-0.97261 0.86216-0.31678
   2   6  -8 3952.00 518.018   6 0.88835-0.49998 0.41297 0.06613 0.36867-0.84762
  -2  -6   8 3142.05 448.672   1-0.25747-0.12776 0.47675-0.95455 0.86505-0.38589
   2   6  -7 1555.19 321.510   6 0.88484-0.49571 0.35380 0.13182 0.41946-0.83196
   2   6  -6 1418.94 291.292   6 0.87531-0.48541 0.29198 0.20017 0.46763-0.81370
   2   6  -5-35.0874 94.4101   6 0.85981-0.46914 0.22815 0.27053 0.51265-0.79227
   2   6  -4 199.345 117.314   6 0.83858-0.44715 0.16313 0.34208 0.55397-0.76715
   2   6  -3 248.437 152.023   6 0.81208-0.41989 0.09788 0.41385 0.59111-0.73784
   2   6  -2 1341.85 266.427   6 0.78103-0.38807 0.03350 0.48476 0.62366-0.70395
   2   6  -1 26.1432 78.6283   6 0.74639-0.35267-0.02887 0.55366 0.65139-0.66524
   2   6   0 2756.54 389.301   6 0.70935-0.31487-0.08810 0.61943 0.67426-0.62168
   2   6   0 2747.78 307.304   5 0.85553-0.46226-0.19192 0.72122 0.42070-0.36992
   2   6   1 2077.08 340.025   6 0.67123-0.27597-0.14318 0.68104 0.69246-0.57344
   2   6   1 2736.44 326.180   5 0.85738-0.46306-0.23343 0.76883 0.38286-0.26560
   2   6   2 1091.54 243.767   6 0.63338-0.23737-0.19327 0.73766 0.70637-0.52090
   2   6   2 1595.64 261.297   5 0.85729-0.46190-0.25830 0.79980 0.35934-0.17560
   2   6   3 640.696 200.176   6 0.59713-0.20035-0.23777 0.78868 0.71652-0.46461
   2   6   3 819.866 202.756   5 0.85684-0.46039-0.27186 0.81945 0.34623-0.09602
   2   6   4 5185.92 543.274   6 0.56363-0.16609-0.27631 0.83375 0.72357-0.40521
   2   6   4 7219.28 633.289   5 0.85658-0.45907-0.27728 0.83097 0.34094-0.02425
   2   6   5 3.34165 59.5681   6 0.53385-0.13554-0.30875 0.87272 0.72817-0.34338
   2   6   5-38.4657 91.2046   5 0.85661-0.45805-0.27656 0.83636 0.34164 0.04153
   2   6   6 882.169 219.628   3 0.77655-0.37609 0.44283 0.12777-0.46593 0.91735
   2   6   6 440.808 168.435   6 0.50851-0.10943-0.33513 0.90563 0.73098-0.27975
   2   6   6 1019.23 265.422   5 0.85687-0.45725-0.27103 0.83693 0.34703 0.10261
   2   6   7-53.3315 101.645   3 0.75553-0.35406 0.53394 0.04312-0.41203 0.92977
   2   6   7-9.65478 61.7356   6 0.48811-0.08827-0.35561 0.93264 0.73256-0.21488
   2   6   7-43.0598 81.1082   5 0.85720-0.45652-0.26159 0.83359 0.35617 0.15995
   2   6   8 1074.12 257.356   6 0.47298-0.07237-0.37039 0.95395 0.73335-0.14924
   2   6   8 2580.55 453.877   5 0.85743-0.45569-0.24885 0.82695 0.36834 0.21426
   2   6   9 142.586 80.0696   5 0.85738-0.45458-0.23327 0.81747 0.38301 0.26607
   2   7 -10 283.951 131.703   6 0.87784-0.48225 0.52053 0.02801 0.26225-0.86597
   2   7  -9 1694.59 376.667   6 0.88556-0.48921 0.47223 0.08284 0.31254-0.84982
   2   7  -8 183.365 173.321   6 0.88836-0.49124 0.42132 0.14028 0.36109-0.83193
   2   7  -7 721.619 225.659   6 0.88622-0.48834 0.36815 0.19998 0.40759-0.81198
   2   7  -6 159.006 126.251   6 0.87920-0.48056 0.31315 0.26151 0.45167-0.78962
   2   7  -5 1431.91 315.081   6 0.86745-0.46804 0.25685 0.32434 0.49298-0.76449
   2   7  -4-24.5001 48.2096   6 0.85123-0.45105 0.19990 0.38782 0.53115-0.73622
   2   7  -3 59.0648 54.1448   6 0.83095-0.43001 0.14302 0.45123 0.56587-0.70450
   2   7  -2 273.364 101.573   6 0.80717-0.40547 0.08701 0.51377 0.59689-0.66907
   2   7  -1 452.163 147.559   6 0.78062-0.37815 0.03271 0.57460 0.62403-0.62978
   2   7   0-45.2174 41.2097   6 0.75214-0.34890-0.01905 0.63289 0.64727-0.58658
   2   7   1 670.706 198.351   6 0.72269-0.31869-0.06751 0.68787 0.66670-0.53956
   2   7   1 1050.25 214.838   5 0.84706-0.44424-0.12279 0.74052 0.47997-0.35516
   2   7   2 1173.85 276.145   6 0.69327-0.28850-0.11197 0.73887 0.68252-0.48894
   2   7   2 1315.58 235.553   5 0.85199-0.44811-0.15634 0.78017 0.45178-0.26049
   2   7   3 1936.66 342.173   6 0.66486-0.25933-0.15190 0.78533 0.69507-0.43505
   2   7   3 2557.47 372.283   5 0.85431-0.44937-0.17757 0.80750 0.43339-0.17562
   2   7   4 657.955 213.323   6 0.63837-0.23207-0.18690 0.82685 0.70474-0.37828
   2   7   4 1207.51 266.850   5 0.85535-0.44936-0.18968 0.82571 0.42270-0.09845
   2   7   5 435.552 183.213   6 0.61462-0.20756-0.21669 0.86317 0.71198-0.31907
   2   7   5 861.822 268.675   5 0.85573-0.44868-0.19480 0.83692 0.41814-0.02741
   2   7   6 43.2158 95.4477   3 0.77298-0.36378 0.46181 0.19142-0.45537 0.91483
   2   7   6 203.089 104.674   6 0.59428-0.18645-0.24114 0.89415 0.71720-0.25786
   2   7   6-44.1740 95.8068   5 0.85570-0.44759-0.19437 0.84260 0.41852 0.03868
   2   7   7 370.157 159.698   3 0.75290-0.34270 0.54292 0.11676-0.40626 0.93204
   2   7   7 51.6592 81.8747   6 0.57789-0.16930-0.26019 0.91973 0.72082-0.19504
   2   7   7 328.831 158.843   5 0.85533-0.44616-0.18942 0.84375 0.42293 0.10075
   2   7   8 741.846 263.546   5 0.85460-0.44436-0.18066 0.84109 0.43067 0.15949
   2   8  -8 5631.86 704.915   6 0.88812-0.48225 0.43441 0.20970 0.34901-0.81174
   2   8  -7 1478.19 359.151   6 0.88751-0.48087 0.38659 0.26405 0.39191-0.78820
   2   8  -6 1166.53 311.228   6 0.88289-0.47549 0.33756 0.31962 0.43258-0.76243
   2   8  -5 252.731 143.909   6 0.87445-0.46629 0.28774 0.37596 0.47077-0.73417
   2   8  -4 4035.36 543.622   6 0.86246-0.45354 0.23768 0.43255 0.50622-0.70319
   2   8  -3 150.401 94.9189   6 0.84729-0.43760 0.18792 0.48884 0.53874-0.66926
   2   8  -2 103.226 121.872   6 0.82940-0.41895 0.13909 0.54420 0.56815-0.63223
   2   8  -1 277.529 142.262   6 0.80936-0.39813 0.09181 0.59800 0.59435-0.59199
   2   8   0 13932.9 983.296   6 0.78780-0.37582 0.04674 0.64961 0.61729-0.54849
   2   8   1 6885.88 676.638   6 0.76546-0.35271 0.00446 0.69841 0.63703-0.50179
   2   8   2 1038.89 267.692   6 0.74307-0.32956-0.03446 0.74386 0.65369-0.45200
   2   8   2 1427.17 296.485   5 0.83381-0.42144-0.06000 0.76616 0.52991-0.33106
   2   8   3 170.820 113.586   6 0.72140-0.30712-0.06954 0.78547 0.66746-0.39933
   2   8   3 436.286 192.179   5 0.84014-0.42671-0.08698 0.79924 0.50889-0.24357
   2   8   4 29.8155 90.1767   6 0.70116-0.28612-0.10038 0.82285 0.67858-0.34401
   2   8   4 579.070 218.281   5 0.84373-0.42924-0.10444 0.82280 0.49494-0.16314
   2   8   5-30.2490 94.2218   6 0.68303-0.26722-0.12667 0.85567 0.68733-0.28631
   2   8   5-46.7067 104.517   5 0.84560-0.43005-0.11443 0.83889 0.48683-0.08855
   2   8   6-45.9890 93.6118   3 0.76799-0.35006 0.48530 0.25054-0.44183 0.90933
   2   8   6-150.048 127.865   6 0.66760-0.25103-0.14816 0.88368 0.69396-0.22651
   2   8   6 178.625 101.304   5 0.84631-0.42970-0.11841 0.84897 0.48357-0.01882
   2   8   7 222.906 125.662   3 0.74821-0.32927 0.55809 0.18420-0.39629 0.93012
   2   8   7 500.466 200.233   5 0.84614-0.42847-0.11743 0.85409 0.48437 0.04686
   2   9  -6 137.315 92.9014   6 0.88590-0.46975 0.36449 0.37519 0.41064-0.73238
   2   9  -5 2097.05 424.718   6 0.88038-0.46347 0.32034 0.42587 0.44612-0.70141
   2   9  -4 345.903 175.297   6 0.87200-0.45432 0.27625 0.47649 0.47916-0.66802
   2   9  -3 303.003 163.305   6 0.86108-0.44263 0.23265 0.52661 0.50963-0.63204
   2   9  -2-20.2352 75.3517   6 0.84801-0.42880 0.19006 0.57573 0.53739-0.59337
   2   9  -1 1464.85 334.030   6 0.83326-0.41329 0.14898 0.62335 0.56239-0.55192
   2   9   0-75.2424 58.1638   6 0.81734-0.39660 0.10990 0.66896 0.58459-0.50767
   2   9   1 1259.46 309.738   6 0.80080-0.37930 0.07333 0.71206 0.60400-0.46064
   2   9   2-71.0499 101.012   6 0.78424-0.36197 0.03973 0.75219 0.62069-0.41089
   2   9   3 46.8429 44.6747   6 0.76824-0.34521 0.00952 0.78892 0.63476-0.35852
   2   9   4 195.364 147.703   6 0.75339-0.32960-0.01689 0.82187 0.64635-0.30367
   2   9   5 848.484 245.122   3 0.77611-0.35046 0.44527 0.36673-0.46459 0.87382
   2   9   6 323.062 148.408   3 0.76150-0.33484 0.51208 0.30638-0.42573 0.90128
   2  10  -3-69.6936 108.205   6 0.87223-0.44503 0.27728 0.56450 0.47841-0.59272
   2  10  -2 212.656 133.209   6 0.86315-0.43519 0.24019 0.60811 0.50451-0.55237
   2  10  -1 825.882 266.901   6 0.85273-0.42401 0.20461 0.65023 0.52813-0.50955
   2  10   0 5021.53 650.790   6 0.84140-0.41192 0.17095 0.69042 0.54924-0.46422
   2  10   1 3521.89 545.502   6 0.82962-0.39937 0.13963 0.72827 0.56784-0.41638
   2  10   2 68.5590 123.490   6 0.81784-0.38682 0.11106 0.76336 0.58395-0.36605
   2  10   3 94.6280 93.6636   6 0.80654-0.37476 0.08564 0.79531 0.59761-0.31326
   3 -10  -3 1762.25 363.545   4 0.39726 0.02965-0.09511-0.69720-0.91093 0.63908
  -3  10   2 1399.94 359.027   3 0.52878-0.95235 0.88199-0.09715-0.08513 0.29039
   3 -10  -2 962.327 270.470   4 0.43860-0.01079-0.12700-0.65887-0.88842 0.68282
  -3  10   1 182.874 117.154   3 0.54265-0.96723 0.87124-0.09285-0.10090 0.23983
   3 -10  -1 267.334 141.826   4 0.48084-0.05212-0.16044-0.61899-0.86087 0.72152
  -3  10   0 176.293 114.426   3 0.55410-0.97969 0.86180-0.08987-0.11414 0.18676
   3 -10   0 700.339 233.710   4 0.52301-0.09339-0.19483-0.57817-0.82810 0.75499
   3 -10   1 213.031 126.422   4 0.56415-0.13361-0.22950-0.53706-0.79016 0.78330
   3 -10   2 1013.05 274.661   4 0.60335-0.17191-0.26381-0.49632-0.74732 0.80671
   3 -10   3 937.096 273.349   4 0.63986-0.20751-0.29716-0.45653-0.70003 0.82567
   3 -10   4 831.339 265.196   4 0.67309-0.23983-0.32904-0.41821-0.64889 0.84077
   3  -9  -5 149.662 105.338   4 0.25817 0.17526 0.00707-0.72976-0.95964 0.56332
  -3   9   4 21.0927 106.816   3 0.48461-0.91489 0.91170-0.19656-0.03672 0.36658
   3  -9  -4 187.426 116.148   4 0.29859 0.13574-0.02189-0.69437-0.94938 0.61930
  -3   9   3 908.672 270.817   3 0.50311-0.93440 0.90004-0.19136-0.05668 0.32022
   3  -9  -3 1354.72 329.172   4 0.34226 0.09298-0.05383-0.65600-0.93483 0.67100
  -3   9   2 936.792 272.711   3 0.51927-0.95158 0.88894-0.18672-0.07449 0.27170
   3  -9  -2 887.325 248.459   4 0.38833 0.04782-0.08832-0.61507-0.91526 0.71767
  -3   9   1 145.804 95.5393   3 0.53313-0.96644 0.87869-0.18293-0.09004 0.22093
   3  -9  -1-97.1925 103.326   4 0.43577 0.00128-0.12479-0.57216-0.89010 0.75876
  -3   9   0 426.102 166.623   3 0.54446-0.97879 0.86978-0.18047-0.10298 0.16755
   3  -9   0 24.1446 102.035   4 0.48343-0.04547-0.16252-0.52799-0.85902 0.79393
  -3   9  -1 322.069 158.402   3 0.55292-0.98826 0.86280-0.17994-0.11277 0.11101
   3  -9   1 561.674 224.873   4 0.53014-0.09127-0.20075-0.48333-0.82198 0.82314
   3  -9   2 1385.45 320.183   4 0.57479-0.13501-0.23868-0.43897-0.77923 0.84664
   3  -9   3 772.549 260.913   4 0.61643-0.17575-0.27558-0.39563-0.73130 0.86495
   3  -9   4 1297.25 316.564   4 0.65432-0.21273-0.31083-0.35395-0.67887 0.87877
   3  -9   5 433.526 213.165   4 0.68796-0.24546-0.34393-0.31441-0.62276 0.88891
   3  -9   6 126.799 115.981   4 0.71706-0.27365-0.37453-0.27737-0.56380 0.89619
  -3   8   6 2172.53 436.405   3 0.42423-0.86122 0.94278-0.29735 0.02562 0.42884
  -3   8   5 1618.92 381.989   3 0.44709-0.88510 0.93219-0.29321 0.00249 0.38565
   3  -8  -5 2011.27 393.769   4 0.19644 0.24531 0.05024-0.69045-0.96977 0.58145
  -3   8   4 566.402 197.141   3 0.46783-0.90684 0.92136-0.28884-0.01899 0.34080
   3  -8  -4 429.188 171.479   4 0.24008 0.20259 0.01985-0.65363-0.96328 0.64122
  -3   8   3 311.852 128.163   3 0.48625-0.92628 0.91071-0.28465-0.03848 0.29397
   3  -8  -3 306.395 119.469   4 0.28774 0.15583-0.01406-0.61328-0.95243 0.69661
  -3   8   2 23.5137 81.0798   3 0.50237-0.94341 0.90053-0.28092-0.05588 0.24505
   3  -8  -2 80.6356 77.9996   4 0.33855 0.10593-0.05109-0.56982-0.93621 0.74664
  -3   8   1-12.2220 82.7419   3 0.51582-0.95787 0.89139-0.27824-0.07065 0.19350
   3  -8  -1 19.9226 45.6352   4 0.39132 0.05406-0.09059-0.52388-0.91383 0.79050
  -3   8   0 345.222 123.013   3 0.52650-0.96956 0.88368-0.27699-0.08256 0.13909
   3  -8   0 212.599 120.676   4 0.44471 0.00158-0.13178-0.47626-0.88474 0.82766
  -3   8  -1 430.648 156.955   3 0.53400-0.97808 0.87803-0.27779-0.09103 0.08123
   3  -8   1 487.370 175.692   4 0.49728-0.05008-0.17372-0.42788-0.84877 0.85793
  -3   8  -2 85.1826 42.2771   3 0.53760-0.98269 0.87523-0.28146-0.09513 0.01901
   3  -8   2 116.890 84.5219   4 0.54766-0.09955-0.21546-0.37971-0.80615 0.88156
   3  -8   3 165.522 81.9989   4 0.59466-0.14564-0.25608-0.33264-0.75745 0.89912
   3  -8   4 1045.13 290.765   4 0.63736-0.18744-0.29483-0.28746-0.70354 0.91144
   3  -8   5 2962.79 489.279   4 0.67516-0.22433-0.33109-0.24477-0.64539 0.91954
   3  -8   6 127.441 100.978   4 0.70772-0.25598-0.36446-0.20496-0.58404 0.92444
   3  -8   7 245.874 149.014   4 0.73498-0.28234-0.39472-0.16827-0.52045 0.92710
   3  -8   8-97.6656 139.991   4 0.75705-0.30350-0.42177-0.13478-0.45546 0.92835
  -3   7   7 1114.48 314.108   3 0.37519-0.81991 0.96118-0.39190 0.07351 0.43923
  -3   7   6 845.936 262.077   3 0.39977-0.84549 0.95267-0.38985 0.04979 0.39663
  -3   7   5 1546.59 326.328   3 0.42209-0.86884 0.94371-0.38734 0.02775 0.35234
  -3   7   4 2893.58 441.191   3 0.44244-0.89019 0.93446-0.38455 0.00724 0.30653
  -3   7   3-18.9716 56.0125   3 0.46058-0.90935 0.92528-0.38184-0.01143 0.25888
   3  -7  -3 135.124 87.4915   4 0.23406 0.21784 0.02408-0.56893-0.96437 0.71656
  -3   7   2 172.637 98.1397   3 0.47610-0.92587 0.91671-0.37972-0.02768 0.20881
   3  -7  -2 84.3275 68.6579   4 0.28964 0.16317-0.01543-0.52300-0.95191 0.77035
  -3   7   1 160.457 108.710   3 0.48845-0.93924 0.90937-0.37883-0.04084 0.15564
   3  -7  -1 24.4860 73.3036   4 0.34794 0.10578-0.05803-0.47396-0.93266 0.81735
  -3   7   0 770.313 203.025   3 0.49765-0.94945 0.90360-0.37952-0.05075 0.09923
   3  -7   0 567.515 188.364   4 0.40735 0.04727-0.10282-0.42273-0.90581 0.85675
  -3   7  -1 879.903 198.864   3 0.50301-0.95583 0.90011-0.38249-0.05658 0.03874
   3  -7   1 872.535 228.347   4 0.46615-0.01061-0.14870-0.37042-0.87102 0.88820
  -3   7  -2 42.5510 44.8020   3 0.50343-0.95725 0.89983-0.38867-0.05703-0.02714
   3  -7   2-29.2528 74.1913   4 0.52260-0.06616-0.19449-0.31819-0.82845 0.91188
   3  -7   3 1349.02 294.127   4 0.57523-0.11788-0.23906-0.26719-0.77877 0.92845
   3  -7   4 11853.2 910.481   4 0.62288-0.16463-0.28146-0.21835-0.72303 0.93895
   3  -7   5 246.482 132.697   4 0.66484-0.20568-0.32097-0.17241-0.66245 0.94461
   3  -7   6 623.955 217.449   4 0.70074-0.24067-0.35710-0.12984-0.59830 0.94672
   3  -7   7-86.0191 143.415   4 0.73055-0.26958-0.38961-0.09089-0.53179 0.94645
   3  -7   8 622.228 202.306   5 0.36651 0.09596-0.78924 0.31470-0.48520 0.97232
   3  -7   8 1036.80 304.052   4 0.75448-0.29259-0.41845-0.05562-0.46392 0.94482
   3  -7   9-6.81686 41.2898   5 0.43836 0.02517-0.77573 0.30729-0.42212 0.97571
   3  -7   9-78.3316 79.2662   4 0.77285-0.31006-0.44368-0.02395-0.39550 0.94265
   3  -7  10-154.703 115.875   5 0.50581-0.04122-0.75540 0.29306-0.35570 0.97577
  -3   6   9 110.642 97.6377   3 0.28841-0.73984 0.98095-0.48137 0.15312 0.48422
  -3   6   8-11.6233 102.539   3 0.31649-0.76893 0.97621-0.48309 0.12803 0.44299
  -3   6   7 831.825 254.294   3 0.34236-0.79582 0.97046-0.48380 0.10435 0.40035
  -3   6   6 2050.68 387.377   3 0.36615-0.82062 0.96396-0.48376 0.08209 0.35628
  -3   6   5 3636.67 500.347   3 0.38783-0.84330 0.95697-0.48323 0.06138 0.31067
  -3   6   4 106.139 64.3528   3 0.40705-0.86354 0.94988-0.48259 0.04265 0.26307
  -3   6   3 240.611 138.640   3 0.42364-0.88114 0.94304-0.48221 0.02621 0.21320
  -3   6   2 253.029 127.091   3 0.43739-0.89590 0.93685-0.48248 0.01237 0.16071
   3  -6  -2 303.243 141.702   4 0.24203 0.21911 0.01847-0.47441-0.96292 0.78937
  -3   6   1 1439.38 264.086   3 0.44774-0.90727 0.93187-0.48395 0.00182 0.10494
   3  -6  -1 1590.97 307.699   4 0.30610 0.15595-0.02733-0.42217-0.94714 0.83984
  -3   6   0 158.984 87.3191   3 0.45393-0.91447 0.92875-0.48729-0.00454 0.04498
   3  -6   0 132.644 74.4579   4 0.37194 0.09102-0.07595-0.36712-0.92274 0.88169
  -3   6  -1 1381.56 243.760   3 0.45498-0.91653 0.92821-0.49321-0.00563-0.02025
   3  -6   1 1620.16 303.066   4 0.43740 0.02647-0.12606-0.31058-0.88914 0.91433
  -3   6  -2 46.7937 89.6827   3 0.44926-0.91182 0.93111-0.50257 0.00026-0.09247
   3  -6   2 233.899 157.457   4 0.50034-0.03557-0.17621-0.25399-0.84642 0.93786
   3  -6   3 139.097 91.5642   4 0.55889-0.09321-0.22500-0.19876-0.79537 0.95306
   3  -6   4 660.783 191.568   4 0.61163-0.14504-0.27124-0.14609-0.73729 0.96122
   3  -6   5 1430.28 312.124   4 0.65769-0.19019-0.31406-0.09684-0.67371 0.96389
   3  -6   6 16.9498 80.6934   4 0.69670-0.22830-0.35290-0.05156-0.60625 0.96268
   3  -6   7 223.895 132.210   4 0.72872-0.25941-0.38752-0.01050-0.53636 0.95903
   3  -6   8 196.657 98.8430   5 0.39953 0.07143-0.78399 0.39178-0.45711 0.95178
   3  -6   8 546.070 211.304   4 0.75406-0.28385-0.41792 0.02633-0.46525 0.95417
   3  -6   9 7.28607 54.1918   5 0.46852 0.00351-0.76764 0.38152-0.39336 0.95451
   3  -6   9 63.0878 123.669   4 0.77322-0.30210-0.44423 0.05908-0.39388 0.94905
   3  -6  10 137.561 99.2561   5 0.53250-0.05942-0.74500 0.36498-0.32719 0.95481
   3  -6  10 31.9195 116.765   4 0.78675-0.31472-0.46670 0.08799-0.32292 0.94434
   3  -6  11 308.857 131.458   5 0.59111-0.11697-0.71656 0.34265-0.25931 0.95341
   3  -6  11 643.530 245.940   2 0.86007-0.39016 0.48962-0.85907 0.36443 0.32577
  -3   5   9 163.120 144.710   3 0.24823-0.70840 0.98518-0.56822 0.18801 0.44129
  -3   5   8 463.224 192.731   3 0.27495-0.73613 0.98270-0.57219 0.16494 0.39803
  -3   5   7-13.6607 80.3428   3 0.29966-0.76185 0.97923-0.57519 0.14314 0.35351
  -3   5   6-47.0960 114.044   3 0.32220-0.78540 0.97505-0.57747 0.12285 0.30748
  -3   5   5 68.1664 63.1216   3 0.34211-0.80632 0.97053-0.57940 0.10458 0.25942
  -3   5   4 116.194 58.0043   3 0.35927-0.82450 0.96597-0.58129 0.08857 0.20911
  -3   5   3 78.3190 80.2792   3 0.37340-0.83964 0.96174-0.58353 0.07521 0.15615
  -3   5   2 974.421 210.227   3 0.38390-0.85115 0.95832-0.58656 0.06516 0.09988
   3  -5  -2 1134.77 251.595   4 0.19625 0.27323 0.05037-0.42383-0.96979 0.80425
  -3   5   1 449.074 162.477   3 0.39003-0.85829 0.95620-0.59090 0.05926 0.03946
   3  -5  -1 375.417 140.605   4 0.26642 0.20397 0.00120-0.36823-0.95779 0.85850
   3  -5   0 3293.64 417.861   4 0.33916 0.13213-0.05154-0.30905-0.93599 0.90294
  -3   5   0 2959.51 353.231   3 0.39060-0.85987 0.95600-0.59716 0.05870-0.02631
  -3   5  -1 736.934 166.347   3 0.38381-0.85409 0.95835-0.60596 0.06525-0.09918
   3  -5   1 739.402 202.179   4 0.41185 0.06035-0.10627-0.24788-0.90346 0.93666
   3  -5   2 1933.54 322.782   4 0.48177-0.00866-0.16119-0.18653-0.86021 0.95966
  -3   5  -2 1480.28 220.494   3 0.36680-0.83809 0.96377-0.61784 0.08148-0.18173
   3  -5   3 504.150 166.456   4 0.54656-0.07254-0.21452-0.12676-0.80718 0.97288
  -3   5  -3 764.548 147.938   3 0.33379-0.80609 0.97252-0.63305 0.11226-0.27883
   3  -5   4 46467.6 1805.60   4 0.60446-0.12953-0.26480-0.07005-0.74600 0.97795
   3  -5   5 2130.21 356.479   4 0.65445-0.17862-0.31095-0.01746-0.67867 0.97687
   3  -5   6 2137.50 380.960   4 0.69620-0.21947-0.35238 0.03041-0.60721 0.97165
   3  -5   7 46.3986 45.1887   5 0.36881 0.10958-0.78893 0.47295-0.48329 0.91904
   3  -5   7 98.0104 106.558   4 0.72991-0.25226-0.38887 0.07334-0.53341 0.96409
   3  -5   8 959.131 247.003   5 0.43891 0.04055-0.77560 0.46571-0.42161 0.92384
   3  -5   8 1213.81 294.685   4 0.75607-0.27752-0.42050 0.11140-0.45869 0.95563
   3  -5   9 116.585 116.975   5 0.50394-0.02342-0.75608 0.45230-0.35765 0.92635
   3  -5   9 49.2657 103.375   4 0.77539-0.29594-0.44752 0.14486-0.38415 0.94733
   3  -5  10 613.091 216.315   5 0.56357-0.08199-0.73095 0.43327-0.29218 0.92736
   3  -5  10 717.533 273.733   4 0.78859-0.30823-0.47028 0.17405-0.31049 0.93992
   3  -5  11 114.460 95.1753   5 0.61764-0.13500-0.70076 0.40918-0.22582 0.92748
  -3   4  10 491.919 181.829   3 0.17184-0.63973 0.98546-0.64466 0.25123 0.43635
  -3   4   9 1197.85 297.113   3 0.19900-0.66790 0.98649-0.65215 0.22921 0.39205
  -3   4   8 733.390 231.151   3 0.22409-0.69400 0.98634-0.65846 0.20842 0.34651
  -3   4   7 127.638 113.107   3 0.24633-0.71726 0.98531-0.66388 0.18963 0.29898
  -3   4   6 2737.65 416.983   3 0.26614-0.73808 0.98366-0.66869 0.17260 0.24968
  -3   4   5 28088.7 1356.51   3 0.28325-0.75620 0.98166-0.67315 0.15767 0.19830
  -3   4   4 31.9345 62.9853   3 0.29702-0.77098 0.97966-0.67760 0.14549 0.14415
  -3   4   3 3242.80 392.545   3 0.30697-0.78194 0.97798-0.68239 0.13660 0.08672
  -3   4   2 289.512 108.586   3 0.31202-0.78800 0.97706-0.68792 0.13206 0.02493
  -3   4   1-60.3205 79.7230   3 0.31106-0.78806 0.97724-0.69456 0.13292-0.04225
   3  -4  -1-21.6993 42.8325   4 0.22961 0.24911 0.02720-0.31174-0.96513 0.87386
  -3   4   0 776.086 174.056   3 0.30220-0.78021 0.97881-0.70258 0.14087-0.11652
   3  -4   0 686.896 181.754   4 0.30990 0.16973-0.03009-0.24802-0.94597 0.92094
   3  -4   1 1688.67 286.948   4 0.39050 0.09003-0.08997-0.18170-0.91422 0.95544
  -3   4  -1 1580.17 183.076   1-0.00598-0.47338 0.66460-0.39305 0.80343-0.84371
  -3   4  -1 1460.17 223.959   3 0.28227-0.76129 0.98179-0.71202 0.15853-0.20050
   3  -4   2 372.213 147.986   4 0.46798 0.01346-0.15016-0.11508-0.86979 0.97725
  -3   4  -2 405.602 105.943   3 0.24609-0.72612 0.98533-0.72202 0.18984-0.29813
   3  -4   3-8.49102 53.9079   4 0.53931-0.05696-0.20842-0.05038-0.81383 0.98755
  -3   4  -3 71.2307 52.7614   3 0.18410-0.66514 0.98608-0.72922 0.24135-0.41596
   3  -4   4 1089.22 251.116   4 0.60234-0.11908-0.26291 0.01054-0.74852 0.98848
   3  -4   5 4550.02 504.803   4 0.65592-0.17176-0.31236 0.06643-0.67643 0.98264
   3  -4   6 41.2895 63.6444   4 0.69982-0.21475-0.35614 0.11665-0.60013 0.97258
   3  -4   7 547.824 189.099   5 0.41812 0.06878-0.78033 0.54668-0.44064 0.88394
   3  -4   7 949.390 242.493   4 0.73446-0.24849-0.39412 0.16106-0.52180 0.96050
   3  -4   8 4.35669 88.8807   5 0.48357 0.00439-0.76301 0.53546-0.37846 0.88824
   3  -4   8-37.7459 57.6881   4 0.76064-0.27376-0.42651 0.19989-0.44310 0.94805
   3  -4   9 1926.65 370.563   5 0.54352-0.05451-0.74026 0.51881-0.31500 0.89126
   3  -4   9 2376.21 421.764   4 0.77932-0.29153-0.45373 0.23355-0.36521 0.93641
   3  -4  10 265.375 136.129   5 0.59791-0.10784-0.71270 0.49735-0.25091 0.89365
   3  -4  10 75.9523 108.474   4 0.79144-0.30274-0.47628 0.26253-0.28887 0.92631
   3  -4  11-21.6175 105.399   5 0.64680-0.15567-0.68086 0.47161-0.18663 0.89585
   3  -4  12 187.131 118.830   5 0.69032-0.19813-0.64518 0.44203-0.12250 0.89819
  -3   3  11 43.6238 70.7817   3 0.08854-0.56415 0.97493-0.71029 0.31582 0.43004
  -3   3  10 802.029 270.826   3 0.11555-0.59218 0.97954-0.72136 0.29535 0.38418
  -3   3   9 9.68081 55.3260   3 0.14021-0.61785 0.98276-0.73103 0.27627 0.33694
  -3   3   8 915.763 241.215   3 0.16236-0.64101 0.98482-0.73955 0.25880 0.28809
  -3   3   7 352.997 136.313   3 0.18175-0.66141 0.98598-0.74717 0.24325 0.23731
  -3   3   6-3.51248 69.9131   3 0.19807-0.67874 0.98647-0.75412 0.22997 0.18427
  -3   3   5 805.012 205.985   3 0.21078-0.69246 0.98655-0.76066 0.21950 0.12842
  -3   3   4 11744.9 789.430   3 0.21929-0.70199 0.98645-0.76701 0.21242 0.06917
  -3   3   3-22.9589 69.0020   3 0.22285-0.70656 0.98638-0.77339 0.20945 0.00582
  -3   3   2 141.604 85.2117   3 0.21973-0.70445 0.98644-0.77992 0.21206-0.06311
  -3   3   1 210.214 98.2912   3 0.20861-0.69434 0.98656-0.78649 0.22130-0.13867
   3  -3  -1 15.3064 37.9707   4 0.19659 0.29047 0.05014-0.25220-0.96975 0.88649
   3  -3   0 4680.53 470.828   4 0.28525 0.20271-0.01227-0.18336-0.95310 0.93608
  -3   3   0 4269.56 344.238   1 0.04458-0.53151 0.69464-0.49910 0.78175-0.76365
  -3   3   0 4291.29 379.532   3 0.18608-0.67282 0.98615-0.79254 0.23974-0.22344
  -3   3  -1 500.132 109.124   1-0.11657-0.37107 0.59004-0.40081 0.84020-0.88832
   3  -3   1 529.805 155.286   4 0.37464 0.11423-0.07798-0.11121-0.92155 0.97078
  -3   3  -1 511.665 117.438   3 0.14753-0.63529 0.98353-0.79637 0.27053-0.32055
   3  -3   2 7914.18 607.080   4 0.46034 0.02943-0.14409-0.03866-0.87486 0.99033
  -3   3  -2 7270.73 443.027   3 0.08465-0.57342 0.97417-0.79348 0.31872-0.43506
   3  -3   3 2327.66 328.228   4 0.53847-0.04779-0.20772 0.03140-0.81459 0.99632
  -3   3  -3 1761.97 186.568   3-0.01852-0.47126 0.94568-0.77144 0.39252-0.57518
   3  -3   4 10803.8 745.613   4 0.60640-0.11482-0.26654 0.09666-0.74366 0.99163
   3  -3   5 4049.76 465.524   4 0.66292-0.17043-0.31911 0.15566-0.66551 0.97972
   3  -3   6 801.642 211.460   5 0.40755 0.08678-0.78248 0.62505-0.45007 0.83445
   3  -3   6 921.576 222.431   4 0.70804-0.21464-0.36480 0.20779-0.58337 0.96383
   3  -3   7 172.605 115.008   5 0.47259 0.02279-0.76642 0.61510-0.38936 0.84022
   3  -3   7 362.822 174.595   4 0.74256-0.24825-0.40368 0.25310-0.49987 0.94658
   3  -3   8 177.459 124.233   5 0.53203-0.03558-0.74519 0.59997-0.32771 0.84504
   3  -3   8 203.993 101.637   4 0.76768-0.27247-0.43617 0.29203-0.41690 0.92986
   3  -3   9 168.487 101.740   5 0.58588-0.08837-0.71945 0.58033-0.26570 0.84952
   3  -3   9 234.684 140.922   4 0.78470-0.28858-0.46293 0.32522-0.33565 0.91486
   3  -3  10 787.746 239.524   5 0.63429-0.13572-0.68975 0.55673-0.20378 0.85407
   3  -3  11-57.0739 107.200   5 0.67747-0.17785-0.65657 0.52964-0.14223 0.85900
   3  -3  12 1174.99 320.530   5 0.71567-0.21499-0.62025 0.49943-0.08122 0.86447
  -3   2  11 475.577 195.840   3 0.02685-0.51120 0.96020-0.77817 0.36087 0.37694
  -3   2  10 838.349 250.245   3 0.05092-0.53628 0.96664-0.79107 0.34357 0.32792
  -3   2   9 45.6480 91.5590   3 0.07231-0.55869 0.97162-0.80251 0.32789 0.27727
  -3   2   8-137.458 142.321   3 0.09078-0.57816 0.97536-0.81270 0.31414 0.22471
  -3   2   7 4989.51 560.834   3 0.10596-0.59435 0.97803-0.82184 0.30267 0.16985
  -3   2   6 285.861 120.983   3 0.11737-0.60678 0.97981-0.83008 0.29396 0.11224
  -3   2   5 35672.1 1483.55   3 0.12436-0.61478 0.98080-0.83752 0.28858 0.05130
  -3   2   4 373.065 134.315   3 0.12604-0.61747 0.98103-0.84420 0.28729-0.01373
   3  -2  -3 3496.05 297.981   6 0.47452 0.01866-0.36890 0.23869 0.73329-0.94292
  -3   2   3 3489.05 393.706   3 0.12114-0.61359 0.98035-0.84999 0.29106-0.08383
  -3   2   2 128.761 61.5508   3 0.10790-0.60136 0.97835-0.85444 0.30119-0.16029
  -3   2   1 9577.32 572.030   1 0.05441-0.54892 0.70018-0.58067 0.77718-0.70069
  -3   2   1 9484.05 604.418   3 0.08374-0.57820 0.97399-0.85654 0.31941-0.24482
  -3   2   0-36.5390 35.7957   1-0.06412-0.43109 0.62692-0.51371 0.82460-0.81433
   3  -2   0 4.08412 39.4624   4 0.26667 0.22962 0.00103-0.11417-0.95773 0.94873
  -3   2   0-26.6745 60.6387   3 0.04480-0.54028 0.96508-0.85409 0.34800-0.33974
  -3   2  -1 6428.90 446.162   3-0.01484-0.48165 0.94697-0.84243 0.39000-0.44806
   3  -2   1 7414.69 556.730   4 0.36597 0.13123-0.07147-0.03523-0.92532 0.98257
  -3   2  -1 7136.57 437.046   1-0.21500-0.28091 0.51316-0.40626 0.86028-0.91624
  -3   2  -2 192.508 60.2673   3-0.10462-0.39288 0.90951-0.81144 0.44914-0.57353
   3  -2   2 406.841 143.487   4 0.46063 0.03748-0.14432 0.04405-0.87466 0.99816
  -3   2  -3 13485.3 567.175   3-0.24018-0.25833 0.82891-0.73729 0.52880-0.71951
   3  -2   3 17069.8 882.916   4 0.54566-0.04665-0.21377 0.11993-0.80801 0.99775
   3  -2   4 5755.85 515.850   4 0.61790-0.11798-0.27691 0.18952-0.72944 0.98542
   3  -2   5 74.6815 71.0650   5 0.40895 0.09281-0.78220 0.70101-0.44883 0.77429
   3  -2   5 308.793 105.189   4 0.67622-0.17540-0.33215 0.25119-0.64357 0.96580
   3  -2   6 871.840 230.492   5 0.47245 0.03037-0.76646 0.69137-0.38950 0.78143
   3  -2   6 1195.06 251.961   4 0.72114-0.21940-0.37902 0.30450-0.55449 0.94297
   3  -2   7 560.313 184.944   5 0.53026-0.02638-0.74593 0.67694-0.32963 0.78805
   3  -2   7 716.817 188.315   4 0.75405-0.25141-0.41790 0.34981-0.46529 0.92002
   3  -2   8-347.920 154.088   5 0.58251-0.07757-0.72127 0.65838-0.26978 0.79467
   3  -2   8 38.7988 86.5901   4 0.77672-0.27317-0.44958 0.38793-0.37795 0.89892
   3  -2   9-89.6524 69.3480   5 0.62943-0.12343-0.69305 0.63626-0.21029 0.80166
   3  -2   9 30.9057 100.624   4 0.79085-0.28640-0.47500 0.41978-0.29358 0.88080
   3  -2  10 69.8912 94.8631   5 0.67133-0.16427-0.66174 0.61105-0.15141 0.80926
   3  -2  11 1019.59 271.831   5 0.70850-0.20038-0.62767 0.58308-0.09325 0.81757
   3  -2  12 1203.44 323.389   5 0.74120-0.23203-0.59110 0.55261-0.03585 0.82664
  -3   1  12 987.633 279.977   3-0.06491-0.42716 0.92760-0.82173 0.42360 0.37250
  -3   1  11 258.558 148.671   3-0.04159-0.45149 0.93709-0.83769 0.40814 0.32163
  -3   1  10 652.404 235.329   3-0.02108-0.47301 0.94476-0.85181 0.39427 0.26917
  -3   1   9 637.112 217.574   3-0.00365-0.49146 0.95078-0.86429 0.38228 0.21484
  -3   1   8 1867.10 339.848   3 0.01037-0.50649 0.95528-0.87525 0.37251 0.15829
  -3   1   7 297.480 162.542   3 0.02050-0.51763 0.95835-0.88477 0.36537 0.09910
  -3   1   6 1771.09 303.314   3 0.02611-0.52426 0.95999-0.89287 0.36139 0.03676
   3  -1  -5 1295.52 182.852   6 0.77443-0.27402 0.02097-0.08173 0.62953-0.96394
  -3   1   5 1014.10 219.988   3 0.02638-0.52553 0.96006-0.89940 0.36120-0.02937
   3  -1  -4 4168.04 337.480   6 0.65997-0.15879-0.15852 0.10429 0.69699-0.96496
  -3   1   4 3619.75 416.384   3 0.02018-0.52035 0.95826-0.90405 0.36560-0.10009
  -3   1   3 793.912 179.636   1 0.11397-0.61536 0.73172-0.68192 0.74701-0.54591
   3  -1  -3 709.139 145.822   6 0.52632-0.02439-0.31670 0.26900 0.72911-0.93064
  -3   1   3 768.619 181.875   3 0.00601-0.50720 0.95391-0.90617 0.37556-0.17637
  -3   1   2 50.2560 44.3422   1 0.04213-0.54422 0.69324-0.64975 0.78287-0.64799
  -3   1   2-63.3240 55.3925   3-0.01817-0.48402 0.94580-0.90451 0.39228-0.25942
  -3   1   1 1303.82 221.449   3-0.05519-0.44802 0.93166-0.89682 0.41719-0.35065
  -3   1   1 1193.39 199.945   1-0.05039-0.45239 0.63612-0.59893 0.81996-0.75131
  -3   1   0 2214.47 267.250   3-0.10886-0.39535 0.90744-0.87906 0.45182-0.45160
   3  -1   0 2193.49 288.190   4 0.25615 0.24848 0.00850-0.03916-0.96008 0.95909
  -3   1   0 1781.09 239.413   1-0.16522-0.33827 0.55332-0.52243 0.85166-0.84923
  -3   1  -1 976.351 171.969   3-0.18433-0.32090 0.86576-0.84384 0.49744-0.56355
   3  -1   1 1055.22 194.290   4 0.36679 0.13874-0.07209 0.04786-0.92497 0.99023
   3  -1   2 5740.16 468.157   4 0.47118 0.03526-0.15271 0.13492-0.86761 0.99912
   3  -1   3 5847.70 489.380   4 0.56282-0.05548-0.22837 0.21701-0.79148 0.98923
   3  -1   4 28.0953 53.9855   5 0.42438 0.08482-0.77898 0.77402-0.43498 0.70152
   3  -1   4 178.768 99.6765   4 0.63810-0.12985-0.29551 0.29060-0.70251 0.96651
   3  -1   5 1847.54 311.253   5 0.48476 0.02550-0.76262 0.76377-0.37726 0.71027
   3  -1   5 2143.76 307.603   4 0.69633-0.18717-0.35252 0.35404-0.60696 0.93721
   3  -1   6 5139.98 497.919   4 0.73893-0.22886-0.39935 0.40730-0.50993 0.90642
   3  -1   6 4344.82 518.769   5 0.53947-0.02815-0.74204 0.74928-0.31952 0.71901
   3  -1   7 806.662 230.279   5 0.58877-0.07640-0.71786 0.73120-0.26218 0.72814
   3  -1   7 943.732 225.535   4 0.76821-0.25724-0.43693 0.45132-0.41479 0.87753
   3  -1   8 1901.50 354.029   5 0.63301-0.11958-0.69062 0.71006-0.20550 0.73794
   3  -1   8 2310.78 373.983   4 0.78667-0.27479-0.46655 0.48738-0.32343 0.85242
   3  -1   9-43.4874 96.3309   5 0.67254-0.15805-0.66073 0.68628-0.14962 0.74854
   3  -1  10 853.707 252.060   5 0.70768-0.19213-0.62849 0.66013-0.09459 0.75999
   3  -1  11 279.967 172.656   5 0.73874-0.22213-0.59412 0.63186-0.04042 0.77230
  -3   0  12-77.0473 86.6891   3-0.13496-0.36585 0.89405-0.87080 0.46800 0.32004
  -3   0  11 48.2820 59.9101   3-0.11528-0.38654 0.90425-0.88746 0.45584 0.26589
  -3   0  10 779.336 230.095   3-0.09875-0.40408 0.91234-0.90201 0.44543 0.20997
  -3   0   9 3518.60 496.232   3-0.08570-0.41815 0.91843-0.91456 0.43709 0.15199
  -3   0   8-72.7695 85.9058   3-0.07655-0.42831 0.92255-0.92513 0.43118 0.09157
  -3   0   7 7714.72 685.324   3-0.07186-0.43401 0.92461-0.93365 0.42813 0.02830
   3   0  -6 733.670 151.577   6 0.83802-0.32963 0.16161-0.14639 0.55489-0.94763
  -3   0   6 762.672 199.319   3-0.07234-0.43454 0.92440-0.93989 0.42845-0.03834
   3   0  -5 1803.90 242.012   6 0.77023-0.26108 0.01318 0.00857 0.63310-0.95940
  -3   0   5 1203.48 246.015   3-0.07893-0.42896 0.92149-0.94344 0.43273-0.10894
  -3   0   4 67.2426 45.8572   3-0.09280-0.41610 0.91515-0.94356 0.44164-0.18418
  -3   0   4 213.061 98.8543   1 0.07539-0.58435 0.71170-0.73792 0.76704-0.50756
   3   0  -4 180.948 76.9039   6 0.67924-0.16932-0.13202 0.16030 0.68902-0.94888
  -3   0   3 2084.61 300.879   3-0.11547-0.39444 0.90415-0.93902 0.45596-0.26482
  -3   0   3 2660.90 338.065   1 0.01604-0.52570 0.67799-0.71051 0.79437-0.60110
   3   0  -3 2464.72 292.606   6 0.57336-0.06267-0.26535 0.30016 0.72173-0.91515
  -3   0   2 97.9172 49.7095   3-0.14883-0.36209 0.88650-0.92782 0.47644-0.35162
  -3   0   2 2.00797 64.6095   1-0.05868-0.45168 0.63059-0.66942 0.82279-0.69575
   3   0  -2-0.39405 40.8449   6 0.46224 0.04921-0.38067 0.42202 0.73373-0.86071
  -3   0   1 105.876 98.0846   3-0.19520-0.31674 0.85900-0.90678 0.50371-0.44522
  -3   0   1 278.689 112.833   1-0.14969-0.36137 0.56530-0.61044 0.84833-0.78751
  -3   0   0 20.1136 34.5044   1-0.25588-0.25588 0.47815-0.52958 0.86491-0.87032
  -3   0   0-44.3228 57.9306   3-0.25722-0.25573 0.81661-0.87085 0.53794-0.54577
   3   0   0-31.6830 28.1236   4 0.25648 0.25648 0.00827 0.04356-0.96000 0.96703
   3   0   1 1816.96 244.210   4 0.38035 0.13352-0.08228 0.14054-0.91898 0.99225
   3   0   2-33.4466 51.0018   5 0.39536 0.12021-0.78474 0.84991-0.46074 0.60188
   3   0   2 78.2825 45.1483   4 0.49507 0.01971-0.17192 0.23662-0.85044 0.98996
   3   0   3 1747.36 245.977   4 0.59224-0.07656-0.25394 0.32507-0.76021 0.96598
   3   0   3 1890.69 282.947   5 0.45609 0.06054-0.77116 0.84243-0.40539 0.61300
   3   0   4 4017.17 392.968   4 0.66806-0.15148-0.32411 0.40168-0.65722 0.92923
   3   0   4 3909.51 453.939   5 0.51114 0.00655-0.75344 0.83082-0.35012 0.62421
   3   0   5 1221.04 257.342   5 0.56082-0.04207-0.73229 0.81576-0.29536 0.63593
   3   0   5 1327.31 234.149   4 0.72308-0.20559-0.38118 0.46518-0.54995 0.88821
   3   0   6 3286.12 386.936   4 0.76027-0.24187-0.42602 0.51645-0.44440 0.84890
   3   0   6 3227.49 441.746   5 0.60551-0.08570-0.70824 0.79781-0.24137 0.64842
   3   0   7 1152.33 285.112   5 0.64563-0.12476-0.68172 0.77739-0.18826 0.66178
   3   0   7 1136.72 231.912   4 0.78330-0.26399-0.46043 0.55730-0.34386 0.81461
   3   0   8 324.462 131.513   5 0.68154-0.15962-0.65304 0.75481-0.13606 0.67606
   3   0   9-171.004 127.769   5 0.71359-0.19060-0.62244 0.73031-0.08475 0.69122
   3   0  10 1044.55 283.614   5 0.74204-0.21800-0.59006 0.70403-0.03428 0.70723
   3   0  11 2895.94 481.366   5 0.76713-0.24203-0.55600 0.67607 0.01542 0.72401
  -3  -1  12 384.547 182.507   3-0.20807-0.30148 0.85075-0.91011 0.51103 0.26897
  -3  -1  11 74.6374 133.443   3-0.19219-0.31836 0.86089-0.92672 0.50199 0.21170
  -3  -1  10 1719.84 356.681   3-0.17977-0.33180 0.86854-0.94083 0.49479 0.15257
  -3  -1   9 19.6325 118.968   3-0.17115-0.34143 0.87370-0.95244 0.48974 0.09130
  -3  -1   8 641.882 200.049   3-0.16681-0.34679 0.87625-0.96145 0.48718 0.02754
  -3  -1   7 15.1420 80.1192   3-0.16733-0.34728 0.87595-0.96760 0.48748-0.03909
   3   1  -7 133.343 95.6445   6 0.86936-0.35298 0.26471-0.17350 0.48743-0.93851
  -3  -1   7 63.5635 52.7084   1 0.09879-0.61393 0.72402-0.81365 0.75511-0.30479
  -3  -1   6 9467.57 736.284   3-0.17342-0.34220 0.87235-0.97047 0.49107-0.10901
  -3  -1   6 8416.23 706.522   1 0.06921-0.58505 0.70835-0.80429 0.77008-0.38599
   3   1  -6 10737.2 654.910   6 0.83161-0.31446 0.14470-0.04696 0.56490-0.94953
  -3  -1   5 3689.59 448.275   3-0.18597-0.33066 0.86476-0.96933 0.49839-0.18265
  -3  -1   5 4042.78 459.728   1 0.03024-0.54678 0.68638-0.78862 0.78821-0.47034
   3   1  -5 3967.66 388.562   6 0.77456-0.25666 0.02122 0.08304 0.62941-0.94760
  -3  -1   4 214.115 106.553   3-0.20602-0.31162 0.85208-0.96311 0.50987-0.26045
  -3  -1   4 224.273 108.798   1-0.01944-0.49779 0.65617-0.76472 0.80869-0.55704
   3   1  -4 212.717 110.236   6 0.70117-0.18249-0.10038 0.21117 0.67858-0.93033
  -3  -1   3 1728.41 283.700   3-0.23479-0.28386 0.83271-0.95019 0.52587-0.34277
   3   1  -3 2529.20 319.526   6 0.61618-0.09674-0.21478 0.33210 0.71154-0.89685
  -3  -1   3 2191.32 314.192   1-0.08098-0.43695 0.61536-0.73021 0.82998-0.64455
  -3  -1   2 5712.40 513.164   3-0.27361-0.24605 0.80428-0.92822 0.54654-0.42976
   3   1  -2 6558.68 526.601   6 0.52544-0.00524-0.31762 0.44147 0.72921-0.84808
  -3  -1   2 7259.81 563.806   1-0.15493-0.36371 0.56129-0.68244 0.84949-0.73028
  -3  -1   1 310.668 108.858   1-0.24066-0.27867 0.49140-0.61886 0.86346-0.81048
   3   1   0 1296.98 194.465   4 0.27188 0.24942-0.00269 0.13699-0.95649 0.97153
   3   1   0 1323.94 214.965   5 0.39759 0.12436-0.78434 0.91965-0.45881 0.47454
   3   1   1 2179.63 250.178   4 0.41141 0.11079-0.10593 0.24667-0.90369 0.98497
   3   1   1 2088.60 280.186   5 0.45456 0.06845-0.77157 0.91298-0.40685 0.48907
   3   1   2 21933.2 875.033   4 0.53644-0.01333-0.20601 0.35319-0.81642 0.96395
   3   1   2 23044.2 1035.85   5 0.50621 0.01785-0.75526 0.90276-0.35528 0.50398
   3   1   3 32823.4 1130.60   4 0.63620-0.11219-0.29375 0.44736-0.70515 0.91892
   3   1   3 32491.9 1322.20   5 0.55292-0.02780-0.73601 0.88962-0.30441 0.51958
   3   1   4 1093.18 241.714   5 0.59511-0.06892-0.71431 0.87401-0.25439 0.53604
   3   1   4 1381.53 207.289   4 0.70785-0.18293-0.36460 0.52465-0.58377 0.86379
   3   1   5 1458.53 287.768   5 0.63319-0.10595-0.69050 0.85631-0.20526 0.55338
   3   1   5 1558.62 237.690   4 0.75464-0.22881-0.41866 0.58514-0.46339 0.80966
   3   1   6 743.229 207.174   5 0.66754-0.13924-0.66485 0.83675-0.15700 0.57160
   3   1   6 1277.15 226.885   4 0.78217-0.25543-0.45848 0.63140-0.35019 0.76270
   3   1   7 616.318 196.096   5 0.69848-0.16912-0.63754 0.81554-0.10957 0.59065
   3   1   8 137.371 108.758   5 0.72628-0.19586-0.60869 0.79279-0.06289 0.61044
   3   1   9 603.430 229.365   5 0.75115-0.21967-0.57838 0.76859-0.01688 0.63092
   3   1  10 24.4255 63.6465   5 0.77327-0.24072-0.54666 0.74296 0.02852 0.65199
   3   1  11 1041.95 291.301   5 0.79274-0.25914-0.51353 0.71594 0.07341 0.67358
  -3  -2  12 63.2321 56.2863   3-0.28218-0.23610 0.79764-0.93962 0.55095 0.22101
  -3  -2  11 221.140 157.250   1 0.07545-0.59606 0.71173-0.85847 0.76701-0.05964
  -3  -2  11 221.411 138.119   3-0.27000-0.24929 0.80704-0.95548 0.54466 0.16098
  -3  -2  10 589.048 191.019   1 0.06882-0.59013 0.70814-0.86118 0.77028-0.12913
  -3  -2  10 461.290 183.196   3-0.26146-0.25885 0.81346-0.96836 0.54018 0.09913
  -3  -2   9 133.333 118.387   1 0.05673-0.57875 0.70148-0.86083 0.77609-0.20116
  -3  -2   9-69.8445 95.0536   3-0.25693-0.26439 0.81682-0.97818 0.53779 0.03520
  -3  -2   8 227.163 136.885   1 0.03848-0.56120 0.69115-0.85680 0.78453-0.27583
  -3  -2   8 289.313 137.127   3-0.25685-0.26548 0.81688-0.98469 0.53775-0.03108
   3   2  -8 191.266 113.184   6 0.88385-0.35949 0.34517-0.17798 0.42648-0.93589
  -3  -2   7 7762.23 706.778   3-0.26176-0.26158 0.81324-0.98751 0.54034-0.10000
  -3  -2   7 7874.42 707.263   1 0.01325-0.53667 0.67632-0.84828 0.79554-0.35306
   3   2  -7 8582.95 642.797   6 0.86497-0.33984 0.24706-0.07335 0.49979-0.94276
  -3  -2   6 3574.26 468.243   3-0.27228-0.25208 0.80530-0.98603 0.54585-0.17182
   3   2  -6 4071.89 436.761   6 0.83130-0.30541 0.14391 0.03634 0.56536-0.94188
  -3  -2   6 3756.23 471.620   1-0.01983-0.50428 0.65592-0.83418 0.80884-0.43258
   3   2  -5 45.0232 53.3786   6 0.78366-0.25701 0.03860 0.14817 0.62122-0.93131
  -3  -2   5 40.1245 96.1747   1-0.06164-0.46317 0.62860-0.81316 0.82378-0.51374
  -3  -2   4 121.165 109.450   1-0.11287-0.41264 0.59273-0.78360 0.83921-0.59540
   3   2  -4-25.1746 48.0988   6 0.72398-0.19656-0.06547 0.25878 0.66593-0.90957
   3   2  -3 4107.69 429.906   6 0.65522-0.12704-0.16486 0.36470 0.69880-0.87600
  -3  -2   3 3703.56 422.467   1-0.17384-0.35237 0.54655-0.74372 0.85338-0.67580
   3   2  -3 4257.34 332.657   5 0.40529 0.12197-0.78291 0.98225-0.45206 0.27592
   3   2  -2 3276.73 393.864   6 0.58108-0.05213-0.25652 0.46288 0.72016-0.83092
  -3  -2   2 3201.14 389.152   1-0.24416-0.28275 0.48837-0.69185 0.86382-0.75245
   3   2  -2 3396.97 306.764   5 0.45316 0.07516-0.77195 0.97738-0.40818 0.29852
   3   2  -1 1128.27 230.610   6 0.50548 0.02424-0.33821 0.55110 0.73125-0.77557
   3   2  -1 1383.76 205.945   5 0.49744 0.03194-0.75838 0.96991-0.36437 0.32119
   3   2   0 217.930 91.2614   5 0.53825-0.00781-0.74256 0.96019-0.32086 0.34415
   3   2   0 127.398 60.2960   4 0.30918 0.22044-0.02957 0.24636-0.94619 0.96924
   3   2   1 1268.51 219.543   5 0.57583-0.04433-0.72478 0.94852-0.27777 0.36754
   3   2   1 1231.59 176.868   4 0.46746 0.06308-0.14974 0.37297-0.87014 0.95943
   3   2   2 746.594 170.324   5 0.61042-0.07786-0.70526 0.93510-0.23513 0.39138
   3   2   2 977.953 154.694   4 0.60065-0.06921-0.26140 0.49106-0.75051 0.90605
   3   2   3 6840.03 432.789   4 0.69584-0.16349-0.35200 0.58810-0.60792 0.82971
   3   2   3 7048.62 575.896   5 0.64224-0.10862-0.68416 0.92010-0.19294 0.41566
   3   2   4 617.810 186.535   5 0.67150-0.13682-0.66160 0.90364-0.15117 0.44037
   3   2   4 510.484 126.912   4 0.75437-0.22112-0.41832 0.66085-0.46425 0.75228
   3   2   5 28.9729 81.6472   5 0.69835-0.16261-0.63767 0.88580-0.10979 0.46546
   3   2   6 7.08336 133.488   5 0.72294-0.18614-0.61242 0.86665-0.06875 0.49090
   3   2   7 872.589 253.572   5 0.74537-0.20751-0.58588 0.84621-0.02801 0.51664
   3   2   8 663.234 238.722   5 0.76572-0.22681-0.55808 0.82452 0.01247 0.54264
   3   2   9-93.6186 142.616   5 0.78406-0.24408-0.52902 0.80156 0.05272 0.56887
   3   2  10 868.098 289.085   5 0.80041-0.25938-0.49869 0.77732 0.09278 0.59528
  -3  -3  11 692.028 243.693   1 0.00006-0.52895 0.66832-0.89738 0.80100-0.10147
  -3  -3  10 199.387 80.3496   1-0.00953-0.52006 0.66239-0.89776 0.80484-0.17153
  -3  -3   9-10.7769 103.361   1-0.02464-0.50565 0.65287-0.89454 0.81066-0.24357
   3   3  -9 275.048 132.248   6 0.88833-0.35599 0.41159-0.16843 0.36991-0.93765
  -3  -3   8-74.6522 59.1830   1-0.04583-0.48516 0.63914-0.88711 0.81837-0.31751
   3   3  -8-43.8123 63.0777   6 0.88183-0.34872 0.32991-0.08021 0.43864-0.93994
   3   3  -7-19.3653 61.0072   6 0.86398-0.33010 0.24329 0.01293 0.50238-0.93725
  -3  -3   7 14.4200 83.4984   1-0.07371-0.45798 0.62039-0.87467 0.82770-0.39306
  -3  -3   6 290.096 134.213   1-0.10883-0.42356 0.59565-0.85624 0.83811-0.46969
   3   3  -6 306.399 156.621   6 0.83492-0.30028 0.15334 0.10941 0.55982-0.92824
  -3  -3   5 170.061 76.5955   1-0.15164-0.38145 0.56381-0.83070 0.84876-0.54656
   3   3  -5-76.4909 86.0900   6 0.79538-0.25997 0.06203 0.20725 0.60973-0.91170
  -3  -3   4 1099.51 256.047   1-0.20229-0.33149 0.52366-0.79686 0.85839-0.62241
   3   3  -4 1100.42 246.019   6 0.74669-0.21052-0.02836 0.30417 0.65118-0.88671
   3   3  -3 1492.86 274.772   6 0.69083-0.15390-0.11551 0.39785 0.68369-0.85279
  -3  -3   3 1941.65 323.170   1-0.26050-0.27398 0.47407-0.75357 0.86529-0.69554
   3   3  -2 1900.59 320.007   6 0.63025-0.09255-0.19724 0.48611 0.70736-0.81001
   3   3  -2 2450.67 249.496   5 0.62978-0.09297-0.69282 0.98058-0.20983 0.10772
   3   3  -1 407.716 120.584   5 0.64551-0.10763-0.68181 0.97567-0.18843 0.15280
   3   3  -1 194.079 110.637   6 0.56763-0.02917-0.27182 0.56722 0.72283-0.75904
   3   3   0 181.000 76.0565   5 0.66314-0.12420-0.66839 0.96836-0.16343 0.19427
   3   3   0 261.877 133.672   6 0.50560 0.03363-0.33809 0.64002 0.73124-0.70101
   3   3   1 8710.09 589.161   5 0.68162-0.14163-0.65298 0.95904-0.13594 0.23326
   3   3   2 12719.9 767.591   5 0.70029-0.15923-0.63580 0.94797-0.10667 0.27047
   3   3   3 41506.7 1563.84   5 0.71869-0.17658-0.61703 0.93530-0.07607 0.30635
   3   3   4 123.315 51.6250   5 0.73654-0.19337-0.59677 0.92114-0.04446 0.34122
   3   3   5-3.11894 89.5730   5 0.75362-0.20939-0.57510 0.90556-0.01206 0.37529
   3   3   6 18.4394 74.0427   5 0.76976-0.22447-0.55205 0.88862 0.02098 0.40873
   3   3   7 1677.25 341.672   5 0.78484-0.23849-0.52768 0.87034 0.05454 0.44165
   3   3   8 102.291 106.111   5 0.79877-0.25136-0.50198 0.85074 0.08853 0.47414
   3   3   9 50.2960 65.6285   5 0.81144-0.26297-0.47497 0.82983 0.12288 0.50626
   3   3  10 343.305 190.438   5 0.82277-0.27324-0.44663 0.80759 0.15754 0.53808
  -3  -4  11 1614.78 380.965   1-0.07813-0.45903 0.61734-0.92872 0.82909-0.13740
  -3  -4  10 246.338 131.090   1-0.09010-0.44776 0.60900-0.92669 0.83274-0.20727
  -3  -4   9 461.625 218.991   1-0.10745-0.43111 0.59665-0.92064 0.83773-0.27848
   3   4  -9 458.996 165.744   6 0.88807-0.34697 0.39958-0.07390 0.38060-0.94023
  -3  -4   8 1121.72 262.896   1-0.13059-0.40868 0.57971-0.91001 0.84381-0.35078
   3   4  -8 1104.75 260.836   6 0.88125-0.33939 0.32600 0.00620 0.44171-0.93490
   3   4  -7 15856.3 1005.95   6 0.86547-0.32284 0.24899 0.08975 0.49846-0.92521
  -3  -4   7 15209.6 1041.64   1-0.15986-0.38010 0.55748-0.89409 0.85055-0.42374
   3   4  -6 20683.5 1160.15   6 0.84097-0.29758 0.16973 0.17553 0.54998-0.91029
  -3  -4   6 19727.0 1175.70   1-0.19553-0.34513 0.52918-0.87209 0.85729-0.49671
   3   4  -5 2523.72 383.639   6 0.80837-0.26422 0.08964 0.26215 0.59550-0.88937
  -3  -4   5 2761.34 425.551   1-0.23766-0.30370 0.49398-0.84319 0.86313-0.56877
   3   4  -4 324.966 144.569   6 0.76868-0.22375 0.01032 0.34801 0.63440-0.86183
   3   4  -3 103.967 114.607   6 0.72326-0.17758-0.06661 0.43146 0.66636-0.82734
   3   4  -2 252.449 115.634   6 0.67383-0.12738-0.13958 0.51096 0.69137-0.78591
   3   4  -1 1281.28 269.901   6 0.62227-0.07505-0.20725 0.58516 0.70979-0.73789
   3   4  -1 1652.15 224.077   5 0.75937-0.21300-0.56720 0.94340-0.00058-0.02749
   3   4   0 1035.83 251.480   6 0.57048-0.02250-0.26861 0.65305 0.72229-0.68396
   3   4   0 1741.81 246.809   5 0.75976-0.21233-0.56665 0.94895 0.00021 0.03819
   3   4   1 41.7431 70.3262   5 0.76400-0.21551-0.56060 0.94899 0.00889 0.09599
   3   4   1 14.1244 47.5100   6 0.52024 0.02850-0.32304 0.71401 0.72980-0.62502
   3   4   2 328.272 125.270   5 0.77069-0.22115-0.55063 0.94513 0.02297 0.14838
   3   4   2 154.747 60.7123   6 0.47307 0.07644-0.37030 0.76779 0.73335-0.56213
   3   4   3 3774.57 429.057   5 0.77890-0.22829-0.53766 0.93825 0.04096 0.19687
   3   4   4 702.570 199.477   5 0.78796-0.23630-0.52222 0.92892 0.06187 0.24244
   3   4   5 170.475 91.1537   5 0.79740-0.24467-0.50467 0.91746 0.08504 0.28575
   3   4   6 1173.54 299.406   5 0.80685-0.25306-0.48523 0.90412 0.10999 0.32728
   3   4   7 260.337 144.476   5 0.81603-0.26118-0.46406 0.88905 0.13638 0.36736
   3   4   8 230.022 106.353   5 0.82470-0.26880-0.44126 0.87236 0.16396 0.40626
   3   4   9-64.1407 121.956   5 0.83269-0.27573-0.41690 0.85410 0.19253 0.44417
   3   5 -10 154.376 120.622   6 0.88670-0.33762 0.46001-0.05835 0.32458-0.94255
  -3  -5  10 45.5434 109.271   1-0.17120-0.37494 0.54863-0.94864 0.85287-0.23523
   3   5  -9-6.60019 65.6892   6 0.88797-0.33813 0.39676 0.01143 0.38307-0.93460
  -3  -5   9-172.942 114.255   1-0.18990-0.35693 0.53374-0.94005 0.85634-0.30492
  -3  -5   8 393.480 189.396   1-0.21390-0.33363 0.51407-0.92669 0.86013-0.37494
   3   5  -8 68.1336 49.4596   6 0.88189-0.33128 0.33033 0.08439 0.43831-0.92340
  -3  -5   7 1.19928 104.163   1-0.24334-0.30489 0.48908-0.90801 0.86374-0.44477
   3   5  -7-31.5681 56.7245   6 0.86858-0.31721 0.26147 0.15978 0.48973-0.90837
   3   5  -6 5174.98 590.910   6 0.84836-0.29622 0.19110 0.23667 0.53674-0.88894
   3   5  -5 2478.32 399.064   6 0.82174-0.26884 0.12028 0.31402 0.57884-0.86460
   3   5  -4 424.771 170.600   6 0.78952-0.23585 0.05015 0.39068 0.61562-0.83494
   3   5  -3 905.356 264.400   6 0.75270-0.19826-0.01809 0.46545 0.64686-0.79974
   3   5  -2 426.958 169.257   6 0.71251-0.15731-0.08329 0.53718 0.67253-0.75897
   3   5  -1 2351.18 393.268   6 0.67031-0.11435-0.14444 0.60486 0.69284-0.71284
   3   5   0 109.282 77.5347   6 0.62752-0.07079-0.20068 0.66763 0.70821-0.66176
   3   5   1 2174.88 371.327   6 0.58549-0.02800-0.25142 0.72490 0.71921-0.60632
   3   5   1 3023.42 364.909   5 0.81978-0.26279-0.45459 0.92532 0.14794-0.03551
   3   5   2-92.1371 75.5770   5 0.81970-0.26166-0.45479 0.93161 0.14770 0.03121
   3   5   2 145.978 84.7401   6 0.54546 0.01280-0.29630 0.77631 0.72655-0.54722
   3   5   3 3754.32 525.348   6 0.50844 0.05058-0.33520 0.82173 0.73099-0.48522
   3   5   3 5097.92 520.293   5 0.82162-0.26252-0.44973 0.93266 0.15381 0.09158
   3   5   4 246.287 121.792   5 0.82491-0.26475-0.44068 0.92971 0.16465 0.14721
   3   5   4-77.4967 52.6786   6 0.47526 0.08453-0.36819 0.86125 0.73325-0.42104
   3   5   5 480.414 163.307   5 0.82907-0.26785-0.42842 0.92355 0.17913 0.19921
   3   5   6 293.170 150.007   5 0.83371-0.27144-0.41348 0.91471 0.19647 0.24835
   3   5   7-37.3973 83.0991   5 0.83851-0.27517-0.39620 0.90352 0.21613 0.29517
   3   5   8 81.2245 89.4298   5 0.84318-0.27878-0.37682 0.89025 0.23767 0.34010
   3   6 -10-2.62750 114.567   6 0.88680-0.32897 0.45873 0.02544 0.32583-0.93569
   3   6  -9 344.585 183.889   6 0.88811-0.32952 0.40094 0.08975 0.37939-0.92281
  -3  -6   9 4.83756 136.142   1-0.27039-0.28472 0.46526-0.95390 0.86601-0.32243
   3   6  -8 3182.97 502.712   6 0.88331-0.32395 0.34083 0.15640 0.42997-0.90694
   3   6  -7 2279.47 419.857   6 0.87260-0.31248 0.27900 0.22475 0.47716-0.88770
   3   6  -6 9491.83 850.874   6 0.85630-0.29541 0.21619 0.29409 0.52059-0.86468
   3   6  -5 212.692 111.533   6 0.83487-0.27321 0.15319 0.36362 0.55991-0.83756
   3   6  -4-90.4819 57.2475   6 0.80893-0.24651 0.09087 0.43247 0.59485-0.80606
   3   6  -3 107.080 107.371   6 0.77927-0.21609 0.03013 0.49974 0.62525-0.77002
   3   6  -2 2545.36 443.359   6 0.74680-0.18285-0.02817 0.56458 0.65110-0.72943
   3   6  -1 1435.59 314.931   6 0.71255-0.14783-0.08324 0.62617 0.67252-0.68440
   3   6   0 366.595 164.427   6 0.67756-0.11208-0.13438 0.68384 0.68976-0.63520
   3   6   1 248.414 145.793   6 0.64289-0.07665-0.18106 0.73705 0.70322-0.58222
   3   6   2 4426.29 559.045   6 0.60953-0.04252-0.22289 0.78541 0.71336-0.52593
   3   6   2 5767.79 550.415   5 0.84793-0.28139-0.35312 0.91228 0.26335-0.07689
   3   6   3 930.613 250.517   6 0.57834-0.01057-0.25966 0.82871 0.72073-0.46685
   3   6   3 1240.28 263.893   5 0.84727-0.27967-0.35674 0.92200 0.25947-0.00653
   3   6   4 387.741 150.277   6 0.55005 0.01849-0.29130 0.86688 0.72585-0.40553
   3   6   4 1008.55 245.714   5 0.84764-0.27899-0.35471 0.92607 0.26165 0.05777
   3   6   5-14.3407 94.2956   6 0.52524 0.04406-0.31783 0.89994 0.72924-0.34247
   3   6   5-100.178 132.659   5 0.84877-0.27906-0.34827 0.92572 0.26852 0.11737
   3   6   6 132.468 108.752   6 0.50433 0.06574-0.33937 0.92801 0.73135-0.27815
   3   6   6 549.132 194.716   5 0.85039-0.27962-0.33824 0.92179 0.27912 0.17325
   3   6   7 179.570 100.735   6 0.48762 0.08321-0.35609 0.95125 0.73259-0.21294
   3   6   7 115.226 73.3523   5 0.85224-0.28041-0.32518 0.91484 0.29272 0.22613
   3   6   8-114.670 143.593   6 0.47530 0.09630-0.36815 0.96984 0.73325-0.14717
   3   7  -8 212.822 140.233   6 0.88508-0.31697 0.35610 0.22364 0.41758-0.88645
   3   7  -7 2384.84 454.563   6 0.87694-0.30806 0.30041 0.28585 0.46134-0.86376
   3   7  -6 1398.67 346.842   6 0.86420-0.29455 0.24413 0.34867 0.50181-0.83780
   3   7  -5 563.425 225.864   6 0.84727-0.27687 0.18786 0.41146 0.53878-0.80832
   3   7  -4 47.4223 80.7061   6 0.82669-0.25551 0.13229 0.47356 0.57205-0.77516
   3   7  -3-44.5536 91.5612   6 0.80305-0.23112 0.07811 0.53427 0.60153-0.73819
   3   7  -2 14.2383 56.2839   6 0.77709-0.20439 0.02598 0.59293 0.62720-0.69742
   3   7  -1 86.7189 99.8971   6 0.74957-0.17611-0.02347 0.64891 0.64913-0.65291
   3   7   0-105.951 151.688   6 0.72132-0.14709-0.06966 0.70163 0.66751-0.60484
   3   7   1 1109.39 282.693   6 0.69316-0.11816-0.11214 0.75064 0.68258-0.55347
   3   7   2 911.578 261.592   6 0.66587-0.09011-0.15053 0.79556 0.69466-0.49912
   3   7   3 416.495 162.063   6 0.64017-0.06365-0.18458 0.83613 0.70414-0.44215
   3   7   3 640.590 210.062   5 0.85721-0.28112-0.26150 0.90908 0.35626-0.09577
   3   7   4 16.8380 105.425   6 0.61671-0.03943-0.21412 0.87220 0.71139-0.38296
   3   7   4 58.9392 96.8613   5 0.85705-0.27990-0.26639 0.92008 0.35154-0.02456
   3   7   5 925.520 277.925   6 0.59602-0.01797-0.23908 0.90370 0.71679-0.32192
   3   7   5 2300.67 412.537   5 0.85707-0.27887-0.26576 0.92555 0.35215 0.04130
   3   7   6 104.621 92.9924   6 0.57853 0.00029-0.25945 0.93059 0.72069-0.25938
   3   7   6-503.893 206.405   5 0.85723-0.27796-0.26069 0.92657 0.35704 0.10289
   3   7   7 102.386 103.546   6 0.56458 0.01501-0.27525 0.95292 0.72340-0.19564
   3   8  -5 57.1612 131.419   6 0.85859-0.27943 0.22393 0.45791 0.51547-0.77691
   3   8  -4 1151.15 331.326   6 0.84259-0.26267 0.17428 0.51408 0.54720-0.74220
   3   8  -3-21.4814 101.647   6 0.82408-0.24339 0.12590 0.56899 0.57568-0.70423
   3   8  -2 95.6112 112.255   6 0.80362-0.22217 0.07933 0.62209 0.60090-0.66301
   3   8  -1 202.827 124.414   6 0.78185-0.19963 0.03508 0.67287 0.62291-0.61858
   3   8   0 14.0666 58.6893   6 0.75939-0.17641-0.00639 0.72087 0.64182-0.57105
   3   8   1-17.2102 121.447   6 0.73691-0.15317-0.04467 0.76568 0.65782-0.52061
   3   8   2 89.3169 50.5832   6 0.71504-0.13053-0.07941 0.80695 0.67112-0.46746
   3   8   3 171.773 99.6420   6 0.69439-0.10912-0.11034 0.84441 0.68197-0.41188
   3   8   4 430.919 196.037   6 0.67549-0.08945-0.13727 0.87786 0.69065-0.35412
   3   8   5 312.250 177.752   6 0.65884-0.07203-0.16003 0.90716 0.69743-0.29445
   3   8   5 92.8038 134.446   5 0.85472-0.26802-0.18209 0.92420 0.42942-0.02841
  -4   9   2 497.485 199.273   3 0.36971-0.97299 0.96289-0.27874 0.07872 0.11588
  -4   8   4 375.268 181.811   3 0.32474-0.93474 0.97452-0.36008 0.12053 0.19868
  -4   8   3 197.454 84.5479   3 0.33553-0.94654 0.97211-0.36413 0.11066 0.14223
  -4   8   2 259.709 133.549   3 0.34301-0.95503 0.97030-0.36878 0.10375 0.08281
   4  -8  -2 797.249 256.204   4 0.36772 0.24774-0.07279-0.53084-0.92457 0.73734
  -4   8   1 645.856 227.503   3 0.34657-0.95960 0.96940-0.37433 0.10045 0.01979
   4  -8  -1 412.860 192.842   4 0.41199 0.20438-0.10638-0.49081-0.90338 0.78240
   4  -8   0 97.4670 92.2849   4 0.45708 0.16020-0.14152-0.44924-0.87697 0.82223
   4  -8   1 167.820 138.783   4 0.50204 0.11615-0.17759-0.40673-0.84511 0.85661
   4  -8   2 531.957 206.657   4 0.54590 0.07320-0.21397-0.36392-0.80779 0.88555
   4  -8   3 832.161 274.011   4 0.58776 0.03225-0.25000-0.32146-0.76523 0.90924
  -4   7   5 1996.25 410.761   3 0.28006-0.89778 0.98207-0.44379 0.16047 0.21701
  -4   7   4 866.658 262.616   3 0.29229-0.91102 0.98038-0.44856 0.14969 0.16147
   4  -7  -4 1018.93 299.424   4 0.24024 0.38174 0.01974-0.55375-0.96325 0.65154
  -4   7   3 145.870 157.330   3 0.30131-0.92106 0.97896-0.45359 0.14166 0.10318
   4  -7  -3 109.693 97.5661   4 0.28345 0.33945-0.01097-0.51661-0.95357 0.70811
  -4   7   2-84.8942 176.855   3 0.30640-0.92716 0.97808-0.45917 0.13711 0.04141
   4  -7  -2 229.247 164.561   4 0.32965 0.29415-0.04453-0.47661-0.93941 0.76020
  -4   7   1 143.578 115.782   3 0.30699-0.92876 0.97798-0.46553 0.13659-0.02439
   4  -7  -1 227.023 165.229   4 0.37800 0.24671-0.08051-0.43420-0.92005 0.80707
   4  -7   0-34.8809 130.179   4 0.42746 0.19815-0.11832-0.38995-0.89490 0.84817
   4  -7   1 76.1652 86.9375   4 0.47690 0.14962-0.15728-0.34456-0.86365 0.88317
   4  -7   2-50.9425 67.1788   4 0.52519 0.10224-0.19664-0.29877-0.82625 0.91202
   4  -7   3 59.5079 61.6591   4 0.57124 0.05709-0.23561-0.25336-0.78293 0.93494
   4  -7   4 77.1753 78.0984   4 0.61414 0.01511-0.27351-0.20903-0.73417 0.95244
   4  -7   5 433.297 196.764   4 0.65313-0.02298-0.30969-0.16640-0.68067 0.96518
   4  -7   6 788.777 271.506   4 0.68772-0.05667-0.34369-0.12597-0.62319 0.97395
  -4   6   6 954.520 291.358   3 0.22766-0.85311 0.98623-0.52411 0.20542 0.23034
  -4   6   5-140.176 126.916   3 0.24058-0.86704 0.98566-0.52999 0.19452 0.17492
  -4   6   4 803.416 251.943   3 0.25056-0.87804 0.98502-0.53581 0.18602 0.11710
   4  -6  -4 1208.46 334.948   4 0.19750 0.43282 0.04951-0.50105-0.96965 0.66595
  -4   6   3 1522.40 323.432   3 0.25675-0.88523 0.98453-0.54178 0.18072 0.05608
   4  -6  -3 1886.45 367.983   4 0.24387 0.38735 0.01718-0.46228-0.96257 0.72511
  -4   6   2 107.515 125.811   3 0.25850-0.88799 0.98438-0.54809 0.17921-0.00873
   4  -6  -2 241.145 154.681   4 0.29383 0.33830-0.01845-0.42022-0.95074 0.77954
  -4   6   1 89.5519 102.661   3 0.25488-0.88539 0.98468-0.55485 0.18232-0.07817
   4  -6  -1 36.5635 51.6061   4 0.34641 0.28663-0.05690-0.37533-0.93325 0.82829
   4  -6   0 337.203 155.355   4 0.40045 0.23350-0.09754-0.32826-0.90934 0.87063
  -4   6   0 183.466 113.167   3 0.24450-0.87602 0.98543-0.56205 0.19119-0.15337
   4  -6   1 561.483 216.223   4 0.45460 0.18026-0.13955-0.27980-0.87856 0.90610
   4  -6   2 510.637 210.577   4 0.50750 0.12826-0.18206-0.23087-0.84081 0.93460
   4  -6   3-80.4790 81.4556   4 0.55788 0.07879-0.22413-0.18235-0.79637 0.95640
   4  -6   4 1830.25 378.229   4 0.60461 0.03296-0.26494-0.13512-0.74581 0.97209
   4  -6   5 7224.36 761.921   4 0.64686-0.00838-0.30374-0.08988-0.68998 0.98251
   4  -6   6 84.0283 112.715   4 0.68406-0.04467-0.33998-0.04720-0.62984 0.98861
   4  -6   7 66.8899 101.227   5 0.36522 0.27583-0.78942 0.40876-0.48626 0.91719
   4  -6   7 306.618 145.401   4 0.71590-0.07561-0.37327-0.00747-0.56638 0.99140
  -4   5   7-4.92551 59.7146   3 0.16731-0.80048 0.98517-0.59921 0.25485 0.23919
  -4   5   6 9.37525 114.733   3 0.18122-0.81541 0.98595-0.60645 0.24368 0.18404
  -4   5   5 2036.50 384.089   3 0.19186-0.82705 0.98634-0.61329 0.23504 0.12636
  -4   5   4 2709.05 432.946   3 0.19878-0.83499 0.98649-0.61989 0.22938 0.06569
  -4   5   3 198.919 117.240   3 0.20131-0.83853 0.98652-0.62639 0.22731 0.00144
   4  -5  -3 225.626 103.135   4 0.20694 0.43262 0.04299-0.40561-0.96850 0.73906
   4  -5  -2-3.85369 111.935   4 0.26078 0.37968 0.00521-0.36140-0.95907 0.79587
  -4   5   2 10.0587 100.858   3 0.19859-0.83682 0.98648-0.63281 0.22954-0.06711
   4  -5  -1 358.802 141.163   4 0.31782 0.32355-0.03587-0.31388-0.94343 0.84648
  -4   5   1 276.314 121.148   3 0.18938-0.82862 0.98626-0.63904 0.23706-0.14095
   4  -5   0 1604.38 335.315   4 0.37669 0.26559-0.07953-0.26379-0.92063 0.88993
  -4   5   0 1502.98 276.347   3 0.17194-0.81220 0.98547-0.64471 0.25114-0.22136
   4  -5   1 548.341 200.413   4 0.43582 0.20736-0.12483-0.21205-0.89007 0.92561
   4  -5   2 491.329 190.374   4 0.49357 0.15053-0.17071-0.15974-0.85157 0.95337
   4  -5   3 171.826 97.0299   4 0.54837 0.09663-0.21606-0.10795-0.80548 0.97352
   4  -5   4 406.981 191.222   4 0.59894 0.04697-0.25988-0.05769-0.75251 0.98680
   4  -5   5 1491.87 364.341   4 0.64428 0.00254-0.30130-0.00983-0.69373 0.99427
   4  -5   6 1302.06 316.202   4 0.68379-0.03606-0.33971 0.03501-0.63033 0.99711
   4  -5   7-262.357 153.245   5 0.40172 0.24783-0.78359 0.48526-0.45520 0.89367
   4  -5   7 69.7109 107.758   4 0.71719-0.06856-0.37468 0.07641-0.56351 0.99654
   4  -5   8 178.429 154.378   5 0.45889 0.19172-0.77039 0.47816-0.40270 0.90766
   4  -5   8 246.946 144.024   4 0.74448-0.09494-0.40600 0.11417-0.49440 0.99367
  -4   4   8 14.6664 97.3888   3 0.10065-0.74155 0.97714-0.66733 0.30670 0.24563
  -4   4   7-70.6667 111.785   3 0.11494-0.75685 0.97945-0.67610 0.29582 0.19018
  -4   4   6-75.7260 132.817   3 0.12595-0.76887 0.98101-0.68412 0.28735 0.13232
  -4   4   5 108.615 134.279   3 0.13323-0.77716 0.98194-0.69151 0.28171 0.07164
  -4   4   4 172.280 84.9596   3 0.13619-0.78113 0.98230-0.69832 0.27941 0.00762
  -4   4   3-45.2386 103.628   3 0.13402-0.77997 0.98204-0.70452 0.28110-0.06039
   4  -4  -2 150.927 72.8717   4 0.23113 0.41766 0.02613-0.29983-0.96488 0.80970
  -4   4   2 189.307 96.7266   3 0.12563-0.77260 0.98097-0.70991 0.28760-0.13322
  -4   4   2 65.8402 69.1217   1 0.08951-0.73736 0.71920-0.44588 0.75992-0.60333
   4  -4  -1 755.901 228.806   4 0.29293 0.35678-0.01780-0.24947-0.95100 0.86206
  -4   4   1 689.754 188.123   3 0.10948-0.75746 0.97860-0.71400 0.29999-0.21193
   4  -4   0 111.852 95.2383   4 0.35698 0.29363-0.06476-0.19608-0.92907 0.90638
  -4   4   0 320.487 128.593   3 0.08335-0.73235 0.97392-0.71577 0.31969-0.29795
   4  -4   1 792.880 230.226   4 0.42142 0.23010-0.11364-0.14075-0.89828 0.94184
  -4   4  -1 903.018 194.293   3 0.04396-0.69396 0.96486-0.71318 0.34861-0.39319
   4  -4   2 230.608 121.107   4 0.48424 0.16819-0.16317-0.08479-0.85844 0.96824
   4  -4   3 1297.72 288.512   4 0.54358 0.10976-0.21201-0.02951-0.80994 0.98599
   4  -4   4 1142.00 285.498   4 0.59788 0.05636-0.25894 0.02385-0.75374 0.99604
   4  -4   5 20131.2 1234.33   4 0.64603 0.00911-0.30296 0.07431-0.69119 0.99973
   4  -4   6 209.113 147.558   5 0.38695 0.27003-0.78618 0.56408-0.46799 0.84754
   4  -4   6 326.752 134.353   4 0.68741-0.03135-0.34337 0.12115-0.62377 0.99857
   4  -4   7 590.037 229.238   5 0.44362 0.21443-0.77443 0.55843-0.41721 0.86324
   4  -4   7 508.238 188.473   4 0.72179-0.06483-0.37974 0.16396-0.55298 0.99402
   4  -4   8 30.0069 96.1753   5 0.49738 0.16172-0.75840 0.54850-0.36443 0.87694
   4  -4   8 65.5886 88.3774   4 0.74931-0.09144-0.41192 0.20258-0.48013 0.98742
   4  -4   9 383.642 195.356   5 0.54792 0.11224-0.73830 0.53451-0.31007 0.88906
   4  -4   9 398.554 195.532   4 0.77030-0.11153-0.43993 0.23701-0.40632 0.97985
  -4   3   8 837.295 276.445   3 0.04336-0.69300 0.96471-0.73752 0.34904 0.19524
  -4   3   7 572.195 208.386   3 0.05454-0.70519 0.96753-0.74680 0.34093 0.13702
  -4   3   6 239.854 121.019   3 0.06202-0.71368 0.96931-0.75504 0.33547 0.07616
  -4   3   5 2336.64 400.508   3 0.06525-0.71792 0.97005-0.76224 0.33310 0.01221
  -4   3   4 15914.2 1043.78   3 0.06351-0.71719 0.96965-0.76829 0.33438-0.05539
  -4   3   3 272.927 114.065   3 0.05583-0.71052 0.96784-0.77294 0.34000-0.12733
  -4   3   3 289.747 106.871   1 0.08674-0.74216 0.71774-0.52044 0.76134-0.54636
  -4   3   2 1433.30 257.735   1 0.02350-0.67963 0.68242-0.49143 0.79116-0.64241
   4  -3  -2 1689.81 320.825   4 0.20564 0.45149 0.04389-0.23510-0.96867 0.82150
  -4   3   2 1225.10 273.403   3 0.04091-0.69662 0.96407-0.77562 0.35080-0.20446
  -4   3   1-58.1160 97.5947   1-0.05750-0.59932 0.63138-0.44669 0.82239-0.73986
  -4   3   1 7.21593 37.1231   3 0.01698-0.67370 0.95730-0.77532 0.36786-0.28784
  -4   3   0-3.99376 54.6718   1-0.15904-0.49849 0.55812-0.37973 0.85037-0.83407
   4  -3   0 81.2123 118.003   4 0.34226 0.31668-0.05383-0.12452-0.93483 0.92016
  -4   3   0 17.1059 92.2766   3-0.01846-0.63927 0.94569-0.77016 0.39248-0.37879
   4  -3   1 418.705 160.178   4 0.41240 0.24745-0.10670-0.06522-0.90316 0.95474
  -4   3  -1 592.718 157.804   3-0.06901-0.58973 0.92584-0.75677 0.42628-0.47890
   4  -3   2 952.787 249.253   4 0.48056 0.18020-0.16022-0.00526-0.86107 0.97889
   4  -3   3 163.548 117.312   4 0.54448 0.11719-0.21277 0.05373-0.80911 0.99317
   4  -3   4 16.5912 80.8284   4 0.60230 0.06027-0.26287 0.11027-0.74856 0.99888
   4  -3   5 543.389 204.654   5 0.38178 0.28264-0.78701 0.64115-0.47240 0.79303
   4  -3   5 1157.15 276.384   4 0.65280 0.01068-0.30937 0.16320-0.68117 0.99773
   4  -3   6 2063.26 396.714   5 0.43728 0.22820-0.77599 0.63623-0.42313 0.81024
   4  -3   6 1963.78 371.594   4 0.69536-0.03097-0.35151 0.21178-0.60884 0.99164
   4  -3   7 19.3909 72.9745   5 0.48990 0.17663-0.76094 0.62727-0.37206 0.82565
   4  -3   7 88.6084 97.0114   4 0.72992-0.06463-0.38889 0.25560-0.53336 0.98242
   4  -3   8 626.540 238.710   5 0.53937 0.12823-0.74208 0.61451-0.31962 0.83969
   4  -3   8 876.080 264.130   4 0.75680-0.09059-0.42144 0.29458-0.45629 0.97159
   4  -3   9-97.8209 77.7805   5 0.58550 0.08315-0.71965 0.59819-0.26616 0.85270
   4  -3   9-49.1267 92.5490   4 0.77653-0.10942-0.44928 0.32886-0.37885 0.96040
   4  -3  10 790.105 236.984   4 0.78977-0.12176-0.47270 0.35870-0.30192 0.94971
  -4   2   9 604.194 218.457   3-0.03192-0.62544 0.94079-0.78976 0.40163 0.20093
  -4   2   8-172.991 148.137   3-0.02066-0.63771 0.94491-0.80034 0.39398 0.14225
  -4   2   7 257.646 105.044   3-0.01304-0.64634 0.94759-0.80948 0.38876 0.08115
  -4   2   6 62.7271 90.2290   3-0.00956-0.65083 0.94879-0.81713 0.38637 0.01722
  -4   2   5-50.3156 41.2866   1 0.11060-0.77290 0.73003-0.60244 0.74883-0.40925
  -4   2   5-39.7956 66.3750   3-0.01085-0.65055 0.94835-0.82315 0.38726-0.04999
  -4   2   4 1922.21 334.007   1 0.07060-0.73360 0.70911-0.58783 0.76940-0.49605
  -4   2   4 1829.88 331.788   3-0.01774-0.64468 0.94595-0.82721 0.39199-0.12104
  -4   2   3 5590.98 567.487   3-0.03129-0.63214 0.94102-0.82874 0.40120-0.19658
  -4   2   3 6030.71 566.156   1 0.01907-0.68276 0.67979-0.56482 0.79307-0.58594
  -4   2   2-40.2459 100.217   1-0.04592-0.61847 0.63907-0.53040 0.81841-0.67749
  -4   2   2 81.8388 69.8075   3-0.05289-0.61155 0.93260-0.82677 0.41567-0.27737
  -4   2   1 72.2850 71.3265   1-0.12605-0.53905 0.58307-0.48071 0.84267-0.76798
   4  -2  -1 137.217 105.034   4 0.25786 0.40852 0.00729-0.10959-0.95971 0.88680
  -4   2   1 99.7777 72.4936   3-0.08439-0.58106 0.91903-0.81966 0.43625-0.36427
  -4   2   0 11.2670 45.4932   3-0.12823-0.53824 0.89761-0.80469 0.46387-0.45822
   4  -2   0 0.38671 69.2674   4 0.33374 0.33354-0.04754-0.04833-0.93796 0.93130
  -4   2   0-3.71216 38.9050   1-0.22210-0.44370 0.50721-0.41115 0.86125-0.85278
  -4   2  -1 2362.48 305.836   3-0.18764-0.47983 0.86372-0.77727 0.49936-0.56003
   4  -2   1 2746.57 388.119   4 0.41006 0.25812-0.10490 0.01547-0.90440 0.96398
   4  -2   2 7.09108 55.6500   4 0.48382 0.18527-0.16284 0.07984-0.85874 0.98457
   4  -2   3 3428.02 443.226   4 0.55223 0.11777-0.21933 0.14277-0.80182 0.99390
   4  -2   4 605.779 197.838   5 0.38761 0.28424-0.78607 0.71644-0.46742 0.72913
   4  -2   4 688.922 193.613   4 0.61313 0.05777-0.27260 0.20248-0.73542 0.99375
   4  -2   5 3431.38 455.937   4 0.66521 0.00660-0.32133 0.25764-0.66185 0.98642
   4  -2   5 3129.77 470.622   5 0.44107 0.23184-0.77507 0.71153-0.41960 0.74778
   4  -2   6 944.144 272.696   5 0.49169 0.18228-0.76034 0.70291-0.37024 0.76491
   4  -2   6 1076.53 267.692   4 0.70797-0.03525-0.36473 0.30748-0.58351 0.97433
   4  -2   7 377.331 192.273   5 0.53926 0.13577-0.74213 0.69079-0.31975 0.78089
   4  -2   7 338.741 135.233   4 0.74158-0.06796-0.40251 0.35169-0.50261 0.95967
   4  -2   8-0.77743 53.0835   5 0.58361 0.09248-0.72067 0.67544-0.26844 0.79606
   4  -2   8-152.098 155.630   4 0.76666-0.09212-0.43473 0.39035-0.42090 0.94421
   4  -2   9 217.967 142.331   5 0.62470 0.05245-0.69620 0.65706-0.21658 0.81067
   4  -2   9 102.874 148.959   4 0.78402-0.10858-0.46171 0.42376-0.33968 0.92924
  -4   1   9 128.231 101.898   3-0.09793-0.56816 0.91273-0.84432 0.44491 0.14960
  -4   1   8 144.462 129.685   3-0.09014-0.57697 0.91639-0.85444 0.43994 0.08825
  -4   1   7 127.250 105.705   1 0.10326-0.77244 0.72631-0.66844 0.75275-0.28856
  -4   1   7-169.768 153.124   3-0.08632-0.58180 0.91815-0.86265 0.43749 0.02438
  -4   1   6 3087.74 468.991   3-0.08703-0.58210 0.91783-0.86879 0.43795-0.04240
  -4   1   6 3058.04 458.342   1 0.07801-0.74789 0.71311-0.66154 0.76574-0.36777
  -4   1   5 403.625 155.398   1 0.04464-0.71522 0.69467-0.64941 0.78172-0.44998
  -4   1   5 378.708 161.598   3-0.09294-0.57721 0.91509-0.87251 0.44173-0.11250
  -4   1   4 15098.8 988.065   3-0.10489-0.56626 0.90938-0.87326 0.44932-0.18642
  -4   1   4 16542.1 1011.41   1 0.00191-0.67318 0.66945-0.63049 0.80025-0.53473
  -4   1   3 2.54013 65.0455   3-0.12397-0.54819 0.89982-0.87015 0.46124-0.26466
  -4   1   3-47.1793 48.1554   1-0.05146-0.62051 0.63541-0.60276 0.82033-0.62104
   4  -1  -3 108.896 83.9043   6 0.54311 0.12982-0.29883 0.26927 0.72690-0.92646
  -4   1   2 691.464 189.183   3-0.15149-0.52169 0.88502-0.86181 0.47803-0.34778
  -4   1   2 982.815 232.561   1-0.11657-0.55611 0.59004-0.56369 0.84020-0.70713
  -4   1   1-69.0632 77.4749   3-0.18907-0.48512 0.86284-0.84608 0.50019-0.43626
   4  -1  -1-66.2612 73.8949   4 0.25012 0.42459 0.01277-0.03259-0.96133 0.89644
  -4   1   1-22.1415 67.4772   1-0.19396-0.47941 0.53045-0.51041 0.85703-0.79018
  -4   1   0 3576.24 400.621   3-0.23869-0.43651 0.82997-0.81967 0.52799-0.53039
   4  -1   0 4043.54 459.267   4 0.33295 0.34266-0.04696 0.03357-0.93825 0.93960
   4  -1   1 173.505 85.2344   4 0.41604 0.26048-0.10950 0.10255-0.90122 0.96882
   4  -1   2 2135.04 327.725   4 0.49559 0.18183-0.17235 0.17184-0.85005 0.98389
   4  -1   3 158.886 120.535   5 0.40612 0.27316-0.78275 0.78935-0.45132 0.65411
   4  -1   3 114.266 44.8154   4 0.56820 0.11014-0.23298 0.23891-0.78606 0.98615
   4  -1   4 5009.00 521.019   4 0.63136 0.04788-0.28925 0.30161-0.71178 0.97812
   4  -1   4 5006.45 575.953   5 0.45634 0.22401-0.77109 0.78379-0.40515 0.67442
   4  -1   5 1562.37 324.854   5 0.50384 0.17757-0.75612 0.77492-0.35775 0.69349
   4  -1   5 1548.59 295.707   4 0.68378-0.00363-0.33970 0.35850-0.63034 0.96292
   4  -1   6 561.007 203.883   5 0.54845 0.13401-0.73806 0.76296-0.30947 0.71169
   4  -1   6 330.203 147.943   4 0.72525-0.04420-0.38361 0.40884-0.54480 0.94363
   4  -1   7 106.230 106.251   5 0.59007 0.09345-0.71714 0.74814-0.26059 0.72928
   4  -1   7 132.933 50.3585   4 0.75635-0.07439-0.42087 0.45253-0.45776 0.92284
   4  -1   8 321.435 153.716   5 0.62867 0.05591-0.69356 0.73066-0.21131 0.74648
   4  -1   8 350.010 160.045   4 0.77812-0.09525-0.45180 0.48990-0.37118 0.90250
   4  -1   9-121.509 114.348   5 0.66426 0.02139-0.66750 0.71070-0.16180 0.76345
   4  -1   9-115.732 98.7726   4 0.79174-0.10797-0.47696 0.52150-0.28632 0.88389
  -4   0   9 1132.15 327.434   1 0.07499-0.75104 0.71148-0.72333 0.76724-0.17844
  -4   0   9 804.806 268.559   3-0.16761-0.50722 0.87578-0.88999 0.48765 0.09882
  -4   0   8 262.542 137.464   3-0.16331-0.51253 0.87829-0.89895 0.48510 0.03504
  -4   0   8 842.703 251.134   1 0.06008-0.73683 0.70334-0.72149 0.77449-0.25192
  -4   0   7 914.310 262.795   3-0.16324-0.51361 0.87832-0.90544 0.48506-0.03124
  -4   0   7 1184.06 314.398   1 0.03906-0.71651 0.69148-0.71594 0.78427-0.32791
  -4   0   6 136.267 68.6771   3-0.16795-0.50991 0.87558-0.90916 0.48785-0.10035
  -4   0   6-63.0019 71.0605   1 0.01111-0.68926 0.67504-0.70579 0.79644-0.40631
  -4   0   5 998.895 268.882   3-0.17810-0.50077 0.86955-0.90958 0.49382-0.17264
  -4   0   5 1316.02 302.074   1-0.02463-0.65422 0.65288-0.68994 0.81066-0.48676
  -4   0   4 1102.21 264.879   3-0.19448-0.48541 0.85945-0.90595 0.50330-0.24844
   4   0  -4 1124.83 231.308   6 0.66120 0.01972-0.15686 0.20327 0.69651-0.95441
  -4   0   4 1121.96 265.424   1-0.06905-0.61050 0.62357-0.66694 0.82621-0.56852
  -4   0   3 1204.25 267.426   3-0.21802-0.46288 0.84417-0.89712 0.51661-0.32808
  -4   0   3 1478.40 307.388   1-0.12288-0.55736 0.58541-0.63508 0.84186-0.65040
   4   0  -3 1828.77 293.590   6 0.57875 0.10293-0.25920 0.31215 0.72065-0.91210
  -4   0   2 121.993 58.0383   3-0.24979-0.43212 0.82203-0.88144 0.53398-0.41177
   4   0  -2 10.9124 64.7131   6 0.49559 0.18686-0.34817 0.40765 0.73205-0.85706
  -4   0   2 62.3712 95.3210   1-0.18652-0.49442 0.53645-0.59243 0.85574-0.73051
  -4   0   1-27.5031 107.926   1-0.25971-0.42193 0.47476-0.53705 0.86523-0.80622
   4   0  -1 51.7075 63.4206   4 0.25118 0.43186 0.01202 0.05064-0.96112 0.90423
   4   0   0 407.294 150.543   4 0.34197 0.34197-0.05361 0.12271-0.93494 0.94430
   4   0   1 1152.20 253.695   5 0.39164 0.29402-0.78539 0.86212-0.46396 0.54135
   4   0   1 1043.69 222.026   4 0.43249 0.25236-0.12223 0.19777-0.89201 0.96763
   4   0   2 74.9681 119.194   5 0.43916 0.24756-0.77553 0.85836-0.42137 0.56524
   4   0   2-51.9668 45.2463   4 0.51787 0.16789-0.19058 0.27255-0.83240 0.97426
   4   0   3 1698.11 323.824   5 0.48450 0.20328-0.76271 0.85164-0.37752 0.58786
   4   0   3 2072.77 309.375   4 0.59392 0.09275-0.25542 0.34383-0.75830 0.96641
   4   0   4 1868.65 346.496   5 0.52742 0.16142-0.74709 0.84212-0.33273 0.60955
   4   0   4 2454.17 337.372   4 0.65786 0.02972-0.31422 0.40906-0.67345 0.94780
   4   0   5 2.56047 78.4773   5 0.56777 0.12213-0.72888 0.83001-0.28728 0.63058
   4   0   5-0.83673 37.3051   4 0.70863-0.02015-0.36544 0.46671-0.58212 0.92271
   4   0   6 446.141 199.822   5 0.60549 0.08547-0.70825 0.81548-0.24140 0.65117
   4   0   6 519.698 177.024   4 0.74662-0.05723-0.40861 0.51632-0.48817 0.89501
   4   0   7 1835.36 366.535   5 0.64057 0.05145-0.68535 0.79868-0.19523 0.67148
   4   0   8-41.1788 134.692   5 0.67302 0.02006-0.66034 0.77976-0.14891 0.69164
   4   0   9 544.945 254.891   5 0.70286-0.00872-0.63330 0.75883-0.10251 0.71171
  -4  -1   9 248.757 173.629   3-0.23912-0.44444 0.82966-0.92649 0.52823 0.05020
  -4  -1   9 233.517 112.551   1 0.01219-0.69651 0.67568-0.76985 0.79599-0.21503
  -4  -1   8 2033.66 405.824   3-0.23809-0.44649 0.83039-0.93367 0.52767-0.01556
  -4  -1   8 2452.84 455.351   1-0.00512-0.67991 0.66513-0.76560 0.80309-0.28835
  -4  -1   7-97.9995 116.400   3-0.24140-0.44418 0.82805-0.93779 0.52947-0.08369
  -4  -1   7 114.159 123.463   1-0.02843-0.65729 0.65045-0.75722 0.81208-0.36357
  -4  -1   6 3733.49 512.840   3-0.24957-0.43703 0.82220-0.93839 0.53386-0.15441
  -4  -1   6 4224.87 550.458   1-0.05838-0.62804 0.63079-0.74387 0.82269-0.44040
  -4  -1   5 596.776 198.429   3-0.26315-0.42446 0.81220-0.93485 0.54108-0.22794
   4   1  -5 675.674 187.532   6 0.74775-0.05885-0.02657 0.14897 0.65043-0.96666
  -4  -1   5 586.296 196.068   1-0.09558-0.59154 0.60513-0.72452 0.83436-0.51829
  -4  -1   4 139.477 88.2349   1-0.14053-0.54730 0.57226-0.69795 0.84621-0.59637
   4   1  -4 187.128 112.254   6 0.68337 0.00630-0.12619 0.25512 0.68717-0.93696
  -4  -1   3-52.2364 65.3930   1-0.19349-0.49503 0.53083-0.66283 0.85695-0.67333
   4   1  -3 156.724 102.635   6 0.61389 0.07654-0.21758 0.35304 0.71218-0.89552
  -4  -1   2 1193.95 255.723   1-0.25434-0.43488 0.47950-0.61780 0.86478-0.74738
   4   1  -2 1389.55 249.491   5 0.36563 0.32535-0.78936 0.93012-0.48593 0.37144
   4   1  -2 1362.36 280.082   6 0.54283 0.14836-0.29913 0.44112 0.72694-0.84384
   4   1  -1 11.7788 88.1304   5 0.40758 0.28446-0.78247 0.92933-0.45004 0.40203
   4   1  -1 100.385 66.2322   4 0.26358 0.42779 0.00322 0.14192-0.95844 0.90957
   4   1  -1 13.9585 64.3791   6 0.47327 0.21869-0.37010 0.51862 0.73334-0.78380
   4   1   0 34.3416 58.3162   5 0.44872 0.24437-0.77312 0.92608-0.41240 0.43087
   4   1   0 1.38440 66.1094   4 0.36369 0.32859-0.06977 0.22135-0.92629 0.94366
   4   1   1 168.633 111.413   5 0.48859 0.20557-0.76137 0.92043-0.37340 0.45834
   4   1   1 112.345 75.9515   4 0.46235 0.23083-0.14569 0.30370-0.87354 0.95716
   4   1   2 648.030 207.290   5 0.52685 0.16836-0.74732 0.91248-0.33334 0.48476
   4   1   2 486.917 140.931   4 0.55318 0.14091-0.22013 0.38459-0.80092 0.95079
   4   1   3 158.750 111.625   5 0.56330 0.13298-0.73108 0.90234-0.29249 0.51039
   4   1   4 183.267 122.205   5 0.59779 0.09954-0.71277 0.89013-0.25106 0.53543
   4   1   5 357.205 160.074   5 0.63025 0.06814-0.69250 0.87596-0.20920 0.56005
   4   1   6 405.741 196.055   5 0.66064 0.03882-0.67037 0.85993-0.16704 0.58437
   4   1   7 472.639 201.355   5 0.68893 0.01158-0.64645 0.84211-0.12467 0.60847
   4   1   8 582.697 198.610   5 0.71513-0.01356-0.62082 0.82258-0.08215 0.63243
  -4  -2   9 1095.84 308.672   1-0.05367-0.63893 0.63394-0.81043 0.82109-0.24797
  -4  -2   8-117.083 121.098   1-0.07288-0.62041 0.62095-0.80375 0.82744-0.32054
  -4  -2   7 612.303 232.202   1-0.09785-0.59615 0.60352-0.79262 0.83502-0.39434
  -4  -2   6 165.601 116.804   1-0.12899-0.56571 0.58089-0.77630 0.84341-0.46895
   4   2  -6-60.1452 78.9305   6 0.80774-0.11086 0.08826 0.11012 0.59623-0.97079
   4   2  -5 3558.33 457.800   6 0.76064-0.06299-0.00417 0.20908 0.64085-0.94897
  -4  -2   5 3619.39 510.132   1-0.16665-0.52875 0.55220-0.75391 0.85195-0.54372
  -4  -2   4 1016.19 252.067   1-0.21100-0.48510 0.51648-0.72450 0.85971-0.61770
   4   2  -4 1029.29 253.370   6 0.70653-0.00812-0.09236 0.30380 0.67578-0.91745
   4   2  -3 240.034 123.491   6 0.64793 0.05124-0.17449 0.39245 0.70146-0.87669
  -4  -2   3 114.976 49.3909   1-0.26196-0.43484 0.47278-0.68710 0.86541-0.68962
   4   2  -2 456.317 197.837   6 0.58739 0.11255-0.24921 0.47370 0.71879-0.82758
   4   2  -1 2999.49 430.000   6 0.52727 0.17344-0.31571 0.54673 0.72900-0.77135
   4   2  -1 4032.51 421.785   5 0.52717 0.17336-0.74719 0.97638-0.33299 0.29253
   4   2   0 112.875 79.9370   5 0.55580 0.14580-0.73467 0.96996-0.30113 0.32715
   4   2   0 26.1567 89.6111   6 0.46955 0.23192-0.37369 0.61124 0.73349-0.70940
   4   2   1 322.340 132.319   5 0.58412 0.11853-0.72040 0.96179-0.26783 0.36032
   4   2   2 435.924 152.634   5 0.61180 0.09191-0.70441 0.95190-0.23336 0.39233
   4   2   3 9594.77 772.724   5 0.63857 0.06620-0.68677 0.94036-0.19797 0.42342
   4   2   4 7464.55 700.264   5 0.66424 0.04159-0.66751 0.92720-0.16182 0.45375
   4   2   5 347.116 126.574   5 0.68868 0.01821-0.64669 0.91248-0.12507 0.48347
   4   2   6 449.849 176.027   5 0.71177-0.00382-0.62433 0.89622-0.08781 0.51269
   4   2   7 311.175 203.830   5 0.73343-0.02442-0.60047 0.87846-0.05013 0.54149
   4   2   8-3.72029 135.404   5 0.75360-0.04353-0.57513 0.85922-0.01210 0.56994
  -4  -3   8 25.7260 101.212   1-0.14196-0.55961 0.57117-0.83630 0.84655-0.34749
   4   3  -7 23.1145 81.6513   6 0.84738-0.14251 0.18818 0.08618 0.53858-0.97147
  -4  -3   7-104.317 159.989   1-0.16786-0.53442 0.55125-0.82268 0.85220-0.41936
   4   3  -6 5078.88 572.703   6 0.81502-0.10938 0.10456 0.17633 0.58750-0.95396
  -4  -3   6 3965.68 549.001   1-0.19933-0.50364 0.52609-0.80382 0.85792-0.49130
  -4  -3   5 1840.28 370.996   1-0.23650-0.46717 0.49498-0.77901 0.86300-0.56261
   4   3  -5 1891.00 353.259   6 0.77529-0.06889 0.02259 0.26483 0.62878-0.92879
   4   3  -4-55.2566 64.5853   6 0.72983-0.02267-0.05615 0.35010 0.66235-0.89592
   4   3  -3-19.2687 74.9521   6 0.68047 0.02745-0.13029 0.43076 0.68847-0.85560
   4   3  -2 1975.98 360.413   6 0.62909 0.07961-0.19871 0.50571 0.70772-0.80841
   4   3  -1 817.467 239.319   6 0.57748 0.13197-0.26065 0.57418 0.72091-0.75515
   4   3   0 710.514 166.288   5 0.65560 0.05448-0.67427 0.99189-0.17425 0.20782
   4   3   0 245.310 145.176   6 0.52728 0.18295-0.31569 0.63576 0.72900-0.69680
   4   3   1 114.554 84.8403   5 0.67198 0.03916-0.66120 0.98492-0.15045 0.25050
   4   3   1 6.35663 74.5995   6 0.47982 0.23117-0.36375 0.69034 0.73303-0.63439
   4   3   2 964.159 226.712   5 0.68910 0.02310-0.64630 0.97612-0.12440 0.29093
   4   3   3 81.9779 121.493   5 0.70648 0.00678-0.62970 0.96562-0.09657 0.32958
   4   3   4 3479.72 477.568   5 0.72377-0.00945-0.61149 0.95351-0.06729 0.36677
   4   3   5 169.501 103.617   5 0.74069-0.02530-0.59174 0.93986-0.03681 0.40277
   4   3   6-44.1143 91.5069   5 0.75701-0.04057-0.57048 0.92470-0.00532 0.43776
   4   3   7 75.2213 75.7665   5 0.77257-0.05507-0.54775 0.90807 0.02701 0.47190
  -4  -4   8 67.8311 93.4286   1-0.21114-0.49870 0.51636-0.86381 0.85973-0.36850
  -4  -4   7-167.771 143.390   1-0.23723-0.47332 0.49436-0.84811 0.86308-0.43808
   4   4  -7 65.9567 97.2575   6 0.85144-0.13782 0.20056 0.15631 0.53073-0.95551
   4   4  -6 268.895 157.844   6 0.82408-0.10969 0.12590 0.23750 0.57568-0.93402
  -4  -4   6-118.876 185.113   1-0.26823-0.44302 0.46720-0.82725 0.86586-0.50708
   4   4  -5 912.532 264.731   6 0.79075-0.07560 0.05261 0.31731 0.61441-0.90631
   4   4  -4-0.33122 97.3900   6 0.75268-0.03677-0.01812 0.39458 0.64688-0.87234
   4   4  -3 565.811 208.196   6 0.71124 0.00544-0.08524 0.46822 0.67324-0.83225
   4   4  -2 342.240 190.431   6 0.66783 0.04961-0.14784 0.53736 0.69387-0.78644
   4   4  -1 321.396 146.332   6 0.62387 0.09434-0.20525 0.60130 0.70931-0.73545
   4   4   0-5.06398 77.6552   6 0.58064 0.13834-0.25703 0.65960 0.72025-0.67994
   4   4   1 47.4956 53.7305   6 0.53928 0.18046-0.30295 0.71206 0.72744-0.62069
   4   4   2 2149.95 351.458   5 0.75448-0.03378-0.57393 0.98609-0.01036 0.18444
   4   4   2 1463.87 346.109   6 0.50072 0.21978-0.34302 0.75865 0.73165-0.55846
   4   4   3 3588.14 536.452   6 0.46571 0.25556-0.37737 0.79953 0.73363-0.49400
   4   4   3 4681.49 542.709   5 0.76383-0.04207-0.56085 0.97910 0.00853 0.23203
   4   4   4 7318.85 722.957   5 0.77393-0.05111-0.54562 0.96997 0.02997 0.27707
   4   4   5-4.23904 75.2671   5 0.78439-0.06051-0.52846 0.95891 0.05348 0.32003
   4   4   6-297.394 170.963   5 0.79488-0.06995-0.50951 0.94606 0.07870 0.36129
   4   4   7-106.220 106.682   5 0.80515-0.07916-0.48888 0.93153 0.10536 0.40111
   4   5  -8-54.0326 124.759   6 0.87399-0.15238 0.28550 0.14735 0.47242-0.95553
   4   5  -7 300.799 166.508   6 0.85689-0.13452 0.21816 0.22122 0.51930-0.93597
   4   5  -6 8141.81 821.111   6 0.83406-0.11093 0.15107 0.29484 0.56116-0.91140
   4   5  -5 6032.89 709.744   6 0.80633-0.08243 0.08517 0.36727 0.59786-0.88165
   4   5  -4 1291.89 310.689   6 0.77464-0.04997 0.02136 0.43761 0.62935-0.84670
   4   5  -3 219.969 146.624   6 0.74003-0.01460-0.03952 0.50502 0.65575-0.80666
   4   5  -2-36.5181 102.621   6 0.70360 0.02259-0.09675 0.56877 0.67732-0.76179
   4   5  -1 50.8938 64.3800   6 0.66645 0.06051-0.14973 0.62829 0.69443-0.71245
   4   5   0 393.000 170.302   6 0.62961 0.09811-0.19805 0.68313 0.70756-0.65914
   4   5   1 247.868 177.104   6 0.59403 0.13446-0.24143 0.73304 0.71726-0.60241
   4   5   2 8.96379 87.9307   6 0.56053 0.16872-0.27976 0.77790 0.72412-0.54282
   4   5   3 58.6579 114.306   5 0.80833-0.07808-0.48197 0.98255 0.11410 0.13401
   4   5   3-161.501 148.285   6 0.52978 0.20024-0.31306 0.81773 0.72869-0.48095
   4   5   4 1107.47 260.272   5 0.81300-0.08169-0.47132 0.97800 0.12741 0.18718
   4   5   4 1054.09 284.968   6 0.50230 0.22848-0.34143 0.85263 0.73153-0.41734
   4   5   5 261.115 182.958   5 0.81845-0.08608-0.45800 0.97079 0.14379 0.23728
   4   5   5 6.24182 81.2479   6 0.47847 0.25308-0.36506 0.88279 0.73310-0.35248
   4   5   6-34.2171 140.997   5 0.82432-0.09089-0.44236 0.96124 0.16266 0.28489
   4   6  -6-129.101 98.8310   6 0.84432-0.11243 0.17922 0.34920 0.54416-0.88629
   4   6  -5 3337.67 535.697   6 0.82151-0.08886 0.11972 0.41522 0.57915-0.85483
   4   6  -4 589.489 239.365   6 0.79537-0.06195 0.06200 0.47948 0.60974-0.81899
   4   6  -3 79.7481 112.026   6 0.76671-0.03253 0.00672 0.54128 0.63602-0.77882
   4   6  -2 169.482 115.098   6 0.73639-0.00145-0.04552 0.60005 0.65816-0.73452
   4   6  -1 113.528 62.8334   6 0.70529 0.03042-0.09422 0.65529 0.67643-0.68635
   4   6   0 380.947 193.228   6 0.67425 0.06222-0.13899 0.70659 0.69119-0.63466
   4   6   1 41.0884 71.1180   6 0.64405 0.09318-0.17955 0.75367 0.70282-0.57985
   4   6   2 520.029 234.837   6 0.61540 0.12260-0.21573 0.79638 0.71176-0.52235
   4   6   3-3.37529 53.3550   6 0.58890 0.14987-0.24745 0.83463 0.71845-0.46260
   4   6   5-166.342 170.567   5 0.84208-0.10121-0.38167 0.97678 0.23233 0.15629
  -5   6   3 592.081 209.963   3 0.08853-0.88800 0.97493-0.55026 0.31582-0.08164
  -5   5   4-62.1772 49.6124   3 0.04130-0.84849 0.96417-0.61566 0.35052-0.05806
  -5   5   3 900.796 285.052   3 0.03442-0.84262 0.96232-0.62026 0.35547-0.12932
   5  -5  -2 760.389 283.377   4 0.33212 0.47933-0.04635-0.29256-0.93854 0.77769
  -5   5   2 254.849 145.885   3 0.02140-0.83061 0.95862-0.62302 0.36474-0.20492
   5  -5  -1 12.6654 117.800   4 0.37943 0.43292-0.08159-0.25088-0.91939 0.82479
   5  -5   0 59.1531 88.4686   4 0.42799 0.38527-0.11874-0.20730-0.89460 0.86624
   5  -5   1 283.709 96.5543   4 0.47676 0.33742-0.15717-0.16244-0.86375 0.90164
   5  -5   2 109.964 55.2294   4 0.52463 0.29045-0.19617-0.11699-0.82672 0.93086
   5  -5   3 185.459 94.6363   4 0.57057 0.24542-0.23503-0.07170-0.78363 0.95401
  -5   4   6-129.942 133.194   1 0.07227-0.88791 0.71001-0.42862 0.76858-0.34891
  -5   4   5-151.827 143.431   3-0.01143-0.80349 0.94815-0.67580 0.38765-0.03691
   5  -4  -4 1614.87 379.211   4 0.21888 0.59909 0.03469-0.30399-0.96683 0.68150
  -5   4   4 1277.74 313.052   3-0.01652-0.79941 0.94638-0.68048 0.39115-0.10673
   5  -4  -3 1372.97 360.960   4 0.26398 0.55490 0.00294-0.26580-0.95835 0.73926
  -5   4   3 1379.22 328.586   3-0.02723-0.78971 0.94253-0.68309 0.39846-0.18036
   5  -4  -2 162.539 75.3493   4 0.31242 0.50737-0.03192-0.22450-0.94517 0.79234
  -5   4   2 312.617 155.800   3-0.04461-0.77334 0.93591-0.68293 0.41016-0.25838
   5  -4  -1-120.156 94.9809   4 0.36333 0.45736-0.06950-0.18049-0.92644 0.83985
   5  -4   0 507.546 219.983   4 0.41565 0.40595-0.10920-0.13436-0.90143 0.88108
   5  -4   1 375.841 160.154   4 0.46817 0.35434-0.15031-0.08681-0.86966 0.91556
   5  -4   2 222.323 124.916   4 0.51959 0.30382-0.19200-0.03869-0.83097 0.94312
   5  -4   3-33.8247 100.262   4 0.56870 0.25562-0.23342 0.00917-0.78555 0.96394
   5  -4   4-79.4634 83.2824   4 0.61438 0.21084-0.27373 0.05591-0.73387 0.97851
   5  -4   5 72.4202 95.7887   4 0.65576 0.17037-0.31221 0.10083-0.67667 0.98756
  -5   3   6-9.01830 154.028   1 0.02926-0.85317 0.68580-0.48674 0.78864-0.37680
  -5   3   5-33.0276 119.335   1-0.00289-0.82172 0.66651-0.47374 0.80219-0.45658
  -5   3   5 234.128 143.574   3-0.07190-0.75176 0.92459-0.73486 0.42816-0.08546
  -5   3   4 163.985 137.702   1-0.04363-0.78168 0.64058-0.45412 0.81760-0.53821
   5  -3  -4 180.144 154.713   4 0.19703 0.62927 0.04983-0.23665-0.96970 0.69238
  -5   3   4-53.9115 98.5710   3-0.08054-0.74413 0.92077-0.73749 0.43376-0.15739
  -5   3   3 267.627 159.368   3-0.09516-0.73051 0.91404-0.73722 0.44315-0.23309
   5  -3  -3 254.663 113.836   4 0.24524 0.58197 0.01622-0.19660-0.96230 0.75123
  -5   3   2 182.336 116.879   3-0.11685-0.70984 0.90345-0.73309 0.45682-0.31308
   5  -3  -2 14.0076 111.223   4 0.29721 0.53090-0.02089-0.15305-0.94978 0.80495
   5  -3  -1-2.55615 56.5935   4 0.35199 0.47704-0.06104-0.10647-0.93107 0.85249
   5  -3   0 296.376 145.829   4 0.40831 0.42163-0.10355-0.05752-0.90532 0.89298
   5  -3   1 32.0198 73.6007   4 0.46474 0.36610-0.14758-0.00706-0.87196 0.92587
   5  -3   2 305.311 112.502   4 0.51977 0.31197-0.19215 0.04395-0.83082 0.95098
   5  -3   3-70.4018 101.114   4 0.57196 0.26069-0.23623 0.09447-0.78218 0.96859
   5  -3   4 1035.13 293.274   5 0.39360 0.44091-0.78505 0.65075-0.46227 0.71915
   5  -3   4 735.041 233.550   4 0.62005 0.21351-0.27887 0.14354-0.72669 0.97935
   5  -3   5 747.524 273.510   5 0.43897 0.39660-0.77558 0.64738-0.42155 0.74491
   5  -3   5 552.073 202.904   4 0.66304 0.17143-0.31922 0.19033-0.66532 0.98422
   5  -3   6 5508.95 674.217   4 0.70030 0.13508-0.35664 0.23418-0.59918 0.98433
   5  -3   7 397.129 202.254   4 0.73147 0.10481-0.39067 0.27464-0.52947 0.98086
  -5   2   6 170.445 157.249   3-0.13039-0.70098 0.89647-0.78289 0.46520-0.06422
  -5   2   6 186.535 118.760   1-0.01814-0.81404 0.65699-0.54025 0.80819-0.40419
  -5   2   5 110.096 59.1913   3-0.13711-0.69528 0.89290-0.78578 0.46932-0.13466
  -5   2   5 135.727 112.884   1-0.05155-0.78134 0.63535-0.52491 0.82036-0.48258
  -5   2   4 1755.89 376.369   3-0.14921-0.68419 0.88629-0.78563 0.47666-0.20833
  -5   2   4 2116.45 388.757   1-0.09296-0.74063 0.60699-0.50285 0.83359-0.56203
   5  -2  -3 8528.71 807.480   4 0.23152 0.60402 0.02585-0.12375-0.96481 0.76175
  -5   2   3 7176.77 698.832   1-0.14317-0.69112 0.57026-0.47243 0.84683-0.64150
  -5   2   2 301.941 169.687   3-0.19300-0.64242 0.86038-0.77264 0.50245-0.36676
   5  -2  -2 573.050 218.996   4 0.28737 0.54908-0.01379-0.07767-0.95253 0.81571
  -5   2   1 489.615 162.923   3-0.22694-0.60949 0.83813-0.75684 0.52156-0.45220
   5  -2  -1 582.912 207.521   4 0.34633 0.49103-0.05684-0.02819-0.93328 0.86271
   5  -2   0 103.540 54.5964   4 0.40694 0.43133-0.10250 0.02391-0.90603 0.90171
   5  -2   1 69.0366 82.6381   4 0.46747 0.37170-0.14976 0.07760-0.87012 0.93205
   5  -2   2 253.243 154.559   5 0.36092 0.47996-0.78998 0.72581-0.48981 0.62129
   5  -2   2 562.155 197.664   4 0.52614 0.31394-0.19742 0.13170-0.82543 0.95361
   5  -2   3 171.532 91.9774   5 0.40447 0.43747-0.78307 0.72499-0.45278 0.65074
   5  -2   3 422.109 174.656   4 0.58123 0.25976-0.24428 0.18499-0.77238 0.96680
   5  -2   4-187.482 186.066   5 0.44731 0.39569-0.77349 0.72151-0.41373 0.67817
   5  -2   4 32.7250 80.9977   4 0.63129 0.21060-0.28919 0.23634-0.71188 0.97255
   5  -2   5 1.45814 97.7645   5 0.48908 0.35498-0.76121 0.71534-0.37290 0.70381
   5  -2   5 148.276 43.4262   4 0.67527 0.16753-0.33121 0.28479-0.64519 0.97211
   5  -2   6 353.115 171.170   4 0.71254 0.13117-0.36963 0.32965-0.57376 0.96692
  -5   1   6 379.952 191.542   3-0.19568-0.64444 0.85870-0.82774 0.50398-0.11105
  -5   1   6-96.7631 125.038   1-0.06909-0.77137 0.62354-0.58913 0.82622-0.43005
  -5   1   5 82.1244 54.2366   1-0.10334-0.73782 0.59960-0.57149 0.83658-0.50664
  -5   1   5-13.1728 71.2835   3-0.20540-0.63573 0.85248-0.82798 0.50952-0.18291
  -5   1   4 61.8971 75.3112   3-0.22057-0.62157 0.84246-0.82441 0.51803-0.25774
  -5   1   4-15.6724 49.2678   1-0.14490-0.69696 0.56895-0.54714 0.84723-0.58352
  -5   1   3 1821.80 360.684   1-0.19422-0.64834 0.53025-0.51474 0.85707-0.65958
  -5   1   3 1925.35 372.675   3-0.24193-0.60122 0.82768-0.81609 0.52975-0.33578
   5  -1  -3 2054.38 386.137   4 0.22379 0.62009 0.03126-0.04668-0.96608 0.77103
  -5   1   2 2042.40 379.502   3-0.27032-0.57384 0.80679-0.80166 0.54483-0.41718
   5  -1  -2 2457.91 406.519   4 0.28395 0.56083-0.01134 0.00236-0.95344 0.82464
  -5   1   2 2722.58 425.079   1-0.25150-0.59176 0.48199-0.47279 0.86453-0.73325
   5  -1  -1 38.8122 82.6157   4 0.34754 0.49815-0.05774 0.05519-0.93281 0.87026
   5  -1   0 92.7773 108.384   4 0.41279 0.43381-0.10699 0.11089-0.90296 0.90665
   5  -1   1 11.1215 76.7449   5 0.38711 0.46121-0.78615 0.79821-0.46785 0.54041
   5  -1   1 149.978 41.5785   4 0.47762 0.36989-0.15786 0.16818-0.86315 0.93309
   5  -1   2 896.602 258.716   5 0.42694 0.42243-0.77840 0.79656-0.43264 0.57168
   5  -1   2 972.300 248.454   4 0.53985 0.30857-0.20887 0.22563-0.81335 0.94953
   5  -1   3-63.5365 85.2564   5 0.46627 0.38417-0.76829 0.79255-0.39556 0.60107
   5  -1   3 143.260 130.134   4 0.59746 0.25186-0.25856 0.28176-0.75423 0.95667
   5  -1   4 1061.25 304.501   5 0.50471 0.34678-0.75580 0.78616-0.35684 0.62884
   5  -1   5-3.90593 56.7149   5 0.54199 0.31057-0.74094 0.77739-0.31671 0.65518
  -5   0   6 165.337 116.695   3-0.26257-0.58628 0.81264-0.86429 0.54077-0.15587
  -5   0   6 85.7260 93.0237   1-0.12267-0.72607 0.58557-0.63347 0.84180-0.45347
  -5   0   5 1406.70 358.068   3-0.27483-0.57503 0.80334-0.86145 0.54717-0.22860
  -5   0   5 1690.01 367.039   1-0.15727-0.69217 0.55949-0.61370 0.84999-0.52789
  -5   0   4 201.288 129.815   1-0.19841-0.65173 0.52684-0.58735 0.85777-0.60189
   5   0  -3 4434.38 552.893   4 0.22325 0.62896 0.03164 0.03542-0.96617 0.77913
  -5   0   3 5133.30 628.658   1-0.24625-0.60458 0.48656-0.55338 0.86403-0.67437
   5   0  -2 13.2194 95.9885   4 0.28834 0.56478-0.01449 0.08799-0.95226 0.83148
   5   0  -2 109.285 120.292   6 0.54912 0.30432-0.29232 0.36993 0.72600-0.84904
   5   0  -1 199.101 92.3733   5 0.39348 0.46121-0.78507 0.86726-0.46237 0.40953
   5   0  -1 293.686 175.274   6 0.48624 0.36796-0.35745 0.44159 0.73267-0.78927
   5   0   0 58.1322 62.3652   5 0.42788 0.42788-0.77819 0.86648-0.43179 0.44542
   5   0   1 1299.33 295.696   5 0.46253 0.39429-0.76937 0.86375-0.39919 0.47930
   5   0   2 349.575 162.097   5 0.49700 0.36087-0.75853 0.85902-0.36482 0.51141
   5   0   3 352.977 151.483   5 0.53094 0.32799-0.74565 0.85223-0.32889 0.54196
   5   0   4 131.392 92.5348   5 0.56404 0.29595-0.73072 0.84341-0.29162 0.57117
   5   0   5 884.307 254.188   5 0.59607 0.26498-0.71376 0.83255-0.25320 0.59922
  -5  -1   5 18.2846 60.6629   1-0.21236-0.64535 0.51535-0.65188 0.85991-0.54564
  -5  -1   4 810.951 256.172   1-0.25253-0.60588 0.48109-0.62393 0.86462-0.61658
   5   1  -3 150.432 124.646   6 0.64106 0.22036-0.18343 0.33702 0.70384-0.88522
   5   1  -2 311.692 164.828   6 0.58401 0.27817-0.25313 0.41325 0.71953-0.83446
   5   1  -1-81.3137 118.420   6 0.52840 0.33456-0.31452 0.48116 0.72886-0.77735
   5   1   0-119.970 117.294   5 0.51276 0.35149-0.75283 0.92345-0.34841 0.36960
   5   1   0-22.3808 106.011   6 0.47570 0.38801-0.36775 0.54093 0.73323-0.71528
   5   1   1 175.632 136.888   5 0.54062 0.32468-0.74153 0.91825-0.31823 0.40590
   5   1   2 420.502 172.163   5 0.56853 0.29783-0.72850 0.91132-0.28639 0.44053
   5   1   3 223.317 140.115   5 0.59616 0.27127-0.71371 0.90263-0.25309 0.47371
   5   1   4 900.541 285.393   5 0.62321 0.24528-0.69717 0.89219-0.21854 0.50564
   5   1   5 558.172 235.371   5 0.64947 0.22007-0.67889 0.88001-0.18290 0.53648
  -5  -2   5 1167.67 313.863   1-0.26774-0.59824 0.46763-0.68649 0.86583-0.55940
   5   2  -4 439.380 184.603   6 0.71709 0.15232-0.07625 0.30582 0.66996-0.90967
   5   2  -3 50.8208 102.892   6 0.66823 0.20194-0.14730 0.38340 0.69370-0.86697
   5   2  -2-74.8757 120.653   6 0.61856 0.25238-0.21184 0.45447 0.71086-0.81769
   5   2  -1 239.326 147.771   6 0.56964 0.30206-0.26956 0.51872 0.72245-0.76284
   5   2   0-117.706 69.8135   6 0.52276 0.34971-0.32043 0.57611 0.72952-0.70346
   5   2   1-4.25737 79.0590   6 0.47892 0.39431-0.36462 0.62684 0.73308-0.64058
   5   2   2-49.7648 77.8027   5 0.63845 0.23641-0.68685 0.95200-0.19814 0.35984
   5   2   3 284.391 146.949   5 0.65924 0.21668-0.67146 0.94271-0.16905 0.39723
   5   2   4 72.0949 72.6767   5 0.67992 0.19706-0.65445 0.93180-0.13852 0.43318
   5   2   5-35.8331 154.686   5 0.70024 0.17780-0.63585 0.91930-0.10675 0.46788
   5   3  -4 781.597 245.058   6 0.73736 0.14080-0.04393 0.35601 0.65753-0.88913
   5   3  -3 242.805 166.842   6 0.69529 0.18363-0.10903 0.42764 0.68153-0.84669
   5   3  -2 220.088 120.981   6 0.65224 0.22745-0.16882 0.49396 0.69990-0.79862
   5   3  -1 7.10521 83.1134   6 0.60948 0.27097-0.22295 0.55462 0.71338-0.74565
   5   3   0 670.055 261.805   6 0.56811 0.31311-0.27129 0.60948 0.72274-0.68858
   5   3   1 157.336 137.296   6 0.52903 0.35295-0.31385 0.65857 0.72878-0.62817
   5   3   2-21.6235 102.136   6 0.49296 0.38979-0.35080 0.70205 0.73224-0.56519
   5   3   3 43.0021 93.5049   5 0.71742 0.16699-0.61840 0.97197-0.07825 0.31398
   5   3   4 2938.50 500.902   5 0.73188 0.15360-0.60229 0.96197-0.05293 0.35514
   5   4  -3-43.8123 110.259   6 0.72175 0.16592-0.06898 0.47010 0.66725-0.82430
   5   4  -2 103.039 135.296   6 0.68466 0.20378-0.12436 0.53201 0.68658-0.77719
   0   0   0    0.00    0.00   0
;
_shelx_hkl_checksum              33455
loop_
_space_group_symop_operation_xyz
'x, y, z'
'-x, -y, -z'
loop_
_atom_site_label
_atom_site_type_symbol
_atom_site_fract_x
_atom_site_fract_y
_atom_site_fract_z
_atom_site_U_iso_or_equiv
_atom_site_adp_type
_atom_site_occupancy
_atom_site_site_symmetry_order
_atom_site_calc_flag
_atom_site_refinement_flags_posn
_atom_site_refinement_flags_adp
N1 N 0.5057(4) 0.26045(17) 0.20088(13) 0.0334(4) Uani 1 1 d . .
N2 N -0.0675(5) 0.2403(2) 0.84282(16) 0.0503(5) Uani 1 1 d . .
C1 C 0.2323(4) 0.4275(2) 0.35151(16) 0.0362(5) Uani 1 1 d . .
H1A H 0.1460 0.4260 0.4363 0.054 Uiso 1 1 calc R U
H1B H 0.0571 0.4363 0.2922 0.054 Uiso 1 1 calc R U
H1C H 0.3956 0.5167 0.3490 0.054 Uiso 1 1 calc R U
C2 C 0.3822(4) 0.28046(19) 0.31648(14) 0.0286(4) Uani 1 1 d . .
C3 C 0.3928(4) 0.17105(19) 0.40112(15) 0.0321(4) Uani 1 1 d . .
H3 H 0.4909 0.0790 0.3770 0.039 Uiso 1 1 calc R U
C4 C 0.2652(4) 0.19051(18) 0.52077(16) 0.0319(4) Uani 1 1 d . .
C5 C 0.1573(4) 0.20464(19) 0.62567(16) 0.0347(4) Uani 1 1 d . .
C6 C 0.0346(4) 0.2231(2) 0.74331(16) 0.0353(4) Uani 1 1 d . .
C7 C 0.4803(5) 0.3705(2) 0.10713(17) 0.0426(5) Uani 1 1 d . .
H7A H 0.6690 0.3703 0.0530 0.064 Uiso 1 1 calc R U
H7B H 0.4708 0.4751 0.1492 0.064 Uiso 1 1 calc R U
H7C H 0.2841 0.3400 0.0564 0.064 Uiso 1 1 calc R U
C8 C 0.6491(5) 0.1179(2) 0.16031(17) 0.0402(5) Uani 1 1 d . .
H8A H 0.7407 0.1259 0.0769 0.060 Uiso 1 1 calc R U
H8B H 0.4830 0.0292 0.1571 0.060 Uiso 1 1 calc R U
H8C H 0.8200 0.1030 0.2196 0.060 Uiso 1 1 calc R U
loop_
_atom_site_aniso_label
_atom_site_aniso_U_11
_atom_site_aniso_U_22
_atom_site_aniso_U_33
_atom_site_aniso_U_23
_atom_site_aniso_U_13
_atom_site_aniso_U_12
N1 0.0406(8) 0.0303(8) 0.0289(8) 0.0052(6) 0.0028(6) -0.0004(6)
N2 0.0642(12) 0.0500(11) 0.0368(9) 0.0065(8) 0.0094(8) 0.0032(9)
C1 0.0430(10) 0.0318(10) 0.0351(10) 0.0081(8) 0.0013(8) 0.0050(8)
C2 0.0283(8) 0.0298(9) 0.0269(9) 0.0024(7) 0.0002(7) -0.0001(7)
C3 0.0387(10) 0.0280(9) 0.0301(9) 0.0040(7) 0.0046(7) 0.0049(7)
C4 0.0368(10) 0.0235(9) 0.0361(10) 0.0083(7) -0.0009(8) 0.0013(7)
C5 0.0435(11) 0.0278(10) 0.0338(10) 0.0080(8) 0.0020(8) 0.0037(8)
C6 0.0447(11) 0.0301(9) 0.0315(10) 0.0074(8) 0.0012(8) 0.0011(8)
C7 0.0487(11) 0.0491(12) 0.0315(10) 0.0148(8) 0.0005(8) 0.0030(9)
C8 0.0476(11) 0.0375(10) 0.0343(10) -0.0001(8) 0.0087(8) 0.0008(9)
loop_
_atom_type_symbol
_atom_type_description
_atom_type_scat_dispersion_real
_atom_type_scat_dispersion_imag
_atom_type_scat_source
C C 0.0033 0.0016 'International Tables Vol C Tables 4.2.6.8 and 6.1.1.4'
H H 0.0000 0.0000 'International Tables Vol C Tables 4.2.6.8 and 6.1.1.4'
N N 0.0061 0.0033 'International Tables Vol C Tables 4.2.6.8 and 6.1.1.4'
loop_
_geom_angle_atom_site_label_1
_geom_angle_atom_site_label_2
_geom_angle_atom_site_label_3
_geom_angle
C2 N1 C8 120.21(14)
C2 N1 C7 122.95(15)
C8 N1 C7 116.64(15)
C2 C1 H1A 109.5
C2 C1 H1B 109.5
H1A C1 H1B 109.5
C2 C1 H1C 109.5
H1A C1 H1C 109.5
H1B C1 H1C 109.5
N1 C2 C3 122.04(15)
N1 C2 C1 117.66(14)
C3 C2 C1 120.30(15)
C2 C3 C4 122.47(15)
C2 C3 H3 118.8
C4 C3 H3 118.8
C5 C4 C3 178.55(17)
C4 C5 C6 178.98(18)
N2 C6 C5 179.3(2)
N1 C7 H7A 109.5
N1 C7 H7B 109.5
H7A C7 H7B 109.5
N1 C7 H7C 109.5
H7A C7 H7C 109.5
H7B C7 H7C 109.5
N1 C8 H8A 109.5
N1 C8 H8B 109.5
H8A C8 H8B 109.5
N1 C8 H8C 109.5
H8A C8 H8C 109.5
H8B C8 H8C 109.5
loop_
_geom_bond_atom_site_label_1
_geom_bond_atom_site_label_2
_geom_bond_distance
N1 C2 1.348(2)
N1 C8 1.460(2)
N1 C7 1.463(2)
N2 C6 1.153(2)
C1 C2 1.496(2)
C1 H1A 0.9800
C1 H1B 0.9800
C1 H1C 0.9800
C2 C3 1.379(2)
C3 C4 1.394(2)
C3 H3 0.9500
C4 C5 1.214(2)
C5 C6 1.365(2)
C7 H7A 0.9800
C7 H7B 0.9800
C7 H7C 0.9800
C8 H8A 0.9800
C8 H8B 0.9800
C8 H8C 0.9800
loop_
_geom_torsion_atom_site_label_1
_geom_torsion_atom_site_label_2
_geom_torsion_atom_site_label_3
_geom_torsion_atom_site_label_4
_geom_torsion
C8 N1 C2 C3 1.6(3)
C7 N1 C2 C3 176.30(15)
C8 N1 C2 C1 -178.73(16)
C7 N1 C2 C1 -4.1(2)
N1 C2 C3 C4 -179.86(16)
C1 C2 C3 C4 0.5(2)
