#------------------------------------------------------------------------------
#$Date: 2019-11-23 21:52:46 +0200 (Sat, 23 Nov 2019) $
#$Revision: 235214 $
#$URL: file:///home/coder/svn-repositories/cod/cif/4/03/67/4036771.cif $
#------------------------------------------------------------------------------
#
# This file is available in the Crystallography Open Database (COD),
# http://www.crystallography.net/
#
# All data on this site have been placed in the public domain by the
# contributors.
#
data_4036771
loop_
_publ_author_name
'Malassis, Julien'
'Bartlett, Nathan'
'Hands, Kane'
'Selby, Matthew D.'
'Linclau, Bruno'
_publ_section_title
;
 Total Synthesis of (-)-Luminacin D.
;
_journal_issue                   9
_journal_name_full               'The Journal of organic chemistry'
_journal_page_first              3818
_journal_page_last               3837
_journal_paper_doi               10.1021/acs.joc.6b00489
_journal_volume                  81
_journal_year                    2016
_chemical_absolute_configuration ad
_chemical_formula_moiety         'C13 H25 Br O4'
_chemical_formula_sum            'C13 H25 Br O4'
_chemical_formula_weight         325.24
_space_group_crystal_system      triclinic
_space_group_IT_number           1
_space_group_name_Hall           'P 1'
_space_group_name_H-M_alt        'P 1'
_atom_sites_solution_hydrogens   mixed
_atom_sites_solution_primary     direct
_audit_creation_date             2014-11-24
_audit_creation_method
;
Olex2 1.2-alpha
(compiled 2014.11.21 svn.r3092 for OlexSys, GUI svn.r4949)
;
_cell_angle_alpha                66.516(9)
_cell_angle_beta                 73.360(6)
_cell_angle_gamma                87.831(6)
_cell_formula_units_Z            1
_cell_length_a                   6.0963(3)
_cell_length_b                   8.7014(8)
_cell_length_c                   8.7050(8)
_cell_measurement_reflns_used    2489
_cell_measurement_temperature    100(2)
_cell_measurement_theta_max      30.2200
_cell_measurement_theta_min      2.5540
_cell_volume                     404.25(7)
_computing_cell_refinement
'CrysAlisPro, Agilent Technologies, Version 1.171.37.35 (release 13-08-2014 CrysAlis171 .NET) (compiled Aug 13 2014,18:06:01)'
_computing_data_collection
'CrystalClear-SM Expert 3.1 b27 (Rigaku, 2013)'
_computing_data_reduction
'CrysAlisPro, Agilent Technologies, Version 1.171.37.35 (release 13-08-2014 CrysAlis171 .NET) (compiled Aug 13 2014,18:06:01)'
_computing_molecular_graphics    'Olex2 (Dolomanov et al., 2009)'
_computing_publication_material  'Olex2 (Dolomanov et al., 2009)'
_computing_structure_refinement  'ShelXL (Sheldrick, 2008)'
_computing_structure_solution    'ShelXT (Sheldrick, 2008)'
_diffrn_ambient_temperature      100(2)
_diffrn_detector                 'CCD area detector'
_diffrn_detector_area_resol_mean 28.5714
_diffrn_detector_type            'Rigaku HG Saturn724+ (2x2 bin mode)'
_diffrn_measured_fraction_theta_full 0.998
_diffrn_measured_fraction_theta_max 0.880
_diffrn_measurement_details
;
#__ type_ start__ end____ width___ exp.time_
  1 omega  -96.00   44.00   1.0000   10.0000
omega____ theta____ kappa____ phi______ frames
    -      -19.0000    0.0000 -180.0000 140

#__ type_ start__ end____ width___ exp.time_
  2 omega  -97.00   20.00   1.0000   10.0000
omega____ theta____ kappa____ phi______ frames
    -      -19.0000  -72.0000    0.0000 117

#__ type_ start__ end____ width___ exp.time_
  3 omega  -76.00   20.00   1.0000   10.0000
omega____ theta____ kappa____ phi______ frames
    -      -19.0000  -72.0000 -180.0000 96

#__ type_ start__ end____ width___ exp.time_
  4 omega  -41.00  -24.00   1.0000   10.0000
omega____ theta____ kappa____ phi______ frames
    -      -19.0000   72.0000  -30.0000 17

#__ type_ start__ end____ width___ exp.time_
  5 omega  -23.00   -6.00   1.0000   10.0000
omega____ theta____ kappa____ phi______ frames
    -      -19.0000   36.0000  150.0000 17

#__ type_ start__ end____ width___ exp.time_
  6 omega  -31.00  -20.00   1.0000   10.0000
omega____ theta____ kappa____ phi______ frames
    -      -19.0000   72.0000  150.0000 11
;
_diffrn_measurement_device       'four-circle \k diffractometer'
_diffrn_measurement_device_type  'Rigaku AFC12 FRE-HF'
_diffrn_measurement_method       'profile data from \w-scans'
_diffrn_measurement_specimen_support 'MiTeGen MicroMesh'
_diffrn_orient_matrix_UB_11      -0.0013379000
_diffrn_orient_matrix_UB_12      -0.0475866000
_diffrn_orient_matrix_UB_13      -0.0496381000
_diffrn_orient_matrix_UB_21      -0.1021235000
_diffrn_orient_matrix_UB_22      -0.0470550000
_diffrn_orient_matrix_UB_23      0.0636313000
_diffrn_orient_matrix_UB_31      -0.0665377000
_diffrn_orient_matrix_UB_32      0.0589950000
_diffrn_orient_matrix_UB_33      -0.0462334000
_diffrn_radiation_collimation    0.3
_diffrn_radiation_monochromator  'Confocal mirrors, HF Varimax'
_diffrn_radiation_probe          x-ray
_diffrn_radiation_type           MoK\a
_diffrn_radiation_wavelength     0.71073
_diffrn_reflns_av_R_equivalents  0.0338
_diffrn_reflns_av_unetI/netI     0.0550
_diffrn_reflns_Laue_measured_fraction_full 0.998
_diffrn_reflns_Laue_measured_fraction_max 0.880
_diffrn_reflns_limit_h_max       8
_diffrn_reflns_limit_h_min       -8
_diffrn_reflns_limit_k_max       11
_diffrn_reflns_limit_k_min       -12
_diffrn_reflns_limit_l_max       12
_diffrn_reflns_limit_l_min       -10
_diffrn_reflns_number            4082
_diffrn_reflns_point_group_measured_fraction_full 0.723
_diffrn_reflns_point_group_measured_fraction_max 0.595
_diffrn_reflns_theta_full        25.242
_diffrn_reflns_theta_max         30.841
_diffrn_reflns_theta_min         2.562
_diffrn_source                   'Rotating Anode'
_diffrn_source_current           55.0
_diffrn_source_power             2.475
_diffrn_source_target            Mo
_diffrn_source_type              'Rotating Anode'
_diffrn_source_voltage           45.0
_exptl_absorpt_coefficient_mu    2.547
_exptl_absorpt_correction_T_max  1.00000
_exptl_absorpt_correction_T_min  0.82030
_exptl_absorpt_correction_type   multi-scan
_exptl_absorpt_process_details
'CrysAlisPro, Agilent Technologies, Version 1.171.37.35 (release 13-08-2014 CrysAlis171 .NET) (compiled Aug 13 2014,18:06:01) Empirical absorption correction using spherical harmonics, implemented in SCALE3 ABSPACK scaling algorithm.'
_exptl_crystal_colour            'clear colourless'
_exptl_crystal_colour_lustre     clear
_exptl_crystal_colour_primary    colourless
_exptl_crystal_density_diffrn    1.336
_exptl_crystal_description       plate
_exptl_crystal_F_000             170
_exptl_crystal_recrystallization_method
'The material was recrystallised from a mixture of pentane and Et2O by slow evaporation'
_exptl_crystal_size_max          0.11
_exptl_crystal_size_mid          0.05
_exptl_crystal_size_min          0.01
_refine_diff_density_max         1.024
_refine_diff_density_min         -0.415
_refine_diff_density_rms         0.090
_refine_ls_abs_structure_details
;
 Classical Flack method preferred over Parsons because s.u. lower.
;
_refine_ls_abs_structure_Flack   0.003(14)
_refine_ls_extinction_method     none
_refine_ls_goodness_of_fit_ref   0.982
_refine_ls_hydrogen_treatment    mixed
_refine_ls_matrix_type           full
_refine_ls_number_parameters     174
_refine_ls_number_reflns         3019
_refine_ls_number_restraints     5
_refine_ls_restrained_S_all      0.981
_refine_ls_R_factor_all          0.0619
_refine_ls_R_factor_gt           0.0486
_refine_ls_shift/su_max          0.000
_refine_ls_shift/su_mean         0.000
_refine_ls_structure_factor_coef Fsqd
_refine_ls_weighting_details
'w=1/[\s^2^(Fo^2^)+(0.0753P)^2^] where P=(Fo^2^+2Fc^2^)/3'
_refine_ls_weighting_scheme      calc
_refine_ls_wR_factor_gt          0.1152
_refine_ls_wR_factor_ref         0.1220
_reflns_Friedel_coverage         0.353
_reflns_Friedel_fraction_full    0.448
_reflns_Friedel_fraction_max     0.310
_reflns_number_gt                2470
_reflns_number_total             3019
_reflns_threshold_expression     'I > 2\s(I)'
_cod_data_source_file            jo6b00489_si_002.cif
_cod_data_source_block           17a
_cod_original_cell_volume        404.26(6)
_cod_database_code               4036771
_shelx_space_group_comment
;
The symmetry employed for this shelxl refinement is uniquely defined
by the following loop, which should always be used as a source of
symmetry information in preference to the above space-group names.
They are only intended as comments.
;
_diffrn_measurement_device_type2 'Rigaku AFC12 (Right)'
_reflns_odcompleteness_completeness 88.02
_reflns_odcompleteness_iscentric 1
_reflns_odcompleteness_theta     30.77
_olex2_refinement_description
;
1. Fixed Uiso
 At 1.2 times of:
  All C(H) groups, All C(H,H) groups
 At 1.5 times of:
  All C(H,H,H) groups, All C(H,H,H,H,H) groups
2. Restrained distances
 H4-O4
 0.84 with sigma of 0.02
 H3-O3
 0.84 with sigma of 0.02
3.a Ternary CH refined with riding coordinates:
 C7(H7), C10(H10)
3.b Secondary CH2 refined with riding coordinates:
 C8(H8A,H8B), C11(H11A,H11B), C12(H12A,H12B)
3.c Idealised Me refined as rotating group:
 C2(H2A,H2B,H2C), C3(H3A,H3B,H3C), C4(H4A,H4B,H4C), C9(H9A,H9B,H9C), C13(H13A,
 H13B,H13C)
;
_shelx_res_file
;
    2014sot0049.res created by SHELXL-2014/7

TITL 2014sot0049_a.res in P1
REM Old TITL 2014sot0049 in P1 #1
REM SHELXT solution in P1
REM R1 0.167, Rweak 0.156, Alpha 0.000, Orientation as input
REM Flack x = -0.940 ( 0.070 ) from Parsons' quotients
REM Formula found by SHELXT: C13 O4 Br
CELL 0.71073 6.096292 8.701438 8.705039 66.5157 73.3601 87.8307
ZERR 1 0.00034 0.000799 0.000811 0.0088 0.0064 0.0058
LATT -1
SFAC C H Br O
UNIT 13 25 1 4
EQIV $1 -1+X,+Y,+Z
EQIV $2 1+X,+Y,+Z
DFIX 0.84 H4 O4
DFIX 0.84 H3 O3

L.S. 10
PLAN  20
HTAB O3 O4_$1
HTAB O4 O2_$2
bump
BOND $H
LIST 6
fmap 2
acta
OMIT -1 5 -3
OMIT 3 -2 5
OMIT 2 7 1
OMIT -3 -4 -2
REM <olex2.extras>
REM <HklSrc "%C:\\XRayData\\Departmental\\2014sot0049\\2014sot0049.hkl">
REM </olex2.extras>

WGHT    0.075300
FVAR       1.62597
BR1   3    0.296390    0.889010    0.341110    11.00000    0.04021    0.05209 =
         0.04071   -0.01335   -0.01135    0.02104
O1    4    0.465079    0.534791    0.669450    11.00000    0.01139    0.03834 =
         0.01779   -0.01188   -0.00449    0.00071
O2    4    0.128873    0.475549    0.636738    11.00000    0.01590    0.06444 =
         0.02326   -0.01865   -0.00404   -0.00354
O3    4    0.337714    0.532900    0.295719    11.00000    0.01196    0.06314 =
         0.02520   -0.02198   -0.00474   -0.00062
O4    4    0.863842    0.521699    0.404780    11.00000    0.01264    0.03916 =
         0.02687   -0.00970   -0.00559   -0.00224
C1    1    0.377897    0.497208    0.860283    11.00000    0.01667    0.04036 =
         0.01619   -0.01072   -0.00228   -0.00001
C2    1    0.217285    0.624397    0.887185    11.00000    0.01768    0.06102 =
         0.02903   -0.02595   -0.00605    0.01126
AFIX 137
H2A   2    0.271082    0.732156    0.792025    11.00000   -1.50000
H2B   2    0.210948    0.631485    0.995617    11.00000   -1.50000
H2C   2    0.066611    0.591285    0.891199    11.00000   -1.50000
AFIX   0
C3    1    0.266927    0.317713    0.962146    11.00000    0.03358    0.04262 =
         0.02668   -0.00587   -0.00847   -0.00814
AFIX 137
H3A   2    0.130516    0.307907    0.931391    11.00000   -1.50000
H3B   2    0.227409    0.290237    1.085611    11.00000   -1.50000
H3C   2    0.372854    0.241767    0.933694    11.00000   -1.50000
AFIX   0
C4    1    0.595695    0.514556    0.903736    11.00000    0.02178    0.04587 =
         0.02253   -0.01618   -0.00774    0.00215
AFIX 137
H4A   2    0.696239    0.432860    0.882595    11.00000   -1.50000
H4B   2    0.558753    0.496335    1.024894    11.00000   -1.50000
H4C   2    0.670650    0.625512    0.831364    11.00000   -1.50000
AFIX   0
C5    1    0.329390    0.520273    0.579890    11.00000    0.01414    0.03273 =
         0.02032   -0.01090   -0.00685    0.00303
C6    1    0.469212    0.568216    0.387450    11.00000    0.01303    0.04845 =
         0.02124   -0.01837   -0.00496   -0.00157
C7    1    0.561212    0.756954    0.301816    11.00000    0.01805    0.03479 =
         0.02235   -0.01110   -0.00578    0.00636
AFIX  13
H7    2    0.667053    0.772216    0.361729    11.00000   -1.20000
AFIX   0
C8    1    0.684400    0.821513    0.109822    11.00000    0.03415    0.04026 =
         0.02805   -0.01020   -0.00875    0.00326
AFIX  23
H8A   2    0.574776    0.824285    0.047233    11.00000   -1.20000
H8B   2    0.796835    0.744570    0.089193    11.00000   -1.20000
AFIX   0
C9    1    0.805719    0.996769    0.037136    11.00000    0.04376    0.04716 =
         0.03815   -0.00894   -0.01216   -0.00046
AFIX 137
H9A   2    0.877961    1.033650   -0.086665    11.00000   -1.50000
H9B   2    0.920112    0.993668    0.094326    11.00000   -1.50000
H9C   2    0.695528    1.073419    0.057948    11.00000   -1.50000
AFIX   0
C10   1    0.674896    0.459564    0.374201    11.00000    0.01718    0.04227 =
         0.02196   -0.01602   -0.00472   -0.00093
AFIX  13
H10   2    0.727078    0.469829    0.252799    11.00000   -1.20000
AFIX   0
C11   1    0.609183    0.275430    0.488631    11.00000    0.02110    0.03705 =
         0.02786   -0.01199   -0.00593   -0.00136
AFIX  23
H11A  2    0.471210    0.241835    0.471442    11.00000   -1.20000
H11B  2    0.572832    0.259232    0.610373    11.00000   -1.20000
AFIX   0
C12   1    0.793727    0.161603    0.453502    11.00000    0.03343    0.04168 =
         0.03388   -0.01037    0.00389   -0.00249
AFIX  23
H12A  2    0.935318    0.199727    0.462315    11.00000   -1.20000
H12B  2    0.821788    0.170537    0.334672    11.00000   -1.20000
AFIX   0
C13   1    0.728850   -0.022791    0.580826    11.00000    0.05542    0.04011 =
         0.04168   -0.01638    0.00152   -0.00088
AFIX 137
H13A  2    0.851745   -0.088869    0.553775    11.00000   -1.50000
H13B  2    0.591619   -0.062497    0.569944    11.00000   -1.50000
H13C  2    0.702463   -0.032755    0.698682    11.00000   -1.50000
AFIX   0
H3    2    0.199757    0.530250    0.350238    11.00000   -1.50000
H4    2    0.870389    0.476092    0.507124    11.00000   -1.50000
HKLF 4

REM  2014sot0049_a.res in P1
REM R1 =  0.0486 for    2470 Fo > 4sig(Fo)  and  0.0619 for all    3019 data
REM    174 parameters refined using      5 restraints

END

WGHT      0.0753      0.0000

REM Highest difference peak  1.024,  deepest hole -0.415,  1-sigma level  0.090
Q1    1   0.3196  0.1456  0.6778  11.00000  0.05    1.02
Q2    1   0.2698  0.6238  1.0165  11.00000  0.05    0.68
Q3    1   0.5359 -0.1002  0.4867  11.00000  0.05    0.47
Q4    1   0.3821  0.9751  0.2757  11.00000  0.05    0.47
Q5    1   1.0519  0.8772  0.2119  11.00000  0.05    0.46
Q6    1   0.2879  0.7683  0.4121  11.00000  0.05    0.46
Q7    1   0.4338  0.8847  0.3676  11.00000  0.05    0.45
Q8    1   0.3119  1.0125  0.2715  11.00000  0.05    0.42
Q9    1   0.1544  0.8881  0.3116  11.00000  0.05    0.41
Q10   1   0.8071  0.8935  0.0792  11.00000  0.05    0.38
Q11   1   0.2072  0.9558  0.3029  11.00000  0.05    0.37
Q12   1   0.8058  0.4635  0.4389  11.00000  0.05    0.32
Q13   1   0.4459  0.2581  0.3436  11.00000  0.05    0.32
Q14   1   0.6736  0.2414  0.4007  11.00000  0.05    0.32
Q15   1   0.6527  0.6177  0.3240  11.00000  0.05    0.31
Q16   1   0.5497  0.5252  0.9806  11.00000  0.05    0.31
Q17   1   1.1380  0.2348  0.3155  11.00000  0.05    0.31
Q18   1   0.3832  0.4668  0.7365  11.00000  0.05    0.31
Q19   1   0.4652  0.5019  0.8965  11.00000  0.05    0.31
Q20   1   0.2990  0.4157  0.8990  11.00000  0.05    0.29
;
_shelx_res_checksum              74893
_shelx_hkl_file
;
  -8  -5  -6   24.42   17.67
  -8  -5  -5   91.86   22.72
  -8  -4  -5   48.90   19.42
  -8  -4  -4   23.31   17.26
  -8  -4  -3   22.19   18.84
  -8  -3  -4   35.91   16.52
  -8  -3  -3   33.89   17.31
  -8  -3  -2   25.04   19.89
  -8  -2  -3   21.96   16.18
  -8  -2  -2   52.79   22.61
  -8  -2  -1   65.22   21.89
  -8  -1  -2   62.15   18.24
  -8  -1  -1   62.20   20.64
  -8  -1   0  166.15   26.17
  -8   0   0   18.21   17.27
  -8   0   1   48.00   20.76
  -8   1   1    6.98   18.62
  -7  -7  -8    1.44   16.70
  -7  -7  -7   -5.27   17.47
  -7  -7  -6   55.21   20.68
  -7  -6  -8    4.56   16.03
  -7  -6  -7   19.12   16.77
  -7  -6  -6   40.08   17.79
  -7  -6  -5   27.82   17.80
  -7  -6  -4   60.43   18.69
  -7  -6  -3   37.00   19.34
  -7  -5  -8   38.29   16.67
  -7  -5  -7   88.87   19.05
  -7  -5  -6    6.13   14.55
  -7  -5  -5   30.24   17.60
  -7  -5  -4    3.99   14.36
  -7  -5  -3   12.41   15.29
  -7  -5  -2   30.18   18.75
  -7  -5  -1   48.38   21.06
  -7  -4  -7   25.98   14.56
  -7  -4  -6  134.28   19.60
  -7  -4  -5    9.56   13.59
  -7  -4  -4   78.93   18.26
  -7  -4  -3   86.88   19.00
  -7  -4  -2   99.26   21.51
  -7  -4  -1   51.15   17.57
  -7  -4   0   52.21   22.53
  -7  -3  -6   16.98   13.67
  -7  -3  -5  103.33   18.49
  -7  -3  -4   18.00   12.45
  -7  -3  -3   90.74   18.17
  -7  -3  -2   18.46   15.12
  -7  -3  -1    4.73   15.03
  -7  -3   0   45.53   18.99
  -7  -3   1   49.03   21.65
  -7  -2  -5    0.22   11.22
  -7  -2  -4   17.00   11.42
  -7  -2  -3   -1.80   13.22
  -7  -2  -2   40.40   14.73
  -7  -2  -1   -7.40   13.75
  -7  -2   0   42.18   18.64
  -7  -2   1   59.13   18.37
  -7  -2   2   54.82   23.75
  -7  -1  -4  110.18   15.41
  -7  -1  -3  263.37   23.96
  -7  -1  -2  126.67   18.73
  -7  -1  -1  139.56   19.30
  -7  -1   0  139.56   21.82
  -7  -1   1   36.82   18.14
  -7  -1   2   83.86   23.22
  -7  -1   2   47.95   18.48
  -7   0  -3  298.55   22.49
  -7   0  -2   66.10   14.80
  -7   0  -1   81.02   16.48
  -7   0   0  147.38   22.01
  -7   0   1  182.67   25.17
  -7   0   1  175.19   23.76
  -7   0   2   27.18   15.07
  -7   0   2   12.64   16.48
  -7   0   3   45.96   23.19
  -7   1  -1  104.93   17.07
  -7   1   0   32.87   14.90
  -7   1   0   36.74   17.26
  -7   1   1  127.45   21.03
  -7   1   1  100.76   18.25
  -7   1   2   68.95   19.88
  -7   1   2  114.28   24.66
  -7   1   3   31.29   20.91
  -7   2   0  336.25   29.89
  -7   2   0  365.04   27.10
  -7   2   1   59.80   18.92
  -7   2   1   28.13   15.15
  -7   2   2   66.78   20.25
  -7   2   2   57.13   18.80
  -7   2   3   23.00   18.57
  -7   2   3   63.77   22.47
  -7   3   0  240.52   25.78
  -7   3   1  167.89   24.32
  -7   3   1  260.87   27.43
  -7   3   2   55.37   17.94
  -7   3   2   36.32   18.07
  -7   3   3    3.50   15.47
  -7   3   3   30.88   20.28
  -7   3   4   65.39   24.28
  -7   4   0   -1.48   12.38
  -7   4   1   36.41   16.95
  -7   4   2   58.73   19.12
  -7   4   3   91.72   24.46
  -7   4   4   60.23   24.00
  -7   5   0  196.61   23.62
  -7   5   1  116.87   22.13
  -7   5   2   46.24   17.48
  -7   6   1   84.45   21.03
  -7   6   2   78.26   20.42
  -6  -8  -8   40.36   18.47
  -6  -8  -7   45.83   19.89
  -6  -8  -6   25.67   17.78
  -6  -8  -5    4.10   16.96
  -6  -8  -4   23.91   18.77
  -6  -7  -8   24.23   15.80
  -6  -7  -7   17.60   16.05
  -6  -7  -6    0.93   14.92
  -6  -7  -5   18.71   16.10
  -6  -7  -4   24.71   15.40
  -6  -7  -3   24.58   17.33
  -6  -7  -2   45.19   19.39
  -6  -6  -8   -9.48   14.71
  -6  -6  -7   37.46   15.96
  -6  -6  -6   12.24   13.29
  -6  -6  -5   35.32   16.76
  -6  -6  -4   85.53   18.44
  -6  -6  -3   56.30   17.86
  -6  -6  -2   -2.17   16.01
  -6  -6  -1   50.36   21.28
  -6  -6   0   53.06   20.01
  -6  -5  -8   31.26   14.11
  -6  -5  -7   63.00   16.26
  -6  -5  -6   24.32   13.84
  -6  -5  -5  102.88   19.13
  -6  -5  -4    4.27   12.44
  -6  -5  -3   57.18   16.07
  -6  -5  -2   11.70   14.68
  -6  -5  -1   19.06   14.68
  -6  -5   0   24.89   17.36
  -6  -5   1   -3.44   16.97
  -6  -4  -7   -1.79   10.82
  -6  -4  -6   49.39   14.21
  -6  -4  -5  141.39   19.45
  -6  -4  -4  144.14   18.45
  -6  -4  -3    5.93   11.75
  -6  -4  -2  190.41   24.60
  -6  -4  -1  234.45   25.39
  -6  -4   0   35.27   16.55
  -6  -4   1   80.85   19.67
  -6  -4   2   62.85   20.88
  -6  -3  -7   60.80   14.06
  -6  -3  -6  141.73   17.24
  -6  -3  -5   85.79   14.97
  -6  -3  -4  273.03   22.02
  -6  -3  -3  142.50   19.60
  -6  -3  -2   36.13   12.49
  -6  -3  -1  482.40   32.32
  -6  -3   0  327.46   29.16
  -6  -3   1   65.75   18.48
  -6  -3   2   59.75   20.82
  -6  -3   3  114.22   25.13
  -6  -2  -6   88.29   13.89
  -6  -2  -5  191.72   17.97
  -6  -2  -4   87.68   13.67
  -6  -2  -3   80.14   15.08
  -6  -2  -2  306.64   24.01
  -6  -2  -1   45.49   13.00
  -6  -2   0    0.11   12.77
  -6  -2   1    1.77   13.91
  -6  -2   2    8.79   13.68
  -6  -2   2   11.29   14.79
  -6  -2   3   40.11   15.81
  -6  -2   3   55.74   20.72
  -6  -2   4   12.12   15.24
  -6  -1  -6  105.20   12.97
  -6  -1  -5  377.76   21.33
  -6  -1  -4  389.12   21.70
  -6  -1  -3  108.51   14.96
  -6  -1  -2  130.70   16.45
  -6  -1  -1  772.95   36.10
  -6  -1   0  121.49   18.51
  -6  -1   0  173.93   20.15
  -6  -1   1   80.72   16.14
  -6  -1   1   59.57   15.33
  -6  -1   2  349.20   30.54
  -6  -1   2  435.70   35.90
  -6  -1   3  196.53   28.50
  -6  -1   3  135.55   22.01
  -6  -1   4   54.61   22.06
  -6  -1   4   17.93   16.23
  -6   0  -6  190.17   19.99
  -6   0  -4  131.56   13.56
  -6   0  -3  334.50   20.82
  -6   0  -2   75.62   13.71
  -6   0  -1  323.94   23.21
  -6   0   0  260.70   24.31
  -6   0   0  284.79   22.79
  -6   0   1  201.71   24.12
  -6   0   1  162.47   21.40
  -6   0   2   -2.75   12.49
  -6   0   2   14.36   14.50
  -6   0   3  287.43   30.78
  -6   0   3  233.74   26.93
  -6   0   4   32.77   15.85
  -6   0   4   19.37   19.52
  -6   1  -9   22.54   20.58
  -6   1  -8   39.53   19.68
  -6   1  -7   -6.21   14.66
  -6   1  -6  232.72   22.94
  -6   1  -3  136.80   12.70
  -6   1  -2  731.63   30.22
  -6   1  -1  381.19   23.72
  -6   1  -1  318.49   25.15
  -6   1   0   42.66   11.47
  -6   1   0   53.84   13.46
  -6   1   1   54.93   14.51
  -6   1   1   19.66   12.49
  -6   1   2  275.00   26.19
  -6   1   2  289.97   28.05
  -6   1   3   15.42   16.41
  -6   1   4  105.92   23.76
  -6   1   5   13.31   20.56
  -6   2  -9    5.35   22.33
  -6   2  -8   24.99   20.72
  -6   2  -7  102.23   21.52
  -6   2  -2  186.29   14.79
  -6   2  -1  514.05   25.59
  -6   2  -1  430.67   28.51
  -6   2   0  586.41   32.72
  -6   2   0  442.35   30.16
  -6   2   1  203.82   22.65
  -6   2   1  267.96   24.14
  -6   2   2  457.03   32.83
  -6   2   3  365.10   37.75
  -6   2   3  336.62   30.20
  -6   2   4   91.99   22.35
  -6   2   4   93.26   24.58
  -6   2   5   98.21   25.35
  -6   2   5   55.02   25.38
  -6   3  -1   72.18   11.33
  -6   3  -1   53.42   13.47
  -6   3   0  169.87   17.99
  -6   3   0  149.86   19.49
  -6   3   1  301.04   25.99
  -6   3   1  370.36   26.61
  -6   3   2  109.18   25.58
  -6   3   2   82.46   17.80
  -6   3   3   59.76   17.69
  -6   3   3   88.19   25.62
  -6   3   4   90.26   23.48
  -6   3   4   33.83   21.79
  -6   3   5   68.96   25.22
  -6   3   5   59.05   24.93
  -6   3   6   26.91   25.23
  -6   4  -1  353.39   25.58
  -6   4   0  140.87   18.55
  -6   4   1  282.24   23.06
  -6   4   1  258.03   33.43
  -6   4   2  374.58   40.19
  -6   4   2  344.72   28.42
  -6   4   3  148.23   31.42
  -6   4   3   87.40   20.69
  -6   4   4   91.26   28.14
  -6   4   4   91.37   22.62
  -6   4   5   57.38   26.09
  -6   4   5   56.91   22.31
  -6   5  -1  198.76   20.15
  -6   5   0  193.94   21.51
  -6   5   1  207.98   32.98
  -6   5   2   27.66   15.40
  -6   5   2   36.51   22.24
  -6   5   3  140.97   30.96
  -6   5   3  124.29   21.23
  -6   5   4   34.85   17.88
  -6   5   5  126.65   25.00
  -6   6   0  107.46   17.70
  -6   6   1   99.54   27.82
  -6   6   2  172.19   34.10
  -6   6   4   97.67   21.66
  -6   6   5   24.40   20.74
  -6   7   1  141.82   20.84
  -6   7   1  152.51   33.78
  -6   7   2   84.92   29.38
  -6   8   1   74.19   30.76
  -5  -9  -8   19.68   18.12
  -5  -9  -7   -7.36   17.29
  -5  -9  -6    5.49   16.83
  -5  -9  -5   36.88   18.13
  -5  -9  -4   19.42   17.19
  -5  -9  -3   12.32   16.85
  -5  -8  -8   26.17   17.08
  -5  -8  -7    8.50   15.66
  -5  -8  -6   26.00   17.34
  -5  -8  -5   25.21   15.71
  -5  -8  -4   32.58   17.42
  -5  -8  -3   63.25   17.91
  -5  -8  -2   -9.58   15.92
  -5  -8  -1   41.08   17.94
  -5  -7  -8   33.14   15.50
  -5  -7  -7   17.28   14.52
  -5  -7  -6   72.55   18.52
  -5  -7  -5   93.24   19.18
  -5  -7  -4   41.24   15.42
  -5  -7  -3    1.21   13.73
  -5  -7  -2   63.40   16.64
  -5  -7  -1  -14.47   16.54
  -5  -7   0   -2.05   17.66
  -5  -7   1   26.77   17.84
  -5  -6  -7  110.27   19.07
  -5  -6  -6   48.05   14.99
  -5  -6  -5   38.49   15.12
  -5  -6  -4  117.42   17.67
  -5  -6  -3   21.38   12.23
  -5  -6  -2   68.96   17.50
  -5  -6  -1  187.54   27.43
  -5  -6   0   58.00   17.28
  -5  -6   1   58.68   20.25
  -5  -6   2   75.33   22.12
  -5  -5  -7   64.72   14.12
  -5  -5  -6   59.68   15.30
  -5  -5  -5   13.23   11.34
  -5  -5  -4   35.89   12.09
  -5  -5  -3  452.34   28.97
  -5  -5  -2   78.50   17.07
  -5  -5  -1   20.84   12.01
  -5  -5   0   78.59   18.41
  -5  -5   1  111.85   20.52
  -5  -5   2   27.56   16.20
  -5  -5   3   55.69   20.34
  -5  -4  -7   31.24   11.18
  -5  -4  -6   84.78   14.20
  -5  -4  -5  157.25   18.14
  -5  -4  -4  373.70   24.11
  -5  -4  -3    6.46    9.40
  -5  -4  -2  183.22   19.99
  -5  -4  -1  105.10   17.43
  -5  -4   0   37.10   13.70
  -5  -4   1  117.70   19.26
  -5  -4   2  129.82   21.09
  -5  -4   3   37.54   18.43
  -5  -4   4   84.57   23.37
  -5  -3  -6  288.68   20.73
  -5  -3  -5   81.06   13.34
  -5  -3  -4  658.65   29.05
  -5  -3  -3 1138.04   39.60
  -5  -3  -2  119.19   14.60
  -5  -3  -1  332.50   24.53
  -5  -3   0  452.65   28.98
  -5  -3   0  336.89   13.97
  -5  -3   1  100.50   17.82
  -5  -3   1   92.84   11.47
  -5  -3   2   65.10   15.20
  -5  -3   2   82.49   17.66
  -5  -3   3   36.36   16.90
  -5  -3   3   32.42   13.22
  -5  -3   4   -1.52   12.75
  -5  -3   4   20.68   18.08
  -5  -3   5   26.41   15.81
  -5  -2  -6  192.59   16.02
  -5  -2  -5  145.90   14.69
  -5  -2  -4  126.18   13.06
  -5  -2  -3  607.96   28.45
  -5  -2  -2  617.72   28.79
  -5  -2  -1   64.22   12.70
  -5  -2   0  295.76   22.95
  -5  -2   0  225.10    9.70
  -5  -2   1  757.44   36.53
  -5  -2   1  866.81   38.77
  -5  -2   2  164.75   19.68
  -5  -2   2  284.23   28.26
  -5  -2   3  141.07   19.88
  -5  -2   3  173.57   25.19
  -5  -2   4  113.59   23.83
  -5  -2   4   53.76   16.32
  -5  -2   5   64.31   22.84
  -5  -2   5   33.84   16.35
  -5  -2   6   10.19   16.32
  -5  -1  -5  427.93   20.07
  -5  -1  -4  571.19   24.04
  -5  -1  -3  234.05   16.52
  -5  -1  -2  170.34   16.16
  -5  -1  -1  517.85   26.24
  -5  -1   0  156.88   17.68
  -5  -1   0  183.06   18.05
  -5  -1   1   80.92   17.69
  -5  -1   1   64.44   14.28
  -5  -1   2  220.68   23.48
  -5  -1   2  177.44   19.93
  -5  -1   3   21.09   14.65
  -5  -1   3   24.70   12.33
  -5  -1   4  195.10   27.88
  -5  -1   4   97.96   18.51
  -5  -1   5  102.07   19.82
  -5  -1   5  147.34   27.65
  -5  -1   6   49.22   17.91
  -5   0  -4 1260.79   30.10
  -5   0  -3 2080.23   41.32
  -5   0  -2  775.78   28.33
  -5   0  -1  581.19   29.54
  -5   0  -1  581.20   26.43
  -5   0   0  437.67   27.44
  -5   0   0  346.59   10.31
  -5   0   1  472.38   28.43
  -5   0   1  685.28   33.99
  -5   0   2    7.66   11.91
  -5   0   3  153.78   21.50
  -5   0   4   32.85   15.73
  -5   0   5  122.53   23.29
  -5   0   6   29.65   19.77
  -5   1 -10   19.35   24.30
  -5   1  -6  242.95   23.90
  -5   1  -5  168.85   17.81
  -5   1  -4  143.55    8.95
  -5   1  -4  124.09   13.70
  -5   1  -3  199.14   12.06
  -5   1  -2  312.96   16.87
  -5   1  -1  170.24   14.16
  -5   1  -1  171.63   16.63
  -5   1   0  249.56   20.60
  -5   1   0  228.30   10.93
  -5   1   1  520.15   29.08
  -5   1   2  449.50   35.01
  -5   1   2  531.20   31.98
  -5   1   3  242.25   23.89
  -5   1   3  238.91   27.27
  -5   1   4  230.86   27.41
  -5   1   4  365.75   31.79
  -5   1   5  109.09   24.17
  -5   1   5  180.57   27.03
  -5   1   6   82.55   23.78
  -5   2  -9   64.33   24.92
  -5   2  -8  189.28   29.25
  -5   2  -7  256.10   28.93
  -5   2  -6   70.18   17.78
  -5   2  -5  469.15   28.66
  -5   2  -3  495.16   13.57
  -5   2  -2  190.74   12.09
  -5   2  -1  831.20   27.39
  -5   2  -1  726.85   29.47
  -5   2   0  617.34   22.50
  -5   2   0  646.80   30.59
  -5   2   1  241.43   27.26
  -5   2   1  275.03   21.59
  -5   2   2  193.10   26.13
  -5   2   2  213.41   23.28
  -5   2   3   45.26   19.41
  -5   2   3   47.92   16.42
  -5   2   4  287.21   28.07
  -5   2   5   40.24   19.00
  -5   2   6   80.76   23.66
  -5   3  -9   13.86   23.31
  -5   3  -8   25.76   20.22
  -5   3  -7   73.61   20.66
  -5   3  -2  441.99   13.47
  -5   3  -1  847.79   25.27
  -5   3  -1  758.23   32.50
  -5   3   0  232.49   19.82
  -5   3   0  264.26   29.02
  -5   3   0  280.00   18.72
  -5   3   1  614.68   42.07
  -5   3   1  710.56   33.30
  -5   3   2  160.66   25.52
  -5   3   2  174.73   19.06
  -5   3   3  388.35   28.97
  -5   3   4  101.81   18.97
  -5   3   5  117.68   22.13
  -5   3   6   16.21   18.86
  -5   4  -1  223.87   11.47
  -5   4  -1  254.79   19.55
  -5   4   0  527.70   23.04
  -5   4   0  473.43   39.05
  -5   4   1  131.94   15.74
  -5   4   1  160.15   25.93
  -5   4   2  403.14   26.12
  -5   4   3  562.31   33.11
  -5   4   4  405.95   30.32
  -5   4   5  121.50   22.81
  -5   4   6  119.74   24.55
  -5   4   7  212.15   31.39
  -5   5  -1  549.76   26.98
  -5   5   0  341.65   17.66
  -5   5   0  342.24   34.80
  -5   5   1  391.70   38.57
  -5   5   1  348.82   21.92
  -5   5   2  269.33   22.71
  -5   5   3  290.94   25.61
  -5   5   4  329.38   28.30
  -5   5   5   92.89   19.10
  -5   5   6   47.55   20.81
  -5   5   7  109.30   26.78
  -5   6  -1  231.95   17.38
  -5   6   0  286.43   33.07
  -5   6   2  251.24   20.78
  -5   6   3  123.05   18.80
  -5   6   4   26.03   16.47
  -5   6   5   38.08   18.41
  -5   6   6   39.20   20.26
  -5   6   7   13.80   19.83
  -5   7   0  121.03   25.48
  -5   7   3  180.81   22.50
  -5   7   4  194.19   25.72
  -5   7   5   40.67   19.37
  -5   7   6   82.87   24.33
  -5   8   0   17.65   21.43
  -5   8   1  154.72   31.16
  -5   8   6   60.12   26.25
  -5   9   0   79.30   27.93
  -5   9   1   54.77   27.02
  -4 -10  -7    3.14   16.21
  -4 -10  -6   18.17   16.77
  -4 -10  -5   33.03   18.25
  -4 -10  -4   -3.52   15.13
  -4 -10  -3   40.08   20.82
  -4  -9  -7   13.36   11.84
  -4  -9  -7    5.80   14.07
  -4  -9  -6   -0.06   11.43
  -4  -9  -6   -0.04   14.17
  -4  -9  -5   34.81   17.33
  -4  -9  -5   21.10   11.44
  -4  -9  -4   54.75   13.34
  -4  -9  -4   83.91   19.33
  -4  -9  -3   10.70   10.97
  -4  -9  -3   -2.71   15.47
  -4  -9  -2   48.16   17.96
  -4  -9  -2   60.43   13.97
  -4  -9  -1   81.57   20.97
  -4  -9   0   31.90   19.25
  -4  -8  -7   37.81   11.45
  -4  -8  -7   53.53   16.41
  -4  -8  -6   63.71   16.08
  -4  -8  -6   44.78   11.50
  -4  -8  -5   -2.28    9.02
  -4  -8  -5    6.67   12.59
  -4  -8  -4   26.75   10.82
  -4  -8  -4   38.69   16.00
  -4  -8  -3   76.44   17.40
  -4  -8  -3   81.04   13.27
  -4  -8  -2    9.21   14.26
  -4  -8  -2   16.47    9.57
  -4  -8  -1   -4.60   15.27
  -4  -8  -1   16.90    9.68
  -4  -8   0  123.52   22.67
  -4  -8   0   63.94   15.50
  -4  -8   1   44.67   19.68
  -4  -7  -7   -3.49   12.45
  -4  -7  -6  135.26   13.87
  -4  -7  -6  141.03   20.28
  -4  -7  -5   99.51   12.48
  -4  -7  -5  100.96   16.91
  -4  -7  -4   43.32    9.98
  -4  -7  -4   33.59   13.80
  -4  -7  -3   36.61   13.85
  -4  -7  -3   30.42    8.95
  -4  -7  -2   95.93   12.10
  -4  -7  -2   92.78   17.91
  -4  -7  -1   56.37   16.17
  -4  -7  -1   20.31    9.16
  -4  -7   0   56.44   14.04
  -4  -7   0   61.41   18.54
  -4  -7   1   50.81   15.28
  -4  -7   1   35.52   16.36
  -4  -7   2   35.15   17.18
  -4  -7   2   -1.48   14.95
  -4  -6  -7  190.16   21.06
  -4  -6  -6   11.31   10.34
  -4  -6  -5  154.62   12.23
  -4  -6  -5  159.62   18.08
  -4  -6  -4  619.69   33.38
  -4  -6  -4  498.59   19.06
  -4  -6  -3  131.64   11.55
  -4  -6  -3  134.41   17.39
  -4  -6  -2  241.10   14.58
  -4  -6  -2  305.89   24.47
  -4  -6  -1  233.11   24.59
  -4  -6  -1  196.01   14.64
  -4  -6   0  201.20   21.60
  -4  -6   0  179.59   17.54
  -4  -6   1   38.77   16.44
  -4  -6   1    8.95   11.18
  -4  -6   2   98.96   21.23
  -4  -6   2   55.15   15.59
  -4  -6   3   26.18   16.41
  -4  -6   3    0.69   15.90
  -4  -6   4   81.99   22.32
  -4  -5  -7  250.00   21.57
  -4  -5  -6  329.20   23.57
  -4  -5  -5  245.28   19.86
  -4  -5  -4   59.25    7.79
  -4  -5  -4   74.25   13.31
  -4  -5  -3  295.78   13.65
  -4  -5  -3  326.60   23.25
  -4  -5  -2   13.74    5.79
  -4  -5  -2   13.73   10.56
  -4  -5  -1   19.92   10.70
  -4  -5  -1   17.21    6.89
  -4  -5   0  300.58   25.00
  -4  -5   0  242.59   16.15
  -4  -5   1   84.14   14.34
  -4  -5   1   59.53   15.37
  -4  -5   2   42.53   15.66
  -4  -5   2   33.17   11.67
  -4  -5   3   11.38   13.75
  -4  -5   3   33.89   16.10
  -4  -5   4   65.45   20.44
  -4  -5   4   25.93   18.48
  -4  -5   5   22.41   20.06
  -4  -4  -6  168.45   15.76
  -4  -4  -5  153.15   15.95
  -4  -4  -4  191.65   16.88
  -4  -4  -3   15.45    9.07
  -4  -4  -3   26.13    4.54
  -4  -4  -2  978.09   41.12
  -4  -4  -2  730.57   16.65
  -4  -4  -1  364.92   14.61
  -4  -4  -1  311.69   19.75
  -4  -4   0  271.10   16.18
  -4  -4   0  257.79   21.76
  -4  -4   1  191.83   15.81
  -4  -4   1  235.15   21.60
  -4  -4   2  118.69   18.63
  -4  -4   3  116.54   19.52
  -4  -4   4    3.95   10.86
  -4  -4   4   47.89   16.96
  -4  -4   5   -2.69   16.48
  -4  -3  -6   37.22   10.22
  -4  -3  -5  142.86   14.73
  -4  -3  -4  776.71   29.98
  -4  -3  -3  540.19   24.61
  -4  -3  -2  265.67   18.45
  -4  -3  -2  193.19    5.55
  -4  -3  -1  360.34   11.18
  -4  -3  -1  384.53   23.02
  -4  -3   0  795.49   23.58
  -4  -3   0  790.12   34.40
  -4  -3   1   88.33   13.34
  -4  -3   1  110.84   15.35
  -4  -3   2  316.69   22.18
  -4  -3   2  408.48   29.27
  -4  -3   3   82.76   14.49
  -4  -3   3  156.86   22.79
  -4  -3   4   91.22   16.97
  -4  -3   4  193.11   25.83
  -4  -3   5   81.66   22.40
  -4  -3   5   47.37   15.06
  -4  -3   6   17.17   20.74
  -4  -3   6   -2.09   14.36
  -4  -2  -5  572.20   23.49
  -4  -2  -4  187.00   14.77
  -4  -2  -3  457.34   21.16
  -4  -2  -2  277.25   17.47
  -4  -2  -1  403.87   21.94
  -4  -2   0   72.78   11.81
  -4  -2   0   44.24    9.96
  -4  -2   1  221.89   21.36
  -4  -2   1  145.91   15.61
  -4  -2   2  138.78   15.91
  -4  -2   2  174.11   20.20
  -4  -2   3  156.68   17.82
  -4  -2   3  198.37   22.00
  -4  -2   4   32.20   12.17
  -4  -2   4   26.10   15.42
  -4  -2   5  102.31   21.12
  -4  -2   5   40.34   13.70
  -4  -2   6  121.69   19.65
  -4  -2   6  176.69   28.85
  -4  -2   7   18.07   15.11
  -4  -1  -5  104.64   10.23
  -4  -1  -4  649.14   21.51
  -4  -1  -3  329.10   16.74
  -4  -1  -2  991.08   29.92
  -4  -1  -1 1185.45   35.06
  -4  -1   0 1083.70   36.81
  -4  -1   0 1111.48   17.37
  -4  -1   1  598.45   17.78
  -4  -1   1  537.34   26.90
  -4  -1   1  596.98   29.63
  -4  -1   2  622.81   33.20
  -4  -1   3  798.27   38.99
  -4  -1   4  516.72   34.08
  -4  -1   5   95.89   19.95
  -4  -1   6   64.40   18.53
  -4  -1   7  119.63   27.35
  -4   0  -4  634.58   18.83
  -4   0  -3 1104.44   25.17
  -4   0  -2  587.94   21.74
  -4   0  -1  560.51   25.07
  -4   0  -1  619.67   22.92
  -4   0   0  756.93   28.90
  -4   0   0  705.34   28.90
  -4   0   0  690.18   13.31
  -4   0   1  955.51   35.50
  -4   0   1  883.09   21.09
  -4   0   2  573.31   29.89
  -4   0   2  525.91   19.99
  -4   0   3  139.80   19.01
  -4   0   3  201.30   21.28
  -4   0   4  143.45   20.39
  -4   0   4  186.83   23.84
  -4   0   5   76.17   17.43
  -4   0   5   88.77   19.98
  -4   0   6   39.10   21.51
  -4   0   7   50.10   21.83
  -4   1  -3 1275.21   23.13
  -4   1  -3 1301.51   34.00
  -4   1  -2 1392.10   28.09
  -4   1  -1 1139.47   34.79
  -4   1  -1 1130.61   29.10
  -4   1   0 1121.92   22.18
  -4   1   0 1161.12   33.85
  -4   1   1  233.51   17.68
  -4   1   1  181.95   10.24
  -4   1   1  189.86   21.26
  -4   1   2  291.18   15.86
  -4   1   2  298.59   22.12
  -4   1   2  273.34   25.41
  -4   1   3  484.84   29.60
  -4   1   4   81.66   16.73
  -4   1   5  154.13   22.63
  -4   1   6  348.18   33.08
  -4   1   7  183.74   28.42
  -4   2  -9   80.94   24.49
  -4   2  -8   37.15   18.75
  -4   2  -7   87.98   18.66
  -4   2  -6  127.14   19.66
  -4   2  -5  354.46   26.20
  -4   2  -4  240.59   19.88
  -4   2  -2 1088.67   19.56
  -4   2  -1  273.26   14.25
  -4   2  -1  253.72   17.77
  -4   2   0 1088.20   47.64
  -4   2   0  965.73   28.83
  -4   2   0 1048.81   25.98
  -4   2   1  559.33   17.53
  -4   2   1  749.26   29.11
  -4   2   2  802.27   33.41
  -4   2   3  439.57   27.56
  -4   2   4  912.21   41.28
  -4   2   5  169.65   22.33
  -4   2   6   77.81   18.71
  -4   2   7  117.09   24.10
  -4   3  -9   67.02   25.81
  -4   3  -8  228.09   32.38
  -4   3  -7  498.54   39.29
  -4   3  -6  384.95   32.34
  -4   3  -5  469.91   30.56
  -4   3  -1  755.26   40.73
  -4   3  -1  726.75   26.59
  -4   3  -1  752.28   19.26
  -4   3   0   71.79   16.23
  -4   3   0   86.88    9.95
  -4   3   1 1030.47   32.09
  -4   3   2  570.65   27.70
  -4   3   3  330.44   23.26
  -4   3   4   36.73   12.35
  -4   3   5  191.55   22.74
  -4   3   6  136.53   22.23
  -4   3   7  -10.16   16.45
  -4   3   8   29.73   21.12
  -4   4  -8  105.33   25.87
  -4   4  -1  261.94   16.60
  -4   4  -1  267.84   27.07
  -4   4  -1  197.73    8.50
  -4   4  -1  195.37    8.96
  -4   4   0  856.44   25.03
  -4   4   1  490.72   22.87
  -4   4   2  210.66   18.64
  -4   4   3  515.42   30.76
  -4   4   4  525.84   33.87
  -4   4   5  240.81   25.62
  -4   4   6  220.01   27.64
  -4   4   7  269.83   31.42
  -4   4   8   27.90   19.80
  -4   5  -1  273.65   16.40
  -4   5  -1  314.83   29.38
  -4   5   0  454.51   17.26
  -4   5   1  864.60   30.40
  -4   5   2  704.99   30.41
  -4   5   3  177.43   18.72
  -4   5   4  658.92   35.67
  -4   5   5  430.37   32.11
  -4   5   6   88.36   22.19
  -4   5   7   63.79   22.16
  -4   5   8   58.87   22.40
  -4   6  -1  393.57   34.37
  -4   6  -1  356.17   18.02
  -4   6   0  183.59   12.51
  -4   6   1  238.24   16.21
  -4   6   2  381.02   23.23
  -4   6   3  158.38   18.22
  -4   6   4  146.97   19.80
  -4   6   5  299.45   27.26
  -4   6   6  204.75   25.48
  -4   6   7   35.27   19.33
  -4   6   8   83.65   27.36
  -4   7  -1  176.65   25.76
  -4   7   2  145.30   16.83
  -4   7   3  250.97   22.64
  -4   7   4  222.20   23.48
  -4   7   5   95.21   20.20
  -4   7   6   56.90   19.73
  -4   7   7   51.28   21.39
  -4   8  -1  224.31   29.56
  -4   8   0  171.41   28.82
  -4   8   3  110.41   18.88
  -4   8   4  130.23   21.64
  -4   8   5  133.67   22.85
  -4   8   6   13.74   17.21
  -4   8   7   52.07   22.41
  -4   9   0   95.08   25.62
  -4   9   5   57.24   19.99
  -4   9   6   25.01   20.21
  -4   9   7   17.27   21.44
  -3 -11  -9    3.35   14.76
  -3 -11  -8   25.32   15.92
  -3 -11  -7  -16.28   14.78
  -3 -11  -6   18.73   13.98
  -3 -11  -6   32.90   17.69
  -3 -11  -5    2.55   16.91
  -3 -11  -5   18.88   14.84
  -3 -11  -4   14.66   18.90
  -3 -11  -4   14.06   14.17
  -3 -11  -3    7.73   14.15
  -3 -11  -3    2.38   18.20
  -3 -11  -2   -8.01   15.59
  -3 -10  -8   17.95   12.93
  -3 -10  -7   26.39   14.92
  -3 -10  -6   20.78   13.22
  -3 -10  -6   -0.79   15.04
  -3 -10  -5    5.69   14.91
  -3 -10  -5    7.54   11.98
  -3 -10  -4   14.84   12.49
  -3 -10  -4   22.22   17.26
  -3 -10  -3   31.77   16.26
  -3 -10  -3   32.16   12.99
  -3 -10  -2   11.29   12.72
  -3 -10  -2    9.92   15.53
  -3 -10  -1   16.19   13.70
  -3 -10  -1    0.46   16.27
  -3 -10   0   36.05   17.27
  -3 -10   0   11.26   15.67
  -3  -9  -8   83.87   15.04
  -3  -9  -7    9.20   11.72
  -3  -9  -7   15.41   13.70
  -3  -9  -6    2.39   11.02
  -3  -9  -6   14.74   14.10
  -3  -9  -5   43.60   16.04
  -3  -9  -5   17.21   11.74
  -3  -9  -4   25.52   11.46
  -3  -9  -4   47.04   16.57
  -3  -9  -3   -5.19   13.55
  -3  -9  -3   -2.19   10.11
  -3  -9  -2   28.72   13.09
  -3  -9  -2    3.91   14.32
  -3  -9  -1   12.78   14.54
  -3  -9  -1    4.35   10.18
  -3  -9   0    7.31   12.83
  -3  -9   0   21.30   16.61
  -3  -9   1    4.20   16.87
  -3  -9   1   22.48   17.21
  -3  -9   2   17.68   19.19
  -3  -8  -7   84.55   13.62
  -3  -8  -6   63.86   12.48
  -3  -8  -6   66.18   15.60
  -3  -8  -5   11.84   12.35
  -3  -8  -5   24.57   10.77
  -3  -8  -4  181.18   21.00
  -3  -8  -4  189.51   16.71
  -3  -8  -3  128.51   19.52
  -3  -8  -3   86.69   12.77
  -3  -8  -2   79.65   16.77
  -3  -8  -2  100.91   14.21
  -3  -8  -1   37.06   11.41
  -3  -8  -1   58.18   15.01
  -3  -8   0   71.33   16.76
  -3  -8   0   61.41   14.64
  -3  -8   1  104.22   21.67
  -3  -8   1   61.46   16.86
  -3  -8   2   47.39   20.10
  -3  -8   2   18.59   14.28
  -3  -8   3   -6.64   18.47
  -3  -8   3  -15.48   22.38
  -3  -7  -7   13.69    8.65
  -3  -7  -6   -1.61    8.71
  -3  -7  -6  -11.64   10.45
  -3  -7  -5   24.40    8.80
  -3  -7  -5   28.07   12.94
  -3  -7  -4    1.45    9.71
  -3  -7  -4    4.40    8.10
  -3  -7  -3   78.40   14.93
  -3  -7  -3   67.82   10.64
  -3  -7  -2   58.39   10.31
  -3  -7  -2   62.22   14.20
  -3  -7  -1   51.98   11.14
  -3  -7  -1   61.59   14.21
  -3  -7   0   62.97   16.08
  -3  -7   0   51.60   12.79
  -3  -7   1   66.76   15.86
  -3  -7   1   18.79   12.04
  -3  -7   2  120.08   19.43
  -3  -7   2   61.56   16.98
  -3  -7   3  186.55   26.85
  -3  -7   3  129.37   23.86
  -3  -7   4   30.77   20.35
  -3  -7   4   26.17   22.62
  -3  -6  -6  144.42   13.49
  -3  -6  -6  136.61   16.60
  -3  -6  -5  362.70   18.86
  -3  -6  -5  347.72   24.40
  -3  -6  -4  930.04   28.09
  -3  -6  -4  953.78   37.83
  -3  -6  -3  117.84   15.20
  -3  -6  -3  119.06   11.13
  -3  -6  -2  131.39   12.04
  -3  -6  -2  130.88   16.78
  -3  -6  -1   76.80   10.98
  -3  -6  -1  112.21   16.33
  -3  -6   0  126.44   16.88
  -3  -6   0  109.56   14.30
  -3  -6   1  105.41   17.75
  -3  -6   1   74.07   13.46
  -3  -6   2   58.13   15.78
  -3  -6   2   41.24   14.63
  -3  -6   3   53.66   17.13
  -3  -6   3   27.62   14.77
  -3  -6   4   37.15   17.73
  -3  -6   4   44.85   18.75
  -3  -6   5  -17.37   18.81
  -3  -6   5   -8.74   17.19
  -3  -5  -6  174.37   17.36
  -3  -5  -5  450.43   18.80
  -3  -5  -5  464.31   25.84
  -3  -5  -4  544.24   19.17
  -3  -5  -4  620.28   28.84
  -3  -5  -3  981.57   24.17
  -3  -5  -3 1090.26   36.44
  -3  -5  -2  840.59   23.16
  -3  -5  -2  924.15   35.18
  -3  -5  -1  811.56   25.64
  -3  -5  -1  889.28   35.67
  -3  -5   0  465.13   22.33
  -3  -5   0  623.85   31.96
  -3  -5   1  171.67   17.67
  -3  -5   1  173.43   18.08
  -3  -5   2  180.27   19.81
  -3  -5   2  164.28   18.03
  -3  -5   3   50.33   14.77
  -3  -5   3   39.62   15.39
  -3  -5   4    5.87   14.52
  -3  -5   5   50.62   18.35
  -3  -4  -5   24.81    8.67
  -3  -4  -4  113.76    8.68
  -3  -4  -4  121.24   13.06
  -3  -4  -3  306.93   12.66
  -3  -4  -3  329.69   19.29
  -3  -4  -2  103.97   13.25
  -3  -4  -2  111.39    7.90
  -3  -4  -1  186.46   12.00
  -3  -4  -1  162.63   15.65
  -3  -4   0  181.63   13.88
  -3  -4   0  192.75   16.81
  -3  -4   1  164.88   14.07
  -3  -4   1  237.53   19.90
  -3  -4   2  228.87   20.69
  -3  -4   3  523.98   30.86
  -3  -4   3  487.82   26.40
  -3  -4   4  132.45   16.25
  -3  -4   4  193.86   22.93
  -3  -4   5   34.02   12.08
  -3  -4   5   50.13   19.42
  -3  -4   6   81.97   22.52
  -3  -3  -5 1406.99   36.22
  -3  -3  -4 1567.81   37.18
  -3  -3  -3  552.69   13.34
  -3  -3  -3  602.89   23.42
  -3  -3  -2 1119.57   17.58
  -3  -3  -2 1192.06   35.82
  -3  -3  -1  442.56   22.62
  -3  -3  -1  433.44   13.75
  -3  -3   0  739.01   29.74
  -3  -3   0  636.26   20.04
  -3  -3   1  397.83   23.04
  -3  -3   1  372.80   20.59
  -3  -3   2  248.56   22.22
  -3  -3   2  166.57   15.33
  -3  -3   3    8.07    7.35
  -3  -3   3   22.20   11.70
  -3  -3   4  123.51   15.15
  -3  -3   4  214.50   23.03
  -3  -3   5   34.01   11.61
  -3  -3   5   59.91   17.43
  -3  -3   6   12.53   10.98
  -3  -3   6    7.91   16.79
  -3  -3   7   26.67   20.46
  -3  -2  -4 1187.90   31.50
  -3  -2  -3 1218.83   29.49
  -3  -2  -2 2333.31   47.85
  -3  -2  -1 1758.48   39.80
  -3  -2  -1 1675.96   18.01
  -3  -2   0  615.16   24.63
  -3  -2   0  580.66   23.79
  -3  -2   1  380.38   22.38
  -3  -2   1  291.46   18.39
  -3  -2   2  422.21   22.00
  -3  -2   2  588.24   29.51
  -3  -2   3  801.65   36.76
  -3  -2   4   53.55   14.79
  -3  -2   5  105.00   18.51
  -3  -2   6  204.45   25.38
  -3  -2   7   56.72   21.38
  -3  -1  -4  171.57   11.04
  -3  -1  -3  413.76   16.29
  -3  -1  -2 2344.20   38.94
  -3  -1  -1  330.55   16.31
  -3  -1   0  767.94   28.27
  -3  -1   0  645.62   24.75
  -3  -1   1 1642.93   42.96
  -3  -1   2  321.25   21.39
  -3  -1   3  749.39   33.07
  -3  -1   3  885.58   37.51
  -3  -1   4  993.80   37.36
  -3  -1   4 1249.70   49.78
  -3  -1   5  170.99   23.42
  -3  -1   5   97.52   14.62
  -3  -1   6  185.50   26.14
  -3  -1   7  269.94   30.62
  -3  -1   8   79.78   22.92
  -3   0  -3  796.01   18.41
  -3   0  -2 3918.50   43.54
  -3   0  -1 1318.02   31.52
  -3   0  -1 1356.22   27.93
  -3   0   0  953.86   28.62
  -3   0   0  929.16   14.18
  -3   0   0  997.52   29.09
  -3   0   1 1344.24   23.54
  -3   0   1 1296.64   35.86
  -3   0   2  851.71   22.78
  -3   0   2  851.54   32.44
  -3   0   3  140.83   16.29
  -3   0   4  529.48   31.12
  -3   0   5  770.34   39.65
  -3   0   6   89.03   19.52
  -3   0   7   63.61   19.61
  -3   0   8  166.60   28.86
  -3   1  -2  873.48   17.61
  -3   1  -2  818.08   23.43
  -3   1  -1 2166.97   33.68
  -3   1  -1 2023.58   38.86
  -3   1   0 1225.76   41.06
  -3   1   0 1169.83   19.79
  -3   1   0 1254.07   29.41
  -3   1   1  533.41   15.32
  -3   1   1  542.83   22.61
  -3   1   2 1295.51   27.05
  -3   1   2 1483.39   39.80
  -3   1   3 1408.91   43.75
  -3   1   4  538.51   29.98
  -3   1   5  151.64   20.37
  -3   1   6  231.70   24.89
  -3   1   7   21.05   15.18
  -3   1   8  -16.36   16.58
  -3   2  -9   39.43   22.35
  -3   2  -4  342.57   23.02
  -3   2  -3  563.83   25.83
  -3   2  -1 1131.26   41.19
  -3   2  -1 1209.50   21.13
  -3   2  -1 1169.22   28.13
  -3   2   0 2936.03   41.34
  -3   2   0 2948.52   39.59
  -3   2   1 2464.60   36.00
  -3   2   1 2449.53   43.99
  -3   2   2 1389.38   29.99
  -3   2   2 1584.03   41.44
  -3   2   3 1196.59   40.93
  -3   2   4 1434.31   48.65
  -3   2   5  455.57   30.68
  -3   2   6  327.21   28.48
  -3   2   7  221.80   26.80
  -3   2   8  288.98   32.69
  -3   2   9   -0.62   18.82
  -3   3  -9   19.41   22.61
  -3   3  -8  107.78   25.33
  -3   3  -7  510.97   39.54
  -3   3  -6  102.47   20.15
  -3   3  -5  556.58   34.64
  -3   3  -4 1068.23   42.05
  -3   3  -1 2182.08   22.47
  -3   3  -1 2127.85   24.78
  -3   3   0  410.36   18.93
  -3   3   0  425.44   15.66
  -3   3   1  382.10   17.49
  -3   3   1  402.28   18.21
  -3   3   2  256.19   17.03
  -3   3   3  256.59   19.30
  -3   3   4  497.68   28.06
  -3   3   5  372.14   27.68
  -3   3   6  153.05   22.21
  -3   3   7   30.51   17.00
  -3   3   8   36.78   18.34
  -3   3   9   71.27   22.44
  -3   4  -8   39.09   21.33
  -3   4  -7  126.14   24.67
  -3   4  -6  553.64   39.07
  -3   4  -1  346.12    8.88
  -3   4  -1  339.41    8.74
  -3   4   0  839.65   21.26
  -3   4   0  765.40   18.69
  -3   4   1  295.31   16.48
  -3   4   2  778.91   29.32
  -3   4   3 1295.59   41.33
  -3   4   4  634.62   32.14
  -3   4   5  177.69   20.87
  -3   4   6  213.53   22.83
  -3   4   7  130.95   22.24
  -3   4   8   36.55   21.37
  -3   4   9   18.29   21.53
  -3   5  -1  208.96    7.75
  -3   5  -1  229.26    8.04
  -3   5   0  660.54   19.31
  -3   5   0  656.86   19.59
  -3   5   1  473.18   19.26
  -3   5   1  506.34   21.45
  -3   5   2  468.51   22.76
  -3   5   3  565.70   27.65
  -3   5   4  572.54   31.54
  -3   5   5  244.55   23.88
  -3   5   6  298.23   27.96
  -3   5   7  229.70   27.06
  -3   5   8  142.28   25.29
  -3   5   9   73.97   24.41
  -3   6  -1  442.87   15.61
  -3   6  -1  380.28   12.14
  -3   6   0  238.36   13.51
  -3   6   2  414.53   23.32
  -3   6   3  177.02   17.87
  -3   6   4  149.08   17.87
  -3   6   5  103.28   17.38
  -3   6   6   79.11   19.65
  -3   6   7   53.45   19.71
  -3   6   8   26.95   16.87
  -3   6   9   27.54   20.17
  -3   7  -1  107.35   19.61
  -3   7   4  292.06   24.86
  -3   7   5  214.30   24.17
  -3   7   6  321.34   28.98
  -3   7   7  128.17   24.78
  -3   7   8  156.68   27.87
  -3   8  -1  105.09   20.57
  -3   8   5  183.80   23.84
  -3   8   6   37.15   17.06
  -3   8   7  129.34   25.43
  -3   8   8   20.42   21.44
  -3   9   5   66.85   18.52
  -3   9   6   59.87   20.36
  -3   9   7   18.25   19.30
  -3   9   8   19.75   21.21
  -3  10   6   68.26   23.36
  -3  10   7   20.24   21.08
  -2 -12  -6   21.45   17.13
  -2 -12  -5   15.72   16.37
  -2 -11  -9   -4.92   14.79
  -2 -11  -8    1.92   14.43
  -2 -11  -7   18.38   15.18
  -2 -11  -6   -2.76   13.17
  -2 -11  -5    5.76   14.65
  -2 -11  -5   21.58   16.82
  -2 -11  -4   32.94   15.54
  -2 -11  -4   32.22   17.13
  -2 -11  -3    8.23   16.60
  -2 -11  -3    7.14   13.93
  -2 -11  -2    9.54   17.06
  -2 -11  -2    3.59   13.75
  -2 -11  -1   45.78   18.67
  -2 -11  -1   33.06   16.98
  -2 -10  -9   67.84   17.24
  -2 -10  -8    1.82   12.01
  -2 -10  -7   21.46   12.74
  -2 -10  -6    6.97   10.59
  -2 -10  -5    0.72   12.23
  -2 -10  -5   28.57   14.38
  -2 -10  -4   31.64   12.76
  -2 -10  -4   28.87   14.78
  -2 -10  -3   13.64   12.20
  -2 -10  -3   24.60   16.11
  -2 -10  -2   -4.45   13.54
  -2 -10  -2   -3.49   11.72
  -2 -10  -1   33.35   13.23
  -2 -10  -1   16.06   15.64
  -2 -10   0   21.96   15.86
  -2 -10   0    2.52   15.93
  -2 -10   1    6.04   16.95
  -2 -10   1   -1.43   15.59
  -2  -9  -8   21.40   11.71
  -2  -9  -7   44.90   13.28
  -2  -9  -6   79.71   17.20
  -2  -9  -6   80.76   15.14
  -2  -9  -5  196.99   18.76
  -2  -9  -5  183.95   21.72
  -2  -9  -4   60.94   15.57
  -2  -9  -4   51.64   12.94
  -2  -9  -3   61.27   16.36
  -2  -9  -3   50.95   12.92
  -2  -9  -2   22.59   11.20
  -2  -9  -2   26.29   14.72
  -2  -9  -1   48.14   13.50
  -2  -9  -1   45.45   15.19
  -2  -9   0   50.45   15.51
  -2  -9   0   48.11   14.80
  -2  -9   1   10.35   14.70
  -2  -9   1  -13.19   15.38
  -2  -9   2   17.82   17.72
  -2  -9   2   11.45   16.13
  -2  -8  -8  118.12   16.11
  -2  -8  -7  114.47   15.30
  -2  -8  -6  143.28   20.00
  -2  -8  -6  124.03   15.19
  -2  -8  -5   10.56    9.98
  -2  -8  -5   11.97   11.07
  -2  -8  -4   63.10   11.81
  -2  -8  -4   76.69   15.77
  -2  -8  -3   51.40   11.54
  -2  -8  -3   38.58   12.55
  -2  -8  -2  111.50   17.78
  -2  -8  -2   93.31   13.71
  -2  -8  -1   48.09   11.38
  -2  -8  -1   59.68   13.53
  -2  -8   0   25.79   12.82
  -2  -8   0   24.31   12.80
  -2  -8   1   52.06   15.17
  -2  -8   1   33.21   14.55
  -2  -8   2   35.09   17.41
  -2  -8   2   23.46   14.08
  -2  -8   3    6.90   16.48
  -2  -8   3   32.94   18.68
  -2  -8   4   34.19   22.86
  -2  -7  -7  223.96   18.23
  -2  -7  -6  100.05   13.92
  -2  -7  -5   84.87   14.84
  -2  -7  -5  103.83   12.54
  -2  -7  -4   67.94   11.62
  -2  -7  -4   91.46   14.91
  -2  -7  -3  253.17   17.32
  -2  -7  -3  235.07   20.66
  -2  -7  -2   89.98   11.87
  -2  -7  -2  106.85   15.85
  -2  -7  -1   79.30   13.69
  -2  -7  -1   60.22   11.56
  -2  -7   0  137.86   17.20
  -2  -7   0  137.51   17.48
  -2  -7   1   11.79   13.26
  -2  -7   1    6.04   11.41
  -2  -7   2   95.27   19.01
  -2  -7   2  117.73   17.82
  -2  -7   3  176.84   22.86
  -2  -7   3  145.37   24.19
  -2  -7   4   28.68   16.60
  -2  -7   4   13.23   18.61
  -2  -7   5   -9.24   18.17
  -2  -6  -6  156.30   14.34
  -2  -6  -5  108.60   12.01
  -2  -6  -5  127.61   15.21
  -2  -6  -4   55.63   10.09
  -2  -6  -4   33.18   10.90
  -2  -6  -3  306.36   17.14
  -2  -6  -3  309.64   21.21
  -2  -6  -3  329.33   22.40
  -2  -6  -2  549.12   21.36
  -2  -6  -2  612.38   28.28
  -2  -6  -2  552.59   24.98
  -2  -6  -1  338.32   22.15
  -2  -6  -1  258.03   17.13
  -2  -6   0  204.52   16.57
  -2  -6   0  268.80   22.05
  -2  -6   1  354.46   24.04
  -2  -6   1  439.21   26.90
  -2  -6   2   62.76   15.84
  -2  -6   2   99.93   16.26
  -2  -6   3   69.23   15.09
  -2  -6   3   59.20   16.33
  -2  -6   4  220.78   25.08
  -2  -6   4  153.86   23.09
  -2  -6   5   -5.02   17.36
  -2  -6   5   60.06   17.72
  -2  -6   6   25.85   18.82
  -2  -5  -5  508.61   21.03
  -2  -5  -5  491.15   24.96
  -2  -5  -4  536.09   19.81
  -2  -5  -4  549.58   26.50
  -2  -5  -3  448.77   17.92
  -2  -5  -3  417.08   23.89
  -2  -5  -3  459.72   24.06
  -2  -5  -2  535.05   19.02
  -2  -5  -2  553.25   24.84
  -2  -5  -1  243.90   15.29
  -2  -5  -1  287.15   20.24
  -2  -5   0    7.60    7.40
  -2  -5   0   19.65    8.81
  -2  -5   1  284.94   21.03
  -2  -5   1  338.64   21.82
  -2  -5   2  431.44   26.05
  -2  -5   2  314.44   22.14
  -2  -5   3  118.99   16.54
  -2  -5   4   73.90   16.17
  -2  -5   5  147.79   21.96
  -2  -5   6   18.24   15.53
  -2  -5   7  -11.79   17.98
  -2  -4  -5  176.17   15.40
  -2  -4  -4  713.29   22.01
  -2  -4  -4  681.53   27.12
  -2  -4  -3 1167.61   25.49
  -2  -4  -3 1193.77   34.29
  -2  -4  -3 1129.88   35.75
  -2  -4  -2  965.71   21.52
  -2  -4  -2 1027.70   31.95
  -2  -4  -2 1022.71   30.93
  -2  -4  -1 1529.54   43.18
  -2  -4  -1 1068.71   26.62
  -2  -4   0  910.37   28.31
  -2  -4   0 1033.88   33.78
  -2  -4   1  834.70   29.14
  -2  -4   1 1001.40   34.23
  -2  -4   2  520.41   26.40
  -2  -4   3  478.25   22.33
  -2  -4   3  575.70   29.45
  -2  -4   4  176.98   21.63
  -2  -4   4   91.42   11.91
  -2  -4   5   89.30   19.47
  -2  -4   5   50.34   10.11
  -2  -4   6  140.20   24.80
  -2  -4   7  117.02   26.36
  -2  -3  -4  614.91   23.10
  -2  -3  -3  952.99   33.29
  -2  -3  -3  938.62   20.21
  -2  -3  -3  959.01   27.97
  -2  -3  -2 2589.48   29.39
  -2  -3  -2 2513.21   44.32
  -2  -3  -2 2604.09   50.65
  -2  -3  -1 1534.40   26.15
  -2  -3  -1 1565.82   35.59
  -2  -3   0 1481.62   35.43
  -2  -3   0 1512.44   36.78
  -2  -3   1 1125.75   33.54
  -2  -3   1 1066.23   28.70
  -2  -3   2  807.68   26.52
  -2  -3   2 1019.53   36.90
  -2  -3   3  372.83   19.27
  -2  -3   3  431.06   26.03
  -2  -3   4  437.06   28.53
  -2  -3   5  244.70   24.48
  -2  -3   6   82.12   18.70
  -2  -3   7   63.49   21.14
  -2  -3   8   12.78   19.75
  -2  -2  -4 3905.84   51.72
  -2  -2  -3 2901.99   56.04
  -2  -2  -3 2867.41   41.22
  -2  -2  -2  474.35   10.18
  -2  -2  -2  527.46   23.69
  -2  -2  -2  517.12   18.14
  -2  -2  -1  791.76   13.55
  -2  -2  -1  835.84   24.06
  -2  -2   0  110.78    9.07
  -2  -2   0  101.57    9.01
  -2  -2   0  118.49   10.27
  -2  -2   1  369.19   16.57
  -2  -2   1  465.27   21.30
  -2  -2   2  771.86   29.59
  -2  -2   3  422.48   23.86
  -2  -2   4   67.99   13.81
  -2  -2   5  370.10   26.86
  -2  -2   6  156.47   21.29
  -2  -2   7    1.41   13.80
  -2  -2   8   16.18   17.63
  -2  -1  -3 3080.19   60.21
  -2  -1  -3 2862.08   37.33
  -2  -1  -2  176.30    9.30
  -2  -1  -2  192.24   15.68
  -2  -1  -1 1835.70   30.56
  -2  -1   0 2030.93   35.58
  -2  -1   0 2142.00   37.09
  -2  -1   1 2182.12   41.42
  -2  -1   2  467.68   20.31
  -2  -1   2  555.78   24.57
  -2  -1   3  706.45   29.52
  -2  -1   4  747.71   33.48
  -2  -1   5  174.45   19.73
  -2  -1   6  210.85   22.50
  -2  -1   7  210.27   25.50
  -2  -1   8   45.02   20.30
  -2  -1   9   59.35   23.63
  -2   0  -3  659.80   29.36
  -2   0  -2 3130.07   30.21
  -2   0  -1 1469.32   26.80
  -2   0  -1 1407.10   22.65
  -2   0   0 4755.26   26.18
  -2   0   0 4690.53   61.82
  -2   0   1 2961.05   30.34
  -2   0   1 2980.74   45.54
  -2   0   2 1011.83   30.09
  -2   0   3 1270.18   38.24
  -2   0   4  731.69   31.99
  -2   0   5  539.11   30.59
  -2   0   6  147.24   19.42
  -2   0   7   38.84   15.00
  -2   0   8   75.75   19.61
  -2   0   9   33.95   18.71
  -2   1  -3 1535.19   44.84
  -2   1  -1  378.10    9.83
  -2   1  -1  339.26   12.79
  -2   1   0 1456.55   18.91
  -2   1   0 1463.67   23.90
  -2   1   1  273.24   10.30
  -2   1   1  257.46   13.29
  -2   1   2  617.50   18.30
  -2   1   2  640.51   25.21
  -2   1   3  569.88   20.21
  -2   1   3  539.47   25.46
  -2   1   4  537.56   29.25
  -2   1   5  505.08   30.03
  -2   1   6  328.71   26.13
  -2   1   7  524.85   34.40
  -2   1   8  184.09   25.69
  -2   1   9  202.84   28.33
  -2   2  -3 1435.63   40.28
  -2   2  -2 1678.23   38.27
  -2   2  -1 4642.94   69.34
  -2   2  -1 4443.47   40.21
  -2   2   0 4204.56   42.53
  -2   2   0 4175.05   37.57
  -2   2   1 2023.81   28.73
  -2   2   1 2083.13   34.44
  -2   2   2 1671.92   37.15
  -2   2   2 1616.27   29.77
  -2   2   3 1647.52   41.45
  -2   2   4 1604.60   45.15
  -2   2   5  437.95   26.68
  -2   2   6  465.29   30.24
  -2   2   7   78.46   18.13
  -2   2   8  127.39   22.44
  -2   2   9   30.08   18.01
  -2   3  -9   55.82   25.35
  -2   3  -8   83.91   23.16
  -2   3  -7  167.74   25.34
  -2   3  -6  117.49   20.28
  -2   3  -5  410.72   30.13
  -2   3  -4  723.95   36.35
  -2   3  -3  630.91   30.35
  -2   3  -1 1161.05   13.97
  -2   3   0 1493.23   32.96
  -2   3   0 1315.15   21.56
  -2   3   1 7482.20   67.86
  -2   3   1 7426.97   67.85
  -2   3   2 1645.54   31.58
  -2   3   2 1852.30   39.12
  -2   3   3 2748.30   52.68
  -2   3   4 1717.38   46.94
  -2   3   5  877.76   37.30
  -2   3   6  209.78   21.67
  -2   3   7  340.84   28.40
  -2   3   8   64.58   19.09
  -2   3   9   17.80   18.10
  -2   3  10   76.13   23.56
  -2   4  -8   54.37   23.18
  -2   4  -7  128.43   25.80
  -2   4  -6  405.76   34.09
  -2   4  -5  361.06   29.55
  -2   4  -2  708.72   14.05
  -2   4  -1  595.31   13.32
  -2   4   0  821.86   18.95
  -2   4   1  335.25   14.47
  -2   4   4   91.13   13.72
  -2   4   5  980.43   38.77
  -2   4   6  135.28   19.48
  -2   4   7  478.50   33.92
  -2   4   8  175.78   25.08
  -2   4   9  197.68   27.57
  -2   4  10   17.24   20.30
  -2   5  -3  661.63   18.87
  -2   5  -2 1019.79   21.17
  -2   5  -1 1316.05   24.74
  -2   5   0 1713.55   31.77
  -2   5   1  937.77   25.14
  -2   5   5  161.91   19.20
  -2   5   6  512.68   32.76
  -2   5   7   78.45   17.84
  -2   5   8   65.85   20.08
  -2   5   9   29.84   18.96
  -2   5  10    8.02   17.79
  -2   6  -1  178.01   11.93
  -2   6   0  473.62   19.90
  -2   6   1  973.31   28.50
  -2   6   6   60.97   16.29
  -2   6   7  216.63   25.77
  -2   6   8   65.30   18.58
  -2   6   9   53.88   21.51
  -2   7   7   63.19   19.10
  -2   7   8   88.82   21.81
  -2   7   9   88.16   24.49
  -2   8  -1  128.19   18.53
  -2   8   8    3.03   17.81
  -2   8   9   39.75   20.31
  -2   9   8   34.20   20.77
  -1 -12  -3    6.35   17.54
  -1 -11  -8   19.76   14.96
  -1 -11  -7   17.38   15.00
  -1 -11  -6    7.31   13.07
  -1 -11  -5   44.84   16.53
  -1 -11  -4   22.97   16.64
  -1 -11  -4   16.49   14.99
  -1 -11  -3   44.56   15.77
  -1 -11  -3   26.79   16.02
  -1 -11  -2   74.44   17.62
  -1 -11  -2   35.19   16.99
  -1 -11  -1   11.44   15.10
  -1 -11  -1   19.93   16.94
  -1 -10  -9   18.94   14.84
  -1 -10  -8   59.78   16.04
  -1 -10  -7   36.80   14.70
  -1 -10  -6   35.08   12.97
  -1 -10  -5   26.59   13.34
  -1 -10  -4   35.31   15.21
  -1 -10  -4   35.87   13.55
  -1 -10  -3   66.32   15.02
  -1 -10  -3   30.79   14.71
  -1 -10  -2   28.64   13.64
  -1 -10  -2   36.54   15.54
  -1 -10  -1   27.08   14.13
  -1 -10  -1   21.25   12.41
  -1 -10   0    3.28   13.45
  -1 -10   0   13.69   14.53
  -1 -10   1   74.08   20.94
  -1  -9  -8  115.19   17.38
  -1  -9  -7   32.43   13.82
  -1  -9  -6   93.80   15.92
  -1  -9  -5   65.43   13.90
  -1  -9  -4   -7.95   10.42
  -1  -9  -4   -1.44   11.40
  -1  -9  -3   48.12   13.23
  -1  -9  -3   46.82   14.07
  -1  -9  -2   40.42   13.26
  -1  -9  -2   53.15   13.51
  -1  -9  -1   56.51   14.74
  -1  -9  -1   29.89   11.24
  -1  -9   0   56.83   16.18
  -1  -9   0   55.80   15.82
  -1  -9   1   50.55   16.67
  -1  -9   1   86.15   16.63
  -1  -9   2    3.46   15.82
  -1  -9   2   29.68   14.73
  -1  -8  -8  300.27   23.95
  -1  -8  -7   57.67   13.18
  -1  -8  -6  171.47   17.33
  -1  -8  -5  312.78   22.25
  -1  -8  -4  544.54   26.50
  -1  -8  -4  533.76   28.97
  -1  -8  -3  183.46   16.38
  -1  -8  -3  252.95   21.23
  -1  -8  -2  248.75   19.26
  -1  -8  -2  231.57   20.34
  -1  -8  -1   56.27   12.59
  -1  -8  -1   78.73   14.36
  -1  -8   0   51.62   13.13
  -1  -8   0   49.47   11.94
  -1  -8   1   63.82   15.53
  -1  -8   1   92.17   16.51
  -1  -8   2   21.73   15.04
  -1  -8   2   56.37   15.10
  -1  -8   3    2.56   12.99
  -1  -8   3    5.99   15.35
  -1  -8   4   15.76   19.87
  -1  -7  -7  333.07   22.53
  -1  -7  -6   27.79   10.43
  -1  -7  -5   79.88   12.78
  -1  -7  -4  375.00   21.08
  -1  -7  -4  407.78   24.64
  -1  -7  -3  127.25   13.36
  -1  -7  -3  146.16   15.99
  -1  -7  -2   70.29   11.05
  -1  -7  -2   63.62   10.38
  -1  -7  -2   81.13   13.28
  -1  -7  -1  218.12   18.58
  -1  -7  -1  192.08   16.78
  -1  -7   0  219.96   19.80
  -1  -7   0  239.34   19.64
  -1  -7   1   64.29   14.01
  -1  -7   1   86.94   14.51
  -1  -7   2   83.51   17.45
  -1  -7   2  131.45   17.86
  -1  -7   3   83.68   15.97
  -1  -7   3   63.31   19.18
  -1  -7   4   -6.25   13.27
  -1  -7   4   17.81   16.97
  -1  -7   5   61.94   22.26
  -1  -6  -6  143.34   14.26
  -1  -6  -5  397.40   20.35
  -1  -6  -4  210.80   15.74
  -1  -6  -4  193.96   16.97
  -1  -6  -3  194.05   14.35
  -1  -6  -3  146.58   12.93
  -1  -6  -3  185.20   16.73
  -1  -6  -2  144.02   12.35
  -1  -6  -2  147.44   15.35
  -1  -6  -2  134.68   11.25
  -1  -6  -1  254.16   17.17
  -1  -6  -1  231.14   11.38
  -1  -6   0  437.21   23.51
  -1  -6   0  456.60   23.53
  -1  -6   1  184.09   18.02
  -1  -6   1  225.40   19.36
  -1  -6   2  148.94   16.74
  -1  -6   2  135.67   19.59
  -1  -6   3  234.13   21.44
  -1  -6   3  159.93   20.13
  -1  -6   4  208.28   24.30
  -1  -6   4  315.47   24.31
  -1  -6   5   33.51   18.10
  -1  -6   5   52.55   15.38
  -1  -6   6   47.92   22.42
  -1  -5  -6  242.13   16.88
  -1  -5  -5 1056.07   31.44
  -1  -5  -4 1310.74   37.60
  -1  -5  -4 1228.17   30.87
  -1  -5  -3  531.45   19.98
  -1  -5  -3  509.78   21.32
  -1  -5  -3  550.64   24.70
  -1  -5  -2  182.49   12.53
  -1  -5  -2  189.74   12.05
  -1  -5  -1  769.45   24.81
  -1  -5  -1  795.31   20.16
  -1  -5   0  561.48   24.12
  -1  -5   0  726.39   28.18
  -1  -5   1  295.14   22.35
  -1  -5   1  237.85   17.75
  -1  -5   2  126.41   15.56
  -1  -5   2  135.65   14.32
  -1  -5   3   64.44   14.43
  -1  -5   3   78.24   13.39
  -1  -5   4  124.36   17.28
  -1  -5   5   24.85   12.48
  -1  -5   6   59.29   16.52
  -1  -4  -5  182.32   13.57
  -1  -4  -4  580.76   21.17
  -1  -4  -3  370.95   15.80
  -1  -4  -3  365.51   17.56
  -1  -4  -3  393.43   19.61
  -1  -4  -2  931.36   28.19
  -1  -4  -2  872.88   21.36
  -1  -4  -1 1380.29   29.13
  -1  -4  -1 1336.83   32.71
  -1  -4  -1 1340.14   26.15
  -1  -4   0 2222.82   42.87
  -1  -4   0 2105.61   39.97
  -1  -4   1  517.49   22.04
  -1  -4   1  396.34   20.52
  -1  -4   2  220.40   16.29
  -1  -4   3 1084.95   35.78
  -1  -4   4  174.56   12.44
  -1  -4   4  284.40   22.56
  -1  -4   5  253.32   23.98
  -1  -4   5    0.23    7.75
  -1  -4   6  117.08   20.40
  -1  -4   7  112.55   22.72
  -1  -4   8   17.79   20.89
  -1  -3  -4  986.69   24.63
  -1  -3  -3 1531.78   26.93
  -1  -3  -3 1532.59   33.20
  -1  -3  -2  932.72   19.40
  -1  -3  -2  970.68   25.68
  -1  -3  -2  974.56   24.59
  -1  -3  -1 1785.77   28.14
  -1  -3  -1 1856.06   33.58
  -1  -3  -1 1783.50   28.93
  -1  -3   0 3661.22   49.46
  -1  -3   0 3647.89   49.88
  -1  -3   1  598.68   21.76
  -1  -3   2 2814.19   53.56
  -1  -3   2 2307.41   35.85
  -1  -3   3 1503.04   41.11
  -1  -3   4 1716.36   48.61
  -1  -3   5  308.21   23.74
  -1  -3   6  210.49   22.36
  -1  -3   7  162.11   22.22
  -1  -3   8   67.13   20.44
  -1  -2  -4  669.03   24.87
  -1  -2  -3 1815.94   35.32
  -1  -2  -2 2539.11   26.44
  -1  -2  -2 2508.69   36.26
  -1  -2  -2 2498.18   34.24
  -1  -2  -1 3188.34   37.28
  -1  -2  -1 3284.88   39.01
  -1  -2   0  732.69   16.85
  -1  -2   0  851.82   20.94
  -1  -2   1 3362.98   38.81
  -1  -2   1 3414.70   47.38
  -1  -2   2  314.52   17.20
  -1  -2   3  577.76   24.20
  -1  -2   4  399.67   24.46
  -1  -2   5   14.56   10.51
  -1  -2   6  277.72   25.17
  -1  -2   7   81.89   17.86
  -1  -2   8  134.82   22.77
  -1  -2   9    6.49   17.13
  -1  -1  -4  765.45   30.17
  -1  -1  -3 1630.56   34.63
  -1  -1  -2 9999.00   71.50
  -1  -1  -2 9792.50   55.94
  -1  -1  -1 8767.05   62.84
  -1  -1  -1 8720.89   50.47
  -1  -1   0 1920.47   28.30
  -1  -1   0 2421.03   25.66
  -1  -1   1 2235.93   33.80
  -1  -1   1 2334.20   27.79
  -1  -1   2 3875.08   52.55
  -1  -1   3 2067.83   35.30
  -1  -1   3 2047.22   43.03
  -1  -1   4  656.22   22.93
  -1  -1   4  621.22   26.66
  -1  -1   5 1045.98   32.76
  -1  -1   5  959.67   35.91
  -1  -1   6  344.73   21.73
  -1  -1   6  377.20   26.23
  -1  -1   7  341.54   23.57
  -1  -1   7  383.03   28.39
  -1  -1   8   15.41   14.76
  -1  -1   9   28.19   18.03
  -1  -1  10   38.76   24.22
  -1   0  -4 1395.00   36.77
  -1   0  -3 3638.27   50.27
  -1   0  -2 3678.80   47.91
  -1   0  -1  400.50    7.64
  -1   0  -1  418.65   15.33
  -1   0   0 4991.04   37.13
  -1   0   0 5021.28   44.57
  -1   0   1  521.00   15.78
  -1   0   2 4447.95   55.94
  -1   0   3 3281.42   48.16
  -1   0   3 3205.90   54.81
  -1   0   4  960.85   29.01
  -1   0   4 1062.79   35.94
  -1   0   5  273.78   18.01
  -1   0   5  293.68   20.97
  -1   0   6  660.48   30.59
  -1   0   6  675.86   32.97
  -1   0   7  156.15   18.03
  -1   0   7  150.90   19.08
  -1   0   8   87.40   17.57
  -1   0   8   68.26   16.53
  -1   0   9   57.32   19.22
  -1   0  10   74.58   23.87
  -1   1  -4  747.99   28.74
  -1   1  -3 1479.86   35.42
  -1   1  -2 3720.28   49.29
  -1   1  -1 3066.36   34.99
  -1   1   0 1070.54   15.61
  -1   1   0  969.64   13.63
  -1   1   1 6040.46   47.70
  -1   1   1 6200.11   40.20
  -1   1   2 3015.72   41.79
  -1   1   2 3072.15   34.34
  -1   1   3  328.05   16.85
  -1   1   3  296.88   13.64
  -1   1   3  332.74   17.77
  -1   1   4  126.49   13.08
  -1   1   4  111.17   12.09
  -1   1   5  670.01   28.14
  -1   1   5  634.20   28.67
  -1   1   6  171.99   17.33
  -1   1   6  157.14   17.44
  -1   1   7  100.45   15.71
  -1   1   7   98.10   18.53
  -1   1   8   85.22   17.38
  -1   1   8   95.42   18.90
  -1   1   9   24.49   14.56
  -1   1   9   18.02   16.36
  -1   1  10   63.70   22.71
  -1   2  -4  385.76   22.26
  -1   2  -3  700.15   19.13
  -1   2  -3  626.01   24.81
  -1   2  -2  501.41   22.22
  -1   2  -2  505.81   12.38
  -1   2  -1 2222.54   19.76
  -1   2   0 1559.67   26.06
  -1   2   0 1614.46   18.50
  -1   2   1  279.48   11.27
  -1   2   2 7048.87   68.10
  -1   2   2 6991.86   56.54
  -1   2   3 2929.33   50.24
  -1   2   3 2815.24   40.42
  -1   2   3 2909.62   49.96
  -1   2   4  847.09   29.71
  -1   2   4  763.16   28.81
  -1   2   5 1418.44   42.97
  -1   2   5 1341.02   40.53
  -1   2   6 1328.99   43.14
  -1   2   6 1356.31   46.21
  -1   2   7  281.28   23.66
  -1   2   7  196.03   21.28
  -1   2   8  195.90   22.26
  -1   2   8  179.84   22.31
  -1   2   9  170.68   24.19
  -1   2   9  238.55   28.60
  -1   2  10   61.76   20.56
  -1   2  10   39.80   17.97
  -1   3  -9   16.74   22.51
  -1   3  -8   33.54   19.82
  -1   3  -7  205.36   26.53
  -1   3  -6  200.43   24.81
  -1   3  -5    3.92   15.54
  -1   3  -5  343.56   27.96
  -1   3  -4  806.86   37.82
  -1   3  -4  754.63   31.60
  -1   3  -3 1914.04   52.06
  -1   3  -3 2085.51   35.37
  -1   3  -2 1977.31   28.60
  -1   3  -1  492.88   13.51
  -1   3   0 2061.11   38.09
  -1   3   0 1934.78   25.69
  -1   3   1 6634.65   58.36
  -1   3   1 6451.13   54.33
  -1   3   2  381.06   15.40
  -1   3   3  930.29   30.63
  -1   3   3  822.46   23.42
  -1   3   4 1075.05   35.37
  -1   3   5  374.71   22.79
  -1   3   5  370.61   23.57
  -1   3   6  763.66   34.53
  -1   3   6  789.39   36.25
  -1   3   7  265.69   23.26
  -1   3   7  271.81   24.64
  -1   3   8  122.29   19.93
  -1   3   8   94.35   18.16
  -1   3   9   62.85   17.96
  -1   3   9  101.69   21.20
  -1   3  10  115.31   22.59
  -1   3  10   80.80   22.29
  -1   4  -8   29.73   21.96
  -1   4  -7   76.63   22.11
  -1   4  -6   76.47   20.56
  -1   4  -5   85.91   18.34
  -1   4  -4   32.00   14.03
  -1   4  -4  382.81   28.11
  -1   4  -3  393.26   17.96
  -1   4  -2  882.71   23.20
  -1   4  -1 1003.97   23.11
  -1   4   0  652.54   18.08
  -1   4   1 1222.56   27.65
  -1   4   2 2527.63   42.81
  -1   4   3  903.75   30.98
  -1   4   4  494.06   25.97
  -1   4   5 2091.92   53.55
  -1   4   6  788.01   36.38
  -1   4   6  708.03   34.67
  -1   4   7  368.11   28.09
  -1   4   7  354.97   27.93
  -1   4   8   75.55   17.08
  -1   4   8   47.03   16.11
  -1   4   9  171.41   25.32
  -1   4   9  227.04   27.52
  -1   4  10   52.48   19.25
  -1   4  10   54.25   19.90
  -1   4  11   59.05   22.98
  -1   5  -3    0.00   15.81
  -1   5  -2   74.56   10.09
  -1   5  -1  246.90   14.30
  -1   5   0 2036.78   36.72
  -1   5   1  466.33   18.95
  -1   5   4 1313.71   41.52
  -1   5   5  116.82   15.48
  -1   5   6  806.07   37.97
  -1   5   7  220.97   23.12
  -1   5   7  173.73   21.43
  -1   5   8  221.27   26.11
  -1   5   8  190.56   23.82
  -1   5   9  191.46   27.28
  -1   5   9  176.87   25.24
  -1   5  10   39.63   18.86
  -1   5  10   50.08   20.55
  -1   6   5  355.45   25.43
  -1   6   6  112.12   18.43
  -1   6   7  188.67   23.40
  -1   6   8  113.01   21.88
  -1   6   8   64.07   18.61
  -1   6   9   63.28   18.67
  -1   6   9   85.44   20.36
  -1   6  10   67.63   21.13
  -1   6  10   55.80   21.15
  -1   7   6  160.60   21.04
  -1   7   7  186.50   24.18
  -1   7   8   49.98   18.43
  -1   7   9   55.06   20.82
  -1   7   9   75.96   21.44
  -1   7  10   45.52   21.70
  -1   7  10   20.05   18.79
  -1   8   7   49.51   17.01
  -1   8   8   93.86   21.19
  -1   8   9   19.76   17.29
  -1   8  10   -4.96   19.40
  -1   8  10    8.96   19.82
   0 -11  -8   -4.37   15.30
   0 -11  -7   -3.60   14.46
   0 -11  -6    9.25   13.50
   0 -11  -5   20.02   15.11
   0 -11  -4   33.48   16.19
   0 -11  -3    8.20   13.30
   0 -11  -2   12.58   14.25
   0 -11  -2    6.92   13.92
   0 -11  -1   -0.98   15.31
   0 -10  -9   16.80   15.04
   0 -10  -8   49.18   16.44
   0 -10  -7   92.18   19.21
   0 -10  -6   11.01   13.49
   0 -10  -5   21.07   12.82
   0 -10  -4   36.03   13.65
   0 -10  -3   20.49   13.40
   0 -10  -2   24.58   12.79
   0 -10  -2   14.70   12.20
   0 -10  -1   71.55   15.17
   0 -10  -1   52.08   15.54
   0 -10   0   11.07   13.84
   0 -10   1   23.08   15.71
   0  -9  -8    2.84   12.43
   0  -9  -7   21.55   13.45
   0  -9  -6   74.14   14.71
   0  -9  -5   60.20   14.19
   0  -9  -4   67.21   13.95
   0  -9  -3  106.61   15.56
   0  -9  -3  122.53   17.51
   0  -9  -2   94.88   15.32
   0  -9  -2   92.76   15.84
   0  -9  -1  103.70   15.58
   0  -9  -1  106.33   16.10
   0  -9   0   85.03   16.24
   0  -9   0   80.54   14.50
   0  -9   1   49.53   14.32
   0  -9   1   56.14   17.23
   0  -9   2   24.96   17.08
   0  -9   3  128.10   23.87
   0  -8  -8   97.85   17.55
   0  -8  -7  162.25   18.70
   0  -8  -6  185.99   18.94
   0  -8  -5  131.59   16.47
   0  -8  -4  186.00   17.42
   0  -8  -3   46.59   11.88
   0  -8  -3   53.19   12.05
   0  -8  -2  175.26   17.43
   0  -8  -2  216.06   18.67
   0  -8  -1  115.77   14.74
   0  -8  -1  121.33   16.03
   0  -8   0  273.99   23.01
   0  -8   0  296.04   21.14
   0  -8   1  115.77   18.65
   0  -8   1  121.73   16.41
   0  -8   2   94.59   18.19
   0  -8   2  118.01   16.06
   0  -8   3   54.94   18.03
   0  -8   4   42.34   19.65
   0  -7  -7  386.69   24.92
   0  -7  -6  259.64   21.33
   0  -7  -5  219.82   17.28
   0  -7  -4   64.14   11.64
   0  -7  -3  537.70   24.79
   0  -7  -3  529.33   26.43
   0  -7  -2  569.86   25.82
   0  -7  -2  519.62   20.32
   0  -7  -2  590.66   27.44
   0  -7  -1  275.55   18.70
   0  -7  -1  266.93   12.08
   0  -7   0  127.83   16.54
   0  -7   0  166.12   16.00
   0  -7   1  127.42   16.83
   0  -7   1  143.84   14.81
   0  -7   2  187.79   21.06
   0  -7   2  231.31   19.30
   0  -7   3   70.00   14.86
   0  -7   3   33.41   15.81
   0  -7   4   58.55   20.27
   0  -7   5   26.23   19.93
   0  -6  -6  316.84   20.47
   0  -6  -5  410.78   22.34
   0  -6  -4  566.98   24.52
   0  -6  -3  544.49   25.32
   0  -6  -3  539.71   22.76
   0  -6  -2  762.96   26.13
   0  -6  -2  828.20   24.29
   0  -6  -2  836.65   29.66
   0  -6  -1  780.75   27.07
   0  -6  -1  733.29   18.33
   0  -6   0  293.55   17.71
   0  -6   0  310.60   21.00
   0  -6   1  431.18   25.24
   0  -6   1  509.98   23.50
   0  -6   2  299.04   24.41
   0  -6   2  389.59   22.77
   0  -6   3  261.02   25.35
   0  -6   3  277.60   19.20
   0  -6   4   53.42   13.47
   0  -6   4   21.27   13.79
   0  -6   5   48.60   16.47
   0  -6   5   96.46   16.60
   0  -6   6   44.56   20.33
   0  -5  -6  670.88   27.91
   0  -5  -5  358.99   19.50
   0  -5  -4  416.92   19.62
   0  -5  -3  927.58   26.78
   0  -5  -3  965.26   28.09
   0  -5  -2  957.49   26.19
   0  -5  -2 1017.36   24.98
   0  -5  -2 1030.44   30.18
   0  -5  -1  291.53   15.72
   0  -5  -1  277.49   15.87
   0  -5  -1  312.58   11.96
   0  -5   0 1213.94   30.42
   0  -5   0 1177.26   34.03
   0  -5   1  746.56   30.43
   0  -5   1  761.42   26.59
   0  -5   2  430.70   25.90
   0  -5   2  518.16   22.85
   0  -5   3  155.24   18.22
   0  -5   3  191.75   15.49
   0  -5   4  265.88   19.47
   0  -5   5  142.22   17.25
   0  -5   6   68.57   15.94
   0  -4  -5  485.28   21.24
   0  -4  -4  334.69   17.24
   0  -4  -3  401.18   17.03
   0  -4  -3  311.75   14.54
   0  -4  -2 1297.35   27.65
   0  -4  -2 1280.25   25.40
   0  -4  -2 1281.75   29.73
   0  -4  -1  198.01   11.85
   0  -4  -1  229.43   12.69
   0  -4  -1  220.27    9.34
   0  -4   0  239.07   14.62
   0  -4   0  206.27   12.05
   0  -4   0  237.46    7.06
   0  -4   1 1030.80   25.74
   0  -4   1 1007.53   32.65
   0  -4   2  513.85   25.65
   0  -4   2  563.46   21.69
   0  -4   3  217.54   15.29
   0  -4   4  134.37   14.13
   0  -4   5  447.16   27.98
   0  -4   6  159.13   19.93
   0  -4   7   49.40   16.30
   0  -3  -4 2650.85   41.87
   0  -3  -3 1993.24   34.02
   0  -3  -3 2073.69   34.27
   0  -3  -2 1043.93   24.57
   0  -3  -2 1050.68   22.15
   0  -3  -2  985.17   22.35
   0  -3  -1 4032.66   41.44
   0  -3  -1 4013.53   43.58
   0  -3  -1 4040.56   34.81
   0  -3   0 7526.55   58.18
   0  -3   0 7532.23   34.33
   0  -3   1 2338.56   46.41
   0  -3   1 2363.52   42.40
   0  -3   1 2418.30   34.88
   0  -3   2 2250.23   37.81
   0  -3   2 2159.90   18.72
   0  -3   3  633.28   14.26
   0  -3   3  660.82   24.04
   0  -3   4  575.71   25.40
   0  -3   4  513.73   16.43
   0  -3   5  369.80   22.98
   0  -3   5  298.92   15.21
   0  -3   6  211.12   19.70
   0  -3   6  166.52   14.20
   0  -3   7   66.89   15.87
   0  -3   8    8.49   13.86
   0  -2  -4  452.31   20.08
   0  -2  -3 4080.33   45.10
   0  -2  -3 3896.28   47.86
   0  -2  -2  694.34   16.06
   0  -2  -2  693.26   17.55
   0  -2  -1  369.63   11.70
   0  -2  -1  381.09   10.56
   0  -2  -1  364.63   10.13
   0  -2   0 6228.20   49.85
   0  -2   0 6102.50   44.85
   0  -2   1 3709.37   37.31
   0  -2   1 3353.72   49.01
   0  -2   2  328.88    9.09
   0  -2   2  328.44   14.15
   0  -2   3  913.14   27.84
   0  -2   3  849.45   18.47
   0  -2   4 2208.77   45.54
   0  -2   4 2106.62   35.18
   0  -2   5 1132.87   36.38
   0  -2   5 1063.88   28.72
   0  -2   6  687.25   31.79
   0  -2   6  630.44   26.20
   0  -2   7  170.92   20.43
   0  -2   7  115.62   14.26
   0  -2   8  290.48   28.80
   0  -2   9   37.47   16.50
   0  -1  -4 6508.21   70.26
   0  -1  -3  311.26   14.15
   0  -1  -2 3210.23   32.57
   0  -1  -1 4174.30   25.63
   0  -1  -1 4175.59   28.64
   0  -1   0 2391.53   21.06
   0  -1   0   -1.97    2.00
   0  -1   1 2820.44   18.59
   0  -1   1 2743.10   28.83
   0  -1   2 1484.03   26.38
   0  -1   2 1456.80   19.92
   0  -1   3 2250.49   37.50
   0  -1   3 2332.81   32.63
   0  -1   4  308.97   16.99
   0  -1   4  307.32   14.68
   0  -1   5  967.72   31.90
   0  -1   5 1016.32   29.13
   0  -1   6  122.81   14.91
   0  -1   6  105.02   12.45
   0  -1   7  212.30   20.26
   0  -1   7  258.64   20.05
   0  -1   8  191.49   22.26
   0  -1   8  178.10   19.28
   0  -1   9  210.29   25.89
   0  -1  10   61.96   21.28
   0   0  -4 3163.86   49.60
   0   0  -3 4409.73   47.76
   0   0  -2 4917.03   42.02
   0   0  -1 5410.89   32.37
   0   0  -1 5765.48   31.08
   0   0   1 5519.86   31.90
   0   0   1 5250.39   30.45
   0   0   2 5281.44   46.66
   0   0   2 4979.30   40.77
   0   0   3 4435.86   52.42
   0   0   3 4456.30   48.91
   0   0   4 3403.36   52.77
   0   0   4 3278.01   46.82
   0   0   5  320.18   19.10
   0   0   5  340.10   18.39
   0   0   6  335.45   22.14
   0   0   6  358.52   20.79
   0   0   7  216.54   21.42
   0   0   7  173.34   17.18
   0   0   8   76.20   15.20
   0   0   8   56.10   14.23
   0   0   9   63.13   17.85
   0   0   9   41.31   15.34
   0   0  10    4.23   15.37
   0   1  -4  345.43   19.08
   0   1  -4  337.22   16.49
   0   1  -3 1884.53   34.98
   0   1  -3 2041.92   33.09
   0   1  -2 1318.42   24.39
   0   1  -2 1384.15   21.38
   0   1  -1 2912.00   28.26
   0   1  -1 2942.79   20.13
   0   1   0 2808.64   23.11
   0   1   0 2916.66   21.53
   0   1   1 3967.46   26.03
   0   1   1 4004.74   29.92
   0   1   2 2639.83   27.60
   0   1   2 2677.36   33.55
   0   1   3  245.49   12.97
   0   1   4 6240.83   73.57
   0   1   4 6080.48   66.36
   0   1   5  937.39   32.14
   0   1   5  918.86   30.10
   0   1   6  634.88   29.61
   0   1   6  638.77   28.00
   0   1   7  281.61   22.81
   0   1   7  296.06   21.98
   0   1   8  326.80   26.39
   0   1   8  361.49   26.14
   0   1   9   66.99   18.78
   0   1   9   67.97   16.24
   0   1  10   81.42   20.03
   0   1  10   60.37   17.41
   0   1  11   16.74   18.99
   0   1  11   83.75   23.85
   0   2  -9   50.72   23.86
   0   2  -5  917.82   31.97
   0   2  -4 2216.70   41.40
   0   2  -3 1104.68   29.22
   0   2  -3  984.94   23.01
   0   2  -2  394.33   19.85
   0   2  -2  425.20   15.96
   0   2  -2  414.55   12.12
   0   2  -1 3965.68   39.50
   0   2   0 6646.40   50.40
   0   2   0 6440.31   44.23
   0   2   1  205.85    8.06
   0   2   1  206.35    8.98
   0   2   1  191.10    7.97
   0   2   2  683.72   17.98
   0   2   2  683.41   16.13
   0   2   2  660.87   17.91
   0   2   3 4358.47   46.03
   0   2   3 4338.72   51.57
   0   2   4  668.19   20.99
   0   2   4  747.96   25.45
   0   2   5  726.73   27.88
   0   2   6   32.73   10.37
   0   2   6   21.72    8.86
   0   2   7  411.57   26.94
   0   2   7  458.45   27.40
   0   2   8  289.88   25.83
   0   2   8  269.45   23.58
   0   2   9   39.06   14.87
   0   2   9   52.38   15.46
   0   2  10   49.90   18.43
   0   2  10   61.66   18.78
   0   2  11   30.87   19.82
   0   2  11    9.32   17.21
   0   3  -8    0.75   18.24
   0   3  -7   43.48   19.09
   0   3  -6  171.57   22.71
   0   3  -5  349.21   27.97
   0   3  -5    3.62   12.89
   0   3  -4  352.77   26.47
   0   3  -4  311.27   17.13
   0   3  -3  561.12   29.31
   0   3  -3  525.70   18.10
   0   3  -2 2041.12   48.35
   0   3  -2 2196.05   38.94
   0   3  -1 2220.93   36.01
   0   3   0 7422.10   68.59
   0   3   0 7440.43   60.04
   0   3   1 4095.97   45.54
   0   3   1 4037.71   37.89
   0   3   2  911.19   20.79
   0   3   2  975.70   24.21
   0   3   2  928.71   22.31
   0   3   3 2160.84   34.43
   0   3   3 2232.84   39.55
   0   3   4 2778.30   49.68
   0   3   5  306.97   19.47
   0   3   6  300.67   21.45
   0   3   7  241.78   22.28
   0   3   7  258.03   21.99
   0   3   8  103.17   18.19
   0   3   8  116.86   17.46
   0   3   9   34.54   15.50
   0   3   9   42.26   14.34
   0   3  10   13.51   14.41
   0   3  10   13.08   14.76
   0   3  11    6.14   17.54
   0   3  11   29.88   18.22
   0   4  -8   68.23   26.05
   0   4  -7   37.32   19.91
   0   4  -6  134.26   22.95
   0   4  -5  280.17   27.18
   0   4  -4  127.41   18.47
   0   4  -2  615.02   23.53
   0   4  -1 1271.10   31.74
   0   4   0  221.49   12.83
   0   4   1  107.80    7.99
   0   4   1  127.49   11.53
   0   4   1  134.81   11.08
   0   4   2 1257.63   29.17
   0   4   2 1325.53   31.94
   0   4   2 1331.83   29.27
   0   4   3  449.42   20.93
   0   4   3  466.94   19.83
   0   4   4  365.28   20.17
   0   4   5  542.65   26.19
   0   4   6  437.60   25.92
   0   4   7  691.52   34.50
   0   4   8  275.23   26.11
   0   4   8  325.32   26.68
   0   4   9  153.00   22.22
   0   4   9  201.93   23.98
   0   4  10  174.64   26.29
   0   4  10  146.62   23.85
   0   4  11   82.50   22.75
   0   4  11  129.76   25.95
   0   5   0 1372.56   34.47
   0   5   1  491.46   20.99
   0   5   2 1072.08   27.76
   0   5   3 1017.65   30.53
   0   5   4  521.29   24.09
   0   5   5  350.50   22.42
   0   5   6  614.84   30.85
   0   5   7  455.89   29.14
   0   5   8  569.13   35.31
   0   5   9   58.32   18.45
   0   5   9   83.82   19.53
   0   5  10    8.79   15.88
   0   5  10   40.67   18.34
   0   5  11  111.10   25.71
   0   5  11   46.22   20.24
   0   6   3  515.84   23.64
   0   6   4  515.06   25.12
   0   6   5  495.67   28.04
   0   6   6  350.46   25.44
   0   6   7  103.04   17.65
   0   6   8    3.01   12.78
   0   6   9   27.89   15.16
   0   6  10   10.54   16.47
   0   6  10    1.67   16.00
   0   6  11   33.01   19.89
   0   6  11   21.62   19.84
   0   7   0   77.27    8.04
   0   7   3  502.65   23.97
   0   7   4  107.26   14.09
   0   7   5  248.37   21.05
   0   7   6  228.45   21.86
   0   7   7  417.77   32.56
   0   7   8  122.60   20.43
   0   7   9   85.10   19.63
   0   7  10  154.72   26.60
   0   8   4  133.21   16.32
   0   8   5  156.23   18.55
   0   8   6  194.29   21.58
   0   8   7  121.79   19.75
   0   8   8   82.75   19.65
   0   8   9   37.12   18.18
   0   8  10    4.40   18.40
   0   9   6   84.41   17.69
   0   9   7   49.72   17.27
   0   9   8   -2.14   15.42
   0   9   9    3.45   17.23
   0   9  10   67.37   25.36
   0  10   7   41.82   17.47
   0  10   8   72.36   21.83
   0  10   9   32.30   20.92
   1 -11  -7   20.51   17.78
   1 -11  -6   34.49   17.07
   1 -11  -5   51.98   17.46
   1 -11  -4   44.43   17.23
   1 -11  -3   28.52   15.80
   1 -11  -2   28.20   16.12
   1 -11  -1   34.89   16.22
   1 -10  -8   49.93   17.97
   1 -10  -7   22.14   14.59
   1 -10  -6   48.06   15.98
   1 -10  -5   52.51   16.05
   1 -10  -4   42.61   14.89
   1 -10  -3   39.00   14.88
   1 -10  -2   69.96   15.79
   1 -10  -1   10.29   12.85
   1 -10   0   22.77   13.43
   1 -10   1   16.83   15.08
   1  -9  -8   53.32   15.39
   1  -9  -7   58.16   15.49
   1  -9  -6   30.27   12.58
   1  -9  -5  118.22   16.96
   1  -9  -4   36.06   13.01
   1  -9  -3   55.65   13.64
   1  -9  -2   75.38   14.25
   1  -9  -1  167.52   19.28
   1  -9   0   60.33   12.48
   1  -9   0   42.83   13.46
   1  -9   1  121.98   20.50
   1  -9   2   88.49   19.90
   1  -9   3   93.40   23.69
   1  -8  -7   41.63   14.01
   1  -8  -6   92.49   15.34
   1  -8  -5   18.52    9.55
   1  -8  -4  329.77   23.58
   1  -8  -3   85.24   14.20
   1  -8  -2  193.30   17.48
   1  -8  -1  141.00   15.94
   1  -8  -1  158.85   15.92
   1  -8   0  164.82   17.75
   1  -8   0  218.00   17.45
   1  -8   1   56.14   15.16
   1  -8   1   78.91   13.06
   1  -8   2   23.03   13.86
   1  -8   3   83.95   19.66
   1  -8   4   66.90   20.88
   1  -7  -7  218.70   21.01
   1  -7  -6  117.48   15.46
   1  -7  -5  524.29   27.03
   1  -7  -4  203.90   17.92
   1  -7  -3  509.53   24.67
   1  -7  -2  407.71   21.98
   1  -7  -1  397.48   21.73
   1  -7  -1  381.39   20.44
   1  -7   0  227.18   19.91
   1  -7   0  273.01   17.18
   1  -7   1  145.01   18.11
   1  -7   1  159.00   13.84
   1  -7   2  251.60   23.50
   1  -7   2  373.30   21.21
   1  -7   3   38.34   15.75
   1  -7   4   94.34   21.68
   1  -7   5   25.44   19.65
   1  -6  -6  167.63   16.41
   1  -6  -5  348.26   21.88
   1  -6  -4  682.26   28.79
   1  -6  -3  135.52   13.36
   1  -6  -2  184.72   14.11
   1  -6  -1 2276.40   39.34
   1  -6  -1 2352.17   43.06
   1  -6   0  730.85   28.90
   1  -6   0  768.38   24.73
   1  -6   0  768.31   20.50
   1  -6   1  892.22   34.96
   1  -6   1  956.46   27.44
   1  -6   1  891.33   18.44
   1  -6   2  511.37   29.15
   1  -6   2  424.06    9.09
   1  -6   3  769.26   41.75
   1  -6   3  819.87   28.45
   1  -6   4  161.91   22.34
   1  -6   4  253.25   18.93
   1  -6   5  124.16   23.11
   1  -6   6   59.82   20.17
   1  -5  -5  163.67   14.76
   1  -5  -4 1197.73   33.23
   1  -5  -3 1514.21   36.55
   1  -5  -2 1395.91   33.26
   1  -5  -2 1309.56   31.89
   1  -5  -1  321.41   16.35
   1  -5  -1  382.18   16.00
   1  -5   0 2029.94   44.62
   1  -5   0 2079.50   35.94
   1  -5   0 2056.46   32.65
   1  -5   1  266.37   11.45
   1  -5   1  224.08   17.08
   1  -5   1  222.88   13.98
   1  -5   1  267.81   13.95
   1  -5   2   81.49   14.71
   1  -5   2   88.65    9.00
   1  -5   2   60.48    5.94
   1  -5   3  762.29   25.71
   1  -5   3  718.58   14.95
   1  -5   4  237.21   22.93
   1  -5   4  346.34   19.37
   1  -5   5  158.67   15.17
   1  -4  -4  517.59   21.19
   1  -4  -3  930.53   26.08
   1  -4  -2 2508.48   40.19
   1  -4  -2 2466.51   41.84
   1  -4  -1 1432.37   29.88
   1  -4  -1 1478.25   29.37
   1  -4   0  605.39   17.79
   1  -4   0  610.34   17.31
   1  -4   0  641.72   23.27
   1  -4   1  898.14   30.06
   1  -4   1  922.45   20.62
   1  -4   2  885.53   32.43
   1  -4   2  840.14   20.09
   1  -4   3  468.07   17.35
   1  -4   3  515.97   15.47
   1  -4   4  395.66   18.89
   1  -4   4  322.86   12.53
   1  -4   5  113.90   12.31
   1  -4   5   96.50    9.37
   1  -4   6  140.50   15.52
   1  -3  -4 1251.45   31.25
   1  -3  -3 1026.38   26.55
   1  -3  -3 1039.93   28.82
   1  -3  -2  283.65   14.76
   1  -3  -2  187.68   12.43
   1  -3  -1 6260.50   59.39
   1  -3  -1 6207.13   53.56
   1  -3   0 2165.79   36.23
   1  -3   0 2042.17   26.02
   1  -3   1  473.25   21.86
   1  -3   1  485.10   12.22
   1  -3   2 1748.90   25.85
   1  -3   2 1677.02   31.19
   1  -3   3 1971.80   32.94
   1  -3   3 1925.18   30.82
   1  -3   4  890.45   23.29
   1  -3   4  867.75   25.89
   1  -3   5  359.43   16.71
   1  -3   5  365.59   19.97
   1  -3   6  292.41   20.45
   1  -3   6  242.60   15.96
   1  -3   7  232.17   20.77
   1  -2  -3 2690.79   44.59
   1  -2  -2 7120.11   56.94
   1  -2  -2 7168.69   66.27
   1  -2  -1  127.52    9.06
   1  -2  -1  137.38    8.34
   1  -2   0 1533.58   24.42
   1  -2   1 2331.55   38.47
   1  -2   1 2321.70   35.14
   1  -2   1 2270.63   18.19
   1  -2   2  576.17   18.63
   1  -2   2  662.80   14.57
   1  -2   3  570.28   17.64
   1  -2   3  623.91   18.29
   1  -2   4  374.61   16.35
   1  -2   4  411.77   16.37
   1  -2   5  266.00   16.89
   1  -2   5  221.31   13.39
   1  -2   6   86.59   12.23
   1  -2   6   81.49   10.85
   1  -2   7  109.80   15.64
   1  -2   7  105.01   13.36
   1  -2   8  110.68   17.95
   1  -2   8   99.81   15.21
   1  -1  -3  106.65    9.79
   1  -1  -2 2732.85   39.15
   1  -1  -1 6043.30   40.01
   1  -1   0 1345.41   14.49
   1  -1   1 3177.81   41.70
   1  -1   2 3682.87   28.57
   1  -1   2 3603.77   43.45
   1  -1   3 1675.73   26.48
   1  -1   3 1783.13   31.44
   1  -1   4  861.48   23.64
   1  -1   4  873.24   24.22
   1  -1   5  756.70   27.05
   1  -1   5  734.29   24.96
   1  -1   6  654.21   27.10
   1  -1   6  704.11   26.69
   1  -1   7  814.50   32.62
   1  -1   7  867.10   33.13
   1  -1   8  170.19   19.80
   1  -1   8  215.51   19.71
   1  -1   9  107.46   18.95
   1  -1   9   93.70   16.27
   1   0  -4  995.53   28.98
   1   0  -3 3441.51   53.52
   1   0  -3 3606.56   47.07
   1   0  -2 4562.38   53.88
   1   0  -2 4657.10   46.88
   1   0  -1  706.46   18.01
   1   0   0 5078.33   35.11
   1   0   1  628.67    9.35
   1   0   1  677.19   18.40
   1   0   2 3361.55   41.66
   1   0   3 3425.78   44.56
   1   0   4 1483.25   31.24
   1   0   4 1518.81   32.22
   1   0   5 1500.43   36.28
   1   0   5 1623.79   37.66
   1   0   6  591.45   25.78
   1   0   6  678.92   28.25
   1   0   7  178.67   16.70
   1   0   7  202.88   17.93
   1   0   8  173.73   20.12
   1   0   8  147.07   17.27
   1   0   9   42.69   14.73
   1   0   9   30.82   12.19
   1   0  10   14.69   14.62
   1   0  10   17.79   13.81
   1   1  -4  502.15   20.08
   1   1  -3 1904.79   33.22
   1   1  -2 3808.08   52.12
   1   1  -2 4065.99   41.02
   1   1  -1 2484.08   34.34
   1   1  -1 2387.50   34.63
   1   1   0 2037.38   28.40
   1   1   1 8641.29   49.90
   1   1   1 8729.21   60.68
   1   1   2 9933.08   46.51
   1   1   2 9729.43   56.38
   1   1   3 2078.54   35.34
   1   1   3 1837.27   29.22
   1   1   4  771.31   24.38
   1   1   5  542.41   23.17
   1   1   6  941.24   32.65
   1   1   6 1048.00   35.42
   1   1   7   83.17   13.15
   1   1   7   82.68   12.82
   1   1   8   63.43   14.79
   1   1   8   63.56   13.25
   1   1   9  228.14   23.07
   1   1   9  221.79   22.91
   1   1  10  104.84   22.21
   1   1  10  137.58   20.58
   1   1  11   28.88   17.35
   1   1  11   33.88   17.99
   1   2  -9   46.26   22.26
   1   2  -8  179.86   29.13
   1   2  -4  442.05   17.97
   1   2  -3  414.73   23.83
   1   2  -3  427.85   15.23
   1   2  -2  265.93   16.16
   1   2  -2  292.44   10.96
   1   2  -1 3491.85   28.44
   1   2  -1 3475.02   48.09
   1   2   0  980.89   19.58
   1   2   0 1021.00   23.50
   1   2   1 3301.43   30.42
   1   2   1 3272.92   33.79
   1   2   2 2661.44   26.91
   1   2   2 2656.95   34.38
   1   2   2 2746.82   36.51
   1   2   3 1883.98   27.72
   1   2   3 1922.54   34.13
   1   2   3 1968.17   35.11
   1   2   4  695.52   19.96
   1   2   4  727.85   22.68
   1   2   5 1699.71   37.40
   1   2   6 1046.12   35.24
   1   2   7  967.83   37.25
   1   2   7 1089.86   39.09
   1   2   8  283.90   23.00
   1   2   8  320.41   24.53
   1   2   9   36.10   14.32
   1   2   9   60.46   15.51
   1   2  10  125.82   20.59
   1   2  10  186.81   23.45
   1   2  11   60.11   20.86
   1   2  11   18.12   15.98
   1   3  -8   57.26   23.82
   1   3  -7  130.89   25.66
   1   3  -6  145.36   22.41
   1   3  -5  310.28   27.44
   1   3  -4 1445.40   51.19
   1   3  -4 1342.64   29.90
   1   3  -3 1424.58   44.98
   1   3  -3 1516.61   25.73
   1   3  -2 2514.65   23.85
   1   3  -1  838.15   26.74
   1   3  -1  692.74   13.35
   1   3   0 3848.99   42.31
   1   3   0 3830.39   26.62
   1   3   1 1640.64   30.57
   1   3   1 1690.44   24.16
   1   3   2  930.85   19.23
   1   3   2  997.48   25.08
   1   3   2  987.65   21.97
   1   3   3 1376.97   31.86
   1   3   3 1471.98   32.00
   1   3   4  834.32   23.20
   1   3   4  802.58   26.31
   1   3   4  846.25   26.72
   1   3   5 1235.61   35.11
   1   3   6  528.67   25.49
   1   3   7   43.84   11.94
   1   3   8   64.40   13.59
   1   3   9  188.81   22.37
   1   3   9  223.53   23.81
   1   3  10   11.02   14.45
   1   3  10   13.85   14.03
   1   3  11   11.18   15.64
   1   3  11    2.90   14.51
   1   3  12   -1.13   19.64
   1   4  -7   79.02   22.52
   1   4  -6   65.29   19.99
   1   4  -5  148.98   21.48
   1   4   0 1797.22   32.23
   1   4   1 1360.86   33.99
   1   4   1 1417.30   21.89
   1   4   2  826.69   23.47
   1   4   2  832.15   20.20
   1   4   3  412.42   15.61
   1   4   3  455.37   17.82
   1   4   4  774.90   28.26
   1   4   5   65.56   11.39
   1   4   6  530.07   27.06
   1   4   7  357.43   25.07
   1   4   8   82.68   15.01
   1   4   9  203.18   22.12
   1   4  10   99.70   19.91
   1   4  10  140.89   22.99
   1   4  11   27.69   18.74
   1   4  11   49.08   18.57
   1   4  12   -5.45   19.87
   1   5   0  565.71   20.47
   1   5   1  746.27   16.57
   1   5   2  288.70   13.97
   1   5   3  658.25   22.99
   1   5   4 1265.22   35.33
   1   5   5 1207.86   38.36
   1   5   6  285.56   21.23
   1   5   7  166.05   18.45
   1   5   8  551.99   33.16
   1   5   9   36.18   15.30
   1   5  10   52.45   18.84
   1   5  10   47.69   17.71
   1   5  11   64.96   20.30
   1   5  11   50.12   20.15
   1   6   0  336.76   17.17
   1   6   2  108.78    9.40
   1   6   3  214.56   14.23
   1   6   4  172.84   14.55
   1   6   5  333.14   21.58
   1   6   6  149.11   16.60
   1   6   7   68.24   14.59
   1   6   8  193.83   22.05
   1   6   9  380.73   31.76
   1   6  10   67.93   19.18
   1   6  11   18.10   18.34
   1   6  11   32.64   19.33
   1   7   2  126.86   10.88
   1   7   3  130.83   12.48
   1   7   4  483.42   24.20
   1   7   5  129.40   15.43
   1   7   6   39.23   12.41
   1   7   7  354.38   27.35
   1   7   8  179.61   22.86
   1   7   9    8.88   14.56
   1   7  10    6.47   15.85
   1   7  11   65.79   23.24
   1   8   3  215.09   16.72
   1   8   4  546.02   26.28
   1   8   5  362.28   24.31
   1   8   6  179.11   20.17
   1   8   7   49.92   14.57
   1   8   8  277.18   27.33
   1   8   9   47.29   17.23
   1   8  10  -16.52   17.63
   1   9   4   24.03   11.23
   1   9   5   30.45   11.57
   1   9   6   42.65   13.83
   1   9   7   35.68   15.29
   1   9   8   66.65   18.42
   1   9   9   58.48   20.06
   1   9  10   30.05   18.40
   1  10   5   22.97   12.80
   1  10   6   18.75   14.77
   1  10   7   58.10   17.68
   1  10   8   49.47   19.06
   1  10   9    0.91   16.35
   1  10  10   -3.72   18.95
   1  11   7   18.05   17.93
   1  11   8   29.27   19.29
   1  11   9    8.55   19.69
   2 -11  -5    1.79   15.57
   2 -11  -4   61.23   19.39
   2 -11  -3   48.32   16.40
   2 -11  -2    6.74   15.54
   2 -10  -7   43.91   16.73
   2 -10  -6   84.29   18.50
   2 -10  -5   42.15   14.99
   2 -10  -4  131.62   19.94
   2 -10  -3  127.90   19.75
   2 -10  -2   84.11   17.45
   2 -10  -1   31.50   14.00
   2 -10   0   58.70   16.94
   2 -10   1   53.43   16.02
   2  -9  -8   68.89   18.24
   2  -9  -7  102.99   18.55
   2  -9  -6   51.81   15.64
   2  -9  -5  148.92   19.11
   2  -9  -4  112.38   17.42
   2  -9  -3   63.25   14.61
   2  -9  -2  141.23   17.74
   2  -9  -1   71.90   15.17
   2  -9   0   59.49   13.82
   2  -9   1   26.54   13.37
   2  -9   2   40.46   16.35
   2  -9   3   41.92   19.48
   2  -8  -7   78.27   16.66
   2  -8  -6  144.22   18.70
   2  -8  -5  134.27   17.50
   2  -8  -4  351.57   24.72
   2  -8  -3  360.31   23.81
   2  -8  -2  122.37   15.48
   2  -8  -1  251.44   21.34
   2  -8   0  265.30   20.04
   2  -8   1  220.56   22.76
   2  -8   2  112.58   19.93
   2  -8   3   98.99   20.58
   2  -8   4   94.96   20.99
   2  -7  -6  144.47   17.59
   2  -7  -5  145.39   17.30
   2  -7  -4   15.06   10.06
   2  -7  -3  185.20   17.51
   2  -7  -2  277.29   19.92
   2  -7  -1   43.14   10.66
   2  -7   0  241.82   18.80
   2  -7   1  254.80   20.92
   2  -7   1  282.59   22.19
   2  -7   2  162.87   19.68
   2  -7   3   66.47   16.00
   2  -7   4  109.53   21.58
   2  -7   5   90.49   22.74
   2  -6  -6   50.35   11.59
   2  -6  -5  524.24   26.60
   2  -6  -4  626.83   27.42
   2  -6  -3  462.27   23.71
   2  -6  -2  543.09   23.90
   2  -6  -1 1179.20   35.00
   2  -6   0  675.13   27.29
   2  -6   1  301.00   22.21
   2  -6   2  104.31   14.72
   2  -6   2  137.55   14.76
   2  -6   2  128.55    9.08
   2  -6   3  198.65   21.38
   2  -6   4  187.02   23.51
   2  -6   5  110.24   22.05
   2  -6   6   35.53   19.03
   2  -5  -5  169.02   15.29
   2  -5  -4 1050.59   34.23
   2  -5  -3  927.69   30.39
   2  -5  -2  977.48   29.03
   2  -5  -1  856.95   26.62
   2  -5   0 1489.91   36.33
   2  -5   1 1393.60   39.88
   2  -5   2 1082.36   37.40
   2  -5   2 1041.55   35.18
   2  -5   2 1062.54   19.60
   2  -5   3  725.02   36.70
   2  -5   3  699.90   17.24
   2  -5   4  495.66   30.45
   2  -5   4  572.90   21.40
   2  -5   5  288.07   26.53
   2  -5   6   49.83   18.49
   2  -5   7   47.76   22.01
   2  -4  -4   50.91    9.36
   2  -4  -3  100.43   11.05
   2  -4  -2  888.96   26.10
   2  -4  -1  502.29   18.64
   2  -4   0  683.28   22.51
   2  -4   1  625.94   24.06
   2  -4   2  791.90   31.42
   2  -4   2  717.03   29.13
   2  -4   3  436.93   24.92
   2  -4   3  461.88   11.84
   2  -4   3  474.89   22.97
   2  -4   4  265.94   22.42
   2  -4   4  301.61   12.40
   2  -4   4  288.87   16.29
   2  -4   5  319.78   14.96
   2  -4   5  325.80   17.36
   2  -3  -3 2655.78   43.31
   2  -3  -2 1954.72   33.69
   2  -3  -1 7770.59   63.33
   2  -3   0 1391.33   25.35
   2  -3   1 1642.29   38.92
   2  -3   1 1640.57   33.21
   2  -3   2 1244.61   34.69
   2  -3   2 1162.09   36.43
   2  -3   3  525.40    9.73
   2  -3   3  569.86   24.35
   2  -3   4  697.47   16.31
   2  -3   4  910.10   31.94
   2  -3   5  386.18   19.56
   2  -3   5  379.09   16.00
   2  -3   6  106.62   13.24
   2  -3   6  104.81   11.68
   2  -3   7  150.93   15.43
   2  -2  -2 1515.93   27.90
   2  -2  -1 1774.91   27.66
   2  -2   0 4023.23   38.81
   2  -2   1 4128.48   45.24
   2  -2   2 1501.77   31.60
   2  -2   2 1574.78   40.87
   2  -2   3 1197.73   19.72
   2  -2   3 1123.23   12.15
   2  -2   4  369.87   19.70
   2  -2   4  361.98   12.36
   2  -2   4  338.82   21.64
   2  -2   5  654.95   20.45
   2  -2   5  696.13   26.36
   2  -2   6  378.68   18.78
   2  -2   6  397.53   21.31
   2  -2   7   78.99   12.42
   2  -2   7  100.16   13.68
   2  -2   8   88.66   14.27
   2  -1  -2  656.44   23.45
   2  -1  -2  612.01   23.15
   2  -1  -1  364.39   10.85
   2  -1  -1  382.42   16.09
   2  -1   0 1366.05   17.78
   2  -1   0 1241.50   22.85
   2  -1   1  277.04    9.52
   2  -1   1  269.74    8.42
   2  -1   2  414.56   13.24
   2  -1   2  418.42   21.22
   2  -1   2  431.96   20.79
   2  -1   3 1293.94   17.65
   2  -1   3 1317.63   16.51
   2  -1   3 1355.18   36.33
   2  -1   4 1347.00   23.99
   2  -1   4 1438.83   38.23
   2  -1   5  335.14   14.71
   2  -1   5  363.94   19.76
   2  -1   6  433.53   20.35
   2  -1   6  469.17   23.24
   2  -1   7  765.60   30.13
   2  -1   7  909.28   34.42
   2  -1   8   64.50   13.46
   2  -1   8   57.88   12.55
   2  -1   9  120.53   17.56
   2   0  -2 1058.49   28.33
   2   0  -1 3110.95   46.03
   2   0   0 4446.97   48.40
   2   0   1 1421.40   22.98
   2   0   1 1469.08   35.35
   2   0   2 3273.46   30.20
   2   0   2 3464.89   57.16
   2   0   3  893.24   18.03
   2   0   3  757.72   28.86
   2   0   4 1605.23   42.21
   2   0   4 1457.21   26.52
   2   0   5  604.04   25.40
   2   0   5  537.96   18.97
   2   0   6  149.80   12.68
   2   0   6  161.24   14.72
   2   0   7  241.73   18.42
   2   0   7  283.43   20.73
   2   0   8  508.71   27.42
   2   0   8  571.00   29.83
   2   0   9   82.73   16.40
   2   0   9   96.14   16.82
   2   0  10   15.03   13.01
   2   1  -9    8.30   20.12
   2   1  -3  689.13   24.30
   2   1  -2  484.82   19.06
   2   1  -1 1806.03   29.82
   2   1  -1 1782.75   37.72
   2   1   0 2216.47   38.79
   2   1   0 2063.67   40.15
   2   1   1 2052.56   33.24
   2   1   1 2075.28   33.81
   2   1   1 2020.55   42.50
   2   1   2   90.99    7.61
   2   1   2   94.02    4.25
   2   1   2   80.38   10.75
   2   1   3 3330.06   40.18
   2   1   3 3105.56   51.92
   2   1   4  428.97   16.48
   2   1   4  437.58   21.50
   2   1   5  269.46   17.76
   2   1   5  243.73   14.57
   2   1   6 1178.99   36.64
   2   1   7  602.82   27.83
   2   1   7  710.79   31.40
   2   1   8   79.16   14.32
   2   1   8   64.03   12.56
   2   1   9   83.32   15.50
   2   1   9   73.58   15.92
   2   1  10   81.58   17.20
   2   1  10  113.12   19.10
   2   1  11   12.61   15.77
   2   2  -8    5.73   17.72
   2   2  -7    8.03   14.48
   2   2  -6   90.83   18.62
   2   2  -5  250.27   23.17
   2   2  -4  117.97   16.05
   2   2  -3  395.68   23.11
   2   2  -3  374.41   17.46
   2   2  -2  747.59   27.08
   2   2  -2  875.98   23.21
   2   2   0  159.90   12.17
   2   2   1  826.16   22.17
   2   2   1  852.65   26.22
   2   2   2  580.75   10.93
   2   2   2  595.79   22.77
   2   2   3 2672.08   29.46
   2   2   3 2637.15   40.47
   2   2   3 2565.43   46.39
   2   2   4 4022.67   43.91
   2   2   4 4103.51   54.96
   2   2   5 1861.51   45.58
   2   2   6  295.18   19.66
   2   2   7 2287.63   56.45
   2   2   8  417.76   26.27
   2   2   9  110.93   17.43
   2   2   9  129.27   17.73
   2   2  10  137.36   21.04
   2   2  10  200.56   23.83
   2   2  11  167.98   24.74
   2   2  11  257.37   28.08
   2   2  12   24.57   18.72
   2   3  -8   23.59   21.35
   2   3  -7   54.75   21.04
   2   3  -6   97.49   20.63
   2   3  -5  173.88   22.21
   2   3  -4  413.21   28.16
   2   3  -3  545.87   28.15
   2   3  -3  545.08   18.85
   2   3  -2  856.56   21.10
   2   3   0 1627.37   33.35
   2   3   1 1433.84   32.31
   2   3   1 1460.21   34.59
   2   3   1 1445.29   31.70
   2   3   2 2533.64   31.96
   2   3   2 2676.84   45.58
   2   3   2 2643.27   43.92
   2   3   3 1082.36   20.62
   2   3   3 1107.94   30.34
   2   3   4  522.77   17.19
   2   3   4  501.10   23.31
   2   3   5  425.26   22.32
   2   3   6  247.44   19.25
   2   3   7  289.93   22.02
   2   3   8  585.14   31.31
   2   3   9  126.10   19.13
   2   3  10   20.98   14.27
   2   3  10   -2.48   13.61
   2   3  11  101.33   21.75
   2   3  11   77.86   19.59
   2   3  12   23.69   20.10
   2   3  12   47.10   19.98
   2   4  -2  437.44   16.64
   2   4  -2  471.37   12.90
   2   4  -1  827.37   20.74
   2   4  -1  869.74   17.86
   2   4   0  871.20   20.75
   2   4   1 1451.52   29.29
   2   4   2  937.93   26.22
   2   4   2  883.67   24.49
   2   4   3 1065.38   25.23
   2   4   3 1084.46   29.82
   2   4   4  700.74   20.12
   2   4   4  810.42   28.49
   2   4   5  152.67   14.26
   2   4   6  606.04   28.87
   2   4   7  723.18   30.81
   2   4   8   60.68   14.20
   2   4   9   39.39   13.45
   2   4  10   57.59   17.93
   2   4  11   49.84   18.24
   2   4  11   40.82   18.27
   2   4  12   -8.28   18.38
   2   5   0   50.47    4.50
   2   5   1  233.73   11.23
   2   5   2  574.25   19.83
   2   5   3  340.20   16.82
   2   5   4  538.17   23.79
   2   5   5  655.21   28.02
   2   5   6  223.21   17.46
   2   5   7  452.90   27.35
   2   5   8  528.79   31.31
   2   5   9   64.26   16.59
   2   5  10   49.22   17.32
   2   5  11  144.49   24.57
   2   5  11  147.91   23.69
   2   5  12   28.11   19.06
   2   6   1  253.74   10.60
   2   6   2  543.24   18.31
   2   6   3  295.43   15.39
   2   6   4   21.99    7.68
   2   6   5  134.03   14.45
   2   6   6  171.80   18.54
   2   6   7    3.07    9.53
   2   6   8   10.19   12.08
   2   6   9   36.29   15.39
   2   6  10   -1.42   14.35
   2   6  11   17.05   16.40
   2   6  12   43.33   21.22
   2   7   1   18.83    2.72
   2   7   2  104.89    9.25
   2   7   3  166.29   13.77
   2   7   4  132.76   13.95
   2   7   5  122.10   14.78
   2   7   6  125.65   16.37
   2   7   7  256.50   23.07
   2   7   8   62.56   16.28
   2   7   9   75.03   17.58
   2   7  10   47.33   19.07
   2   7  11  151.31   27.32
   2   8   3   95.16   11.50
   2   8   4   71.48   11.80
   2   8   5   30.11   10.79
   2   8   6  130.52   17.12
   2   8   7   58.24   15.66
   2   8   8  119.42   19.85
   2   8   9   28.67   14.84
   2   8  10   37.25   18.12
   2   8  11    7.33   17.45
   2   9   4   36.33   10.91
   2   9   5  161.03   18.26
   2   9   6   70.95   15.44
   2   9   7   62.84   15.90
   2   9   8    2.41   13.23
   2   9   9   34.49   17.34
   2   9  10   26.57   18.27
   2  10   6    2.23   12.45
   2  10   7    8.50   13.70
   2  10   8    5.30   14.11
   2  10   9   46.23   18.63
   2  10  10   14.34   20.04
   2  11   8   26.34   18.44
   2  11   9   -3.35   18.09
   3 -10  -6  146.98   22.82
   3 -10  -5   40.86   16.61
   3 -10  -4   68.80   18.40
   3 -10  -3   62.78   18.07
   3 -10  -2   37.60   14.96
   3 -10  -1   53.06   16.08
   3 -10   0   33.45   15.89
   3 -10   1   33.59   16.77
   3  -9  -7   30.10   14.96
   3  -9  -6   48.09   15.46
   3  -9  -5   91.01   17.74
   3  -9  -4   83.78   17.33
   3  -9  -3   80.35   15.98
   3  -9  -2  269.83   23.61
   3  -9  -1  156.35   18.78
   3  -9   0   91.98   17.02
   3  -9   1   95.82   17.41
   3  -9   2  113.25   20.20
   3  -9   3   81.77   21.85
   3  -8  -6   94.85   17.31
   3  -8  -5  183.61   20.62
   3  -8  -4  135.45   17.27
   3  -8  -3  186.89   19.81
   3  -8  -2  155.92   17.90
   3  -8  -1  253.35   20.74
   3  -8   0  159.66   18.44
   3  -8   1   91.96   15.20
   3  -8   2  151.27   20.96
   3  -8   3   90.00   19.43
   3  -8   4  100.21   22.88
   3  -7  -6  316.33   23.83
   3  -7  -5  219.43   20.64
   3  -7  -4  250.26   20.36
   3  -7  -3  560.24   28.40
   3  -7  -2  318.02   21.58
   3  -7  -1  308.15   20.60
   3  -7   0  174.52   16.88
   3  -7   1  100.02   14.99
   3  -7   2  207.27   21.64
   3  -7   2  220.16   22.21
   3  -7   3  107.76   19.17
   3  -7   4   36.32   15.65
   3  -7   5   48.09   18.49
   3  -6  -5  101.27   14.42
   3  -6  -4  151.35   16.41
   3  -6  -3  131.12   14.86
   3  -6  -2  394.24   21.80
   3  -6  -1  217.18   16.40
   3  -6   0  249.52   17.63
   3  -6   1  538.39   25.77
   3  -6   2  278.72   22.25
   3  -6   2  245.09   24.62
   3  -6   3  412.53   27.34
   3  -6   3  450.03   27.28
   3  -6   4  147.87   20.11
   3  -6   5  144.74   23.33
   3  -6   6   30.74   20.46
   3  -5  -4  610.60   26.18
   3  -5  -3  711.49   26.96
   3  -5  -2  511.99   23.23
   3  -5  -1  595.26   23.33
   3  -5   0  777.00   27.06
   3  -5   1  404.95   21.37
   3  -5   2  650.56   29.87
   3  -5   2  608.22   34.11
   3  -5   3   71.07   13.22
   3  -5   3   89.02   14.16
   3  -5   4  141.17   19.83
   3  -5   4  121.41   14.59
   3  -5   5  231.42   25.30
   3  -5   5  194.44   16.97
   3  -5   6  108.94   21.23
   3  -5   7   63.45   20.02
   3  -4  -4  507.62   23.45
   3  -4  -3 1289.94   34.22
   3  -4  -2  706.50   23.80
   3  -4  -1  268.61   14.89
   3  -4   0  899.50   25.40
   3  -4   1  632.75   23.27
   3  -4   2  489.54   23.13
   3  -4   2  426.82   28.40
   3  -4   3  887.55   34.41
   3  -4   3  854.55   37.35
   3  -4   4  459.70   27.79
   3  -4   4  456.17   26.46
   3  -4   5  186.96   20.13
   3  -4   5  234.59   19.54
   3  -4   6  573.19   36.93
   3  -4   6  593.23   28.05
   3  -3  -3  346.85   17.49
   3  -3  -2  350.23   17.02
   3  -3  -1  391.09   15.85
   3  -3   0  360.10   14.51
   3  -3   1 2205.43   36.58
   3  -3   2 1048.95   29.72
   3  -3   2 1040.74   42.26
   3  -3   3  881.25   32.33
   3  -3   3  789.70   35.59
   3  -3   4 1095.43   37.56
   3  -3   4 1127.40   40.34
   3  -3   5  616.53   29.60
   3  -3   6   64.66   12.36
   3  -3   7  421.35   25.10
   3  -2  -1 2337.17   34.46
   3  -2   0 3181.31   38.80
   3  -2   0 3202.09   35.99
   3  -2   1 1112.60   22.01
   3  -2   2 1475.39   30.88
   3  -2   2 1420.45   48.71
   3  -2   3  482.43   20.76
   3  -2   3  522.27   29.20
   3  -2   4  268.31   20.61
   3  -2   5  345.07    9.28
   3  -2   5  323.84    9.22
   3  -2   6  424.29   24.34
   3  -2   6  308.65   13.35
   3  -2   7   50.43   11.92
   3  -2   8  160.50   18.34
   3  -2   9   18.61   12.18
   3  -1  -1  460.01   20.96
   3  -1   0 1246.68   19.46
   3  -1   0 1221.70   28.66
   3  -1   1 2193.16   23.41
   3  -1   1 2188.09   33.00
   3  -1   2  654.07   17.46
   3  -1   2  693.70   16.05
   3  -1   3 1185.73   28.19
   3  -1   3 1250.90   43.37
   3  -1   4 1208.45   29.37
   3  -1   4 1142.37   18.28
   3  -1   5  250.23   11.30
   3  -1   5  239.65   10.31
   3  -1   6  326.93   14.59
   3  -1   6  286.53   13.81
   3  -1   7  451.15   20.89
   3  -1   7  516.52   29.07
   3  -1   8   89.21   15.48
   3  -1   9   56.10   13.27
   3  -1  10   81.65   18.51
   3   0   0  914.38   26.81
   3   0   1 1234.07   27.92
   3   0   2 3806.63   52.65
   3   0   2 3855.04   29.47
   3   0   2 3961.28   76.19
   3   0   2 3924.03   45.23
   3   0   3  565.33   21.11
   3   0   3  637.14   17.07
   3   0   3  599.22   30.53
   3   0   4 1728.40   31.97
   3   0   4 1498.95   46.57
   3   0   5 1387.35   27.79
   3   0   5 1555.31   45.38
   3   0   6  234.73   14.51
   3   0   6  244.71   19.16
   3   0   7  225.12   16.00
   3   0   7  262.03   21.77
   3   0   8  261.52   19.97
   3   0   8  330.28   23.62
   3   0   9   69.26   15.70
   3   0  10   11.58   13.08
   3   0  11   22.02   16.39
   3   1  -8   48.55   21.06
   3   1  -7  235.69   28.77
   3   1  -2  299.16   15.93
   3   1   1  352.25   17.08
   3   1   1  308.60   21.76
   3   1   2 1747.05   48.39
   3   1   2 1866.38   36.15
   3   1   3  533.94   18.63
   3   1   3  508.66   10.98
   3   1   3  502.01   26.88
   3   1   4  120.70   11.63
   3   1   4   83.64   12.19
   3   1   5   89.43    9.83
   3   1   5   94.60   14.77
   3   1   6  671.12   30.56
   3   1   7   97.30   14.85
   3   1   8   88.88   13.90
   3   1   8  110.77   16.25
   3   1   9   87.39   15.33
   3   1   9   93.18   17.11
   3   1  10  177.79   23.96
   3   1  11   -1.32   15.68
   3   2  -7   31.49   19.40
   3   2  -6  148.76   23.34
   3   2  -5  113.12   19.51
   3   2  -4   32.57   11.42
   3   2  -3  524.15   26.18
   3   2   1 1726.85   47.18
   3   2   2 2324.74   44.40
   3   2   2 2196.08   53.45
   3   2   3 1357.08   16.82
   3   2   3 1364.26   41.45
   3   2   4 1574.25   24.53
   3   2   4 1574.58   36.48
   3   2   4 1592.50   45.41
   3   2   5 1137.87   25.27
   3   2   5 1312.27   43.06
   3   2   6   32.22   10.97
   3   2   7  914.58   38.47
   3   2   8  109.36   16.26
   3   2   9  176.88   21.11
   3   2  10   66.20   15.86
   3   2  10   79.71   17.55
   3   2  11   40.32   17.89
   3   3  -2  134.84   12.56
   3   3   0  809.61   31.66
   3   3   0  730.31   30.70
   3   3   1  253.99   18.15
   3   3   2 1083.00   36.28
   3   3   3  509.96   13.91
   3   3   3  456.17   22.91
   3   3   4 1441.27   24.30
   3   3   4 1534.88   43.84
   3   3   5 1349.03   28.60
   3   3   5 1431.55   42.70
   3   3   6 1317.21   42.88
   3   3   7  355.29   24.67
   3   3   8  587.61   33.64
   3   3   9  271.92   24.85
   3   3  10   60.95   17.01
   3   3  11   27.77   16.39
   3   3  11   23.01   15.38
   3   4  -1  283.80   18.51
   3   4   0  156.25   14.42
   3   4   0  125.50   14.49
   3   4   1  271.80   17.23
   3   4   2   69.79   10.37
   3   4   3  425.06   15.89
   3   4   3  436.98   22.14
   3   4   4   76.58    7.57
   3   4   4   99.82   12.96
   3   4   5   17.46    8.41
   3   4   5    4.52    5.27
   3   4   6  163.02   17.45
   3   4   7   50.98   11.82
   3   4   8   98.15   16.23
   3   4   9   66.94   13.60
   3   4  10  208.93   26.37
   3   4  11   -1.78   14.93
   3   4  12   35.63   19.26
   3   5  -1  139.82   10.95
   3   5   0  483.61   18.89
   3   5   0  430.24   25.07
   3   5   1  822.77   26.10
   3   5   2 1281.20   38.07
   3   5   3 1016.66   29.30
   3   5   3 1182.94   34.65
   3   5   4  601.54   22.25
   3   5   4  719.32   29.08
   3   5   5  588.63   28.49
   3   5   6  191.75   18.24
   3   5   7  476.47   29.20
   3   5   8  136.90   18.33
   3   5   9   78.26   16.32
   3   5  10    6.67   12.75
   3   5  11   37.62   19.26
   3   5  12  -21.21   18.90
   3   6   0  109.70    8.07
   3   6   1   90.48    9.41
   3   6   2   82.39   10.34
   3   6   3   88.42   11.93
   3   6   4  833.60   30.80
   3   6   5  296.27   20.80
   3   6   6  151.61   17.82
   3   6   7  227.50   22.46
   3   6   8  154.75   18.30
   3   6   9   60.47   17.49
   3   6  10   47.06   17.68
   3   6  11   18.47   16.88
   3   7   2   54.93    8.75
   3   7   3   80.65   11.00
   3   7   4   22.97    9.06
   3   7   5    9.10    9.50
   3   7   6    9.07    8.24
   3   7   7   55.33   13.31
   3   7   8   13.28   12.72
   3   7   9   -0.92   13.08
   3   7  10   14.56   16.28
   3   7  11   28.27   18.74
   3   8   3   83.31   11.85
   3   8   4  213.22   16.91
   3   8   5   27.29   10.35
   3   8   6   87.82   14.69
   3   8   7   81.92   14.88
   3   8   8   68.58   17.18
   3   8   9   -0.11   13.55
   3   8  10   11.26   15.50
   3   8  11   21.01   19.29
   3   9   5   34.14   11.67
   3   9   6    0.03   11.22
   3   9   7    3.67   13.03
   3   9   8   41.09   17.26
   3   9   9    4.28   15.11
   3   9  10   32.96   18.88
   3  10   7   23.42   14.30
   3  10   8   17.00   14.95
   3  10   9   32.23   18.23
   3  10  10   -8.56   18.20
   3  11   9   18.49   18.65
   4 -10  -4   62.36   18.15
   4 -10  -3   66.09   19.78
   4 -10  -2   42.56   16.47
   4 -10  -1   51.39   17.66
   4 -10   0   77.29   18.42
   4  -9  -6   56.34   16.54
   4  -9  -5   78.57   18.33
   4  -9  -4   58.58   16.57
   4  -9  -3   89.37   18.42
   4  -9  -2   63.15   15.73
   4  -9  -1   12.08   12.47
   4  -9   0   68.61   16.39
   4  -9   1   22.95   15.05
   4  -9   2   47.25   15.87
   4  -8  -6   51.57   15.06
   4  -8  -5  181.93   20.98
   4  -8  -4  198.99   21.76
   4  -8  -3  158.10   19.29
   4  -8  -2  189.21   20.24
   4  -8  -1  291.44   22.80
   4  -8   0  238.59   21.16
   4  -8   1  265.08   23.72
   4  -8   2   37.69   12.95
   4  -8   3   49.89   16.07
   4  -8   4   93.20   21.76
   4  -7  -5   67.03   14.21
   4  -7  -4  220.65   21.23
   4  -7  -3  272.12   21.42
   4  -7  -2  121.08   16.12
   4  -7  -1  305.50   21.33
   4  -7   0  371.06   23.05
   4  -7   1  199.78   19.02
   4  -7   2  252.89   21.60
   4  -7   2  253.06   29.46
   4  -7   3  110.28   18.03
   4  -7   4  104.55   21.07
   4  -7   5  101.64   21.33
   4  -6  -4  131.97   15.33
   4  -6  -3  169.89   16.77
   4  -6  -2  447.07   24.28
   4  -6  -1  264.01   18.63
   4  -6   0  275.95   19.06
   4  -6   1  383.61   22.36
   4  -6   2   85.01   13.49
   4  -6   2  102.69   20.64
   4  -6   3  321.13   24.93
   4  -6   3  316.30   29.42
   4  -6   4  250.64   24.52
   4  -6   5   62.98   18.86
   4  -6   6   93.99   22.59
   4  -5  -4  586.36   27.08
   4  -5  -3  156.62   15.11
   4  -5  -2  648.48   25.74
   4  -5  -1  845.08   29.32
   4  -5   0  511.36   22.68
   4  -5   1  246.34   16.96
   4  -5   2  453.19   23.52
   4  -5   2  486.88   35.53
   4  -5   3  170.07   17.81
   4  -5   3  183.16   22.68
   4  -5   4  192.57   20.46
   4  -5   4  185.88   21.37
   4  -5   5  232.46   24.93
   4  -5   5  226.98   21.68
   4  -5   6   27.96   17.95
   4  -5   7   32.46   18.58
   4  -4  -3  413.19   20.04
   4  -4  -2  168.32   14.10
   4  -4  -1  457.94   20.24
   4  -4   0  770.34   24.57
   4  -4   1  313.51   16.84
   4  -4   2  762.34   27.90
   4  -4   2  717.38   42.06
   4  -4   3  671.69   28.88
   4  -4   3  587.35   35.83
   4  -4   4  351.89   24.06
   4  -4   4  351.75   28.40
   4  -4   5   68.20   15.80
   4  -4   5   72.97   14.60
   4  -4   6  276.44   27.38
   4  -4   6  303.20   25.49
   4  -4   7   82.67   19.45
   4  -4   8   60.45   19.76
   4  -3  -2  537.30   20.30
   4  -3  -1 1055.39   26.81
   4  -3   0   89.01    9.98
   4  -3   0  122.35    9.95
   4  -3   1  775.17   21.90
   4  -3   2  270.42   14.97
   4  -3   2  280.11   27.94
   4  -3   3  622.77   24.37
   4  -3   3  604.12   36.50
   4  -3   4  461.61   26.10
   4  -3   4  432.70   29.51
   4  -3   5  458.15   27.14
   4  -3   5  506.24   31.32
   4  -3   6  255.44   23.36
   4  -3   6  336.23   27.39
   4  -3   7  501.64   30.53
   4  -3   8  185.59   20.98
   4  -2  -1  717.43   19.75
   4  -2   0 1113.07   22.88
   4  -2   0 1128.73   31.92
   4  -2   1  148.13    9.34
   4  -2   1  172.03   12.14
   4  -2   2 1231.69   24.96
   4  -2   2 1211.22   51.50
   4  -2   3  564.90   21.25
   4  -2   3  570.33   35.84
   4  -2   4  228.93   17.37
   4  -2   4  212.87   22.58
   4  -2   5  334.37   22.63
   4  -2   5  306.57   25.58
   4  -2   6  195.07   20.73
   4  -2   7   72.25   14.67
   4  -2   8   46.28   14.77
   4  -2   9   67.75   17.50
   4  -1   1 1082.17   17.45
   4  -1   1 1149.97   29.40
   4  -1   2 1298.86   20.56
   4  -1   2 1288.45   51.66
   4  -1   2 1333.03   29.38
   4  -1   3 1349.57   27.51
   4  -1   3 1315.39   24.64
   4  -1   4  892.72   26.57
   4  -1   4  889.35   40.65
   4  -1   4  793.65   17.43
   4  -1   5  273.19   24.31
   4  -1   5  174.90    8.34
   4  -1   6  495.35   15.17
   4  -1   6  882.30   39.09
   4  -1   7  385.01   27.00
   4  -1   8  183.71   21.33
   4  -1   9   90.54   17.72
   4  -1  10   49.68   16.95
   4   0  -2  466.17   16.82
   4   0   2  673.11   37.11
   4   0   2  645.45   23.10
   4   0   3  975.67   17.82
   4   0   3  958.37   42.89
   4   0   3 1006.54   26.56
   4   0   4  457.38   30.38
   4   0   4  523.33   19.47
   4   0   5  534.25   18.49
   4   0   5  525.56   31.08
   4   0   6  301.77   24.66
   4   0   7  492.74   29.99
   4   0   8  234.20   22.98
   4   0   9   85.35   16.29
   4   0  10  101.20   20.97
   4   0  11    6.47   15.49
   4   1  -5   48.12   13.64
   4   1  -4  472.47   27.10
   4   1  -3  747.43   27.73
   4   1   2  889.33   41.26
   4   1   3  368.12   27.60
   4   1   3  360.92   18.54
   4   1   4  533.19   21.09
   4   1   4  553.93   13.57
   4   1   4  530.94   32.61
   4   1   5  113.86   11.45
   4   1   5  110.44   16.01
   4   1   6  266.16   23.88
   4   1   7   21.06   12.03
   4   1   8   47.08   13.54
   4   1   9    2.74   12.78
   4   1  10   18.85   14.69
   4   1  11   25.97   15.74
   4   2   1  361.55   26.98
   4   2   2  166.29   18.11
   4   2   3  416.27   26.66
   4   2   4  109.87    5.75
   4   2   4  130.67   17.55
   4   2   5  510.30   15.90
   4   2   5  592.89   32.41
   4   2   6  480.10   33.17
   4   2   7  522.36   30.61
   4   2   8  105.76   17.65
   4   2   9  151.13   20.35
   4   2  10   57.02   17.83
   4   2  11    3.25   13.88
   4   3   0  884.17   39.41
   4   3   1  351.74   25.03
   4   3   2  327.59   25.38
   4   3   3  506.15   28.92
   4   3   4  686.88   14.87
   4   3   4  727.72   33.28
   4   3   5  151.33    9.21
   4   3   5  167.82   18.46
   4   3   6   49.38   13.27
   4   3   7  174.01   20.02
   4   3   8   16.90   12.50
   4   3   9   73.32   16.79
   4   3  10   49.76   17.71
   4   3  11   53.94   18.02
   4   4  -2   49.25   15.29
   4   4  -1  189.79   19.78
   4   4   0  157.04   17.79
   4   4   1  393.08   25.39
   4   4   2  654.54   31.92
   4   4   3   87.67   14.69
   4   4   4  145.09    9.74
   4   4   4  158.83   16.82
   4   4   5  123.58    8.35
   4   4   5  211.38   23.15
   4   4   6  200.89   19.51
   4   4   7   21.15   11.76
   4   4   8  341.68   28.10
   4   4   9  146.23   20.80
   4   4  10   61.52   18.17
   4   4  11   40.62   17.28
   4   5  -1   92.28   14.66
   4   5   0  353.36   22.78
   4   5   1   62.83   12.02
   4   5   2   16.60    9.68
   4   5   3  270.87   19.74
   4   5   4   86.81   10.01
   4   5   4  134.32   16.67
   4   5   5  243.03   21.05
   4   5   6  274.88   23.40
   4   5   7  303.19   25.27
   4   5   8   32.05   13.44
   4   5   9   89.39   18.89
   4   5  10   59.78   18.16
   4   5  11   22.11   16.76
   4   6   1  209.98   16.75
   4   6   2  332.91   21.37
   4   6   3  116.23   14.17
   4   6   4  667.89   30.41
   4   6   5  206.61   19.20
   4   6   6   29.73   12.55
   4   6   7  159.53   19.10
   4   6   8   60.97   16.11
   4   6   9   46.24   17.11
   4   6  10   19.74   14.42
   4   6  11    8.90   16.81
   4   7   3   63.97   12.58
   4   7   4   19.72   10.96
   4   7   5   92.93   14.72
   4   7   6  126.69   17.06
   4   7   7  -14.65   12.40
   4   7   8   65.92   17.56
   4   7   9   49.32   15.12
   4   7  10   21.86   17.68
   4   7  11   13.94   18.68
   4   8   4   41.87   12.51
   4   8   5   19.06   11.52
   4   8   6   29.16   12.62
   4   8   7   33.29   14.35
   4   8   8  -10.28   13.45
   4   8   9   32.61   16.65
   4   8  10   25.65   16.62
   4   9   6   17.12   13.21
   4   9   7    1.28   12.58
   4   9   8    8.96   14.29
   4   9   9   15.30   15.84
   4   9  10   12.31   18.37
   4  10   8   25.18   17.49
   4  10   9    4.92   17.15
   5  -9  -5   15.77   15.22
   5  -9  -4   50.45   18.60
   5  -9  -3   41.80   15.44
   5  -9  -2   68.74   18.43
   5  -9  -1   34.90   16.06
   5  -9   0   90.37   18.99
   5  -9   1   46.53   16.32
   5  -8  -5   88.26   17.46
   5  -8  -4   67.54   16.74
   5  -8  -3   84.86   17.25
   5  -8  -2  101.09   17.51
   5  -8  -1  159.99   20.28
   5  -8   0    2.58   12.28
   5  -8   1  115.43   28.75
   5  -8   1   71.96   16.43
   5  -8   2   76.80   18.04
   5  -8   3   89.83   18.49
   5  -7  -4  217.31   21.18
   5  -7  -3  155.39   19.46
   5  -7  -2  103.92   15.78
   5  -7  -1  120.31   16.65
   5  -7   0  168.07   18.61
   5  -7   1  150.53   17.41
   5  -7   2  270.90   24.05
   5  -7   2  231.97   32.52
   5  -7   3  103.04   15.67
   5  -7   4   30.12   14.84
   5  -7   5   59.55   19.14
   5  -6  -4    6.93   11.01
   5  -6  -3  127.00   15.87
   5  -6  -2  265.78   20.17
   5  -6  -1  193.46   18.16
   5  -6   0  231.58   18.58
   5  -6   1  287.20   20.46
   5  -6   2  267.47   21.04
   5  -6   2  287.02   33.48
   5  -6   3  212.65   19.72
   5  -6   3  204.36   27.97
   5  -6   4  157.65   20.02
   5  -6   4  147.40   24.61
   5  -6   5   91.58   19.64
   5  -6   6  119.83   23.05
   5  -5  -3  228.45   17.92
   5  -5  -2  261.32   19.00
   5  -5  -1  315.77   18.50
   5  -5   0  344.87   20.30
   5  -5   1  525.82   23.78
   5  -5   2  337.38   20.69
   5  -5   2  336.02   35.36
   5  -5   3  287.74   20.63
   5  -5   3  268.43   30.71
   5  -5   4  251.01   22.19
   5  -5   4  230.60   27.85
   5  -5   5  206.58   22.09
   5  -5   5  222.30   26.46
   5  -5   6   49.92   17.15
   5  -5   7   65.31   21.04
   5  -4  -2  341.77   19.03
   5  -4  -1  190.34   14.78
   5  -4   0  538.27   22.46
   5  -4   1  208.92   14.37
   5  -4   2  229.63   15.95
   5  -4   2  209.39   29.61
   5  -4   3   30.79   16.74
   5  -4   3   61.34   10.86
   5  -4   4   94.01   20.99
   5  -4   4  119.30   16.22
   5  -4   5  147.18   18.31
   5  -4   5  154.21   22.82
   5  -4   6  162.52   21.72
   5  -4   6  136.51   22.52
   5  -4   7   43.47   15.98
   5  -4   7   30.01   17.92
   5  -4   8   80.16   22.72
   5  -3  -1  547.30   20.04
   5  -3   0  284.37   14.91
   5  -3   1  816.46   23.80
   5  -3   2  385.14   16.90
   5  -3   2  395.26   35.39
   5  -3   3  787.11   25.84
   5  -3   3  728.57   45.69
   5  -3   4  541.88   26.24
   5  -3   4  475.02   37.58
   5  -3   5  281.03   21.57
   5  -3   5  287.53   27.99
   5  -3   6  182.56   23.21
   5  -3   6  153.04   21.45
   5  -3   7  110.31   20.89
   5  -3   7  110.66   20.75
   5  -3   8    3.57   13.50
   5  -3   8   20.90   15.97
   5  -3   9   32.43   19.36
   5  -2   0  552.52   16.63
   5  -2   1  672.11   17.67
   5  -2   2  182.14   10.28
   5  -2   2  174.74   24.95
   5  -2   3  340.82   14.10
   5  -2   3  388.76   33.86
   5  -2   4  364.37   19.42
   5  -2   4  360.94   32.49
   5  -2   5  412.16   23.87
   5  -2   5  389.01   32.31
   5  -2   6   52.62   15.92
   5  -2   6   36.00   12.50
   5  -2   7  216.58   22.58
   5  -2   7  211.55   26.57
   5  -2   8  161.05   21.85
   5  -2   9   59.76   19.38
   5  -1   2  276.50    8.67
   5  -1   2  334.31   31.13
   5  -1   3  335.88   11.34
   5  -1   3  306.87   30.42
   5  -1   3  366.52   17.99
   5  -1   4  172.73   12.18
   5  -1   4  174.48   24.47
   5  -1   5  138.73   15.13
   5  -1   5  114.07   20.06
   5  -1   6  252.85   19.88
   5  -1   6  247.88   24.87
   5  -1   7   39.43   16.55
   5  -1   8  113.11   18.33
   5  -1   9   83.27   19.51
   5  -1  10   19.33   16.08
   5   0   2  574.49   39.56
   5   0   3 1864.69   66.16
   5   0   4 1396.39   24.20
   5   0   4 1282.62   55.14
   5   0   5  647.00   22.50
   5   0   5  621.29   38.53
   5   0   6  368.24   29.37
   5   0   7  402.96   32.78
   5   0   8  152.07   21.41
   5   0   9   34.55   16.58
   5   0  10   23.07   15.84
   5   1   1  498.15   36.43
   5   1   2  189.37   23.88
   5   1   3  125.68   20.25
   5   1   4  442.55   32.69
   5   1   5  359.99   30.04
   5   1   6   86.35   17.23
   5   1   7  231.64   26.29
   5   1   8  250.32   25.35
   5   1   9   65.33   17.54
   5   1  10   56.97   18.18
   5   2   1  144.71   22.33
   5   2   2  594.64   38.47
   5   2   3  560.37   36.75
   5   2   4  245.47   25.62
   5   2   5  112.30   20.00
   5   2   6  233.87   24.04
   5   2   7   93.36   18.03
   5   2   8    7.22   12.55
   5   2   9   71.39   17.61
   5   2  10   -2.42   14.51
   5   2  11   17.36   17.26
   5   3   0  390.87   31.89
   5   3   1  314.33   29.17
   5   3   2   92.86   17.13
   5   3   3  964.28   44.25
   5   3   4  646.98   37.15
   5   3   5   72.26   15.75
   5   3   6  267.90   25.32
   5   3   7  253.83   24.41
   5   3   8  140.61   20.38
   5   3   9   14.91   14.82
   5   3  10   30.80   16.83
   5   3  11   -8.67   17.29
   5   4  -1  148.46   22.57
   5   4   0   28.64   14.40
   5   4   1   66.17   17.30
   5   4   2  165.41   20.53
   5   4   3   12.05   11.45
   5   4   4  277.13   23.85
   5   4   5  127.50   18.56
   5   4   6  133.85   22.37
   5   4   7   12.39   13.19
   5   4   8   27.68   14.82
   5   4   9   47.09   17.92
   5   4  10    9.41   14.59
   5   4  11   46.18   20.20
   5   5   0   32.48   15.18
   5   5   1   16.28   13.31
   5   5   2   37.88   14.13
   5   5   3  390.39   27.29
   5   5   4   72.68   15.38
   5   5   5   43.68   16.71
   5   5   6   38.20   13.35
   5   5   7   75.13   16.76
   5   5   8   -5.14   13.25
   5   5   9   24.48   14.53
   5   5  10   64.16   20.24
   5   6   2  103.24   15.93
   5   6   3    5.67   12.00
   5   6   4  143.61   19.92
   5   6   5   25.81   12.69
   5   6   6   16.21   12.99
   5   6   7  137.74   20.48
   5   6   8   25.52   15.13
   5   6   9   10.43   13.84
   5   6  10   14.54   17.28
   5   7   3   10.37   10.98
   5   7   4   10.58   11.24
   5   7   5   77.22   15.82
   5   7   6   97.73   18.56
   5   7   7   36.11   14.09
   5   7   8   14.73   14.27
   5   7   9   13.79   16.04
   5   7  10   29.87   17.83
   5   8   5   21.44   12.54
   5   8   6   10.60   13.02
   5   8   7    3.69   13.80
   5   8   8   21.35   15.92
   5   8   9   29.46   16.70
   5   8  10  -12.74   16.81
   5   9   7   11.75   14.30
   5   9   8   -1.94   14.19
   5   9   9    2.38   15.96
   6  -8   1  100.12   32.31
   6  -7   1  149.58   33.63
   6  -7   2   42.96   23.62
   6  -6   2  222.21   37.57
   6  -6   3  280.68   36.64
   6  -6   4  163.85   29.03
   6  -5   2   74.91   25.77
   6  -5   3  162.81   29.18
   6  -5   4  208.56   32.09
   6  -5   5   28.69   20.44
   6  -4   2  475.32   44.96
   6  -4   3  204.83   31.35
   6  -4   4  114.75   25.27
   6  -4   5  214.04   30.52
   6  -4   6   69.66   21.18
   6  -4   7   27.84   19.52
   6  -3   2  357.05   39.64
   6  -3   3  509.66   43.39
   6  -3   4  109.12   26.04
   6  -3   5  122.39   25.29
   6  -3   6  230.09   29.18
   6  -3   7  154.87   24.81
   6  -3   8   67.38   20.64
   6  -2   2  242.52   33.30
   6  -2   3  322.18   35.32
   6  -2   4  241.11   30.95
   6  -2   5  109.64   23.75
   6  -2   6   63.57   20.69
   6  -2   7   58.92   19.31
   6  -2   8   40.83   18.77
   6  -2   9   18.67   18.32
   6  -1   2  471.14   41.39
   6  -1   3  172.83   27.59
   6  -1   4  113.00   24.83
   6  -1   5  143.67   24.53
   6  -1   6  296.49   32.24
   6  -1   7   30.23   17.50
   6  -1   8   20.64   18.15
   6  -1   9   31.76   18.00
   6   0   2   94.62   23.82
   6   0   3  325.66   33.08
   6   0   4  170.90   27.92
   6   0   5   15.09   14.61
   6   0   6  152.37   25.15
   6   0   7  206.96   26.75
   6   0   8   38.09   18.60
   6   0   9   42.11   18.67
   6   1   1  700.58   48.50
   6   1   2  170.39   26.91
   6   1   3   74.05   19.16
   6   1   4  283.86   31.60
   6   1   5  311.68   31.05
   6   1   6  120.12   21.71
   6   1   7   45.63   16.64
   6   1   8   82.87   22.02
   6   1   9   27.87   16.08
   6   1  10   49.31   20.80
   6   2   0   18.18   18.11
   6   2   1   30.92   17.90
   6   2   2  181.92   25.76
   6   2   3   58.45   18.89
   6   2   4  124.03   22.67
   6   2   5  125.66   22.36
   6   2   6  100.78   19.99
   6   2   7  121.26   22.85
   6   2   8   31.98   16.10
   6   2   9   98.47   21.49
   6   2  10   44.68   20.68
   6   3  -2   33.69   21.76
   6   3  -1   72.75   22.50
   6   3   0  303.96   33.95
   6   3   1  500.98   39.49
   6   3   2   77.58   20.21
   6   3   3   93.10   19.94
   6   3   4  317.17   30.48
   6   3   5   95.67   20.51
   6   3   6  116.85   21.56
   6   3   7   52.14   19.23
   6   3   8  111.35   22.39
   6   3   9   39.17   16.96
   6   3  10   29.29   18.42
   6   4   0   33.67   17.70
   6   4   1  195.25   27.00
   6   4   2  136.65   22.07
   6   4   3    9.11   14.62
   6   4   4  149.41   23.53
   6   4   5  115.49   19.83
   6   4   6   19.00   15.34
   6   4   7    4.59   15.48
   6   4   8   27.89   16.24
   6   4   9   20.44   17.10
   6   4  10   31.42   20.24
   6   5   1    1.10   15.75
   6   5   2    0.10   15.21
   6   5   3   54.48   17.86
   6   5   4   32.72   15.15
   6   5   5   82.39   17.67
   6   5   6   26.60   18.80
   6   5   7   85.86   19.68
   6   5   8   55.14   18.99
   6   5   9   55.82   19.63
   6   5  10   15.44   16.81
   6   6   3    7.16   14.27
   6   6   4  106.16   20.74
   6   6   5   15.72   14.79
   6   6   6    6.91   13.02
   6   6   7   24.15   15.38
   6   6   8    5.00   14.32
   6   6   9   42.91   20.05
   6   7   4   24.31   14.78
   6   7   5    2.78   12.77
   6   7   6    1.46   14.09
   6   7   7   34.05   17.55
   6   7   8   25.05   17.06
   6   7   9   -5.81   16.17
   6   8   6   19.91   16.25
   6   8   7   56.60   18.22
   6   8   8   72.32   20.75
   6   8   9   27.18   19.18
   6   9   8   -0.57   17.64
   7  -6   1   51.26   27.91
   7  -6   2  142.93   35.98
   7  -6   3  138.34   34.00
   7  -6   4   13.46   23.34
   7  -5   1  207.56   39.09
   7  -5   2   82.68   31.04
   7  -5   3  177.99   34.50
   7  -5   4  236.78   38.32
   7  -5   5   62.66   26.49
   7  -4   2   62.78   27.20
   7  -4   3   23.16   23.51
   7  -4   4   56.25   26.66
   7  -4   5   65.25   25.75
   7  -4   6   57.63   24.84
   7  -3   2  179.46   36.47
   7  -3   3  428.89   46.96
   7  -3   4  161.19   32.37
   7  -3   5  135.59   30.12
   7  -3   6   84.62   28.30
   7  -3   7   60.77   24.21
   7  -2   2  184.60   33.99
   7  -2   3  209.06   34.76
   7  -2   4  424.73   43.07
   7  -2   5  208.77   32.77
   7  -2   6   42.75   24.27
   7  -2   7   71.54   23.23
   7  -1   1   73.03   25.35
   7  -1   2  139.55   30.73
   7  -1   3   65.36   22.87
   7  -1   4   88.59   25.58
   7  -1   5    5.94   18.85
   7  -1   6  120.98   27.01
   7  -1   7    1.51   17.71
   7  -1   8   90.80   25.78
   7   0   1  100.24   27.34
   7   0   2   97.42   27.97
   7   0   3  220.55   32.66
   7   0   4   79.84   24.85
   7   0   5  182.19   30.15
   7   0   6   -4.71   18.54
   7   0   7   81.46   23.23
   7   0   8   67.53   23.18
   7   1   0   87.65   28.03
   7   1   1  100.43   27.09
   7   1   2  120.29   27.94
   7   1   3  201.73   31.08
   7   1   4   88.98   24.25
   7   1   5   10.93   18.55
   7   1   6   75.23   22.91
   7   1   7  -11.14   17.85
   7   1   8    9.29   18.96
   7   2  -1   44.00   26.86
   7   2   0   33.25   23.79
   7   2   1    0.67   21.95
   7   2   2   24.61   20.69
   7   2   3   17.52   21.24
   7   2   4   26.20   20.09
   7   2   5  -12.35   18.30
   7   2   6   68.33   21.42
   7   2   7  167.59   27.60
   7   2   8  113.57   27.39
   7   3  -1   49.44   26.67
   7   3   0   60.27   25.84
   7   3   1   31.80   21.77
   7   3   2   60.00   22.66
   7   3   3   85.40   22.61
   7   3   4   34.71   20.03
   7   3   5   82.19   23.90
   7   3   6   40.06   18.44
   7   3   7   11.15   16.53
   7   3   8   34.27   20.46
   7   4   1   94.61   27.33
   7   4   2   72.24   22.64
   7   4   3   81.18   22.77
   7   4   4   97.34   24.08
   7   4   5   15.34   16.75
   7   4   6  129.20   25.35
   7   4   7   31.02   20.14
   7   4   8   25.18   19.13
   7   5   2    3.81   18.88
   7   5   3   -1.22   18.90
   7   5   4   -1.06   15.81
   7   5   5   37.28   19.73
   7   5   6   22.01   19.60
   7   5   7   94.49   22.04
   7   5   8   26.79   18.16
   7   6   4   41.12   18.40
   7   6   5   16.42   19.19
   7   6   6   61.56   19.97
   7   6   7   14.36   17.12
   7   6   8   19.31   19.00
   7   7   5   38.46   19.06
   7   7   6   41.83   18.87
   7   7   7    3.82   17.93
   8  -2   2   99.29   33.01
   8  -2   3   21.92   28.95
   8  -1   1   85.83   33.09
   8  -1   2   46.19   30.37
   8  -1   3   -2.81   25.47
   8  -1   4  101.40   32.18
   8   0   0   29.00   31.00
   8   0   1   66.45   32.64
   8   0   2   23.00   25.49
   8   0   3  140.24   33.45
   8   0   4   86.61   30.04
   8   0   5  144.00   32.89
   8   1   0  234.33   43.46
   8   1   1   77.27   31.31
   8   1   2   34.46   26.15
   8   1   3   17.51   23.81
   8   1   4   17.95   24.19
   8   1   5  119.92   30.27
   8   2   0   74.79   32.39
   8   2   1   38.19   27.69
   8   2   2   19.06   24.73
   8   2   3   17.85   23.90
   8   2   4  170.93   32.40
   8   2   5   12.43   20.78
   8   2   6   60.96   24.60
   8   3   1    7.49   25.64
   8   3   2    7.08   25.26
   8   3   3   45.10   25.32
   8   3   4   18.79   22.64
   8   3   5   83.76   27.17
   8   3   6   20.19   21.70
   8   4   2   30.31   26.07
   8   4   3   17.52   22.90
   8   4   4   11.10   23.08
   8   4   5   36.31   21.78
   8   5   4   21.84   20.63
   8   5   5   90.95   24.48

TITL 2014sot0049_K_100K in P1
REM P1 (#1 in standard setting)
CELL 0.71073   6.096292   8.701438   8.705039  66.5157  73.3601  87.8307
ZERR    2.00   0.000340   0.000799   0.000811   0.0088   0.0064   0.0058
LATT -1
SFAC C H N O
UNIT 22.00 20.00 2.00 2.00
TREF
HKLF 4
END
_computing_structure_solution     'SHELXT 2014/4 (Sheldrick, 2014)'
;
_shelx_hkl_checksum              95915
_shelx_shelxl_version_number     2014/7
_olex2_date_sample_submission    30/10/14
_olex2_diffrn_ambient_temperature_device 'Oxford Cryosystems'
_olex2_exptl_crystal_mounting_method
'The crystal was mounted on a MITIGEN holder in perfluoroether oil'
_olex2_submission_original_sample_id JM7190-57f2
_olex2_submission_special_instructions 'No special instructions were received'
loop_
_space_group_symop_operation_xyz
'x, y, z'
loop_
_atom_site_label
_atom_site_type_symbol
_atom_site_fract_x
_atom_site_fract_y
_atom_site_fract_z
_atom_site_U_iso_or_equiv
_atom_site_adp_type
_atom_site_occupancy
_atom_site_site_symmetry_order
_atom_site_calc_flag
_atom_site_refinement_flags_posn
Br1 Br 0.29639(6) 0.88901(6) 0.34111(6) 0.0468(2) Uani 1 1 d .
O1 O 0.4651(6) 0.5348(5) 0.6695(5) 0.0223(7) Uani 1 1 d .
O2 O 0.1289(7) 0.4755(6) 0.6367(6) 0.0344(10) Uani 1 1 d .
O3 O 0.3377(6) 0.5329(6) 0.2957(6) 0.0321(9) Uani 1 1 d D
O4 O 0.8638(6) 0.5217(5) 0.4048(5) 0.0274(8) Uani 1 1 d D
C1 C 0.3779(9) 0.4972(7) 0.8603(7) 0.0252(11) Uani 1 1 d .
C2 C 0.2173(9) 0.6244(9) 0.8872(8) 0.0338(13) Uani 1 1 d .
H2A H 0.2711 0.7322 0.7920 0.051 Uiso 1 1 calc GR
H2B H 0.2109 0.6315 0.9956 0.051 Uiso 1 1 calc GR
H2C H 0.0666 0.5913 0.8912 0.051 Uiso 1 1 calc GR
C3 C 0.2669(11) 0.3177(8) 0.9621(9) 0.0368(14) Uani 1 1 d .
H3A H 0.1305 0.3079 0.9314 0.055 Uiso 1 1 calc GR
H3B H 0.2274 0.2902 1.0856 0.055 Uiso 1 1 calc GR
H3C H 0.3729 0.2418 0.9337 0.055 Uiso 1 1 calc GR
C4 C 0.5957(9) 0.5146(8) 0.9037(8) 0.0290(12) Uani 1 1 d .
H4A H 0.6962 0.4329 0.8826 0.043 Uiso 1 1 calc GR
H4B H 0.5588 0.4963 1.0249 0.043 Uiso 1 1 calc GR
H4C H 0.6707 0.6255 0.8314 0.043 Uiso 1 1 calc GR
C5 C 0.3294(8) 0.5203(6) 0.5799(7) 0.0220(10) Uani 1 1 d .
C6 C 0.4692(9) 0.5682(8) 0.3874(7) 0.0261(11) Uani 1 1 d .
C7 C 0.5612(9) 0.7570(7) 0.3018(7) 0.0254(11) Uani 1 1 d .
H7 H 0.6671 0.7722 0.3617 0.030 Uiso 1 1 calc R
C8 C 0.6844(12) 0.8215(8) 0.1098(9) 0.0355(14) Uani 1 1 d .
H8A H 0.5748 0.8243 0.0472 0.043 Uiso 1 1 calc R
H8B H 0.7968 0.7446 0.0892 0.043 Uiso 1 1 calc R
C9 C 0.8057(12) 0.9968(9) 0.0371(10) 0.0457(16) Uani 1 1 d .
H9A H 0.8780 1.0337 -0.0867 0.068 Uiso 1 1 calc GR
H9B H 0.9201 0.9937 0.0943 0.068 Uiso 1 1 calc GR
H9C H 0.6955 1.0734 0.0579 0.068 Uiso 1 1 calc GR
C10 C 0.6749(9) 0.4596(7) 0.3742(7) 0.0263(11) Uani 1 1 d .
H10 H 0.7271 0.4698 0.2528 0.032 Uiso 1 1 calc R
C11 C 0.6092(10) 0.2754(7) 0.4886(8) 0.0292(12) Uani 1 1 d .
H11A H 0.4712 0.2418 0.4714 0.035 Uiso 1 1 calc R
H11B H 0.5728 0.2592 0.6104 0.035 Uiso 1 1 calc R
C12 C 0.7937(12) 0.1616(8) 0.4535(9) 0.0410(15) Uani 1 1 d .
H12A H 0.9353 0.1997 0.4623 0.049 Uiso 1 1 calc R
H12B H 0.8218 0.1705 0.3347 0.049 Uiso 1 1 calc R
C13 C 0.7289(15) -0.0228(9) 0.5808(10) 0.0493(18) Uani 1 1 d .
H13A H 0.8517 -0.0889 0.5538 0.074 Uiso 1 1 calc GR
H13B H 0.5916 -0.0625 0.5699 0.074 Uiso 1 1 calc GR
H13C H 0.7025 -0.0328 0.6987 0.074 Uiso 1 1 calc GR
H3 H 0.200(6) 0.530(12) 0.350(11) 0.074 Uiso 1 1 d DR
H4 H 0.870(16) 0.476(11) 0.507(5) 0.074 Uiso 1 1 d DR
loop_
_atom_site_aniso_label
_atom_site_aniso_U_11
_atom_site_aniso_U_22
_atom_site_aniso_U_33
_atom_site_aniso_U_23
_atom_site_aniso_U_13
_atom_site_aniso_U_12
Br1 0.0402(4) 0.0521(4) 0.0407(3) -0.0134(3) -0.0113(3) 0.0210(3)
O1 0.0114(16) 0.038(2) 0.0178(18) -0.0119(16) -0.0045(14) 0.0007(14)
O2 0.0159(18) 0.064(3) 0.023(2) -0.019(2) -0.0040(16) -0.0035(17)
O3 0.0120(17) 0.063(3) 0.025(2) -0.022(2) -0.0047(16) -0.0006(17)
O4 0.0126(17) 0.039(2) 0.027(2) -0.0097(18) -0.0056(16) -0.0022(15)
C1 0.017(2) 0.040(3) 0.016(2) -0.011(2) -0.002(2) 0.000(2)
C2 0.018(3) 0.061(4) 0.029(3) -0.026(3) -0.006(2) 0.011(2)
C3 0.034(3) 0.043(3) 0.027(3) -0.006(3) -0.008(3) -0.008(3)
C4 0.022(3) 0.046(3) 0.023(3) -0.016(2) -0.008(2) 0.002(2)
C5 0.014(2) 0.033(3) 0.020(3) -0.011(2) -0.007(2) 0.0030(19)
C6 0.013(2) 0.048(3) 0.021(3) -0.018(2) -0.005(2) -0.002(2)
C7 0.018(2) 0.035(3) 0.022(3) -0.011(2) -0.006(2) 0.006(2)
C8 0.034(3) 0.040(3) 0.028(3) -0.010(3) -0.009(3) 0.003(3)
C9 0.044(4) 0.047(4) 0.038(4) -0.009(3) -0.012(3) 0.000(3)
C10 0.017(2) 0.042(3) 0.022(3) -0.016(2) -0.005(2) -0.001(2)
C11 0.021(3) 0.037(3) 0.028(3) -0.012(2) -0.006(2) -0.001(2)
C12 0.033(3) 0.042(4) 0.034(3) -0.010(3) 0.004(3) -0.002(3)
C13 0.055(5) 0.040(4) 0.042(4) -0.016(3) 0.002(4) -0.001(3)
loop_
_atom_type_symbol
_atom_type_description
_atom_type_scat_dispersion_real
_atom_type_scat_dispersion_imag
_atom_type_scat_source
C C 0.0033 0.0016 'International Tables Vol C Tables 4.2.6.8 and 6.1.1.4'
H H 0.0000 0.0000 'International Tables Vol C Tables 4.2.6.8 and 6.1.1.4'
Br Br -0.2901 2.4595 'International Tables Vol C Tables 4.2.6.8 and 6.1.1.4'
O O 0.0106 0.0060 'International Tables Vol C Tables 4.2.6.8 and 6.1.1.4'
loop_
_geom_angle_atom_site_label_1
_geom_angle_atom_site_label_2
_geom_angle_atom_site_label_3
_geom_angle
C5 O1 C1 122.3(4)
C6 O3 H3 107(7)
C10 O4 H4 115(7)
O1 C1 C2 109.3(5)
O1 C1 C3 110.0(4)
O1 C1 C4 102.3(4)
C2 C1 C3 112.7(5)
C2 C1 C4 111.6(5)
C4 C1 C3 110.4(5)
C1 C2 H2A 109.5
C1 C2 H2B 109.5
C1 C2 H2C 109.5
H2A C2 H2B 109.5
H2A C2 H2C 109.5
H2B C2 H2C 109.5
C1 C3 H3A 109.5
C1 C3 H3B 109.5
C1 C3 H3C 109.5
H3A C3 H3B 109.5
H3A C3 H3C 109.5
H3B C3 H3C 109.5
C1 C4 H4A 109.5
C1 C4 H4B 109.5
C1 C4 H4C 109.5
H4A C4 H4B 109.5
H4A C4 H4C 109.5
H4B C4 H4C 109.5
O1 C5 C6 109.8(4)
O2 C5 O1 126.5(5)
O2 C5 C6 123.6(5)
O3 C6 C5 110.9(4)
O3 C6 C7 111.7(5)
O3 C6 C10 104.8(4)
C5 C6 C7 109.6(4)
C5 C6 C10 110.7(4)
C10 C6 C7 109.1(4)
Br1 C7 H7 108.4
C6 C7 Br1 107.7(3)
C6 C7 H7 108.4
C8 C7 Br1 109.4(4)
C8 C7 C6 114.3(5)
C8 C7 H7 108.4
C7 C8 H8A 109.0
C7 C8 H8B 109.0
C7 C8 C9 112.7(6)
H8A C8 H8B 107.8
C9 C8 H8A 109.0
C9 C8 H8B 109.0
C8 C9 H9A 109.5
C8 C9 H9B 109.5
C8 C9 H9C 109.5
H9A C9 H9B 109.5
H9A C9 H9C 109.5
H9B C9 H9C 109.5
O4 C10 C6 111.8(4)
O4 C10 H10 106.6
O4 C10 C11 111.8(4)
C6 C10 H10 106.6
C11 C10 C6 112.9(4)
C11 C10 H10 106.6
C10 C11 H11A 108.7
C10 C11 H11B 108.7
C10 C11 C12 114.2(5)
H11A C11 H11B 107.6
C12 C11 H11A 108.7
C12 C11 H11B 108.7
C11 C12 H12A 109.0
C11 C12 H12B 109.0
C11 C12 C13 112.9(6)
H12A C12 H12B 107.8
C13 C12 H12A 109.0
C13 C12 H12B 109.0
C12 C13 H13A 109.5
C12 C13 H13B 109.5
C12 C13 H13C 109.5
H13A C13 H13B 109.5
H13A C13 H13C 109.5
H13B C13 H13C 109.5
loop_
_geom_bond_atom_site_label_1
_geom_bond_atom_site_label_2
_geom_bond_distance
Br1 C7 1.975(5)
O1 C1 1.491(6)
O1 C5 1.328(6)
O2 C5 1.194(6)
O3 C6 1.398(6)
O3 H3 0.84(2)
O4 C10 1.424(6)
O4 H4 0.83(2)
C1 C2 1.494(8)
C1 C3 1.522(8)
C1 C4 1.509(7)
C2 H2A 0.9600
C2 H2B 0.9600
C2 H2C 0.9600
C3 H3A 0.9600
C3 H3B 0.9600
C3 H3C 0.9600
C4 H4A 0.9600
C4 H4B 0.9600
C4 H4C 0.9600
C5 C6 1.536(7)
C6 C7 1.556(8)
C6 C10 1.547(7)
C7 H7 0.9800
C7 C8 1.496(8)
C8 H8A 0.9700
C8 H8B 0.9700
C8 C9 1.524(9)
C9 H9A 0.9600
C9 H9B 0.9600
C9 H9C 0.9600
C10 H10 0.9800
C10 C11 1.506(8)
C11 H11A 0.9700
C11 H11B 0.9700
C11 C12 1.517(9)
C12 H12A 0.9700
C12 H12B 0.9700
C12 C13 1.529(10)
C13 H13A 0.9600
C13 H13B 0.9600
C13 H13C 0.9600
loop_
_geom_hbond_atom_site_label_D
_geom_hbond_atom_site_label_H
_geom_hbond_atom_site_label_A
_geom_hbond_distance_DH
_geom_hbond_distance_HA
_geom_hbond_distance_DA
_geom_hbond_angle_DHA
_geom_hbond_site_symmetry_A
O3 H3 O4 0.84(2) 1.96(4) 2.763(5) 160(9) 1_455
O4 H4 O2 0.83(2) 2.18(7) 2.832(5) 135(8) 1_655
