#------------------------------------------------------------------------------
#$Date: 2019-11-23 23:02:59 +0200 (Sat, 23 Nov 2019) $
#$Revision: 235491 $
#$URL: file:///home/coder/svn-repositories/cod/cif/4/03/69/4036969.cif $
#------------------------------------------------------------------------------
#
# This file is available in the Crystallography Open Database (COD),
# http://www.crystallography.net/
#
# All data on this site have been placed in the public domain by the
# contributors.
#
data_4036969
loop_
_publ_author_name
'Klap\"otke, Thomas M'
'Krumm, Burkhard'
'Pfl\"uger, Carolin'
_publ_section_title
;
 Isolation of a Moderately Stable but Sensitive Zwitterionic Diazonium
 Tetrazolyl-1,2,3-triazolate.
;
_journal_issue                   14
_journal_name_full               'The Journal of organic chemistry'
_journal_page_first              6123
_journal_page_last               6127
_journal_paper_doi               10.1021/acs.joc.6b01098
_journal_volume                  81
_journal_year                    2016
_chemical_formula_moiety         'C3 H N9, H2 O'
_chemical_formula_sum            'C3 H3 N9 O'
_chemical_formula_weight         181.14
_chemical_name_systematic
'5-(5-diazonium-1,2,3-triazolat-4-yl)-1H-tetrazole hydrate'
_space_group_crystal_system      monoclinic
_space_group_IT_number           14
_space_group_name_Hall           '-P 2yn'
_space_group_name_H-M_alt        'P 1 21/n 1'
_atom_sites_solution_hydrogens   difmap
_audit_creation_date
;
'Thu Mar 10 18:26:00 2016'
;
_audit_creation_method           SHELXL-2014/7
_cell_angle_alpha                90
_cell_angle_beta                 102.281(6)
_cell_angle_gamma                90
_cell_formula_units_Z            4
_cell_length_a                   8.200(4)
_cell_length_b                   6.899(4)
_cell_length_c                   12.679(8)
_cell_measurement_reflns_used    1062
_cell_measurement_temperature    173(2)
_cell_measurement_theta_max      31.8590
_cell_measurement_theta_min      4.7210
_cell_volume                     700.9(7)
_computing_cell_refinement
;
CrysAlisPro, Agilent Technologies,
Version 1.171.37.33 (release 27-03-2014 CrysAlis171 .NET)
(compiled Mar 27 2014,17:12:48)
;
_computing_data_collection
;
CrysAlisPro, Agilent Technologies,
Version 1.171.37.33 (release 27-03-2014 CrysAlis171 .NET)
(compiled Mar 27 2014,17:12:48)
;
_computing_data_reduction
;
CrysAlisPro, Agilent Technologies,
Version 1.171.37.33 (release 27-03-2014 CrysAlis171 .NET)
(compiled Mar 27 2014,17:12:48)
;
_computing_molecular_graphics
;
'ORTEP (M. N. Burnett, C. K. Johnson, ORTEP-III: Oak Ridge Thermal Ellipsoid
# Plot Program for Crystal Structure Illustrations, Oak Ridge National
# Laboratory Report ORNL-6895, 1996). Windows version (L. J. Farrugia, Univ.
# Glasgow) used --- SCHAKAL (E. Keller, University of  Freiburg (Breisgau),
# Germany, 1995)'
;
_computing_publication_material
;PLATON (A. L. Spek, Acta Crystallogr, Sect. A, 1990, 46, C34, 1995 version).
# --- T.B.Cohen, Pure Appl. Chem. 1996,68,2339-2359 (atomic masses).
;
_computing_structure_refinement  'SHELXL-2014/7 (Sheldrick, 2014)'
_computing_structure_solution    SIR-97
_diffrn_ambient_temperature      173(2)
_diffrn_detector_area_resol_mean 15.9809
_diffrn_measured_fraction_theta_full 0.994
_diffrn_measured_fraction_theta_max 0.995
_diffrn_measurement_device_type  KappaCCD
_diffrn_measurement_method       omega-scan
_diffrn_radiation_type           MoK\a
_diffrn_radiation_wavelength     0.71069
_diffrn_reflns_av_R_equivalents  0.0153
_diffrn_reflns_av_unetI/netI     0.0268
_diffrn_reflns_Laue_measured_fraction_full 0.994
_diffrn_reflns_Laue_measured_fraction_max 0.995
_diffrn_reflns_limit_h_max       10
_diffrn_reflns_limit_h_min       -10
_diffrn_reflns_limit_k_max       8
_diffrn_reflns_limit_k_min       -7
_diffrn_reflns_limit_l_max       15
_diffrn_reflns_limit_l_min       -15
_diffrn_reflns_number            3027
_diffrn_reflns_point_group_measured_fraction_full 0.994
_diffrn_reflns_point_group_measured_fraction_max 0.995
_diffrn_reflns_theta_full        25.240
_diffrn_reflns_theta_max         26.369
_diffrn_reflns_theta_min         4.422
_exptl_absorpt_coefficient_mu    0.140
_exptl_absorpt_correction_T_max  1.00000
_exptl_absorpt_correction_T_min  0.83004
_exptl_absorpt_correction_type   multi-scan
_exptl_absorpt_process_details
;
CrysAlisPro, Agilent Technologies,
Version 1.171.37.33 (release 27-03-2014 CrysAlis171 .NET)
(compiled Mar 27 2014,17:12:48)
Empirical absorption correction using spherical harmonics,
 implemented in SCALE3 ABSPACK scaling algorithm.
;
_exptl_crystal_colour            yellow
_exptl_crystal_density_diffrn    1.717
_exptl_crystal_description       block
_exptl_crystal_F_000             368
_exptl_crystal_size_max          0.13
_exptl_crystal_size_mid          0.12
_exptl_crystal_size_min          0.06
_refine_diff_density_max         0.302
_refine_diff_density_min         -0.184
_refine_diff_density_rms         0.050
_refine_ls_extinction_method     none
_refine_ls_goodness_of_fit_ref   1.067
_refine_ls_hydrogen_treatment    refxyz
_refine_ls_matrix_type           full
_refine_ls_number_parameters     127
_refine_ls_number_reflns         1431
_refine_ls_number_restraints     0
_refine_ls_restrained_S_all      1.067
_refine_ls_R_factor_all          0.0545
_refine_ls_R_factor_gt           0.0400
_refine_ls_shift/su_max          0.000
_refine_ls_shift/su_mean         0.000
_refine_ls_structure_factor_coef Fsqd
_refine_ls_weighting_details
'w=1/[\s^2^(Fo^2^)+(0.0526P)^2^+0.1276P] where P=(Fo^2^+2Fc^2^)/3'
_refine_ls_weighting_scheme      calc
_refine_ls_wR_factor_gt          0.0979
_refine_ls_wR_factor_ref         0.1074
_reflns_Friedel_coverage         0.000
_reflns_number_gt                1133
_reflns_number_total             1431
_reflns_threshold_expression     'I > 2\s(I)'
_cod_data_source_file            jo6b01098_si_002.cif
_cod_data_source_block           jx469
_cod_original_sg_symbol_H-M      'P 21/n'
_cod_database_code               4036969
_shelx_shelxl_version_number     2014/7
_shelx_space_group_comment
;
The symmetry employed for this shelxl refinement is uniquely defined
by the following loop, which should always be used as a source of
symmetry information in preference to the above space-group names.
They are only intended as comments.
;
_shelx_res_file
;

    shelx.res created by SHELXL-2014/7

TITL P21n in P2(1)/n
CELL  0.71069   8.2000   6.8990  12.6790   90.000  102.281   90.000
ZERR     4.00   0.0050   0.0050   0.0050    0.000    0.005    0.000
LATT   1
SYMM  1/2 - X, 1/2 + Y, 1/2 - Z
SFAC  C    H    N    O
UNIT  12   12   36   4
MERG   2
SHEL 0.8 1000
FMAP   2
PLAN   20
ACTA
BOND   $H
CONF
L.S.   5
TEMP  -100.00
WGHT    0.052600    0.127600
FVAR       0.12813
N1    3    0.265314    0.618356    0.012004    11.00000    0.03534    0.02154 =
         0.02705   -0.00202    0.01234    0.00171
N2    3    0.292960    0.784538   -0.032439    11.00000    0.03657    0.02686 =
         0.02810    0.00129    0.01290    0.00180
N3    3    0.216205    0.917282    0.012300    11.00000    0.03063    0.02040 =
         0.02640    0.00265    0.00991   -0.00036
N4    3    0.136769    0.849892    0.085154    11.00000    0.02889    0.01944 =
         0.02550    0.00226    0.00933    0.00087
N5    3    0.123823    0.331464    0.144968    11.00000    0.03133    0.02051 =
         0.02736    0.00256    0.00740    0.00068
N6    3    0.048136    0.251825    0.220676    11.00000    0.03216    0.02256 =
         0.02926    0.00241    0.00811   -0.00038
N7    3   -0.012068    0.386067    0.275678    11.00000    0.03097    0.02405 =
         0.02875    0.00319    0.00767   -0.00221
N8    3   -0.015844    0.730437    0.272164    11.00000    0.03281    0.02597 =
         0.02632    0.00080    0.01247   -0.00210
N9    3   -0.049369    0.870090    0.302861    11.00000    0.05189    0.02872 =
         0.04211   -0.00330    0.02639   -0.00325
C1    1    0.169842    0.662486    0.083317    11.00000    0.02396    0.01677 =
         0.02075   -0.00151    0.00411    0.00028
C2    1    0.110125    0.523035    0.151525    11.00000    0.02387    0.02074 =
         0.02238    0.00001    0.00230    0.00104
C3    1    0.025606    0.556445    0.233724    11.00000    0.02699    0.01939 =
         0.02646    0.00058    0.00628    0.00008
O1    4    0.720403    0.754604    0.078795    11.00000    0.03830    0.02274 =
         0.04354   -0.00152    0.02261    0.00037
H1    2    0.221369    1.057593   -0.009453    11.00000   -1.20000
H2    2    0.693223    0.658714    0.045841    11.00000   -1.50000
H3    2    0.643675    0.786502    0.110328    11.00000   -1.50000
HKLF    4

REM  P21n in P2(1)/n
REM R1 =  0.0400 for    1133 Fo > 4sig(Fo)  and  0.0545 for all    1431 data
REM    127 parameters refined using      0 restraints

END

WGHT      0.0526      0.1276

REM Highest difference peak  0.302,  deepest hole -0.184,  1-sigma level  0.050
Q1    1  -0.0286  0.1242  0.2768  11.00000  0.05    0.30
Q2    1   0.0956  0.9763  0.1502  11.00000  0.05    0.29
Q3    1   0.1439  0.5916  0.1138  11.00000  0.05    0.29
Q4    1   0.1155  0.1737  0.1407  11.00000  0.05    0.28
Q5    1   0.1905  0.6160  0.0424  11.00000  0.05    0.26
Q6    1  -0.0455  0.6071  0.3041  11.00000  0.05    0.25
Q7    1   0.0862  0.5635  0.1950  11.00000  0.05    0.25
Q8    1   0.0189  0.9630  0.2339  11.00000  0.05    0.24
Q9    1   0.1724  0.7486  0.1039  11.00000  0.05    0.22
Q10   1   0.2561  0.6887 -0.0197  11.00000  0.05    0.20
Q11   1   0.6317  0.7803  0.0227  11.00000  0.05    0.20
Q12   1   0.2925  0.5112 -0.0005  11.00000  0.05    0.18
Q13   1  -0.0630  0.3670  0.3394  11.00000  0.05    0.17
Q14   1   0.0265  0.2908  0.2363  11.00000  0.05    0.17
Q15   1   0.1605  0.8734  0.0751  11.00000  0.05    0.15
Q16   1   0.3499  0.7741 -0.1007  11.00000  0.05    0.15
Q17   1  -0.0446  0.4938  0.2241  11.00000  0.05    0.14
Q18   1   0.0005  0.6266  0.2441  11.00000  0.05    0.14
Q19   1   0.2782  1.1263 -0.0330  11.00000  0.05    0.13
Q20   1   0.0018  0.1458  0.2034  11.00000  0.05    0.13
;
_shelx_res_checksum              68450
_shelx_hkl_file
;
   0   0   3    0.05    0.02
   0   0   4   61.89    0.46
   0   0   5    0.02    0.03
   0   0   6    5.94    0.18
   0   0   7    0.00    0.03
   0   0   8    3.11    0.15
   0   0   9   -0.03    0.04
   0   0  10    0.77    0.09
   0   0  11   -0.03    0.05
   0   0  12    2.30    0.17
   0   0  13    0.04    0.05
   0   0  14    5.44    0.29
   0   0  15    0.06    0.06
   0   0  16    2.93    0.23
   0   0  17   -0.06    0.06
   0   1  -2    5.21    0.09
   0  -1   2    5.12    0.11
   0  -1  -2    5.17    0.07
   0   1   3   25.29    0.14
   0   1  -3   25.82    0.21
   0  -1  -3   25.90    0.18
   0  -1   3   25.84    0.27
   0   1   3   25.74    0.28
   0   1  -4   83.69    0.42
   0   1   4   83.58    0.56
   0  -1   4   83.80    0.56
   0  -1  -4   82.55    0.24
   0   1   5    0.29    0.04
   0   1  -5    0.24    0.03
   0  -1   5    0.26    0.04
   0  -1  -5    0.24    0.01
   0  -1  -6    3.90    0.06
   0   1   6    4.21    0.15
   0  -1   6    4.01    0.15
   0   1  -6    3.99    0.11
   0   1   7    1.86    0.11
   0  -1   7    1.80    0.11
   0   1  -7    1.85    0.08
   0  -1  -7    1.66    0.04
   0  -1  -8    3.75    0.07
   0   1   8    4.12    0.18
   0  -1   8    4.26    0.18
   0   1  -8    3.96    0.12
   0   1   9    1.07    0.10
   0   1  -9    1.13    0.07
   0  -1   9    1.09    0.11
   0   1 -10    8.35    0.20
   0   1  10    8.79    0.29
   0  -1  10    9.16    0.30
   0   1  11    0.14    0.05
   0  -1  11    0.23    0.06
   0   1  12    0.55    0.09
   0  -1  12    0.70    0.10
   0   1  13    0.20    0.07
   0  -1  13    0.20    0.06
   0  -1  14    1.41    0.15
   0   1  14    1.30    0.15
   0   1  15    0.02    0.04
   0  -1  15    0.02    0.06
   0  -1  16    0.45    0.10
   0   1  16    0.83    0.13
   0   1  17    0.09    0.07
   0  -1  17    0.16    0.08
   0   2   0   75.63    0.47
   0   2   1   19.18    0.24
   0   2  -1   18.96    0.23
   0   2  -2    0.25    0.03
   0   2   2    0.27    0.04
   0   2   3    0.73    0.05
   0   2  -3    0.78    0.05
   0  -2   4    0.05    0.03
   0  -2  -4    0.02    0.01
   0   2  -4    0.06    0.02
   0  -2  -5    3.02    0.08
   0  -2   5    3.08    0.13
   0   2  -5    3.00    0.10
   0  -2  -6   19.61    0.23
   0   2  -6   20.31    0.27
   0  -2   6   20.61    0.35
   0  -2  -7    0.01    0.01
   0   2  -7   -0.02    0.02
   0  -2   7    0.01    0.03
   0   2  -8    2.64    0.11
   0  -2  -8    2.63    0.10
   0  -2   8    2.92    0.16
   0  -2   9    1.28    0.11
   0   2  -9    1.17    0.07
   0  -2  -9    1.29    0.07
   0  -2 -10    0.19    0.03
   0  -2  10    0.16    0.06
   0   2 -10    0.17    0.03
   0  -2  11    0.07    0.05
   0  -2  12    0.13    0.06
   0  -2  13    0.50    0.09
   0  -2  14   -0.01    0.06
   0  -2  15    0.11    0.05
   0  -2  16    0.59    0.11
   0  -2  17   -0.06    0.05
   0   3   0    0.01    0.02
   0   3  -1    0.07    0.03
   0   3   1    0.09    0.03
   0   3  -2    3.34    0.12
   0   3   2    3.34    0.13
   0   3  -3    0.01    0.02
   0   3   3   -0.02    0.02
   0   3  -4    3.95    0.13
   0   3   4    4.15    0.15
   0  -3   5    0.13    0.04
   0   3  -5    0.15    0.03
   0   3  -6   17.12    0.29
   0  -3   6   17.56    0.35
   0  -3  -7    2.06    0.08
   0   3  -7    2.24    0.11
   0  -3   7    1.97    0.13
   0  -3  -8    0.05    0.02
   0   3  -8    0.10    0.03
   0  -3   8   -0.01    0.04
   0  -3   9    0.18    0.06
   0   3  -9    0.11    0.03
   0  -3  10   18.62    0.45
   0   3 -10   17.77    0.32
   0  -3  11    1.07    0.12
   0  -3  12    0.70    0.11
   0  -3  13    0.13    0.06
   0  -3  14    4.60    0.28
   0  -3  15    1.00    0.14
   0  -3  16    0.28    0.10
   0   4   0    0.97    0.08
   0   4   1    2.62    0.13
   0   4  -1    2.75    0.13
   0   4  -2    2.45    0.12
   0   4   2    2.58    0.13
   0   4   3    0.17    0.05
   0   4  -3    0.12    0.04
   0   4   4    0.20    0.05
   0   4  -4    0.22    0.05
   0   4  -5    5.12    0.18
   0  -4   5    5.15    0.20
   0   4  -6    2.62    0.13
   0  -4   6    2.43    0.15
   0  -4   7    0.96    0.10
   0   4  -7    1.14    0.09
   0   4  -8    0.05    0.03
   0  -4   8    0.07    0.05
   0   4  -9    0.00    0.03
   0  -4   9   -0.01    0.04
   0  -4  10    3.39    0.21
   0  -4  11    1.66    0.15
   0  -4  12    0.47    0.09
   0  -4  13    0.21    0.07
   0  -4  14    0.08    0.06
   0  -4  15    0.14    0.08
   0  -4  16    0.39    0.10
   0   5   0   -0.05    0.03
   0   5   1    0.06    0.04
   0   5  -1    0.02    0.03
   0   5   2    0.37    0.06
   0   5  -2    0.27    0.06
   0   5   3    1.94    0.13
   0   5  -3    2.06    0.13
   0   5  -4    1.48    0.11
   0   5   4    1.42    0.12
   0   5  -5    0.60    0.07
   0  -5   6    1.96    0.15
   0   5  -6    2.20    0.13
   0   5  -7    0.49    0.07
   0  -5   7    0.49    0.08
   0   5  -8    3.94    0.18
   0  -5   8    3.67    0.21
   0   5  -9    0.02    0.03
   0  -5   9    0.03    0.05
   0  -5  10    0.28    0.08
   0  -5  11    0.08    0.05
   0  -5  12    0.21    0.08
   0  -5  13    0.82    0.13
   0  -5  14    0.40    0.10
   0  -5  15    0.02    0.04
   0   6   0    2.32    0.16
   0   6   1    7.74    0.28
   0   6  -1    8.53    0.29
   0   6  -2    0.26    0.07
   0   6   2    0.21    0.06
   0   6  -3    1.92    0.14
   0   6   3    1.90    0.15
   0   6  -4   13.70    0.37
   0   6   4   13.22    0.38
   0   6  -5    0.92    0.10
   0   6  -6    0.33    0.07
   0  -6   6    0.29    0.07
   0   6  -7    0.06    0.05
   0  -6   7   -0.01    0.04
   0   6  -8    0.66    0.08
   0  -6   8    0.54    0.09
   0  -6   9    0.05    0.05
   0  -6  10    0.56    0.10
   0  -6  11    0.09    0.06
   0  -6  12    0.36    0.10
   0  -6  13    0.14    0.07
   0  -6  14    0.01    0.05
   0   7   0   -0.03    0.05
   0   7  -1    3.52    0.21
   0   7   1    3.41    0.21
   0   7  -2   -0.03    0.04
   0   7   2   -0.03    0.05
   0   7  -3    0.20    0.06
   0   7   3    0.19    0.06
   0   7  -4    0.99    0.11
   0   7   4    0.86    0.11
   0   7  -5    1.77    0.15
   0  -7   6    0.25    0.07
   0   7  -6    0.33    0.07
   0   7  -7    0.88    0.11
   0  -7   7    1.09    0.13
   0   7  -8    1.11    0.12
   0  -7   8    0.94    0.13
   0  -7   9    0.03    0.05
   0  -7  10    0.05    0.05
   0  -7  11    0.06    0.06
   0  -7  12    0.29    0.08
   0   8   0    3.06    0.21
   0   8  -1   -0.03    0.04
   0   8   1    0.03    0.06
   0   8  -2    0.28    0.07
   0   8   2    0.24    0.07
   0   8  -3    0.02    0.05
   0   8   3    0.06    0.06
   0   8  -4    0.29    0.07
   0   8  -5    0.06    0.04
   0   8  -6    0.24    0.06
   0  -8   6    0.25    0.07
   0   8  -7    0.06    0.05
   0  -8   7    0.03    0.04
   0  -8   8    0.24    0.08
   0  -8   9    0.09    0.05
   0  -8  10    0.39    0.10
   0   9   0    0.03    0.04
   0   9  -1    0.20    0.07
   0   9   1    0.22    0.08
   0   9  -2    0.88    0.13
   0   9   2    1.00    0.14
   0   9  -3    0.59    0.11
   0   9  -4    1.57    0.17
   0   9  -5    0.02    0.05
   0   9  -6    0.39    0.09
   0  -9   6    0.66    0.12
   0  -9   7    0.55    0.11
  -1   0  17    0.08    0.07
  -1   0  16    0.06    0.05
  -1   0  15    2.78    0.22
  -1   0  14    0.02    0.05
  -1   0  13    5.25    0.27
  -1   0  12    0.00    0.04
  -1   0  11   -0.03    0.05
  -1   0  10    0.03    0.04
  -1   0   9    0.06    0.04
  -1   0   8   -0.01    0.03
  -1   0   7    3.55    0.15
  -1   0   6    0.01    0.03
  -1   0   5   53.09    0.47
  -1   0   4   -0.02    0.03
  -1   0   3    0.12    0.02
   1   0   2    0.01    0.01
   1   0   3    7.21    0.14
   1   0   4    0.01    0.02
   1   0   5    1.72    0.09
   1   0   6    0.02    0.03
   1   0   7    8.02    0.23
   1   0   8   -0.02    0.04
   1   0   9    3.47    0.18
   1   0  10   -0.02    0.05
   1   0  11    0.09    0.04
   1   0  12   -0.01    0.05
   1   0  13    0.53    0.09
   1   0  14    0.02    0.04
   1   0  15    2.37    0.20
   1   0  16   -0.03    0.06
   1   0  17    0.94    0.14
  -1   1  17    0.63    0.12
  -1  -1  17    0.47    0.10
  -1  -1  16    0.35    0.09
  -1   1  16    0.41    0.10
  -1   1  15    0.00    0.05
  -1  -1  15    0.07    0.06
  -1  -1  14    0.81    0.12
  -1   1  14    0.73    0.11
  -1  -1  13    1.38    0.14
  -1   1  13    1.37    0.14
  -1   1  12    0.36    0.07
  -1  -1  12    0.29    0.07
   1   1 -12    0.33    0.05
  -1   1  11    1.06    0.11
   1   1 -11    1.15    0.09
  -1  -1  11    1.18    0.12
   1   1 -10    2.70    0.13
  -1   1  10    2.65    0.16
  -1  -1  10    2.75    0.16
  -1   1   9    4.97    0.21
   1  -1  -9    4.92    0.12
  -1  -1   9    4.81    0.20
   1   1  -9    4.92    0.16
   1   1  -8    8.00    0.20
  -1   1   8    8.40    0.25
   1  -1  -8    8.35    0.15
  -1  -1   8    8.63    0.25
  -1   1   7    0.68    0.07
  -1  -1   7    0.83    0.08
   1   1  -7    0.79    0.06
   1  -1  -7    0.81    0.05
   1   1  -6    3.18    0.11
  -1  -1   6    3.20    0.13
  -1   1   6    3.01    0.13
   1  -1  -6    3.39    0.09
  -1  -1   5    1.66    0.09
   1  -1  -5    1.91    0.06
  -1   1   5    1.82    0.10
   1   1  -5    1.88    0.08
  -1   1   4    0.03    0.02
   1  -1  -4    0.01    0.01
   1   1  -4   -0.01    0.02
  -1  -1   4   -0.01    0.02
   1  -1  -3   23.97    0.21
   1   1  -3   23.42    0.25
  -1  -1   3   23.61    0.25
   1   1  -2    7.31    0.13
  -1  -1   2    7.43    0.12
   1  -1  -2    7.14    0.11
  -1   1  -1   31.57    0.20
   1   1   1   31.45    0.23
  -1  -1  -1   31.21    0.24
   1   1   2   44.91    0.28
   1  -1   2   43.79    0.33
  -1  -1  -2   43.98    0.30
  -1   1  -2   44.82    0.21
  -1  -1  -3   41.68    0.33
   1  -1   3   42.62    0.37
  -1   1  -3   43.35    0.21
   1   1   3   42.52    0.29
   1   1   3   42.46    0.36
   1  -1   4    1.75    0.09
  -1   1  -4    1.74    0.05
   1   1   4    1.77    0.09
  -1  -1  -4    1.61    0.07
   1  -1   5   18.75    0.30
  -1   1  -5   18.84    0.16
  -1  -1  -5   18.56    0.26
   1   1   5   19.80    0.30
   1  -1   6    0.10    0.03
  -1   1  -6    0.08    0.01
   1   1   6    0.08    0.03
   1  -1   7    0.69    0.07
   1   1   7    0.69    0.07
  -1   1  -7    0.66    0.04
   1   1   8    0.30    0.06
  -1   1  -8    0.28    0.03
   1  -1   8    0.31    0.06
  -1   1  -9    0.04    0.01
   1  -1   9    0.00    0.03
   1  -1  10    3.73    0.20
   1   1  10    3.98    0.20
   1  -1  11    0.92    0.11
   1   1  11    1.00    0.11
   1  -1  12    0.56    0.09
   1   1  12    0.54    0.09
   1  -1  13    0.43    0.09
   1   1  13    0.62    0.10
   1   1  14    0.13    0.07
   1  -1  14    0.00    0.04
   1   1  15    0.18    0.07
   1  -1  15    0.34    0.09
   1   1  16    0.57    0.12
   1  -1  16    0.33    0.09
   1  -1  17    0.01    0.05
   1   1  17    0.02    0.05
  -1  -2  17    0.28    0.09
  -1  -2  16    0.31    0.09
  -1  -2  15    0.17    0.06
  -1  -2  14    0.08    0.05
  -1  -2  13    1.11    0.13
  -1  -2  12    0.28    0.07
   1   2 -11    0.18    0.04
  -1  -2  11    0.30    0.07
  -1  -2  10    0.02    0.04
   1   2 -10    0.04    0.02
   1  -2  -9    0.73    0.05
  -1  -2   9    0.97    0.10
   1   2  -9    0.83    0.07
   1  -2  -8    2.81    0.08
   1   2  -8    2.87    0.12
  -1  -2   8    2.83    0.15
   1   2  -7    3.80    0.14
   1  -2  -7    3.55    0.08
  -1  -2   7    3.96    0.16
   1  -2  -6    8.78    0.11
   1   2  -6    8.82    0.20
  -1  -2   6    9.11    0.23
  -1  -2   5   11.10    0.23
   1   2  -5   10.80    0.21
   1   2  -4   22.39    0.29
  -1  -2   4   22.68    0.31
   1   2  -3   10.46    0.19
  -1  -2   3   10.73    0.19
   1   2  -2    2.27    0.09
   1   2  -1    6.67    0.15
  -1   2   1    6.52    0.14
  -1   2   0    0.42    0.04
   1   2   0    0.53    0.05
   1   2   1    0.23    0.03
  -1   2  -1    0.19    0.03
  -1   2  -2    0.47    0.04
   1   2   2    0.44    0.04
  -1   2  -3    8.03    0.14
   1   2   3    8.08    0.17
  -1  -2  -3    7.93    0.15
   1  -2   4    4.76    0.16
   1   2   4    4.73    0.13
  -1   2  -4    4.55    0.11
  -1  -2  -4    4.41    0.12
  -1   2  -5    1.04    0.05
  -1  -2  -5    1.12    0.06
   1  -2   5    1.09    0.08
   1  -2   6    4.49    0.17
  -1   2  -6    4.46    0.11
  -1  -2  -6    4.42    0.13
  -1   2  -7    1.06    0.06
  -1  -2  -7    1.24    0.08
   1  -2   7    1.12    0.10
   1  -2   8    4.02    0.19
  -1   2  -8    3.82    0.11
  -1  -2  -8    4.06    0.14
   1   2   8    4.04    0.18
  -1  -2  -9    0.68    0.06
   1  -2   9    0.68    0.09
   1   2   9    0.76    0.09
   1  -2  10    1.08    0.11
   1   2  10    1.11    0.12
  -1  -2 -10    1.28    0.09
  -1  -2 -11    0.58    0.07
   1   2  11    0.68    0.10
   1  -2  11    0.51    0.08
   1   2  12   -0.04    0.04
   1  -2  12    0.03    0.05
   1  -2  13   -0.05    0.05
   1  -2  14    0.00    0.05
   1  -2  15    0.61    0.11
   1  -2  16    0.10    0.07
  -1  -3  17    0.01    0.05
  -1  -3  16   -0.12    0.08
  -1  -3  15    0.30    0.09
  -1  -3  14    0.33    0.09
  -1  -3  13    1.98    0.17
  -1  -3  12    0.10    0.05
   1   3 -11    2.44    0.14
  -1  -3  11    2.41    0.17
  -1  -3  10    0.02    0.04
   1   3 -10    0.00    0.02
   1   3  -9    3.96    0.16
  -1  -3   9    3.62    0.19
   1   3  -8    3.61    0.15
  -1  -3   8    3.81    0.18
   1   3  -7    0.06    0.03
  -1  -3   7    0.03    0.03
   1   3  -6    0.04    0.02
  -1  -3   6    0.04    0.03
  -1  -3   5    0.89    0.08
   1   3  -5    0.87    0.07
   1   3  -4    3.00    0.13
   1   3  -3    0.33    0.05
   1   3  -2    1.09    0.08
  -1   3   2    1.18    0.08
  -1   3   1   10.36    0.22
   1   3  -1   10.79    0.23
   1   3   0    0.00    0.03
  -1   3   0    0.05    0.03
  -1   3  -1   46.03    0.44
   1   3   1   46.20    0.47
  -1   3  -2    0.78    0.06
   1   3   2    0.77    0.06
   1   3   3    2.07    0.10
  -1   3  -3    2.07    0.09
   1   3   4    0.67    0.06
  -1   3  -4    0.56    0.05
   1  -3   5   -0.01    0.03
   1   3   5    0.00    0.02
  -1   3  -5   -0.02    0.02
  -1  -3  -6    0.66    0.05
  -1   3  -6    0.66    0.05
   1  -3   6    0.64    0.08
  -1  -3  -7    0.01    0.02
  -1   3  -7    0.03    0.02
   1  -3   7    0.00    0.04
   1  -3   8   -0.05    0.04
  -1   3  -8    0.00    0.02
  -1  -3  -8    0.01    0.02
  -1  -3  -9    0.35    0.04
   1  -3   9    0.36    0.07
   1  -3  10    1.24    0.12
   1  -3  11    1.37    0.14
   1  -3  12    0.20    0.07
   1  -3  13    1.89    0.17
   1  -3  14    0.01    0.06
   1  -3  15    0.38    0.10
   1  -3  16    0.23    0.08
  -1  -4  16    0.04    0.05
  -1  -4  15    0.73    0.12
  -1  -4  14    0.69    0.11
  -1  -4  13    1.38    0.15
  -1  -4  12    0.55    0.09
   1   4 -11    0.98    0.10
  -1  -4  11    0.93    0.12
  -1  -4  10    5.68    0.26
   1   4 -10    5.26    0.21
   1   4  -9    1.12    0.10
  -1  -4   9    1.02    0.11
   1   4  -8    0.22    0.05
  -1  -4   8    0.16    0.05
   1   4  -7    0.60    0.07
  -1  -4   7    0.60    0.08
   1   4  -6    0.04    0.03
  -1  -4   6    0.06    0.04
   1   4  -5    0.36    0.06
  -1  -4   5    0.33    0.06
   1   4  -4    0.32    0.05
   1   4  -3   46.35    0.55
  -1   4   2    6.44    0.21
   1   4  -2    6.30    0.20
  -1   4   1    2.89    0.14
   1   4  -1    2.72    0.13
  -1   4   0    1.74    0.10
   1   4   0    1.83    0.11
   1   4   1    0.18    0.05
  -1   4  -1    0.15    0.04
  -1   4  -2    1.10    0.08
   1   4   2    1.26    0.10
  -1   4  -3    4.40    0.16
   1   4   3    4.29    0.17
   1   4   4    3.36    0.15
  -1   4  -4    3.27    0.14
  -1   4  -5   25.41    0.38
   1  -4   5   25.93    0.47
   1   4   5   25.55    0.43
   1  -4   6    0.62    0.08
  -1   4  -6    0.58    0.06
  -1   4  -7    0.30    0.04
   1  -4   7    0.30    0.06
  -1   4  -8    0.02    0.02
   1  -4   8    0.02    0.04
   1  -4   9    0.15    0.06
   1  -4  10    0.02    0.04
   1  -4  11    0.31    0.08
   1  -4  12    2.98    0.22
   1  -4  13    1.05    0.14
   1  -4  14    0.35    0.09
   1  -4  15    0.59    0.11
  -1  -5  15    0.09    0.07
  -1  -5  14    0.23    0.08
  -1  -5  13    0.49    0.10
  -1  -5  12    0.02    0.05
  -1  -5  11    1.08    0.13
  -1  -5  10    0.02    0.04
   1   5 -10    0.02    0.03
   1   5  -9    8.77    0.29
  -1  -5   9    8.38    0.32
  -1  -5   8    0.55    0.09
   1   5  -8    0.44    0.07
   1   5  -7    7.97    0.27
  -1  -5   7    7.97    0.29
  -1  -5   6    1.66    0.13
   1   5  -6    1.39    0.11
   1   5  -5    4.33    0.19
   1   5  -4    0.00    0.03
  -1   5   3    1.07    0.10
   1   5  -3    1.04    0.10
   1   5  -2    3.81    0.18
  -1   5   2    3.55    0.18
   1   5  -1    5.12    0.21
  -1   5   1    5.11    0.21
   1   5   0    3.24    0.17
  -1   5   0    2.99    0.16
   1   5   1    0.76    0.09
  -1   5  -1    0.84    0.08
   1   5   2    1.59    0.12
  -1   5  -2    1.70    0.11
  -1   5  -3    3.45    0.16
   1   5   3    3.44    0.17
   1   5   4    0.75    0.09
  -1   5  -4    0.84    0.08
  -1   5  -5    1.76    0.12
   1   5   5    1.96    0.14
  -1   5  -6    0.27    0.05
   1  -5   6    0.38    0.08
   1  -5   7    4.44    0.23
  -1   5  -7    4.37    0.18
  -1   5  -8    0.28    0.05
   1  -5   8    0.43    0.08
   1  -5   9    3.43    0.22
   1  -5  10    0.20    0.07
   1  -5  11    3.94    0.25
   1  -5  12    0.02    0.04
   1  -5  13    0.33    0.08
   1  -5  14   -0.04    0.05
  -1  -6  14    0.06    0.07
  -1  -6  13    0.29    0.08
  -1  -6  12    0.10    0.06
  -1  -6  11    1.40    0.16
   1   6 -10    0.08    0.05
  -1  -6  10    0.21    0.07
  -1  -6   9    2.49    0.19
   1   6  -9    2.76    0.18
   1   6  -8    1.16    0.12
  -1  -6   8    1.09    0.12
   1   6  -7    0.43    0.07
  -1  -6   7    0.41    0.08
  -1  -6   6    0.11    0.05
   1   6  -6    0.18    0.06
   1   6  -5    1.45    0.13
   1   6  -4    6.12    0.25
   1   6  -3    2.40    0.16
  -1   6   2    0.66    0.09
   1   6  -2    1.03    0.11
   1   6  -1    6.72    0.26
  -1   6   1    6.77    0.26
  -1   6   0    0.73    0.09
   1   6   0    0.70    0.09
  -1   6  -1    0.09    0.04
   1   6   1    0.07    0.04
   1   6   2    1.12    0.12
  -1   6  -2    1.22    0.11
   1   6   3    8.47    0.30
  -1   6  -3    8.73    0.28
   1   6   4    0.33    0.07
  -1   6  -4    0.31    0.06
  -1   6  -5    1.05    0.10
   1   6   5    0.80    0.10
  -1   6  -6    4.03    0.19
   1  -6   6    4.16    0.23
  -1   6  -7    0.80    0.09
   1  -6   7    0.78    0.11
   1  -6   8    0.08    0.05
   1  -6   9    0.25    0.07
   1  -6  10    0.57    0.10
   1  -6  11    1.69    0.17
   1  -6  12    0.15    0.06
   1  -6  13    0.73    0.13
  -1  -7  13    0.08    0.05
  -1  -7  12   -0.09    0.07
  -1  -7  11    0.15    0.06
  -1  -7  10    0.07    0.04
   1   7  -9    0.14    0.06
  -1  -7   9   -0.01    0.04
   1   7  -8    0.47    0.08
  -1  -7   8    0.42    0.09
   1   7  -7    1.28    0.13
  -1  -7   7    1.50    0.15
   1   7  -6    0.12    0.05
  -1  -7   6    0.15    0.06
   1   7  -5    5.53    0.26
   1   7  -4    1.81    0.15
   1   7  -3    0.11    0.06
   1   7  -2    0.49    0.09
  -1   7   2    0.47    0.08
  -1   7   1    0.79    0.10
   1   7  -1    0.89    0.11
   1   7   0    1.22    0.13
  -1   7   0    1.17    0.13
   1   7   1    1.25    0.13
  -1   7  -1    1.15    0.12
  -1   7  -2    0.91    0.11
   1   7   2    0.73    0.10
   1   7   3    1.07    0.12
  -1   7  -3    1.22    0.12
   1   7   4    0.30    0.07
  -1   7  -4    0.32    0.07
   1   7   5    0.12    0.05
  -1   7  -5    0.16    0.06
  -1   7  -6    1.54    0.13
   1  -7   6    1.50    0.15
  -1   7  -7    4.47    0.23
   1  -7   7    4.35    0.26
   1  -7   8    0.09    0.05
   1  -7   9    0.30    0.09
   1  -7  10    0.10    0.05
   1  -7  11   -0.03    0.05
   1  -7  12    0.11    0.07
  -1  -8  11    0.49    0.11
  -1  -8  10    0.01    0.04
  -1  -8   9    0.02    0.04
   1   8  -8    0.02    0.05
  -1  -8   8    0.10    0.07
   1   8  -7    0.47    0.09
  -1  -8   7    0.53    0.10
   1   8  -6    0.06    0.05
  -1  -8   6    0.03    0.04
   1   8  -5    0.47    0.09
   1   8  -4    0.84    0.12
   1   8  -3    0.10    0.06
   1   8  -2    0.13    0.07
  -1   8   1    0.59    0.10
   1   8  -1    0.82    0.12
   1   8   0    0.37    0.08
  -1   8   0    0.44    0.08
   1   8   1   -0.05    0.06
  -1   8  -1   -0.02    0.04
   1   8   2    0.39    0.08
  -1   8  -2    0.37    0.08
   1   8   3    0.86    0.12
  -1   8  -3    0.75    0.11
  -1   8  -4    0.14    0.06
   1   8   4    0.09    0.06
  -1   8  -5    0.23    0.07
   1  -8   6    0.62    0.11
  -1   8  -6    0.58    0.10
   1  -8   7    0.01    0.05
   1  -8   8    0.05    0.05
   1  -8   9    0.62    0.11
   1  -8  10    0.05    0.08
   1   9  -8    0.18    0.07
  -1  -9   8    0.21    0.08
   1   9  -7    0.02    0.05
  -1  -9   7   -0.05    0.05
   1   9  -6    0.05    0.05
  -1  -9   6    0.08    0.05
   1   9  -5    0.07    0.05
   1   9  -4    0.89    0.13
   1   9  -3    1.14    0.14
   1   9  -2    0.04    0.06
   1   9  -1    0.33    0.08
  -1   9   0    0.00    0.05
   1   9   0    0.09    0.05
   1   9   1    0.01    0.05
  -1   9  -1    0.01    0.04
   1   9   2    0.01    0.04
  -1   9  -2    0.05    0.06
  -1   9  -3    0.06    0.04
   1   9   3   -0.02    0.06
  -1   9  -4    0.00    0.05
   1   9   4    0.07    0.05
  -1   9  -5    0.67    0.11
   1  -9   6    0.67    0.12
  -2   0  18    0.53    0.12
  -2   0  17   -0.03    0.05
  -2   0  16    0.41    0.09
  -2   0  15    0.07    0.05
  -2   0  14    4.04    0.24
  -2   0  13    0.06    0.05
  -2   0  12   11.04    0.36
  -2   0  11    0.00    0.05
  -2   0  10    1.49    0.12
  -2   0   9   -0.02    0.04
  -2   0   8    1.05    0.09
  -2   0   7    0.00    0.02
  -2   0   6    5.10    0.16
  -2   0   5   -0.02    0.02
  -2   0   4   10.52    0.18
  -2   0   3   -0.01    0.01
   2   0  -1    0.01    0.02
  -2   0   1    0.00    0.02
  -2   0   0    0.16    0.03
   2   0   0    0.12    0.02
  -2   0  -1    0.03    0.02
   2   0   1    0.00    0.01
   2   0   1    0.01    0.01
   2   0   1   -0.02    0.02
   2   0   2 1000.00    1.40
   2   0   2  998.21    0.95
  -2   0  -2  998.76    1.80
   2   0   2  997.30    1.47
   2   0   3    0.03    0.02
   2   0   4    4.01    0.13
   2   0   5   -0.03    0.03
   2   0   6   16.13    0.31
   2   0   7    0.01    0.03
  -2   0  -7   -0.01    0.00
   2   0   8    0.80    0.09
   2   0   9   -0.01    0.04
   2   0  10    1.37    0.12
   2   0  11   -0.03    0.04
   2   0  12    0.09    0.05
   2   0  13    0.01    0.04
   2   0  14    1.46    0.16
   2   0  15    0.03    0.05
  -2   0 -15    0.02    0.04
   2   0  16    1.75    0.19
   2   0  17   -0.08    0.06
  -2  -1  18   -0.12    0.07
  -2  -1  17    0.02    0.05
  -2   1  16    1.08    0.14
  -2  -1  16    1.14    0.15
  -2  -1  15    0.04    0.05
  -2   1  15    0.12    0.06
  -2   1  14    0.90    0.13
  -2  -1  14    0.95    0.12
  -2  -1  13    0.78    0.11
   2   1 -13    0.70    0.08
  -2   1  13    0.76    0.11
  -2   1  12    2.67    0.18
  -2  -1  12    2.93    0.19
   2   1 -12    2.86    0.16
  -2  -1  11    0.60    0.09
  -2   1  11    0.53    0.08
   2   1 -11    0.65    0.07
   2  -1 -10    0.41    0.04
  -2  -1  10    0.38    0.07
   2   1 -10    0.42    0.06
  -2   1  10    0.43    0.07
   2  -1  -9    0.18    0.03
   2   1  -9    0.20    0.04
  -2  -1   9    0.19    0.05
  -2   1   9    0.20    0.05
  -2   1   8   19.05    0.37
   2  -1  -8   19.83    0.28
  -2  -1   8   19.60    0.37
   2   1  -8   19.33    0.34
  -2  -1   7    0.68    0.07
  -2   1   7    0.76    0.07
   2   1  -7    0.70    0.06
   2  -1  -7    0.86    0.06
  -2   1   6    3.55    0.14
  -2  -1   6    3.74    0.14
   2  -1  -6    3.90    0.12
   2   1  -6    3.58    0.14
   2   1  -5    3.02    0.12
  -2  -1   5    3.07    0.11
   2  -1  -5    3.06    0.10
  -2  -1   4    4.31    0.12
   2  -1  -4    4.30    0.12
   2   1  -4    4.14    0.13
   2  -1  -3    1.39    0.07
   2   1  -3    1.28    0.07
  -2  -1   3    1.41    0.06
  -2  -1   2   92.69    0.37
  -2   1   2   91.49    0.36
   2   1  -2   89.23    0.53
   2  -1  -2   87.43    0.51
  -2   1   1   20.69    0.20
   2  -1  -1   19.76    0.24
   2   1  -1   20.18    0.24
   2  -1   0    0.28    0.03
   2   1   0    0.21    0.03
   2   1   1    5.58    0.11
  -2  -1  -1    5.37    0.13
   2   1   2    0.40    0.03
   2  -1   2    0.33    0.04
  -2  -1  -2    0.40    0.04
   2   1   2    0.35    0.03
   2   1   3    0.15    0.03
  -2  -1  -3    0.14    0.03
   2   1   3    0.17    0.02
   2  -1   3    0.19    0.03
   2   1   3    0.17    0.02
  -2  -1  -4    4.52    0.14
   2  -1   4    4.40    0.14
   2   1   4    4.45    0.10
   2   1   4    4.36    0.13
   2   1   4    4.36    0.07
  -2  -1  -5    9.40    0.21
   2   1   5    9.47    0.21
   2  -1   5    9.53    0.22
   2   1   6   21.56    0.35
   2  -1   6   21.11    0.36
  -2  -1  -6   21.24    0.33
   2  -1   7   -0.01    0.03
   2   1   7    0.05    0.03
  -2  -1  -7    0.01    0.02
   2   1   8    1.66    0.12
  -2  -1  -8    1.48    0.10
   2  -1   8    1.57    0.12
   2  -1   9    0.46    0.07
  -2  -1  -9    0.64    0.07
   2   1   9    0.49    0.07
   2  -1  10    2.04    0.15
  -2  -1 -10    1.70    0.12
   2   1  10    1.90    0.14
   2   1  11    0.59    0.09
   2  -1  11    0.71    0.10
  -2  -1 -11    0.81    0.09
   2   1  12    2.63    0.19
  -2  -1 -12    2.50    0.16
   2  -1  12    2.43    0.18
  -2  -1 -13    0.06    0.04
   2   1  13    0.31    0.08
   2  -1  13    0.23    0.07
   2  -1  14    0.31    0.08
   2   1  14    0.51    0.11
   2   1  15   -0.03    0.04
   2  -1  15   -0.05    0.06
   2  -1  16    0.39    0.09
   2   1  16    0.49    0.11
  -2  -2  17    0.04    0.04
  -2  -2  16    0.00    0.05
  -2  -2  15    0.01    0.05
  -2  -2  14    0.53    0.09
  -2  -2  13    0.25    0.07
   2   2 -13    0.20    0.05
   2   2 -12    0.41    0.06
  -2  -2  12    0.36    0.08
   2   2 -11    0.24    0.05
  -2  -2  11    0.34    0.07
   2   2 -10    0.67    0.07
  -2  -2  10    0.68    0.08
   2  -2 -10    0.74    0.06
   2   2  -9    1.48    0.10
   2  -2  -9    1.46    0.08
  -2  -2   9    1.50    0.11
  -2  -2   8    0.02    0.03
   2  -2  -8    0.01    0.02
   2   2  -8    0.00    0.02
   2  -2  -7    0.50    0.05
   2   2  -7    0.43    0.05
  -2  -2   7    0.40    0.05
  -2  -2   6    9.44    0.22
   2   2  -6    9.45    0.23
   2  -2  -6    9.89    0.19
   2   2  -5    0.03    0.03
   2  -2  -5    0.02    0.02
  -2  -2   5    0.02    0.02
  -2  -2   4   26.41    0.32
   2   2  -4   26.54    0.35
   2  -2  -4   26.89    0.31
  -2  -2   3    1.92    0.08
   2  -2  -3    1.96    0.08
  -2   2   3    1.89    0.04
   2   2  -3    1.77    0.09
   2   2  -2    1.67    0.08
   2   2  -1    0.00    0.02
   2   2   0    1.99    0.09
   2   2   1   23.67    0.30
   2   2   2   34.99    0.36
   2   2   3    2.10    0.09
  -2  -2  -3    2.13    0.09
  -2   2  -3    2.04    0.07
  -2  -2  -4    0.46    0.05
   2   2   4    0.42    0.04
   2  -2   4    0.41    0.05
  -2   2  -4    0.41    0.03
  -2  -2  -5    1.56    0.09
   2  -2   5    1.67    0.10
  -2   2  -5    1.47    0.05
   2   2   5    1.48    0.08
   2   2   5    1.29    0.03
  -2   2  -6    0.01    0.01
   2  -2   6    0.00    0.03
  -2  -2  -6    0.01    0.02
   2   2   7    2.03    0.12
   2  -2   7    1.94    0.12
  -2  -2  -7    1.90    0.11
  -2   2  -7    1.57    0.05
   2  -2   8    5.35    0.22
  -2  -2  -8    5.84    0.19
   2   2   8    5.67    0.22
   2  -2   9    0.02    0.04
  -2  -2  -9    0.00    0.03
   2   2   9    0.06    0.04
  -2  -2 -10    0.30    0.05
   2  -2  10    0.22    0.05
   2   2  10    0.28    0.06
   2   2  11    0.73    0.10
  -2  -2 -11    0.75    0.08
   2  -2  11    0.92    0.12
   2  -2  12    0.28    0.08
   2   2  12    0.40    0.09
   2  -2  13   -0.01    0.05
   2  -2  14    0.03    0.04
   2  -2  15    0.51    0.11
   2  -2  16   -0.07    0.07
  -2  -3  17    0.05    0.05
  -2  -3  16    0.31    0.09
  -2  -3  15    0.06    0.06
  -2  -3  14    0.38    0.09
  -2  -3  13    3.75    0.23
  -2  -3  12    9.47    0.34
   2   3 -12    9.37    0.29
  -2  -3  11    0.27    0.06
   2   3 -11    0.18    0.05
  -2  -3  10    0.49    0.08
   2   3 -10    0.46    0.06
  -2  -3   9    2.22    0.14
   2   3  -9    2.42    0.14
  -2  -3   8   35.20    0.53
   2   3  -8   34.89    0.50
   2   3  -7    0.13    0.04
  -2  -3   7    0.11    0.04
  -2  -3   6    0.90    0.08
   2   3  -6    0.98    0.08
  -2  -3   5    2.83    0.13
   2   3  -5    2.82    0.13
   2   3  -4   14.42    0.29
  -2  -3   4   14.00    0.26
   2   3  -3    0.63    0.06
   2   3  -2    5.99    0.18
   2   3  -1    0.33    0.05
   2   3   0    8.81    0.21
  -2   3  -1    0.65    0.05
   2   3   1    0.76    0.07
  -2   3  -2    1.11    0.07
   2   3   2    1.10    0.08
   2   3   3    0.12    0.03
  -2   3  -3    0.06    0.02
  -2   3  -4    0.59    0.05
   2   3   4    0.65    0.06
  -2  -3  -5    0.16    0.04
   2   3   5    0.28    0.05
  -2   3  -5    0.21    0.03
   2  -3   5    0.32    0.06
   2  -3   6    0.61    0.07
   2   3   6    0.53    0.06
  -2   3  -6    0.67    0.05
  -2  -3  -6    0.58    0.06
  -2   3  -7    0.05    0.02
   2  -3   7    0.03    0.04
  -2  -3  -7    0.02    0.02
   2  -3   8    9.39    0.30
  -2  -3  -8    9.64    0.24
  -2  -3  -9    0.55    0.06
   2  -3   9    0.73    0.10
  -2  -3 -10   -0.02    0.02
   2  -3  10    0.01    0.04
   2  -3  11    0.10    0.05
   2  -3  12    6.31    0.31
   2  -3  13    0.57    0.11
   2  -3  14    0.73    0.12
   2  -3  15    0.12    0.07
   2  -3  16    1.68    0.19
  -2  -4  16   -0.01    0.05
  -2  -4  15    0.14    0.07
  -2  -4  14    0.25    0.07
  -2  -4  13    0.05    0.04
  -2  -4  12   -0.01    0.04
   2   4 -12    0.05    0.04
   2   4 -11    0.65    0.08
  -2  -4  11    0.57    0.09
  -2  -4  10    1.35    0.12
   2   4 -10    1.37    0.12
   2   4  -9    1.53    0.12
  -2  -4   9    1.54    0.13
  -2  -4   8    8.45    0.28
   2   4  -8    9.17    0.28
  -2  -4   7    0.03    0.03
   2   4  -7    0.04    0.03
  -2  -4   6    2.14    0.13
   2   4  -6    2.18    0.13
  -2  -4   5    3.25    0.15
   2   4  -5    3.26    0.16
   2   4  -4    2.16    0.13
   2   4  -3   10.63    0.28
   2   4  -2    0.08    0.04
   2   4  -1    0.28    0.05
  -2   4   0    0.15    0.04
   2   4   0    0.17    0.05
   2   4   1    0.68    0.07
  -2   4  -1    0.76    0.07
  -2   4  -2    0.82    0.07
   2   4   2    0.84    0.08
  -2   4  -3    2.86    0.13
   2   4   3    2.97    0.15
  -2   4  -4    4.89    0.16
   2   4   4    4.67    0.18
   2   4   5    0.10    0.04
   2  -4   5    0.21    0.06
  -2   4  -5    0.13    0.03
   2  -4   6    0.26    0.06
   2   4   6    0.27    0.05
  -2   4  -6    0.25    0.04
   2  -4   7    1.43    0.13
   2  -4   8    0.66    0.09
   2  -4   9   -0.01    0.04
   2  -4  10    0.39    0.09
   2  -4  11    0.09    0.05
   2  -4  12    0.76    0.12
   2  -4  13    1.12    0.14
   2  -4  14    0.20    0.07
   2  -4  15    0.13    0.07
  -2  -5  15    0.18    0.08
  -2  -5  14    0.29    0.08
  -2  -5  13   -0.02    0.05
  -2  -5  12    1.45    0.15
  -2  -5  11    0.98    0.12
   2   5 -11    1.07    0.11
   2   5 -10    0.36    0.07
  -2  -5  10    0.35    0.07
   2   5  -9    0.21    0.06
  -2  -5   9    0.20    0.06
  -2  -5   8    0.14    0.05
   2   5  -8    0.28    0.06
  -2  -5   7    0.04    0.03
   2   5  -7    0.03    0.04
   2   5  -6    7.41    0.27
  -2  -5   6    7.05    0.26
   2   5  -5    0.67    0.08
   2   5  -4    0.21    0.05
   2   5  -3    1.37    0.12
   2   5  -2    0.26    0.06
   2   5  -1    1.90    0.13
   2   5   0    0.01    0.04
  -2   5   0    0.04    0.04
  -2   5  -1   -0.02    0.04
   2   5   1   -0.01    0.04
  -2   5  -2    0.93    0.09
   2   5   2    0.80    0.09
   2   5   3    0.05    0.04
  -2   5  -3    0.00    0.03
   2   5   4    0.21    0.06
  -2   5  -4    0.22    0.05
   2   5   5    1.35    0.12
  -2   5  -5    1.29    0.10
   2  -5   6    2.60    0.18
   2   5   6    3.04    0.17
  -2   5  -6    2.84    0.14
   2  -5   7    0.04    0.04
   2  -5   8    2.62    0.19
   2  -5   9    0.21    0.07
   2  -5  10    1.71    0.16
   2  -5  11   -0.01    0.05
   2  -5  12    0.11    0.06
   2  -5  13   -0.07    0.06
   2  -5  14   -0.03    0.06
  -2  -6  14    0.03    0.06
  -2  -6  13    0.14    0.07
  -2  -6  12   -0.03    0.06
   2   6 -11    0.01    0.03
  -2  -6  11    0.10    0.05
  -2  -6  10    0.49    0.09
   2   6 -10    0.48    0.09
   2   6  -9    0.07    0.05
  -2  -6   9    0.07    0.05
  -2  -6   8    0.14    0.06
   2   6  -8    0.15    0.05
   2   6  -7    0.03    0.04
  -2  -6   7    0.22    0.06
  -2  -6   6   -0.02    0.03
   2   6  -6   -0.02    0.04
   2   6  -5    0.13    0.05
   2   6  -4    0.12    0.05
   2   6  -3    1.53    0.13
   2   6  -2   18.39    0.45
   2   6  -1    0.98    0.11
   2   6   0    0.03    0.04
  -2   6   0   -0.02    0.04
  -2   6  -1   10.30    0.31
   2   6   1    9.43    0.32
   2   6   2    1.01    0.11
  -2   6  -2    1.32    0.11
  -2   6  -3    3.66    0.19
   2   6   3    3.41    0.19
  -2   6  -4    0.72    0.08
   2   6   4    0.74    0.09
   2   6   5    1.65    0.14
  -2   6  -5    1.73    0.13
   2  -6   6    6.33    0.29
   2   6   6    6.45    0.28
  -2   6  -6    6.44    0.24
   2  -6   7    0.26    0.07
   2  -6   8    0.24    0.08
   2  -6   9    0.06    0.06
   2  -6  10    1.58    0.17
   2  -6  11    0.04    0.06
   2  -6  12    0.52    0.10
   2  -6  13    0.00    0.05
  -2  -7  13    0.22    0.07
  -2  -7  12   -0.09    0.07
  -2  -7  11    0.02    0.04
   2   7 -10    0.03    0.05
  -2  -7  10    0.04    0.05
  -2  -7   9    0.01    0.04
   2   7  -9    0.03    0.04
  -2  -7   8   -0.09    0.05
   2   7  -8    0.11    0.05
   2   7  -7    0.09    0.05
  -2  -7   7    0.06    0.04
   2   7  -6    1.83    0.16
  -2  -7   6    1.87    0.16
   2   7  -5    0.64    0.10
   2   7  -4    0.08    0.06
   2   7  -3    1.81    0.16
   2   7  -2    1.85    0.16
   2   7  -1    0.71    0.10
   2   7   0    0.52    0.09
  -2   7  -1    3.43    0.20
   2   7   1    3.28    0.21
   2   7   2    0.05    0.05
  -2   7  -2    0.11    0.06
  -2   7  -3    2.18    0.16
   2   7   3    2.17    0.17
  -2   7  -4    0.15    0.05
   2   7   4    0.02    0.05
  -2   7  -5   -0.02    0.04
   2   7   5    0.08    0.06
   2   7   6    0.01    0.04
   2  -7   6    0.17    0.07
   2  -7   7    1.10    0.14
   2  -7   8    0.22    0.08
   2  -7   9    0.64    0.11
   2  -7  10    0.34    0.09
   2  -7  11   -0.19    0.08
  -2  -8  11   -0.10    0.06
   2   8 -10   -0.01    0.04
  -2  -8  10    0.04    0.05
  -2  -8   9    0.20    0.07
   2   8  -9    0.02    0.04
  -2  -8   8    0.86    0.13
   2   8  -8    0.62    0.10
   2   8  -7    0.11    0.06
  -2  -8   7   -0.02    0.04
   2   8  -6    0.56    0.10
  -2  -8   6    0.44    0.09
   2   8  -5   -0.02    0.05
   2   8  -4    0.06    0.05
   2   8  -3    0.13    0.06
   2   8  -2    0.94    0.12
   2   8  -1    0.07    0.05
   2   8   0    0.09    0.06
   2   8   1    0.10    0.06
  -2   8  -2    1.90    0.17
   2   8   2    1.98    0.18
   2   8   3   -0.04    0.04
  -2   8  -3   -0.01    0.05
  -2   8  -4    0.50    0.10
   2   8   4    0.25    0.08
   2   8   5   -0.01    0.05
  -2   8  -5    0.00    0.03
   2  -8   6    0.07    0.06
   2  -8   7    0.18    0.08
   2  -8   8    0.28    0.09
   2  -8   9    0.18    0.07
   2   9  -9    1.95    0.19
   2   9  -8    0.95    0.14
  -2  -9   8    0.99    0.14
  -2  -9   7    0.06    0.05
   2   9  -7   -0.02    0.05
  -2  -9   6    0.02    0.05
   2   9  -6    0.17    0.07
   2   9  -5    0.94    0.13
   2   9  -4    1.08    0.15
   2   9  -3    0.17    0.08
   2   9  -2    1.28    0.15
   2   9  -1    0.25    0.07
   2   9   0    0.28    0.08
   2   9   1    0.24    0.07
   2   9   2    0.08    0.05
   2   9   3    0.11    0.07
   2   9   4    0.72    0.12
   2   9   5    0.74    0.13
  -3   0  18    0.03    0.05
  -3   0  17    0.04    0.04
  -3   0  16    0.03    0.05
  -3   0  15    0.17    0.07
   3   0 -15    0.13    0.04
  -3   0  14    0.02    0.05
  -3   0  13    5.98    0.28
   3   0 -12   -0.02    0.02
  -3   0  12    0.06    0.05
  -3   0  11    8.97    0.30
  -3   0  10    0.01    0.03
  -3   0   9    0.81    0.08
  -3   0   8    0.00    0.03
  -3   0   7    0.73    0.07
  -3   0   6   -0.01    0.02
  -3   0   5    0.07    0.02
  -3   0   4    0.02    0.02
   3   0  -3   82.60    0.58
   3   0  -2    0.00    0.02
   3   0  -1    1.42    0.07
  -3   0   1    1.40    0.07
  -3   0   0    0.00    0.02
   3   0   0    0.00    0.02
   3   0   0    0.00    0.01
  -3   0  -1   46.16    0.43
   3   0   1   46.57    0.39
   3   0   1   45.11    0.27
   3   0   1   46.69    0.32
   3   0   2    0.02    0.01
  -3   0  -2    0.02    0.03
   3   0   2    0.05    0.02
   3   0   2    0.03    0.02
   3   0   3    0.24    0.02
   3   0   3    0.22    0.03
   3   0   3    0.25    0.03
  -3   0  -3    0.29    0.04
  -3   0  -4    0.00    0.03
   3   0   4   -0.02    0.02
   3   0   5    0.44    0.05
  -3   0  -5    0.30    0.05
   3   0   6   -0.01    0.03
   3   0   7    2.34    0.13
   3   0   8   -0.03    0.04
   3   0   9    0.55    0.08
   3   0  10   -0.08    0.05
   3   0  11    1.41    0.13
   3   0  12    0.07    0.05
  -3   0 -12   -0.04    0.04
  -3   0 -13    0.63    0.10
   3   0  13    0.40    0.09
   3   0  14    0.05    0.05
  -3   0 -14    0.01    0.04
  -3   0 -15    0.39    0.09
   3   0  15    0.45    0.11
   3   0  16    0.04    0.05
  -3  -1  18    0.25    0.08
  -3  -1  17    0.11    0.07
  -3  -1  16    0.03    0.06
  -3   1  15    0.93    0.12
  -3  -1  15    0.91    0.13
  -3   1  14    0.33    0.08
   3   1 -14    0.46    0.08
  -3  -1  14    0.52    0.09
   3   1 -13    0.55    0.08
  -3  -1  13    0.56    0.09
  -3   1  13    0.48    0.08
   3   1 -12    0.87    0.09
  -3   1  12    0.73    0.10
  -3  -1  12    0.69    0.10
  -3  -1  11    3.83    0.20
  -3   1  11    3.74    0.20
   3  -1 -11    3.49    0.15
   3   1 -11    4.05    0.19
   3   1 -10    1.47    0.11
  -3  -1  10    1.41    0.12
  -3   1  10    1.38    0.12
   3  -1 -10    1.34    0.09
   3   1  -9    3.27    0.16
  -3   1   9    3.13    0.16
  -3  -1   9    3.14    0.16
   3  -1  -9    3.30    0.13
  -3  -1   8    7.09    0.22
   3  -1  -8    7.35    0.19
   3   1  -8    7.62    0.23
  -3  -1   7   12.61    0.27
   3  -1  -7   12.70    0.25
   3   1  -7   12.70    0.29
   3   1  -6    8.84    0.23
  -3  -1   6    8.72    0.20
   3  -1  -6    8.92    0.20
   3  -1  -5    2.64    0.11
  -3  -1   5    2.75    0.10
   3   1  -5    2.62    0.12
  -3  -1   4    9.58    0.17
   3   1  -4    9.45    0.22
   3  -1  -4    9.49    0.20
   3  -1  -3    0.03    0.02
  -3  -1   3    0.01    0.01
   3   1  -3    0.04    0.02
   3  -1  -2    0.12    0.03
  -3  -1   2    0.14    0.01
  -3   1   2    0.15    0.02
   3   1  -2    0.15    0.03
   3   1  -1    4.25    0.13
  -3   1   1    4.04    0.11
   3  -1  -1    4.28    0.13
   3   1   0    5.50    0.13
   3  -1   0    5.68    0.15
  -3   1   0    5.37    0.14
  -3  -1   0    5.66    0.15
  -3   1  -1    0.83    0.06
   3  -1   1    0.76    0.06
  -3  -1  -1    0.69    0.06
   3   1   1    0.75    0.05
   3   1   2    1.86    0.07
   3   1   2    1.83    0.07
  -3  -1  -2    1.97    0.10
   3   1   2    1.79    0.07
   3  -1   2    1.81    0.08
   3  -1   3   12.12    0.22
   3   1   3   11.66    0.19
   3   1   3   12.25    0.18
   3   1   3   12.84    0.18
  -3  -1  -3   12.38    0.25
   3   1   4   21.01    0.29
  -3  -1  -4   22.19    0.35
   3   1   4   21.28    0.23
   3  -1   4   20.99    0.32
   3   1   4   21.53    0.22
   3   1   5   20.84    0.32
   3  -1   5   21.12    0.34
   3   1   5   20.49    0.21
  -3  -1  -5   20.92    0.35
   3   1   6    0.20    0.04
   3  -1   6    0.19    0.04
  -3  -1  -6    0.24    0.05
   3   1   7    5.46    0.20
   3  -1   7    5.14    0.20
  -3  -1  -7    5.29    0.20
  -3  -1  -8    0.03    0.04
   3   1   8    0.08    0.04
   3  -1   8    0.04    0.03
  -3  -1  -9   -0.01    0.03
   3  -1   9    0.01    0.03
   3   1   9   -0.01    0.03
  -3  -1 -10   -0.07    0.04
   3  -1  10    0.00    0.04
   3   1  10   -0.03    0.05
   3   1  11    0.25    0.06
   3  -1  11    0.18    0.06
  -3  -1 -11    0.20    0.05
  -3  -1 -12    1.37    0.13
   3  -1  12    1.21    0.14
   3   1  12    1.31    0.14
   3  -1  13    0.21    0.06
   3   1  13    0.22    0.07
  -3  -1 -13    0.21    0.06
   3  -1  14    0.13    0.07
   3   1  14    0.18    0.06
   3  -1  15    0.17    0.07
   3   1  15    0.34    0.10
   3   1  16   -0.01    0.06
  -3   1 -16   -0.08    0.06
   3  -1  16   -0.09    0.07
  -3  -2  18    0.07    0.05
  -3  -2  17    0.08    0.06
  -3  -2  16    0.08    0.06
  -3  -2  15    0.86    0.13
   3   2 -14    1.08    0.11
  -3  -2  14    1.48    0.15
   3   2 -13    0.30    0.06
  -3  -2  13    0.26    0.06
  -3  -2  12    0.42    0.08
   3   2 -12    0.50    0.07
   3   2 -11    0.96    0.10
  -3  -2  11    0.98    0.11
   3   2 -10    1.86    0.13
   3  -2 -10    1.91    0.11
  -3  -2  10    1.61    0.13
   3   2  -9    1.86    0.13
  -3  -2   9    1.78    0.12
   3  -2  -9    1.84    0.10
  -3  -2   8    0.52    0.06
   3   2  -8    0.39    0.06
   3  -2  -8    0.42    0.05
   3   2  -7    1.81    0.11
  -3  -2   7    1.92    0.11
   3  -2  -7    2.18    0.11
   3   2  -6    3.75    0.16
  -3  -2   6    3.40    0.13
   3  -2  -6    3.80    0.14
   3   2  -5   11.48    0.26
  -3  -2   5   11.34    0.22
   3  -2  -5   10.97    0.23
   3  -2  -4    9.83    0.22
  -3  -2   4    9.92    0.18
   3   2  -4    9.98    0.24
   3   2  -3   20.15    0.33
   3  -2  -3   20.94    0.31
  -3   2   3   20.25    0.21
  -3  -2   3   20.09    0.23
   3  -2  -2   24.38    0.34
  -3  -2   2   24.18    0.23
   3   2  -2   24.62    0.34
  -3   2   2   23.71    0.25
   3   2  -1    9.99    0.21
   3   2   0    0.05    0.03
   3   2   1    0.41    0.05
  -3  -2  -2    0.22    0.04
   3   2   2    0.13    0.03
   3   2   3    0.27    0.03
   3  -2   3    0.26    0.04
  -3  -2  -3    0.24    0.04
   3   2   4    0.10    0.02
   3   2   4    0.07    0.02
  -3  -2  -4    0.14    0.04
   3  -2   4    0.14    0.04
   3   2   5    1.97    0.06
   3  -2   5    2.13    0.12
  -3  -2  -5    2.08    0.11
   3   2   5    2.12    0.09
   3  -2   6    3.00    0.15
   3   2   6    2.76    0.11
  -3  -2  -6    3.08    0.14
   3  -2   7    0.18    0.05
  -3  -2  -7    0.22    0.05
   3   2   8    0.21    0.05
   3  -2   8    0.14    0.05
  -3  -2  -8    0.23    0.05
   3  -2   9    0.03    0.04
  -3  -2  -9    0.02    0.03
   3   2   9    0.06    0.04
   3  -2  10    1.51    0.14
   3   2  10    1.70    0.14
  -3  -2 -10    1.56    0.12
   3   2  11    0.34    0.07
  -3  -2 -11    0.29    0.06
   3  -2  11    0.25    0.07
  -3  -2 -12    0.48    0.08
   3  -2  12    0.45    0.09
   3  -2  13    0.38    0.09
   3  -2  14   -0.05    0.05
   3  -2  15    0.08    0.05
   3  -2  16    0.03    0.06
  -3  -3  17    0.11    0.06
  -3  -3  16    0.39    0.09
  -3  -3  15    0.07    0.05
  -3  -3  14    0.01    0.05
  -3  -3  13    0.80    0.11
   3   3 -13    0.77    0.10
  -3  -3  12    0.27    0.07
   3   3 -12    0.28    0.06
   3   3 -11    4.27    0.20
  -3  -3  11    3.89    0.21
  -3  -3  10    0.11    0.04
   3   3 -10    0.04    0.04
   3   3  -9    1.01    0.10
  -3  -3   9    1.07    0.10
   3   3  -8    0.15    0.05
  -3  -3   8    0.13    0.04
   3   3  -7    5.09    0.20
  -3  -3   7    5.18    0.19
   3   3  -6    4.59    0.18
  -3  -3   6    4.57    0.16
   3   3  -5    0.99    0.09
  -3  -3   5    1.02    0.07
  -3   3   4    0.00    0.01
  -3  -3   4    0.02    0.02
   3   3  -4    0.02    0.03
   3   3  -3    4.54    0.17
  -3   3   3    4.62    0.10
   3   3  -2    4.15    0.16
   3   3  -1    0.52    0.06
   3   3   0    0.71    0.07
   3   3   1    7.73    0.21
   3   3   2    0.57    0.06
   3   3   3   11.84    0.26
   3  -3   4    1.31    0.10
   3   3   4    1.39    0.09
   3   3   5    0.01    0.02
  -3  -3  -5    0.04    0.03
   3  -3   5   -0.01    0.03
  -3  -3  -6    0.35    0.06
   3   3   6    0.22    0.04
   3  -3   6    0.30    0.06
   3  -3   7    0.03    0.03
  -3  -3  -7   -0.02    0.03
  -3  -3  -8    0.13    0.04
   3  -3   8    0.10    0.05
  -3  -3  -9    0.08    0.04
   3  -3   9    0.01    0.04
   3  -3  10   -0.02    0.04
  -3  -3 -10   -0.01    0.03
   3  -3  11    0.50    0.09
   3  -3  12    0.36    0.08
   3  -3  13    0.15    0.07
   3  -3  14    0.21    0.08
   3  -3  15    0.61    0.12
  -3  -4  17    0.21    0.07
  -3  -4  16    0.01    0.05
  -3  -4  15    0.59    0.11
  -3  -4  14    0.00    0.05
   3   4 -13    0.35    0.07
  -3  -4  13    0.36    0.08
  -3  -4  12    1.41    0.14
   3   4 -12    1.19    0.12
  -3  -4  11    1.24    0.13
   3   4 -11    1.29    0.12
  -3  -4  10    0.65    0.09
   3   4 -10    0.67    0.09
  -3  -4   9    0.39    0.07
   3   4  -9    0.49    0.08
  -3  -4   8    6.32    0.24
   3   4  -8    6.61    0.25
  -3  -4   7    0.91    0.09
   3   4  -7    1.01    0.10
   3   4  -6    1.30    0.11
  -3  -4   6    1.17    0.09
   3   4  -5    1.59    0.12
  -3  -4   5    1.52    0.10
   3   4  -4    0.12    0.05
  -3   4   4    0.04    0.01
   3   4  -3    0.28    0.06
   3   4  -2    0.05    0.05
   3   4  -1   28.84    0.47
   3   4   0    5.31    0.20
   3   4   1    0.11    0.04
   3   4   2    0.98    0.09
   3   4   3    0.33    0.06
   3   4   4    0.28    0.05
   3  -4   5    1.73    0.13
   3   4   5    1.46    0.11
   3  -4   6    1.09    0.11
   3   4   6    0.96    0.09
   3  -4   7    7.37    0.28
   3   4   7    7.29    0.24
   3  -4   8    0.71    0.10
   3  -4   9    0.08    0.06
   3  -4  10    0.02    0.05
   3  -4  11    0.09    0.05
   3  -4  12    0.10    0.06
   3  -4  13   -0.01    0.05
   3  -4  14    1.33    0.16
  -3  -5  16    0.50    0.11
  -3  -5  15    0.10    0.06
  -3  -5  14    0.10    0.06
  -3  -5  13    0.26    0.07
   3   5 -13    0.08    0.05
  -3  -5  12    0.26    0.07
   3   5 -12    0.30    0.07
  -3  -5  11    0.66    0.10
   3   5 -11    0.64    0.10
   3   5 -10    0.05    0.05
  -3  -5  10   -0.03    0.05
  -3  -5   9    1.04    0.11
   3   5  -9    0.92    0.11
  -3  -5   8    0.10    0.04
   3   5  -8    0.08    0.05
  -3  -5   7   10.07    0.31
   3   5  -7   10.37    0.33
   3   5  -6    1.20    0.11
  -3  -5   6    1.33    0.11
   3   5  -5    9.76    0.32
  -3  -5   5   10.03    0.29
   3   5  -4    2.50    0.16
   3   5  -3    0.99    0.10
   3   5  -2    0.12    0.05
   3   5  -1    0.21    0.06
   3   5   0    5.55    0.23
   3   5   1    2.82    0.16
   3   5   2    2.47    0.15
   3   5   3    0.08    0.04
   3   5   4    0.36    0.07
   3  -5   5    1.53    0.13
   3   5   5    1.39    0.12
   3   5   6    0.05    0.04
   3  -5   6    0.01    0.04
   3  -5   7    1.02    0.12
   3   5   7    1.01    0.11
   3  -5   8    0.59    0.09
   3  -5   9    2.44    0.19
   3  -5  10    0.09    0.05
   3  -5  11    0.92    0.13
   3  -5  12    0.03    0.06
   3  -5  13    0.95    0.14
  -3  -6  15    0.22    0.08
  -3  -6  14    0.07    0.06
  -3  -6  13    0.31    0.08
   3   6 -12    0.04    0.04
  -3  -6  12   -0.05    0.04
  -3  -6  11    0.15    0.06
   3   6 -11    0.16    0.06
   3   6 -10    0.13    0.05
  -3  -6  10    0.11    0.05
  -3  -6   9    3.39    0.21
   3   6  -9    3.04    0.21
   3   6  -8    0.09    0.05
  -3  -6   8    0.03    0.03
  -3  -6   7    1.97    0.15
   3   6  -7    2.21    0.17
   3   6  -6    0.90    0.11
  -3  -6   6    0.97    0.11
  -3  -6   5    0.24    0.05
   3   6  -5    0.22    0.07
   3   6  -4    0.22    0.06
   3   6  -3    1.83    0.15
   3   6  -2    4.32    0.23
   3   6  -1    2.35    0.16
   3   6   0    1.08    0.11
   3   6   1    2.17    0.16
   3   6   2    0.23    0.06
   3   6   3    0.18    0.06
   3   6   4    1.09    0.12
   3   6   5    5.37    0.25
   3   6   6    0.08    0.05
   3  -6   6    0.11    0.05
   3  -6   7    0.07    0.05
   3   6   7    0.06    0.05
   3  -6   8    1.51    0.16
   3  -6   9    0.18    0.07
   3  -6  10    0.14    0.07
   3  -6  11    0.05    0.06
   3  -6  12    0.45    0.10
  -3  -7  13    0.91    0.13
  -3  -7  12    0.52    0.10
   3   7 -11    0.23    0.08
  -3  -7  11    0.43    0.09
   3   7 -10   -0.05    0.04
  -3  -7  10    0.01    0.04
   3   7  -9   -0.04    0.04
  -3  -7   9    0.05    0.05
   3   7  -8    0.25    0.07
  -3  -7   8    0.16    0.06
   3   7  -7    0.26    0.08
  -3  -7   7    0.39    0.08
   3   7  -6    0.50    0.09
  -3  -7   6    0.51    0.09
   3   7  -5    1.81    0.16
   3   7  -4    0.09    0.06
   3   7  -3    3.29    0.21
   3   7  -2    0.97    0.12
   3   7  -1    0.06    0.05
   3   7   0    0.68    0.10
   3   7   1    0.40    0.08
   3   7   2    1.26    0.14
   3   7   3    0.58    0.10
   3   7   4    0.15    0.05
   3   7   5    1.13    0.13
   3   7   6    0.17    0.05
   3  -7   6    0.18    0.08
   3  -7   7    0.17    0.06
   3   7   7   -0.01    0.05
   3  -7   8    1.00    0.14
   3  -7   9    1.76    0.18
   3  -7  10    0.04    0.04
  -3  -8  11    0.09    0.06
   3   8 -11    0.09    0.05
   3   8 -10    0.06    0.05
  -3  -8  10   -0.04    0.04
   3   8  -9    0.73    0.12
  -3  -8   9    0.77    0.12
   3   8  -8    0.43    0.09
  -3  -8   8    0.18    0.06
   3   8  -7    0.10    0.06
  -3  -8   7    0.12    0.06
   3   8  -6    0.05    0.05
  -3  -8   6    0.08    0.04
   3   8  -5    0.15    0.06
   3   8  -4    0.05    0.05
   3   8  -3    1.49    0.16
   3   8  -2    0.58    0.10
   3   8  -1    0.03    0.04
   3   8   0    0.14    0.07
   3   8   1    0.26    0.07
   3   8   2    0.41    0.09
   3   8   3   -0.07    0.06
   3   8   4    0.21    0.07
   3   8   5    0.44    0.09
   3   8   6   -0.01    0.04
   3  -8   6    0.13    0.07
   3  -8   7    0.66    0.12
   3  -8   8    0.07    0.06
  -3  -9   9    0.31    0.09
  -3  -9   8    0.19    0.08
   3   9  -7    0.19    0.08
  -3  -9   7    0.15    0.06
   3   9  -6    0.32    0.09
  -3  -9   6    0.25    0.07
   3   9  -5    0.26    0.09
  -3  -9   5    0.15    0.06
   3   9  -4    0.11    0.07
   3   9  -3    0.05    0.04
   3   9  -2    0.59    0.11
   3   9  -1    1.67    0.18
   3   9   0    0.34    0.09
   3   9   1    0.35    0.09
   3   9   2    0.01    0.05
   3   9   3   -0.03    0.04
   3   9   4    0.06    0.06
   3   9   5    0.15    0.08
  -4   0  18    1.24    0.17
  -4   0  17    0.12    0.06
  -4   0  16    0.49    0.10
   4   0 -16    0.65    0.10
  -4   0  15   -0.01    0.04
   4   0 -15   -0.10    0.06
  -4   0  14    0.34    0.08
  -4   0  13   -0.03    0.04
   4   0 -13    0.03    0.03
   4   0 -12    3.18    0.16
  -4   0  12    3.39    0.20
   4   0 -11   -0.03    0.03
  -4   0  11    0.02    0.04
  -4   0  10   12.88    0.33
   4   0 -10   13.02    0.31
  -4   0   9   -0.02    0.03
   4   0  -9    0.00    0.03
   4   0  -8    0.05    0.03
  -4   0   8    0.06    0.03
  -4   0   7    0.04    0.03
   4   0  -7    0.02    0.03
  -4   0   6    0.11    0.03
   4   0  -6    0.11    0.04
   4   0  -5   -0.01    0.03
   4   0  -4    5.39    0.18
   4   0  -3    0.02    0.02
  -4   0   2    3.87    0.13
   4   0  -2    4.08    0.14
   4   0  -1    0.00    0.02
  -4   0   1    0.02    0.03
   4   0   0   25.03    0.18
  -4   0   0   25.33    0.35
   4   0   0   25.74    0.35
  -4   0  -1    0.00    0.03
   4   0   1    0.02    0.02
   4   0   1    0.02    0.02
   4   0   1    0.01    0.01
   4   0   2    0.00    0.01
   4   0   2    0.02    0.02
  -4   0  -2    0.05    0.03
   4   0   2    0.01    0.01
   4   0   3    0.02    0.02
  -4   0  -3    0.04    0.03
   4   0   3    0.01    0.01
   4   0   3   -0.02    0.01
   4   0   4  172.55    0.89
  -4   0  -4  174.65    1.09
   4   0   5    0.01    0.02
  -4   0  -5    0.00    0.03
   4   0   6    3.36    0.15
  -4   0  -6    3.08    0.16
   4   0   7    0.03    0.03
  -4   0  -7   -0.02    0.04
   4   0   8    4.30    0.20
  -4   0  -8    4.37    0.21
  -4   0  -9    0.03    0.04
   4   0   9    0.02    0.04
  -4   0 -10    0.02    0.04
   4   0  10    0.03    0.04
  -4   0 -11    0.03    0.04
   4   0  11    0.00    0.03
   4   0  12    0.36    0.08
  -4   0 -12    0.39    0.08
  -4   0 -13   -0.07    0.05
   4   0  13   -0.02    0.03
   4   0  14   -0.04    0.04
  -4   0 -14   -0.04    0.04
  -4   0 -15   -0.14    0.06
   4   0  15   -0.06    0.04
   4   0  16    0.48    0.10
  -4  -1  18    0.12    0.06
  -4  -1  17    0.53    0.11
  -4  -1  16    0.13    0.06
  -4  -1  15    0.04    0.04
   4   1 -15    0.07    0.05
   4   1 -14    1.63    0.15
  -4  -1  14    1.73    0.16
  -4  -1  13    0.07    0.04
   4   1 -13    0.03    0.04
  -4  -1  12    0.42    0.07
   4   1 -12    0.34    0.07
   4  -1 -12    0.41    0.06
  -4  -1  11    3.17    0.18
   4   1 -11    3.48    0.19
   4  -1 -11    3.00    0.15
  -4  -1  10    3.04    0.16
   4  -1 -10    2.98    0.15
   4   1 -10    2.80    0.17
   4   1  -9    1.34    0.11
  -4  -1   9    1.39    0.10
   4  -1  -9    1.27    0.09
   4  -1  -8    0.08    0.03
   4   1  -8    0.05    0.04
  -4  -1   8    0.08    0.04
  -4  -1   7    0.07    0.02
   4   1  -7    0.05    0.03
   4  -1  -7    0.02    0.03
   4   1  -6   15.42    0.33
  -4  -1   6   15.62    0.26
   4  -1  -6   15.74    0.31
   4  -1  -5    0.07    0.03
  -4  -1   5    0.04    0.02
   4   1  -5    0.03    0.03
  -4  -1   4    0.37    0.03
   4   1  -4    0.30    0.05
   4  -1  -4    0.39    0.05
  -4  -1   3    1.54    0.05
   4   1  -3    1.46    0.09
  -4   1   3    1.49    0.08
   4  -1  -3    1.63    0.10
   4   1  -2    2.14    0.10
  -4   1   2    2.13    0.09
   4  -1  -2    2.07    0.11
   4  -1  -1    0.73    0.06
   4   1  -1    0.72    0.06
  -4   1   1    0.79    0.06
   4   1   0   18.44    0.29
   4   1   0   18.31    0.28
  -4  -1   0   18.83    0.32
  -4   1   0   19.03    0.30
   4  -1   0   18.76    0.31
   4   1   1    4.40    0.13
   4  -1   1    4.56    0.12
  -4   1  -1    4.51    0.16
   4   1   1    4.74    0.14
  -4  -1  -1    4.45    0.16
   4  -1   1    4.56    0.15
   4   1   2    2.60    0.08
   4  -1   2    2.50    0.10
   4   1   2    2.66    0.10
   4  -1   2    2.65    0.12
   4   1   2    2.61    0.10
  -4   1  -2    2.55    0.12
  -4  -1  -2    2.58    0.13
   4   1   3    3.72    0.11
   4  -1   3    3.64    0.13
  -4  -1  -3    3.72    0.16
   4   1   3    3.66    0.12
  -4   1  -3    3.59    0.16
   4   1   3    3.68    0.11
  -4  -1  -4    0.12    0.04
   4   1   4    0.03    0.02
   4   1   4    0.05    0.02
   4  -1   4    0.02    0.02
   4   1   4    0.07    0.02
   4   1   5    0.43    0.04
   4   1   5    0.38    0.05
   4  -1   5    0.31    0.05
   4   1   5    0.39    0.03
  -4  -1  -5    0.45    0.07
   4   1   6    0.96    0.08
   4  -1   6    0.99    0.09
  -4  -1  -6    1.08    0.10
   4   1   7    2.85    0.15
   4  -1   7    2.91    0.16
  -4  -1  -7    2.59    0.15
   4   1   8    3.30    0.17
   4  -1   8    3.64    0.18
  -4  -1  -8    3.38    0.18
   4   1   9    0.11    0.04
   4  -1   9    0.12    0.05
  -4  -1  -9    0.09    0.04
   4   1  10    0.51    0.08
   4  -1  10    0.32    0.07
  -4  -1 -10    0.51    0.08
   4   1  11    0.12    0.05
   4  -1  11    0.09    0.05
  -4  -1 -11    0.13    0.06
   4   1  12    0.43    0.09
  -4  -1 -12    0.37    0.07
   4  -1  12    0.58    0.10
  -4   1 -13    0.50    0.10
   4   1  13    0.38    0.08
  -4  -1 -13    0.30    0.08
   4  -1  13    0.38    0.09
  -4   1 -14    0.45    0.10
   4  -1  14    0.41    0.09
  -4  -1 -14    0.40    0.09
   4   1  14    0.47    0.10
  -4   1 -15    0.13    0.07
   4   1  15    0.03    0.04
   4  -1  15    0.05    0.08
  -4   1 -16    0.23    0.08
   4   1  16    0.17    0.08
  -4  -2  18    0.07    0.05
  -4  -2  17    0.04    0.05
  -4  -2  16    0.60    0.11
   4   2 -15    0.13    0.06
  -4  -2  15    0.18    0.07
   4   2 -14    0.01    0.05
  -4  -2  14   -0.01    0.04
   4   2 -13    0.19    0.06
  -4  -2  13    0.08    0.05
   4   2 -12    0.14    0.05
  -4  -2  12    0.19    0.06
  -4  -2  11    0.16    0.05
   4  -2 -11    0.22    0.04
   4   2 -11    0.26    0.06
   4   2 -10    0.48    0.08
   4  -2 -10    0.45    0.06
  -4  -2  10    0.41    0.07
   4  -2  -9    0.04    0.02
   4   2  -9   -0.03    0.03
  -4  -2   9    0.03    0.03
  -4  -2   8    2.61    0.13
   4   2  -8    2.46    0.15
   4  -2  -8    2.72    0.13
   4   2  -7    4.83    0.20
   4  -2  -7    4.79    0.18
  -4  -2   7    4.76    0.17
   4  -2  -6    0.23    0.04
   4   2  -6    0.15    0.04
  -4  -2   6    0.24    0.04
   4   2  -5    0.08    0.04
  -4  -2   5    0.13    0.03
   4  -2  -5    0.17    0.04
   4   2  -4    7.92    0.23
  -4  -2   4    7.96    0.15
  -4   2   4    7.90    0.15
   4  -2  -4    7.83    0.22
   4  -2  -3    0.04    0.03
  -4  -2   3    0.03    0.01
  -4   2   3    0.02    0.02
   4   2  -3    0.04    0.03
  -4  -2   2    7.31    0.11
   4   2  -2    7.21    0.20
  -4   2   2    7.32    0.17
   4  -2  -2    7.35    0.21
   4  -2  -1    0.14    0.04
  -4   2   1    0.13    0.03
   4   2  -1    0.16    0.04
  -4   2   0    2.63    0.12
   4   2   0    2.53    0.11
   4   2   1    0.22    0.04
  -4  -2  -2    0.78    0.08
   4   2   2    0.75    0.06
   4   2   3    8.78    0.19
   4  -2   3    8.46    0.22
   4   2   3    9.33    0.21
  -4  -2  -3    8.96    0.25
   4   2   4    4.82    0.13
   4  -2   4    4.76    0.18
   4   2   4    4.82    0.15
  -4  -2  -4    4.62    0.18
   4   2   5    0.03    0.02
   4   2   5    0.01    0.01
  -4  -2  -5    0.02    0.04
   4  -2   5    0.04    0.03
   4   2   6    0.34    0.04
   4  -2   6    0.33    0.06
  -4  -2  -6    0.32    0.06
  -4  -2  -7    1.10    0.10
   4  -2   7    1.22    0.11
   4  -2   8    0.02    0.04
  -4  -2  -8    0.08    0.04
  -4  -2  -9    0.86    0.10
   4  -2   9    0.93    0.11
  -4  -2 -10    1.13    0.11
   4  -2  10    1.11    0.12
   4  -2  11    0.07    0.05
  -4  -2 -11    0.03    0.03
   4  -2  12    0.00    0.04
  -4  -2 -12   -0.03    0.04
   4  -2  13    0.50    0.11
   4  -2  14    0.14    0.07
   4  -2  15   -0.03    0.05
  -4  -3  17    0.11    0.07
  -4  -3  16    0.11    0.06
  -4  -3  15    0.03    0.05
   4   3 -15   -0.02    0.04
   4   3 -14    0.22    0.06
  -4  -3  14    0.12    0.06
   4   3 -13    0.00    0.04
  -4  -3  13    0.00    0.04
  -4  -3  12    0.74    0.10
   4   3 -12    0.73    0.10
   4   3 -11    7.47    0.29
  -4  -3  11    7.11    0.28
  -4  -3  10   14.44    0.37
   4   3 -10   14.72    0.39
   4  -3 -10   14.84    0.33
   4   3  -9    0.13    0.05
   4  -3  -9    0.11    0.03
  -4  -3   9    0.15    0.04
   4   3  -8    0.31    0.06
   4  -3  -8    0.39    0.06
  -4  -3   8    0.27    0.05
   4   3  -7    3.07    0.17
   4  -3  -7    3.23    0.15
  -4  -3   7    3.17    0.14
   4   3  -6   30.88    0.51
   4  -3  -6   30.48    0.45
  -4  -3   6   30.89    0.41
  -4  -3   5    0.09    0.03
   4   3  -5    0.15    0.04
  -4  -3   4    3.23    0.11
  -4   3   4    3.24    0.09
   4   3  -4    3.28    0.16
   4   3  -3    0.78    0.08
  -4  -3   3    0.83    0.06
  -4   3   3    0.84    0.05
  -4   3   2    5.01    0.14
   4   3  -2    5.11    0.19
   4   3  -1    0.24    0.05
   4   3   0    2.05    0.12
   4   3   1    0.67    0.07
   4   3   2    7.94    0.22
   4   3   3    0.77    0.07
   4  -3   4    0.83    0.08
   4   3   4    0.86    0.08
  -4  -3  -5    0.14    0.05
   4   3   5    0.16    0.04
   4  -3   5    0.14    0.04
   4   3   5    0.17    0.03
  -4  -3  -6    0.19    0.05
   4   3   6    0.23    0.04
   4  -3   6    0.25    0.06
   4   3   7    0.22    0.04
  -4  -3  -7    0.15    0.05
   4  -3   7    0.17    0.05
  -4  -3  -8    0.02    0.04
   4  -3   8   -0.02    0.03
  -4  -3  -9    0.20    0.06
   4  -3   9    0.21    0.05
   4  -3  10    3.32    0.21
  -4  -3 -10    3.26    0.19
  -4  -3 -11    0.14    0.05
   4  -3  11    0.08    0.06
   4  -3  12    0.04    0.04
   4  -3  13   -0.03    0.04
   4  -3  14    1.18    0.15
  -4  -4  17    0.14    0.06
  -4  -4  16    0.40    0.09
  -4  -4  15    0.36    0.09
  -4  -4  14    0.42    0.09
   4   4 -14    0.31    0.07
   4   4 -13    0.01    0.05
  -4  -4  13   -0.05    0.04
  -4  -4  12    0.35    0.08
   4   4 -12    0.39    0.08
  -4  -4  11    0.02    0.04
   4   4 -11    0.03    0.04
  -4  -4  10    0.03    0.03
   4   4 -10    0.02    0.04
  -4  -4   9    1.13    0.10
   4   4  -9    1.20    0.12
  -4  -4   8    3.05    0.16
   4   4  -8    2.89    0.17
  -4  -4   7    0.64    0.07
   4   4  -7    0.67    0.09
  -4  -4   6   12.60    0.29
   4   4  -6   12.08    0.34
  -4  -4   5    0.04    0.03
   4   4  -5    0.00    0.04
  -4  -4   4    3.64    0.14
   4   4  -4    3.62    0.18
  -4   4   4    3.55    0.10
  -4   4   3    3.42    0.11
   4   4  -3    3.29    0.17
   4   4  -2    0.06    0.04
   4   4  -1    8.73    0.27
   4   4   0    0.50    0.07
   4   4   1    0.24    0.05
   4   4   2    0.03    0.03
   4   4   3    0.10    0.04
   4   4   4    0.60    0.07
   4  -4   5    1.49    0.13
   4   4   5    1.49    0.11
   4  -4   6    3.38    0.19
   4   4   6    3.20    0.16
   4  -4   7    0.18    0.06
   4   4   7    0.22    0.05
   4  -4   8    0.02    0.04
   4  -4   9    0.13    0.06
   4  -4  10    0.09    0.06
   4  -4  11    0.06    0.05
   4  -4  12    0.40    0.09
   4  -4  13    0.13    0.07
   4  -4  14    0.24    0.08
  -4  -5  16    0.13    0.06
  -4  -5  15    0.01    0.04
   4   5 -14    0.45    0.09
  -4  -5  14    0.40    0.09
  -4  -5  13    0.46    0.09
   4   5 -13    0.26    0.08
  -4  -5  12    0.54    0.09
   4   5 -12    0.59    0.10
  -4  -5  11   -0.04    0.04
   4   5 -11    0.05    0.05
   4   5 -10    2.63    0.19
  -4  -5  10    2.73    0.18
  -4  -5   9    0.89    0.10
   4   5  -9    0.99    0.12
  -4  -5   8    0.88    0.09
   4   5  -8    0.92    0.11
  -4  -5   7    0.44    0.07
   4   5  -7    0.44    0.08
  -4  -5   6    0.04    0.03
   4   5  -6    0.06    0.04
   4   5  -5    0.01    0.04
  -4  -5   5    0.04    0.03
   4   5  -4    8.74    0.31
  -4  -5   4    9.00    0.25
   4   5  -3    0.35    0.07
   4   5  -2    0.02    0.04
   4   5  -1    1.56    0.13
   4   5   0    0.07    0.04
   4   5   1    0.82    0.10
   4   5   2    0.03    0.03
   4   5   3    0.06    0.04
   4   5   4    1.09    0.11
   4   5   5   -0.01    0.03
   4  -5   5   -0.01    0.04
   4   5   6    0.02    0.03
   4  -5   6    0.04    0.04
   4   5   7    0.62    0.08
   4  -5   7    0.79    0.11
   4  -5   8    2.63    0.20
   4  -5   9   -0.08    0.06
   4  -5  10    1.62    0.17
   4  -5  11    0.00    0.05
   4  -5  12    0.66    0.12
   4  -5  13    0.02    0.05
  -4  -6  15    0.33    0.09
  -4  -6  14    2.10    0.19
  -4  -6  13    0.65    0.11
   4   6 -13    0.72    0.11
  -4  -6  12    0.05    0.05
   4   6 -12    0.03    0.05
  -4  -6  11    0.12    0.05
   4   6 -11    0.11    0.06
  -4  -6  10    0.05    0.05
   4   6 -10   -0.02    0.05
  -4  -6   9    0.05    0.03
   4   6  -9    0.04    0.05
  -4  -6   8    0.97    0.11
   4   6  -8    1.21    0.14
   4   6  -7    0.07    0.04
  -4  -6   7    0.13    0.05
   4   6  -6    0.04    0.05
  -4  -6   6    0.04    0.03
   4   6  -5    0.56    0.09
  -4  -6   5    0.56    0.08
   4   6  -4    0.40    0.08
   4   6  -3    0.15    0.06
   4   6  -2    0.02    0.05
   4   6  -1    1.55    0.14
   4   6   0   13.90    0.41
   4   6   1    0.22    0.06
   4   6   2    0.03    0.05
   4   6   3    7.09    0.29
   4   6   4    0.19    0.06
   4  -6   5    1.08    0.13
   4   6   5    1.16    0.12
   4   6   6    0.77    0.11
   4  -6   6    0.62    0.10
   4   6   7    0.96    0.11
   4  -6   7    1.12    0.14
   4  -6   8    2.45    0.20
   4  -6   9    0.06    0.05
   4  -6  10    0.10    0.05
   4  -6  11   -0.09    0.06
  -4  -7  13    0.31    0.08
  -4  -7  12    0.05    0.04
   4   7 -12    0.10    0.06
   4   7 -11    0.42    0.09
  -4  -7  11    0.42    0.09
   4   7 -10    0.25    0.08
  -4  -7  10    0.36    0.08
   4   7  -9    0.09    0.06
  -4  -7   9    0.02    0.03
   4   7  -8    0.08    0.06
  -4  -7   8    0.01    0.04
   4   7  -7    0.03    0.05
  -4  -7   7    0.11    0.04
   4   7  -6    0.03    0.05
  -4  -7   6    0.07    0.04
   4   7  -5    0.36    0.09
  -4  -7   5    0.33    0.06
   4   7  -4    1.85    0.17
   4   7  -3    0.15    0.07
   4   7  -2    0.09    0.05
   4   7  -1    0.60    0.10
   4   7   0    1.03    0.12
   4   7   1    0.82    0.11
   4   7   2    1.46    0.15
   4   7   3    1.74    0.16
   4   7   4    0.07    0.04
   4   7   5    0.98    0.13
   4  -7   5    0.88    0.12
   4   7   6    0.05    0.04
   4  -7   6    0.06    0.05
   4   7   7    0.03    0.04
   4  -7   7    0.22    0.09
   4  -7   8    0.10    0.07
   4  -7   9    0.34    0.09
   4   8 -11    0.36    0.10
   4   8 -10    1.06    0.15
   4   8  -9    0.10    0.06
   4   8  -8    0.11    0.06
   4   8  -7    0.22    0.08
   4   8  -6    0.39    0.09
   4   8  -5    0.01    0.05
   4   8  -4    0.31    0.08
   4   8  -3    0.13    0.06
   4   8  -2    0.03    0.05
   4   8  -1    0.15    0.06
   4   8   0    0.91    0.13
   4   8   1    0.10    0.06
   4   8   2    0.12    0.06
   4   8   3   -0.03    0.04
   4   8   4    0.55    0.10
   4   8   5   -0.04    0.05
   4  -8   5    0.09    0.06
   4   8   6    0.23    0.07
   4  -8   6    0.32    0.09
   4  -8   7    0.00    0.06
   4   9  -5    0.03    0.06
   4   9  -4    0.25    0.08
   4   9  -3    0.87    0.14
   4   9  -2    1.25    0.16
   4   9  -1    0.04    0.05
   4   9   0    0.41    0.10
   4   9   1    0.10    0.07
   4   9   2   -0.03    0.05
   4   9   3    0.27    0.08
   4   9   4    0.20    0.07
   5   0 -17    0.31    0.08
   5   0 -16    0.01    0.04
  -5   0  15    0.03    0.05
   5   0 -15   -0.04    0.04
  -5   0  14   -0.03    0.04
  -5   0  13    0.43    0.08
   5   0 -13    0.46    0.07
  -5   0  12   -0.02    0.03
   5   0 -12   -0.02    0.03
  -5   0  11    8.70    0.29
   5   0 -11    8.53    0.28
  -5   0  10    0.05    0.04
   5   0 -10   -0.04    0.03
   5   0  -9    8.60    0.27
   5   0  -8    0.01    0.03
   5   0  -7    1.52    0.11
   5   0  -6    0.06    0.04
   5   0  -5    0.19    0.04
   5   0  -4    0.04    0.04
   5   0  -3    1.50    0.10
  -5   0   2    0.02    0.03
   5   0  -2    0.03    0.03
  -5   0   1   32.70    0.45
   5   0  -1   33.12    0.45
   5   0   0   -0.01    0.03
   5   0   0    0.01    0.02
   5   0   0   -0.01    0.01
  -5   0   0    0.00    0.03
   5   0   1    0.36    0.04
  -5   0  -1    0.42    0.07
   5   0   1    0.34    0.03
   5   0   1    0.37    0.05
   5   0   2    0.00    0.01
  -5   0  -2    0.00    0.03
   5   0   2    0.00    0.01
   5   0   2    0.00    0.02
   5   0   3   19.14    0.23
   5   0   3   18.58    0.27
  -5   0  -3   19.64    0.39
   5   0   3   19.70    0.32
   5   0   4    0.02    0.03
   5   0   4    0.03    0.02
  -5   0  -4   -0.02    0.04
   5   0   4    0.03    0.01
   5   0   5    0.63    0.06
  -5   0  -5    0.68    0.09
   5   0   6    0.01    0.02
  -5   0  -6    0.09    0.05
  -5   0  -7    0.08    0.05
   5   0   7    0.06    0.03
   5   0   8   -0.04    0.03
  -5   0  -8    0.02    0.04
   5   0   9    1.06    0.11
  -5   0  -9    1.10    0.12
   5   0  10    0.03    0.03
  -5   0 -10   -0.08    0.05
   5   0  11    0.07    0.05
  -5   0 -11    0.01    0.04
   5   0  12   -0.03    0.04
  -5   0 -12    0.08    0.05
   5   0  13    0.12    0.06
  -5   0 -13    0.35    0.09
   5   0  14    0.02    0.04
  -5   0 -14   -0.01    0.05
  -5   0 -15    0.17    0.08
  -5  -1  18    0.26    0.08
  -5  -1  17    0.33    0.08
   5   1 -16    0.57    0.10
  -5  -1  16    0.55    0.10
  -5  -1  15    0.10    0.05
   5   1 -15    0.07    0.04
  -5  -1  14    0.06    0.05
   5   1 -14    0.10    0.06
   5   1 -14    0.06    0.03
  -5  -1  13    1.46    0.14
   5  -1 -13    1.25    0.11
   5   1 -13    1.22    0.13
  -5  -1  12    0.39    0.07
   5   1 -12    0.37    0.08
   5  -1 -12    0.35    0.06
   5   1 -11    1.46    0.13
  -5  -1  11    1.80    0.13
   5  -1 -11    1.54    0.12
   5  -1 -10    0.47    0.07
  -5  -1  10    0.50    0.07
   5   1 -10    0.41    0.07
   5   1  -9    4.05    0.20
  -5  -1   9    4.06    0.17
   5  -1  -9    3.91    0.18
  -5  -1   8    2.71    0.13
   5  -1  -8    2.56    0.15
   5   1  -8    2.78    0.17
   5   1  -7    5.27    0.22
  -5  -1   7    5.27    0.16
   5  -1  -7    5.03    0.20
   5  -1  -6    8.53    0.25
   5   1  -6    8.69    0.27
  -5  -1   6    8.84    0.19
   5   1  -5    9.23    0.27
  -5  -1   5    9.32    0.17
   5  -1  -5    9.18    0.26
   5   1  -4    3.30    0.15
   5  -1  -4    3.38    0.16
   5   1  -3    1.00    0.08
  -5   1   3    1.05    0.07
   5  -1  -3    1.08    0.09
   5  -1  -2    7.33    0.22
  -5   1   2    7.33    0.20
   5   1  -2    7.42    0.21
   5   1  -2    7.43    0.22
   5   1  -1    1.27    0.09
   5   1  -1    1.25    0.09
  -5   1   1    1.22    0.09
   5  -1  -1    1.26    0.09
  -5  -1   0    0.06    0.03
   5   1   0    0.16    0.03
  -5   1   0    0.14    0.04
   5  -1   0    0.17    0.04
   5   1   0    0.06    0.03
   5  -1   1    0.10    0.03
  -5  -1  -1    0.18    0.05
  -5   1  -1    0.14    0.04
   5  -1   1    0.12    0.02
   5   1   1    0.11    0.03
   5   1   1    0.08    0.02
   5  -1   2    1.45    0.08
   5   1   2    1.49    0.09
  -5  -1  -2    1.57    0.11
  -5   1  -2    1.35    0.10
   5  -1   2    1.54    0.10
   5   1   2    1.49    0.08
   5   1   3    0.02    0.02
   5   1   3    0.03    0.02
  -5   1  -3    0.00    0.04
   5  -1   3    0.02    0.01
   5  -1   3    0.02    0.02
  -5  -1  -3    0.09    0.04
   5   1   3    0.05    0.02
   5   1   4    0.08    0.03
   5   1   4    0.05    0.02
   5   1   4    0.13    0.03
   5  -1   4    0.05    0.02
  -5   1  -4    0.00    0.04
  -5  -1  -4    0.13    0.05
   5   1   5    3.89    0.14
   5  -1   5    3.89    0.16
  -5  -1  -5    3.72    0.18
  -5   1  -5    3.86    0.19
   5   1   5    3.75    0.13
   5   1   6    7.89    0.23
   5  -1   6    8.00    0.25
  -5  -1  -6    7.89    0.27
  -5   1  -6    8.24    0.29
   5   1   7    6.28    0.22
   5  -1   7    6.50    0.24
  -5  -1  -7    6.89    0.27
  -5   1  -7    6.65    0.27
  -5  -1  -8    0.03    0.04
   5   1   8    0.05    0.03
   5  -1   8    0.07    0.04
  -5   1  -8    0.00    0.05
   5   1   9    0.84    0.10
   5  -1   9    1.03    0.11
  -5  -1  -9    0.90    0.11
  -5   1  -9    0.87    0.11
   5   1  10    0.05    0.04
  -5  -1 -10    0.12    0.05
   5  -1  10   -0.02    0.04
  -5   1 -10    0.00    0.05
   5   1  11    0.01    0.03
  -5   1 -11   -0.01    0.06
   5  -1  11    0.00    0.05
  -5  -1 -12    0.07    0.05
   5   1  12   -0.06    0.05
   5  -1  12    0.00    0.05
  -5   1 -12   -0.08    0.06
  -5  -1 -13    0.02    0.04
  -5   1 -13    0.00    0.04
  -5  -1 -14    0.28    0.08
   5  -1  14    0.35    0.09
  -5   1 -14    0.23    0.08
   5  -1  15    0.04    0.05
  -5  -2  18   -0.06    0.05
  -5  -2  17    0.71    0.12
   5   2 -16    0.05    0.04
  -5  -2  16    0.01    0.04
   5   2 -15    0.01    0.04
  -5  -2  15    0.06    0.04
   5   2 -14    0.05    0.05
  -5  -2  14    0.16    0.06
   5   2 -13    1.27    0.14
  -5  -2  13    1.20    0.12
  -5  -2  12    1.89    0.15
   5   2 -12    1.94    0.16
   5  -2 -12    2.04    0.14
  -5  -2  11    1.10    0.11
   5   2 -11    1.29    0.13
   5  -2 -11    1.17    0.10
   5   2 -10    1.26    0.12
  -5  -2  10    1.42    0.11
   5  -2 -10    1.32    0.11
   5  -2  -9    0.49    0.07
   5   2  -9    0.50    0.08
  -5  -2   9    0.56    0.07
   5   2  -8    4.17    0.21
  -5  -2   8    3.88    0.16
   5  -2  -8    3.87    0.18
  -5  -2   7    3.29    0.13
   5   2  -7    3.18    0.18
   5  -2  -7    3.41    0.17
  -5  -2   6    0.88    0.06
   5   2  -6    0.74    0.09
   5  -2  -6    0.86    0.09
   5   2  -5    3.82    0.18
  -5  -2   5    3.75    0.11
   5  -2  -5    3.81    0.17
   5  -2  -4    1.68    0.12
   5   2  -4    1.69    0.12
  -5  -2   4    1.73    0.06
  -5   2   4    1.81    0.09
   5   2  -3   10.07    0.27
  -5  -2   3   10.00    0.11
   5  -2  -3   10.26    0.27
  -5   2   3   10.46    0.22
   5   2  -2    4.41    0.17
   5  -2  -2    4.68    0.19
  -5   2   2    4.64    0.16
   5   2  -1    9.62    0.25
  -5   2   1    9.13    0.23
   5  -2  -1    9.32    0.26
  -5   2   0    7.75    0.22
   5  -2   0    8.23    0.24
   5   2   0    8.07    0.22
   5   2   1    1.85    0.10
   5   2   1    1.87    0.11
  -5   2  -1    1.64    0.11
  -5  -2  -2    0.05    0.04
  -5   2  -2    0.02    0.03
   5   2   2    0.03    0.02
   5  -2   2    0.07    0.03
   5   2   2    0.09    0.03
  -5  -2  -3   -0.04    0.04
   5   2   3    0.06    0.03
   5  -2   3    0.05    0.03
  -5   2  -3    0.00    0.04
   5   2   3    0.08    0.03
   5   2   4    0.00    0.02
  -5  -2  -4    0.02    0.04
   5   2   4    0.02    0.02
   5  -2   4    0.00    0.02
   5   2   5    0.05    0.02
   5   2   5   -0.01    0.02
  -5  -2  -5    0.01    0.03
   5  -2   5   -0.01    0.02
  -5  -2  -6    0.03    0.03
   5  -2   6    0.01    0.03
   5  -2   7    0.33    0.06
  -5  -2  -7    0.26    0.06
   5  -2   8    1.67    0.14
  -5  -2  -8    1.30    0.12
   5  -2   9    0.56    0.09
  -5  -2  -9    0.46    0.08
   5  -2  10    0.06    0.04
  -5  -2 -10    0.03    0.05
   5  -2  11    0.07    0.05
  -5  -2 -11    0.10    0.05
   5  -2  12    0.62    0.11
  -5  -2 -12    0.52    0.10
  -5   2 -12    0.60    0.11
   5  -2  13    0.03    0.05
  -5  -2 -13    0.07    0.05
  -5   2 -13    0.12    0.06
  -5   2 -14   -0.02    0.05
   5  -2  14   -0.10    0.07
  -5  -3  17    0.25    0.08
   5   3 -16    0.65    0.11
  -5  -3  16    1.00    0.14
  -5  -3  15    0.34    0.08
   5   3 -15    0.36    0.08
   5   3 -14    0.54    0.10
  -5  -3  14    0.40    0.08
   5   3 -13    0.12    0.06
  -5  -3  13   -0.02    0.04
  -5  -3  12    0.38    0.07
   5   3 -12    0.27    0.07
   5   3 -11    1.28    0.13
  -5  -3  11    1.32    0.12
   5  -3 -11    1.17    0.11
   5  -3 -10   -0.01    0.03
  -5  -3  10    0.03    0.04
   5   3 -10    0.09    0.05
   5   3  -9    4.00    0.21
  -5  -3   9    4.12    0.18
   5  -3  -9    3.87    0.18
   5  -3  -8    0.24    0.05
   5   3  -8    0.17    0.05
  -5  -3   8    0.20    0.05
   5   3  -7    0.04    0.04
   5  -3  -7    0.03    0.03
  -5  -3   7    0.05    0.02
   5   3  -6    0.84    0.10
   5  -3  -6    0.83    0.09
  -5  -3   6    0.81    0.06
   5   3  -5    3.74    0.18
   5  -3  -5    3.27    0.16
  -5  -3   5    3.54    0.12
   5  -3  -4    1.79    0.12
  -5  -3   4    1.80    0.08
  -5   3   4    1.76    0.09
   5   3  -4    1.81    0.13
   5   3  -3    0.93    0.09
  -5  -3   3    0.89    0.05
  -5   3   3    0.83    0.07
  -5   3   2    0.11    0.03
  -5  -3   2    0.06    0.01
   5   3  -2    0.05    0.03
   5   3  -1    5.90    0.21
  -5   3   1    5.54    0.18
   5   3   0    2.92    0.15
  -5   3   0    2.90    0.14
   5   3   1    0.15    0.04
   5   3   2    0.30    0.05
   5  -3   3    1.61    0.11
   5   3   3    1.55    0.11
   5   3   4    0.46    0.06
   5  -3   4    0.48    0.07
   5   3   4    0.39    0.05
   5  -3   5    1.35    0.11
  -5  -3  -5    1.27    0.12
   5   3   5    1.28    0.10
  -5  -3  -6    0.78    0.09
   5  -3   6    0.77    0.09
  -5  -3  -7    0.39    0.07
   5  -3   7    0.21    0.06
  -5  -3  -8    0.26    0.06
   5  -3   8    0.12    0.05
  -5  -3  -9    0.21    0.06
   5  -3   9    0.11    0.04
  -5  -3 -10    0.04    0.03
   5  -3  10    0.09    0.05
  -5  -3 -11    0.11    0.05
   5  -3  11    0.05    0.04
   5  -3  12    0.01    0.04
   5  -3  13    0.17    0.07
   5  -3  14    0.07    0.05
  -5  -4  17    0.10    0.06
  -5  -4  16    1.03    0.14
  -5  -4  15    0.12    0.06
   5   4 -15    0.09    0.05
  -5  -4  14    0.09    0.05
   5   4 -14    0.05    0.04
  -5  -4  13    0.93    0.12
   5   4 -13    1.18    0.14
   5   4 -12    0.06    0.05
  -5  -4  12    0.07    0.05
   5   4 -11    0.13    0.06
  -5  -4  11    0.02    0.04
   5   4 -10    1.06    0.12
  -5  -4  10    1.10    0.11
  -5  -4   9    0.44    0.07
   5   4  -9    0.59    0.10
  -5  -4   8    0.50    0.07
   5   4  -8    0.33    0.07
   5   4  -7    0.05    0.04
  -5  -4   7    0.07    0.03
  -5  -4   6    5.44    0.18
   5   4  -6    5.71    0.25
  -5  -4   5    0.22    0.04
   5   4  -5    0.29    0.07
  -5  -4   4    1.96    0.10
   5   4  -4    1.92    0.14
  -5  -4   3    1.25    0.07
   5   4  -3    1.23    0.11
  -5   4   3    1.30    0.08
  -5   4   2    0.12    0.03
   5   4  -2    0.18    0.06
  -5   4   1    0.20    0.04
   5   4  -1    0.24    0.06
   5   4   0   -0.06    0.04
   5   4   1    7.22    0.25
   5   4   2    2.29    0.14
   5   4   3    0.25    0.06
   5   4   4    0.36    0.06
   5  -4   4    0.44    0.07
   5   4   5    0.05    0.04
   5  -4   5    0.07    0.04
   5  -4   6   -0.03    0.04
   5   4   6    0.04    0.03
   5  -4   7    0.16    0.06
   5  -4   8    0.23    0.07
   5  -4   9    1.44    0.15
   5  -4  10    0.45    0.09
   5  -4  11    0.15    0.07
   5  -4  12    0.03    0.04
   5  -4  13    0.06    0.05
   5   5 -15    0.17    0.07
  -5  -5  14    0.93    0.13
   5   5 -14    0.67    0.11
  -5  -5  13   -0.01    0.03
   5   5 -13    0.09    0.06
  -5  -5  12    0.34    0.07
   5   5 -12    0.19    0.06
  -5  -5  11    0.51    0.08
   5   5 -11    0.70    0.11
  -5  -5  10    0.26    0.06
   5   5 -10    0.36    0.08
  -5  -5   9    0.58    0.08
   5   5  -9    0.46    0.09
  -5  -5   8    0.01    0.02
   5   5  -8    0.09    0.06
  -5  -5   7    0.39    0.06
   5   5  -7    0.27    0.07
  -5  -5   6    0.41    0.06
   5   5  -6    0.47    0.08
   5   5  -5    7.84    0.31
   5   5  -4    1.50    0.14
   5   5  -3    5.82    0.26
  -5   5   2    2.40    0.12
   5   5  -2    2.15    0.16
   5   5  -1    0.05    0.05
   5   5   0    0.33    0.07
   5   5   1    0.04    0.04
   5   5   2    3.81    0.20
   5   5   3    0.48    0.08
   5  -5   4    1.51    0.14
   5   5   4    1.25    0.12
   5   5   5    0.19    0.05
   5  -5   5    0.27    0.07
   5   5   6   -0.02    0.03
   5  -5   6    0.02    0.03
   5  -5   7    0.69    0.11
   5  -5   8    0.01    0.03
   5  -5   9    0.33    0.08
   5  -5  10    0.45    0.10
   5  -5  11    0.81    0.13
   5  -5  12   -0.05    0.06
   5   6 -14    0.17    0.07
   5   6 -13    0.13    0.07
   5   6 -12    0.15    0.07
   5   6 -11    0.01    0.04
   5   6 -10    0.08    0.06
   5   6  -9   -0.04    0.05
   5   6  -8    0.11    0.06
   5   6  -7    3.07    0.21
   5   6  -6    0.05    0.04
   5   6  -5    0.42    0.08
   5   6  -4    0.46    0.09
   5   6  -3   -0.05    0.05
   5   6  -2    0.33    0.08
   5   6  -1    1.96    0.16
   5   6   0    1.68    0.15
   5   6   1    0.82    0.11
   5   6   2    0.79    0.10
   5   6   3    0.34    0.07
   5   6   4   -0.02    0.04
   5   6   5    0.01    0.03
   5  -6   5    0.07    0.06
   5   6   6    0.58    0.09
   5  -6   6    0.54    0.10
   5  -6   7    2.01    0.18
   5  -6   8    0.10    0.06
   5  -6   9    0.14    0.07
   5  -6  10    0.15    0.06
   5   7 -12    1.18    0.16
   5   7 -11    1.01    0.15
   5   7 -10    0.41    0.09
   5   7  -9    0.28    0.08
   5   7  -8    0.05    0.05
   5   7  -7    0.11    0.05
   5   7  -6    0.27    0.09
   5   7  -5    0.46    0.10
   5   7  -4    0.41    0.09
   5   7  -3    0.93    0.13
   5   7  -2    0.13    0.07
   5   7  -1    0.94    0.12
   5   7   0    0.42    0.09
   5   7   1   -0.07    0.05
   5   7   2    0.74    0.11
   5   7   3    0.25    0.07
   5   7   4    0.57    0.10
   5   7   5    0.19    0.06
   5  -7   5    0.22    0.07
   5   7   6    0.01    0.04
   5  -7   6    0.11    0.06
   5  -7   7    0.39    0.09
   5  -7   8    0.13    0.07
   5   8  -9    0.15    0.07
   5   8  -8    0.02    0.05
   5   8  -7    0.62    0.12
   5   8  -6    0.33    0.09
   5   8  -5    0.33    0.08
   5   8  -4    0.54    0.11
   5   8  -3   -0.04    0.07
   5   8  -2    0.15    0.07
   5   8  -1    1.35    0.16
   5   8   0    0.15    0.06
   5   8   1    0.09    0.06
   5   8   2    0.12    0.06
   5   8   3    0.07    0.05
   5   8   4    0.25    0.07
   5   8   5   -0.01    0.04
   5  -8   5    0.07    0.07
   5   8   6    0.20    0.07
   6   0 -18    0.76    0.13
   6   0 -17   -0.03    0.04
   6   0 -16    1.64    0.17
   6   0 -15    0.03    0.05
   6   0 -14    0.04    0.03
   6   0 -13    0.01    0.04
   6   0 -12    0.02    0.04
   6   0 -11    0.02    0.04
   6   0 -10    2.34    0.16
   6   0  -9    0.01    0.03
   6   0  -8    5.55    0.23
   6   0  -7    0.02    0.04
   6   0  -6    2.07    0.14
   6   0  -5    0.06    0.04
   6   0  -4    0.05    0.03
   6   0  -3    0.05    0.04
   6   0  -2    4.01    0.17
  -6   0   2    3.66    0.17
   6   0  -2    3.79    0.17
  -6   0   1   -0.01    0.03
   6   0  -1    0.02    0.03
   6   0  -1   -0.03    0.03
   6   0   0    0.90    0.07
  -6   0   0    0.87    0.09
   6   0   0    0.91    0.09
   6   0   1    0.00    0.03
   6   0   1    0.01    0.02
  -6   0  -1    0.01    0.03
   6   0   2    3.35    0.12
  -6   0  -2    3.27    0.17
   6   0   2    3.28    0.15
   6   0   3    0.00    0.01
   6   0   3    0.01    0.02
  -6   0  -3    0.03    0.05
   6   0   4    0.30    0.05
  -6   0  -4    0.22    0.06
  -6   0  -5    0.03    0.05
  -6   0  -6   27.83    0.56
  -6   0  -7    0.01    0.04
  -6   0  -8    1.47    0.14
  -6   0  -9    0.08    0.05
  -6   0 -10    1.48    0.15
  -6   0 -11    0.09    0.05
  -6   0 -12    0.03    0.05
  -6   0 -13    0.09    0.06
   6  -1 -18    0.03    0.03
  -6  -1  17   -0.03    0.04
   6   1 -17   -0.04    0.06
  -6  -1  16    0.25    0.08
   6   1 -16    0.41    0.10
  -6  -1  15    0.92    0.12
   6   1 -15    1.10    0.14
   6   1 -14    0.48    0.08
  -6  -1  14    0.34    0.07
   6   1 -14    0.50    0.10
   6  -1 -13    0.05    0.03
  -6  -1  13    0.12    0.04
   6   1 -13    0.16    0.06
   6   1 -13    0.15    0.05
  -6  -1  12    1.44    0.13
   6   1 -12    1.36    0.13
   6   1 -12    1.16    0.13
   6  -1 -12    1.16    0.11
   6  -1 -11    0.01    0.03
  -6  -1  11    0.03    0.03
   6   1 -11    0.01    0.04
   6   1 -11    0.03    0.04
   6  -1 -10    0.02    0.03
  -6  -1  10    0.07    0.03
   6   1 -10    0.10    0.04
   6   1  -9    5.11    0.24
  -6  -1   9    5.07    0.19
   6  -1  -9    4.93    0.22
   6   1  -8    1.74    0.14
  -6  -1   8    1.71    0.10
   6  -1  -8    1.57    0.12
   6   1  -7    2.01    0.15
   6  -1  -7    1.67    0.13
   6   1  -6    0.03    0.04
   6  -1  -6   -0.02    0.03
   6  -1  -5   -0.03    0.04
   6   1  -5    0.02    0.03
   6   1  -5    0.04    0.04
   6   1  -4    3.99    0.18
   6  -1  -4    3.95    0.19
   6   1  -4    3.91    0.18
  -6   1   3    0.06    0.03
   6  -1  -3    0.08    0.04
   6   1  -3    0.09    0.04
   6   1  -3    0.12    0.04
   6  -1  -2    0.04    0.04
   6   1  -2    0.04    0.03
  -6   1   2    0.03    0.03
   6   1  -2    0.04    0.03
   6  -1  -1    0.35    0.06
   6   1  -1    0.19    0.04
  -6   1   1    0.23    0.05
   6   1  -1    0.28    0.05
   6   1   0    1.12    0.08
   6  -1   0    1.07    0.06
  -6  -1   0    1.15    0.10
  -6   1   0    1.20    0.10
   6   1   0    1.03    0.09
   6  -1   0    1.08    0.10
   6   1   1    0.18    0.04
  -6   1  -1    0.16    0.05
  -6  -1  -1    0.19    0.05
   6  -1   1    0.14    0.02
   6   1   1    0.22    0.04
   6  -1   1    0.14    0.04
   6  -1   2    1.15    0.07
   6  -1   2    1.07    0.07
  -6  -1  -2    1.26    0.11
  -6   1  -2    1.15    0.10
   6   1   2    1.19    0.09
   6  -1   2    1.18    0.10
   6   1   2    1.05    0.08
   6   1   3    0.79    0.06
   6  -1   3    0.85    0.07
  -6  -1  -3    0.78    0.10
  -6   1  -3    0.94    0.10
   6   1   3    0.79    0.07
   6  -1   4    1.35    0.09
  -6  -1  -4    1.62    0.13
  -6   1  -4    1.61    0.13
   6   1   4    1.53    0.10
   6  -1   5    1.92    0.12
  -6  -1  -5    1.99    0.15
  -6   1  -5    2.03    0.15
   6   1   5    1.78    0.10
  -6   1  -6    0.03    0.05
   6  -1   6    0.05    0.03
  -6  -1  -6    0.05    0.04
  -6   1  -7    0.31    0.08
   6  -1   7    0.26    0.05
  -6  -1  -7    0.29    0.07
  -6   1  -8    0.07    0.05
   6  -1   8    0.22    0.06
  -6  -1  -8    0.15    0.05
  -6  -1  -9    0.84    0.11
  -6   1  -9    0.83    0.11
   6  -1   9    0.74    0.10
  -6  -1 -10    0.58    0.10
  -6   1 -10    0.37    0.09
  -6  -1 -11    0.17    0.07
  -6   1 -11    0.04    0.06
  -6   1 -12    0.11    0.06
  -6  -1 -12    0.14    0.06
  -6   1 -13    0.02    0.04
  -6  -1 -13    0.14    0.07
  -6  -1 -14    0.20    0.08
   6   2 -17    0.51    0.11
   6   2 -16    0.03    0.04
  -6  -2  16    0.12    0.05
   6   2 -15    0.16    0.07
  -6  -2  15    0.19    0.06
   6   2 -14    0.44    0.09
  -6  -2  14    0.36    0.07
   6  -2 -13    0.23    0.06
   6   2 -13    0.24    0.07
  -6  -2  13    0.20    0.06
   6  -2 -12    0.17    0.05
   6   2 -12    0.07    0.05
  -6  -2  12    0.11    0.04
   6  -2 -11    0.21    0.05
   6   2 -11    0.25    0.07
  -6  -2  11    0.24    0.05
   6  -2 -10    0.06    0.04
   6   2 -10   -0.01    0.04
  -6  -2  10    0.01    0.03
   6  -2  -9    0.08    0.04
   6   2  -9    0.08    0.04
  -6  -2   9    0.08    0.03
   6  -2  -8    0.00    0.04
   6   2  -8   -0.03    0.05
  -6  -2   8    0.03    0.02
   6   2  -7    0.10    0.04
   6  -2  -7    0.09    0.04
   6   2  -6    3.54    0.19
   6  -2  -6    3.18    0.17
   6   2  -5    5.50    0.23
   6  -2  -5    5.42    0.22
   6  -2  -4    0.03    0.04
   6   2  -4    0.10    0.05
  -6   2   4    0.11    0.03
   6   2  -3    1.25    0.11
  -6   2   3    1.16    0.09
   6  -2  -3    1.26    0.11
   6   2  -2    1.95    0.12
  -6   2   2    1.84    0.11
   6  -2  -2    1.63    0.12
   6  -2  -1    0.02    0.04
   6   2  -1    0.00    0.03
  -6   2   1    0.07    0.04
   6   2   0    0.50    0.06
   6  -2   0    0.49    0.07
  -6   2   0    0.60    0.07
   6   2   0    0.45    0.06
  -6   2  -1   -0.01    0.04
   6  -2   1   -0.01    0.02
   6   2   1    0.01    0.03
   6   2   1    0.00    0.02
  -6  -2  -2    0.89    0.10
   6  -2   2    1.04    0.08
  -6   2  -2    1.04    0.10
   6   2   2    0.97    0.08
   6   2   2    1.01    0.08
   6   2   3    0.13    0.03
  -6  -2  -3    0.08    0.05
  -6   2  -3    0.04    0.04
   6   2   3    0.03    0.02
   6  -2   3    0.06    0.03
   6   2   4    0.06    0.03
  -6  -2  -4    0.05    0.04
   6   2   4    0.03    0.02
   6  -2   4    0.07    0.03
  -6   2  -4    0.07    0.04
   6  -2   5    2.17    0.13
  -6  -2  -5    2.22    0.16
  -6   2  -5    2.22    0.16
  -6   2  -6    0.35    0.08
  -6  -2  -6    0.30    0.06
   6  -2   6    0.33    0.06
  -6   2  -7    0.31    0.08
  -6  -2  -7    0.24    0.06
   6  -2   7    0.35    0.06
  -6   2  -8   -0.02    0.05
   6  -2   8    0.10    0.05
  -6  -2  -8    0.04    0.05
  -6   2  -9    0.55    0.10
   6  -2   9    0.52    0.09
  -6  -2  -9    0.64    0.10
  -6   2 -10   -0.06    0.06
   6  -2  10    0.09    0.05
  -6  -2 -10    0.09    0.06
  -6   2 -11    0.29    0.08
   6  -2  11    0.28    0.07
  -6  -2 -11    0.24    0.07
  -6   2 -12    0.14    0.07
  -6  -2 -12    0.14    0.06
  -6  -2 -13    0.06    0.05
   6   3 -16   -0.06    0.06
   6   3 -15    0.12    0.06
   6   3 -14    0.42    0.09
   6   3 -13    0.02    0.04
   6   3 -12    0.09    0.06
   6  -3 -12    0.16    0.05
   6   3 -11    0.01    0.04
   6  -3 -11    0.06    0.04
   6   3 -10    0.59    0.10
   6  -3 -10    0.38    0.07
   6   3  -9    8.04    0.32
   6  -3  -9    7.34    0.27
   6   3  -8   12.13    0.38
   6  -3  -8   11.56    0.34
   6   3  -7    0.07    0.05
   6  -3  -7    0.02    0.04
   6   3  -6    0.52    0.08
   6  -3  -6    0.55    0.08
   6   3  -5    2.52    0.16
   6  -3  -5    2.44    0.15
   6   3  -4   11.32    0.33
  -6   3   4   11.88    0.26
   6  -3  -4   11.06    0.32
  -6   3   3    0.12    0.03
   6   3  -3    0.07    0.04
   6   3  -2    2.73    0.16
  -6   3   2    2.75    0.14
  -6   3   1    0.02    0.03
   6   3  -1   -0.02    0.03
   6   3   0    1.51    0.11
  -6   3   0    1.54    0.11
  -6   3  -1   -0.01    0.03
   6   3   1    0.05    0.04
  -6   3  -2    0.09    0.04
   6   3   2    0.13    0.04
   6   3   2    0.11    0.03
   6  -3   2    0.25    0.05
   6   3   3    0.57    0.07
   6  -3   3    0.52    0.07
   6   3   3    0.58    0.06
  -6   3  -3    0.47    0.08
   6   3   4    3.68    0.17
   6  -3   4    3.86    0.18
  -6   3  -4    3.96    0.21
  -6  -3  -5    0.48    0.08
   6  -3   5    0.45    0.07
  -6   3  -5    0.43    0.08
  -6   3  -6    0.20    0.07
  -6  -3  -6    0.19    0.06
   6  -3   6    0.26    0.06
  -6  -3  -7    0.05    0.04
   6  -3   7    0.05    0.04
  -6  -3  -8   -0.01    0.04
   6  -3   8    0.11    0.05
  -6  -3  -9    0.02    0.04
  -6   3  -9   -0.05    0.07
  -6   3 -10    0.01    0.05
  -6  -3 -10    0.00    0.04
   6  -3  10    0.03    0.04
   6  -3  11    0.09    0.05
  -6   3 -11    0.04    0.06
  -6   3 -12    0.94    0.15
   6  -3  12    0.54    0.11
   6   4 -16    0.52    0.11
   6   4 -15    0.09    0.06
   6   4 -14    0.40    0.09
   6   4 -13    0.21    0.07
   6   4 -12    0.63    0.10
   6   4 -11    0.00    0.04
   6   4 -10    0.21    0.07
   6   4  -9    0.10    0.05
   6   4  -8    0.09    0.05
   6   4  -7    1.09    0.12
   6   4  -6    3.88    0.22
   6   4  -5   -0.02    0.04
   6   4  -4    7.38    0.29
   6   4  -3    0.03    0.04
  -6   4   3    0.00    0.02
   6   4  -2    1.77    0.14
  -6   4   2    1.69    0.11
  -6   4   1    2.22    0.13
   6   4  -1    2.06    0.15
   6   4   0    0.48    0.08
  -6   4   0    0.40    0.06
   6   4   1    4.76    0.21
  -6   4  -1    4.62    0.21
   6   4   2    0.20    0.05
  -6   4  -2    0.10    0.03
   6   4   3    0.26    0.06
   6  -4   3    0.20    0.05
   6   4   4    0.02    0.04
   6  -4   4    0.01    0.04
   6  -4   5    0.06    0.05
   6  -4   6    0.15    0.04
   6  -4   7    0.49    0.08
   6  -4   8    1.32    0.14
   6  -4   9    0.22    0.07
   6  -4  10   -0.03    0.04
   6  -4  11   -0.04    0.04
   6  -4  12   -0.08    0.05
   6   5 -15    0.01    0.04
   6   5 -14    0.07    0.06
   6   5 -13    0.29    0.08
   6   5 -12    0.67    0.12
   6   5 -11    0.45    0.10
   6   5 -10    0.49    0.09
   6   5  -9    0.02    0.05
   6   5  -8    2.58    0.20
   6   5  -7    0.61    0.10
   6   5  -6    0.74    0.10
   6   5  -5    0.56    0.09
   6   5  -4    0.64    0.10
   6   5  -3    0.00    0.05
   6   5  -2    5.41    0.26
   6   5  -1    0.11    0.05
  -6   5   1    0.18    0.05
  -6   5   0    0.12    0.04
   6   5   0    0.13    0.05
   6   5   1    0.89    0.10
   6   5   2    0.00    0.04
   6   5   3    0.09    0.04
   6   5   4   -0.03    0.04
   6  -5   4    0.06    0.04
   6   5   5    0.03    0.03
   6  -5   5    0.13    0.04
   6  -5   6    0.47    0.09
   6  -5   7    0.04    0.04
   6  -5   8    0.04    0.06
   6  -5   9    0.26    0.07
   6  -5  10    1.06    0.14
   6  -5  11    0.05    0.05
   6   6 -13    0.27    0.08
   6   6 -12    2.52    0.22
   6   6 -11    0.77    0.13
   6   6 -10    0.02    0.04
   6   6  -9    0.26    0.09
   6   6  -8    0.03    0.04
   6   6  -7    0.07    0.07
   6   6  -6    1.07    0.13
   6   6  -5    0.32    0.08
   6   6  -4    0.14    0.06
   6   6  -3    0.68    0.11
   6   6  -2    0.41    0.08
   6   6  -1    0.08    0.05
   6   6   0    0.22    0.06
   6   6   1    0.86    0.11
   6   6   2    6.68    0.30
   6   6   3    0.04    0.04
   6   6   4    0.19    0.06
   6  -6   4    0.18    0.06
   6  -6   5    3.12    0.22
   6   6   5    2.99    0.20
   6  -6   6    0.05    0.04
   6  -6   7    0.32    0.08
   6  -6   8    0.33    0.08
   6  -6   9    0.25    0.08
   6   7 -11    0.56    0.11
   6   7 -10    0.09    0.05
   6   7  -9    0.43    0.09
   6   7  -8    0.53    0.11
   6   7  -7    0.07    0.05
   6   7  -6    0.03    0.07
   6   7  -5    0.11    0.06
   6   7  -4    0.10    0.04
   6   7  -3    0.40    0.09
   6   7  -2    1.45    0.15
   6   7  -1    0.05    0.05
   6   7   0    0.08    0.06
   6   7   1    0.19    0.07
   6   7   2    0.43    0.09
   6   7   3    0.32    0.08
   6   7   4    1.19    0.14
   6  -7   4    1.20    0.15
   6   7   5    0.80    0.12
   6  -7   5    0.63    0.11
   6  -7   6   -0.08    0.06
   6  -7   7    0.28    0.09
   6   8  -7   -0.08    0.05
   6   8  -6   -0.03    0.06
   6   8  -5    0.25    0.08
   6   8  -4    0.25    0.08
   6   8  -3    0.10    0.06
   6   8  -2    0.05    0.06
   6   8  -1    0.24    0.08
   6   8   0    0.10    0.06
   6   8   1    0.13    0.06
   6   8   2    0.41    0.10
   6   8   3    0.12    0.06
   6   8   4    0.11    0.07
   6  -8   4    0.34    0.09
   6   8   5    0.08    0.05
   7   0 -17    1.79    0.19
   7   0 -16   -0.08    0.06
   7   0 -15   -0.05    0.06
   7   0 -14    0.03    0.04
   7   0 -14   -0.11    0.06
   7   0 -13    0.06    0.04
   7   0 -13    0.09    0.06
   7   0 -12    0.05    0.04
   7   0 -11    0.51    0.08
   7   0 -10   -0.01    0.03
   7   0  -9    8.35    0.31
   7   0  -8    0.02    0.04
   7   0  -7    3.38    0.19
   7   0  -6   -0.05    0.04
   7   0  -5    0.58    0.08
   7   0  -4   -0.02    0.03
   7   0  -3    0.00    0.04
   7   0  -3   -0.02    0.03
   7   0  -2    0.00    0.04
   7   0  -2    0.04    0.03
  -7   0   1    1.58    0.12
   7   0  -1    1.59    0.12
   7   0  -1    1.50    0.11
   7   0   0    0.02    0.03
   7   0   0    0.00    0.02
  -7   0   0    0.03    0.04
   7   0   1    7.30    0.21
  -7   0  -1    7.19    0.27
   7   0   1    7.05    0.25
   7   0   2   -0.01    0.03
  -7   0  -2    0.07    0.05
   7   0   3    0.01    0.03
  -7   0  -3   -0.03    0.05
  -7   0  -4    0.09    0.06
  -7   0  -5    6.62    0.28
  -7   0  -6    0.03    0.05
  -7   0  -7    0.80    0.11
  -7   0  -8    0.03    0.05
  -7   0  -9    0.03    0.04
  -7   0 -10    0.10    0.07
  -7   0 -11    0.25    0.08
  -7   0 -12    0.03    0.05
   7   1 -17    0.33    0.09
   7   1 -16    0.45    0.10
   7   1 -15    0.80    0.13
   7   1 -15    0.30    0.07
   7   1 -14    1.45    0.17
   7  -1 -14    1.10    0.12
   7   1 -14    0.86    0.12
   7  -1 -13    0.08    0.04
   7   1 -13    0.11    0.06
   7   1 -13    0.09    0.05
   7  -1 -12    0.01    0.04
   7   1 -12    0.05    0.05
   7   1 -12    0.08    0.04
   7   1 -11    1.17    0.14
   7   1 -11    1.24    0.13
   7  -1 -11    1.38    0.13
   7   1 -10    0.29    0.07
   7   1 -10    0.28    0.08
   7  -1 -10    0.25    0.06
   7   1  -9    1.82    0.16
   7   1  -9    1.84    0.15
   7  -1  -9    1.64    0.14
   7  -1  -8    0.24    0.06
   7   1  -8    0.25    0.06
   7   1  -8    0.37    0.08
   7   1  -7    1.62    0.14
   7   1  -7    1.62    0.14
   7  -1  -7    1.51    0.13
   7   1  -6    2.46    0.17
   7   1  -6    2.27    0.16
   7  -1  -6    2.33    0.16
   7   1  -5    3.91    0.20
   7   1  -5    3.50    0.19
   7  -1  -5    3.77    0.20
   7   1  -4    4.75    0.22
   7   1  -4    4.68    0.21
   7  -1  -4    5.07    0.23
   7   1  -3    1.98    0.14
  -7   1   3    1.83    0.13
   7   1  -3    1.93    0.14
   7  -1  -3    1.88    0.14
   7  -1  -2    0.67    0.08
  -7   1   2    0.80    0.09
   7   1  -2    0.71    0.08
   7   1  -2    0.61    0.08
   7   1  -1    0.00    0.03
   7  -1  -1    0.02    0.03
   7   1  -1    0.04    0.03
  -7   1   1    0.02    0.04
   7   1   0    3.28    0.15
  -7  -1   0    3.45    0.19
  -7   1   0    3.17    0.17
   7   1   0    3.29    0.17
   7  -1   0    3.05    0.17
   7   1   1    1.27    0.09
   7  -1   1    1.40    0.09
  -7  -1  -1    1.29    0.12
  -7   1  -1    1.19    0.11
   7   1   1    1.50    0.12
   7  -1   1    1.27    0.11
   7   1   2   -0.01    0.03
  -7   1  -2    0.01    0.04
   7  -1   2    0.05    0.03
  -7  -1  -2    0.03    0.04
   7   1   2    0.01    0.02
   7   1   3    0.01    0.03
  -7   1  -3   -0.03    0.04
  -7  -1  -3   -0.05    0.05
   7   1   4    0.18    0.04
  -7   1  -4    0.26    0.06
  -7  -1  -4    0.29    0.07
  -7   1  -5    0.10    0.05
  -7  -1  -5    0.12    0.05
  -7   1  -6    0.02    0.05
  -7  -1  -6    0.18    0.07
  -7   1  -7    1.21    0.14
  -7  -1  -7    1.21    0.13
  -7  -1  -8    2.70    0.20
  -7   1  -8    3.02    0.22
  -7   1  -9    1.42    0.16
  -7  -1  -9    1.47    0.16
  -7   1 -10   -0.06    0.04
  -7  -1 -10    0.00    0.05
  -7   1 -11    0.02    0.07
  -7  -1 -11    0.08    0.06
  -7  -1 -12    0.05    0.05
   7   2 -16   -0.09    0.06
   7   2 -16    0.04    0.04
   7   2 -15    0.93    0.14
   7   2 -15    0.83    0.12
   7   2 -14    0.21    0.07
   7   2 -14    0.23    0.07
   7  -2 -13    0.11    0.05
   7   2 -13   -0.01    0.05
   7  -2 -12    0.05    0.04
   7   2 -12    0.06    0.05
   7   2 -11    0.75    0.11
   7  -2 -11    0.72    0.10
   7   2 -10    1.77    0.16
   7  -2 -10    1.42    0.13
   7   2  -9    2.14    0.17
   7  -2  -9    2.13    0.16
   7   2  -8    1.25    0.13
   7  -2  -8    1.24    0.12
   7  -2  -7    0.21    0.06
   7   2  -7    0.27    0.06
   7   2  -6    4.79    0.24
   7  -2  -6    4.66    0.23
   7   2  -5    1.95    0.15
   7  -2  -5    1.82    0.14
   7  -2  -4    0.65    0.09
   7   2  -4    0.62    0.08
  -7   2   4    0.55    0.07
   7   2  -3    3.35    0.18
  -7   2   3    3.64    0.17
   7   2  -3    3.54    0.19
   7  -2  -3    3.19    0.18
   7   2  -2    0.43    0.07
   7  -2  -2    0.63    0.09
  -7   2   2    0.45    0.07
   7   2  -2    0.55    0.08
   7   2  -1    4.15    0.19
  -7   2   1    3.97    0.19
   7   2  -1    3.90    0.19
   7  -2  -1    4.00    0.20
   7   2   0    1.62    0.12
  -7   2   0    1.57    0.12
   7  -2   0    1.52    0.13
   7   2   0    1.67    0.12
   7   2   1    1.83    0.12
  -7   2  -1    2.00    0.14
   7   2   1    1.85    0.13
  -7  -2  -2    1.85    0.15
  -7   2  -2    1.86    0.14
   7   2   2    1.86    0.12
   7   2   2    1.62    0.11
   7   2   3    0.12    0.04
  -7  -2  -3    0.06    0.04
  -7   2  -3    0.18    0.06
  -7  -2  -4    0.08    0.04
  -7   2  -4    0.04    0.06
  -7  -2  -5   -0.02    0.04
  -7   2  -5    0.05    0.05
  -7  -2  -6   -0.02    0.04
  -7   2  -6    0.04    0.04
  -7   2  -7   -0.12    0.06
  -7  -2  -7    0.01    0.05
  -7   2  -8   -0.05    0.06
  -7  -2  -8    0.01    0.04
  -7   2  -9   -0.04    0.07
  -7  -2  -9    0.01    0.05
  -7   2 -10    0.43    0.11
  -7  -2 -10    0.42    0.09
  -7   2 -11    0.45    0.10
  -7  -2 -11    0.21    0.07
  -7  -2 -12    0.00    0.04
   7   3 -16    0.10    0.05
   7   3 -15    0.61    0.11
   7   3 -14    1.44    0.16
   7   3 -13    0.85    0.13
   7   3 -12    0.34    0.08
   7  -3 -12    0.31    0.07
   7   3 -11    0.08    0.05
   7  -3 -11   -0.01    0.04
   7   3 -10    0.23    0.06
   7  -3 -10    0.11    0.05
   7   3  -9    0.53    0.10
   7  -3  -9    0.48    0.08
   7   3  -8    0.13    0.06
   7  -3  -8    0.03    0.04
   7   3  -7    1.54    0.14
   7  -3  -7    1.65    0.14
   7   3  -6    0.05    0.04
   7  -3  -6    0.08    0.05
   7   3  -5    0.95    0.11
   7  -3  -5    0.74    0.10
   7  -3  -4    0.90    0.10
  -7   3   4    0.87    0.08
   7   3  -4    0.88    0.10
   7   3  -3    1.63    0.14
  -7   3   3    1.81    0.12
  -7   3   2    0.15    0.04
   7   3  -2    0.17    0.05
  -7   3   1    0.24    0.06
   7   3  -1    0.28    0.06
  -7   3   0    0.17    0.05
   7   3   0    0.16    0.05
   7   3   0    0.13    0.04
   7  -3   1    3.05    0.15
  -7   3  -1    3.01    0.18
   7   3   1    3.24    0.17
   7   3   1    3.02    0.17
   7  -3   2    1.34    0.10
  -7   3  -2    1.28    0.12
   7   3   2    1.42    0.11
   7   3   2    1.30    0.11
   7   3   3    0.03    0.03
  -7   3  -3    0.00    0.05
   7   3   3    0.05    0.03
  -7   3  -4    0.14    0.06
  -7   3  -5    0.05    0.05
  -7  -3  -6    0.04    0.05
  -7   3  -6    0.19    0.06
  -7  -3  -7    0.02    0.04
  -7   3  -7    0.10    0.05
  -7  -3  -8    0.18    0.06
  -7   3  -8    0.24    0.08
  -7  -3  -9    0.12    0.06
  -7   3  -9    0.24    0.08
  -7  -3 -10    0.03    0.05
  -7   3 -10    0.14    0.07
  -7  -3 -11   -0.02    0.05
   7   4 -15    0.01    0.05
   7   4 -14    1.53    0.17
   7   4 -13    0.13    0.06
   7   4 -12    0.00    0.05
   7   4 -11    0.39    0.09
   7   4 -10    0.18    0.07
   7   4  -9    0.69    0.11
   7   4  -8    0.70    0.10
   7   4  -7   -0.02    0.05
   7   4  -6    0.21    0.07
   7   4  -5    0.18    0.06
   7   4  -4    3.40    0.20
   7   4  -3   -0.02    0.04
  -7   4   2    1.47    0.11
   7   4  -2    1.56    0.14
  -7   4   1    0.39    0.07
   7   4  -1    0.45    0.08
   7   4   0    0.17    0.06
  -7   4   0    0.07    0.04
  -7   4  -1    0.20    0.06
   7   4   1    0.23    0.06
  -7   4  -2   -0.08    0.05
   7   4   2    0.03    0.03
   7  -4   2   -0.03    0.03
   7   4   2   -0.01    0.03
   7  -4   3    1.12    0.11
   7   4   3    1.08    0.11
  -7   4  -3    1.03    0.12
  -7   4  -4    0.77    0.11
   7  -4   4    0.66    0.09
   7  -4   5    0.12    0.05
  -7   4  -5    0.12    0.05
   7  -4   6    0.13    0.05
  -7   4  -6    0.08    0.05
  -7   4  -7    0.00    0.05
  -7   4  -8    0.00    0.05
  -7   4  -9    0.04    0.05
   7   5 -13    1.07    0.14
   7   5 -12    0.65    0.12
   7   5 -11    0.18    0.06
   7   5 -10    0.29    0.07
   7   5  -9    0.41    0.10
   7   5  -8    0.22    0.07
   7   5  -7    0.07    0.05
   7   5  -6    0.02    0.05
   7   5  -5    0.00    0.04
   7   5  -4    0.52    0.09
   7   5  -3    4.77    0.26
   7   5  -2    0.77    0.11
   7   5  -1    2.03    0.17
   7   5   0    1.02    0.12
  -7   5   0    1.02    0.11
   7   5   1    0.45    0.08
  -7   5  -1    0.30    0.06
  -7   5  -2    0.08    0.04
   7   5   2    0.06    0.04
   7   5   3    0.03    0.03
   7  -5   3    0.08    0.05
  -7   5  -3    0.04    0.05
   7  -5   4    2.05    0.16
  -7   5  -4    2.05    0.18
   7  -5   5    0.06    0.04
  -7   5  -5   -0.03    0.05
  -7   5  -6    0.40    0.09
   7  -5   6    0.32    0.07
  -7   5  -7    0.35    0.09
   7  -5   7    0.34    0.08
  -7   5  -8   -0.03    0.04
   7   6 -11    0.07    0.06
   7   6 -10    0.21    0.08
   7   6  -9    0.01    0.04
   7   6  -8    0.02    0.06
   7   6  -7   -0.01    0.05
   7   6  -6   -0.02    0.05
   7   6  -5    1.23    0.14
   7   6  -4    0.03    0.05
   7   6  -3    0.03    0.04
   7   6  -2    0.04    0.05
   7   6  -1   -0.07    0.05
   7   6   0    0.23    0.07
   7   6   1    1.34    0.14
   7   6   2    0.34    0.08
  -7   6  -2    0.38    0.07
   7   6   3    0.20    0.06
  -7   6  -3    0.18    0.06
   7  -6   3    0.24    0.07
  -7   6  -4    0.44    0.09
   7  -6   4    0.37    0.08
   7  -6   5   -0.02    0.04
   7  -6   6   -0.04    0.05
   7  -6   7    0.01    0.04
   7  -6   8    0.18    0.07
   7   7  -8    0.35    0.09
   7   7  -7    0.01    0.07
   7   7  -6    0.05    0.06
   7   7  -5    0.14    0.08
   7   7  -4    0.35    0.08
   7   7  -3    0.29    0.08
   7   7  -2    0.01    0.05
   7   7  -1    0.12    0.05
   7   7   0    0.07    0.05
   7   7   1    0.04    0.05
   7   7   2    0.00    0.05
   7   7   3    0.02    0.05
   7  -7   3    0.03    0.03
   7  -7   4    0.56    0.10
   7  -7   5    0.02    0.04
   7  -7   6    0.27    0.07
   7   8  -2    0.28    0.07
   7   8  -1   -0.06    0.05
   7   8   0    0.42    0.10
   7   8   1    0.68    0.13
   7   8   2    0.09    0.06
   8   0 -15    0.15    0.06
   8   0 -15    0.06    0.07
   8   0 -14    1.97    0.19
   8   0 -14    1.86    0.17
   8   0 -13   -0.02    0.04
   8   0 -13    0.03    0.05
   8   0 -12    0.03    0.04
   8   0 -12   -0.02    0.05
   8   0 -11    0.02    0.04
   8   0 -11   -0.07    0.06
   8   0 -10   -0.03    0.04
   8   0 -10    0.06    0.05
   8   0  -9    0.03    0.04
   8   0  -9    0.05    0.05
   8   0  -8    1.27    0.14
   8   0  -8    1.39    0.13
   8   0  -7   -0.03    0.04
   8   0  -7   -0.06    0.05
   8   0  -6    0.83    0.11
   8   0  -6    0.96    0.11
   8   0  -5   -0.02    0.04
   8   0  -5   -0.04    0.05
   8   0  -4    2.85    0.18
   8   0  -4    2.71    0.18
   8   0  -3   -0.01    0.04
   8   0  -3   -0.02    0.03
   8   0  -2    0.05    0.04
   8   0  -2    0.17    0.05
  -8   0   1    0.00    0.04
   8   0  -1    0.03    0.04
   8   0  -1    0.00    0.03
   8   0   0    2.01    0.13
  -8   0   0    2.11    0.16
   8   0   0    2.01    0.15
   8   0   1   -0.02    0.03
  -8   0  -1    0.03    0.04
   8   0   2    0.33    0.06
  -8   0  -2    0.32    0.07
   8   0   3    0.04    0.03
  -8   0  -3   -0.04    0.05
  -8   0  -4    0.09    0.05
  -8   0  -5   -0.04    0.04
  -8   0  -6    0.25    0.08
  -8   0  -7    0.05    0.06
  -8   0  -8    5.00    0.29
  -8   0  -9    0.05    0.06
  -8   0 -10    0.50    0.11
   8   1 -15    0.07    0.06
   8   1 -15   -0.03    0.04
   8  -1 -14    0.43    0.09
   8   1 -14    0.70    0.12
   8   1 -14    0.55    0.10
   8  -1 -13    0.88    0.12
   8   1 -13    0.66    0.12
   8   1 -13    0.99    0.13
   8  -1 -12    0.35    0.08
   8   1 -12    0.41    0.09
   8   1 -12    0.43    0.09
   8  -1 -11    0.14    0.06
   8   1 -11    0.08    0.05
   8   1 -11    0.13    0.06
   8  -1 -10    0.37    0.08
   8   1 -10    0.34    0.08
   8   1 -10    0.28    0.07
   8  -1  -9   -0.02    0.04
   8   1  -9    0.05    0.04
   8   1  -9    0.08    0.05
   8  -1  -8    0.79    0.11
   8   1  -8    0.77    0.11
   8   1  -8    0.68    0.10
   8   1  -7    3.92    0.23
   8   1  -7    3.99    0.22
   8  -1  -7    3.92    0.22
   8  -1  -6    0.86    0.11
   8   1  -6    0.77    0.10
   8   1  -6    0.87    0.11
   8   1  -5    1.38    0.13
   8   1  -5    1.40    0.13
   8  -1  -5    1.44    0.14
   8   1  -4    0.04    0.04
   8  -1  -4    0.00    0.04
   8   1  -4    0.09    0.05
   8   1  -3    0.01    0.03
   8  -1  -3    0.03    0.04
   8   1  -3   -0.06    0.04
   8   1  -2    0.40    0.07
  -8   1   2    0.46    0.07
   8  -1  -2    0.51    0.09
   8   1  -2    0.56    0.08
   8   1  -1    0.04    0.03
   8  -1  -1    0.23    0.06
   8   1  -1    0.25    0.06
  -8   1   1    0.07    0.04
   8  -1  -1    0.17    0.05
   8   1   0    0.04    0.03
   8   1   0   -0.01    0.03
   8  -1   0    0.04    0.04
   8  -1   0    0.00    0.02
  -8   1   0    0.04    0.04
  -8  -1  -1    0.06    0.06
   8   1   1    0.02    0.04
   8  -1   1   -0.04    0.04
  -8   1  -1    0.10    0.05
   8   1   1    0.02    0.02
   8   1   2    0.55    0.08
  -8  -1  -2    0.49    0.09
   8  -1   2    0.58    0.08
  -8   1  -2    0.48    0.08
   8   1   3    0.08    0.04
  -8  -1  -3    0.01    0.04
  -8   1  -3    0.08    0.06
  -8  -1  -4    0.06    0.05
  -8   1  -4   -0.01    0.04
  -8   1  -5    0.27    0.08
  -8  -1  -5    0.27    0.08
  -8   1  -6    0.40    0.10
  -8  -1  -6    0.46    0.09
  -8   1  -7    0.86    0.13
  -8  -1  -7    0.97    0.13
  -8   1  -8    0.12    0.07
  -8  -1  -8    0.10    0.06
  -8   1  -9    0.16    0.08
  -8  -1  -9    0.17    0.07
  -8   1 -10    0.02    0.05
  -8  -1 -10   -0.06    0.06
   8   2 -16   -0.02    0.04
   8   2 -15    0.42    0.10
   8   2 -15    0.37    0.08
   8  -2 -14    0.06    0.05
   8   2 -14    0.02    0.05
   8   2 -14    0.04    0.05
   8  -2 -13    0.27    0.07
   8   2 -13    0.34    0.09
   8   2 -13    0.33    0.08
   8  -2 -12    0.03    0.04
   8   2 -12   -0.03    0.05
   8   2 -12    0.03    0.05
   8  -2 -11    0.01    0.04
   8   2 -11    0.15    0.06
   8   2 -11    0.11    0.06
   8  -2 -10    0.30    0.07
   8   2 -10    0.29    0.07
   8   2 -10    0.26    0.07
   8  -2  -9    0.20    0.06
   8   2  -9    0.17    0.07
   8   2  -9    0.18    0.06
   8  -2  -8    0.01    0.04
   8   2  -8   -0.01    0.05
   8   2  -8    0.02    0.04
   8  -2  -7    0.01    0.05
   8   2  -7    0.05    0.05
   8   2  -7   -0.01    0.04
   8  -2  -6    0.12    0.05
   8   2  -6    0.19    0.06
   8   2  -6    0.19    0.06
   8  -2  -5    0.15    0.05
   8   2  -5    0.33    0.08
   8   2  -5    0.26    0.07
   8   2  -4    1.77    0.15
   8   2  -4    1.71    0.14
   8  -2  -4    1.75    0.15
   8   2  -3    3.01    0.19
   8   2  -3    3.32    0.19
  -8   2   3    3.35    0.18
   8  -2  -3    3.44    0.20
   8  -2  -2    0.04    0.05
  -8   2   2    0.08    0.04
   8   2  -2    0.03    0.04
   8   2  -2    0.06    0.04
   8   2  -1    1.37    0.12
  -8   2   1    1.26    0.12
   8   2  -1    1.41    0.12
   8  -2  -1    1.38    0.13
   8   2   0    0.16    0.05
  -8   2   0    0.25    0.06
   8   2   0    0.15    0.05
   8   2   1   -0.01    0.03
   8   2   1    0.01    0.03
  -8   2  -1    0.00    0.04
  -8   2  -2    0.02    0.04
   8   2   2    0.01    0.03
   8   2   3   -0.03    0.03
  -8   2  -3    0.00    0.04
  -8  -2  -3    0.04    0.05
  -8  -2  -4    0.23    0.07
  -8   2  -4    0.17    0.07
  -8  -2  -5    0.00    0.05
  -8   2  -5    0.05    0.05
  -8  -2  -6    0.01    0.06
  -8   2  -6    0.03    0.05
  -8  -2  -7    0.57    0.11
  -8   2  -7    0.36    0.09
  -8  -2  -8    0.08    0.07
  -8   2  -8    0.08    0.06
  -8  -2  -9    0.37    0.09
  -8   2  -9    0.29    0.09
  -8  -2 -10   -0.02    0.04
   8   3 -15    0.15    0.07
   8   3 -14   -0.06    0.05
   8   3 -13    0.20    0.08
   8  -3 -13    0.16    0.06
   8   3 -12    0.91    0.13
   8  -3 -12    0.62    0.10
   8   3 -11    0.06    0.05
   8  -3 -11   -0.01    0.04
   8   3 -10    0.06    0.05
   8  -3 -10    0.05    0.04
   8   3  -9    0.05    0.05
   8  -3  -9    0.00    0.04
   8   3  -8    0.24    0.08
   8  -3  -8    0.27    0.07
   8   3  -7    4.89    0.26
   8  -3  -7    4.95    0.26
   8   3  -6    4.98    0.26
   8  -3  -6    4.70    0.25
   8  -3  -5    0.00    0.04
   8   3  -5    0.01    0.04
   8  -3  -4    0.94    0.12
  -8   3   4    0.88    0.09
   8   3  -4    0.86    0.11
   8   3  -3    1.59    0.14
  -8   3   3    1.44    0.12
   8   3  -3    1.39    0.13
  -8   3   2    2.66    0.16
   8   3  -2    2.48    0.17
   8   3  -2    2.67    0.18
  -8   3   1    0.06    0.04
   8   3  -1    0.15    0.05
   8   3  -1    0.05    0.04
  -8   3   0    0.97    0.11
   8   3   0    0.94    0.10
   8   3   0    1.01    0.11
  -8   3  -1    0.17    0.05
   8   3   1    0.16    0.05
   8   3   1    0.09    0.04
   8   3   2    0.69    0.09
  -8   3  -2    0.67    0.10
  -8   3  -3   -0.01    0.04
  -8   3  -4    0.12    0.06
  -8   3  -5    0.36    0.09
  -8   3  -6    1.25    0.15
  -8   3  -7    0.26    0.08
  -8  -3  -8    0.18    0.07
  -8   3  -8    0.14    0.06
  -8  -3  -9   -0.03    0.05
  -8   3  -9    0.05    0.06
   8   4 -13    0.17    0.07
   8   4 -12    0.13    0.06
   8   4 -11    0.11    0.06
   8   4 -10    0.57    0.11
   8   4  -9    0.04    0.05
   8   4  -8    0.27    0.07
   8   4  -7    0.12    0.06
   8   4  -6    0.06    0.05
   8   4  -5    0.69    0.10
   8   4  -4    2.04    0.17
   8   4  -3    0.15    0.06
  -8   4   2    2.04    0.14
   8   4  -2    2.07    0.17
   8   4  -1    0.00    0.04
  -8   4   1    0.03    0.03
  -8   4   0    0.35    0.07
   8   4   0    0.18    0.06
   8   4   0    0.45    0.08
  -8   4  -1    0.72    0.10
   8   4   1    0.94    0.11
   8   4   1    0.76    0.09
   8   4   2    0.66    0.09
  -8   4  -2    0.65    0.10
  -8   4  -3    1.69    0.16
  -8   4  -4    0.10    0.06
  -8   4  -5    0.16    0.07
  -8   4  -6    0.00    0.04
  -8   4  -7    0.00    0.05
  -8   4  -8   -0.04    0.05
   8   5 -12    0.12    0.06
   8   5 -11    0.59    0.12
   8   5 -10    0.36    0.09
   8   5  -9    0.54    0.11
   8   5  -8    0.32    0.09
   8   5  -7   -0.03    0.05
   8   5  -6    1.22    0.14
   8   5  -5    0.07    0.05
   8   5  -4    0.24    0.07
   8   5  -3    0.27    0.08
   8   5  -2    0.88    0.12
   8   5  -1   -0.04    0.05
  -8   5   0    1.62    0.14
   8   5   0    1.97    0.17
   8   5   1    0.10    0.04
  -8   5  -1    0.01    0.03
  -8   5  -2   -0.04    0.04
   8   5   2    0.02    0.03
  -8   5  -3    0.41    0.08
  -8   5  -4   -0.02    0.04
  -8   5  -5    0.01    0.05
  -8   5  -6    0.08    0.06
  -8   5  -7    0.02    0.05
   8   6  -9    0.27    0.08
   8   6  -8    0.06    0.07
   8   6  -7    0.18    0.08
   8   6  -6    0.20    0.08
   8   6  -5    0.15    0.07
   8   6  -4    0.55    0.10
   8   6  -3    0.10    0.06
   8   6  -2    0.17    0.07
   8   6  -1    0.69    0.11
   8   6   0    0.22    0.07
   8   6   1    0.06    0.04
   8   6   2    0.16    0.06
  -8   6  -3    0.32    0.07
  -8   6  -4    1.93    0.18
  -8   6  -5    0.03    0.05
   8   7  -5    0.03    0.04
   8   7  -4    0.02    0.05
   8   7  -3    0.02    0.05
   8   7  -2    0.11    0.06
   8   7  -1    0.35    0.09
   8   7   0    0.43    0.09
   8   7   1   -0.03    0.05
   8   7   2    0.01    0.04
   9   0 -15    0.91    0.13
   9   0 -14    0.13    0.06
   9   0 -14   -0.10    0.07
   9   0 -13    0.05    0.04
   9   0 -13    0.30    0.09
   9   0 -12   -0.01    0.04
   9   0 -12    0.09    0.06
   9   0 -11    0.03    0.05
   9   0 -11    0.01    0.05
   9   0 -10   -0.07    0.05
   9   0 -10   -0.09    0.06
   9   0  -9    0.23    0.07
   9   0  -9    0.34    0.08
   9   0  -8    0.05    0.05
   9   0  -8   -0.06    0.05
   9   0  -7    4.88    0.27
   9   0  -7    5.15    0.27
   9   0  -6    0.03    0.05
   9   0  -6    0.01    0.04
   9   0  -5    0.47    0.08
   9   0  -5    0.33    0.07
   9   0  -4   -0.07    0.06
   9   0  -4   -0.02    0.04
   9   0  -3    0.04    0.04
   9   0  -3   -0.01    0.04
   9   0  -2   -0.03    0.05
   9   0  -2    0.03    0.03
   9   0  -1    0.00    0.03
   9   0  -1    0.06    0.05
  -9   0   0    0.03    0.05
   9   0   0   -0.05    0.03
   9   0   1    0.48    0.08
  -9   0  -1    0.61    0.10
   9   0   2   -0.05    0.04
  -9   0  -2   -0.01    0.05
  -9   0  -3    0.91    0.13
   9   0   3    1.02    0.11
  -9   0  -4   -0.03    0.05
  -9   0  -5   -0.05    0.05
  -9   0  -6   -0.06    0.05
  -9   0  -7    1.94    0.19
  -9   0  -8   -0.09    0.06
   9   1 -15    0.16    0.07
   9  -1 -15    0.10    0.06
   9   1 -14    0.45    0.10
   9  -1 -14    0.24    0.07
   9   1 -14    0.23    0.08
   9   1 -13    0.34    0.08
   9  -1 -13    0.25    0.07
   9   1 -13    0.30    0.09
   9  -1 -12    1.26    0.15
   9   1 -12    1.48    0.17
   9   1 -12    1.19    0.14
   9  -1 -11    0.01    0.04
   9   1 -11   -0.01    0.04
   9   1 -11    0.04    0.04
   9  -1 -10    0.02    0.04
   9   1 -10    0.10    0.06
   9   1 -10    0.06    0.04
   9  -1  -9    0.56    0.10
   9   1  -9    0.56    0.11
   9   1  -9    0.57    0.10
   9   1  -8    0.01    0.05
   9  -1  -8    0.10    0.04
   9   1  -8    0.08    0.05
   9   1  -7    0.79    0.11
   9  -1  -7    0.64    0.10
   9   1  -7    0.87    0.12
   9   1  -6    0.11    0.05
   9  -1  -6    0.23    0.07
   9   1  -6    0.30    0.08
   9   1  -5    0.34    0.08
   9  -1  -5    0.29    0.07
   9   1  -5    0.32    0.07
   9   1  -4    1.18    0.13
   9   1  -4    1.26    0.13
   9  -1  -4    1.05    0.12
   9   1  -3    1.23    0.12
   9  -1  -3    1.04    0.12
   9  -1  -3    1.25    0.12
   9   1  -3    1.30    0.13
   9   1  -2    1.81    0.14
   9  -1  -2    1.89    0.14
  -9   1   2    1.79    0.15
   9   1  -2    1.55    0.14
   9  -1  -2    1.67    0.15
   9   1  -1    0.07    0.03
   9   1  -1    0.06    0.04
  -9   1   1    0.04    0.04
   9  -1  -1    0.07    0.04
   9   1   0    0.00    0.04
   9  -1   0    0.08    0.04
  -9   1   0    0.03    0.04
   9   1   1    0.03    0.04
   9  -1   1    0.02    0.04
  -9   1  -1    0.07    0.04
  -9   1  -2    1.02    0.12
  -9  -1  -2    1.28    0.14
   9   1   2    1.21    0.12
  -9  -1  -3    0.42    0.09
  -9   1  -3    0.62    0.10
  -9  -1  -4   -0.03    0.05
  -9   1  -4    0.13    0.07
  -9  -1  -5   -0.01    0.04
  -9   1  -5   -0.09    0.06
  -9  -1  -6    0.01    0.04
  -9   1  -6    0.09    0.05
  -9  -1  -7   -0.04    0.04
  -9   1  -7   -0.06    0.06
  -9  -1  -8    0.09    0.07
  -9   1  -8    0.10    0.06
   9  -2 -14    0.08    0.05
   9   2 -14    0.06    0.05
   9  -2 -13    1.12    0.14
   9   2 -13    0.96    0.14
   9   2 -13    0.94    0.13
   9  -2 -12    0.10    0.05
   9   2 -12    0.27    0.08
   9   2 -12    0.23    0.07
   9  -2 -11    0.33    0.08
   9   2 -11    0.12    0.06
   9   2 -11    0.25    0.07
   9  -2 -10   -0.05    0.05
   9   2 -10   -0.01    0.04
   9   2 -10    0.01    0.04
   9  -2  -9    0.16    0.07
   9   2  -9    0.17    0.07
   9   2  -9    0.13    0.06
   9  -2  -8    0.90    0.12
   9   2  -8    0.62    0.10
   9   2  -8    0.89    0.12
   9   2  -7    2.11    0.18
   9   2  -7    2.04    0.18
   9  -2  -7    1.84    0.17
   9  -2  -6    0.50    0.09
   9   2  -6    0.72    0.11
   9   2  -6    0.56    0.09
   9   2  -5    0.18    0.06
   9  -2  -5    0.25    0.07
   9   2  -5    0.28    0.07
   9   2  -4    3.60    0.22
   9   2  -4    3.34    0.21
   9  -2  -4    3.17    0.21
   9   2  -3    0.95    0.11
   9  -2  -3    0.60    0.10
  -9   2   3    0.87    0.10
   9   2  -3    0.73    0.10
   9   2  -2    0.30    0.07
   9  -2  -2    0.40    0.09
  -9   2   2    0.31    0.07
   9   2  -2    0.27    0.06
  -9   2   1    1.78    0.15
   9   2  -1    1.64    0.14
   9  -2  -1    2.01    0.17
   9   2  -1    1.94    0.15
   9   2   0    0.15    0.05
  -9   2   0    0.11    0.05
   9   2   1    0.73    0.10
  -9   2  -1    0.73    0.10
   9   2   2    0.46    0.08
  -9   2  -2    0.42    0.09
  -9   2  -3    0.20    0.06
  -9  -2  -4    0.33    0.09
  -9   2  -4    0.26    0.08
  -9  -2  -5   -0.01    0.05
  -9   2  -5    0.04    0.05
  -9  -2  -6   -0.06    0.06
  -9   2  -6    0.05    0.05
  -9  -2  -7    0.28    0.09
  -9   2  -7   -0.04    0.05
  -9  -2  -8   -0.05    0.05
   9  -3 -13    0.42    0.09
   9   3 -13    0.37    0.09
   9   3 -12    1.60    0.18
   9   3 -12    1.81    0.18
   9  -3 -12    1.49    0.16
   9   3 -11    0.77    0.13
   9  -3 -11    0.71    0.11
   9   3 -11    0.82    0.12
   9   3 -10    0.13    0.07
   9  -3 -10    0.16    0.06
   9   3 -10    0.03    0.05
   9   3  -9    0.04    0.05
   9  -3  -9    0.09    0.05
   9   3  -9    0.08    0.06
   9   3  -8    0.14    0.07
   9  -3  -8    0.17    0.07
   9   3  -8    0.20    0.07
   9   3  -7    0.00    0.04
   9  -3  -7    0.06    0.04
   9   3  -7    0.04    0.04
   9  -3  -6   -0.01    0.05
   9   3  -6   -0.02    0.05
   9   3  -6   -0.04    0.04
   9  -3  -5    0.53    0.10
   9   3  -5    0.35    0.07
   9   3  -5    0.20    0.07
   9   3  -4    0.08    0.05
   9   3  -4   -0.01    0.04
  -9   3   3    0.93    0.11
   9   3  -3    0.80    0.11
   9   3  -3    0.99    0.12
  -9   3   2    0.61    0.09
   9   3  -2    0.60    0.09
   9   3  -2    0.61    0.09
  -9   3   1    0.81    0.10
   9   3  -1    0.62    0.09
   9   3  -1    0.85    0.10
   9   3   0   -0.01    0.04
  -9   3   0   -0.01    0.05
   9   3   0    0.00    0.03
   9   3   1    0.04    0.04
  -9   3  -1   -0.01    0.05
  -9   3  -2    0.01    0.04
  -9   3  -3    0.90    0.12
  -9   3  -4    0.53    0.10
  -9   3  -5    0.25    0.07
  -9   3  -6    0.03    0.05
  -9   3  -7    0.06    0.06
   9   4 -11   -0.01    0.05
   9   4 -10    0.07    0.05
   9   4  -9    0.11    0.06
   9   4  -8    0.53    0.11
   9   4  -7    1.45    0.16
   9   4  -6    0.06    0.06
   9   4  -5   -0.03    0.05
   9   4  -4    0.04    0.04
   9   4  -4    0.07    0.05
   9   4  -3    0.07    0.04
   9   4  -3    0.10    0.05
   9   4  -2    1.39    0.14
   9   4  -2    1.57    0.15
  -9   4   1   -0.02    0.04
   9   4  -1    0.05    0.04
   9   4  -1    0.01    0.04
   9   4   0    0.78    0.11
  -9   4   0    0.94    0.12
   9   4   0    0.98    0.11
  -9   4  -1    0.04    0.05
  -9   4  -2    0.11    0.06
  -9   4  -3    0.10    0.06
  -9   4  -4    0.04    0.05
  -9   4  -5    0.02    0.05
  -9   4  -6   -0.01    0.06
   9   5  -9    0.23    0.08
   9   5  -8    0.33    0.09
   9   5  -7    0.02    0.05
   9   5  -6    0.16    0.06
   9   5  -5    0.05    0.05
   9   5  -4    0.09    0.06
   9   5  -3   -0.04    0.04
   9   5  -2    0.45    0.09
   9   5  -1    1.96    0.17
   9   5  -1    1.79    0.17
   9   5   0    0.38    0.08
  -9   5  -2    0.15    0.06
  -9   5  -3    0.35    0.08
  -9   5  -4    0.02    0.04
  -9   5  -5    0.05    0.05
   9   6  -6    0.12    0.08
   9   6  -5    0.03    0.05
   9   6  -4   -0.05    0.05
   9   6  -3    0.25    0.08
   9   6  -2    0.02    0.05
   9   6  -1    0.09    0.05
   9   6   0   -0.01    0.04
  10   0 -13    0.01    0.03
  10   0 -12    2.30    0.22
  10   0 -12    2.01    0.20
  10   0 -11    0.02    0.05
  10   0 -11    0.03    0.05
  10   0 -10    0.11    0.06
  10   0 -10    0.06    0.05
  10   0  -9   -0.03    0.06
  10   0  -9    0.14    0.06
  10   0  -8    0.04    0.05
  10   0  -8    0.03    0.04
  10   0  -7    0.02    0.04
  10   0  -7    0.02    0.05
  10   0  -6    0.88    0.12
  10   0  -6    0.89    0.12
  10   0  -5   -0.05    0.05
  10   0  -5    0.05    0.04
  10   0  -4   -0.01    0.05
  10   0  -4    0.10    0.05
  10   0  -3    0.00    0.05
  10   0  -3   -0.02    0.03
  10   0  -2    1.33    0.14
  10   0  -1    0.03    0.04
  10   0   0    0.05    0.04
 -10   0  -1   -0.09    0.06
  10   0   1    0.02    0.04
 -10   0  -2    0.67    0.11
  10   0   2    0.69    0.10
 -10   0  -3    0.06    0.06
 -10   0  -4    0.24    0.08
 -10   0  -5   -0.02    0.05
  10  -1 -13    0.14    0.07
  10   1 -12    0.49    0.10
  10  -1 -12    0.41    0.09
  10   1 -12    0.56    0.12
  10  -1 -12    0.59    0.12
  10   1 -11    0.63    0.12
  10  -1 -11    0.42    0.10
  10   1 -11    0.47    0.11
  10  -1 -11    0.52    0.11
  10   1 -10    0.07    0.06
  10  -1 -10    0.01    0.05
  10   1 -10    0.15    0.08
  10  -1 -10    0.11    0.06
  10   1  -9   -0.01    0.04
  10  -1  -9   -0.02    0.04
  10   1  -9   -0.01    0.04
  10  -1  -9    0.01    0.05
  10  -1  -8   -0.02    0.05
  10   1  -8    0.10    0.06
  10  -1  -8    0.07    0.06
  10   1  -7    0.07    0.05
  10  -1  -7   -0.06    0.05
  10   1  -7   -0.02    0.04
  10  -1  -7    0.01    0.04
  10   1  -6    0.64    0.11
  10  -1  -6    0.68    0.11
  10   1  -6    0.55    0.10
  10  -1  -6    0.53    0.09
  10   1  -5    1.96    0.17
  10  -1  -5    1.97    0.17
  10   1  -5    1.80    0.17
  10  -1  -5    1.69    0.16
  10   1  -4    0.52    0.10
  10  -1  -4    0.54    0.10
  10   1  -4    0.54    0.09
  10  -1  -4    0.58    0.09
  10   1  -3    0.70    0.11
  10   1  -3    0.73    0.10
  10  -1  -3    0.73    0.11
  10  -1  -3    0.85    0.10
  10   1  -2    0.06    0.04
  10   1  -2    0.05    0.04
  10  -1  -2   -0.03    0.04
  10   1  -1   -0.02    0.05
  10  -1  -1   -0.01    0.04
 -10   1   1    0.00    0.04
 -10   1   0   -0.04    0.04
  10   1   0    0.01    0.03
  10  -1   0    0.01    0.04
  10   1   1    0.22    0.07
 -10   1  -1    0.22    0.08
 -10   1  -2   -0.02    0.05
 -10   1  -3    0.10    0.05
 -10  -1  -3   -0.05    0.05
 -10  -1  -4    0.36    0.10
 -10   1  -4    0.21    0.08
 -10  -1  -5    0.14    0.06
 -10   1  -5   -0.08    0.07
  10  -2 -12    0.03    0.05
  10   2 -12    0.08    0.05
  10  -2 -11    0.39    0.10
  10   2 -11    0.56    0.11
  10   2 -11    0.49    0.10
  10  -2 -10    0.10    0.06
  10   2 -10    0.03    0.05
  10   2 -10    0.07    0.06
  10  -2  -9   -0.04    0.05
  10   2  -9    0.07    0.06
  10   2  -9   -0.05    0.06
  10  -2  -8    0.15    0.07
  10   2  -8    0.08    0.06
  10   2  -8    0.12    0.06
  10  -2  -7   -0.01    0.04
  10   2  -7    0.16    0.07
  10   2  -7    0.10    0.05
  10   2  -6   -0.01    0.04
  10   2  -6    0.05    0.05
  10  -2  -6    0.00    0.04
  10   2  -5    0.06    0.05
  10   2  -5    0.03    0.04
  10  -2  -5    0.07    0.06
  10   2  -4    0.26    0.07
  10   2  -4    0.24    0.06
  10  -2  -4    0.35    0.08
  10   2  -3    0.16    0.06
  10  -2  -3    0.30    0.08
  10   2  -3    0.13    0.06
  10   2  -2    0.34    0.08
  10  -2  -2    0.36    0.08
 -10   2   2    0.45    0.09
  10   2  -2    0.46    0.08
  10   2  -1    1.09    0.13
 -10   2   1    1.06    0.13
  10   2   0    0.00    0.04
 -10   2   0    0.11    0.07
  10   2   1    0.71    0.10
 -10   2  -1    0.71    0.11
 -10   2  -2    0.02    0.04
 -10   2  -3    0.01    0.05
 -10   2  -4    0.05    0.05
 -10   2  -5   -0.08    0.06
  10  -3 -11    0.15    0.06
  10   3 -10    0.53    0.10
  10  -3 -10    0.69    0.12
  10   3 -10    0.69    0.12
  10   3  -9    0.09    0.06
  10  -3  -9    0.09    0.06
  10   3  -9    0.23    0.07
  10  -3  -8    0.08    0.05
  10   3  -8    0.08    0.06
  10   3  -8    0.08    0.05
  10  -3  -7    0.06    0.05
  10   3  -7    0.05    0.04
  10   3  -7    0.00    0.05
  10  -3  -6    0.13    0.06
  10   3  -6    0.14    0.06
  10   3  -6    0.13    0.06
  10   3  -5    2.30    0.20
  10   3  -5    1.94    0.18
  10  -3  -5    2.22    0.20
  10   3  -4    0.94    0.12
  10   3  -4    1.09    0.14
  10   3  -3    0.10    0.05
  10   3  -3    0.03    0.04
  10   3  -2    0.65    0.10
 -10   3   2    0.62    0.10
  10   3  -2    0.57    0.09
  10   3  -1    0.76    0.11
 -10   3   1    0.75    0.11
  10   3   0    0.39    0.08
 -10   3   0    0.50    0.09
 -10   3  -1    0.03    0.04
 -10   3  -2    0.14    0.06
 -10   3  -3    0.14    0.07
 -10   3  -4    0.19    0.07
  10   4  -9    0.02    0.04
  10   4  -9    0.03    0.05
  10   4  -8    0.14    0.07
  10   4  -8    0.10    0.06
  10   4  -7    0.06    0.06
  10   4  -7   -0.05    0.05
  10   4  -6    0.13    0.07
  10   4  -6    0.35    0.09
  10   4  -5    0.18    0.07
  10   4  -5   -0.01    0.04
  10   4  -4   -0.01    0.05
  10   4  -4   -0.01    0.04
  10   4  -3    0.52    0.10
  10   4  -3    0.36    0.08
  10   4  -2    0.45    0.09
  10   4  -2    0.43    0.09
  10   4  -1    0.14    0.05
 -10   4   0    0.23    0.07
 -10   4  -1    0.09    0.05
 -10   4  -2   -0.05    0.05
 -10   4  -3    0.12    0.06
 -10   4  -4    0.28    0.08
  10   5  -6    0.11    0.06
  10   5  -6    0.09    0.06
  10   5  -5   -0.03    0.06
  10   5  -5    0.00    0.04
  10   5  -4    0.19    0.08
  10   5  -4    0.35    0.09
  10   5  -3    0.01    0.04
  10   5  -3    0.05    0.04
  10   5  -2    0.16    0.06
  10   5  -2    0.19    0.07
  10   6  -3   -0.05    0.05
  11   0 -10   -0.01    0.05
  11   0  -9    0.04    0.05
  11   0  -9   -0.08    0.06
  11   0  -8   -0.03    0.05
  11   0  -8   -0.02    0.05
  11   0  -7    0.13    0.07
  11   0  -7    0.12    0.06
  11   0  -6    0.04    0.05
  11   0  -6    0.03    0.08
  11   0  -5    1.86    0.17
  11   0  -5    2.05    0.19
  11   0  -4    0.04    0.05
  11   0  -4   -0.02    0.03
  11   0  -3    0.06    0.05
  11   0  -2    0.06    0.07
  11   0  -1    0.03    0.04
  11   0   0    0.04    0.05
  11   0   1   -0.07    0.05
 -11   0  -2   -0.01    0.05
  11   1 -10    0.98    0.15
  11  -1 -10    0.90    0.14
  11   1  -9    0.01    0.04
  11  -1  -9   -0.04    0.04
  11   1  -9    0.02    0.04
  11  -1  -9   -0.05    0.05
  11   1  -8    0.05    0.06
  11  -1  -8    0.00    0.05
  11   1  -8   -0.04    0.05
  11  -1  -8   -0.04    0.05
  11   1  -7    0.07    0.05
  11  -1  -7    0.19    0.08
  11   1  -7    0.05    0.06
  11  -1  -7    0.24    0.07
  11   1  -6    0.05    0.06
  11  -1  -6    0.19    0.07
  11   1  -6    0.19    0.07
  11  -1  -6    0.09    0.05
  11   1  -5    0.13    0.05
  11  -1  -5    0.29    0.09
  11   1  -5    0.21    0.07
  11  -1  -5    0.23    0.07
  11   1  -4    0.04    0.04
  11   1  -4    0.10    0.06
  11  -1  -4    0.12    0.06
  11   1  -3    0.04    0.05
  11  -1  -3   -0.05    0.05
  11   1  -2    0.45    0.09
  11  -1  -2    0.38    0.08
  11   1  -1    0.14    0.06
  11  -1  -1    0.16    0.07
  11   1   0    0.54    0.10
  11  -1   0    0.56    0.10
 -11   1   0    0.42    0.10
 -11   1  -1    0.05    0.05
 -11   1  -2   -0.03    0.05
  11   2  -9    0.41    0.10
  11   2  -8    0.09    0.07
  11   2  -8   -0.02    0.04
  11  -2  -8    0.03    0.06
  11   2  -7    0.01    0.05
  11   2  -7   -0.02    0.05
  11  -2  -7    0.11    0.07
  11   2  -6    0.12    0.06
  11   2  -6    0.21    0.08
  11  -2  -6    0.25    0.09
  11  -2  -6    0.14    0.06
  11   2  -5    1.02    0.14
  11  -2  -5    1.08    0.14
  11  -2  -5    0.83    0.12
  11   2  -5    0.72    0.11
  11   2  -4    0.19    0.06
  11  -2  -4    0.05    0.05
  11   2  -4    0.17    0.07
  11   2  -3    0.11    0.05
  11  -2  -3    0.18    0.07
  11   2  -2    1.43    0.16
  11   2  -1    0.22    0.07
 -11   2   1    0.23    0.07
 -11   2   0    0.04    0.05
  11   2   0    0.17    0.06
 -11   2  -1    0.55    0.11
 -11   2  -2    0.13    0.07
  11   3  -8   -0.10    0.07
  11   3  -7    0.10    0.06
  11   3  -7    0.06    0.05
  11   3  -6    0.03    0.04
  11   3  -6    0.10    0.05
  11   3  -5    0.12    0.06
  11   3  -5    0.01    0.04
  11   3  -4    0.03    0.05
  11   3  -4    0.04    0.04
  11   3  -3    0.17    0.07
  11   3  -2    0.12    0.06
  11   3  -1    0.39    0.09
 -11   3   1    0.39    0.09
 -11   3   0    0.24    0.08
 -11   3  -1    0.30    0.08
 -11   3  -2    0.18    0.08
  11   4  -5    0.81    0.13
  11   4  -4    0.00    0.06
  11   4  -4    0.18    0.08
  11   4  -3    0.07    0.05
  11   4  -3    0.07    0.06
  11   4  -2   -0.08    0.05
  12   0  -7   -0.12    0.06
  12   0  -6    0.04    0.04
  12   0  -2   -0.02    0.04
  12   0  -1    0.04    0.04
  12   0   0    0.42    0.09
  12  -1  -7   -0.07    0.06
  12   1  -6    0.03    0.05
  12   1  -2    0.28    0.08
  12   1  -1    0.18    0.07
   0   0   0    0.00    0.00
;
_shelx_hkl_checksum              17465
loop_
_space_group_symop_operation_xyz
'x, y, z'
'-x+1/2, y+1/2, -z+1/2'
'-x, -y, -z'
'x-1/2, -y-1/2, z-1/2'
loop_
_atom_site_label
_atom_site_type_symbol
_atom_site_fract_x
_atom_site_fract_y
_atom_site_fract_z
_atom_site_U_iso_or_equiv
_atom_site_adp_type
_atom_site_occupancy
_atom_site_site_symmetry_order
_atom_site_calc_flag
_atom_site_refinement_flags_adp
N1 N 0.26531(18) 0.6184(2) 0.01200(11) 0.0271(4) Uani 1 1 d .
N2 N 0.29296(18) 0.7845(2) -0.03244(12) 0.0296(4) Uani 1 1 d .
N3 N 0.21621(17) 0.9173(2) 0.01230(11) 0.0252(4) Uani 1 1 d .
N4 N 0.13677(17) 0.8499(2) 0.08515(11) 0.0241(3) Uani 1 1 d .
N5 N 0.12382(17) 0.3315(2) 0.14497(11) 0.0262(4) Uani 1 1 d .
N6 N 0.04814(17) 0.2518(2) 0.22068(12) 0.0278(4) Uani 1 1 d .
N7 N -0.01207(18) 0.3861(2) 0.27568(11) 0.0277(4) Uani 1 1 d .
N8 N -0.01584(18) 0.7304(2) 0.27216(11) 0.0274(4) Uani 1 1 d .
N9 N -0.0494(2) 0.8701(3) 0.30286(13) 0.0385(4) Uani 1 1 d .
C1 C 0.16984(19) 0.6625(3) 0.08332(13) 0.0206(4) Uani 1 1 d .
C2 C 0.11012(19) 0.5230(3) 0.15152(12) 0.0227(4) Uani 1 1 d .
C3 C 0.0256(2) 0.5564(3) 0.23372(13) 0.0242(4) Uani 1 1 d .
O1 O 0.72040(18) 0.7546(2) 0.07879(12) 0.0328(4) Uani 1 1 d .
H1 H 0.221(2) 1.058(3) -0.0095(17) 0.039 Uiso 1 1 d U
H2 H 0.693(3) 0.659(4) 0.046(2) 0.049 Uiso 1 1 d U
H3 H 0.644(3) 0.787(3) 0.1103(19) 0.049 Uiso 1 1 d U
loop_
_atom_site_aniso_label
_atom_site_aniso_U_11
_atom_site_aniso_U_22
_atom_site_aniso_U_33
_atom_site_aniso_U_23
_atom_site_aniso_U_13
_atom_site_aniso_U_12
N1 0.0353(8) 0.0215(8) 0.0271(8) -0.0020(6) 0.0123(6) 0.0017(7)
N2 0.0366(8) 0.0269(9) 0.0281(8) 0.0013(7) 0.0129(7) 0.0018(7)
N3 0.0306(7) 0.0204(8) 0.0264(8) 0.0026(6) 0.0099(6) -0.0004(7)
N4 0.0289(7) 0.0194(8) 0.0255(7) 0.0023(6) 0.0093(6) 0.0009(6)
N5 0.0313(7) 0.0205(8) 0.0274(8) 0.0026(6) 0.0074(6) 0.0007(6)
N6 0.0322(8) 0.0226(8) 0.0293(8) 0.0024(6) 0.0081(6) -0.0004(6)
N7 0.0310(8) 0.0241(8) 0.0288(8) 0.0032(6) 0.0077(6) -0.0022(7)
N8 0.0328(8) 0.0260(9) 0.0263(8) 0.0008(7) 0.0125(6) -0.0021(7)
N9 0.0519(10) 0.0287(10) 0.0421(10) -0.0033(8) 0.0264(8) -0.0032(8)
C1 0.0240(8) 0.0168(9) 0.0208(8) -0.0015(7) 0.0041(6) 0.0003(7)
C2 0.0239(8) 0.0207(9) 0.0224(8) 0.0000(7) 0.0023(6) 0.0010(7)
C3 0.0270(8) 0.0194(9) 0.0265(9) 0.0006(7) 0.0063(7) 0.0001(7)
O1 0.0383(7) 0.0227(8) 0.0435(8) -0.0015(6) 0.0226(6) 0.0004(6)
loop_
_atom_type_symbol
_atom_type_description
_atom_type_scat_dispersion_real
_atom_type_scat_dispersion_imag
_atom_type_scat_source
C C 0.0033 0.0016 'International Tables Vol C Tables 4.2.6.8 and 6.1.1.4'
H H 0.0000 0.0000 'International Tables Vol C Tables 4.2.6.8 and 6.1.1.4'
N N 0.0061 0.0033 'International Tables Vol C Tables 4.2.6.8 and 6.1.1.4'
O O 0.0106 0.0060 'International Tables Vol C Tables 4.2.6.8 and 6.1.1.4'
loop_
_geom_angle_atom_site_label_1
_geom_angle_atom_site_label_2
_geom_angle_atom_site_label_3
_geom_angle
N2 N1 C1 105.49(14)
N3 N2 N1 106.34(14)
N2 N3 N4 114.26(15)
N2 N3 H1 120.1(12)
N4 N3 H1 125.7(12)
C1 N4 N3 101.42(13)
C2 N5 N6 107.39(14)
N7 N6 N5 111.54(15)
N6 N7 C3 105.08(14)
N9 N8 C3 179.9(2)
N4 C1 N1 112.49(15)
N4 C1 C2 122.88(15)
N1 C1 C2 124.63(16)
N5 C2 C3 105.91(15)
N5 C2 C1 125.41(16)
C3 C2 C1 128.67(17)
N7 C3 N8 121.91(16)
N7 C3 C2 110.07(16)
N8 C3 C2 128.02(16)
H2 O1 H3 108(2)
loop_
_geom_bond_atom_site_label_1
_geom_bond_atom_site_label_2
_geom_bond_distance
N1 N2 1.318(2)
N1 C1 1.351(2)
N2 N3 1.307(2)
N3 N4 1.3227(19)
N3 H1 1.01(2)
N4 C1 1.322(2)
N5 C2 1.331(3)
N5 N6 1.365(2)
N6 N7 1.317(2)
N7 C3 1.353(2)
N8 N9 1.096(2)
N8 C3 1.365(2)
C1 C2 1.447(2)
C2 C3 1.388(2)
O1 H2 0.79(3)
O1 H3 0.84(2)
loop_
_geom_torsion_atom_site_label_1
_geom_torsion_atom_site_label_2
_geom_torsion_atom_site_label_3
_geom_torsion_atom_site_label_4
_geom_torsion
C1 N1 N2 N3 0.11(17)
N1 N2 N3 N4 -0.18(19)
N2 N3 N4 C1 0.17(18)
C2 N5 N6 N7 -0.48(18)
N5 N6 N7 C3 0.22(17)
N3 N4 C1 N1 -0.10(17)
N3 N4 C1 C2 179.44(14)
N2 N1 C1 N4 -0.01(18)
N2 N1 C1 C2 -179.53(15)
N6 N5 C2 C3 0.51(18)
N6 N5 C2 C1 -178.22(14)
N4 C1 C2 N5 172.23(16)
N1 C1 C2 N5 -8.3(3)
N4 C1 C2 C3 -6.2(3)
N1 C1 C2 C3 173.27(16)
N6 N7 C3 N8 -179.08(15)
N6 N7 C3 C2 0.11(18)
N5 C2 C3 N7 -0.40(19)
C1 C2 C3 N7 178.28(15)
N5 C2 C3 N8 178.73(16)
C1 C2 C3 N8 -2.6(3)
