#------------------------------------------------------------------------------
#$Date: 2019-11-23 21:29:58 +0200 (Sat, 23 Nov 2019) $
#$Revision: 235101 $
#$URL: file:///home/coder/svn-repositories/cod/cif/4/03/67/4036703.cif $
#------------------------------------------------------------------------------
#
# This file is available in the Crystallography Open Database (COD),
# http://www.crystallography.net/
#
# All data on this site have been placed in the public domain by the
# contributors.
#
data_4036703
loop_
_publ_author_name
'Marshall, Jonathan L.'
'O'Neal, Nathaniel J'
'Zakharov, Lev N.'
'Haley, Michael M.'
_publ_section_title
;
 Synthesis and Characterization of Two Unsymmetrical Indenofluorene
 Analogues: Benzo[5,6]-s-indaceno[1,2-b]thiophene and
 Benzo[5,6]-s-indaceno[2,1-b]thiophene.
;
_journal_issue                   9
_journal_name_full               'The Journal of organic chemistry'
_journal_page_first              3674
_journal_page_last               3680
_journal_paper_doi               10.1021/acs.joc.6b00340
_journal_volume                  81
_journal_year                    2016
_chemical_formula_sum            'C18 H8 O2 S'
_chemical_formula_weight         288.30
_space_group_crystal_system      monoclinic
_space_group_IT_number           14
_space_group_name_Hall           '-P 2ybc'
_space_group_name_H-M_alt        'P 1 21/c 1'
_atom_sites_solution_hydrogens   geom
_audit_creation_method           SHELXL-2013
_cell_angle_alpha                90
_cell_angle_beta                 101.161(6)
_cell_angle_gamma                90
_cell_formula_units_Z            2
_cell_length_a                   10.6449(9)
_cell_length_b                   3.7919(3)
_cell_length_c                   15.6497(14)
_cell_measurement_reflns_used    1572
_cell_measurement_temperature    173(2)
_cell_measurement_theta_max      66.44
_cell_measurement_theta_min      4.23
_cell_volume                     619.74(9)
_computing_cell_refinement       'Bruker SAINT'
_computing_data_collection       'Bruker APEX2'
_computing_data_reduction        'Bruker SAINT'
_computing_molecular_graphics    'Bruker SHELXTL'
_computing_publication_material  'Bruker SHELXTL'
_computing_structure_refinement  'SHELXL-2013 (Sheldrick 2013)'
_computing_structure_solution    'SHELXS-97 (Sheldrick 2008)'
_diffrn_ambient_temperature      173(2)
_diffrn_measured_fraction_theta_full 0.963
_diffrn_measured_fraction_theta_max 0.985
_diffrn_measurement_device_type  'Bruker APEX-II CCD'
_diffrn_measurement_method       '\f and \w scans'
_diffrn_radiation_type           CuK\a
_diffrn_radiation_wavelength     1.54178
_diffrn_reflns_av_R_equivalents  0.0649
_diffrn_reflns_av_unetI/netI     0.0415
_diffrn_reflns_Laue_measured_fraction_full 0.963
_diffrn_reflns_Laue_measured_fraction_max 0.985
_diffrn_reflns_limit_h_max       12
_diffrn_reflns_limit_h_min       -12
_diffrn_reflns_limit_k_max       4
_diffrn_reflns_limit_k_min       -4
_diffrn_reflns_limit_l_max       18
_diffrn_reflns_limit_l_min       -18
_diffrn_reflns_number            6103
_diffrn_reflns_point_group_measured_fraction_full 0.963
_diffrn_reflns_point_group_measured_fraction_max 0.985
_diffrn_reflns_theta_full        67.679
_diffrn_reflns_theta_max         66.577
_diffrn_reflns_theta_min         4.233
_diffrn_source                   'Incoatec I\mS'
_exptl_absorpt_coefficient_mu    2.324
_exptl_absorpt_correction_T_max  1.0000
_exptl_absorpt_correction_T_min  0.8015
_exptl_absorpt_correction_type   multi-scan
_exptl_absorpt_process_details   SADABS
_exptl_crystal_colour            green
_exptl_crystal_density_diffrn    1.545
_exptl_crystal_description       needle
_exptl_crystal_F_000             296
_exptl_crystal_size_max          0.190
_exptl_crystal_size_mid          0.020
_exptl_crystal_size_min          0.010
_refine_diff_density_max         0.191
_refine_diff_density_min         -0.192
_refine_diff_density_rms         0.049
_refine_ls_extinction_method     none
_refine_ls_goodness_of_fit_ref   1.037
_refine_ls_hydrogen_treatment    constr
_refine_ls_matrix_type           full
_refine_ls_number_parameters     109
_refine_ls_number_reflns         1088
_refine_ls_number_restraints     0
_refine_ls_restrained_S_all      1.037
_refine_ls_R_factor_all          0.0633
_refine_ls_R_factor_gt           0.0504
_refine_ls_shift/su_max          0.000
_refine_ls_shift/su_mean         0.000
_refine_ls_structure_factor_coef Fsqd
_refine_ls_weighting_details
'w=1/[\s^2^(Fo^2^)+(0.0635P)^2^+0.3095P] where P=(Fo^2^+2Fc^2^)/3'
_refine_ls_weighting_scheme      calc
_refine_ls_wR_factor_gt          0.1175
_refine_ls_wR_factor_ref         0.1242
_reflns_Friedel_coverage         0.000
_reflns_number_gt                853
_reflns_number_total             1088
_reflns_threshold_expression     'I > 2\s(I)'
_cod_data_source_file            jo6b00340_si_004.cif
_cod_data_source_block           cu_mh145_0m
_cod_original_sg_symbol_H-M      'P 21/c'
_cod_database_code               4036703
_shelx_space_group_comment
;
The symmetry employed for this shelxl refinement is uniquely defined
by the following loop, which should always be used as a source of
symmetry information in preference to the above space-group names.
They are only intended as comments.
;
_shelx_estimated_absorpt_t_min   0.666
_shelx_estimated_absorpt_t_max   0.977
_shelxl_version_number           2013-4
_shelx_res_file
;
TITL cu_mh145_0m in P2(1)/c
CELL 1.54178 10.6449 3.7919 15.6497 90.000 101.161 90.000
ZERR 2.00 0.0009 0.0003 0.0014 0.000 0.006 0.000
LATT 1
SYMM -x, y+1/2, -z+1/2
SFAC C H O S
UNIT 36 16 4 2
TEMP -100.000
SIZE 0.010 0.020 0.190
ACTA
omit -3
L.S. 10
FMAP 2
PLAN 20
EQIV $1 -x+2, -y-1, -z+1
HTAB C7A O1_$1
HTAB
exyz c4 c4a
eadp c4 c4a
exyz c5 c5a
eadp c5 c5a
exyz c7 c7a
eadp c7 c7a
exyz c8 c8a
eadp c8 c8a
BOND $H
CONF
WGHT    0.063500    0.309500
FVAR       0.31808
PART   1
S1    4    0.702264    0.152814    0.284976    10.50000    0.03121    0.02849 =
         0.02663   -0.00036    0.00445   -0.00342
C4A   1    0.676526    0.034478    0.386357    10.50000    0.04080    0.02249 =
         0.03246   -0.00318   -0.00104   -0.00349
C5A   1    0.787040   -0.115325    0.434015    10.50000    0.03606    0.02796 =
         0.03693   -0.00493   -0.00073   -0.00066
C7A   1    0.892749   -0.138397    0.392980    10.50000    0.03151    0.03361 =
         0.06778   -0.01062   -0.00091   -0.00254
AFIX  43
H7AA  2    0.972535   -0.236860    0.420245    10.50000   -1.20000
AFIX   0
C8A   1    0.870644   -0.007144    0.310715    10.50000    0.07192    0.03806 =
         0.06151   -0.01163    0.03495   -0.01138
AFIX  43
H8AA  2    0.930543    0.001514    0.272964    10.50000   -1.20000
AFIX   0
PART   2
C4    1    0.676526    0.034478    0.386357    10.50000    0.04080    0.02249 =
         0.03246   -0.00318   -0.00104   -0.00349
C5    1    0.787040   -0.115325    0.434015    10.50000    0.03606    0.02796 =
         0.03693   -0.00493   -0.00073   -0.00066
C7    1    0.892749   -0.138397    0.392980    10.50000    0.03151    0.03361 =
         0.06778   -0.01062   -0.00091   -0.00254
AFIX  43
H7A   2    0.972535   -0.236860    0.420245    10.50000   -1.20000
AFIX   0
C8    1    0.870644   -0.007144    0.310715    10.50000    0.07192    0.03806 =
         0.06151   -0.01163    0.03495   -0.01138
AFIX  43
H8A   2    0.939359   -0.031950    0.280442    10.50000   -1.20000
AFIX   0
C9    1    0.776027    0.136927    0.270366    10.50000    0.05802    0.03457 =
         0.04335   -0.00990    0.01088   -0.00360
AFIX  43
H9A   2    0.778551    0.235022    0.214866    10.50000   -1.20000
AFIX   0
C10   1    0.665997    0.162425    0.302279    10.50000    0.02331    0.02989 =
         0.04908   -0.00588    0.00943   -0.00025
AFIX  43
H10A  2    0.589026    0.259142    0.269842    10.50000   -1.20000
AFIX   0
PART   0
O1    3    0.830127   -0.377519    0.578890    11.00000    0.03762    0.04701 =
         0.04429    0.00550   -0.00652    0.00804
C1    1    0.552050   -0.156003    0.582230    11.00000    0.04058    0.02352 =
         0.02804   -0.00063   -0.00568    0.00376
AFIX  43
H1A   2    0.587157   -0.260302    0.636827    11.00000   -1.20000
AFIX   0
C2    1    0.623918   -0.115901    0.518331    11.00000    0.03398    0.02340 =
         0.03448   -0.00347   -0.00486    0.00098
C3    1    0.574031    0.037251    0.436653    11.00000    0.03494    0.02196 =
         0.03236   -0.00283   -0.00369   -0.00035
C6    1    0.760230   -0.225025    0.519487    11.00000    0.03597    0.02468 =
         0.03766   -0.00214   -0.00336    0.00067

HKLF 4 1 1 0 0 0 1 0 0 0 1

REM  cu_mh145_0m in P2(1)/c
REM R1 =  0.0504 for     853 Fo > 4sig(Fo)  and  0.0633 for all    1088 data
REM    109 parameters refined using      0 restraints

END

WGHT      0.0628      0.1376

REM Instructions for potential hydrogen bonds
HTAB C7A O1_$1

REM Highest difference peak  0.191,  deepest hole -0.192,  1-sigma level  0.049
Q1    1   0.9256 -0.2847  0.4594  11.00000  0.05    0.19
Q2    1   0.6823 -0.3089  0.3356  11.00000  0.05    0.17
Q3    1   0.6828 -0.2976  0.2807  11.00000  0.05    0.16
Q4    1   0.9932  0.0044  0.1803  11.00000  0.05    0.16
Q5    1   0.8765 -0.5838  0.4435  11.00000  0.05    0.16
Q6    1   0.7715  0.5987  0.2010  11.00000  0.05    0.15
Q7    1   0.7375 -0.4103  0.3637  11.00000  0.05    0.15
Q8    1   0.7963  0.6156  0.2627  11.00000  0.05    0.14
Q9    1   0.6030  0.6265  0.2463  11.00000  0.05    0.14
Q10   1   0.8175 -0.2061  0.1998  11.00000  0.05    0.14
Q11   1   0.7177 -0.4527  0.4266  11.00000  0.05    0.14
Q12   1   0.7867  0.0990  0.1793  11.00000  0.05    0.14
Q13   1   0.6586  0.4360  0.4583  11.00000  0.05    0.13
Q14   1   0.9813  0.2266  0.2343  11.00000  0.05    0.13
Q15   1   0.9085 -0.3977  0.2633  11.00000  0.05    0.13
Q16   1   0.7188 -0.5778  0.5590  11.00000  0.05    0.13
Q17   1   0.6953 -0.5705  0.4811  11.00000  0.05    0.13
Q18   1   0.8909  0.3340  0.1612  11.00000  0.05    0.12
Q19   1   0.5712 -0.2425  0.5438  11.00000  0.05    0.12
Q20   1   0.7449  0.4400  0.2975  11.00000  0.05    0.12
;
_shelx_res_checksum              71255
_shelx_hkl_file
;
  -1   0   0   54.64    2.68
  -1   0   0   59.03    2.63
  -1   0   0   53.30    2.76
  -1   0   0   46.92    2.76
  -1   0   0   56.14    2.68
   1   0   0   54.80    2.69
   1   0   0   60.83    2.77
   1   0   0   55.37    2.63
  -2   0   0  481.85   21.24
  -2   0   0  474.92   20.88
  -2   0   0  451.75   21.88
  -2   0   0  426.85   21.89
   2   0   0  433.01   21.89
   2   0   0  426.61   21.25
  -3   0   0   24.10    1.36
  -3   0   0   23.48    1.40
  -3   0   0   25.38    1.30
  -3   0   0   21.23    1.30
   3   0   0   24.87    1.44
   3   0   0   24.23    1.39
  -4   0   0   42.24    2.38
  -4   0   0   44.41    2.27
  -4   0   0   47.01    2.31
   4   0   0   43.78    2.43
  -5   0   0    0.27    0.46
  -5   0   0    0.42    0.38
  -5   0   0    0.40    0.36
  -6   0   0    0.90    0.57
  -6   0   0    0.81    0.46
  -6   0   0    1.49    0.45
  -7   0   0   15.13    1.37
  -7   0   0   12.97    1.08
  -7   0   0   15.30    1.28
  -8   0   0   15.43    1.20
   8   0   0   14.02    1.45
   8   0   0   15.47    1.16
   8   0   0   16.27    1.13
   8   0   0   14.74    1.12
  -9   0   0   13.76    1.29
   9   0   0   14.86    1.14
   9   0   0   15.57    1.23
   9   0   0   15.95    1.57
 -10   0   0    4.67    0.76
  10   0   0    3.50    0.63
  10   0   0    3.35    0.85
  10   0   0    4.31    0.68
 -11   0   0    1.18    0.62
  11   0   0    0.73    0.60
  11   0   0    0.55    0.63
 -12   0   0    1.77    0.57
  12   0   0    0.63    0.47
  12  -1   0    1.09    0.52
  11  -1   0    0.63    0.67
  11  -1   0    1.68    0.88
  11  -1   0    1.61    0.62
   9  -1   0   12.75    1.52
   9  -1   0   11.88    1.11
   9  -1   0   11.11    1.70
   9  -1   0   11.45    1.09
   8  -1   0    6.38    0.76
   8  -1   0    8.79    1.13
   8  -1   0    6.73    1.33
   8  -1   0    6.22    0.68
   8  -1   0    8.86    1.23
   7  -1   0    9.81    1.42
   7  -1   0   13.61    1.37
   7  -1   0   11.69    0.93
   7  -1   0   10.86    1.01
   7  -1   0   11.88    1.41
  -6   1   0   18.35    1.33
  -6   1   0   19.65    1.42
  -5   1   0    3.38    0.56
  -5   1   0    3.72    0.61
   4  -1   0  163.92    7.78
  -4   1   0  161.16    7.91
  -4   1   0  150.66    7.65
   3  -1   0   40.93    2.27
  -3   1   0   42.81    2.25
  -3   1   0   41.77    2.06
  -3   1   0   43.52    2.19
  -3   1   0   45.21    2.28
   2  -1   0  107.17    5.43
   2  -1   0  109.83    5.61
  -2   1   0  116.76    5.63
  -2   1   0  124.92    5.31
  -2   1   0   99.32    5.45
  -2   1   0  116.22    5.63
  -2   1   0  119.03    5.46
   1  -1   0   68.48    3.49
   1  -1   0   78.82    3.65
  -1   1   0   72.38    3.61
  -1   1   0   73.00    3.52
  -1   1   0   68.30    3.63
   0  -1   0    0.10    0.40
   0  -1   0   -0.26    0.31
   0  -1   0    0.35    0.26
   0  -1   0   -0.07    0.28
   0   1   0    0.08    0.34
   0   1   0    0.15    0.28
   0   1   0    0.64    0.41
  -1  -1   0   72.97    3.42
  -1  -1   0   66.78    3.55
  -1  -1   0   69.16    3.62
  -1  -1   0   73.84    3.52
   1   1   0   73.36    3.54
   1   1   0   69.28    3.64
  -2  -1   0  114.64    5.62
  -2  -1   0  108.34    5.78
  -2  -1   0  110.36    5.61
  -2  -1   0  117.49    5.48
   2   1   0  112.49    5.62
   2   1   0  125.34    5.80
  -3  -1   0   41.09    2.18
  -3  -1   0   45.79    2.43
  -3  -1   0   44.83    2.24
  -3  -1   0   43.44    2.35
   3   1   0   39.36    2.42
   3   1   0   44.92    2.41
  -4  -1   0  161.35    7.30
  -4  -1   0  144.66    7.44
  -4  -1   0  155.93    7.68
   4   1   0  144.05    7.50
  -5  -1   0    4.86    0.68
  -5  -1   0    3.34    0.67
  -5  -1   0    3.93    0.70
   5   1   0    3.90    0.89
  -6  -1   0   20.16    1.56
  -6  -1   0   18.73    1.36
  -7  -1   0   12.73    1.17
   7   1   0   13.24    1.11
   7   1   0   12.49    0.94
  -8  -1   0    7.13    0.82
   8   1   0    7.63    0.80
   8   1   0    4.54    0.61
  -9  -1   0   11.15    1.08
   9   1   0   13.03    1.19
   9   1   0   13.28    1.06
   9   1   0   12.46    1.12
 -10  -1   0    0.84    0.70
  10   1   0    0.99    0.57
  10   1   0    0.80    0.62
 -11  -1   0    1.10    0.76
  11   1   0    1.14    0.51
  11   1   0    1.25    0.56
  11   1   0    0.02    0.81
 -12  -1   0    1.62    0.57
  11  -2   0   -0.74    0.80
  11  -2   0   -0.26    0.54
   9  -2   0    0.60    0.95
   9  -2   0    0.06    0.84
   9  -2   0    1.00    0.59
   8  -2   0    1.15    0.61
   8  -2   0    0.50    0.96
   8  -2   0    0.97    0.81
   8  -2   0    0.51    1.11
   7  -2   0    1.93    0.82
   7  -2   0    2.31    0.99
   7  -2   0    2.41    0.61
   7  -2   0    1.09    0.99
   6  -2   0    1.16    0.81
   6  -2   0    2.88    0.58
   6  -2   0    1.51    0.80
   5  -2   0   -0.29    0.44
   5  -2   0    0.11    0.66
   5  -2   0    0.42    0.67
   5  -2   0   -0.09    0.61
   4  -2   0   29.43    1.87
  -4   2   0   26.30    1.73
   3  -2   0    0.54    0.54
  -3   2   0    0.51    0.52
  -3   2   0    0.44    0.43
   2  -2   0    7.52    0.87
  -2   2   0    9.76    0.90
  -2   2   0    7.03    0.74
   1  -2   0   -0.37    0.47
  -1   2   0   -0.24    0.54
  -1   2   0    0.03    0.50
   0  -2   0    2.47    0.60
   0   2   0    2.59    0.61
   0   2   0    2.13    0.67
  -1  -2   0   -0.57    0.38
  -1  -2   0    0.23    0.49
   1   2   0   -0.22    0.61
   1   2   0    0.25    0.55
  -2  -2   0    9.54    0.90
  -2  -2   0    7.49    0.82
   2   2   0    7.61    0.96
   2   2   0    8.13    0.97
  -3  -2   0    0.74    0.46
  -3  -2   0    0.26    0.50
   3   2   0    0.58    0.72
  -4  -2   0   31.41    2.05
  -4  -2   0   27.02    1.80
   4   2   0   32.15    2.17
  -5  -2   0    0.87    0.68
  -5  -2   0    0.55    0.56
  -5  -2   0    0.21    0.58
   5   2   0   -0.04    0.51
   5   2   0    1.25    0.90
   5   2   0    0.85    0.45
   5   2   0    0.44    0.32
  -6  -2   0    2.26    0.66
  -6  -2   0    1.57    0.69
   6   2   0    2.30    0.55
   6   2   0    1.62    0.52
   6   2   0    1.07    0.41
  -7  -2   0    2.05    0.76
  -7  -2   0    2.38    0.72
   7   2   0    1.36    0.59
   7   2   0    1.86    0.52
   7   2   0    2.11    0.54
  -8  -2   0    1.33    0.76
   8   2   0    0.83    0.63
   8   2   0    0.92    0.56
  -9  -2   0    0.83    0.76
   9   2   0    0.02    0.53
   9   2   0   -0.48    0.64
 -10  -2   0    0.08    0.69
  10   2   0    0.10    0.52
  10   2   0    0.30    0.57
 -11  -2   0    0.65    0.55
  11   2   0   -0.08    0.56
  11   2   0    0.09    0.48
  11   2   0    0.09    0.40
   9  -3   0   -0.18    0.84
   8  -3   0   -0.04    0.97
   8  -3   0   -0.70    1.03
   7  -3   0    0.24    0.98
   7  -3   0    0.91    1.03
   6  -3   0    4.52    1.17
   6  -3   0    5.22    1.13
   6  -3   0    5.82    1.13
   5  -3   0    6.45    1.10
   5  -3   0    6.82    1.16
   5  -3   0    6.68    1.27
   4  -3   0    4.72    1.18
   4  -3   0    5.84    1.10
   4  -3   0    5.26    1.04
   3  -3   0    4.60    1.06
   3  -3   0    7.14    1.24
   3  -3   0    6.48    1.07
   2  -3   0   11.35    1.43
   2  -3   0   10.59    1.24
   2  -3   0    8.70    1.22
   1  -3   0   -0.21    0.74
   1  -3   0    0.19    0.94
   1  -3   0   -0.55    0.78
   0  -3   0    0.73    0.50
   0  -3   0    0.15    0.73
   0  -3   0    1.03    0.79
   0   3   0   -0.17    0.38
  -1  -3   0    0.55    0.53
  -1  -3   0   -0.38    0.69
   1   3   0   -0.30    0.39
  -2  -3   0    6.99    0.81
   2   3   0   10.55    0.90
  -3  -3   0    5.92    0.79
   3   3   0    3.52    0.56
  -4  -3   0    3.38    0.75
   4   3   0    5.29    0.63
  -5  -3   0    5.28    0.84
   5   3   0    6.62    0.64
  -6  -3   0    5.76    0.89
   6   3   0    5.16    0.67
   6   3   0    4.26    0.62
  -7  -3   0   -0.05    0.62
   7   3   0    0.03    0.49
   7   3   0    0.06    0.49
   7   3   0    0.66    0.51
  -8  -3   0    0.02    0.55
   8   3   0    0.41    0.37
   8   3   0    0.34    0.54
  -9  -3   0    0.18    0.42
   9   3   0    0.21    0.45
   9   3   0    0.05    0.37
   5  -4   0    0.04    0.71
   5  -4   0   -0.15    0.79
   4  -4   0   -0.21    0.87
   4  -4   0    4.23    1.01
   4  -4   0    0.41    0.79
   3  -4   0   -0.35    0.86
   2  -4   0    7.05    1.15
   2  -4   0    2.96    0.93
   1  -4   0    0.84    1.00
   0  -4   0   14.43    1.81
   0   4   0   16.20    1.08
   1   4   0    0.92    0.48
  -2  -4   0    3.65    0.60
   2   4   0    4.63    0.62
  -3  -4   0    0.44    0.58
   3   4   0    0.86    0.52
  -4  -4   0    0.44    0.59
   4   4   0   -0.02    0.51
  -5  -4   0    0.01    0.54
   5   4   0   -0.72    0.44
   5   4  -1   -0.11    0.46
  -5  -4   1    0.67    0.56
   4   4  -1   -0.06    0.48
  -4  -4   1    0.53    0.60
   3   4  -1    3.64    0.60
  -3  -4   1    2.33    0.65
   2   4  -1    4.85    0.63
  -2  -4   1    5.08    0.67
   1   4  -1    0.63    0.47
   0   4  -1    2.57    0.50
   0  -4   1   -0.32    0.99
  -1   4  -1    3.52    0.52
   1  -4   1    2.32    1.08
   2  -4   1    2.38    1.02
   3  -4   1    3.90    1.02
   3  -4   1    0.01    0.86
   4  -4   1    6.30    1.06
   4  -4   1    5.49    1.00
   5  -4   1    6.36    0.92
   5  -4   1    6.24    1.01
   9   3  -1    0.14    0.41
   9   3  -1    0.85    0.47
  -9  -3   1    0.03    0.40
   8   3  -1    3.65    0.63
   8   3  -1    5.31    0.70
  -8  -3   1    4.26    0.74
   7   3  -1    0.40    0.53
   7   3  -1    1.38    0.51
   7   3  -1    0.02    0.40
  -7  -3   1   -0.37    0.60
   6   3  -1    7.85    0.74
   6   3  -1    4.25    0.67
   6   3  -1    6.42    0.68
  -6  -3   1    9.99    1.01
   5   3  -1    0.23    0.53
  -5  -3   1    0.72    0.70
   4   3  -1   21.19    1.40
  -4  -3   1   22.25    1.59
   3   3  -1   12.89    1.05
  -3  -3   1   13.05    1.20
   2   3  -1    0.77    0.44
  -2  -3   1    0.69    0.59
   1   3  -1    5.04    0.59
  -1  -3   1    8.16    0.79
  -1  -3   1    7.38    0.97
   0   3  -1    4.26    0.53
   0  -3   1    5.61    0.67
   0  -3   1    5.62    0.91
  -1   3  -1   16.36    1.10
   1  -3   1   14.67    1.63
   1  -3   1   17.85    1.18
   1  -3   1   15.73    1.95
   1  -3   1   16.51    1.59
   2  -3   1   -0.01    0.99
   2  -3   1   -0.03    0.80
   2  -3   1    0.20    0.77
   3  -3   1   14.84    1.94
   3  -3   1   15.86    1.67
   3  -3   1   16.81    1.72
   4  -3   1    2.79    1.07
   4  -3   1    2.13    0.93
   4  -3   1    2.66    0.94
   5  -3   1    0.95    1.03
   5  -3   1    0.95    0.94
   5  -3   1    0.32    0.92
   6  -3   1    0.96    1.00
   6  -3   1    1.49    1.03
   6  -3   1    5.11    1.17
   7  -3   1    7.38    1.27
   7  -3   1    6.90    1.24
   8  -3   1    1.64    1.15
   8  -3   1    0.29    0.94
   9  -3   1    8.60    1.32
  11   2  -1    2.92    0.55
  11   2  -1    1.52    0.44
  11   2  -1    1.55    0.59
 -11  -2   1    1.41    0.59
  10   2  -1    1.60    0.61
  10   2  -1    2.45    0.62
 -10  -2   1    0.44    0.72
   9   2  -1    3.73    0.79
   9   2  -1    4.14    0.70
  -9  -2   1    2.62    0.80
   8   2  -1   46.28    2.79
   8   2  -1   49.92    2.56
  -8  -2   1   46.94    2.71
   7   2  -1    3.26    0.56
   7   2  -1    5.16    0.80
  -7  -2   1    4.36    0.81
  -7  -2   1    3.18    0.75
   6   2  -1    8.55    0.73
   6   2  -1    5.88    0.77
  -6  -2   1    8.67    0.90
  -6  -2   1    8.88    0.91
   5   2  -1    0.52    0.33
   5   2  -1    0.70    0.54
   5   2  -1   -0.12    0.43
   5   2  -1    0.60    0.92
  -5  -2   1   -1.03    0.64
  -5  -2   1    0.80    0.58
  -5  -2   1    0.57    0.45
  -5  -2   1    0.59    0.51
   4   2  -1    5.66    1.00
  -4  -2   1    5.79    0.77
  -4  -2   1    6.02    0.97
   3   2  -1  106.21    5.37
  -3  -2   1  106.01    5.11
  -3  -2   1  100.26    5.25
  -3  -2   1  100.52    5.33
   2   2  -1   20.82    1.59
   2   2  -1   23.30    1.64
  -2  -2   1   21.96    1.34
  -2  -2   1   22.98    1.50
  -2  -2   1   18.86    1.52
   1   2  -1   28.67    1.96
   1   2  -1   31.32    1.92
  -1  -2   1   30.54    1.88
   0   2  -1   33.84    1.98
   0   2  -1   32.65    2.04
   0  -2   1   31.54    1.99
  -1   2  -1   82.24    4.31
  -1   2  -1   80.09    4.15
   1  -2   1   82.17    4.30
  -2   2  -1    4.57    0.68
  -2   2  -1    6.29    0.80
   2  -2   1    6.31    0.86
  -3   2  -1   19.32    1.38
  -3   2  -1   18.85    1.31
   3  -2   1   17.78    1.44
  -4   2  -1   18.44    1.29
  -4   2  -1   18.50    1.41
   4  -2   1   18.07    1.45
   5  -2   1   35.85    2.47
   5  -2   1   29.96    2.43
   5  -2   1   33.59    2.80
   5  -2   1   35.58    1.87
   6  -2   1    2.04    0.87
   6  -2   1    1.71    0.83
   6  -2   1    1.47    0.57
   7  -2   1   42.65    2.40
   7  -2   1   42.32    3.08
   7  -2   1   43.74    3.63
   7  -2   1   45.64    3.26
   8  -2   1    1.23    0.82
   8  -2   1    1.32    1.15
   8  -2   1    0.58    0.95
   8  -2   1    1.26    0.62
  12   1  -1    2.49    0.68
 -12  -1   1    2.62    0.61
  11   1  -1   -0.61    0.48
  11   1  -1    0.13    0.56
  11   1  -1   -0.39    0.82
 -11  -1   1   -0.06    0.72
  10   1  -1    9.29    0.89
  10   1  -1    8.20    0.82
  10   1  -1    5.13    0.69
 -10  -1   1    8.16    0.91
   9   1  -1    2.46    0.63
   9   1  -1    3.03    0.67
   9   1  -1    2.79    0.60
  -9  -1   1    3.32    0.75
   8   1  -1    1.07    0.51
   8   1  -1    1.67    0.48
   8   1  -1    0.07    0.54
  -8  -1   1   -0.13    0.62
   7   1  -1    3.70    0.52
   7   1  -1    3.09    0.56
  -7  -1   1    2.83    0.64
  -6  -1   1   66.28    3.55
  -6  -1   1   62.47    3.39
   5   1  -1   18.91    1.61
  -5  -1   1   18.28    1.41
  -5  -1   1   17.91    1.28
  -5  -1   1   20.24    1.44
   4   1  -1    0.17    0.63
  -4  -1   1   -0.22    0.50
  -4  -1   1    0.51    0.41
  -4  -1   1    0.10    0.48
   3   1  -1   15.70    1.29
   3   1  -1   18.69    1.28
  -3  -1   1   16.97    1.03
  -3  -1   1   17.73    1.12
  -3  -1   1   19.03    1.28
  -3  -1   1   18.38    1.26
   2   1  -1   21.87    1.31
   2   1  -1   17.88    1.30
  -2  -1   1   19.62    1.15
  -2  -1   1   19.00    1.26
  -2  -1   1   18.00    1.14
  -2  -1   1   20.85    1.23
   1   1  -1   93.16    4.40
   1   1  -1   95.44    4.54
  -1  -1   1   93.80    4.26
  -1  -1   1   86.27    4.38
  -1  -1   1   87.82    4.42
  -1  -1   1   80.05    4.50
   0   1  -1  473.19   21.07
   0   1  -1  402.92   21.70
   0   1  -1  447.66   21.70
   0  -1   1  459.18   21.70
   0  -1   1  432.97   21.37
   0  -1   1  464.68   20.64
   0  -1   1  430.97   21.05
  -1   1  -1  682.84   35.62
  -1   1  -1  818.36   36.74
   1  -1   1  746.40   35.62
   1  -1   1  769.41   36.17
  -2   1  -1   10.68    0.78
  -2   1  -1    9.57    0.75
  -2   1  -1   10.67    0.81
   2  -1   1   11.96    0.89
   2  -1   1    8.63    0.69
  -3   1  -1   27.52    1.51
  -3   1  -1   22.80    1.43
   3  -1   1   24.83    1.48
  -4   1  -1   35.73    2.03
  -4   1  -1   38.58    2.10
   4  -1   1   34.92    1.97
  -5   1  -1   10.12    1.00
  -5   1  -1    9.14    0.91
  -6   1  -1    0.15    0.57
  -6   1  -1    0.15    0.52
  -7   1  -1    2.33    0.68
   7  -1   1    3.04    0.95
   7  -1   1    2.60    0.81
   7  -1   1    3.18    0.55
   7  -1   1    2.83    0.50
   7  -1   1    3.79    0.86
   8  -1   1    0.33    0.73
   8  -1   1    0.85    0.55
   8  -1   1    0.75    0.83
   8  -1   1    0.65    0.47
   8  -1   1    1.33    1.24
   9  -1   1   39.04    2.13
   9  -1   1   38.65    2.05
   9  -1   1   35.68    2.75
   9  -1   1   34.73    3.14
  10  -1   1   -0.42    0.69
  10  -1   1    1.57    0.85
  10  -1   1    0.29    0.54
  11  -1   1    4.63    0.68
  11  -1   1    4.74    0.85
  12   0  -1   -0.10    0.47
 -12   0   1   -0.61    0.54
  11   0  -1    0.08    0.61
  11   0  -1    0.44    0.58
 -11   0   1    0.22    0.58
  10   0  -1   -0.10    0.55
  10   0  -1    0.14    0.73
  10   0  -1   -1.31    1.04
 -10   0   1    0.65    0.61
   9   0  -1    0.03    0.83
   9   0  -1   -1.12    0.78
   9   0  -1   -0.25    0.71
   9   0  -1    0.24    0.51
   9   0  -1    0.81    0.52
  -9   0   1    0.23    0.59
   8   0  -1    0.50    0.70
   8   0  -1    0.19    0.74
   8   0  -1    0.40    0.44
   8   0  -1    0.15    0.45
  -8   0   1    0.36    0.55
  -7   0   1    0.31    0.44
  -7   0   1    0.33    0.48
  -7   0   1   -0.05    0.55
  -6   0   1   -0.27    0.39
  -6   0   1   -0.18    0.47
  -6   0   1   -0.30    0.38
  -5   0   1    0.45    0.39
  -5   0   1   -0.30    0.36
  -5   0   1    0.16    0.34
   4   0  -1   -0.52    0.46
  -4   0   1    0.04    0.36
  -4   0   1   -0.13    0.31
  -4   0   1    0.09    0.37
  -4   0   1    0.18    0.29
   3   0  -1   -0.84    0.41
  -3   0   1   -0.23    0.32
  -3   0   1    0.11    0.30
  -3   0   1   -0.41    0.32
  -3   0   1    0.10    0.31
   2   0  -1    0.19    0.28
   2   0  -1   -0.15    0.27
  -2   0   1   -0.13    0.24
  -2   0   1   -0.15    0.22
  -2   0   1   -0.27    0.24
  -2   0   1   -0.19    0.24
  -2   0   1    0.31    0.28
   1   0  -1    0.02    0.13
   1   0  -1    0.10    0.13
  -1   0   1   -0.04    0.14
  -1   0   1   -0.04    0.11
  -1   0   1    0.09    0.18
  -1   0   1    0.14    0.11
  -1   0   1   -0.15    0.13
   0   0  -1   -0.31    0.11
   0   0  -1   -0.23    0.02
   0   0  -1   -0.24    0.10
   0   0  -1   -0.19    0.10
   0   0   1   -0.22    0.10
   0   0   1   -0.25    0.11
   0   0   1   -0.15    0.11
   0   0   1   -0.31    0.11
  -1   0  -1    0.39    0.24
  -1   0  -1   -0.05    0.21
  -1   0  -1   -0.08    0.18
  -1   0  -1    0.03    0.17
   1   0   1   -0.07    0.28
   1   0   1    0.02    0.23
  -2   0  -1    0.02    0.29
  -2   0  -1   -0.05    0.34
  -2   0  -1   -0.27    0.27
  -2   0  -1    0.01    0.36
   2   0   1   -0.74    0.34
   2   0   1   -0.14    0.41
  -3   0  -1   -0.09    0.26
  -3   0  -1   -0.01    0.36
  -3   0  -1    0.29    0.41
  -3   0  -1    0.16    0.31
   3   0   1    0.03    0.51
   3   0   1   -0.29    0.37
  -4   0  -1    0.08    0.41
  -4   0  -1    0.42    0.33
  -4   0  -1    0.07    0.31
   4   0   1    0.27    0.60
  -5   0  -1    0.42    0.35
  -5   0  -1    0.33    0.40
  -5   0  -1    0.18    0.49
  -6   0  -1    0.16    0.47
  -6   0  -1   -0.07    0.34
  -6   0  -1   -0.05    0.55
  -7   0  -1    0.46    0.60
  -7   0  -1   -0.32    0.50
   7   0   1    0.07    0.39
   7   0   1    0.18    0.47
  -8   0  -1   -0.15    0.54
   8   0   1   -0.36    0.67
   8   0   1   -0.14    0.45
   8   0   1   -0.03    0.52
   8   0   1   -0.02    0.44
  -9   0  -1    0.28    0.62
   9   0   1   -0.01    0.51
   9   0   1    0.75    0.74
   9   0   1    0.77    0.53
 -10   0  -1   -0.03    0.63
  10   0   1    0.24    0.68
  10   0   1   -0.08    0.53
  10   0   1   -0.35    0.51
 -11   0  -1   -0.39    0.61
  11   0   1    0.26    0.60
  11   0   1   -0.48    0.55
 -12   0  -1    0.21    0.53
  12  -1  -1    1.83    0.57
  11  -1  -1    0.11    0.67
  11  -1  -1   -0.51    0.89
  11  -1  -1   -0.61    0.59
   9  -1  -1    6.05    1.52
   9  -1  -1    3.60    1.03
   9  -1  -1    1.63    0.55
   9  -1  -1    2.20    0.83
   8  -1  -1    0.11    0.75
   8  -1  -1    0.51    0.46
   8  -1  -1    0.75    0.51
   8  -1  -1    1.06    0.85
   8  -1  -1    0.42    1.03
   7  -1  -1    1.42    0.47
   7  -1  -1    2.63    0.53
   7  -1  -1    2.89    0.81
   7  -1  -1    3.51    0.83
   7  -1  -1    3.46    0.89
  -6   1   1   73.09    3.88
  -5   1   1   19.17    1.22
  -5   1   1   17.30    1.14
   4  -1  -1   -0.21    0.38
  -4   1   1   -0.17    0.28
  -4   1   1   -0.22    0.34
  -4   1   1   -0.60    0.19
  -4   1   1    0.32    0.33
   3  -1  -1   17.53    1.14
  -3   1   1   16.64    0.96
  -3   1   1   16.66    1.00
  -3   1   1   17.54    1.03
  -3   1   1   18.14    0.95
   2  -1  -1   20.99    1.23
  -2   1   1   18.29    1.02
  -2   1   1   18.64    1.03
  -2   1   1   18.91    1.01
  -2   1   1   18.56    1.05
   1  -1  -1   78.63    4.14
   1  -1  -1   93.99    4.32
  -1   1   1   85.66    4.29
  -1   1   1   80.23    4.15
  -1   1   1   90.95    4.28
  -1   1   1   89.42    4.16
   0  -1  -1  463.09   21.80
   0  -1  -1  437.70   21.46
   0   1   1  441.93   22.11
   0   1   1  469.20   21.46
   0   1   1  455.52   22.12
  -1  -1  -1  788.70   36.86
  -1  -1  -1  816.24   35.74
  -1  -1  -1  726.02   37.47
  -1  -1  -1  723.90   36.35
   1   1   1  744.28   37.48
   1   1   1  786.84   36.36
   1   1   1  798.87   37.48
  -2  -1  -1   10.42    0.76
  -2  -1  -1    9.44    0.86
  -2  -1  -1   12.39    0.91
  -2  -1  -1    9.01    0.72
   2   1   1   11.03    1.00
   2   1   1   10.21    0.97
  -3  -1  -1   26.11    1.55
  -3  -1  -1   26.32    1.54
  -3  -1  -1   22.27    1.29
  -3  -1  -1   23.93    1.40
   3   1   1   23.59    1.60
   3   1   1   24.20    1.64
  -4  -1  -1   39.86    2.26
  -4  -1  -1   38.87    2.08
  -4  -1  -1   36.34    2.20
   4   1   1   36.90    2.34
  -5  -1  -1    9.21    0.89
  -5  -1  -1   10.09    1.02
   5   1   1   10.09    1.21
  -6  -1  -1    0.86    0.62
  -6  -1  -1    0.94    0.50
  -7  -1  -1    4.09    0.69
   7   1   1    2.53    0.47
   7   1   1    4.72    0.66
  -8  -1  -1    0.64    0.64
   8   1   1    0.74    0.59
   8   1   1    0.21    0.41
  -9  -1  -1   36.33    2.24
   9   1   1   38.75    2.28
   9   1   1   37.63    2.06
 -10  -1  -1    0.81    0.73
  10   1   1    0.95    0.55
  10   1   1    1.02    0.61
 -11  -1  -1    5.78    0.83
  11   1   1    4.63    0.68
  11   1   1    5.06    0.65
  11   1   1    3.86    0.92
  11  -2  -1    1.49    0.80
  11  -2  -1    1.11    0.58
   9  -2  -1    5.53    1.41
   9  -2  -1    3.38    0.94
   9  -2  -1    3.33    1.07
   8  -2  -1   41.59    3.63
   8  -2  -1   44.94    2.38
   8  -2  -1   41.94    3.05
   8  -2  -1   44.05    3.31
   7  -2  -1    5.66    1.14
   7  -2  -1    5.54    0.98
   7  -2  -1    3.51    1.07
   7  -2  -1    3.65    0.64
   6  -2  -1    6.84    0.72
   6  -2  -1    7.27    1.07
   6  -2  -1    8.39    1.19
   5  -2  -1    0.12    0.74
   5  -2  -1    0.52    0.63
  -5   2   1    1.05    0.49
   4  -2  -1    3.62    0.73
  -4   2   1    5.50    0.66
   3  -2  -1   93.48    5.20
  -3   2   1  106.94    5.15
   2  -2  -1   22.80    1.63
  -2   2   1   24.67    1.53
  -2   2   1   23.16    1.43
   1  -2  -1   27.85    1.84
  -1   2   1   29.32    1.79
  -1   2   1   29.70    1.73
   0  -2  -1   32.09    1.99
   0   2   1   32.87    2.00
   0   2   1   33.72    1.94
  -1  -2  -1   87.36    4.29
   1   2   1   83.23    4.25
   1   2   1   75.86    4.33
  -2  -2  -1    3.86    0.63
  -2  -2  -1    5.09    0.69
   2   2   1    5.74    0.82
   2   2   1    3.61    0.80
  -3  -2  -1   18.42    1.33
   3   2   1   18.39    1.57
  -4  -2  -1   18.56    1.36
   4   2   1   19.69    1.72
  -5  -2  -1   44.29    2.65
  -5  -2  -1   38.06    2.24
  -5  -2  -1   39.13    2.39
   5   2   1   39.27    2.33
   5   2   1   41.42    2.14
   5   2   1   41.53    2.09
  -6  -2  -1    1.35    0.70
  -6  -2  -1    1.20    0.68
   6   2   1    2.66    0.67
   6   2   1    1.78    0.43
   6   2   1    2.14    0.53
  -7  -2  -1   43.67    2.58
  -7  -2  -1   41.93    2.47
   7   2   1   41.34    2.27
   7   2   1   43.25    2.29
   7   2   1   43.24    2.52
  -8  -2  -1    1.51    0.67
  -8  -2  -1    0.60    0.77
   8   2   1    1.58    0.58
   8   2   1    1.85    0.64
  -9  -2  -1    3.06    0.84
   9   2   1    3.58    0.66
   9   2   1    2.92    0.70
 -10  -2  -1   -0.50    0.66
  10   2   1    0.40    0.57
  10   2   1   -0.26    0.54
   9  -3  -1    0.84    0.84
   9  -3  -1    1.86    1.16
   8  -3  -1    2.42    1.08
   8  -3  -1    3.56    1.09
   7  -3  -1    1.07    1.02
   7  -3  -1    0.74    1.08
   6  -3  -1    7.11    1.24
   6  -3  -1    6.39    1.20
   6  -3  -1    5.82    1.14
   5  -3  -1    1.40    0.92
   5  -3  -1    1.08    1.02
   5  -3  -1    1.09    0.99
   4  -3  -1   20.41    1.97
   4  -3  -1   19.22    2.12
   4  -3  -1   19.79    1.90
   3  -3  -1   12.97    1.61
   3  -3  -1   14.13    1.59
   3  -3  -1   12.93    1.75
   2  -3  -1    0.59    0.95
   2  -3  -1    2.19    0.89
   2  -3  -1    0.65    0.85
   1  -3  -1    7.59    1.08
   1  -3  -1    7.62    1.08
   0  -3  -1    5.53    0.97
   0  -3  -1    7.63    1.07
   0  -3  -1    6.53    0.70
   0   3   1    6.90    0.62
  -1  -3  -1   15.92    1.17
  -1  -3  -1   16.26    1.54
  -1  -3  -1   16.04    1.64
   1   3   1   13.60    1.06
  -2  -3  -1    0.34    0.57
   2   3   1    0.00    0.42
  -3  -3  -1   17.82    1.38
   3   3   1   16.54    1.21
  -4  -3  -1    3.35    0.72
   4   3   1    2.52    0.57
  -5  -3  -1    0.32    0.69
   5   3   1    0.54    0.51
   5   3   1    0.26    0.43
  -6  -3  -1    1.74    0.73
   6   3   1    2.05    0.54
   6   3   1    1.10    0.54
  -7  -3  -1    8.29    0.94
   7   3   1    5.01    0.70
   7   3   1    5.87    0.67
   7   3   1    8.94    0.77
  -8  -3  -1    0.24    0.57
   8   3   1    0.09    0.37
   8   3   1    1.06    0.53
  -9  -3  -1    7.16    0.74
   9   3   1    5.50    0.63
   9   3   1    8.55    0.74
   5  -4  -1   -0.38    0.77
   5  -4  -1    4.08    0.98
   4  -4  -1    4.23    0.98
   4  -4  -1   -0.66    0.86
   3  -4  -1    6.41    1.13
   2  -4  -1    4.80    1.01
   2  -4  -1    6.25    1.13
   1  -4  -1   -0.21    0.83
   1  -4  -1    1.39    1.00
   0  -4  -1    1.38    1.00
   0   4   1    2.76    0.50
   1   4   1    2.61    0.52
   2   4   1    0.14    0.49
  -3  -4  -1   -0.73    0.53
   3   4   1   -0.39    0.50
  -4  -4  -1    5.52    0.70
   4   4   1    5.92    0.65
  -5  -4  -1    7.03    0.74
   5   4   1    7.14    0.65
   5   4  -2    7.99    0.82
  -5  -4   2    8.36    0.90
   4   4  -2    2.01    0.52
  -4  -4   2    2.22    0.61
   3   4  -2   16.73    1.17
  -3  -4   2   15.99    1.21
   2   4  -2   10.23    0.97
  -2  -4   2    9.31    0.94
   1   4  -2    0.96    0.51
  -1  -4   2    0.66    0.51
   0   4  -2    0.17    0.45
   0  -4   2   -2.45    0.90
  -1   4  -2    0.33    0.45
   1  -4   2   -0.12    0.92
   1  -4   2    0.10    0.99
   2  -4   2    1.18    0.97
   2  -4   2    1.67    0.94
   3  -4   2    2.29    1.11
   3  -4   2   -0.36    0.86
   4  -4   2   20.54    2.03
   5  -4   2    0.72    0.79
   9   3  -2    1.89    0.51
   9   3  -2    1.99    0.48
   9   3  -2    2.22    0.57
  -9  -3   2    1.11    0.45
   8   3  -2    3.07    0.62
   8   3  -2    2.81    0.58
  -8  -3   2    4.12    0.70
   7   3  -2    3.99    0.60
   7   3  -2    6.44    0.64
   7   3  -2    6.33    0.71
  -7  -3   2    4.06    0.71
   6   3  -2    8.48    0.84
   6   3  -2    7.95    0.75
  -6  -3   2    6.20    0.85
   5   3  -2    3.77    0.62
  -5  -3   2    1.44    0.68
   4   3  -2    1.73    0.55
  -4  -3   2    1.88    0.70
   3   3  -2    2.02    0.51
  -3  -3   2    0.88    0.58
   2   3  -2    0.63    0.45
  -2  -3   2    0.68    0.60
   1   3  -2   -0.06    0.40
  -1  -3   2    0.28    0.54
  -1  -3   2   -0.19    0.69
   0   3  -2    3.51    0.52
   0  -3   2    4.65    0.67
   0  -3   2    3.64    0.84
  -1   3  -2   14.24    1.09
   1  -3   2   17.03    1.57
   1  -3   2   15.75    1.18
  -2   3  -2    0.04    0.42
   2  -3   2   -0.46    0.79
   2  -3   2   -0.82    0.96
   2  -3   2    0.39    0.79
   2  -3   2    0.38    0.51
   3  -3   2    1.30    0.88
   3  -3   2    1.95    0.88
   3  -3   2    0.86    1.02
   4  -3   2    3.05    0.95
   4  -3   2    0.10    0.88
   4  -3   2    0.45    1.03
   5  -3   2    6.26    1.30
   5  -3   2    6.31    1.15
   7  -3   2    0.18    1.00
   7  -3   2   -0.56    1.03
   8  -3   2   15.19    1.98
  11   2  -2    1.20    0.54
  11   2  -2    0.96    0.43
  11   2  -2    0.71    0.57
 -11  -2   2    1.58    0.60
  10   2  -2   11.79    1.13
  10   2  -2   15.28    1.19
 -10  -2   2   13.95    1.27
   9   2  -2   -0.09    0.63
   9   2  -2    0.93    0.61
  -9  -2   2    0.38    0.73
   8   2  -2   12.72    1.28
   8   2  -2   13.37    1.12
  -8  -2   2   10.95    1.08
   7   2  -2    1.13    0.47
   7   2  -2    2.69    0.68
  -7  -2   2    3.44    0.74
   6   2  -2    0.01    0.35
   6   2  -2    0.59    0.48
   6   2  -2    0.13    0.58
  -6  -2   2    0.17    0.52
  -6  -2   2   -0.17    0.61
   5   2  -2    0.81    0.44
   5   2  -2   -0.40    0.28
   5   2  -2    0.61    0.92
   5   2  -2    0.36    0.54
  -5  -2   2   -0.64    0.56
  -5  -2   2    0.42    0.71
  -5  -2   2    0.38    0.52
  -5  -2   2    0.39    0.50
   4   2  -2    9.31    1.16
  -4  -2   2    6.42    0.79
  -4  -2   2    8.70    1.12
   3   2  -2   41.00    2.36
  -3  -2   2   33.80    1.99
  -3  -2   2   35.75    2.12
  -3  -2   2   35.46    2.31
   2   2  -2    1.48    0.68
   2   2  -2    1.74    0.71
  -2  -2   2    2.57    0.61
  -2  -2   2    1.56    0.55
  -2  -2   2    1.42    0.44
   1   2  -2    0.27    0.60
   1   2  -2   -0.42    0.58
  -1  -2   2   -0.06    0.44
   0   2  -2    0.30    0.57
   0   2  -2   -0.32    0.60
   0  -2   2    0.49    0.49
  -1   2  -2   89.42    4.73
  -1   2  -2   89.22    4.58
   1  -2   2   91.00    4.71
  -2   2  -2    7.48    0.84
  -2   2  -2    7.57    0.90
   2  -2   2    8.59    0.94
  -3   2  -2    0.26    0.53
  -3   2  -2    0.57    0.50
   3  -2   2    1.28    0.62
  -4   2  -2    0.03    0.45
  -4   2  -2   -0.11    0.57
   4  -2   2   -0.10    0.55
   4  -2   2    0.84    0.64
   5  -2   2    0.51    0.72
   5  -2   2    0.29    0.46
   5  -2   2    0.20    0.74
   5  -2   2    0.00    0.65
   6  -2   2    9.15    1.09
   6  -2   2    7.96    1.21
   6  -2   2    6.78    0.74
   6  -2   2    7.80    1.14
   7  -2   2    0.84    0.59
   7  -2   2   -0.15    0.76
   7  -2   2    0.82    0.93
   7  -2   2   -0.52    1.00
   8  -2   2    7.31    0.84
   8  -2   2    8.27    1.28
   8  -2   2    6.76    1.08
  12   1  -2   -0.01    0.63
  12   1  -2    0.45    0.53
 -12  -1   2    0.62    0.55
  11   1  -2    2.30    0.52
  11   1  -2    1.88    0.85
  11   1  -2    2.59    0.64
 -11  -1   2    2.26    0.75
  10   1  -2    1.87    0.63
  10   1  -2    1.29    0.91
  10   1  -2    2.43    0.63
 -10  -1   2    1.70    0.74
   9   1  -2    3.06    0.64
   9   1  -2    4.28    0.67
   9   1  -2    5.79    0.78
  -9  -1   2    4.14    0.78
   8   1  -2   16.13    1.22
   8   1  -2   10.87    1.15
   8   1  -2   15.04    1.12
  -8  -1   2   15.59    1.28
   7   1  -2   15.41    1.09
   7   1  -2   15.60    1.22
  -7  -1   2   15.70    1.24
  -6  -1   2   11.46    1.01
  -6  -1   2   11.32    1.16
  -6  -1   2    9.62    1.10
   5   1  -2    9.26    1.06
  -5  -1   2    8.67    0.99
  -5  -1   2    7.34    0.88
  -5  -1   2    7.36    0.81
   4   1  -2    0.23    0.63
  -4  -1   2    0.42    0.52
  -4  -1   2    0.42    0.49
  -4  -1   2    0.29    0.25
  -4  -1   2    0.73    0.42
   3   1  -2   23.90    1.67
   3   1  -2   27.18    1.70
  -3  -1   2   26.42    1.62
  -3  -1   2   33.29    1.72
  -3  -1   2   28.31    1.56
   2   1  -2   31.70    1.86
   2   1  -2   33.10    1.90
  -2  -1   2   34.45    1.89
  -2  -1   2   32.24    1.72
  -2  -1   2   31.96    1.81
   1   1  -2  141.97    7.26
   1   1  -2  154.52    7.05
  -1  -1   2  130.32    7.23
  -1  -1   2  153.97    7.04
  -1  -1   2  146.71    6.85
   0   1  -2  113.63    5.33
   0   1  -2  116.80    5.50
   0  -1   2  110.98    5.32
   0  -1   2  105.76    5.45
   0  -1   2   99.40    5.11
  -1   1  -2  799.62   41.24
  -1   1  -2  908.71   40.03
  -1   1  -2  754.85   41.24
   1  -1   2  866.42   40.60
   1  -1   2  908.42   40.01
   1  -1   2  842.24   41.23
  -2   1  -2    0.40    0.40
  -2   1  -2    0.04    0.35
  -2   1  -2    0.35    0.37
   2  -1   2    0.17    0.32
   2  -1   2   -0.11    0.37
  -3   1  -2   40.13    2.32
  -3   1  -2   46.20    2.28
   3  -1   2   39.12    2.23
  -4   1  -2    0.77    0.52
  -4   1  -2    1.11    0.50
   4  -1   2    0.15    0.36
  -5   1  -2    0.18    0.52
  -5   1  -2    0.78    0.55
  -6   1  -2   10.09    1.12
  -6   1  -2    6.91    0.93
   7  -1   2    7.61    1.02
   7  -1   2    7.87    0.68
   7  -1   2    5.64    0.69
   7  -1   2    5.65    1.04
   7  -1   2    9.19    1.24
   7  -1   2    6.07    0.65
   8  -1   2    7.87    1.22
   8  -1   2    6.73    0.72
   8  -1   2    9.28    1.15
   8  -1   2    7.88    0.82
   8  -1   2   11.96    1.59
  -9   1  -2    0.97    0.61
   9  -1   2    1.23    0.61
   9  -1   2    1.07    0.79
   9  -1   2    1.26    0.57
   9  -1   2    2.12    0.89
 -10   1  -2    3.44    0.65
  10  -1   2    5.29    0.70
  10  -1   2    4.50    0.88
  11  -1   2    0.21    0.56
  11  -1   2   -0.14    0.61
  12   0  -2    1.10    0.55
  11   0  -2   17.39    1.26
  11   0  -2   14.04    1.42
 -11   0   2   14.61    1.23
  10   0  -2    3.81    0.90
  10   0  -2    4.69    1.07
  10   0  -2    3.45    0.67
  10   0  -2    4.38    1.08
 -10   0   2    4.92    0.73
   9   0  -2    5.09    0.99
   9   0  -2    7.37    1.07
   9   0  -2    9.10    1.23
   9   0  -2    5.11    0.68
  -9   0   2    8.05    0.87
   8   0  -2    1.27    0.47
   8   0  -2    0.68    0.77
   8   0  -2    0.07    0.68
   8   0  -2    0.50    0.47
   8   0  -2    1.38    0.49
   8   0  -2    1.27    0.72
  -7   0   2   33.64    2.07
  -7   0   2   35.82    2.07
  -7   0   2   36.64    2.22
  -6   0   2   71.14    3.82
  -6   0   2   75.70    3.99
  -6   0   2   79.71    3.86
  -5   0   2  146.41    7.27
  -5   0   2  141.71    7.18
  -5   0   2  161.30    7.51
   4   0  -2  141.42    7.10
  -4   0   2  150.97    7.30
  -4   0   2  148.78    7.08
  -4   0   2  147.10    7.00
  -4   0   2  145.78    7.30
   3   0  -2   68.10    3.36
  -3   0   2   71.93    3.44
  -3   0   2   65.12    3.34
  -3   0   2   68.90    3.33
  -3   0   2   66.75    3.44
   2   0  -2   11.47    0.74
  -2   0   2   12.94    0.74
  -2   0   2   12.27    0.71
  -2   0   2   11.83    0.73
  -2   0   2   12.83    0.78
  -2   0   2   10.87    0.70
   1   0  -2   60.85    2.80
   1   0  -2   54.63    2.87
  -1   0   2   58.34    2.79
  -1   0   2   56.67    2.88
  -1   0   2   56.01    2.80
  -1   0   2   60.59    2.88
   0   0  -2  158.47    7.62
   0   0  -2  154.42    7.39
   0   0   2  149.07    7.62
   0   0   2  163.73    7.39
   0   0   2  151.26    7.62
  -1   0  -2  462.51   21.65
  -1   0  -2  473.15   22.74
  -1   0  -2  456.61   22.06
   1   0   2  470.49   22.75
   1   0   2  468.76   22.07
  -2   0  -2   16.50    1.11
  -2   0  -2   18.72    1.02
  -2   0  -2   19.86    1.17
   2   0   2   17.84    1.20
   2   0   2   18.05    1.24
  -3   0  -2   86.34    4.29
  -3   0  -2   95.08    4.44
  -3   0  -2  100.05    4.60
   3   0   2   83.78    4.51
   3   0   2   82.99    4.58
  -4   0  -2  193.31    9.26
  -4   0  -2  204.25    9.50
  -4   0  -2  185.21    9.78
   4   0   2  202.30    9.56
  -5   0  -2  185.29    9.23
  -5   0  -2  200.01    8.72
  -5   0  -2  163.31    8.92
  -6   0  -2    1.40    0.44
  -6   0  -2    0.97    0.54
  -6   0  -2    2.09    0.66
  -7   0  -2    2.38    0.74
  -7   0  -2    1.72    0.67
  -7   0  -2    3.63    0.61
   7   0   2    2.68    0.53
   7   0   2    2.33    0.69
   7   0   2    2.16    0.48
   7   0   2    3.15    0.57
  -8   0  -2   22.53    1.50
   8   0   2   21.25    1.41
   8   0   2   21.99    1.42
   8   0   2   23.13    1.51
   8   0   2   21.12    1.83
  -9   0  -2   15.32    1.32
   9   0   2   12.88    1.22
   9   0   2   14.62    1.55
   9   0   2   14.55    1.21
 -10   0  -2   52.13    2.86
  10   0   2   55.96    2.96
  10   0   2   52.57    2.78
  10   0   2   54.77    3.64
 -11   0  -2    2.51    0.69
  11   0   2    1.14    0.64
  11   0   2    2.69    0.62
 -12   0  -2    2.88    0.57
  12   0   2    2.52    0.51
  12  -1  -2    0.49    0.54
  11  -1  -2    1.09    0.68
  11  -1  -2    0.40    0.96
  10  -1  -2    0.99    0.76
  10  -1  -2    1.79    0.97
  10  -1  -2    1.80    0.60
   9  -1  -2    4.42    1.62
   9  -1  -2    3.26    0.59
   9  -1  -2    3.65    1.05
   9  -1  -2    2.89    0.88
   8  -1  -2   15.60    1.16
   8  -1  -2   13.43    1.76
   8  -1  -2   14.25    1.59
   8  -1  -2   15.47    1.11
   8  -1  -2   15.24    1.79
   7  -1  -2   17.53    1.52
   7  -1  -2   13.18    1.52
   7  -1  -2   14.28    1.60
   7  -1  -2   14.13    1.04
   7  -1  -2   13.91    1.10
  -6   1   2    8.99    0.89
  -5   1   2    7.16    0.69
   4  -1  -2   -0.16    0.41
  -4   1   2   -0.26    0.22
  -4   1   2    0.36    0.29
  -4   1   2    0.19    0.16
  -4   1   2    0.31    0.31
   3  -1  -2   25.82    1.62
  -3   1   2   26.31    1.42
  -3   1   2   28.40    1.41
  -3   1   2   29.44    1.46
   2  -1  -2   31.97    1.68
  -2   1   2   27.95    1.45
  -2   1   2   27.38    1.47
  -2   1   2   29.66    1.41
  -2   1   2   27.91    1.40
   1  -1  -2  136.62    6.71
   1  -1  -2  130.38    6.49
  -1   1   2  132.15    6.51
  -1   1   2  142.81    6.71
  -1   1   2  141.94    6.71
  -1   1   2  135.67    6.50
   0  -1  -2   93.59    4.75
   0  -1  -2  100.10    4.87
   0   1   2  104.92    4.91
   0   1   2   95.54    4.77
   0   1   2   96.98    4.90
  -1  -1  -2  895.02   44.50
  -1  -1  -2  944.07   45.12
  -1  -1  -2  912.54   45.87
  -1  -1  -2  930.68   43.76
   1   1   2  937.10   45.88
   1   1   2  974.28   44.52
   1   1   2 1000.00   45.89
  -2  -1  -2    0.13    0.30
  -2  -1  -2   -0.04    0.39
  -2  -1  -2    0.27    0.37
  -2  -1  -2   -0.03    0.44
   2   1   2    0.43    0.54
   2   1   2    0.43    0.52
  -3  -1  -2   40.58    2.20
  -3  -1  -2   42.58    2.37
  -3  -1  -2   38.08    2.24
  -3  -1  -2   45.83    2.48
   3   1   2   49.21    2.52
   3   1   2   44.75    2.49
  -4  -1  -2    0.37    0.48
  -4  -1  -2    1.22    0.46
   4   1   2    0.95    0.80
  -5  -1  -2    0.01    0.55
  -5  -1  -2    0.80    0.47
   5   1   2    0.74    0.85
  -6  -1  -2    9.25    1.00
  -6  -1  -2   10.05    1.15
  -7  -1  -2    7.60    0.81
   7   1   2    6.31    0.62
   7   1   2    7.28    0.80
  -8  -1  -2    8.40    0.91
   8   1   2    7.71    0.80
   8   1   2    8.67    0.92
  -9  -1  -2    1.50    0.71
   9   1   2    1.17    0.63
   9   1   2    1.10    0.49
 -10  -1  -2    3.56    0.79
  10   1   2    4.15    0.64
  10   1   2    3.60    0.67
 -11  -1  -2    2.01    0.71
  11   1   2    0.16    0.75
  11   1   2    0.77    0.49
  11  -2  -2    0.99    0.59
  11  -2  -2    1.26    0.83
  10  -2  -2   13.65    1.70
  10  -2  -2   11.11    1.39
   9  -2  -2   -1.01    1.19
   9  -2  -2    1.23    0.84
   9  -2  -2    0.12    0.96
   8  -2  -2   11.28    1.81
   8  -2  -2   10.05    1.28
   8  -2  -2   15.84    1.59
   7  -2  -2    2.71    0.87
   7  -2  -2    1.31    0.94
   7  -2  -2    1.48    1.00
   7  -2  -2    1.85    0.57
   6  -2  -2    1.05    0.51
   6  -2  -2    0.62    0.84
   6  -2  -2    0.03    0.80
   5  -2  -2   -0.07    0.72
   5  -2  -2    0.23    0.71
   5  -2  -2    0.01    0.77
  -5   2   2    0.11    0.39
   4  -2  -2    8.60    1.02
  -4   2   2    8.21    0.78
   3  -2  -2   37.52    2.32
  -3   2   2   39.13    2.14
   2  -2  -2    1.50    0.58
  -2   2   2    1.30    0.43
  -2   2   2    2.13    0.54
   1  -2  -2   -0.12    0.47
  -1   2   2    0.40    0.51
  -1   2   2    0.06    0.46
   0  -2  -2    0.58    0.50
   0   2   2    0.30    0.53
   0   2   2    0.88    0.55
  -1  -2  -2   86.68    4.42
   1   2   2   88.08    4.40
   1   2   2   79.76    4.49
  -2  -2  -2    7.67    0.83
  -2  -2  -2    7.71    0.86
   2   2   2    8.40    1.02
   2   2   2    8.74    1.01
  -3  -2  -2    0.80    0.53
   3   2   2    1.35    0.77
  -4  -2  -2    0.65    0.56
  -4  -2  -2    0.02    0.56
   4   2   2    0.38    0.41
   4   2   2    0.60    0.79
  -5  -2  -2    1.25    0.69
  -5  -2  -2    0.35    0.60
   5   2   2    0.10    0.38
   5   2   2    0.07    0.42
   5   2   2   -0.37    0.42
  -6  -2  -2    9.53    0.96
  -6  -2  -2   10.31    1.07
   6   2   2   10.25    0.97
   6   2   2    8.61    0.85
   6   2   2    9.87    0.82
  -7  -2  -2    0.23    0.75
  -7  -2  -2   -0.43    0.71
   7   2   2    0.80    0.54
   7   2   2    0.35    0.53
   7   2   2    1.01    0.54
  -8  -2  -2    7.21    0.93
  -8  -2  -2    5.61    0.90
   8   2   2    5.82    0.83
   8   2   2    7.94    0.78
  -9  -2  -2    1.00    0.76
   9   2   2    0.40    0.63
   9   2   2    0.05    0.54
 -10  -2  -2    0.02    0.63
  10   2   2   -0.05    0.51
  10   2   2    0.00    0.51
   9  -3  -2    2.50    0.92
   9  -3  -2    2.58    1.12
   8  -3  -2    2.34    1.12
   8  -3  -2    4.10    1.10
   7  -3  -2    6.04    1.29
   7  -3  -2    7.67    1.31
   6  -3  -2    7.28    1.18
   6  -3  -2    7.40    1.27
   6  -3  -2    6.88    1.19
   5  -3  -2    3.19    1.05
   5  -3  -2    2.30    1.02
   5  -3  -2    3.05    1.01
   4  -3  -2    2.44    0.99
   4  -3  -2    1.89    1.01
   4  -3  -2    2.25    0.97
   3  -3  -2    0.83    0.88
   3  -3  -2    1.61    0.94
   2  -3  -2   -0.26    0.84
   2  -3  -2   -0.29    0.82
   1  -3  -2    1.23    0.85
   1  -3  -2    1.03    0.87
   0  -3  -2    5.06    0.95
   0  -3  -2    5.06    0.63
   0  -3  -2    3.88    0.98
  -1  -3  -2   17.71    1.21
  -1  -3  -2   15.72    1.73
  -1  -3  -2   14.20    1.62
   1   3   2   17.32    1.12
  -2  -3  -2   -0.59    0.85
  -2  -3  -2   -0.05    0.56
   2   3   2   -0.39    0.42
  -3  -3  -2    1.57    0.68
   3   3   2    1.47    0.52
  -4  -3  -2    0.97    0.69
   4   3   2    0.61    0.53
   4   3   2    0.52    0.41
  -5  -3  -2    5.83    0.92
   5   3   2    7.89    0.77
   5   3   2    9.62    0.83
  -6  -3  -2    1.22    0.73
   6   3   2    0.84    0.50
   6   3   2    0.60    0.54
  -7  -3  -2    0.32    0.69
   7   3   2    0.98    0.51
   7   3   2    0.10    0.51
  -8  -3  -2    3.33    0.62
   8   3   2    3.36    0.52
   8   3   2    5.13    0.62
   8   3   2    3.17    0.47
   5  -4  -2    7.19    1.00
   4  -4  -2    4.06    0.96
   4  -4  -2    1.30    0.91
   3  -4  -2   19.50    1.99
   3  -4  -2   18.75    1.85
   2  -4  -2    8.52    1.21
   2  -4  -2   10.77    1.32
   1  -4  -2    0.79    0.88
   1  -4  -2    0.56    1.00
   0  -4  -2   -0.84    0.93
   0  -4  -2   -0.42    0.82
   1   4   2    1.06    0.47
   2   4   2    1.50    0.52
  -3  -4  -2    0.25    0.54
   3   4   2   -0.04    0.51
  -4  -4  -2   16.59    1.16
   4   4   2   18.08    1.16
  -5  -4  -2    1.04    0.51
   5   4   2    1.18    0.46
   5   4  -3    6.67    0.64
  -5  -4   3    7.10    0.76
   4   4  -3    1.44    0.50
  -4  -4   3    1.53    0.57
   3   4  -3   10.35    0.96
  -3  -4   3   10.25    1.00
   2   4  -3    0.46    0.53
  -2  -4   3    1.29    0.55
   1   4  -3    5.54    0.66
  -1  -4   3    4.06    0.63
   0   4  -3    4.75    0.60
   0  -4   3    3.86    1.03
  -1   4  -3    0.15    0.47
   1  -4   3    1.46    0.96
  -2   4  -3    1.82    0.51
   2  -4   3    2.51    1.00
   3  -4   3    3.02    1.01
   4  -4   3    0.78    0.87
   9   3  -3    4.20    0.58
   9   3  -3    3.18    0.62
   9   3  -3    3.24    0.54
  -9  -3   3    2.79    0.52
   8   3  -3    4.04    0.81
   8   3  -3    3.07    0.62
   8   3  -3    3.55    0.66
  -8  -3   3    2.64    0.71
  -8  -3   3    1.65    0.58
   7   3  -3   16.34    1.14
   7   3  -3   15.32    1.10
   7   3  -3   16.36    1.24
  -7  -3   3   16.61    1.29
  -7  -3   3   12.14    1.19
   6   3  -3    5.88    0.71
  -6  -3   3    5.98    0.86
   5   3  -3    1.48    0.54
  -5  -3   3    0.72    0.64
   4   3  -3   11.15    1.02
  -4  -3   3    9.70    1.02
   3   3  -3    2.05    0.54
  -3  -3   3    0.75    0.60
   2   3  -3   68.28    3.44
  -2  -3   3   70.03    3.75
   1   3  -3    4.26    0.56
  -1  -3   3    4.69    0.69
  -1  -3   3    2.78    0.86
   0   3  -3    0.69    0.46
   0  -3   3    0.35    0.53
   0  -3   3   -0.42    0.74
  -1   3  -3   12.53    1.02
   1  -3   3   12.83    1.54
   1  -3   3   14.65    1.12
  -2   3  -3   57.75    2.94
   2  -3   3   55.10    4.63
   2  -3   3   60.13    4.03
   2  -3   3   59.23    3.15
  -3   3  -3    3.34    0.58
   3  -3   3    3.85    0.92
   3  -3   3    5.09    1.18
   3  -3   3    6.29    1.06
   4  -3   3    0.25    0.86
   4  -3   3    0.46    1.02
   4  -3   3    4.18    1.02
   5  -3   3   20.01    2.37
   5  -3   3   27.36    2.25
   5  -3   3   22.16    2.11
   6  -3   3    9.52    1.39
   6  -3   3    8.53    1.22
   7  -3   3    0.41    0.98
   7  -3   3    3.83    1.25
   8  -3   3    7.98    1.16
  11   2  -3    2.94    0.60
  11   2  -3    1.63    0.46
  11   2  -3    1.52    0.59
 -11  -2   3    2.24    0.65
  10   2  -3   13.16    1.12
  10   2  -3   13.10    1.45
  10   2  -3   14.73    1.22
 -10  -2   3   15.67    1.34
   9   2  -3    0.53    0.59
   9   2  -3    0.99    0.63
  -9  -2   3    1.12    0.72
   8   2  -3    2.05    0.72
   8   2  -3    1.75    0.59
  -8  -2   3    1.30    0.74
   7   2  -3    2.20    0.54
   7   2  -3    2.23    0.63
  -7  -2   3    1.04    0.68
   6   2  -3    3.08    0.62
   6   2  -3    1.97    0.44
   6   2  -3    1.61    0.50
  -6  -2   3    2.83    0.66
  -6  -2   3    2.03    0.56
   5   2  -3    1.73    0.48
   5   2  -3    0.92    0.34
   5   2  -3    1.73    0.56
   5   2  -3    0.40    0.94
  -5  -2   3    1.20    0.52
  -5  -2   3    0.71    0.49
  -5  -2   3    0.76    0.56
  -5  -2   3    1.08    0.82
   4   2  -3    4.63    1.06
  -4  -2   3    4.10    0.64
  -4  -2   3    5.98    1.04
   3   2  -3    0.67    0.75
  -3  -2   3    0.34    0.38
  -3  -2   3   -0.17    0.61
  -3  -2   3   -0.05    0.44
   2   2  -3   17.39    1.49
  -2  -2   3   15.67    1.27
  -2  -2   3   14.71    1.29
   1   2  -3    0.41    0.60
   1   2  -3    0.66    0.62
  -1  -2   3    1.14    0.47
  -1  -2   3    0.55    0.48
   0   2  -3   74.51    4.18
   0   2  -3   78.82    4.05
   0  -2   3   78.15    4.10
  -1   2  -3  240.41   11.40
  -1   2  -3  215.94   11.02
   1  -2   3  223.47   11.22
  -2   2  -3  256.26   12.55
  -2   2  -3  252.57   12.15
   2  -2   3  241.79   12.37
  -3   2  -3   36.57    2.15
  -3   2  -3   33.97    2.24
   3  -2   3   37.38    2.28
  -4   2  -3    4.64    0.77
  -4   2  -3    3.99    0.81
   4  -2   3    7.15    0.67
   4  -2   3    7.98    0.92
   4  -2   3    8.38    1.25
   4  -2   3    6.18    0.95
   5  -2   3    4.77    0.95
   5  -2   3    6.34    0.68
   5  -2   3    5.97    1.01
   5  -2   3    6.16    1.07
   6  -2   3   16.31    1.20
   6  -2   3   13.10    1.49
   6  -2   3   11.85    1.63
   6  -2   3   14.00    1.79
   7  -2   3   -0.08    0.93
   7  -2   3    1.30    1.09
   7  -2   3    0.64    0.62
   7  -2   3    0.25    0.76
   8  -2   3    0.36    0.82
   8  -2   3    1.07    0.93
   8  -2   3    0.43    0.61
  10  -2   3    6.25    0.87
  10  -2   3    6.82    1.04
  12   1  -3    0.04    0.48
  12   1  -3    0.56    0.64
 -12  -1   3    1.17    0.55
  11   1  -3   -0.02    0.47
  11   1  -3    0.41    0.62
  11   1  -3   -0.61    0.77
 -11  -1   3   -0.12    0.68
  10   1  -3   -0.25    0.86
  10   1  -3   -0.25    0.56
  10   1  -3    0.42    0.60
 -10  -1   3   -0.06    0.70
   9   1  -3   10.49    1.07
   9   1  -3   10.26    1.11
  -9  -1   3   10.00    0.98
   8   1  -3    0.83    0.59
   8   1  -3    0.57    0.51
   8   1  -3    1.09    0.53
  -8  -1   3    1.05    0.65
   7   1  -3    2.04    0.49
   7   1  -3    2.89    0.63
   7   1  -3    2.63    0.53
  -7  -1   3    2.69    0.62
  -6  -1   3    0.93    0.61
  -6  -1   3    1.29    0.59
  -6  -1   3    0.48    0.49
   5   1  -3   30.24    2.14
  -5  -1   3   34.12    1.98
  -5  -1   3   34.00    2.14
  -5  -1   3   39.75    2.15
   4   1  -3    8.26    0.96
  -4  -1   3   13.32    1.07
  -4  -1   3   12.79    1.07
  -4  -1   3   13.22    0.95
   3   1  -3    1.77    0.59
  -3  -1   3    2.46    0.56
  -3  -1   3    1.26    0.42
  -3  -1   3    2.51    0.46
   2   1  -3   60.30    3.19
   2   1  -3   58.23    3.10
  -2  -1   3   63.90    3.09
  -2  -1   3   55.89    2.95
  -2  -1   3   61.80    3.19
   1   1  -3    0.17    0.47
   1   1  -3    0.50    0.51
  -1  -1   3    0.29    0.29
  -1  -1   3    0.13    0.40
  -1  -1   3    0.16    0.42
   0   1  -3   37.08    1.93
   0  -1   3   33.55    1.89
   0  -1   3   31.30    1.91
   0  -1   3   36.34    1.69
  -1   1  -3  119.99    6.49
  -1   1  -3  144.71    6.74
   1  -1   3  138.11    6.49
   1  -1   3  132.20    6.68
  -2   1  -3    0.50    0.41
  -2   1  -3    0.13    0.42
   2  -1   3   -0.25    0.33
  -3   1  -3    3.26    0.60
  -3   1  -3    2.60    0.58
   3  -1   3    3.62    0.64
   3  -1   3    3.21    0.49
  -4   1  -3   41.27    2.42
  -4   1  -3   40.04    2.35
  -5   1  -3  106.87    5.12
  -5   1  -3   90.51    5.21
  -6   1  -3   23.95    1.72
  -6   1  -3   26.77    1.81
   6  -1   3   23.51    1.91
   6  -1   3   22.17    1.49
   6  -1   3   23.15    1.36
   6  -1   3   21.14    1.42
  -7   1  -3   10.68    0.87
   7  -1   3    9.08    0.92
   7  -1   3   11.13    1.32
   7  -1   3   10.17    0.87
   7  -1   3    9.93    1.32
   7  -1   3   10.92    0.99
   7  -1   3   13.26    1.51
   8  -1   3    2.88    0.87
   8  -1   3    5.76    1.55
   8  -1   3    3.05    0.58
   8  -1   3    3.77    0.59
   8  -1   3    4.56    0.69
  -9   1  -3    1.14    0.62
   9  -1   3    1.08    0.60
   9  -1   3    0.63    0.54
   9  -1   3    0.73    2.27
   9  -1   3    0.29    0.74
 -10   1  -3    5.48    0.71
  10  -1   3    5.58    0.69
  10  -1   3    5.98    0.74
  10  -1   3    3.78    0.85
 -11   1  -3    4.58    0.63
  11  -1   3    5.19    0.83
  11  -1   3    3.87    0.63
  12   0  -3   -0.39    0.52
  11   0  -3   -0.67    0.92
  11   0  -3    0.24    0.65
  10   0  -3    0.21    0.74
  10   0  -3   -0.24    0.90
  10   0  -3    0.16    0.59
  10   0  -3    2.25    1.03
   9   0  -3   -0.14    0.54
   9   0  -3   -0.23    0.53
   9   0  -3   -0.53    0.79
   9   0  -3   -0.49    0.84
   9   0  -3   -0.58    0.72
   8   0  -3   -0.19    0.70
   8   0  -3    0.09    0.73
   8   0  -3    0.60    0.48
   8   0  -3    0.17    0.46
   8   0  -3    0.57    0.69
  -7   0   3    0.12    0.55
  -7   0   3    0.74    0.49
  -7   0   3    0.77    0.44
  -6   0   3    0.13    0.41
  -6   0   3   -0.04    0.40
  -6   0   3   -0.10    0.45
  -5   0   3    0.88    0.40
  -5   0   3    0.04    0.37
  -5   0   3    0.81    0.42
  -4   0   3   -0.10    0.34
  -4   0   3    0.54    0.34
  -4   0   3    0.24    0.36
  -4   0   3    0.15    0.34
   3   0  -3    0.31    0.34
  -3   0   3    0.02    0.25
  -3   0   3    0.30    0.31
  -3   0   3    0.34    0.31
  -3   0   3   -0.24    0.32
   2   0  -3   -0.10    0.28
  -2   0   3    0.02    0.23
  -2   0   3   -0.01    0.26
  -2   0   3   -0.08    0.27
  -2   0   3   -0.31    0.26
  -2   0   3   -0.51    0.34
   1   0  -3    0.12    0.26
   1   0  -3    0.20    0.28
  -1   0   3    0.16    0.27
  -1   0   3    0.10    0.29
  -1   0   3    0.04    0.29
   0   0  -3   -0.28    0.30
   0   0  -3   -0.40    0.33
   0   0   3   -0.42    0.30
   0   0   3   -0.14    0.35
   0   0   3   -0.32    0.36
  -1   0  -3   -0.28    0.42
  -1   0  -3    0.23    0.41
   1   0   3    0.16    0.47
   1   0   3    0.08    0.39
  -2   0  -3    0.22    0.30
  -2   0  -3   -0.18    0.41
  -2   0  -3   -0.04    0.40
   2   0   3   -0.35    0.44
   2   0   3    0.57    0.52
  -3   0  -3    0.02    0.41
  -3   0  -3    0.16    0.30
  -3   0  -3   -0.04    0.36
   3   0   3   -0.88    0.54
   3   0   3   -0.08    0.44
  -4   0  -3   -0.01    0.40
  -4   0  -3   -0.32    0.40
  -4   0  -3   -0.02    0.33
   4   0   3   -0.99    0.59
  -5   0  -3   -0.08    0.35
  -5   0  -3   -0.14    0.44
  -5   0  -3    0.07    0.51
   5   0   3    1.20    0.69
  -6   0  -3   -0.24    0.58
  -6   0  -3    0.15    0.49
  -7   0  -3   -0.01    0.50
   7   0   3    0.22    0.48
   7   0   3    0.50    0.43
   7   0   3   -0.43    0.44
  -8   0  -3   -0.06    0.58
   8   0   3    0.63    0.50
   8   0   3    0.78    0.51
   8   0   3    0.49    0.68
   8   0   3    0.34    0.56
  -9   0  -3    0.87    0.64
   9   0   3    0.08    0.74
   9   0   3   -0.27    0.53
   9   0   3   -0.36    0.56
 -10   0  -3    0.13    0.64
  10   0   3    0.79    0.56
  10   0   3    0.27    0.68
  10   0   3    0.45    0.50
 -11   0  -3   -0.55    0.63
  11   0   3   -0.19    0.55
  11   0   3   -0.16    0.52
  12  -1  -3    0.89    0.57
  11  -1  -3   -0.87    1.00
  11  -1  -3    0.53    0.70
  10  -1  -3    0.36    0.76
  10  -1  -3    0.86    0.95
  10  -1  -3    0.36    0.58
   9  -1  -3   10.31    0.91
   9  -1  -3   11.08    1.31
   9  -1  -3   10.80    1.70
   8  -1  -3    1.24    0.86
   8  -1  -3    2.01    0.84
   8  -1  -3    0.31    0.48
   7  -1  -3    3.09    0.80
   7  -1  -3    1.90    0.50
   7  -1  -3    2.52    0.81
   7  -1  -3    1.59    0.46
  -6   1   3    0.71    0.44
  -5   1   3   32.23    1.68
  -5   1   3   29.13    1.68
   4  -1  -3   14.36    1.07
  -4   1   3   10.56    0.81
   3  -1  -3    2.82    0.57
   2  -1  -3   58.51    3.07
   1  -1  -3    0.04    0.44
   1  -1  -3    0.04    0.21
  -1   1   3    0.31    0.19
  -1   1   3   -0.01    0.30
  -1   1   3    0.30    0.25
  -1   1   3    0.07    0.30
   0  -1  -3   37.49    1.96
   0  -1  -3   38.69    2.07
   0   1   3   36.57    2.04
   0   1   3   37.94    2.02
   0   1   3   38.87    2.01
  -1  -1  -3  140.82    6.62
  -1  -1  -3  115.41    6.79
  -1  -1  -3  136.53    6.70
   1   1   3  141.27    6.66
   1   1   3  150.93    6.86
   1   1   3  134.92    6.84
  -2  -1  -3   -0.14    0.37
  -2  -1  -3   -0.10    0.33
  -2  -1  -3    0.01    0.38
   2   1   3    0.65    0.58
   2   1   3    0.81    0.56
  -3  -1  -3    3.58    0.57
  -3  -1  -3    4.55    0.69
   3   1   3    5.74    0.89
   3   1   3    3.16    0.68
  -4  -1  -3   40.78    2.27
  -4  -1  -3   36.50    2.14
   4   1   3   37.85    2.43
  -5  -1  -3   91.07    4.55
  -5  -1  -3   87.52    4.68
   5   1   3   89.01    4.82
  -6  -1  -3   25.21    1.65
  -6  -1  -3   24.91    1.82
  -6  -1  -3   23.25    1.59
   6   1   3   24.11    1.55
   6   1   3   24.91    2.16
   6   1   3   22.45    1.34
  -7  -1  -3   12.13    1.20
   7   1   3   10.55    0.86
   7   1   3   12.07    1.11
  -8  -1  -3    3.25    0.76
   8   1   3    3.45    0.53
   8   1   3    3.38    0.69
  -9  -1  -3    0.49    0.68
   9   1   3    0.94    0.51
   9   1   3    0.42    0.61
 -10  -1  -3    7.38    0.90
  10   1   3    5.50    0.73
  10   1   3    5.18    0.66
 -11  -1  -3    5.21    0.76
  11   1   3    4.38    0.59
  11  -2  -3    1.65    0.84
  11  -2  -3    1.22    0.62
  10  -2  -3   10.20    1.37
  10  -2  -3   11.75    1.65
  10  -2  -3   19.41    2.34
   9  -2  -3   -1.31    1.14
   9  -2  -3    0.70    0.95
   9  -2  -3    0.45    0.80
   8  -2  -3    1.68    0.86
   8  -2  -3    1.93    1.09
   8  -2  -3    1.42    1.01
   7  -2  -3    2.45    1.04
   7  -2  -3    2.54    1.00
   7  -2  -3    2.24    0.86
   6  -2  -3    2.60    0.94
   6  -2  -3    2.19    0.90
   5  -2  -3    0.95    0.67
   5  -2  -3    1.24    0.76
   5  -2  -3    0.89    0.82
   5  -2  -3    1.18    0.74
   4  -2  -3    5.54    0.92
  -4   2   3    6.62    0.63
   3  -2  -3    0.29    0.56
  -3   2   3   -0.04    0.39
   2  -2  -3   17.16    1.38
  -2   2   3   15.45    1.12
   1  -2  -3    0.87    0.58
  -1   2   3    0.78    0.50
  -1   2   3    1.10    0.50
   0  -2  -3   81.18    4.12
   0   2   3   73.96    4.00
   0   2   3   77.06    4.09
  -1  -2  -3  220.44   10.93
   1   2   3  218.56   11.11
   1   2   3  224.94   10.80
  -2  -2  -3  259.02   12.61
   2   2   3  255.97   12.89
   2   2   3  255.51   12.54
   3   2   3   39.41    2.51
  -4  -2  -3    7.41    1.04
  -4  -2  -3    8.28    0.88
   4   2   3    7.81    0.72
   4   2   3    8.18    1.18
   4   2   3    7.58    0.67
  -5  -2  -3    4.95    0.77
   5   2   3    5.84    0.63
   5   2   3    4.74    0.55
  -6  -2  -3   12.97    1.35
  -6  -2  -3   11.45    1.08
   6   2   3   14.62    1.10
   6   2   3   14.41    1.03
   6   2   3   12.76    1.13
  -7  -2  -3    0.86    0.71
  -7  -2  -3    0.68    0.73
   7   2   3    0.32    0.53
   7   2   3    0.63    0.51
   7   2   3    0.47    0.52
  -8  -2  -3    0.80    0.69
  -8  -2  -3    1.71    0.79
   8   2   3    1.17    0.59
   8   2   3    0.71    0.52
  -9  -2  -3    3.92    0.78
  -9  -2  -3    2.07    0.67
   9   2   3    1.75    0.61
   9   2   3    1.69    0.58
 -10  -2  -3    6.37    0.77
  10   2   3    8.24    0.79
  10   2   3    8.69    0.82
   9  -3  -3    2.87    0.88
   9  -3  -3    2.34    1.10
   8  -3  -3    2.70    1.03
   8  -3  -3    4.29    1.18
   7  -3  -3   20.64    2.13
   7  -3  -3   18.21    2.09
   6  -3  -3    5.85    1.18
   6  -3  -3    6.76    1.23
   6  -3  -3    4.06    1.09
   5  -3  -3    1.17    0.96
   5  -3  -3    1.26    0.95
   5  -3  -3    0.24    1.00
   4  -3  -3    9.54    1.26
   4  -3  -3    8.58    1.29
   3  -3  -3    0.56    0.89
   3  -3  -3    2.18    1.00
   2  -3  -3   66.33    4.50
   2  -3  -3   66.81    4.59
   1  -3  -3    4.55    1.00
   1  -3  -3    4.41    1.02
   0  -3  -3    0.28    0.80
   0  -3  -3    0.55    0.91
  -1  -3  -3   13.94    1.11
  -1  -3  -3   14.79    1.58
  -1  -3  -3   14.08    1.71
   1   3   3   14.92    1.05
  -2  -3  -3   61.61    4.26
  -2  -3  -3   62.02    3.37
   2   3   3   61.16    3.10
  -3  -3  -3    4.15    0.73
  -3  -3  -3    4.51    1.02
   3   3   3    4.28    0.60
  -4  -3  -3    0.76    0.90
  -4  -3  -3   -0.05    0.69
   4   3   3    0.32    0.41
   4   3   3    0.55    0.53
  -5  -3  -3   23.46    1.68
   5   3   3   22.67    1.34
   5   3   3   18.83    1.42
  -6  -3  -3    8.46    1.00
   6   3   3    8.44    0.87
   6   3   3    9.58    0.85
  -7  -3  -3    0.32    0.61
   7   3   3    0.09    0.51
   7   3   3    0.19    0.48
  -8  -3  -3    3.62    0.61
   8   3   3    6.60    0.62
   8   3   3    3.51    0.52
   8   3   3    4.86    0.50
   5  -4  -3   11.68    1.43
   5  -4  -3    6.87    1.05
   4  -4  -3    2.77    0.94
   4  -4  -3    1.62    0.91
   3  -4  -3   11.16    1.31
   3  -4  -3   11.32    1.55
   2  -4  -3    0.59    0.92
   2  -4  -3    1.04    0.97
   1  -4  -3    4.26    1.01
   1  -4  -3    4.47    1.10
   0  -4  -3    6.71    1.14
   0  -4  -3    5.20    1.08
  -1  -4  -3   -0.25    0.88
   1   4   3   -0.11    0.44
   2   4   3    2.37    0.53
   3   4   3    2.93    0.57
   4   4   3    0.69    0.46
   5   4   3    1.00    0.43
   5   4  -4    0.31    0.45
  -5  -4   4   -0.27    0.49
   4   4  -4   -0.08    0.47
  -4  -4   4    0.57    0.52
   3   4  -4    5.71    0.63
  -3  -4   4    3.90    0.66
   2   4  -4    4.90    0.63
  -2  -4   4    4.97    0.68
   1   4  -4   10.89    0.98
  -1  -4   4   10.54    1.54
  -1  -4   4    9.63    0.92
   0   4  -4    1.03    0.52
   0  -4   4    0.66    0.46
   0  -4   4    0.14    0.90
  -1   4  -4    0.14    0.51
   1  -4   4    0.09    0.93
  -2   4  -4   20.49    1.33
   2  -4   4   20.38    2.11
  -3   4  -4   14.43    1.19
   3  -4   4   18.43    1.85
   4  -4   4    0.03    0.83
   9   3  -4    0.48    0.47
   9   3  -4    0.45    0.44
  -9  -3   4    0.42    0.52
   8   3  -4    0.61    0.56
   8   3  -4    0.32    0.49
  -8  -3   4    0.35    0.61
  -8  -3   4    0.82    0.55
   7   3  -4    3.72    0.63
  -7  -3   4    5.39    0.78
  -7  -3   4    6.07    0.80
   6   3  -4    3.02    0.60
   6   3  -4    2.90    0.64
  -6  -3   4    3.82    0.77
  -6  -3   4    3.78    0.74
   5   3  -4    1.81    0.62
   5   3  -4    0.99    0.55
  -5  -3   4    1.23    0.65
   4   3  -4    4.08    0.63
  -4  -3   4    3.98    0.78
   3   3  -4    2.99    0.56
  -3  -3   4    3.68    0.74
   2   3  -4   -0.11    0.46
  -2  -3   4    0.00    0.54
   1   3  -4    8.01    0.71
  -1  -3   4    7.81    0.83
  -1  -3   4    6.03    1.08
   0   3  -4    0.64    0.46
   0  -3   4   -0.62    0.82
   0  -3   4    0.71    0.55
  -1   3  -4    0.47    0.47
   1  -3   4   -0.76    0.83
   1  -3   4   -0.43    0.53
  -2   3  -4   37.63    1.97
   2  -3   4   34.42    3.14
   2  -3   4   35.81    2.08
   2  -3   4   34.05    2.78
  -3   3  -4    4.63    0.65
   3  -3   4    6.43    1.29
   3  -3   4    6.04    1.11
   3  -3   4    5.81    0.65
  -4   3  -4   14.27    1.41
   4  -3   4   18.91    1.90
   4  -3   4   16.58    2.05
   4  -3   4   14.87    1.68
   5  -3   4    8.12    1.32
   5  -3   4    7.27    1.11
   6  -3   4    0.04    0.97
   6  -3   4    0.16    0.63
   6  -3   4    0.72    1.01
   7  -3   4    0.64    0.55
   7  -3   4    1.65    1.24
   7  -3   4   -0.01    0.96
   8  -3   4    5.64    1.35
  11   2  -4    0.60    0.54
  11   2  -4    0.65    0.56
  11   2  -4    0.02    0.42
 -11  -2   4    0.23    0.59
  10   2  -4    1.78    0.69
  10   2  -4    1.64    0.58
  10   2  -4    1.81    0.76
 -10  -2   4    2.09    0.71
   9   2  -4    5.84    0.82
   9   2  -4    9.95    0.94
  -9  -2   4    6.76    0.85
   8   2  -4    0.56    0.60
   8   2  -4    1.46    0.65
  -8  -2   4    1.03    0.69
   7   2  -4    4.08    0.71
   7   2  -4    3.25    0.57
  -7  -2   4    3.17    0.71
   6   2  -4    1.82    0.46
   6   2  -4    2.15    0.61
  -6  -2   4    1.00    0.62
   5   2  -4   18.89    1.35
   5   2  -4   22.42    1.26
   5   2  -4   16.08    1.15
   5   2  -4   22.00    1.92
  -5  -2   4   17.95    1.42
  -5  -2   4   20.54    1.40
  -5  -2   4   21.65    1.36
   4   2  -4   11.20    1.30
  -4  -2   4    9.24    0.94
  -4  -2   4   10.62    1.24
   3   2  -4   15.40    1.55
  -3  -2   4   15.29    1.22
  -3  -2   4   12.70    1.37
   2   2  -4    2.06    0.73
  -2  -2   4    1.35    0.53
  -2  -2   4    2.11    0.66
   1   2  -4   14.37    1.38
  -1  -2   4   15.79    1.24
  -1  -2   4   14.36    1.26
   0   2  -4   19.67    1.55
   0   2  -4   19.93    1.59
   0  -2   4   23.22    1.53
  -1   2  -4    2.52    0.76
  -1   2  -4    2.42    0.67
   1  -2   4    3.71    0.69
  -2   2  -4  131.07    6.80
   2  -2   4  140.19    6.96
  -3   2  -4    2.93    0.73
  -3   2  -4    2.41    0.65
   3  -2   4    4.01    0.79
  -4   2  -4    1.28    0.51
   4  -2   4    2.01    0.46
   4  -2   4    0.68    0.50
   4  -2   4    1.71    0.78
   4  -2   4    2.17    0.82
   4  -2   4    0.65    0.76
  -5   2  -4    1.49    0.54
   5  -2   4    2.09    0.93
   5  -2   4    2.08    0.82
   5  -2   4    1.69    0.54
   5  -2   4    3.03    0.50
   5  -2   4    1.54    0.89
  -6   2  -4    0.10    0.55
   6  -2   4    0.13    0.44
   6  -2   4    1.08    0.58
   6  -2   4    1.43    0.97
   6  -2   4    0.04    0.76
   6  -2   4    0.41    0.94
  -7   2  -4    0.49    0.71
   7  -2   4    0.83    0.78
   7  -2   4    0.13    0.92
   7  -2   4    4.33    1.26
   7  -2   4    0.49    0.61
   8  -2   4    0.27    0.87
   8  -2   4    7.10    1.56
   8  -2   4    0.47    0.82
   8  -2   4   -0.14    0.64
  10  -2   4    2.29    0.64
  12   1  -4   -0.13    0.50
  12   1  -4    0.21    0.60
 -12  -1   4    0.87    0.52
  11   1  -4   -0.12    0.76
  11   1  -4    0.28    0.63
 -11  -1   4   -0.03    0.65
  10   1  -4   15.12    1.15
  10   1  -4   11.20    1.31
  10   1  -4   12.86    1.24
 -10  -1   4   12.79    1.31
   9   1  -4    4.97    0.74
   9   1  -4    3.65    0.95
   9   1  -4    3.15    0.70
  -9  -1   4    4.18    0.78
   8   1  -4    0.85    0.55
   8   1  -4    0.22    0.55
  -8  -1   4   -0.41    0.64
   7   1  -4    4.54    0.63
   7   1  -4    4.88    0.67
  -7  -1   4    4.53    0.71
  -7  -1   4    5.13    0.99
  -6  -1   4   22.88    1.69
  -6  -1   4   20.55    1.68
  -6  -1   4   22.71    1.53
  -5  -1   4   34.96    2.08
  -5  -1   4   30.40    2.03
  -5  -1   4   33.23    1.92
   4   1  -4    8.63    0.98
  -4  -1   4    9.47    0.92
  -4  -1   4    8.26    0.83
  -4  -1   4    7.71    0.92
   3   1  -4   85.19    4.44
  -3  -1   4   85.85    4.55
  -3  -1   4   91.45    4.30
  -3  -1   4   87.10    4.41
   2   1  -4    3.64    0.64
   2   1  -4    2.96    0.64
  -2  -1   4    4.04    0.61
  -2  -1   4    4.30    0.62
  -2  -1   4    4.10    0.51
   1   1  -4   41.95    2.30
   1   1  -4   40.90    2.25
  -1  -1   4   39.83    2.24
  -1  -1   4   39.32    2.04
  -1  -1   4   41.12    2.21
   0   1  -4    0.32    0.52
   0   1  -4    0.52    0.49
   0  -1   4    0.34    0.39
   0  -1   4    0.55    0.25
   0  -1   4   -0.07    0.43
  -1   1  -4    0.91    0.45
  -1   1  -4    1.03    0.54
   1  -1   4    0.73    0.41
  -2   1  -4   75.41    3.68
  -2   1  -4   61.52    3.52
  -3   1  -4   20.51    1.41
  -3   1  -4   17.55    1.39
   3  -1   4   20.32    1.45
   3  -1   4   17.93    1.22
  -4   1  -4    1.00    0.56
  -4   1  -4    1.68    0.64
  -5   1  -4   18.29    1.54
  -5   1  -4   19.99    1.55
  -6   1  -4   25.11    1.51
  -6   1  -4   26.73    1.92
   6  -1   4   25.60    1.45
   6  -1   4   25.74    1.54
   6  -1   4   26.24    1.54
   6  -1   4   20.75    2.20
  -7   1  -4   11.73    1.14
   7  -1   4   13.04    1.07
   7  -1   4   13.77    1.65
   7  -1   4   11.39    1.02
   7  -1   4   11.65    1.12
   8  -1   4    2.12    0.58
   8  -1   4    2.95    0.58
   8  -1   4    2.75    0.64
   8  -1   4    3.08    0.88
   8  -1   4    1.03    1.77
  -9   1  -4   11.86    1.22
   9  -1   4   14.01    1.01
   9  -1   4   10.32    1.45
   9  -1   4   13.35    1.16
   9  -1   4   13.04    1.21
 -10   1  -4   11.30    0.93
  10  -1   4    9.79    0.88
  10  -1   4   11.89    1.06
  10  -1   4    9.77    1.29
 -11   1  -4    6.20    0.67
  11  -1   4    8.61    0.72
  11  -1   4    6.36    0.84
  12   0  -4    0.53    0.55
  12   0  -4    0.98    0.78
  12   0  -4    0.03    1.56
  11   0  -4   -0.05    1.44
  11   0  -4    0.13    0.94
  11   0  -4    0.94    0.67
  10   0  -4    9.89    1.25
  10   0  -4    8.67    0.91
  10   0  -4   10.37    1.37
  10   0  -4   13.34    1.86
   9   0  -4   16.25    1.92
   9   0  -4   17.50    1.28
   9   0  -4   17.14    1.29
   9   0  -4   15.08    1.62
   9   0  -4   15.40    1.64
   8   0  -4    0.80    0.78
   8   0  -4    0.33    0.49
   8   0  -4    0.32    0.72
   8   0  -4    0.10    0.71
   8   0  -4    0.39    0.48
  -7   0   4   30.50    1.89
  -7   0   4   27.81    1.75
  -7   0   4   29.89    1.84
  -6   0   4    8.78    0.94
  -6   0   4    8.24    0.88
  -6   0   4    9.23    0.88
  -5   0   4   88.30    4.18
  -5   0   4   80.29    4.18
  -5   0   4   82.09    4.29
  -4   0   4   17.51    1.07
  -4   0   4   18.07    1.10
  -4   0   4   16.42    1.15
   3   0  -4   59.44    3.05
  -3   0   4   61.20    3.15
  -3   0   4   65.44    3.15
  -3   0   4   60.23    3.08
  -3   0   4   62.10    3.05
   2   0  -4  107.92    5.38
  -2   0   4  114.37    5.38
  -2   0   4  112.06    5.55
   1   0  -4  358.76   16.37
   1   0  -4  299.69   16.83
  -1   0   4  362.53   16.86
  -1   0   4  364.00   16.36
  -1   0   4  339.83   16.86
   0   0  -4    3.87    0.54
   0   0  -4    3.97    0.58
   0   0   4    3.78    0.57
   0   0   4    2.76    0.49
   0   0   4    3.95    0.57
  -1   0  -4   91.78    5.15
  -1   0  -4  106.74    5.03
   1   0   4  108.64    5.19
   1   0   4  100.73    5.02
  -2   0  -4   51.70    2.74
  -2   0  -4   48.97    2.81
   2   0   4   52.65    2.78
   2   0   4   54.09    2.84
  -3   0  -4   19.00    1.32
  -3   0  -4   17.63    1.12
  -3   0  -4   18.40    1.34
   3   0   4   18.60    1.42
  -4   0  -4   48.66    2.80
  -4   0  -4   49.97    2.55
  -4   0  -4   47.81    2.74
   4   0   4   50.17    2.80
  -5   0  -4    6.77    0.91
  -5   0  -4    7.15    0.95
  -5   0  -4    6.42    0.73
   5   0   4    7.89    1.07
  -6   0  -4   71.53    3.96
  -7   0  -4    9.98    0.84
   7   0   4    8.14    0.79
   7   0   4    7.11    0.72
   7   0   4    7.40    0.75
  -8   0  -4   29.27    1.77
   8   0   4   24.65    1.67
   8   0   4   27.78    2.18
   8   0   4   31.17    1.82
   8   0   4   28.20    1.69
  -9   0  -4    1.20    0.66
   9   0   4    1.71    0.59
   9   0   4    1.64    0.78
   9   0   4    1.72    0.61
 -10   0  -4    6.05    0.82
  10   0   4    6.46    0.73
  10   0   4    6.44    0.71
  10   0   4    6.24    0.90
 -11   0  -4    1.72    0.64
  11   0   4    1.16    0.53
  11   0   4    1.33    0.54
  12  -1  -4    0.31    0.57
  12  -1  -4   -0.17    1.21
  11  -1  -4   -2.33    0.99
  11  -1  -4    0.80    0.66
  10  -1  -4   12.51    1.80
  10  -1  -4   11.01    1.44
   9  -1  -4    2.65    0.61
   9  -1  -4    3.43    0.93
   9  -1  -4    3.01    1.04
   8  -1  -4    1.13    0.51
   8  -1  -4    1.05    0.85
   8  -1  -4    0.71    0.81
   7  -1  -4    4.08    0.91
   7  -1  -4    3.64    0.54
   7  -1  -4    2.61    0.80
  -6   1   4   18.83    1.16
  -5   1   4   28.20    1.63
   4  -1  -4    7.06    0.77
  -4   1   4    7.08    0.69
   3  -1  -4   99.14    5.04
   2  -1  -4    4.11    0.63
  -2   1   4    3.27    0.37
  -2   1   4    3.38    0.34
  -2   1   4    3.78    0.37
  -2   1   4    3.78    0.26
   1  -1  -4   40.97    2.27
  -1   1   4   39.69    2.09
  -1   1   4   42.16    2.14
  -1   1   4   40.60    2.15
   0  -1  -4   -0.25    0.34
   0  -1  -4    0.12    0.45
   0   1   4   -0.05    0.32
   0   1   4    0.41    0.44
   0   1   4    0.57    0.44
  -1  -1  -4    1.58    0.44
  -1  -1  -4    1.46    0.44
   1   1   4    1.81    0.57
   1   1   4    0.95    0.55
  -2  -1  -4   79.51    3.94
   2   1   4   73.32    4.07
   2   1   4   78.53    4.00
  -3  -1  -4   18.21    1.36
  -3  -1  -4   19.93    1.30
   3   1   4   18.49    1.48
   3   1   4   18.99    1.54
  -4  -1  -4    2.32    0.58
  -4  -1  -4    1.82    0.69
   4   1   4    2.31    0.86
  -5  -1  -4   21.60    1.60
  -5  -1  -4   18.67    1.43
   5   1   4   17.21    1.77
  -6  -1  -4   21.79    1.63
  -6  -1  -4   26.50    1.75
   6   1   4   30.63    2.26
   6   1   4   26.29    1.64
   6   1   4   25.96    1.45
   6   1   4   25.87    1.51
  -7  -1  -4   11.78    1.05
   7   1   4   12.80    0.91
   7   1   4   11.69    1.11
  -8  -1  -4    3.50    0.78
   8   1   4    2.29    0.67
   8   1   4    3.42    0.55
  -9  -1  -4   13.45    1.11
   9   1   4   12.42    1.16
   9   1   4   14.00    1.05
 -10  -1  -4   12.33    1.20
  10   1   4   10.94    1.04
 -11  -1  -4    9.46    0.82
  11   1   4    6.98    0.76
  11  -2  -4   -0.89    0.80
  11  -2  -4   -0.03    0.60
  10  -2  -4    1.08    0.75
  10  -2  -4    2.36    1.00
   9  -2  -4    6.13    1.27
   9  -2  -4    6.01    1.00
   9  -2  -4    6.45    1.21
   8  -2  -4    0.46    1.01
   8  -2  -4    0.37    0.98
   8  -2  -4    0.62    0.78
   7  -2  -4    3.31    0.90
   7  -2  -4    5.76    1.13
   7  -2  -4    4.05    1.10
   6  -2  -4    1.54    0.91
   6  -2  -4    1.82    0.89
   5  -2  -4   22.51    1.78
   5  -2  -4   17.79    1.79
   5  -2  -4   18.89    1.96
   4  -2  -4   10.14    1.12
   3  -2  -4   15.89    1.42
  -3   2   4   15.12    1.02
   2  -2  -4    1.63    0.65
  -2   2   4    1.82    0.50
   1  -2  -4   17.20    1.42
  -1   2   4   16.28    1.24
  -1   2   4   15.95    1.20
   0  -2  -4   21.48    1.59
   0   2   4   22.22    1.55
   0   2   4   21.35    1.54
  -1  -2  -4    2.41    0.65
   1   2   4    3.26    0.76
   1   2   4    3.68    0.77
  -2  -2  -4  126.78    6.81
   2   2   4  139.26    7.04
   2   2   4  139.52    6.87
  -3  -2  -4    3.16    0.63
   3   2   4    2.38    0.89
  -4  -2  -4    1.22    0.66
   4   2   4    1.75    0.42
   4   2   4    1.85    0.46
  -5  -2  -4    1.76    0.69
   5   2   4    3.05    0.50
   5   2   4    1.28    0.51
  -6  -2  -4    0.57    0.70
  -6  -2  -4    0.27    0.76
   6   2   4    0.44    0.48
   6   2   4    0.87    0.55
   6   2   4    0.74    0.50
  -7  -2  -4    0.13    0.73
  -7  -2  -4    0.76    0.72
   7   2   4    0.31    0.50
   7   2   4    0.78    0.54
   7   2   4    0.38    0.51
  -8  -2  -4   -0.35    0.74
  -8  -2  -4    0.09    0.69
   8   2   4   -0.46    0.50
   8   2   4    0.28    0.54
   8   2   4    0.43    0.64
  -9  -2  -4   -0.02    0.64
  -9  -2  -4   -0.15    0.58
   9   2   4    0.57    0.52
   9   2   4   -0.23    0.50
  10   2   4    1.17    0.45
  10   2   4    2.35    0.48
   9  -3  -4   -1.05    0.97
   9  -3  -4    0.83    0.76
   8  -3  -4    0.83    1.07
   8  -3  -4    0.74    0.87
   7  -3  -4    6.18    1.15
   7  -3  -4    5.64    1.26
   6  -3  -4    3.76    1.06
   6  -3  -4    2.98    1.10
   6  -3  -4    3.81    1.09
   5  -3  -4    1.40    1.02
   5  -3  -4    2.04    1.06
   4  -3  -4    3.88    1.09
   4  -3  -4    3.70    1.11
   3  -3  -4    3.53    1.00
   3  -3  -4    5.20    1.13
   2  -3  -4    0.08    0.85
   2  -3  -4    0.50    0.95
   1  -3  -4    8.35    1.21
   1  -3  -4    8.44    1.22
   0  -3  -4    0.75    0.86
   0  -3  -4    0.00    0.91
  -1  -3  -4   -0.05    0.83
  -1  -3  -4    0.08    0.51
  -1  -3  -4    0.65    0.93
   1   3   4   -0.15    0.41
  -2  -3  -4   39.18    2.21
  -2  -3  -4   37.16    2.89
   2   3   4   35.82    2.03
  -3  -3  -4    6.34    1.15
  -3  -3  -4    4.93    0.80
   3   3   4    6.73    0.64
   3   3   4    5.28    0.67
  -4  -3  -4   17.36    1.84
  -4  -3  -4   17.16    1.49
   4   3   4   16.57    1.14
   4   3   4   18.56    1.31
  -5  -3  -4    7.63    0.94
  -5  -3  -4    8.87    1.19
   5   3   4    8.32    0.87
   5   3   4   10.29    0.84
  -6  -3  -4   -0.41    0.69
   6   3   4    0.23    0.49
   6   3   4    0.34    0.55
  -7  -3  -4    0.87    0.62
   7   3   4    0.96    0.51
   7   3   4    0.59    0.49
  -8  -3  -4    1.25    0.54
   8   3   4    0.98    0.39
   8   3   4    1.01    0.44
   5  -4  -4   -0.32    0.71
   5  -4  -4    1.00    0.77
   4  -4  -4    0.76    0.86
   4  -4  -4    0.83    0.87
   3  -4  -4    4.75    1.04
   3  -4  -4    5.50    1.04
   2  -4  -4    5.93    1.09
   2  -4  -4    6.37    1.18
   1  -4  -4   12.37    1.60
   1  -4  -4   13.39    1.73
   0  -4  -4    0.68    0.93
   0  -4  -4    0.04    0.97
  -1  -4  -4    0.62    0.92
   1   4   4    0.13    0.44
  -2  -4  -4   20.99    1.92
   2   4   4   19.75    1.27
   3   4   4   15.86    1.08
   4   4   4    0.01    0.43
   5   4  -5    0.31    0.43
  -5  -4   5    0.44    0.50
   4   4  -5    0.17    0.48
  -4  -4   5    0.78    0.52
   3   4  -5    0.73    0.50
  -3  -4   5    0.60    0.55
   2   4  -5    1.08    0.51
  -2  -4   5    0.30    0.53
  -2  -4   5    0.36    0.88
   1   4  -5    6.76    0.68
  -1  -4   5    5.51    0.68
  -1  -4   5    6.37    1.16
   0   4  -5    1.27    0.55
   0  -4   5    1.24    0.95
   0  -4   5    1.83    0.48
  -1   4  -5    7.41    0.71
   1  -4   5    6.34    1.19
  -2   4  -5   17.99    1.22
   2  -4   5   17.81    1.91
  -3   4  -5    1.96    0.46
   3  -4   5    2.74    0.96
   4  -4   5    7.63    1.06
   9   3  -5    5.69    0.62
  -9  -3   5    5.64    0.64
   8   3  -5    2.60    0.57
  -8  -3   5    3.55    0.60
  -8  -3   5    4.49    0.67
   7   3  -5    2.84    0.57
  -7  -3   5    2.68    0.68
  -7  -3   5    2.54    0.66
   6   3  -5    5.74    0.66
   6   3  -5    4.29    0.68
  -6  -3   5    3.44    0.72
  -6  -3   5    4.49    0.73
   5   3  -5    6.34    0.71
   5   3  -5    6.64    0.81
  -5  -3   5    5.16    0.81
   4   3  -5   10.36    1.03
  -4  -3   5   10.64    1.18
   3   3  -5    4.47    0.63
  -3  -3   5    2.34    0.65
   2   3  -5    9.58    0.97
  -2  -3   5    9.84    1.09
   1   3  -5    0.42    0.47
  -1  -3   5    0.45    0.57
  -1  -3   5    0.82    0.82
   0   3  -5   13.80    1.08
   0  -3   5   11.70    1.58
   0  -3   5   13.90    1.18
  -1   3  -5   23.87    1.46
   1  -3   5   22.87    2.09
   1  -3   5   23.99    1.59
  -2   3  -5   49.25    2.65
   2  -3   5   56.61    4.21
   2  -3   5   48.24    3.61
   2  -3   5   49.69    2.82
  -3   3  -5   78.39    3.68
   3  -3   5   70.92    4.92
   3  -3   5   69.12    5.64
   3  -3   5   71.48    3.83
  -4   3  -5    1.18    0.68
   4  -3   5    1.16    1.01
  -5   3  -5    1.45    0.64
   5  -3   5    0.25    0.65
   5  -3   5    1.79    1.01
   5  -3   5    1.03    0.91
   6  -3   5    7.31    0.79
   6  -3   5    6.87    1.22
   6  -3   5    3.81    1.27
   7  -3   5    0.03    0.91
   7  -3   5    0.77    0.53
   7  -3   5    1.89    1.27
  11   2  -5    3.56    0.63
  11   2  -5    3.81    0.48
  11   2  -5    1.99    0.60
 -11  -2   5    1.73    0.61
  10   2  -5    1.83    0.57
  10   2  -5    1.47    0.69
  10   2  -5    1.41    0.76
 -10  -2   5    2.56    0.72
   9   2  -5    7.69    0.84
   9   2  -5    8.13    1.08
   9   2  -5    7.95    0.90
  -9  -2   5    7.56    0.92
   8   2  -5    4.78    0.78
   8   2  -5    4.43    0.78
  -8  -2   5    2.75    0.72
   7   2  -5    1.53    0.57
   7   2  -5    1.77    0.63
  -7  -2   5    2.52    0.70
   6   2  -5    6.12    0.69
   6   2  -5    7.73    0.85
  -6  -2   5    7.30    0.81
   5   2  -5   32.01    1.81
   5   2  -5   28.31    1.60
   5   2  -5   29.73    1.65
  -5  -2   5   28.47    1.83
  -5  -2   5   27.20    1.75
   4   2  -5   16.28    1.27
   4   2  -5   16.97    1.17
   4   2  -5   19.02    1.76
  -4  -2   5   18.32    1.63
  -4  -2   5   16.30    1.26
   3   2  -5   23.43    1.89
  -3  -2   5   22.25    1.60
  -3  -2   5   23.47    1.74
   2   2  -5    8.17    1.06
  -2  -2   5    8.08    1.01
  -2  -2   5    7.65    0.88
   1   2  -5   45.58    2.64
  -1  -2   5   40.35    2.55
  -1  -2   5   45.49    2.56
   0   2  -5    6.52    0.92
   0  -2   5    9.59    1.01
  -1   2  -5    3.53    0.86
  -1   2  -5    2.10    0.77
   1  -2   5    2.33    0.63
  -2   2  -5    2.90    0.71
  -2   2  -5    1.48    0.70
   2  -2   5    2.55    0.67
  -3   2  -5    3.09    0.78
  -3   2  -5    3.21    0.56
  -3   2  -5    2.39    0.77
   3  -2   5    2.09    0.71
   3  -2   5    3.18    0.56
   3  -2   5    3.32    0.52
   3  -2   5    3.11    0.84
  -4   2  -5    9.11    0.82
   4  -2   5    9.82    1.45
   4  -2   5   10.62    1.16
   4  -2   5    9.40    0.83
   4  -2   5   10.03    1.19
   4  -2   5    9.70    0.88
  -5   2  -5    2.23    0.56
   5  -2   5    2.00    0.51
   5  -2   5    2.91    0.94
   5  -2   5    1.39    0.97
   5  -2   5    1.69    0.60
  -6   2  -5   55.01    2.98
   6  -2   5   60.36    3.01
   6  -2   5   58.44    3.87
   6  -2   5   54.47    4.55
   6  -2   5   59.12    4.09
   6  -2   5   55.72    3.07
  -7   2  -5    7.38    0.90
   7  -2   5    8.01    0.85
   7  -2   5    5.15    1.51
   7  -2   5    8.36    1.12
   7  -2   5    7.76    1.22
  -8   2  -5    1.77    0.68
   8  -2   5    6.80    1.85
   8  -2   5    1.55    0.86
   8  -2   5    1.39    0.70
   8  -2   5    1.53    0.83
  -9   2  -5    4.06    0.64
   9  -2   5    4.23    0.81
   9  -2   5    3.81    0.66
  12   1  -5    0.90    0.60
  12   1  -5    1.44    0.53
 -12  -1   5    1.08    0.53
  11   1  -5    0.03    0.65
  11   1  -5    0.44    0.73
 -11  -1   5    0.25    0.61
  10   1  -5    0.73    0.59
  10   1  -5    0.48    0.66
  10   1  -5    0.82    0.83
 -10  -1   5    0.58    0.68
   9   1  -5   37.60    2.17
   9   1  -5   35.90    2.17
   9   1  -5   36.71    2.61
  -9  -1   5   37.90    2.19
   8   1  -5   11.51    0.97
   8   1  -5   11.61    1.33
   8   1  -5    9.38    0.91
  -8  -1   5   10.07    0.96
   7   1  -5    9.14    0.83
   7   1  -5    9.68    0.94
  -7  -1   5    5.79    1.13
  -7  -1   5    9.79    0.87
  -6  -1   5   17.67    1.50
  -6  -1   5   19.41    1.51
  -6  -1   5   15.44    1.30
  -5  -1   5    9.25    0.91
  -5  -1   5    9.81    1.07
  -5  -1   5    8.76    0.94
   4   1  -5   52.46    3.21
  -4  -1   5   66.40    3.19
  -4  -1   5   59.76    3.08
  -4  -1   5   59.00    3.27
   3   1  -5   15.49    1.24
  -3  -1   5   13.06    1.18
  -3  -1   5   15.26    1.16
  -3  -1   5   14.88    1.05
   2   1  -5   14.16    1.19
  -2  -1   5   14.04    0.94
  -2  -1   5   13.33    1.08
  -2  -1   5   11.33    1.07
   1   1  -5   66.23    3.53
   1   1  -5   65.94    3.63
  -1  -1   5   73.43    3.34
  -1  -1   5   67.43    3.60
  -1  -1   5   66.23    3.50
   0   1  -5   18.55    1.44
   0   1  -5   20.58    1.42
   0  -1   5   19.45    1.37
   0  -1   5   19.86    1.31
   0  -1   5   20.43    1.10
  -1   1  -5    0.45    0.57
  -1   1  -5    0.65    0.49
   1  -1   5    0.16    0.45
  -2   1  -5   48.60    2.62
  -2   1  -5   43.39    2.64
  -3   1  -5    1.70    0.56
  -3   1  -5    2.33    0.62
   3  -1   5    5.04    0.81
  -4   1  -5    7.74    0.99
  -4   1  -5    8.93    0.99
  -5   1  -5    3.07    0.75
  -5   1  -5    1.67    0.73
   5  -1   5    2.51    0.52
   5  -1   5    2.48    0.46
  -6   1  -5    1.69    0.55
   6  -1   5    3.35    0.55
   6  -1   5    3.59    0.54
   6  -1   5    3.46    0.58
  -7   1  -5    0.56    0.58
   7  -1   5    0.16    0.53
   7  -1   5    0.41    0.54
   7  -1   5   -3.37    1.24
   7  -1   5    0.20    0.49
   8  -1   5    0.11    0.59
   8  -1   5    0.10    0.53
   8  -1   5   -0.10    0.51
   8  -1   5   -0.19    0.72
  -9   1  -5    2.74    0.67
   9  -1   5    2.32    0.63
   9  -1   5    3.49    0.57
   9  -1   5    3.72    0.67
   9  -1   5    2.46    0.80
 -10   1  -5    0.61    0.62
  10  -1   5   -0.32    0.65
  10  -1   5    0.32    0.53
  10  -1   5   -0.76    0.54
  11   0  -5    5.57    1.71
  11   0  -5   -0.29    0.64
  11   0  -5   -1.15    0.89
  10   0  -5    4.42    1.32
  10   0  -5   -0.41    0.87
  10   0  -5    0.10    0.61
  10   0  -5   -0.15    0.69
   9   0  -5    0.60    0.77
   9   0  -5    1.78    1.01
   9   0  -5    0.18    0.57
   9   0  -5    0.87    0.81
   8   0  -5    0.15    0.72
   8   0  -5    0.01    0.51
   8   0  -5    0.23    0.69
   8   0  -5    0.47    0.49
   8   0  -5    0.36    0.76
   7   0  -5    0.03    0.40
   7   0  -5    0.19    0.62
   7   0  -5   -0.27    0.63
   7   0  -5    0.41    0.66
  -7   0   5   -0.22    0.41
  -7   0   5    0.66    0.50
  -7   0   5   -0.45    0.51
  -6   0   5    0.27    0.49
  -6   0   5    0.39    0.45
  -6   0   5   -0.02    0.38
  -5   0   5   -0.06    0.39
  -5   0   5    0.29    0.42
  -5   0   5    0.04    0.39
  -4   0   5    0.04    0.35
  -4   0   5   -0.13    0.31
  -4   0   5    0.03    0.39
   3   0  -5    0.29    0.37
  -3   0   5    0.17    0.34
  -3   0   5    0.54    0.35
  -3   0   5    0.33    0.40
  -3   0   5    0.40    0.39
   2   0  -5    0.11    0.36
  -2   0   5    0.01    0.36
  -2   0   5   -0.07    0.30
   1   0  -5   -0.28    0.40
   1   0  -5    0.05    0.34
  -1   0   5   -0.13    0.39
  -1   0   5   -0.21    0.42
  -1   0   5    0.22    0.37
   0   0  -5    0.01    0.43
   0   0  -5    0.13    0.41
   0   0   5    0.31    0.47
   0   0   5   -0.29    0.47
  -1   0  -5   -0.44    0.50
  -1   0  -5    0.24    0.45
   1   0   5    0.08    0.49
   1   0   5   -0.16    0.50
  -2   0  -5   -0.09    0.46
  -2   0  -5   -0.12    0.48
   2   0   5    0.21    0.59
   2   0   5    0.07    0.55
  -3   0  -5    0.27    0.48
  -3   0  -5   -0.17    0.54
   3   0   5   -0.03    0.63
  -4   0  -5    0.08    0.57
   4   0   5    0.21    0.68
  -5   0  -5   -0.14    0.63
   6   0   5    0.20    0.44
   6   0   5    0.23    0.40
  -7   0  -5   -0.23    0.51
   7   0   5   -0.03    0.46
   7   0   5    0.28    0.50
  -8   0  -5   -0.19    0.61
   8   0   5    0.58    0.58
   8   0   5    0.13    0.70
   8   0   5    0.27    0.55
  -9   0  -5   -0.25    0.66
   9   0   5    0.71    0.58
   9   0   5    0.57    0.68
   9   0   5    0.13    0.57
 -10   0  -5   -0.24    0.66
  10   0   5   -0.12    0.47
  10   0   5    0.44    0.57
  10   0   5   -0.24    0.59
 -11   0  -5   -0.37    0.56
  11   0   5    0.52    0.46
  11   0   5   -0.08    0.43
  12  -1  -5    6.04    1.36
  11  -1  -5    0.36    0.66
  10  -1  -5    1.00    1.01
  10  -1  -5    0.23    0.69
   9  -1  -5   34.43    2.98
   9  -1  -5   39.35    2.87
   9  -1  -5   41.42    3.35
   8  -1  -5    8.47    1.11
   8  -1  -5    9.62    1.33
   8  -1  -5    7.90    1.12
   7  -1  -5    8.72    1.02
   7  -1  -5    8.56    1.32
   7  -1  -5    6.36    0.68
   7  -1  -5    9.01    1.14
  -6   1   5   12.71    1.06
  -5   1   5    7.24    0.79
  -4   1   5   60.89    3.16
   2  -1  -5   12.69    1.11
  -2   1   5   11.93    0.76
  -2   1   5   13.07    0.84
  -2   1   5   12.54    0.86
   1  -1  -5   74.12    3.73
  -1   1   5   66.40    3.65
  -1   1   5   73.48    3.55
  -1   1   5   72.36    3.65
   0   1   5   17.88    1.23
   0   1   5   18.36    1.26
  -1  -1  -5    1.11    0.47
   1   1   5    0.67    0.55
   1   1   5    0.99    0.57
  -2  -1  -5   51.77    2.92
   2   1   5   57.01    3.00
   2   1   5   53.49    3.03
  -3  -1  -5    5.71    0.86
   3   1   5    4.75    0.84
   3   1   5    5.18    0.95
  -4  -1  -5   13.19    1.31
   4   1   5   11.68    1.29
  -5  -1  -5    3.82    0.87
   5   1   5    2.45    0.99
  -6  -1  -5    2.52    0.72
  -6  -1  -5    3.00    0.68
   6   1   5    2.72    0.45
   6   1   5    4.08    0.68
   6   1   5    2.63    0.54
  -7  -1  -5    1.89    0.76
  -7  -1  -5    0.07    0.63
   7   1   5    0.46    0.56
   7   1   5    0.70    0.41
  -8  -1  -5    0.00    0.67
   8   1   5    0.65    0.45
   8   1   5    0.72    0.61
  -9  -1  -5    2.22    0.74
   9   1   5    3.50    0.67
 -10  -1  -5    0.47    0.65
  10   1   5    0.01    0.50
  11  -2  -5    1.68    0.85
  11  -2  -5    2.37    0.65
  10  -2  -5    1.61    1.01
  10  -2  -5    1.79    0.78
   9  -2  -5    8.15    1.30
   9  -2  -5    7.87    1.12
   8  -2  -5    4.44    1.12
   8  -2  -5    3.58    1.09
   8  -2  -5    3.28    0.87
   7  -2  -5    1.86    0.98
   7  -2  -5    0.86    0.78
   7  -2  -5    1.37    0.99
   6  -2  -5    7.86    1.22
   6  -2  -5    7.58    1.20
   5  -2  -5   30.49    2.56
   5  -2  -5   28.38    2.28
   5  -2  -5   27.35    2.26
   4  -2  -5   18.06    1.59
   4  -2  -5   16.63    1.65
   4  -2  -5   19.57    1.63
   3  -2  -5   26.81    1.97
  -3   2   5   26.98    1.54
   2  -2  -5    6.97    0.97
  -2   2   5    8.93    0.88
   1  -2  -5   55.31    3.05
  -1   2   5   50.57    2.76
  -1   2   5   50.45    2.87
   0  -2  -5    8.33    1.01
   0   2   5    9.73    1.01
   0   2   5    9.90    0.97
  -1  -2  -5    2.25    0.66
   1   2   5    3.28    0.76
   1   2   5    3.58    0.82
   2   2   5    2.46    0.87
   2   2   5    2.95    0.82
  -3  -2  -5    4.66    0.90
  -3  -2  -5    4.68    0.73
   3   2   5    3.29    0.53
   3   2   5    3.74    0.49
   3   2   5    3.73    1.07
  -4  -2  -5   11.39    1.19
   4   2   5   11.73    0.99
   4   2   5   12.10    0.91
  -5  -2  -5    1.86    0.72
   5   2   5    2.28    0.55
   5   2   5    1.78    0.48
  -6  -2  -5   62.07    3.53
   6   2   5   61.17    3.13
   6   2   5   63.85    3.47
   6   2   5   60.08    3.14
  -7  -2  -5   10.14    1.06
   7   2   5    8.02    0.77
   7   2   5    6.89    0.77
  -8  -2  -5    2.00    0.76
  -8  -2  -5    0.88    0.69
   8   2   5    1.76    0.55
   8   2   5    0.89    0.56
   8   2   5    1.19    0.54
  -9  -2  -5    4.33    0.69
   9   2   5    4.14    0.58
   9   2   5    3.51    0.57
   9  -3  -5    5.50    1.07
   9  -3  -5    4.74    0.86
   8  -3  -5    5.01    1.14
   8  -3  -5    4.44    0.95
   7  -3  -5    3.05    0.99
   7  -3  -5    4.24    1.18
   6  -3  -5    5.71    1.18
   6  -3  -5    5.39    1.21
   5  -3  -5    5.55    1.14
   5  -3  -5    6.29    1.20
   4  -3  -5   12.70    1.76
   4  -3  -5   13.08    1.78
   3  -3  -5    3.39    1.13
   3  -3  -5    3.69    1.00
   2  -3  -5   14.11    1.71
   2  -3  -5    9.16    1.30
   1  -3  -5    0.46    0.96
   1  -3  -5    0.01    0.95
   0  -3  -5   13.49    1.79
   0  -3  -5   15.17    1.74
  -1  -3  -5   24.88    2.29
  -1  -3  -5   25.43    2.23
  -1  -3  -5   21.95    1.59
   1   3   5   27.06    1.50
  -2  -3  -5   52.76    2.88
  -2  -3  -5   54.70    3.72
   2   3   5   50.46    2.62
   2   3   5   49.67    2.67
  -3  -3  -5   77.66    4.13
  -3  -3  -5   78.55    5.19
   3   3   5   75.59    3.74
   3   3   5   73.21    3.80
  -4  -3  -5    0.90    0.73
  -4  -3  -5    1.10    0.96
   4   3   5    1.39    0.49
   4   3   5    1.01    0.56
  -5  -3  -5    1.04    0.93
  -5  -3  -5    1.18    0.76
   5   3   5    0.22    0.46
   5   3   5    1.53    0.57
  -6  -3  -5    8.95    0.97
  -6  -3  -5    7.15    1.19
   6   3   5    7.03    0.75
   6   3   5    6.56    0.72
  -7  -3  -5   -0.07    0.58
   7   3   5    1.04    0.46
   7   3   5    0.79    0.48
  -8  -3  -5    2.87    0.55
   8   3   5    3.42    0.46
   5  -4  -5   -0.04    0.67
   5  -4  -5   -0.45    0.71
   4  -4  -5    0.80    0.85
   4  -4  -5    0.44    0.82
   3  -4  -5    0.74    0.88
   3  -4  -5    0.41    0.90
   2  -4  -5    0.44    0.93
   2  -4  -5    0.99    1.01
   1  -4  -5    5.25    1.12
   1  -4  -5    7.69    1.18
   0  -4  -5    1.89    0.98
   0  -4  -5    1.97    0.99
  -1  -4  -5    7.61    1.18
  -2  -4  -5   18.60    1.69
   2   4   5   14.41    1.04
   3   4   5    2.29    0.47
   4   4   5    6.85    0.59
   4   4  -6   -0.11    0.46
  -4  -4   6    0.66    0.51
   3   4  -6    1.18    0.51
  -3  -4   6    0.92    0.51
  -3  -4   6    1.45    0.84
   2   4  -6   -0.60    0.50
  -2  -4   6    0.52    0.52
  -2  -4   6   -0.27    0.90
   1   4  -6    0.46    0.51
  -1  -4   6   -0.20    0.48
  -1  -4   6    0.17    0.92
   0   4  -6    9.11    0.90
   0  -4   6    9.70    1.27
   0  -4   6    7.46    0.73
  -1   4  -6   13.12    1.08
   1  -4   6   14.58    1.69
  -2   4  -6    7.59    0.71
   2  -4   6    9.35    1.22
   3  -4   6   47.52    3.71
   8   3  -6    0.30    0.52
  -8  -3   6    0.84    0.56
   7   3  -6    1.18    0.58
  -7  -3   6    1.20    0.62
  -7  -3   6    0.23    0.54
   6   3  -6    1.08    0.47
   6   3  -6    1.18    0.52
  -6  -3   6    0.85    0.63
  -6  -3   6    1.44    0.65
   5   3  -6    0.86    0.56
   5   3  -6    0.37    0.47
  -5  -3   6   -0.43    0.59
  -5  -3   6    1.25    0.60
   4   3  -6    0.01    0.54
  -4  -3   6   -0.59    0.62
   3   3  -6    6.63    0.71
  -3  -3   6    5.70    0.85
   2   3  -6    3.19    0.60
  -2  -3   6    2.95    0.70
   1   3  -6    4.27    0.62
  -1  -3   6    2.57    0.65
   0   3  -6    0.94    0.51
   0  -3   6    1.42    0.61
  -1   3  -6    0.91    0.55
   1  -3   6    1.83    0.63
  -2   3  -6   18.65    1.39
   2  -3   6   19.65    2.24
   2  -3   6   22.80    1.44
  -3   3  -6    4.97    0.73
   3  -3   6    4.51    0.62
   3  -3   6    4.48    1.16
  -4   3  -6   14.46    1.28
   4  -3   6   12.94    1.22
   4  -3   6   11.63    1.77
   4  -3   6   13.14    1.00
  -5   3  -6    0.31    0.59
   5  -3   6   -0.52    0.61
   5  -3   6    0.50    0.95
  -6   3  -6    0.46    0.57
   6  -3   6   -0.33    0.91
   6  -3   6   -0.27    0.56
   7  -3   6    3.47    0.56
   7  -3   6    2.74    0.88
   7  -3   6    4.39    1.10
  11   2  -6    0.03    0.53
  11   2  -6    0.44    0.55
 -11  -2   6    0.30    0.53
  10   2  -6    0.52    0.69
  10   2  -6    0.98    0.69
  10   2  -6    0.91    0.54
 -10  -2   6    0.25    0.65
   9   2  -6    1.13    0.59
   9   2  -6    1.62    0.80
   9   2  -6    1.62    0.69
  -9  -2   6    0.94    0.69
   8   2  -6    2.34    0.89
   8   2  -6    1.08    0.67
   8   2  -6    0.66    0.62
  -8  -2   6    0.41    0.70
   7   2  -6    7.57    1.02
   7   2  -6    4.65    0.70
   7   2  -6    7.37    0.89
  -7  -2   6    5.08    0.82
   6   2  -6    2.19    0.63
   6   2  -6    3.33    0.58
  -6  -2   6    2.44    0.67
   5   2  -6    1.33    0.55
   5   2  -6    0.66    0.55
  -5  -2   6    1.06    0.60
   4   2  -6   39.06    2.57
   4   2  -6   36.00    2.12
   4   2  -6   36.38    1.94
  -4  -2   6   36.39    2.56
  -4  -2   6   34.26    2.12
  -4  -2   6   37.15    2.03
   3   2  -6    0.84    0.86
  -3  -2   6   -0.12    0.63
  -3  -2   6    0.70    0.53
  -3  -2   6    0.52    0.55
   2   2  -6   34.10    2.28
  -2  -2   6   33.59    2.13
  -2  -2   6   34.39    2.23
   1   2  -6    2.38    0.77
  -1  -2   6    2.03    0.72
  -1  -2   6    2.41    0.61
   0   2  -6    1.33    0.73
   0  -2   6    1.57    0.57
  -1   2  -6    4.85    0.93
   1  -2   6    5.09    0.82
  -2   2  -6    2.56    0.56
  -2   2  -6    2.73    0.81
   2  -2   6    2.34    0.82
   2  -2   6    2.58    0.54
   2  -2   6    1.40    0.59
   2  -2   6    1.40    0.54
  -3   2  -6    6.97    0.70
   3  -2   6    5.16    0.68
   3  -2   6    6.24    0.69
  -4   2  -6    6.28    0.73
   4  -2   6    6.15    0.75
   4  -2   6    6.77    0.72
   4  -2   6    8.24    1.17
   4  -2   6    7.58    1.06
  -5   2  -6   15.46    1.23
   5  -2   6   13.08    1.60
   5  -2   6   15.05    1.26
   5  -2   6   15.77    1.14
   5  -2   6   14.31    1.85
  -6   2  -6    0.61    0.62
   6  -2   6    0.18    0.55
   6  -2   6    0.53    0.80
   6  -2   6    0.91    0.91
   6  -2   6    0.19    0.50
  -7   2  -6   11.14    1.04
   7  -2   6   13.35    1.23
   7  -2   6   12.31    1.66
   7  -2   6   12.12    1.00
   7  -2   6   13.92    1.47
  -8   2  -6    0.18    0.64
   8  -2   6    0.13    0.73
   8  -2   6    0.50    0.63
  -9   2  -6    2.60    0.58
   9  -2   6    3.06    0.71
   9  -2   6    3.65    0.62
  12   1  -6    3.07    0.66
  12   1  -6    4.01    0.61
 -12  -1   6    4.38    0.57
  11   1  -6    0.07    0.67
  11   1  -6   -0.35    0.70
  11   1  -6   -3.20    1.86
 -11  -1   6    0.18    0.59
  10   1  -6    1.31    0.72
  10   1  -6    4.13    0.64
  10   1  -6    2.12    0.85
 -10  -1   6    2.84    0.69
   9   1  -6    0.95    0.69
   9   1  -6    0.89    0.60
   9   1  -6    0.72    0.86
  -9  -1   6    0.88    0.67
   8   1  -6    0.39    0.60
   8   1  -6    1.12    0.57
   8   1  -6    0.65    0.79
  -8  -1   6    1.02    0.64
   7   1  -6    1.97    0.57
   7   1  -6    3.49    0.62
   7   1  -6    3.83    0.81
  -7  -1   6    3.40    0.65
   6   1  -6    2.14    0.54
  -6  -1   6    2.09    0.60
  -6  -1   6    2.13    0.77
  -6  -1   6    1.29    0.67
  -5  -1   6    7.69    0.89
  -5  -1   6    6.43    0.82
  -5  -1   6    5.00    0.71
  -4  -1   6   17.45    1.40
  -4  -1   6   17.51    1.25
  -4  -1   6   18.52    1.37
   3   1  -6   -0.01    0.54
  -3  -1   6   -0.17    0.48
  -3  -1   6    0.04    0.46
  -3  -1   6    0.35    0.43
   2   1  -6  123.09    6.25
  -2  -1   6  126.35    6.05
  -2  -1   6  125.61    6.39
  -2  -1   6  125.90    6.23
   1   1  -6    5.72    0.79
  -1  -1   6    6.56    0.68
  -1  -1   6    7.41    0.83
  -1  -1   6    7.20    0.83
   0   1  -6  112.31    5.59
   0  -1   6  109.49    5.53
  -1   1  -6    1.15    0.64
  -1   1  -6    0.92    0.61
   1  -1   6    1.80    0.57
  -2   1  -6   -0.04    0.53
  -2   1  -6    0.85    0.64
  -3   1  -6   48.94    2.71
  -3   1  -6   39.60    2.67
   3  -1   6   45.87    2.71
  -4   1  -6   15.20    1.49
  -5   1  -6   19.74    1.31
   5  -1   6   20.69    1.25
   5  -1   6   18.40    1.35
   5  -1   6   20.15    1.23
   5  -1   6   16.27    1.84
  -6   1  -6    4.30    0.68
   6  -1   6    5.51    0.66
   6  -1   6    4.31    0.59
   6  -1   6    5.39    0.67
  -7   1  -6   26.19    1.76
   7  -1   6   27.16    1.72
   7  -1   6   27.08    1.68
   7  -1   6   27.11    1.77
   7  -1   6   33.44    2.71
   8  -1   6   -0.27    0.71
   8  -1   6   -0.08    0.57
   8  -1   6    0.00    0.53
   8  -1   6    0.41    0.56
  -9   1  -6    0.92    0.65
   9  -1   6    1.10    0.58
   9  -1   6    1.90    0.62
   9  -1   6    1.39    0.50
   9  -1   6    0.78    0.72
 -10   1  -6    1.14    0.62
  10  -1   6    0.44    0.62
  10  -1   6    0.49    0.54
  10   0  -6   -0.39    0.72
  10   0  -6    0.74    0.90
  10   0  -6    0.61    0.64
   9   0  -6   26.65    2.51
   9   0  -6   22.80    1.98
   9   0  -6   25.35    1.63
   9   0  -6   21.21    1.96
   8   0  -6   71.00    3.86
   8   0  -6   87.93    5.00
   8   0  -6   73.17    5.83
   8   0  -6   75.26    4.64
   7   0  -6    0.55    0.51
   7   0  -6    0.58    0.63
   7   0  -6    0.08    0.62
   7   0  -6    0.33    0.65
  -7   0   6    0.21    0.49
  -7   0   6    0.25    0.64
  -6   0   6   28.53    1.74
  -6   0   6   29.56    1.86
  -6   0   6   30.86    1.83
  -5   0   6    1.13    0.52
  -5   0   6    1.03    0.43
  -5   0   6    1.20    0.49
  -4   0   6    6.11    0.72
  -4   0   6    7.86    0.76
  -4   0   6    7.80    0.75
  -3   0   6   43.12    2.19
  -3   0   6   41.70    2.24
  -3   0   6   38.46    2.21
   2   0  -6    1.89    0.45
  -2   0   6    2.28    0.42
   1   0  -6   31.49    1.78
  -1   0   6   31.41    1.82
  -1   0   6   29.72    1.75
   0   0  -6  253.18   11.94
   0   0   6  252.99   11.92
   0   0   6  238.42   12.28
  -1   0  -6   15.82    1.24
   1   0   6   14.86    1.22
   1   0   6   15.28    1.26
  -2   0  -6    6.05    0.81
   2   0   6    6.02    0.81
   2   0   6    6.55    0.91
  -3   0  -6  105.29    5.69
   3   0   6  118.73    5.73
  -4   0  -6    0.05    0.59
   4   0   6    1.92    0.81
  -5   0  -6   19.74    1.68
   6   0   6    3.25    0.54
   6   0   6    2.88    0.55
  -7   0  -6   38.78    2.15
   7   0   6   36.80    2.08
   7   0   6   37.87    2.23
  -8   0  -6   12.27    1.26
   8   0   6   12.69    1.20
   8   0   6   13.24    1.44
   8   0   6   13.24    1.17
  -9   0  -6    3.62    0.73
   9   0   6    2.31    0.63
   9   0   6    3.57    0.63
   9   0   6    2.99    0.76
 -10   0  -6    4.09    0.73
  10   0   6    3.41    0.60
  10   0   6    2.13    0.50
  10   0   6    2.51    0.67
  11  -1  -6    0.09    1.13
  11  -1  -6    0.44    0.66
  10  -1  -6    1.75    1.04
  10  -1  -6    2.14    0.88
  10  -1  -6    2.01    0.76
   9  -1  -6    1.08    0.89
   9  -1  -6    1.18    0.99
   9  -1  -6    0.99    0.81
   8  -1  -6    1.40    0.91
   8  -1  -6    0.48    0.86
   8  -1  -6    0.02    0.78
   7  -1  -6    1.86    0.78
   7  -1  -6    2.14    0.83
   7  -1  -6    1.17    0.81
   6  -1  -6    1.65    0.74
  -6   1   6    1.02    0.52
  -5   1   6    7.50    0.88
  -4   1   6   19.43    1.39
  -3   1   6    0.75    0.34
  -3   1   6    0.42    0.35
  -2   1   6  125.76    6.22
  -2   1   6  133.11    6.46
  -1   1   6    4.86    0.66
  -1   1   6    6.01    0.63
   0   1   6  124.42    6.00
   0   1   6  118.55    6.17
   1   1   6    1.00    0.62
   1   1   6    1.66    0.61
  -2  -1  -6    0.66    0.54
   2   1   6    0.20    0.65
   2   1   6    0.09    0.65
  -3  -1  -6   46.40    2.60
   3   1   6   40.44    2.61
  -4  -1  -6   19.00    1.60
   4   1   6   15.81    1.54
  -5  -1  -6   20.60    1.42
  -5  -1  -6   21.16    1.54
  -5  -1  -6   20.29    1.80
   5   1   6   21.84    1.44
   5   1   6   21.09    1.25
   5   1   6   20.58    1.32
  -6  -1  -6    4.20    0.76
  -6  -1  -6    8.17    0.95
   6   1   6    6.11    0.60
   6   1   6    5.59    0.66
   6   1   6    6.63    0.83
  -7  -1  -6   26.23    1.77
  -7  -1  -6   23.79    1.64
   7   1   6   21.96    1.61
   7   1   6   23.70    1.39
   7   1   6   23.79    1.47
  -8  -1  -6    0.14    0.66
   8   1   6    0.55    0.57
   8   1   6    0.17    0.45
  -9  -1  -6    1.65    0.70
   9   1   6    0.78    0.54
 -10  -1  -6    0.68    0.61
  10   1   6    0.63    0.46
  11  -2  -6   -1.69    0.78
  11  -2  -6    0.14    0.63
  10  -2  -6    0.64    0.94
  10  -2  -6    0.28    0.71
   9  -2  -6    2.21    1.03
   9  -2  -6    0.96    0.83
   8  -2  -6    1.03    0.95
   8  -2  -6    0.64    0.79
   7  -2  -6    4.46    0.94
   7  -2  -6    5.07    1.12
   7  -2  -6    5.17    1.09
   6  -2  -6    2.80    0.98
   6  -2  -6    1.98    0.92
   6  -2  -6    1.70    0.96
   5  -2  -6    1.33    0.86
   5  -2  -6    0.49    0.77
   4  -2  -6   39.29    2.56
   4  -2  -6   30.82    2.35
   4  -2  -6   31.18    2.52
   3  -2  -6    0.41    0.73
   3  -2  -6    0.14    0.61
   3  -2  -6    0.31    0.77
  -3   2   6    0.17    0.40
   2  -2  -6   37.98    2.43
  -2   2   6   37.95    2.16
   1  -2  -6    3.27    0.74
  -1   2   6    2.88    0.67
   0  -2  -6    0.89    0.60
   0   2   6    0.95    0.65
   0   2   6    1.15    0.65
   1   2   6    6.78    0.96
   1   2   6    4.33    0.84
  -2  -2  -6    1.73    0.59
  -2  -2  -6    0.58    0.84
   2   2   6    3.13    0.88
   2   2   6    2.28    0.48
   2   2   6    2.52    0.80
  -3  -2  -6    7.75    1.02
  -3  -2  -6    7.88    0.92
   3   2   6    6.51    0.65
   3   2   6    7.89    0.71
  -4  -2  -6    9.41    1.02
   4   2   6    8.02    0.76
   4   2   6    8.00    0.76
  -5  -2  -6   17.21    1.49
   5   2   6   15.12    1.22
   5   2   6   15.34    1.12
  -6  -2  -6   -0.36    0.74
   6   2   6   -0.12    0.48
   6   2   6    0.40    0.55
  -7  -2  -6    9.74    1.05
   7   2   6   12.22    1.08
   7   2   6   11.16    1.05
   7   2   6   13.02    1.01
  -8  -2  -6   -0.05    0.59
   8   2   6    0.17    0.42
   8   2   6    0.55    0.52
   8   2   6   -0.06    0.50
  -9  -2  -6    4.44    0.65
   9   2   6    3.37    0.54
   9   2   6    2.19    0.48
   8  -3  -6    1.19    0.98
   7  -3  -6    0.58    1.10
   6  -3  -6    1.56    1.09
   6  -3  -6    0.78    1.10
   5  -3  -6    1.74    1.09
   5  -3  -6    0.43    1.00
   4  -3  -6   -1.09    0.97
   4  -3  -6    1.18    1.08
   3  -3  -6    5.77    1.29
   3  -3  -6    8.12    1.20
   2  -3  -6    3.47    1.15
   2  -3  -6    3.00    1.02
   1  -3  -6    5.51    1.15
   1  -3  -6    5.14    1.19
   0  -3  -6    1.99    1.07
   0  -3  -6    1.66    0.99
   0  -3  -6    1.02    1.04
  -1  -3  -6    1.95    1.11
  -1  -3  -6    0.48    0.99
   1   3   6    0.84    0.47
  -2  -3  -6   17.73    2.05
  -2  -3  -6   19.88    1.40
   2   3   6   20.30    1.24
   2   3   6   19.51    1.33
  -3  -3  -6    4.64    1.15
  -3  -3  -6    6.93    0.86
   3   3   6    5.34    0.69
   3   3   6    6.36    0.66
  -4  -3  -6   11.51    1.47
  -4  -3  -6   13.13    1.31
   4   3   6   13.22    0.98
   4   3   6   11.86    1.09
  -5  -3  -6    0.32    0.74
  -5  -3  -6    0.16    0.93
   5   3   6   -0.08    0.45
   5   3   6    0.06    0.54
  -6  -3  -6    0.13    0.91
  -6  -3  -6   -0.20    0.64
   6   3   6    0.43    0.54
   6   3   6    0.18    0.49
  -7  -3  -6    2.08    0.56
   7   3   6    2.47    0.47
   7   3   6    3.47    0.50
   4  -4  -6    0.16    0.79
   4  -4  -6    0.77    0.82
   3  -4  -6    1.53    0.85
   3  -4  -6    2.35    0.93
   2  -4  -6   -0.81    0.95
   2  -4  -6   -0.27    0.87
   1  -4  -6    0.12    0.92
   1  -4  -6    0.25    0.98
   0  -4  -6    8.96    1.21
   0  -4  -6    9.52    1.23
  -1  -4  -6   14.15    1.60
  -2  -4  -6    8.77    1.11
   2   4   6    6.91    0.71
   3   4   6   37.87    1.93
   4   4  -7    3.75    0.55
  -4  -4   7    4.36    0.58
   3   4  -7    4.07    0.56
  -3  -4   7    3.66    0.59
  -3  -4   7    4.02    0.93
   2   4  -7    0.82    0.51
  -2  -4   7    1.25    0.91
  -2  -4   7    1.79    0.51
   1   4  -7    5.35    0.64
  -1  -4   7    4.93    0.59
  -1  -4   7    4.39    1.04
   0   4  -7    0.65    0.52
   0  -4   7    0.46    0.89
   0  -4   7    1.06    0.40
  -1   4  -7    0.80    0.49
   1  -4   7    1.23    0.88
  -2   4  -7    1.41    0.45
   2  -4   7    0.63    0.81
   8   3  -7    3.19    0.67
  -8  -3   7    4.65    0.61
  -7  -3   7    4.10    0.65
  -7  -3   7    3.87    0.65
  -6  -3   7    0.07    0.55
  -6  -3   7    0.98    0.60
   5   3  -7   12.42    1.10
  -5  -3   7   13.45    1.15
  -5  -3   7   13.22    1.22
   4   3  -7    2.79    0.62
   4   3  -7    2.33    0.72
  -4  -3   7    3.05    0.72
   3   3  -7   17.39    1.27
  -3  -3   7   16.76    1.40
   2   3  -7    0.21    0.54
  -2  -3   7    0.20    0.60
   1   3  -7    0.45    0.53
  -1  -3   7    0.84    0.65
   0   3  -7    6.70    0.74
   0  -3   7    6.55    0.84
  -1   3  -7    9.21    0.85
   1  -3   7   10.07    1.06
  -2   3  -7   23.39    1.65
   2  -3   7   27.80    1.69
   2  -3   7   28.41    2.58
  -3   3  -7    2.92    0.65
   3  -3   7    1.53    0.98
   3  -3   7    2.46    0.57
   3  -3   7    1.40    0.66
  -4   3  -7   16.03    1.24
   4  -3   7   13.27    1.04
   4  -3   7   14.58    1.22
   4  -3   7   13.93    1.82
  -5   3  -7    9.53    0.84
   5  -3   7    8.26    0.81
   5  -3   7    8.44    1.30
  -6   3  -7    0.23    0.56
   6  -3   7    0.83    0.54
   6  -3   7    0.69    0.84
  11   2  -7    1.52    0.52
 -11  -2   7    1.90    0.52
  10   2  -7    1.58    0.70
  10   2  -7    1.71    0.72
 -10  -2   7    1.36    0.66
   9   2  -7    5.70    0.83
   9   2  -7    7.80    0.85
   9   2  -7    6.30    0.95
  -9  -2   7    4.56    0.80
   8   2  -7   28.04    1.79
   8   2  -7   28.93    2.24
   8   2  -7   28.48    1.85
  -8  -2   7   27.47    1.83
   7   2  -7    1.19    0.60
   7   2  -7    0.42    0.62
   7   2  -7    1.49    0.83
  -7  -2   7    0.83    0.66
   6   2  -7    4.00    0.64
   6   2  -7    4.45    0.74
  -6  -2   7    3.80    0.72
   5   2  -7    9.02    0.89
  -5  -2   7   12.28    1.13
   4   2  -7    0.23    0.48
   4   2  -7    0.03    0.54
  -4  -2   7    0.59    0.57
  -4  -2   7   -0.10    0.53
  -4  -2   7    0.60    0.53
   3   2  -7    2.00    0.95
   3   2  -7    3.25    0.61
   3   2  -7    2.94    0.53
  -3  -2   7    0.72    0.59
  -3  -2   7    2.66    0.57
  -3  -2   7    2.97    0.88
  -3  -2   7    2.20    0.53
   2   2  -7    2.56    0.49
   2   2  -7    3.06    0.95
  -2  -2   7    3.77    0.74
  -2  -2   7    3.58    0.84
  -2  -2   7    2.07    0.50
  -2  -2   7    2.99    0.62
  -2  -2   7    2.66    0.62
   1   2  -7   49.34    2.64
   1   2  -7   55.45    3.14
  -1  -2   7   50.02    2.86
  -1  -2   7   50.69    3.08
  -1  -2   7   58.49    3.08
   0   2  -7    6.23    0.62
   0   2  -7    3.25    0.90
   0  -2   7    7.15    0.75
   0  -2   7    4.77    0.82
   0  -2   7    6.70    0.70
  -1   2  -7   26.58    1.59
   1  -2   7   27.63    1.67
   1  -2   7   26.96    1.67
  -2   2  -7    3.62    0.59
   2  -2   7    2.67    0.58
   2  -2   7    2.27    0.50
  -3   2  -7    1.63    0.59
   3  -2   7    3.12    0.59
   3  -2   7    2.60    0.94
   3  -2   7    3.18    0.64
  -4   2  -7   32.24    1.93
   4  -2   7   35.77    2.02
   4  -2   7   33.91    2.02
   4  -2   7   33.85    2.95
  -5   2  -7    8.78    0.86
   5  -2   7    8.53    0.87
   5  -2   7   10.51    0.95
   5  -2   7   11.41    1.40
  -6   2  -7    1.09    0.63
   6  -2   7    1.08    0.57
   6  -2   7    1.32    0.83
   6  -2   7    1.98    0.58
   6  -2   7    1.14    0.89
  -7   2  -7    1.51    0.68
   7  -2   7    0.75    0.76
   7  -2   7    1.16    0.50
   7  -2   7    1.64    0.64
  -8   2  -7    2.95    0.70
   8  -2   7    4.17    0.67
   8  -2   7    2.62    0.76
  -9   2  -7    0.09    0.48
   9  -2   7   -0.32    0.43
   9  -2   7   -0.08    0.55
  12   1  -7    2.71    0.65
  12   1  -7    2.06    0.53
  11   1  -7    1.17    0.66
  11   1  -7   -0.04    0.70
 -11  -1   7    0.51    0.62
  10   1  -7   -0.41    0.68
  10   1  -7   -0.08    0.78
 -10  -1   7    0.15    0.62
   9   1  -7    3.56    0.92
   9   1  -7    4.84    0.85
   9   1  -7    4.88    0.71
  -9  -1   7    3.65    0.71
   8   1  -7   12.93    1.13
   8   1  -7   11.59    1.43
   8   1  -7   12.74    1.25
  -8  -1   7   12.12    1.02
   7   1  -7   11.02    1.29
   7   1  -7   10.71    0.97
   7   1  -7    9.11    1.02
  -7  -1   7   11.43    0.92
   6   1  -7    2.37    0.56
   6   1  -7    3.72    0.77
   6   1  -7    3.59    0.60
  -6  -1   7    2.26    0.71
  -6  -1   7    3.63    0.60
  -6  -1   7    2.45    0.86
  -5  -1   7   11.46    1.09
  -5  -1   7   11.95    1.25
  -5  -1   7   15.23    1.25
  -4  -1   7   47.58    2.70
  -4  -1   7   47.16    2.55
  -4  -1   7   41.77    2.59
   3   1  -7    2.41    0.68
  -3  -1   7    1.22    0.57
  -3  -1   7    1.84    0.53
  -3  -1   7    2.31    0.61
   2   1  -7    2.89    0.67
  -2  -1   7    4.42    0.73
  -2  -1   7    5.62    0.74
  -2  -1   7    4.64    0.64
   1   1  -7    0.10    0.64
  -1  -1   7    0.31    0.59
  -1  -1   7    0.36    0.51
  -1  -1   7   -0.11    0.39
   0   1  -7   41.74    2.48
   0  -1   7   41.11    2.37
  -1   1  -7   42.49    2.59
   1  -1   7   43.66    2.50
  -2   1  -7    3.22    0.82
  -3   1  -7    1.44    0.75
  -4   1  -7   -0.26    0.44
  -4   1  -7    0.94    0.75
   4  -1   7    0.37    0.41
   4  -1   7   -0.14    0.38
   4  -1   7    0.85    0.50
  -5   1  -7    2.33    0.58
   5  -1   7    0.69    0.46
   5  -1   7    1.04    0.44
   5  -1   7    1.59    0.56
  -6   1  -7   15.45    1.30
   6  -1   7   18.01    1.20
   6  -1   7   16.86    1.27
   6  -1   7   12.79    1.73
   6  -1   7   18.08    1.24
  -7   1  -7    8.41    0.85
   7  -1   7    5.78    0.73
   7  -1   7    5.43    0.75
   7  -1   7    7.38    0.81
   8  -1   7    3.47    0.63
   8  -1   7    2.77    0.63
   8  -1   7    3.00    0.84
   8  -1   7    2.98    0.65
  -9   1  -7    8.31    0.86
   9  -1   7    7.10    0.76
   9  -1   7    6.02    0.94
   9  -1   7    6.86    0.76
   9  -1   7    7.88    0.77
 -10   1  -7    3.41    0.60
  10  -1   7    1.51    0.62
  10  -1   7    2.10    0.54
   9   0  -7   -0.60    0.73
   9   0  -7   -0.72    0.81
   9   0  -7   -0.67    0.61
   8   0  -7    0.94    0.79
   8   0  -7    0.87    0.63
   8   0  -7    0.88    0.71
   7   0  -7   -0.01    0.64
   7   0  -7   -0.25    0.55
   7   0  -7   -0.13    0.66
   7   0  -7    1.00    0.77
  -6   0   7    0.41    0.50
  -6   0   7    0.38    0.52
  -6   0   7    0.21    0.45
  -5   0   7    0.05    0.39
  -5   0   7    0.35    0.48
  -5   0   7    0.41    0.48
  -4   0   7    0.32    0.41
  -4   0   7    0.28    0.45
  -4   0   7   -0.26    0.40
  -3   0   7    0.18    0.45
  -3   0   7    0.11    0.43
  -3   0   7   -0.12    0.41
  -2   0   7    0.31    0.37
   1   0  -7   -0.17    0.49
  -1   0   7    0.39    0.49
  -1   0   7    0.19    0.56
   0   0  -7   -0.14    0.50
   0   0   7   -0.43    0.55
   0   0   7    0.51    0.51
  -1   0  -7    0.20    0.50
   1   0   7   -0.36    0.57
   1   0   7   -0.51    0.57
  -2   0  -7   -0.76    0.59
   2   0   7    0.14    0.60
  -3   0  -7    0.29    0.68
   3   0   7    0.58    0.64
  -4   0  -7   -0.54    0.66
   4   0   7   -0.60    0.60
  -5   0  -7   -0.09    0.55
   5   0   7   -0.34    0.47
   5   0   7   -0.43    0.43
   5   0   7   -0.12    0.41
   6   0   7    0.21    0.46
   6   0   7   -0.41    0.46
  -7   0  -7    0.15    0.60
   7   0   7    0.32    0.55
   7   0   7   -0.06    0.57
  -8   0  -7    0.38    0.61
   8   0   7    0.95    0.57
   8   0   7    0.15    0.60
  -9   0  -7    0.19    0.66
   9   0   7   -0.23    0.60
   9   0   7   -0.39    0.55
   9   0   7   -0.05    0.54
 -10   0  -7   -0.24    0.59
  10   0   7    0.20    0.47
  10   0   7   -0.04    0.39
  10   0   7    0.18    0.51
  11  -1  -7    6.53    1.45
  11  -1  -7    0.64    0.74
  10  -1  -7   -2.49    1.04
  10  -1  -7    0.97    0.86
  10  -1  -7    0.20    0.72
   9  -1  -7    3.97    1.15
   9  -1  -7    2.87    0.94
   9  -1  -7    3.62    0.95
   8  -1  -7    9.87    1.26
   8  -1  -7   11.38    1.51
   8  -1  -7   12.83    1.67
   7  -1  -7    9.17    1.43
   7  -1  -7   10.07    0.91
   7  -1  -7   10.06    1.17
   7  -1  -7    7.27    1.06
   6  -1  -7    1.84    0.77
   6  -1  -7    2.02    0.83
   6  -1  -7    3.16    0.77
   6  -1  -7    3.35    0.60
  -6   1   7    2.30    0.64
  -5   1   7   14.05    1.23
  -4   1   7   43.21    2.63
  -4   1   7   49.15    2.43
  -3   1   7    2.19    0.47
  -2   1   7    6.24    0.61
  -2   1   7    5.73    0.68
  -1   1   7    0.44    0.51
  -1   1   7   -0.08    0.53
   0   1   7   43.26    2.49
   0   1   7   42.41    2.40
   1   1   7   45.11    2.61
   1   1   7   47.80    2.74
   2   1   7    3.38    0.85
   2   1   7    2.36    0.74
   3   1   7    2.95    0.82
  -4  -1  -7    0.21    0.59
   4   1   7    0.59    0.71
   4   1   7    0.17    0.41
   4   1   7   -0.16    0.36
  -5  -1  -7    1.65    0.60
  -5  -1  -7    0.88    0.69
   5   1   7    1.55    0.51
   5   1   7    0.95    0.40
   5   1   7    1.57    0.55
  -6  -1  -7   17.10    1.35
  -6  -1  -7   15.92    1.47
   6   1   7   15.05    1.29
   6   1   7   17.10    1.22
   6   1   7   17.66    1.09
  -7  -1  -7    6.27    0.81
  -7  -1  -7    5.09    0.87
   7   1   7    6.32    0.81
   7   1   7    6.65    0.70
   7   1   7    6.13    0.62
  -8  -1  -7    2.91    0.78
  -8  -1  -7    3.87    0.75
   8   1   7    1.82    0.57
  -9  -1  -7    6.98    0.80
   9   1   7    6.67    0.74
 -10  -1  -7    2.69    0.57
  10   1   7    1.77    0.44
  11  -2  -7   -0.81    1.09
  10  -2  -7   -0.09    0.88
  10  -2  -7    1.34    0.71
   9  -2  -7    6.04    1.16
   9  -2  -7    3.39    0.93
   8  -2  -7   24.43    2.05
   8  -2  -7   23.05    2.37
   7  -2  -7    1.02    0.82
   7  -2  -7    0.90    0.93
   6  -2  -7    4.04    1.07
   6  -2  -7    3.78    0.99
   5  -2  -7    8.30    1.13
   5  -2  -7   10.73    1.25
   5  -2  -7   11.11    1.20
   4  -2  -7    0.00    0.78
   4  -2  -7   -1.11    0.78
   4  -2  -7   -0.12    0.84
   3  -2  -7    2.43    0.82
   3  -2  -7    1.32    0.79
   3  -2  -7    1.93    0.88
   2  -2  -7    3.23    0.87
   2  -2  -7    2.95    0.84
   2  -2  -7    2.38    0.85
  -2   2   7    4.28    0.71
   1  -2  -7   57.50    3.61
   1  -2  -7   56.01    3.87
   1  -2  -7   55.63    3.97
  -1   2   7   60.71    3.23
   0  -2  -7    8.14    1.03
   0  -2  -7    6.13    1.06
   0  -2  -7    6.08    0.93
   0   2   7    5.51    0.85
   0   2   7    6.24    0.94
  -1  -2  -7   28.30    2.27
  -1  -2  -7   27.77    2.19
  -1  -2  -7   28.07    1.74
   1   2   7   28.21    1.65
   1   2   7   28.33    2.03
   1   2   7   29.08    2.02
  -2  -2  -7    2.18    0.90
  -2  -2  -7    3.68    0.70
   2   2   7    2.76    0.53
  -3  -2  -7    3.12    0.73
  -3  -2  -7    3.23    0.93
   3   2   7    2.76    0.53
   3   2   7    3.37    0.54
  -4  -2  -7   36.28    2.25
   4   2   7   35.97    1.95
   4   2   7   34.86    1.99
  -5  -2  -7    9.20    1.05
   5   2   7   10.13    0.94
   5   2   7   11.25    1.03
  -6  -2  -7    2.10    0.80
   6   2   7    0.81    0.53
   6   2   7    1.76    0.58
  -7  -2  -7    1.72    0.74
   7   2   7    0.92    0.57
   7   2   7    1.46    0.52
   7   2   7    1.88    0.55
  -8  -2  -7    2.11    0.63
   8   2   7    2.52    0.54
   8   2   7    3.36    0.55
   8   2   7    3.45    0.59
  -9  -2  -7    0.17    0.42
   9   2   7    0.38    0.39
   9   2   7    0.21    0.31
   8  -3  -7    4.38    1.02
   7  -3  -7    5.68    1.17
   7  -3  -7    5.86    1.06
   6  -3  -7    0.48    1.08
   6  -3  -7    0.77    1.05
   5  -3  -7   14.76    1.92
   5  -3  -7   13.92    1.91
   4  -3  -7    3.30    1.09
   4  -3  -7    4.50    1.20
   3  -3  -7   21.86    2.24
   3  -3  -7   21.57    2.11
   2  -3  -7    0.83    0.98
   2  -3  -7    0.88    1.14
   1  -3  -7    1.35    1.13
   1  -3  -7   -0.39    0.98
   1  -3  -7    0.45    1.09
   0  -3  -7    7.89    1.38
   0  -3  -7    6.13    1.23
   0  -3  -7    8.32    1.26
  -1  -3  -7    8.64    1.34
  -1  -3  -7    8.60    1.27
  -1  -3  -7   13.70    1.60
   1   3   7    8.88    0.87
   1   3   7   10.14    0.99
  -2  -3  -7   27.43    1.67
  -2  -3  -7   26.00    2.40
   2   3   7   27.60    1.61
   2   3   7   24.22    1.53
  -3  -3  -7    1.78    0.71
  -3  -3  -7    3.29    1.07
   3   3   7    2.80    0.58
   3   3   7    1.99    0.50
  -4  -3  -7   14.04    1.32
  -4  -3  -7   13.42    1.79
   4   3   7   14.37    1.13
   4   3   7   14.02    1.02
  -5  -3  -7    7.19    0.92
  -5  -3  -7    8.90    1.25
   5   3   7   10.68    0.98
   5   3   7    8.76    0.87
  -6  -3  -7    0.12    0.58
  -6  -3  -7    0.70    0.87
   6   3   7    0.15    0.51
   6   3   7    0.21    0.46
  -7  -3  -7    8.29    0.82
   7   3   7    9.84    0.73
   7   3   7    9.33    0.75
   4  -4  -7    3.99    0.84
   4  -4  -7    5.45    0.90
   3  -4  -7    3.40    0.86
   3  -4  -7    4.64    0.97
   2  -4  -7    1.83    0.83
   2  -4  -7    0.99    0.93
   1  -4  -7    3.55    0.93
   1  -4  -7    4.55    0.97
   0  -4  -7    0.50    0.83
  -1  -4  -7    0.98    0.81
  -2  -4  -7    0.81    0.82
   3   4  -8    0.19    0.45
  -3  -4   8    0.35    0.43
   2   4  -8    8.93    0.87
  -2  -4   8    9.24    0.78
  -2  -4   8    9.96    1.41
   1   4  -8    0.10    0.48
  -1  -4   8    0.51    0.41
  -1  -4   8    2.07    0.90
   0   4  -8    0.31    0.48
   0  -4   8    0.66    0.37
   0  -4   8    1.28    0.82
  -1   4  -8    1.37    0.46
   1  -4   8    1.68    0.80
   8   3  -8    3.21    0.63
  -8  -3   8    3.41    0.57
   7   3  -8    3.00    0.68
  -7  -3   8    4.00    0.62
  -7  -3   8    3.16    0.64
   6   3  -8    0.92    0.65
  -6  -3   8    1.20    0.60
  -6  -3   8    0.29    0.55
   5   3  -8    0.76    0.66
   5   3  -8    0.28    0.51
  -5  -3   8    0.60    0.57
  -5  -3   8   -0.39    0.60
   4   3  -8    1.93    0.59
   4   3  -8    2.07    0.72
  -4  -3   8    1.56    0.67
   3   3  -8   11.92    1.09
   3   3  -8   10.87    1.20
  -3  -3   8   10.73    1.20
   2   3  -8    0.88    0.56
  -2  -3   8    0.36    0.61
   1   3  -8    3.02    0.61
  -1  -3   8    2.88    0.69
   0   3  -8    3.55    0.64
   0  -3   8    4.27    0.72
  -1   3  -8    1.39    0.58
   1  -3   8    2.36    0.66
   1  -3   8    2.06    0.61
  -2   3  -8   12.16    1.17
   2  -3   8   14.07    1.79
   2  -3   8   15.12    1.21
   2  -3   8   13.37    1.12
  -3   3  -8    3.28    0.67
   3  -3   8    6.18    0.76
   3  -3   8    6.43    0.71
   3  -3   8    5.45    1.14
  -4   3  -8    5.31    0.72
   4  -3   8    6.23    1.16
   4  -3   8    5.80    0.71
   4  -3   8    6.66    0.66
  -5   3  -8   -0.13    0.56
   5  -3   8    0.97    0.89
   5  -3   8   -0.05    0.53
  -6   3  -8    0.60    0.51
   6  -3   8    0.53    0.71
   6  -3   8    0.39    0.48
  10   2  -8    0.81    0.63
  10   2  -8    0.68    0.53
  10   2  -8   -0.22    0.64
 -10  -2   8    0.15    0.61
   9   2  -8    0.41    0.73
   9   2  -8    0.30    0.67
  -9  -2   8   -0.10    0.67
   8   2  -8    2.39    0.85
   8   2  -8    1.87    0.69
   8   2  -8    2.66    0.69
  -8  -2   8    1.42    0.66
   7   2  -8    7.54    0.92
   7   2  -8    7.90    0.90
  -7  -2   8    6.53    0.83
   6   2  -8    9.88    1.01
   6   2  -8    8.25    0.86
  -6  -2   8    8.58    0.90
   5   2  -8    0.82    0.56
  -5  -2   8    0.44    0.63
  -5  -2   8   -0.19    0.56
   4   2  -8    1.99    0.57
  -4  -2   8    1.46    0.64
  -4  -2   8    2.70    0.58
   3   2  -8    1.26    0.53
  -3  -2   8    1.76    0.52
  -3  -2   8    2.33    0.61
  -3  -2   8    1.77    0.63
   2   2  -8   -0.05    0.46
   2   2  -8    0.25    0.54
  -2  -2   8   -0.21    0.52
  -2  -2   8   -0.53    0.54
  -2  -2   8    0.32    0.44
   1   2  -8    1.09    0.54
   1   2  -8    1.40    0.49
  -1  -2   8    0.61    0.79
  -1  -2   8    0.80    0.51
  -1  -2   8    0.68    0.46
  -1  -2   8    1.54    0.56
   0   2  -8    4.42    0.63
   0  -2   8    5.42    0.72
   0  -2   8    4.82    0.55
   0  -2   8    5.17    0.67
  -1   2  -8    6.07    0.68
   1  -2   8    6.22    0.73
   1  -2   8    6.38    0.75
  -2   2  -8    0.97    0.53
   2  -2   8    0.86    0.47
   2  -2   8    0.62    0.56
  -3   2  -8   24.80    1.57
   3  -2   8   25.54    1.58
   3  -2   8   27.82    1.64
   3  -2   8   21.34    2.37
  -4   2  -8    1.07    0.56
   4  -2   8    0.07    0.88
   4  -2   8    0.38    0.60
   4  -2   8    0.92    0.54
  -5   2  -8    9.27    0.90
   5  -2   8   10.37    0.93
   5  -2   8    9.27    0.96
  -6   2  -8    5.77    0.79
   6  -2   8    9.25    0.83
   6  -2   8    6.60    0.78
  -7   2  -8   -0.36    0.65
   7  -2   8   -0.12    0.67
   7  -2   8    0.07    0.44
   7  -2   8    0.15    0.59
   8  -2   8    0.77    0.55
   8  -2   8    0.76    0.60
  11   1  -8   -0.02    0.62
  11   1  -8    0.11    0.70
 -11  -1   8   -0.11    0.57
  10   1  -8    1.21    0.82
  10   1  -8    0.77    0.76
 -10  -1   8    0.71    0.63
   9   1  -8    2.07    0.77
   9   1  -8    2.82    0.89
  -9  -1   8    0.70    0.66
   8   1  -8   23.08    1.68
   8   1  -8   25.38    1.97
   8   1  -8   22.44    1.60
  -8  -1   8   25.66    1.63
   7   1  -8   40.54    2.62
   7   1  -8   38.77    2.27
   7   1  -8   38.47    2.22
  -7  -1   8   39.29    2.19
   6   1  -8   20.09    1.54
   6   1  -8   18.91    1.32
   6   1  -8   18.96    1.32
  -6  -1   8   16.91    1.33
   5   1  -8    8.08    0.75
   5   1  -8    7.77    0.81
  -5  -1   8    7.65    1.05
  -5  -1   8    7.85    0.96
  -5  -1   8    6.83    0.92
  -4  -1   8    6.85    0.93
  -4  -1   8    5.31    0.82
  -4  -1   8    5.28    0.80
  -3  -1   8    0.59    0.57
  -3  -1   8    0.27    0.53
  -3  -1   8    0.33    0.49
   2   1  -8    0.69    0.68
  -2  -1   8    1.05    0.51
  -2  -1   8    1.10    0.57
  -2  -1   8    0.54    0.56
   1   1  -8    7.46    1.01
  -1  -1   8    6.10    0.82
   0   1  -8   20.42    1.67
   0  -1   8   19.77    1.51
  -1   1  -8    3.93    0.89
   1  -1   8    5.38    0.85
  -2   1  -8   22.82    1.82
  -3   1  -8    2.05    0.80
  -3   1  -8    1.32    0.48
   3  -1   8    2.10    0.55
   3  -1   8    2.01    0.46
   3  -1   8    2.60    0.55
  -4   1  -8   18.08    1.23
   4  -1   8   16.80    1.23
   4  -1   8   19.25    1.28
   4  -1   8   17.12    1.18
  -5   1  -8    8.93    0.83
   5  -1   8    7.54    0.75
   5  -1   8    8.06    0.85
   5  -1   8    6.67    0.75
  -6   1  -8    6.10    0.80
   6  -1   8    8.50    0.80
   6  -1   8    9.25    0.88
   6  -1   8    6.57    0.75
  -7   1  -8    1.44    0.63
   7  -1   8    0.69    0.57
   7  -1   8    2.00    0.59
   7  -1   8    2.06    0.63
  -8   1  -8   21.34    1.54
   8  -1   8   23.15    1.48
   8  -1   8   21.83    1.44
   8  -1   8   21.54    1.84
   8  -1   8   20.60    1.48
  -9   1  -8   -0.31    0.61
   9  -1   8    0.16    0.59
   9  -1   8    1.01    0.55
   9  -1   8    0.20    0.39
   9  -1   8   -0.23    0.50
   8   0  -8   13.82    1.51
   8   0  -8   13.55    1.31
   8   0  -8   12.27    1.50
   7   0  -8    1.84    0.67
   7   0  -8    1.35    1.03
   7   0  -8    1.64    0.74
   7   0  -8    2.03    0.77
   6   0  -8    1.12    0.72
   6   0  -8    0.57    0.54
   6   0  -8   -0.30    0.63
   6   0  -8   -1.81    0.89
  -6   0   8   -0.28    0.50
  -6   0   8    1.17    0.61
  -5   0   8    8.70    1.04
  -5   0   8   10.04    0.93
  -5   0   8   11.68    1.02
  -4   0   8   75.47    4.50
  -4   0   8   94.92    4.65
  -4   0   8   95.75    4.51
  -3   0   8  161.21    8.12
  -3   0   8  167.66    8.17
  -3   0   8  173.15    8.42
  -2   0   8   28.83    1.70
  -1   0   8  152.27    7.70
  -1   0   8  150.99    7.46
   0   0  -8   56.09    3.07
   0   0   8   54.42    3.15
   0   0   8   58.12    3.05
  -1   0  -8  103.15    5.60
   1   0   8  114.64    5.61
   1   0   8  113.03    5.78
  -2   0  -8   39.71    2.47
   2   0   8   39.04    2.41
  -3   0  -8    8.29    1.17
   3   0   8    9.10    1.15
  -4   0  -8   64.69    3.28
  -4   0  -8   69.44    3.81
  -4   0  -8   62.51    3.57
   4   0   8   64.71    3.19
   4   0   8   66.50    3.72
   4   0   8   64.44    3.21
   4   0   8   64.52    3.49
  -5   0  -8    9.41    0.88
  -5   0  -8    9.61    1.00
   5   0   8    8.98    0.92
   5   0   8    9.19    0.79
   5   0   8    9.00    0.92
   6   0   8    3.65    0.69
   6   0   8    2.40    0.59
  -7   0  -8   34.48    2.05
   7   0   8   34.31    1.98
   7   0   8   35.25    2.12
  -8   0  -8   11.99    0.97
   8   0   8    9.68    1.08
   8   0   8    8.96    0.88
  -9   0  -8    1.92    0.70
   9   0   8    1.42    0.54
   9   0   8    1.87    0.63
   9   0   8    2.24    0.62
 -10   0  -8    1.89    0.58
  10   0   8    2.10    0.39
  10   0   8    2.53    0.47
  10  -1  -8    0.22    1.19
  10  -1  -8    1.33    0.78
  10  -1  -8    0.13    0.83
   9  -1  -8    0.64    1.07
   9  -1  -8    1.92    0.90
   9  -1  -8    1.95    0.84
   8  -1  -8   22.99    2.43
   8  -1  -8   24.23    2.10
   8  -1  -8   26.01    2.00
   7  -1  -8   35.55    3.16
   7  -1  -8   39.72    2.60
   7  -1  -8   37.72    2.78
   6  -1  -8   18.57    1.66
   6  -1  -8   17.52    1.86
   6  -1  -8   18.14    1.59
   5  -1  -8    8.47    1.00
   5  -1  -8    8.96    1.05
  -5   1   8    7.45    1.01
  -5   1   8    8.73    0.67
  -4   1   8    7.79    1.03
  -4   1   8    7.16    0.70
  -3   1   8    0.51    0.48
  -2   1   8    1.51    0.48
  -2   1   8    2.03    0.59
  -1   1   8    7.59    0.89
  -1   1   8    7.92    0.83
   0   1   8   18.55    1.46
   0   1   8   17.74    1.40
   1   1   8    7.28    0.92
   1   1   8    6.80    1.00
   2   1   8   22.21    1.71
   2   1   8   21.90    1.77
  -3  -1  -8    1.87    0.58
   3   1   8    2.78    0.81
   3   1   8    1.26    0.44
  -4  -1  -8   16.94    1.42
   4   1   8   17.85    1.20
   4   1   8   19.69    1.16
  -5  -1  -8   10.27    1.05
  -5  -1  -8    6.59    0.78
   5   1   8    7.62    0.75
   5   1   8    6.48    0.70
   5   1   8    6.77    0.78
  -6  -1  -8    7.43    0.96
  -6  -1  -8    9.29    0.90
   6   1   8    7.61    0.77
   6   1   8    8.63    0.86
   6   1   8    7.56    0.76
  -7  -1  -8    1.94    0.77
  -7  -1  -8    1.84    0.66
   7   1   8    0.90    0.50
   7   1   8    0.95    0.55
   7   1   8    1.32    0.47
  -8  -1  -8   22.26    1.47
  -8  -1  -8   18.71    1.51
   8   1   8   20.25    1.42
  -9  -1  -8    1.30    0.58
   9   1   8    0.30    0.44
  10  -2  -8   -2.03    0.87
  10  -2  -8    0.19    0.69
   9  -2  -8    0.70    0.83
   9  -2  -8   -0.50    0.89
   8  -2  -8    2.02    0.91
   8  -2  -8    1.97    0.96
   7  -2  -8    5.80    1.03
   7  -2  -8    6.43    1.11
   6  -2  -8    6.65    1.07
   6  -2  -8    6.16    1.13
   5  -2  -8   -0.36    0.96
   5  -2  -8    0.87    0.87
   5  -2  -8    0.81    0.84
   4  -2  -8    2.00    0.87
   4  -2  -8    2.59    0.88
   4  -2  -8    1.86    0.91
   3  -2  -8    1.84    0.94
   3  -2  -8    2.35    0.87
   3  -2  -8    2.74    0.88
   2  -2  -8    0.48    0.89
   2  -2  -8   -1.29    0.78
   2  -2  -8    0.97    0.88
   1  -2  -8    0.68    0.78
   1  -2  -8    1.06    0.94
   1  -2  -8    1.87    0.86
   0  -2  -8    7.37    1.11
   0  -2  -8    7.54    1.15
  -1  -2  -8    6.54    0.77
  -1  -2  -8    5.49    1.10
  -1  -2  -8    5.75    1.05
   1   2   8    5.69    0.62
  -2  -2  -8    0.80    0.67
  -2  -2  -8   -1.74    0.86
   2   2   8    0.68    0.49
  -3  -2  -8   25.11    1.86
  -3  -2  -8   27.34    2.15
   3   2   8   29.17    1.63
   3   2   8   26.87    1.58
  -4  -2  -8    1.27    0.74
   4   2   8    0.82    0.49
   4   2   8    0.75    0.51
  -5  -2  -8    8.44    1.03
   5   2   8    9.23    0.82
   5   2   8    9.07    0.90
  -6  -2  -8    9.71    1.04
   6   2   8    7.87    0.75
   6   2   8    6.79    0.76
  -7  -2  -8   -0.38    0.63
   7   2   8   -0.06    0.47
   7   2   8    0.38    0.56
  -8  -2  -8    0.58    0.53
   8   2   8    1.01    0.42
   8   2   8    0.84    0.43
   7  -3  -8    2.69    0.94
   7  -3  -8    2.60    1.00
   6  -3  -8    1.60    1.10
   6  -3  -8    1.23    1.07
   5  -3  -8    0.87    1.07
   5  -3  -8    0.12    1.06
   4  -3  -8    1.69    1.05
   4  -3  -8    2.98    1.16
   3  -3  -8   12.97    1.75
   3  -3  -8   11.89    1.57
   2  -3  -8    0.48    1.22
   2  -3  -8    0.56    1.16
   2  -3  -8    0.86    1.00
   1  -3  -8    6.41    1.37
   1  -3  -8    5.91    1.28
   1  -3  -8    4.80    1.17
   0  -3  -8    5.72    1.20
   0  -3  -8    5.58    1.20
   0  -3  -8    6.87    1.39
   0   3   8    4.24    0.61
  -1  -3  -8    1.85    1.05
  -1  -3  -8    0.61    0.99
   1   3   8    3.00    0.57
   1   3   8    3.73    0.58
  -2  -3  -8   16.56    1.95
   2   3   8   14.19    1.18
   2   3   8   15.65    1.09
  -3  -3  -8    4.31    1.13
  -3  -3  -8    4.76    0.74
   3   3   8    4.92    0.61
   3   3   8    5.57    0.66
  -4  -3  -8    6.01    1.17
  -4  -3  -8    4.78    0.81
   4   3   8    7.92    0.73
   4   3   8    7.18    0.68
  -5  -3  -8   -0.14    0.62
  -5  -3  -8    0.19    0.92
   5   3   8   -0.17    0.43
   5   3   8    0.55    0.51
  -6  -3  -8    0.93    0.76
  -6  -3  -8    0.91    0.50
   6   3   8    0.98    0.48
   6   3   8    0.51    0.40
   3  -4  -8   -0.04    0.70
   3  -4  -8    0.15    0.78
   2  -4  -8    6.19    0.99
   2  -4  -8    5.97    0.90
   1  -4  -8    0.96    0.76
   0  -4  -8    0.51    0.73
  -1  -4  -8    1.21    0.75
   8   3  -9    0.53    0.49
  -8  -3   9    0.34    0.46
   7   3  -9    2.06    0.61
  -7  -3   9    3.96    0.59
   6   3  -9    8.01    0.89
  -6  -3   9    7.25    0.74
  -6  -3   9    8.03    0.83
   5   3  -9   -0.37    0.61
  -5  -3   9   -0.32    0.56
  -5  -3   9    0.12    0.56
   4   3  -9    6.95    0.73
   4   3  -9    5.79    0.80
  -4  -3   9    5.53    0.73
  -4  -3   9    5.20    0.79
   3   3  -9    8.47    0.88
   3   3  -9    6.27    0.77
  -3  -3   9    6.51    0.79
   2   3  -9    0.74    0.60
  -2  -3   9    0.50    0.63
   1   3  -9    5.27    0.72
  -1  -3   9    9.19    0.93
   0   3  -9   13.19    1.16
   0  -3   9   13.91    1.16
   0  -3   9   15.70    1.20
  -1   3  -9    2.81    0.64
   1  -3   9    4.34    0.68
   1  -3   9    2.44    0.61
  -2   3  -9    1.03    0.57
   2  -3   9    1.75    0.65
   2  -3   9    1.63    0.97
   2  -3   9    0.79    0.55
  -3   3  -9    1.75    0.60
   3  -3   9    2.55    1.00
   3  -3   9    2.38    0.62
   3  -3   9    1.86    0.58
  -4   3  -9    3.87    0.65
   4  -3   9    3.06    0.96
   4  -3   9    2.69    0.58
   4  -3   9    2.89    0.51
  -5   3  -9   10.75    0.99
   5  -3   9   10.44    1.38
   5  -3   9   10.57    0.97
  10   2  -9    0.33    0.57
  10   2  -9    0.16    0.43
  10   2  -9    0.58    0.58
 -10  -2   9   -0.02    0.50
   9   2  -9    1.70    0.75
   9   2  -9    0.26    0.66
   9   2  -9    1.01    0.67
  -9  -2   9    0.04    0.59
   8   2  -9    4.13    0.74
  -8  -2   9    3.15    0.72
  -8  -2   9    2.64    0.69
   7   2  -9   25.01    1.68
  -7  -2   9   28.09    1.71
  -7  -2   9   25.95    1.70
  -6  -2   9    2.84    0.65
  -6  -2   9    3.81    0.73
  -5  -2   9    5.77    0.83
  -5  -2   9    8.24    0.81
   4   2  -9   19.34    1.43
  -4  -2   9   17.38    1.46
  -4  -2   9   19.56    1.32
   3   2  -9    6.64    0.72
   3   2  -9    5.70    0.74
  -3  -2   9    7.49    0.85
  -3  -2   9    9.69    0.86
  -3  -2   9    5.94    0.69
   2   2  -9    0.97    0.59
   2   2  -9   -0.15    0.52
  -2  -2   9    0.14    0.57
  -2  -2   9    0.92    0.56
  -2  -2   9    0.67    0.50
   1   2  -9    0.11    0.56
   1   2  -9    0.12    0.53
  -1  -2   9    0.36    0.45
  -1  -2   9    0.48    0.59
  -1  -2   9    0.19    0.52
   0   2  -9    2.71    0.64
   0   2  -9    1.84    0.59
   0  -2   9    2.51    0.49
   0  -2   9    3.05    0.63
   0  -2   9    2.76    0.64
  -1   2  -9   40.81    2.17
   1  -2   9   39.31    2.23
   1  -2   9   37.32    2.28
  -2   2  -9   17.46    1.33
   2  -2   9   18.50    1.30
   2  -2   9   17.00    1.37
  -3   2  -9   50.08    2.57
   3  -2   9   47.22    3.91
   3  -2   9   46.94    2.63
   3  -2   9   48.59    2.72
  -4   2  -9    0.29    0.55
   4  -2   9   -0.25    0.52
   4  -2   9    0.29    0.57
  -5   2  -9   16.03    1.25
   5  -2   9   16.79    1.23
   5  -2   9   15.09    1.24
  -6   2  -9   -0.48    0.58
   6  -2   9   -0.21    0.71
   6  -2   9   -0.19    0.57
   6  -2   9   -0.10    0.57
  -7   2  -9   -0.35    0.60
   7  -2   9   -0.48    0.56
   7  -2   9    0.24    0.63
   7  -2   9   -0.36    0.40
  -8   2  -9    4.28    0.59
   8  -2   9    4.64    0.56
  11   1  -9   -0.13    0.65
  11   1  -9    0.56    0.61
 -11  -1   9    0.48    0.51
  10   1  -9    1.75    0.83
  10   1  -9    2.05    0.78
 -10  -1   9    1.48    0.63
   9   1  -9   -0.12    0.71
   9   1  -9    0.52    0.83
  -9  -1   9   -0.08    0.62
   8   1  -9    4.09    0.82
   8   1  -9    3.41    0.96
  -8  -1   9    3.90    0.73
   7   1  -9    1.52    0.82
   7   1  -9    0.46    0.62
  -7  -1   9    0.99    0.62
   6   1  -9    6.49    0.77
   6   1  -9    5.06    1.31
   6   1  -9    8.00    0.99
  -6  -1   9    5.97    0.72
   5   1  -9    0.78    0.85
   5   1  -9    1.65    0.51
  -5  -1   9    1.17    0.72
  -5  -1   9    1.98    0.57
   4   1  -9    0.32    0.53
  -4  -1   9    0.52    0.61
  -4  -1   9    0.83    0.59
  -4  -1   9   -0.20    0.54
  -4  -1   9    0.68    0.51
  -3  -1   9   19.22    1.52
  -3  -1   9   18.35    1.39
  -2  -1   9   44.39    2.64
   1   1  -9   41.76    2.64
  -1  -1   9   44.06    2.59
   0   1  -9   22.23    1.80
   0  -1   9   18.57    1.57
  -1   1  -9   44.91    2.91
   1  -1   9   49.54    2.83
  -2   1  -9    5.39    0.65
  -2   1  -9    5.42    1.09
   2  -1   9    5.06    0.95
   2  -1   9    5.94    0.60
   2  -1   9    5.13    0.54
   2  -1   9    5.44    0.65
   2  -1   9    4.24    0.65
  -3   1  -9   17.03    1.26
   3  -1   9   16.93    1.24
   3  -1   9   16.84    1.32
   3  -1   9   18.89    1.18
   3  -1   9   17.89    1.14
  -4   1  -9    3.55    0.65
   4  -1   9    4.79    0.66
   4  -1   9    2.91    0.54
   4  -1   9    3.30    0.61
  -5   1  -9   49.08    2.64
   5  -1   9   47.91    2.63
   5  -1   9   51.14    2.76
   5  -1   9   48.14    2.58
  -6   1  -9   13.92    1.24
   6  -1   9   15.12    1.27
   6  -1   9   13.60    1.17
   6  -1   9   14.26    1.16
   7  -1   9    0.31    0.58
   7  -1   9   -0.09    0.54
   7  -1   9   -0.59    0.58
  -8   1  -9    1.56    0.64
   8  -1   9    0.54    0.48
   8  -1   9    1.37    0.59
   8  -1   9    0.73    0.56
   8  -1   9    1.74    0.70
  -9   1  -9    1.72    0.57
   9  -1   9    0.85    0.35
   9  -1   9    1.32    0.56
   9  -1   9    1.20    0.51
   9   0  -9   -0.59    0.77
   9   0  -9    0.04    0.89
   9   0  -9    0.12    0.69
   7   0  -9   -0.21    0.63
   7   0  -9    0.55    0.73
   7   0  -9    0.91    1.35
   7   0  -9   -0.08    0.78
   6   0  -9   -0.04    0.74
   6   0  -9    0.24    0.69
   6   0  -9   -0.01    0.57
   5   0  -9   -0.06    0.68
   5   0  -9    0.03    0.52
  -5   0   9   -0.01    0.53
  -5   0   9    0.08    0.52
  -5   0   9    0.52    0.47
  -4   0   9    0.39    0.55
  -4   0   9    0.21    0.46
  -4   0   9    0.86    0.56
  -3   0   9    0.79    0.54
  -3   0   9    0.31    0.47
  -3   0   9    0.60    0.56
  -2   0   9    0.52    0.45
  -1   0   9    0.08    0.65
   0   0   9    0.04    0.55
   0   0   9   -0.12    0.66
   1   0   9   -0.09    0.58
  -2   0  -9    0.50    0.68
   2   0   9   -0.35    0.58
  -3   0  -9    0.16    0.80
  -3   0  -9   -0.02    0.49
  -3   0  -9    0.35    0.54
   3   0   9   -0.59    0.61
   3   0   9    0.44    0.43
   3   0   9    0.03    0.40
  -4   0  -9    0.71    0.64
  -4   0  -9    0.02    0.55
   4   0   9   -0.27    0.43
   4   0   9   -0.08    0.46
   4   0   9   -0.01    0.44
  -5   0  -9   -0.33    0.68
   5   0   9    0.44    0.52
   5   0   9    0.07    0.55
   5   0   9   -0.82    0.47
  -6   0  -9    0.48    0.72
  -6   0  -9    0.18    0.60
   6   0   9   -0.21    0.54
   6   0   9    0.63    0.59
  -7   0  -9   -0.29    0.60
   7   0   9    0.71    0.54
   7   0   9    0.00    0.54
  -8   0  -9   -0.41    0.62
   8   0   9    0.25    0.55
   8   0   9    0.04    0.62
   8   0   9    0.14    0.54
  -9   0  -9    0.18    0.60
   9   0   9    0.01    0.47
   9   0   9   -0.03    0.43
   9   0   9    0.09    0.50
   9  -1  -9    1.47    1.20
   9  -1  -9    0.31    0.84
   9  -1  -9    1.41    0.84
   8  -1  -9    3.96    0.95
   8  -1  -9    1.37    1.05
   8  -1  -9    2.71    0.93
   7  -1  -9    0.74    0.83
   7  -1  -9    1.27    0.84
   7  -1  -9    0.25    0.94
   6  -1  -9    6.92    1.06
   6  -1  -9    6.40    1.00
   5  -1  -9    1.89    0.75
   5  -1  -9    1.18    0.75
   5  -1  -9    1.94    0.81
   4  -1  -9    0.51    0.74
   4  -1  -9    0.12    0.68
  -4   1   9    0.81    0.46
  -4   1   9    0.27    0.62
  -3   1   9   19.54    1.37
  -2   1   9   44.03    2.48
  -2   1   9   42.16    2.36
  -1   1   9   44.43    2.59
  -1   1   9   43.05    2.47
   0   1   9   21.10    1.54
   0   1   9   20.27    1.62
   1   1   9   48.01    2.75
   1   1   9   43.86    2.81
  -2  -1  -9    5.70    0.74
  -2  -1  -9    3.22    1.05
   2   1   9    5.24    0.95
   2   1   9    5.63    0.56
  -3  -1  -9   18.12    1.62
  -3  -1  -9   17.32    1.38
   3   1   9   17.85    1.17
  -4  -1  -9    2.98    0.73
   4   1   9    2.31    0.46
   4   1   9    3.98    0.57
  -5  -1  -9   48.24    2.88
   5   1   9   49.72    2.50
   5   1   9   48.32    2.56
  -6  -1  -9   13.59    1.19
  -6  -1  -9   12.20    1.30
   6   1   9   10.90    1.06
   6   1   9   12.45    1.07
   6   1   9   12.83    0.94
  -7  -1  -9   -0.41    0.60
  -7  -1  -9    0.28    0.68
   7   1   9   -0.03    0.52
   7   1   9   -0.38    0.45
  -8  -1  -9    1.14    0.59
  -8  -1  -9    1.28    0.60
   8   1   9    2.02    0.55
  -9  -1  -9    0.61    0.57
   9   1   9    0.57    0.37
  10  -2  -9    0.78    0.65
   9  -2  -9    1.11    0.80
   9  -2  -9   -1.41    0.91
   8  -2  -9    4.16    1.05
   8  -2  -9    4.24    1.01
   7  -2  -9   26.64    2.27
   7  -2  -9   29.57    2.29
   6  -2  -9    3.47    1.07
   6  -2  -9    4.06    1.10
   5  -2  -9    6.40    1.11
   5  -2  -9    6.57    1.10
   4  -2  -9   19.32    1.89
   4  -2  -9   19.85    1.84
   3  -2  -9   10.87    1.24
   3  -2  -9    9.81    1.28
   3  -2  -9    8.53    1.25
   2  -2  -9    0.32    0.96
   2  -2  -9    1.25    0.95
   2  -2  -9    0.33    0.86
   1  -2  -9    0.95    0.97
   1  -2  -9    0.18    0.84
   1  -2  -9    0.00    0.86
   0  -2  -9    3.64    0.97
   0  -2  -9    2.90    0.97
   0  -2  -9    2.29    0.89
  -1  -2  -9   42.56    3.04
  -1  -2  -9   38.83    3.13
  -1  -2  -9   41.14    2.90
  -1  -2  -9   43.67    2.43
   1   2   9   42.71    2.23
  -2  -2  -9   19.07    1.49
  -2  -2  -9   18.41    1.87
   2   2   9   19.72    1.33
  -3  -2  -9   48.54    3.04
  -3  -2  -9   56.23    3.50
   3   2   9   52.19    2.74
   3   2   9   55.16    2.73
  -4  -2  -9    0.11    0.75
   4   2   9    0.27    0.49
   4   2   9    0.21    0.52
  -5  -2  -9   15.75    1.44
   5   2   9   15.26    1.20
   5   2   9   17.72    1.16
  -6  -2  -9   -0.68    0.65
   6   2   9    0.04    0.49
   6   2   9   -0.52    0.52
  -7  -2  -9    0.20    0.58
   7   2   9    0.22    0.43
   7   2   9    0.42    0.53
  -8  -2  -9    3.81    0.58
   8   2   9    3.79    0.51
   7  -3  -9    4.12    0.97
   6  -3  -9    8.27    1.21
   6  -3  -9    7.13    1.20
   5  -3  -9    0.02    1.04
   5  -3  -9   -0.39    1.07
   4  -3  -9    7.75    1.36
   4  -3  -9    8.42    1.32
   3  -3  -9    6.59    1.25
   3  -3  -9   10.92    1.44
   3  -3  -9   10.22    1.42
   2  -3  -9    0.81    1.16
   2  -3  -9    1.41    1.06
   2  -3  -9    4.28    1.27
   1  -3  -9    9.97    1.52
   1  -3  -9    7.77    1.35
   1  -3  -9   12.41    1.48
   0  -3  -9   17.88    1.90
   0  -3  -9   16.93    2.07
   0  -3  -9   16.16    2.11
   0   3   9   15.73    1.12
  -1  -3  -9    0.62    1.00
  -1  -3  -9    2.24    1.09
   1   3   9    2.55    0.56
  -2  -3  -9    0.79    1.00
   2   3   9    0.73    0.50
   2   3   9    1.69    0.51
  -3  -3  -9    2.05    1.01
  -3  -3  -9    1.91    0.58
   3   3   9    2.54    0.51
   3   3   9    2.17    0.56
  -4  -3  -9    3.02    0.63
  -4  -3  -9    4.62    1.10
   4   3   9    3.31    0.53
   4   3   9    4.22    0.61
  -5  -3  -9   12.69    1.42
  -5  -3  -9   11.23    0.93
   5   3   9   11.54    0.94
   5   3   9   12.01    0.85
   7   3 -10    3.10    0.60
  -7  -3  10    3.71    0.56
   6   3 -10    0.37    0.58
  -6  -3  10    0.91    0.52
  -6  -3  10    0.26    0.49
   5   3 -10    0.95    0.63
  -5  -3  10   -0.20    0.52
  -5  -3  10    0.08    0.52
   4   3 -10    1.05    0.64
  -4  -3  10    0.98    0.59
  -4  -3  10    1.60    0.56
   3   3 -10   17.04    1.19
   3   3 -10   16.11    1.30
  -3  -3  10   13.15    1.26
   2   3 -10    1.00    0.59
   2   3 -10    1.50    0.69
  -2  -3  10    1.00    0.60
   1   3 -10    1.00    0.60
  -1  -3  10    1.16    0.56
  -1  -3  10    1.67    0.63
   0   3 -10   -0.05    0.58
   0  -3  10    0.41    0.56
   0  -3  10   -0.35    0.56
  -1   3 -10   -0.22    0.54
   1  -3  10    0.36    0.54
   1  -3  10    0.12    0.56
   1  -3  10    0.34    0.91
  -2   3 -10    0.75    0.53
   2  -3  10    0.94    0.53
   2  -3  10    0.04    0.58
   2  -3  10    0.57    0.92
  -3   3 -10   -0.01    0.53
   3  -3  10   -0.26    0.50
   3  -3  10    0.30    0.88
   3  -3  10    0.55    0.49
  -4   3 -10   -0.09    0.52
   4  -3  10    0.03    0.39
   4  -3  10    0.62    0.76
   4  -3  10    0.38    0.47
  -5   3 -10    0.04    0.47
   5  -3  10    0.21    0.48
  10   2 -10    0.33    0.49
 -10  -2  10   -0.16    0.45
   9   2 -10    0.36    0.56
   9   2 -10    0.19    0.62
  -9  -2  10    0.98    0.56
   8   2 -10   -0.46    0.60
   8   2 -10   -0.36    0.69
  -8  -2  10   -0.16    0.59
  -8  -2  10    0.15    0.59
   7   2 -10    0.82    0.67
   7   2 -10    1.50    0.62
  -7  -2  10    0.99    0.66
  -7  -2  10   -0.12    0.54
   6   2 -10   10.67    1.17
  -6  -2  10   11.26    1.12
  -6  -2  10   10.47    0.99
   5   2 -10   -0.02    0.63
  -5  -2  10    1.50    0.70
  -5  -2  10    0.71    0.57
   4   2 -10   -0.30    0.59
  -4  -2  10   -0.17    0.54
  -4  -2  10    0.03    0.67
   3   2 -10    7.34    0.84
  -3  -2  10    5.87    0.68
  -3  -2  10    6.03    0.80
  -3  -2  10    4.29    0.87
   2   2 -10    0.95    0.58
   2   2 -10    0.21    0.54
  -2  -2  10    0.07    0.60
  -2  -2  10    0.05    0.60
  -2  -2  10   -0.18    0.48
   1   2 -10    1.99    0.61
   1   2 -10    1.16    0.63
  -1  -2  10    1.91    0.65
  -1  -2  10    1.58    0.50
  -1  -2  10    1.81    0.63
   0   2 -10    0.93    0.66
   0   2 -10    0.73    0.58
   0  -2  10    0.46    0.56
   0  -2  10    0.38    0.44
   0  -2  10    1.18    0.62
  -1   2 -10    1.10    0.61
   1  -2  10    0.12    0.59
   1  -2  10    1.60    0.60
  -2   2 -10    0.50    0.57
   2  -2  10    0.74    0.57
   2  -2  10    1.05    0.63
  -3   2 -10    7.10    0.77
   3  -2  10    6.81    0.78
   3  -2  10    5.57    0.72
  -4   2 -10    4.07    0.67
   4  -2  10    4.25    0.68
   4  -2  10    4.06    0.67
  -5   2 -10    0.11    0.57
   5  -2  10    0.38    0.56
   5  -2  10   -0.25    0.55
  -6   2 -10   -0.46    0.59
   6  -2  10    0.28    0.65
   6  -2  10    0.98    0.59
   6  -2  10    0.39    0.53
  -7   2 -10   -0.39    0.54
   7  -2  10    0.05    0.39
   7  -2  10   -0.20    0.49
   7  -2  10   -0.07    0.52
  11   1 -10    3.58    0.71
  11   1 -10    4.00    0.65
  10   1 -10    2.86    0.79
  10   1 -10    2.59    0.85
 -10  -1  10    2.98    0.62
   9   1 -10    2.66    0.78
   9   1 -10    2.01    0.88
  -9  -1  10    2.83    0.66
   8   1 -10    0.54    0.71
   8   1 -10    0.15    0.87
   8   1 -10   -0.08    0.57
  -8  -1  10   -0.31    0.61
   7   1 -10   10.65    1.02
   7   1 -10   12.78    1.50
   7   1 -10   10.20    0.96
  -7  -1  10    8.43    0.88
   6   1 -10    0.56    0.64
   6   1 -10    1.16    0.56
   6   1 -10    0.61    0.78
  -6  -1  10    0.18    0.56
   5   1 -10   -0.20    0.47
   5   1 -10   -0.47    0.58
  -5  -1  10    0.00    0.49
   4   1 -10    0.43    0.43
   4   1 -10    1.03    0.58
  -4  -1  10    0.29    0.47
   3   1 -10   56.79    2.98
  -3  -1  10   52.17    2.75
   2   1 -10   13.79    1.15
  -2  -1  10   16.70    1.46
  -2  -1  10   15.93    1.24
  -2  -1  10   13.09    1.04
   1   1 -10    3.14    0.65
  -1  -1  10    2.72    0.59
  -1  -1  10    4.19    0.84
  -1  -1  10    2.88    0.48
   0   1 -10   14.46    1.29
   0  -1  10   15.50    1.06
   0  -1  10   17.09    1.27
   0  -1  10   17.15    1.48
   0  -1  10   14.53    1.09
  -1   1 -10    0.90    0.51
  -1   1 -10    0.24    0.52
  -1   1 -10    0.75    0.92
   1  -1  10   -0.02    0.43
   1  -1  10    0.51    0.50
   1  -1  10    0.47    0.41
   1  -1  10    0.63    0.53
  -2   1 -10   55.80    2.81
  -2   1 -10   55.78    3.07
   2  -1  10   53.38    2.86
   2  -1  10   52.34    2.74
   2  -1  10   54.22    2.74
   2  -1  10   54.84    2.99
  -3   1 -10    3.47    0.64
  -3   1 -10    1.13    0.66
   3  -1  10    2.92    0.51
   3  -1  10    3.19    0.60
   3  -1  10    4.99    0.69
   3  -1  10    2.29    0.53
  -4   1 -10   26.33    1.66
   4  -1  10   26.82    1.61
   4  -1  10   25.03    1.66
   4  -1  10   25.86    1.59
  -5   1 -10    1.64    0.65
   5  -1  10    2.85    0.61
   5  -1  10    3.46    0.62
   5  -1  10    2.01    0.60
  -6   1 -10    1.96    0.64
   6  -1  10    3.42    0.64
   6  -1  10    2.90    0.58
   6  -1  10    3.08    0.67
   7  -1  10   -0.55    0.56
   7  -1  10   -0.25    0.59
   7  -1  10   -0.79    0.52
  -8   1 -10    3.98    0.67
   8  -1  10    4.39    0.63
   8  -1  10    4.63    0.77
   8  -1  10    4.11    0.58
   8  -1  10    3.77    0.54
   7   0 -10   60.29    3.32
   7   0 -10   61.10    3.98
   7   0 -10   60.14    4.22
   7   0 -10   74.86    5.76
   6   0 -10    9.88    1.15
   6   0 -10    7.53    1.09
   6   0 -10    7.71    0.85
   5   0 -10   58.87    2.90
   5   0 -10   56.40    3.70
   5   0 -10   47.77    4.93
   5   0 -10   54.94    3.45
   4   0 -10    1.02    0.65
   4   0 -10    0.01    0.52
  -4   0  10    0.72    0.52
  -4   0  10    1.02    0.60
  -4   0  10    0.43    0.57
  -3   0  10    1.28    0.59
  -3   0  10    1.84    0.60
  -3   0  10    2.21    0.69
  -2   0  10   12.58    1.13
  -1   0  10   12.83    1.34
   0   0  10   75.38    4.04
   0   0  10   66.92    3.82
   1   0  10    7.76    0.78
   1   0  10    7.08    1.01
  -2   0 -10   11.68    1.15
   2   0  10   12.28    0.98
   2   0  10   17.70    1.67
   2   0  10   12.07    0.91
  -3   0 -10   17.59    1.32
  -3   0 -10   15.94    1.21
   3   0  10   14.51    1.10
   3   0  10   14.63    1.07
   3   0  10   14.47    1.11
  -4   0 -10   23.72    1.73
   4   0  10   22.70    1.58
   4   0  10   24.93    1.46
   4   0  10   24.44    1.49
  -5   0 -10   11.60    1.15
   5   0  10    8.70    0.84
   5   0  10    9.34    0.82
   5   0  10    9.66    1.04
  -6   0 -10   60.84    3.22
  -6   0 -10   64.20    3.54
   6   0  10   63.36    3.17
   6   0  10   61.36    3.44
  -7   0 -10   21.61    1.57
   7   0  10   22.77    1.51
   7   0  10   23.82    1.49
  -8   0 -10    2.06    0.66
   8   0  10    2.67    0.55
   8   0  10    3.03    0.61
   8   0  10    2.39    0.65
  -9   0 -10    7.47    0.68
   9   0  10    5.99    0.65
   9   0  10    6.12    0.58
   9  -1 -10    2.12    0.93
   9  -1 -10    1.77    0.92
   9  -1 -10    6.93    1.65
   8  -1 -10    0.95    1.27
   8  -1 -10    0.36    0.86
   8  -1 -10    0.37    0.89
   7  -1 -10   10.57    1.21
   7  -1 -10    9.08    1.48
   7  -1 -10    8.98    1.26
   6  -1 -10    0.47    0.83
   6  -1 -10    0.58    0.86
   5  -1 -10    0.63    0.78
   5  -1 -10    0.01    0.79
   5  -1 -10    1.76    0.79
   4  -1 -10    1.00    0.75
   4  -1 -10    0.29    0.71
   4  -1 -10    0.22    0.77
   3  -1 -10   53.77    3.97
   3  -1 -10   59.50    3.84
   3  -1 -10   58.95    3.57
   2  -1 -10   15.53    1.64
   2  -1 -10   14.22    1.40
   2  -1 -10   13.07    1.58
  -2   1  10   15.72    1.31
   1  -1 -10    3.29    0.91
   1  -1 -10    4.03    0.87
  -1   1  10    3.41    0.72
  -1   1  10    3.50    0.80
   0  -1 -10   15.68    1.28
   0  -1 -10   14.88    1.64
   0  -1 -10   15.84    1.54
   0  -1 -10   14.21    1.78
   0   1  10   17.28    1.51
   0   1  10   15.02    1.38
  -1  -1 -10   -0.01    0.62
  -1  -1 -10    0.47    0.76
  -1  -1 -10   -0.36    0.88
   1   1  10    0.41    0.79
   1   1  10    0.61    0.40
  -2  -1 -10   58.83    3.22
  -2  -1 -10   56.93    3.69
  -2  -1 -10   55.98    4.04
   2   1  10   58.21    2.88
  -3  -1 -10    3.53    0.74
  -3  -1 -10    5.52    0.95
   3   1  10    3.02    0.54
  -4  -1 -10   28.88    1.95
   4   1  10   28.54    1.66
   4   1  10   28.16    1.60
  -5  -1 -10    1.44    0.75
   5   1  10    3.13    0.58
   5   1  10    1.73    0.46
  -6  -1 -10    2.86    0.77
   6   1  10    2.29    0.55
   6   1  10    2.26    0.58
  -7  -1 -10   -0.16    0.62
   7   1  10   -0.61    0.47
   7   1  10    0.41    0.45
  -8  -1 -10    3.68    0.69
   8   1  10    4.45    0.56
   9  -2 -10   -0.64    0.71
   8  -2 -10    0.05    0.88
   8  -2 -10    0.13    0.84
   7  -2 -10    1.92    0.99
   7  -2 -10    1.19    0.91
   6  -2 -10   10.31    1.38
   6  -2 -10    9.80    1.27
   5  -2 -10    1.14    0.95
   5  -2 -10    0.59    0.96
   4  -2 -10   -0.03    0.96
   4  -2 -10    0.32    0.92
   3  -2 -10    7.72    1.17
   3  -2 -10    5.64    1.26
   3  -2 -10    8.36    1.27
   2  -2 -10   -0.67    1.05
   2  -2 -10    1.11    0.92
   2  -2 -10   -0.30    1.00
   1  -2 -10    1.41    1.03
   1  -2 -10    2.06    0.96
   1  -2 -10    1.78    1.02
   0  -2 -10    1.34    1.00
   0  -2 -10    0.66    0.97
   0  -2 -10    0.92    0.95
  -1  -2 -10    2.15    1.05
  -1  -2 -10    0.14    1.03
  -1  -2 -10    1.91    0.96
  -1  -2 -10    0.74    0.63
   1   2  10    1.72    0.52
  -2  -2 -10    1.25    0.72
  -2  -2 -10    0.62    0.96
   2   2  10    1.14    0.53
  -3  -2 -10    8.73    1.02
   3   2  10    8.28    0.79
   3   2  10    7.74    0.75
  -4  -2 -10    3.49    0.84
   4   2  10    5.04    0.67
   4   2  10    4.57    0.62
  -5  -2 -10    0.23    0.71
   5   2  10   -0.51    0.47
   5   2  10    0.39    0.50
  -6  -2 -10    1.43    0.70
   6   2  10   -0.20    0.44
   6   2  10    0.61    0.51
  -7  -2 -10    0.13    0.51
   7   2  10   -0.09    0.38
   7   2  10    0.83    0.49
   6  -3 -10    0.45    0.94
   5  -3 -10    0.06    0.96
   5  -3 -10   -0.08    1.05
   4  -3 -10    1.73    1.05
   4  -3 -10    0.73    1.11
   4  -3 -10    2.10    1.09
   3  -3 -10   24.41    2.15
   3  -3 -10   20.19    2.08
   3  -3 -10   17.77    2.22
   2  -3 -10    5.69    1.26
   2  -3 -10    2.21    1.07
   2  -3 -10    1.80    1.17
   1  -3 -10    0.31    1.09
   1  -3 -10    3.49    1.14
   1  -3 -10    1.00    1.21
  -1   3  10    1.70    0.49
   0  -3 -10    0.70    1.02
   0  -3 -10    0.04    1.08
   0  -3 -10    0.60    1.17
   0   3  10   -0.67    0.45
  -1  -3 -10    0.04    1.09
   1   3  10   -0.05    0.46
  -2  -3 -10   -0.05    0.99
   2   3  10    0.74    0.49
   2   3  10    0.77    0.48
  -3  -3 -10   -0.02    0.88
   3   3  10   -0.51    0.41
   3   3  10   -0.23    0.47
  -4  -3 -10   -0.25    0.77
   4   3  10   -0.10    0.44
   4   3  10    0.10    0.39
  -5  -3 -10   -0.20    0.65
   5   3  10    0.20    0.38
   5   3  10    0.08    0.34
   7   3 -11    0.03    0.51
   6   3 -11   14.35    1.18
  -6  -3  11   16.35    1.09
   5   3 -11    4.13    0.69
  -5  -3  11    5.31    0.64
   4   3 -11    0.42    0.63
  -4  -3  11    1.10    0.54
   3   3 -11   -0.54    0.64
   3   3 -11    0.10    0.47
  -3  -3  11    0.31    0.56
   2   3 -11    1.34    0.54
   2   3 -11    1.02    0.70
  -2  -3  11    1.89    0.56
  -2  -3  11    1.52    0.57
   1   3 -11    0.61    0.57
  -1  -3  11    1.47    0.55
  -1  -3  11    2.90    0.62
   0   3 -11    0.58    0.56
   0  -3  11    0.52    0.57
   0  -3  11    1.07    0.56
  -1   3 -11    0.47    0.53
   1  -3  11    2.47    0.97
   1  -3  11    1.05    0.51
   1  -3  11    1.81    0.57
  -2   3 -11   17.87    1.23
   2  -3  11   18.17    1.26
   2  -3  11   17.17    1.21
   2  -3  11   17.13    1.87
  -3   3 -11    2.17    0.56
   3  -3  11    2.50    0.46
   3  -3  11    2.28    0.51
   3  -3  11    3.11    0.80
  -4   3 -11    1.57    0.50
   4  -3  11    1.52    0.41
   4  -3  11    1.91    0.47
   9   2 -11    3.75    0.61
   9   2 -11    3.53    0.56
  -9  -2  11    3.56    0.66
  -9  -2  11    4.07    0.59
   8   2 -11    0.41    0.63
   8   2 -11    1.47    0.62
  -8  -2  11    1.89    0.60
  -8  -2  11    0.61    0.61
   7   2 -11    0.70    0.71
  -7  -2  11    1.10    0.59
  -7  -2  11    0.63    0.67
   6   2 -11    0.82    0.66
  -6  -2  11    0.40    0.56
  -6  -2  11    0.72    0.68
   5   2 -11    2.49    0.71
  -5  -2  11    3.95    0.78
  -5  -2  11    4.52    0.67
   4   2 -11    1.73    0.65
  -4  -2  11    2.48    0.71
  -4  -2  11    3.16    0.64
   3   2 -11    5.10    0.79
  -3  -2  11    6.13    0.70
  -3  -2  11    5.84    0.80
   2   2 -11   59.76    3.06
   2   2 -11   61.06    3.33
  -2  -2  11   59.46    3.13
  -2  -2  11   57.75    3.30
  -2  -2  11   58.30    3.01
   1   2 -11    4.13    0.70
   1   2 -11    3.57    0.78
  -1  -2  11    4.14    0.59
  -1  -2  11    4.19    0.73
  -1  -2  11    3.94    0.71
   0   2 -11   23.50    1.84
   0   2 -11   27.65    1.70
   0  -2  11   29.05    1.78
   0  -2  11   27.75    1.56
   0  -2  11   26.03    1.73
  -1   2 -11    7.49    0.95
  -1   2 -11    6.63    0.74
   1  -2  11    4.87    0.68
   1  -2  11    5.62    0.76
  -2   2 -11   10.66    1.07
   2  -2  11    9.84    1.00
   2  -2  11    9.33    0.90
  -3   2 -11    3.07    0.62
   3  -2  11    2.87    0.61
   3  -2  11    2.79    0.61
  -4   2 -11    0.50    0.58
   4  -2  11    1.20    0.58
   4  -2  11    1.56    0.54
  -5   2 -11    2.35    0.61
   5  -2  11    2.47    0.59
   5  -2  11    2.68    0.59
  -6   2 -11   23.65    1.46
   6  -2  11   22.76    1.45
   6  -2  11   22.33    1.71
   6  -2  11   22.59    1.39
  11   1 -11    1.03    0.55
  10   1 -11   -1.25    0.63
  10   1 -11   -0.21    0.71
 -10  -1  11    0.50    0.49
   9   1 -11    1.25    0.75
   9   1 -11    0.62    0.84
  -9  -1  11    0.33    0.54
   8   1 -11    4.38    1.01
   8   1 -11    2.19    0.76
  -8  -1  11    2.62    0.64
   7   1 -11    0.99    0.59
   7   1 -11    0.56    0.68
   7   1 -11    0.91    0.92
  -7  -1  11    1.35    0.59
   6   1 -11   24.31    1.62
   6   1 -11   22.73    1.59
  -6  -1  11   25.33    1.52
   5   1 -11    2.89    0.59
   5   1 -11    3.63    0.70
  -5  -1  11    3.75    0.60
   4   1 -11    8.45    1.55
   4   1 -11   13.36    1.02
   4   1 -11   14.54    1.19
  -4  -1  11   15.98    1.11
   3   1 -11    2.65    0.64
  -3  -1  11    2.55    0.60
  -3  -1  11    2.47    0.54
   2   1 -11    2.17    0.64
   2   1 -11    2.52    0.84
  -2  -1  11    4.36    0.67
  -2  -1  11    2.68    0.52
   1   1 -11    0.72    0.59
  -1  -1  11    0.99    0.57
  -1  -1  11    0.34    0.43
   0   1 -11    0.48    0.59
   0  -1  11    0.63    0.47
   0  -1  11    0.66    0.43
   0  -1  11    1.03    0.56
  -1   1 -11    0.54    0.61
  -1   1 -11    0.28    0.54
   1  -1  11    0.94    0.51
   1  -1  11    0.07    0.40
   1  -1  11    0.23    0.52
   1  -1  11   -0.13    0.44
  -2   1 -11    6.04    0.84
  -2   1 -11    8.98    0.83
   2  -1  11    8.84    0.75
   2  -1  11   10.09    0.85
   2  -1  11    8.26    0.72
   2  -1  11    7.87    0.81
  -3   1 -11    0.02    0.68
  -3   1 -11    0.02    0.59
   3  -1  11    0.13    0.50
   3  -1  11    0.27    0.46
   3  -1  11    0.06    0.49
   3  -1  11    0.31    0.52
  -4   1 -11   50.08    2.55
  -4   1 -11   44.18    2.79
   4  -1  11   47.82    2.49
   4  -1  11   45.82    2.64
   4  -1  11   45.55    2.50
  -5   1 -11    0.46    0.63
   5  -1  11    0.21    0.55
   5  -1  11    0.76    0.59
   5  -1  11    0.90    0.52
   6  -1  11   10.90    1.05
   6  -1  11   12.30    1.16
   6  -1  11   12.11    1.12
  -7   1 -11    5.13    0.73
   7  -1  11    5.65    0.66
   7  -1  11    5.50    0.71
   7  -1  11    5.28    0.65
  -8   1 -11    4.28    0.59
   8  -1  11    3.52    0.48
   8  -1  11    3.75    0.66
   8  -1  11    4.69    0.55
   7   0 -11   11.89    2.80
   7   0 -11    0.30    0.71
   7   0 -11   -0.03    0.77
   6   0 -11    0.02    0.79
   6   0 -11    0.48    0.75
   6   0 -11   -2.94    2.31
   6   0 -11   -0.17    0.62
   5   0 -11    0.45    0.69
   5   0 -11    0.38    0.73
   4   0 -11    0.42    0.73
   4   0 -11    0.06    0.71
   4   0 -11    0.76    0.79
   4   0 -11   -0.44    0.55
   3   0 -11    0.34    0.69
   3   0 -11   -0.66    0.56
  -3   0  11   -0.67    0.62
  -3   0  11    0.41    0.45
  -3   0  11    0.51    0.56
   2   0 -11   -0.13    0.58
  -2   0  11   -0.46    0.43
  -2   0  11    0.27    0.65
  -2   0  11    0.64    0.53
  -2   0  11   -0.08    0.61
   1   0 -11   -0.33    0.57
  -1   0  11    0.28    0.54
  -1   0  11   -0.05    0.40
   0   0 -11    0.83    0.59
   0   0 -11    1.58    0.77
   0   0  11    0.29    0.41
   0   0  11    0.00    0.42
  -1   0 -11    0.17    0.56
   1   0  11   -0.11    0.40
   1   0  11   -0.10    0.44
  -2   0 -11   -0.47    0.64
   2   0  11    0.33    0.46
   2   0  11    0.18    0.39
  -3   0 -11    0.12    0.69
   3   0  11    0.03    0.48
   3   0  11    0.29    0.45
  -4   0 -11   -0.31    0.70
   4   0  11    0.46    0.57
   4   0  11   -0.34    0.53
   4   0  11    0.00    0.49
  -5   0 -11   -0.43    0.75
  -5   0 -11    0.80    0.60
   5   0  11    0.41    0.51
   5   0  11   -0.24    0.58
   5   0  11    0.04    0.56
  -6   0 -11    0.07    0.69
  -6   0 -11    0.24    0.62
   6   0  11    0.41    0.53
   6   0  11    0.63    0.52
  -7   0 -11    0.38    0.64
  -7   0 -11    0.97    0.60
   7   0  11    0.28    0.48
   7   0  11   -0.69    0.54
  -8   0 -11   -0.18    0.52
   8   0  11    0.03    0.45
   8   0  11    0.51    0.47
   8   0  11    0.44    0.45
  11  -1 -11    0.21    0.62
   8  -1 -11    1.85    0.90
   8  -1 -11    2.21    0.92
   8  -1 -11    4.72    1.69
   7  -1 -11    0.91    0.87
   7  -1 -11    0.63    0.90
   6  -1 -11   25.68    2.15
   6  -1 -11   24.63    2.09
   5  -1 -11    3.46    0.96
   5  -1 -11    3.68    0.93
   5  -1 -11    5.14    1.03
   4  -1 -11   15.59    1.63
   4  -1 -11   15.40    1.52
   4  -1 -11   14.59    1.66
   3  -1 -11    2.47    1.04
   3  -1 -11    3.51    0.91
   3  -1 -11    1.67    0.91
   2  -1 -11   -0.52    1.27
   2  -1 -11    3.12    0.93
   2  -1 -11    3.74    0.90
   1  -1 -11    0.89    0.85
   1  -1 -11   -0.29    0.59
   1  -1 -11   -0.52    0.80
   0  -1 -11    1.19    0.99
   0  -1 -11    0.84    0.65
   0  -1 -11    1.00    0.90
   0  -1 -11    0.75    0.86
   0   1  11   -0.01    0.40
  -1  -1 -11    0.45    0.66
  -1  -1 -11   -2.38    0.95
  -1  -1 -11    0.74    0.83
   1   1  11   -0.29    0.43
  -2  -1 -11    9.85    1.29
  -2  -1 -11   11.49    1.27
  -2  -1 -11    8.69    0.99
   2   1  11   10.15    0.92
  -3  -1 -11    0.39    0.74
  -3  -1 -11    0.87    0.84
   3   1  11    0.56    0.50
  -4  -1 -11   49.80    2.86
   4   1  11   48.70    2.54
   4   1  11   46.74    2.48
  -5  -1 -11    1.24    0.73
   5   1  11    0.75    0.43
   5   1  11    0.54    0.54
  -6  -1 -11   15.41    1.22
   6   1  11   11.54    1.00
   6   1  11    8.84    0.95
  -7  -1 -11    4.61    0.76
   7   1  11    5.96    0.71
   7   1  11    5.72    0.66
  -8  -1 -11    3.16    0.51
   8   1  11    2.20    0.35
   9  -2 -11    3.57    0.75
   9  -2 -11    2.03    0.78
   8  -2 -11    1.39    0.87
   8  -2 -11    1.09    0.82
   7  -2 -11    1.12    0.93
   7  -2 -11    0.66    0.95
   6  -2 -11   -0.08    1.07
   6  -2 -11    0.07    0.90
   5  -2 -11    3.41    1.12
   5  -2 -11    5.71    1.08
   4  -2 -11    2.96    1.04
   4  -2 -11    2.80    1.10
   3  -2 -11    8.44    1.37
   3  -2 -11    7.18    1.21
   2  -2 -11   69.88    4.38
   2  -2 -11   69.45    4.87
   2  -2 -11   68.19    4.90
   1  -2 -11    4.14    1.12
   1  -2 -11    2.74    1.15
   1  -2 -11    6.11    1.24
   0  -2 -11   31.74    2.65
   0  -2 -11   28.69    2.67
   0  -2 -11   31.42    2.52
  -1  -2 -11    7.70    0.84
  -1  -2 -11    7.93    1.30
  -1  -2 -11    8.28    1.32
  -1  -2 -11   10.23    1.40
   1   2  11    7.38    0.75
  -2  -2 -11   12.96    1.47
  -2  -2 -11   11.17    1.18
  -2  -2 -11   10.27    1.31
   2   2  11    9.26    0.85
  -3  -2 -11    4.37    0.81
   3   2  11    4.24    0.63
   3   2  11    4.83    0.64
  -4  -2 -11    0.68    0.71
   4   2  11    1.10    0.54
   4   2  11    1.73    0.53
  -5  -2 -11    2.86    0.76
   5   2  11    2.06    0.50
   5   2  11    2.03    0.56
  -6  -2 -11   21.87    1.47
  -6  -2 -11   21.22    1.81
   6   2  11   22.52    1.26
   6   2  11   21.94    1.38
   6  -3 -11   16.52    1.72
   5  -3 -11    7.67    1.19
   5  -3 -11    5.22    1.16
   4  -3 -11    2.06    0.99
   4  -3 -11    1.06    1.08
   4  -3 -11    0.89    0.96
   3  -3 -11    1.19    1.02
   3  -3 -11    3.26    1.10
   3  -3 -11    1.08    1.13
   2  -3 -11    1.57    1.06
   2  -3 -11    4.81    1.14
   2  -3 -11    1.47    1.20
   1  -3 -11    3.49    1.06
   1  -3 -11    1.60    1.13
   1  -3 -11    3.38    1.23
  -1   3  11    2.31    0.52
   0  -3 -11    1.82    1.13
   0  -3 -11    0.19    0.93
   0  -3 -11    3.30    1.19
   0   3  11    1.25    0.49
  -1  -3 -11    0.94    1.10
   1   3  11    2.57    0.53
  -2  -3 -11   18.68    1.94
   2   3  11   19.59    1.21
   2   3  11   20.79    1.20
  -3  -3 -11    2.60    0.89
   3   3  11    3.49    0.49
   3   3  11    2.42    0.48
  -4  -3 -11    0.91    0.69
   4   3  11    1.43    0.37
   4   3  11    1.57    0.41
   6   3 -12    0.96    0.52
   5   3 -12    0.47    0.56
  -5  -3  12   -0.52    0.40
  -5  -3  12    0.23    0.43
   4   3 -12    0.05    0.63
  -4  -3  12    0.39    0.47
   3   3 -12    0.64    0.64
  -3  -3  12    0.99    0.49
   2   3 -12    0.13    0.41
   2   3 -12   -0.85    0.62
  -2  -3  12    0.08    0.51
  -2  -3  12    0.28    0.50
   1   3 -12    0.98    0.46
   1   3 -12    1.95    0.68
  -1  -3  12    2.40    0.57
  -1  -3  12    1.93    0.56
   0   3 -12    0.55    0.48
   0  -3  12    0.32    0.47
   0  -3  12    0.97    0.90
   0  -3  12    0.98    0.52
  -1   3 -12    4.56    0.62
   1  -3  12    5.99    0.65
   1  -3  12    5.83    0.97
   1  -3  12    4.42    0.56
  -2   3 -12    0.45    0.51
   2  -3  12    0.28    0.45
   2  -3  12   -0.13    0.42
  -3   3 -12    2.22    0.50
   3  -3  12    2.36    0.40
  -9  -2  12    0.49    0.46
   8   2 -12   -0.02    0.57
  -8  -2  12    0.42    0.56
  -8  -2  12    0.45    0.59
   7   2 -12    0.04    0.68
  -7  -2  12   -0.11    0.61
  -7  -2  12   -0.41    0.57
   6   2 -12    1.90    0.76
  -6  -2  12    1.62    0.71
  -6  -2  12    0.84    0.55
   5   2 -12    1.05    0.68
  -5  -2  12    1.21    0.69
  -5  -2  12    0.69    0.55
   4   2 -12    2.76    0.75
  -4  -2  12    5.43    0.78
  -4  -2  12    2.56    0.61
   3   2 -12    2.44    0.73
  -3  -2  12    2.04    0.58
  -3  -2  12    3.19    0.71
   2   2 -12    0.40    0.69
  -2  -2  12   -0.06    0.57
  -2  -2  12    0.09    0.49
  -2  -2  12    0.11    0.66
   1   2 -12    6.45    0.91
   1   2 -12    5.15    0.68
  -1  -2  12    3.83    0.65
  -1  -2  12    4.13    0.73
  -1  -2  12    3.85    0.58
   0   2 -12    0.10    0.54
   0   2 -12   -0.17    0.66
   0  -2  12    0.64    0.47
   0  -2  12   -0.59    0.59
   0  -2  12   -0.19    0.49
  -1   2 -12    3.77    0.67
  -1   2 -12    1.88    0.75
   1  -2  12    5.65    0.71
   1  -2  12    4.41    0.70
  -2   2 -12    2.62    0.79
  -2   2 -12    2.20    0.61
   2  -2  12    2.00    0.56
   2  -2  12    2.66    0.61
  -3   2 -12    7.07    0.77
   3  -2  12    7.18    0.75
   3  -2  12    8.60    0.89
  -4   2 -12    2.53    0.61
   4  -2  12    1.47    0.51
   4  -2  12    1.10    0.57
  -5   2 -12    0.06    0.54
   5  -2  12    0.16    0.52
   5  -2  12    0.54    0.47
   6  -2  12   -0.40    0.42
   6  -2  12   -0.08    0.39
  10   1 -12    2.07    0.67
   9   1 -12    0.26    0.69
   9   1 -12    0.00    0.73
  -9  -1  12    0.89    0.54
   8   1 -12    5.88    0.84
   8   1 -12    4.88    0.95
  -8  -1  12    4.44    0.66
   7   1 -12    0.59    0.64
   7   1 -12   -1.16    0.63
   7   1 -12   -0.46    0.81
  -7  -1  12    0.47    0.57
   6   1 -12    7.65    0.85
   6   1 -12    7.76    0.88
  -6  -1  12    7.37    0.77
   5   1 -12    3.76    0.78
  -5  -1  12    4.79    0.64
   4   1 -12    2.09    0.74
  -4  -1  12    1.80    0.54
  -4  -1  12    2.61    0.66
   3   1 -12    0.25    0.68
  -3  -1  12   -0.02    0.60
  -3  -1  12    0.44    0.50
   2   1 -12    8.09    0.95
  -2  -1  12    6.92    0.72
  -2  -1  12    9.48    0.86
   1   1 -12   19.79    1.49
  -1  -1  12   18.72    1.38
  -1  -1  12   18.28    1.24
  -1  -1  12   18.56    1.28
   0   1 -12   -0.45    0.65
   0  -1  12   -0.07    0.53
   0  -1  12   -0.01    0.48
   0  -1  12    0.51    0.45
  -1   1 -12   29.85    1.94
  -1   1 -12   29.85    1.77
   1  -1  12   29.60    1.71
   1  -1  12   28.07    1.84
   1  -1  12   28.10    1.76
   1  -1  12   30.77    1.67
  -2   1 -12   -0.08    0.66
  -2   1 -12    0.12    0.58
   2  -1  12    0.26    0.54
   2  -1  12   -0.22    0.44
   2  -1  12    0.10    0.54
   2  -1  12   -0.23    0.51
  -3   1 -12    1.69    0.81
  -3   1 -12    1.51    0.62
   3  -1  12    1.89    0.61
   3  -1  12    1.74    0.52
   3  -1  12    0.87    0.55
   3  -1  12    1.51    0.55
  -4   1 -12    0.83    0.61
  -4   1 -12   -0.31    0.73
   4  -1  12    0.52    0.51
   4  -1  12    1.20    0.59
   4  -1  12    0.73    0.57
  -5   1 -12    6.95    0.80
   5  -1  12    7.08    0.77
   5  -1  12    5.66    0.74
   5  -1  12    7.37    0.69
  -6   1 -12    3.42    0.69
   6  -1  12    3.68    0.59
   6  -1  12    4.08    0.66
   6  -1  12    4.03    0.63
  -7   1 -12   24.04    1.51
   7  -1  12   27.88    1.49
   7  -1  12   24.32    1.48
  11   0 -12    1.24    0.51
   7   0 -12   18.96    3.88
   6   0 -12   17.59    1.73
   6   0 -12   18.43    1.80
   5   0 -12    0.68    0.82
   5   0 -12   -0.29    0.93
   5   0 -12    1.53    0.87
   4   0 -12    4.59    0.90
   4   0 -12    5.56    0.97
   4   0 -12    1.17    0.99
   4   0 -12    4.35    0.71
   3   0 -12    9.15    1.16
   3   0 -12    9.60    1.03
  -3   0  12   11.08    0.97
  -3   0  12   11.09    0.99
   2   0 -12   52.92    3.78
   2   0 -12   54.48    2.99
  -2   0  12   51.15    2.79
  -2   0  12   54.95    2.71
   1   0 -12    8.94    0.92
   1   0 -12    7.08    1.22
  -1   0  12    9.27    0.86
   0   0 -12    0.17    0.66
   0   0  12    0.63    0.44
   0   0  12    0.68    0.48
  -1   0 -12   19.61    1.48
   1   0  12   19.06    1.30
   1   0  12   18.95    1.24
  -2   0 -12    0.07    0.67
   2   0  12   -0.14    0.43
   2   0  12    0.27    0.50
  -3   0 -12   83.24    4.43
   3   0  12   80.86    3.98
   3   0  12   78.67    3.97
  -4   0 -12   11.78    1.17
   4   0  12   10.50    1.11
   4   0  12   10.44    0.91
   4   0  12   10.82    1.01
  -5   0 -12   86.81    4.13
  -5   0 -12   78.30    4.47
   5   0  12   80.83    4.03
   5   0  12   80.68    4.39
   5   0  12   84.22    4.04
  -6   0 -12    4.16    0.65
  -6   0 -12    4.63    0.78
   6   0  12    3.07    0.62
   6   0  12    2.87    0.55
  -7   0 -12    8.18    0.86
  -7   0 -12    6.43    0.72
   7   0  12    5.96    0.64
   7   0  12    5.69    0.65
   9  -1 -12    0.34    0.78
   9  -1 -12   -0.13    0.83
   8  -1 -12    4.63    0.98
   8  -1 -12    3.79    1.00
   7  -1 -12   -0.76    0.86
   7  -1 -12   -0.25    0.83
   6  -1 -12    7.96    1.11
   6  -1 -12    6.35    1.14
   5  -1 -12    4.98    1.15
   5  -1 -12    7.14    1.23
   5  -1 -12    5.85    1.10
   4  -1 -12    5.15    1.21
   4  -1 -12    3.33    1.04
   4  -1 -12    1.69    0.91
   3  -1 -12    2.30    1.25
   3  -1 -12    0.69    0.87
   3  -1 -12    0.50    0.96
   2  -1 -12    7.47    1.11
   2  -1 -12    8.74    1.30
   2  -1 -12   11.76    1.75
   1  -1 -12   19.46    2.07
   1  -1 -12   18.32    1.42
   1  -1 -12   20.52    2.01
   1  -1 -12   20.76    1.84
  -1   1  12   21.00    1.24
  -1   1  12   19.40    1.36
   0  -1 -12   -0.05    0.65
   0  -1 -12   -0.43    0.88
   0  -1 -12    0.26    0.92
   0   1  12   -0.12    0.53
   0   1  12   -0.34    0.42
  -1  -1 -12   34.89    1.97
  -1  -1 -12   25.32    2.49
  -1  -1 -12   28.83    2.46
   1   1  12   30.34    1.70
  -2  -1 -12   -1.25    0.90
  -2  -1 -12    0.19    0.70
  -2  -1 -12   -0.71    0.93
   2   1  12   -0.15    0.46
  -3  -1 -12    0.41    0.72
   3   1  12    1.04    0.52
  -4  -1 -12   -0.26    0.69
   4   1  12    0.56    0.43
   4   1  12   -0.31    0.50
  -5  -1 -12    6.38    0.86
   5   1  12    6.30    0.70
  -6  -1 -12    3.14    0.73
   6   1  12    3.34    0.56
  -7  -1 -12   23.97    1.40
   7   1  12   19.46    1.27
   8  -2 -12    0.13    0.97
   8  -2 -12    0.16    0.72
   7  -2 -12    0.26    1.14
   7  -2 -12    0.28    0.83
   6  -2 -12    0.67    0.90
   6  -2 -12    0.62    1.09
   5  -2 -12    0.89    0.93
   5  -2 -12    0.84    1.03
   4  -2 -12    3.93    1.16
   4  -2 -12    4.13    1.05
   3  -2 -12    2.73    1.07
   3  -2 -12    2.54    1.14
   2  -2 -12   -0.33    0.99
   2  -2 -12    0.42    1.11
   1  -2 -12    8.37    1.33
   1  -2 -12    8.01    1.38
   1  -2 -12    6.76    1.34
   0  -2 -12   -0.15    1.14
   0  -2 -12    0.98    1.09
   0  -2 -12    0.30    1.10
  -1  -2 -12    5.67    1.28
  -1  -2 -12    6.25    1.32
  -1  -2 -12    4.10    1.15
   1   2  12    5.61    0.67
  -2  -2 -12    2.84    0.70
  -2  -2 -12    1.64    0.94
  -2  -2 -12    2.57    1.11
   2   2  12    2.39    0.54
  -3  -2 -12   11.66    1.43
  -3  -2 -12   10.49    1.12
   3   2  12    9.79    0.95
   3   2  12    9.38    0.97
  -4  -2 -12    2.09    1.00
  -4  -2 -12    2.37    0.72
   4   2  12    2.63    0.53
   4   2  12    2.73    0.56
  -5  -2 -12    0.16    0.80
  -5  -2 -12    0.13    0.61
   5   2  12    0.30    0.40
   5   2  12    0.41    0.46
  -6  -2 -12   -0.10    0.62
  -6  -2 -12    0.30    0.48
   6   2  12    0.44    0.43
   5  -3 -12   -0.60    0.94
   5  -3 -12    0.67    0.80
   4  -3 -12    1.05    1.02
   4  -3 -12    2.42    0.93
   3  -3 -12   -0.31    1.03
   3  -3 -12    0.26    0.92
   3  -3 -12    2.36    0.95
   2  -3 -12    2.09    0.92
   2  -3 -12   -0.68    0.91
   2  -3 -12   -0.06    1.08
  -2   3  12    0.55    0.44
   1  -3 -12    1.55    0.88
   1  -3 -12    1.55    1.14
   1  -3 -12    1.80    0.99
  -1   3  12    1.60    0.46
   0  -3 -12   -0.14    0.98
   0  -3 -12   -1.76    0.75
   0  -3 -12    0.43    0.98
   0   3  12    0.40    0.45
  -1  -3 -12    5.33    1.11
   1   3  12    5.87    0.60
  -2  -3 -12    0.04    0.82
   2   3  12    0.12    0.36
   2   3  12    0.57    0.37
  -3  -3 -12    2.06    0.73
   3   3  12    1.72    0.37
   5   3 -13    0.65    0.55
   4   3 -13    1.23    0.57
  -4  -3  13    0.53    0.40
   3   3 -13    2.42    0.60
  -3  -3  13    4.15    0.54
  -3  -3  13    5.50    0.59
   2   3 -13    1.60    0.60
  -2  -3  13    0.73    0.49
  -2  -3  13    1.47    0.46
   1   3 -13   10.20    1.02
  -1  -3  13   12.68    0.91
  -1  -3  13   11.32    0.98
  -1  -3  13   12.78    1.48
   0   3 -13    3.12    0.49
   0  -3  13    4.00    0.56
   0  -3  13    2.97    0.79
   0  -3  13    3.84    0.57
  -1   3 -13    3.04    0.52
   1  -3  13    3.32    0.53
   1  -3  13    3.66    0.52
   8   2 -13    0.37    0.53
  -8  -2  13   -0.40    0.51
  -8  -2  13    0.50    0.50
   7   2 -13    2.29    0.69
  -7  -2  13    4.16    0.63
  -7  -2  13    4.89    0.71
   6   2 -13    0.03    0.73
  -6  -2  13    0.58    0.64
  -6  -2  13   -0.12    0.55
   5   2 -13   23.30    1.68
  -5  -2  13   24.04    1.61
  -5  -2  13   23.08    1.49
   4   2 -13    0.44    0.71
  -4  -2  13    3.12    0.73
  -4  -2  13   -0.24    0.52
   3   2 -13    1.31    0.76
  -3  -2  13    1.28    0.53
  -3  -2  13    2.31    0.69
   2   2 -13    0.86    0.75
  -2  -2  13    1.11    0.51
  -2  -2  13    0.86    0.65
   1   2 -13    1.06    0.70
  -1  -2  13    2.02    0.52
  -1  -2  13    2.02    0.68
  -1  -2  13    2.19    0.59
   0   2 -13    0.82    0.53
   0   2 -13    1.58    0.70
   0  -2  13    0.95    0.59
   0  -2  13    1.42    0.51
   0  -2  13    0.94    0.49
  -1   2 -13    0.50    0.52
  -1   2 -13   -0.21    0.69
   1  -2  13   -0.52    0.54
   1  -2  13    0.62    0.52
  -2   2 -13    8.39    1.00
  -2   2 -13   11.29    0.99
   2  -2  13   10.50    1.01
   2  -2  13   10.12    0.95
  -3   2 -13    2.18    0.55
   3  -2  13    1.47    0.58
   3  -2  13    3.18    0.60
  -4   2 -13    0.07    0.52
   4  -2  13    0.23    0.49
   4  -2  13   -0.12    0.50
  -5   2 -13    5.16    0.62
   5  -2  13    6.13    0.60
   5  -2  13    6.82    0.68
 -10  -1  13    0.45    0.54
   9   1 -13    1.37    0.69
  -9  -1  13    1.59    0.61
  -9  -1  13    1.49    0.52
   8   1 -13    2.85    0.81
  -8  -1  13    1.64    0.57
  -7  -1  13    1.17    0.57
   6   1 -13    5.77    0.84
  -6  -1  13    6.30    0.81
  -6  -1  13    6.37    0.75
   5   1 -13    0.95    0.75
  -5  -1  13    0.89    0.64
  -5  -1  13    1.14    0.57
   4   1 -13    7.13    1.28
   4   1 -13   12.23    1.13
  -4  -1  13   11.63    1.19
  -4  -1  13   13.00    1.05
   3   1 -13    0.67    0.76
   3   1 -13    2.62    0.86
  -3  -1  13    0.19    0.51
  -3  -1  13    0.26    0.61
   2   1 -13   21.61    1.60
  -2  -1  13   18.80    1.42
  -2  -1  13   20.33    1.37
  -2  -1  13   19.91    1.34
   1   1 -13   32.57    2.01
  -1  -1  13   29.92    1.76
  -1  -1  13   29.06    1.72
  -1  -1  13   29.83    1.82
   0   1 -13    2.52    0.76
   0  -1  13    0.95    0.56
   0  -1  13    1.25    0.49
   0  -1  13    0.81    0.56
  -1   1 -13    0.68    0.71
   1  -1  13    1.37    0.59
   1  -1  13    1.06    0.48
   1  -1  13    2.64    0.60
  -2   1 -13    3.65    0.82
   2  -1  13    4.02    0.63
   2  -1  13    3.50    0.61
   2  -1  13    5.40    0.74
   2  -1  13    3.39    0.56
  -3   1 -13    0.03    0.74
  -3   1 -13    0.06    0.57
   3  -1  13   -0.36    0.52
   3  -1  13   -0.48    0.48
   3  -1  13    0.01    0.49
   3  -1  13    0.25    0.52
  -4   1 -13    3.58    0.83
  -4   1 -13    1.95    0.58
   4  -1  13    2.95    0.63
   4  -1  13    2.64    0.54
   4  -1  13    2.35    0.60
  -5   1 -13    8.74    0.97
   5  -1  13    9.35    0.92
   5  -1  13    7.88    0.79
   5  -1  13    8.63    0.94
  -6   1 -13    6.07    0.69
   6  -1  13    7.82    0.74
   6  -1  13    7.90    0.74
  10   0 -13    0.64    0.63
  10   0 -13    0.12    0.79
   9   0 -13    1.27    0.93
   9   0 -13   12.02    3.51
   7   0 -13    1.16    0.92
   7   0 -13    0.55    0.87
   6   0 -13   -0.28    0.87
   6   0 -13    1.04    1.01
   5   0 -13   -1.01    0.97
   5   0 -13   -0.14    0.99
   5   0 -13    0.02    0.84
   4   0 -13    0.96    0.92
   4   0 -13    0.30    0.80
  -4   0  13    0.42    0.53
  -4   0  13   -0.14    0.50
   3   0 -13    0.40    0.92
   3   0 -13   -0.55    0.63
  -3   0  13   -1.04    0.52
  -3   0  13   -0.28    0.48
   2   0 -13    0.30    0.70
  -2   0  13    0.20    0.46
   1   0 -13    0.40    0.72
   1   0 -13   -0.11    0.94
  -1   0  13    0.66    0.51
  -1   0  13    0.44    0.47
   0   0 -13    0.02    0.68
   0   0  13    0.26    0.53
   0   0  13   -0.12    0.45
  -1   0 -13   -0.08    0.71
   1   0  13   -0.25    0.46
   1   0  13    0.39    0.51
  -2   0 -13   -1.15    0.71
   2   0  13   -0.90    0.52
   2   0  13    0.25    0.49
  -3   0 -13   -0.07    0.74
   3   0  13    0.17    0.52
   3   0  13   -0.47    0.48
  -4   0 -13    0.41    0.71
   4   0  13    0.35    0.51
   4   0  13    0.11    0.53
   4   0  13   -0.04    0.57
  -5   0 -13    0.85    0.68
   5   0  13   -0.38    0.52
   5   0  13    0.74    0.52
   5   0  13    0.28    0.51
  -6   0 -13    0.42    0.65
   6   0  13   -0.08    0.48
   6   0  13   -0.17    0.48
   7   0  13    0.09    0.35
   7   0  13    0.04    0.39
  10  -1 -13    1.16    0.85
  10  -1 -13   -0.18    0.56
   9  -1 -13    2.36    1.00
   9  -1 -13    0.92    0.71
   8  -1 -13    1.63    0.83
   8  -1 -13    2.59    1.03
   7  -1 -13    0.87    0.86
   7  -1 -13    3.29    1.10
   6  -1 -13    7.73    1.33
   6  -1 -13    6.34    1.10
   5  -1 -13    0.97    1.06
   5  -1 -13    0.70    0.92
   4  -1 -13   13.32    1.45
   4  -1 -13   13.33    1.56
   3  -1 -13    0.12    1.04
   3  -1 -13    0.17    0.89
   2  -1 -13   26.52    3.04
   2  -1 -13   20.69    1.97
   2  -1 -13   21.17    2.16
   1  -1 -13   32.10    2.01
   1  -1 -13   34.88    2.76
   1  -1 -13   33.79    2.54
   1  -1 -13   28.74    3.10
  -1   1  13   33.79    1.87
  -1   1  13   35.57    1.85
   0  -1 -13    0.96    1.05
   0  -1 -13    0.97    0.99
   0  -1 -13    1.19    0.68
   0   1  13    1.86    0.52
   0   1  13    1.34    0.50
  -1  -1 -13    1.85    1.05
  -1  -1 -13   -0.52    1.01
  -1  -1 -13    2.13    0.72
   1   1  13    1.46    0.51
  -2  -1 -13    4.17    0.85
  -2  -1 -13    6.89    1.26
   2   1  13    5.31    0.67
  -3  -1 -13   -0.45    0.68
   3   1  13    0.13    0.43
   3   1  13    0.29    0.49
  -4  -1 -13    2.49    0.76
   4   1  13    3.30    0.59
  -5  -1 -13    6.93    0.87
   5   1  13    8.00    0.71
  -6  -1 -13    7.26    0.81
   6   1  13    7.37    0.63
   8  -2 -13   -0.24    0.64
   7  -2 -13    2.90    0.83
   6  -2 -13   -0.14    1.02
   6  -2 -13    0.00    0.83
   5  -2 -13   24.16    2.25
   5  -2 -13   23.70    2.05
   4  -2 -13    0.06    0.90
   4  -2 -13   -0.01    1.04
   3  -2 -13    1.97    1.01
   3  -2 -13    1.94    1.09
   2  -2 -13    1.17    1.09
   2  -2 -13    1.37    1.04
   1  -2 -13    3.31    1.12
   1  -2 -13    2.70    1.12
   0  -2 -13    1.90    1.16
   0  -2 -13    3.30    1.17
   0  -2 -13    0.86    1.03
  -1  -2 -13   -0.02    1.02
  -1  -2 -13   -0.74    0.89
  -1  -2 -13    0.22    1.10
   1   2  13    0.47    0.49
  -2  -2 -13   10.69    1.38
  -2  -2 -13   10.72    1.01
   2   2  13   12.61    0.98
   2   2  13   11.92    1.00
  -3  -2 -13    2.98    0.99
  -3  -2 -13    1.91    0.63
   3   2  13    3.17    0.54
   3   2  13    4.41    0.59
  -4  -2 -13   -0.13    0.83
  -4  -2 -13    0.16    0.57
   4   2  13    0.51    0.43
   4   2  13   -0.23    0.46
  -5  -2 -13    4.62    0.62
  -5  -2 -13    6.14    0.87
   5   2  13    6.60    0.57
   5   2  13    5.83    0.58
   5  -3 -13    1.28    0.89
   4  -3 -13    2.91    0.79
   4  -3 -13    1.68    0.93
   3  -3 -13    5.85    0.92
   3  -3 -13    5.67    1.08
   2  -3 -13    1.75    0.79
   2  -3 -13    2.52    0.98
  -2   3  13    1.89    0.41
   1  -3 -13   11.44    1.38
   1  -3 -13   14.87    1.63
   1  -3 -13   14.86    1.46
  -1   3  13   14.90    0.92
   0  -3 -13    4.05    0.89
   0   3  13    3.94    0.48
  -1  -3 -13    4.09    0.88
   1   3  13    3.71    0.45
   7   2 -14    0.82    0.57
  -7  -2  14    0.29    0.53
  -7  -2  14    0.19    0.49
   6   2 -14    0.45    0.68
  -6  -2  14    0.53    0.52
  -6  -2  14    0.38    0.61
   5   2 -14   13.24    1.33
  -5  -2  14   13.04    1.08
  -5  -2  14   16.17    1.29
   4   2 -14   -0.45    0.75
  -4  -2  14    0.80    0.64
  -4  -2  14    0.34    0.53
   3   2 -14    7.98    0.99
  -3  -2  14   11.09    1.12
  -3  -2  14    9.47    0.95
   2   2 -14    0.93    0.69
  -2  -2  14    1.88    0.66
  -2  -2  14    1.70    0.51
   1   2 -14   -0.27    0.65
  -1  -2  14   -0.63    0.46
  -1  -2  14   -0.16    0.58
  -1  -2  14    0.12    0.43
   0   2 -14   -0.02    0.64
   0  -2  14    1.13    0.48
   0  -2  14    0.85    0.58
   0  -2  14    1.31    0.53
  -1   2 -14    0.35    0.68
   1  -2  14   -0.12    0.55
   1  -2  14    0.08    0.47
  -2   2 -14    0.28    0.43
  -2   2 -14    0.26    0.64
   2  -2  14    0.02    0.45
   2  -2  14    1.11    0.54
  -3   2 -14   -0.17    0.44
   3  -2  14    0.24    0.44
   3  -2  14    1.04    0.51
   4  -2  14   -0.03    0.39
   4  -2  14    0.31    0.39
  -9  -1  14    1.62    0.59
  -8  -1  14    0.51    0.51
  -8  -1  14    0.41    0.60
  -7  -1  14   -0.07    0.53
  -7  -1  14   -0.26    0.61
   6   1 -14    1.27    0.66
  -6  -1  14    2.02    0.58
  -6  -1  14    2.05    0.64
   5   1 -14   -0.11    0.94
   5   1 -14    2.42    0.75
  -5  -1  14    2.85    0.70
  -5  -1  14    2.45    0.58
   4   1 -14    3.91    0.80
  -4  -1  14    5.51    0.74
  -4  -1  14    6.49    0.70
   3   1 -14    0.47    0.70
  -3  -1  14    0.11    0.49
  -3  -1  14    0.35    0.58
   2   1 -14   -0.14    0.70
  -2  -1  14    0.63    0.57
  -2  -1  14    0.60    0.56
  -2  -1  14   -0.17    0.48
   1   1 -14    3.83    0.82
  -1  -1  14    3.72    0.62
  -1  -1  14    3.15    0.56
  -1  -1  14    4.22    0.65
   0   1 -14   12.17    1.37
   0  -1  14   14.22    1.13
   0  -1  14   12.49    1.01
   0  -1  14   11.52    1.10
  -1   1 -14    1.10    0.79
   1  -1  14    0.57    0.47
   1  -1  14   -0.46    0.53
   1  -1  14    0.25    0.51
  -2   1 -14    7.78    0.97
   2  -1  14    6.94    0.69
   2  -1  14    4.96    0.65
   2  -1  14    5.51    0.66
   2  -1  14    8.73    0.72
  -3   1 -14    4.82    0.86
   3  -1  14    4.21    0.58
   3  -1  14    3.72    0.59
   3  -1  14    3.73    0.56
   3  -1  14    6.30    0.70
  -4   1 -14   17.33    1.45
   4  -1  14   20.17    1.25
   4  -1  14   19.62    1.32
   4  -1  14   18.66    1.31
  -5   1 -14    3.63    0.66
   5  -1  14    2.97    0.56
   5  -1  14    2.87    0.50
  10   0 -14    0.32    0.56
   9   0 -14   25.70    3.04
   7   0 -14    8.09    1.57
   6   0 -14    4.41    1.67
   5   0 -14    1.60    1.75
   5   0 -14    2.66    0.95
   5   0 -14    2.63    1.15
  -5   0  14    2.87    0.62
   4   0 -14   25.93    2.71
   4   0 -14   22.74    2.22
  -4   0  14   18.12    1.45
  -4   0  14   21.87    1.39
   3   0 -14    6.44    1.16
   3   0 -14    4.11    0.77
  -3   0  14    4.62    0.62
   2   0 -14    0.23    0.72
   2   0 -14    1.69    1.03
  -2   0  14    0.57    0.49
   1   0 -14   52.82    3.97
   1   0 -14   57.92    3.19
  -1   0  14   55.51    2.84
  -1   0  14   57.22    2.88
   0   0 -14   26.69    1.86
   0   0  14   27.28    1.57
   0   0  14   25.15    1.63
  -1   0 -14    7.66    1.25
  -1   0 -14    8.77    1.01
   1   0  14    7.09    0.77
   1   0  14    7.30    0.72
  -2   0 -14   21.08    1.99
  -2   0 -14   16.28    1.53
   2   0  14   16.12    1.23
   2   0  14   15.11    1.18
  -3   0 -14   -0.01    0.70
   3   0  14    0.61    0.53
   3   0  14    0.43    0.50
  -4   0 -14   -0.15    0.68
   4   0  14   -0.14    0.51
   4   0  14    0.25    0.51
  -5   0 -14    0.52    0.65
   5   0  14    1.27    0.52
   5   0  14    1.02    0.51
  -6   0 -14    0.36    0.53
   6   0  14    0.39    0.40
   6   0  14    0.11    0.35
   3  -1 -14    0.88    0.97
   3  -1 -14   -0.03    1.05
   3  -1 -14    7.09    1.96
   2  -1 -14    0.22    1.05
   2  -1 -14   -4.07    1.67
   2  -1 -14    0.86    0.96
  -2   1  14    0.57    0.51
   1  -1 -14    6.15    1.19
   1  -1 -14    4.83    1.11
  -1   1  14    4.42    0.61
  -1   1  14    3.92    0.59
   0  -1 -14    9.96    1.45
   0  -1 -14   12.44    1.17
   0  -1 -14   13.17    1.51
   0   1  14   11.40    0.99
   0   1  14   14.37    1.07
  -1  -1 -14    1.40    1.07
  -1  -1 -14    0.61    0.68
   1   1  14    0.63    0.50
  -2  -1 -14    7.74    0.91
  -2  -1 -14    9.10    1.31
   2   1  14    6.56    0.74
  -3  -1 -14    5.16    0.81
   3   1  14    3.88    0.54
   3   1  14    4.92    0.63
  -4  -1 -14   19.05    1.48
   4   1  14   20.53    1.31
  -5  -1 -14    3.05    0.65
   5   1  14    3.82    0.52
   7  -2 -14    0.45    0.68
   6  -2 -14    0.72    0.74
   6  -2 -14    0.13    0.92
   5  -2 -14   13.76    1.77
   5  -2 -14   13.44    1.51
   4  -2 -14    0.42    1.01
   4  -2 -14    0.18    0.92
   3  -2 -14   10.66    1.32
   3  -2 -14   11.36    1.41
   2  -2 -14    2.18    1.04
   2  -2 -14    1.81    1.05
   1  -2 -14    0.84    1.02
   1  -2 -14   -0.04    1.02
   0  -2 -14    1.73    1.04
   0  -2 -14    0.37    0.94
  -1  -2 -14   -0.18    0.94
  -1  -2 -14    0.34    0.84
   1   2  14    0.68    0.46
  -2  -2 -14    0.47    0.88
   2   2  14    0.22    0.45
   2   2  14    0.17    0.47
  -3  -2 -14   -0.01    0.82
   3   2  14    0.61    0.44
   3   2  14    0.33    0.40
   4   2  14   -0.35    0.38
   4   2  14    0.19    0.33
   6   2 -15   -0.13    0.54
  -6  -2  15    0.19    0.45
  -6  -2  15    0.31    0.53
   5   2 -15    1.04    0.65
  -5  -2  15    0.42    0.56
  -5  -2  15    0.87    0.50
   4   2 -15    1.37    0.67
  -4  -2  15    0.00    0.49
  -4  -2  15    0.54    0.60
   3   2 -15    0.32    0.67
  -3  -2  15   -0.34    0.60
  -3  -2  15   -0.21    0.47
   2   2 -15   -0.25    0.65
  -2  -2  15    0.27    0.46
  -2  -2  15    0.14    0.57
   1   2 -15    3.90    0.75
  -1  -2  15    5.40    0.58
  -1  -2  15    5.17    0.66
   0   2 -15   11.26    1.17
   0  -2  15   10.48    0.87
   0  -2  15   10.65    0.92
   0  -2  15   13.16    1.06
  -1   2 -15    2.91    0.70
   1  -2  15    2.98    0.52
   1  -2  15    2.70    0.54
  -2   2 -15    1.19    0.56
   2  -2  15    1.68    0.43
   2  -2  15    0.99    0.48
  -8  -1  15    0.89    0.44
  -8  -1  15    0.52    0.54
  -7  -1  15    2.77    0.55
  -7  -1  15    2.25    0.64
   6   1 -15    3.84    1.34
  -6  -1  15    0.91    0.62
  -6  -1  15    0.29    0.52
   4   1 -15   -0.03    0.72
   4   1 -15    0.69    1.03
  -4  -1  15    0.89    0.60
  -4  -1  15    0.10    0.49
  -4  -1  15    0.54    0.58
   3   1 -15    8.40    0.97
  -3  -1  15   10.62    0.90
  -3  -1  15    5.95    0.73
   2   1 -15    1.56    0.77
  -2  -1  15    1.66    0.48
  -2  -1  15    2.35    0.57
  -2  -1  15    2.60    0.59
   1   1 -15    1.90    0.80
  -1  -1  15    2.55    0.52
  -1  -1  15    1.32    0.53
  -1  -1  15    1.40    0.57
   0   1 -15    1.29    0.78
   0  -1  15    1.81    0.59
   0  -1  15    1.04    0.48
   0  -1  15    1.38    0.51
  -1   1 -15    0.52    0.75
   1  -1  15    0.04    0.48
   1  -1  15    0.42    0.48
   1  -1  15    0.74    0.55
  -2   1 -15    0.85    0.71
   2  -1  15    1.95    0.56
   2  -1  15    0.47    0.46
   2  -1  15    1.06    0.48
   2  -1  15    1.78    0.51
  -3   1 -15    5.53    0.85
   3  -1  15    5.39    0.65
   3  -1  15    3.43    0.56
   3  -1  15    5.32    0.55
  -4   1 -15   -0.06    0.58
   4  -1  15    0.21    0.44
   4  -1  15   -0.37    0.48
   5   0 -15   -1.79    1.05
   5   0 -15   -0.47    2.34
   5   0 -15   -0.46    0.84
  -5   0  15   -0.33    0.52
   4   0 -15    0.60    1.09
  -4   0  15    0.26    0.48
   3   0 -15   -0.83    0.99
   3   0 -15    0.47    0.66
  -3   0  15   -0.36    0.48
   2   0 -15   -0.10    0.98
   2   0 -15    0.18    0.71
  -2   0  15    0.91    0.58
  -2   0  15    0.16    0.49
   1   0 -15    0.00    0.72
   1   0 -15    0.41    0.97
  -1   0  15   -0.31    0.54
  -1   0  15   -0.39    0.46
   0   0 -15   -0.37    0.94
   0   0 -15    0.89    0.75
   0   0  15    0.06    0.47
   0   0  15    0.14    0.52
  -1   0 -15   -0.45    0.72
  -1   0 -15    0.28    0.97
   1   0  15   -0.22    0.47
   1   0  15   -0.77    0.50
  -2   0 -15    0.07    0.73
  -2   0 -15    0.05    0.98
   2   0  15   -0.13    0.48
   2   0  15   -0.03    0.48
  -3   0 -15    0.13    0.73
   3   0  15   -0.28    0.50
   3   0  15    0.06    0.51
  -4   0 -15   -0.01    0.66
   4   0  15   -0.27    0.45
   4   0  15   -0.60    0.46
  -5   0 -15   -0.37    0.54
   5   0  15    0.46    0.44
   3  -1 -15   12.01    1.47
   3  -1 -15   16.50    2.57
   3  -1 -15    9.97    1.27
  -3   1  15   10.32    0.98
   2  -1 -15    1.88    0.95
   2  -1 -15    3.32    1.08
  -2   1  15    3.15    0.54
   1  -1 -15    2.57    1.03
   1  -1 -15   -0.85    0.93
  -1   1  15    1.62    0.47
  -1   1  15    1.75    0.50
   0  -1 -15    2.22    1.04
   0  -1 -15    1.37    0.62
   0   1  15    1.53    0.50
  -1  -1 -15    0.77    0.66
  -1  -1 -15    0.60    1.01
   1   1  15    0.42    0.49
  -2  -1 -15    1.63    0.70
   2   1  15    1.71    0.45
   2   1  15    1.83    0.54
  -3  -1 -15    5.08    0.77
   3   1  15    4.83    0.61
  -4  -1 -15    0.26    0.60
   4   1  15    0.25    0.44
   6  -2 -15   -0.43    0.66
   6  -2 -15    0.04    0.81
   5  -2 -15   -0.06    0.75
   5  -2 -15    0.34    0.88
   4  -2 -15    0.51    0.91
   4  -2 -15    0.47    0.84
   3  -2 -15   -0.29    0.91
   3  -2 -15    0.96    0.93
   2  -2 -15    0.82    0.95
   2  -2 -15   -0.24    0.93
   1  -2 -15    6.52    1.07
   1  -2 -15    6.88    1.17
   0  -2 -15    9.34    1.11
   0  -2 -15   11.06    1.28
   1   2  15    2.98    0.50
   1   2  15    3.34    0.48
   2   2  15    1.38    0.40
   2   2  15    1.17    0.41
   5   2 -16    1.16    0.53
  -5  -2  16    0.66    0.49
  -5  -2  16    0.22    0.39
   4   2 -16    1.86    0.63
  -4  -2  16    3.84    0.57
  -4  -2  16    3.68    0.50
   3   2 -16   -0.36    0.60
  -3  -2  16    0.17    0.41
  -3  -2  16    0.06    0.51
   2   2 -16    0.75    0.61
  -2  -2  16    0.16    0.41
  -2  -2  16    0.26    0.52
   1   2 -16   -0.01    0.57
  -1  -2  16    0.45    0.48
  -1  -2  16    0.56    0.39
   0   2 -16    8.33    0.93
   0  -2  16    9.81    0.87
   1  -2  16    0.16    0.42
  -7  -1  16    1.67    0.54
  -7  -1  16    1.67    0.45
  -6  -1  16    1.51    0.58
  -6  -1  16    1.12    0.52
  -6  -1  16    0.52    0.49
   5   1 -16    0.23    0.60
  -5  -1  16    0.62    0.50
  -5  -1  16   -0.16    0.54
  -5  -1  16    0.43    0.49
   4   1 -16    1.71    0.96
   4   1 -16    1.15    0.69
  -4  -1  16    0.80    0.51
  -4  -1  16    1.47    0.59
  -4  -1  16    0.71    0.56
   3   1 -16    5.12    1.14
   3   1 -16    4.43    0.84
  -3  -1  16    5.19    0.67
  -3  -1  16    3.38    0.60
  -3  -1  16    4.15    0.58
   2   1 -16   -0.08    0.78
  -2  -1  16    0.39    0.54
  -2  -1  16    0.52    0.51
  -2  -1  16    0.31    0.46
   1   1 -16    1.10    0.78
  -1  -1  16    0.11    0.54
  -1  -1  16    0.22    0.49
  -1  -1  16    0.56    0.47
   0   1 -16   16.32    1.42
   0  -1  16   16.22    1.12
   0  -1  16   16.16    1.16
   0  -1  16   17.30    1.20
  -1   1 -16    4.10    0.76
   1  -1  16    4.47    0.58
   1  -1  16    3.45    0.53
   1  -1  16    3.36    0.52
  -2   1 -16   -0.26    0.65
  -2   1 -16   -0.52    0.89
   2  -1  16    1.00    0.42
   2  -1  16    0.84    0.50
  -3   1 -16    2.11    0.57
   3  -1  16    1.98    0.43
   3  -1  16    2.24    0.49
   8   0 -16   21.33    2.58
   6   0 -16   16.49    3.13
   5   0 -16    6.71    2.78
   5   0 -16    5.44    1.12
   4   0 -16    0.31    1.07
  -4   0  16    0.16    0.46
  -4   0  16    0.28    0.59
   3   0 -16   13.94    1.82
  -3   0  16   12.62    1.05
  -3   0  16   14.23    1.16
   2   0 -16    3.54    1.08
   2   0 -16    1.66    0.70
  -2   0  16    3.85    0.61
  -2   0  16    2.27    0.53
   1   0 -16    6.52    1.16
   1   0 -16    4.56    0.83
  -1   0  16    5.74    0.66
  -1   0  16    4.53    0.60
   0   0 -16    0.10    0.99
   0   0 -16    0.44    0.73
   0   0  16   -0.41    0.52
   0   0  16    1.17    0.51
  -1   0 -16   11.79    1.26
  -1   0 -16   12.42    1.49
   1   0  16   12.23    1.01
   1   0  16   13.61    1.06
  -2   0 -16    1.51    0.74
  -2   0 -16    2.02    1.02
   2   0  16    1.59    0.50
   2   0  16    1.74    0.52
  -3   0 -16    0.15    0.61
   3   0  16    0.53    0.45
   3   0  16    0.34    0.45
  -4   0 -16    8.61    0.89
   4   0  16    7.65    0.72
   4  -1 -16    1.34    1.08
   4  -1 -16   -4.94    2.53
   4  -1 -16    1.62    0.84
  -4   1  16    0.49    0.50
   3  -1 -16    4.20    1.11
   3  -1 -16    3.99    0.92
  -3   1  16    3.76    0.55
   2  -1 -16    0.69    0.99
   2  -1 -16   -0.64    0.85
  -2   1  16    0.61    0.44
   1  -1 -16    0.06    0.99
  -1   1  16    0.54    0.46
   0  -1 -16   20.62    2.00
   0   1  16   19.41    1.29
  -1  -1 -16    5.82    1.10
  -1  -1 -16    3.46    0.64
   1   1  16    5.66    0.63
  -2  -1 -16   -0.18    0.53
   2   1  16   -0.01    0.47
  -3  -1 -16    3.46    0.58
   3   1  16    2.65    0.50
   5  -2 -16    0.57    0.66
   5  -2 -16    0.91    0.79
   4  -2 -16    3.63    0.82
   4  -2 -16    4.30    0.90
   3  -2 -16   -0.47    0.81
   3  -2 -16    0.77    0.77
   2  -2 -16    0.06    0.82
   2  -2 -16    0.37    0.75
   1  -2 -16    0.07    0.61
   1  -2 -16    1.34    0.82
   0   2  16    8.81    0.71
   1   2  16    0.80    0.36
  -6  -1  17   -0.36    0.45
  -6  -1  17   -0.57    0.37
  -6  -1  17    0.15    0.42
  -5  -1  17    0.02    0.44
  -5  -1  17    0.22    0.43
  -5  -1  17    0.36    0.48
   4   1 -17    7.02    0.99
   4   1 -17    4.03    0.65
  -4  -1  17    4.81    0.63
  -4  -1  17    7.10    0.62
  -4  -1  17    5.84    0.62
   3   1 -17    0.19    0.85
   3   1 -17    0.89    0.63
  -3  -1  17    0.01    0.51
  -3  -1  17    0.02    0.48
  -3  -1  17    0.56    0.46
   2   1 -17    2.85    0.74
   2   1 -17    3.70    0.99
  -2  -1  17    3.18    0.52
  -2  -1  17    4.06    0.58
  -2  -1  17    3.86    0.57
   1   1 -17    0.15    0.86
   1   1 -17    0.41    0.67
  -1  -1  17    0.77    0.47
  -1  -1  17   -0.36    0.44
  -1  -1  17    0.68    0.46
   0   1 -17    0.52    0.63
   0   1 -17    1.72    0.90
   0  -1  17    0.79    0.50
   0  -1  17    0.76    0.43
   0  -1  17    1.62    0.47
  -1   1 -17    0.86    0.60
  -1   1 -17    0.94    0.80
   1  -1  17    0.50    0.44
   1  -1  17    0.62    0.40
  -2   1 -17    3.84    0.60
   2  -1  17    4.76    0.53
   7   0 -17    1.48    2.16
  -7   0  17   -0.05    0.50
  -6   0  17    0.40    0.53
   5   0 -17   -0.32    0.81
  -5   0  17    0.90    0.56
   4   0 -17   -0.31    0.91
  -4   0  17   -0.02    0.54
  -4   0  17   -1.13    0.43
   3   0 -17   -0.29    0.96
  -3   0  17    0.02    0.52
  -3   0  17    0.30    0.45
   2   0 -17   -0.74    0.95
  -2   0  17    0.36    0.51
  -2   0  17    0.31    0.49
   1   0 -17   -0.66    0.93
   1   0 -17    0.73    0.61
  -1   0  17    0.04    0.49
  -1   0  17   -0.35    0.49
   0   0 -17   -0.23    0.95
   0   0 -17    0.03    0.62
   0   0  17    0.03    0.46
   0   0  17   -0.32    0.46
  -1   0 -17   -0.22    0.91
  -1   0 -17    0.41    0.63
   1   0  17    0.07    0.43
   1   0  17    0.37    0.45
  -2   0 -17    1.27    0.58
   2   0  17    0.28    0.44
   2   0  17    0.03    0.37
   6  -1 -17    1.01    0.61
   6  -1 -17   -4.43    2.25
   5  -1 -17   -0.25    0.81
   5  -1 -17    0.15    0.65
   4  -1 -17    5.01    0.85
   4  -1 -17    7.01    1.08
   3  -1 -17   -0.41    0.89
   3  -1 -17   -1.99    0.74
   2  -1 -17    4.93    1.02
   1  -1 -17    0.41    0.93
  -1   1  17   -0.31    0.43
   0  -1 -17    1.59    0.90
   0   1  17    1.15    0.46
  -1  -1 -17    0.50    0.79
   1   1  17    0.84    0.42
   2   1  17    5.16    0.51
  -4  -1  18   -0.41    0.35
  -3  -1  18    0.27    0.40
  -3  -1  18    0.45    0.39
   2   1 -18    4.17    0.87
  -2  -1  18    2.24    0.44
  -2  -1  18    2.67    0.43
   1   1 -18    4.05    0.62
   1   1 -18    4.71    0.87
  -1  -1  18    4.63    0.51
  -1  -1  18    3.99    0.46
  -5   0  18    1.09    0.47
   4   0 -18    2.26    0.81
  -4   0  18    1.41    0.40
  -4   0  18    2.08    0.50
   3   0 -18   10.52    1.42
  -3   0  18   11.58    0.87
  -3   0  18   12.16    0.92
   2   0 -18   -0.11    0.85
  -2   0  18    0.26    0.42
  -2   0  18   -0.16    0.43
   1   0 -18    3.77    0.92
  -1   0  18    2.22    0.45
  -1   0  18    3.06    0.47
   0   0 -18   -0.46    0.78
   0   0  18    0.36    0.37
   0   0  18    0.07    0.40
   3  -1 -18    0.28    0.76
   2  -1 -18    3.61    0.86
   1  -1 -18    6.24    1.00
   0   0   0    0.00    0.00
;
_shelx_hkl_checksum              68124
loop_
_space_group_symop_operation_xyz
'x, y, z'
'-x, y+1/2, -z+1/2'
'-x, -y, -z'
'x, -y-1/2, z-1/2'
loop_
_atom_site_label
_atom_site_type_symbol
_atom_site_fract_x
_atom_site_fract_y
_atom_site_fract_z
_atom_site_U_iso_or_equiv
_atom_site_adp_type
_atom_site_occupancy
_atom_site_site_symmetry_order
_atom_site_calc_flag
_atom_site_refinement_flags_posn
_atom_site_refinement_flags_adp
_atom_site_refinement_flags_occupancy
_atom_site_disorder_assembly
_atom_site_disorder_group
S1 S 0.7023(3) 0.1528(10) 0.2850(2) 0.0289(7) Uani 0.5 1 d . . P A 1
C4A C 0.6765(2) 0.0345(6) 0.38636(16) 0.0330(6) Uani 0.5 1 d . . P A 1
C5A C 0.7870(2) -0.1153(7) 0.43401(16) 0.0347(6) Uani 0.5 1 d . . P A 1
C7A C 0.8927(3) -0.1384(7) 0.3930(2) 0.0457(8) Uani 0.5 1 d . . P A 1
H7AA H 0.9725 -0.2369 0.4202 0.055 Uiso 0.5 1 calc R U P A 1
C8A C 0.8706(4) -0.0071(9) 0.3107(2) 0.0542(9) Uani 0.5 1 d . . P A 1
H8AA H 0.9305 0.0015 0.2730 0.065 Uiso 0.5 1 calc R U P A 1
C4 C 0.6765(2) 0.0345(6) 0.38636(16) 0.0330(6) Uani 0.5 1 d . . P A 2
C5 C 0.7870(2) -0.1153(7) 0.43401(16) 0.0347(6) Uani 0.5 1 d . . P A 2
C7 C 0.8927(3) -0.1384(7) 0.3930(2) 0.0457(8) Uani 0.5 1 d . . P A 2
H7A H 0.9725 -0.2369 0.4202 0.055 Uiso 0.5 1 calc R U P A 2
C8 C 0.8706(4) -0.0071(9) 0.3107(2) 0.0542(9) Uani 0.5 1 d . . P A 2
H8A H 0.9394 -0.0319 0.2804 0.065 Uiso 0.5 1 calc R U P A 2
C9 C 0.7760(10) 0.1369(18) 0.2704(5) 0.0452(18) Uani 0.5 1 d . . P A 2
H9A H 0.7786 0.2350 0.2149 0.054 Uiso 0.5 1 calc R U P A 2
C10 C 0.6660(14) 0.162(5) 0.3023(10) 0.034(4) Uani 0.5 1 d . . P A 2
H10A H 0.5890 0.2591 0.2698 0.041 Uiso 0.5 1 calc R U P A 2
O1 O 0.83013(17) -0.3775(5) 0.57889(12) 0.0449(6) Uani 1 1 d . . . . .
C1 C 0.5521(2) -0.1560(6) 0.58223(15) 0.0324(6) Uani 1 1 d . . . . .
H1A H 0.5872 -0.2603 0.6368 0.039 Uiso 1 1 calc R U . . .
C2 C 0.6239(2) -0.1159(6) 0.51833(16) 0.0322(6) Uani 1 1 d . . . . .
C3 C 0.5740(2) 0.0373(6) 0.43665(16) 0.0311(6) Uani 1 1 d . . . . .
C6 C 0.7602(2) -0.2250(7) 0.51949(17) 0.0342(6) Uani 1 1 d . . . . .
loop_
_atom_site_aniso_label
_atom_site_aniso_U_11
_atom_site_aniso_U_22
_atom_site_aniso_U_33
_atom_site_aniso_U_23
_atom_site_aniso_U_13
_atom_site_aniso_U_12
S1 0.031(2) 0.0285(9) 0.0266(12) -0.0004(8) 0.0044(13) -0.0034(16)
C4A 0.0408(14) 0.0225(12) 0.0325(13) -0.0032(10) -0.0010(11) -0.0035(10)
C5A 0.0361(13) 0.0280(14) 0.0369(13) -0.0049(10) -0.0007(11) -0.0007(10)
C7A 0.0315(14) 0.0336(16) 0.0678(19) -0.0106(14) -0.0009(13) -0.0025(12)
C8A 0.072(2) 0.0381(17) 0.062(2) -0.0116(16) 0.0349(19) -0.0114(16)
C4 0.0408(14) 0.0225(12) 0.0325(13) -0.0032(10) -0.0010(11) -0.0035(10)
C5 0.0361(13) 0.0280(14) 0.0369(13) -0.0049(10) -0.0007(11) -0.0007(10)
C7 0.0315(14) 0.0336(16) 0.0678(19) -0.0106(14) -0.0009(13) -0.0025(12)
C8 0.072(2) 0.0381(17) 0.062(2) -0.0116(16) 0.0349(19) -0.0114(16)
C9 0.058(5) 0.035(3) 0.043(4) -0.010(3) 0.011(4) -0.004(4)
C10 0.023(6) 0.030(4) 0.049(8) -0.006(5) 0.009(4) 0.000(4)
O1 0.0376(10) 0.0470(12) 0.0443(11) 0.0055(9) -0.0065(8) 0.0080(9)
C1 0.0406(14) 0.0235(12) 0.0280(12) -0.0006(10) -0.0057(11) 0.0038(11)
C2 0.0340(13) 0.0234(13) 0.0345(13) -0.0035(10) -0.0049(11) 0.0010(10)
C3 0.0349(13) 0.0220(12) 0.0324(12) -0.0028(10) -0.0037(10) -0.0004(10)
C6 0.0360(13) 0.0247(13) 0.0377(14) -0.0021(10) -0.0034(11) 0.0007(10)
loop_
_atom_type_symbol
_atom_type_description
_atom_type_scat_dispersion_real
_atom_type_scat_dispersion_imag
_atom_type_scat_source
C C 0.0181 0.0091 'International Tables Vol C Tables 4.2.6.8 and 6.1.1.4'
H H 0.0000 0.0000 'International Tables Vol C Tables 4.2.6.8 and 6.1.1.4'
O O 0.0492 0.0322 'International Tables Vol C Tables 4.2.6.8 and 6.1.1.4'
S S 0.3331 0.5567 'International Tables Vol C Tables 4.2.6.8 and 6.1.1.4'
loop_
_geom_angle_atom_site_label_1
_geom_angle_atom_site_label_2
_geom_angle_atom_site_label_3
_geom_angle
_geom_angle_site_symmetry_1
_geom_angle_site_symmetry_3
C4A S1 C8A 91.9(2) . .
C5A C4A C3 110.9(2) . .
C5A C4A S1 109.4(2) . .
C3 C4A S1 139.7(2) . .
C4A C5A C7A 116.9(3) . .
C4A C5A C6 108.0(2) . .
C7A C5A C6 135.1(2) . .
C8A C7A C5A 113.8(3) . .
C8A C7A H7AA 123.1 . .
C5A C7A H7AA 123.1 . .
C7A C8A S1 107.9(2) . .
C7A C8A H8AA 126.0 . .
S1 C8A H8AA 126.0 . .
C10 C9 H9A 119.1 . .
C9 C10 H10A 123.0 . .
C2 C1 C3 117.2(2) . 3_656
C2 C1 H1A 121.4 . .
C3 C1 H1A 121.4 3_656 .
C1 C2 C3 122.5(2) . .
C1 C2 C6 129.0(2) . .
C3 C2 C6 108.5(2) . .
C1 C3 C2 120.3(2) 3_656 .
C1 C3 C4A 132.6(2) 3_656 .
C2 C3 C4A 107.2(2) . .
O1 C6 C5A 128.8(3) . .
O1 C6 C2 125.8(3) . .
C5A C6 C2 105.4(2) . .
loop_
_geom_bond_atom_site_label_1
_geom_bond_atom_site_label_2
_geom_bond_distance
_geom_bond_site_symmetry_2
S1 C4A 1.721(4) .
S1 C8A 1.861(5) .
C4A C5A 1.387(3) .
C4A C3 1.464(4) .
C5A C7A 1.402(4) .
C5A C6 1.480(4) .
C7A C8A 1.358(5) .
C7A H7AA 0.9500 .
C8A H8AA 0.9500 .
C9 C10 1.363(12) .
C9 H9A 0.9500 .
C10 H10A 0.9500 .
O1 C6 1.218(3) .
C1 C2 1.380(4) .
C1 C3 1.392(4) 3_656
C1 H1A 0.9500 .
C2 C3 1.411(3) .
C2 C6 1.506(4) .
C3 C1 1.392(4) 3_656
loop_
_geom_hbond_atom_site_label_D
_geom_hbond_atom_site_label_H
_geom_hbond_atom_site_label_A
_geom_hbond_distance_DH
_geom_hbond_distance_HA
_geom_hbond_distance_DA
_geom_hbond_angle_DHA
_geom_hbond_site_symmetry_A
C7A H7AA O1 0.95 2.56 3.430(3) 152.8 3_746
loop_
_geom_torsion_atom_site_label_1
_geom_torsion_atom_site_label_2
_geom_torsion_atom_site_label_3
_geom_torsion_atom_site_label_4
_geom_torsion
_geom_torsion_site_symmetry_1
_geom_torsion_site_symmetry_4
C8A S1 C4A C5A -0.5(3) . .
C8A S1 C4A C3 -178.9(3) . .
C3 C4A C5A C7A 179.3(2) . .
S1 C4A C5A C7A 0.3(3) . .
C3 C4A C5A C6 0.9(3) . .
S1 C4A C5A C6 -178.1(2) . .
C4A C5A C7A C8A 0.1(4) . .
C6 C5A C7A C8A 177.9(3) . .
C5A C7A C8A S1 -0.4(3) . .
C4A S1 C8A C7A 0.5(3) . .
C3 C1 C2 C3 -0.2(4) 3_656 .
C3 C1 C2 C6 -178.6(2) 3_656 .
C1 C2 C3 C1 0.2(4) . 3_656
C6 C2 C3 C1 178.9(2) . 3_656
C1 C2 C3 C4A -179.8(2) . .
C6 C2 C3 C4A -1.1(3) . .
C5A C4A C3 C1 -179.8(3) . 3_656
S1 C4A C3 C1 -1.4(5) . 3_656
C5A C4A C3 C2 0.2(3) . .
S1 C4A C3 C2 178.6(3) . .
C4A C5A C6 O1 177.2(3) . .
C7A C5A C6 O1 -0.8(5) . .
C4A C5A C6 C2 -1.5(3) . .
C7A C5A C6 C2 -179.5(3) . .
C1 C2 C6 O1 1.5(4) . .
C3 C2 C6 O1 -177.1(2) . .
C1 C2 C6 C5A -179.8(2) . .
C3 C2 C6 C5A 1.6(3) . .
