#------------------------------------------------------------------------------
#$Date: 2019-11-23 19:57:25 +0200 (Sat, 23 Nov 2019) $
#$Revision: 234744 $
#$URL: file:///home/coder/svn-repositories/cod/cif/4/03/64/4036475.cif $
#------------------------------------------------------------------------------
#
# This file is available in the Crystallography Open Database (COD),
# http://www.crystallography.net/
#
# All data on this site have been placed in the public domain by the
# contributors.
#
data_4036475
loop_
_publ_author_name
'Horta, Pedro'
'Ku\,s, Nihal'
'Henriques, Marta Sofia C.'
'Paix\~ao, Jos\'e A'
'Coelho, Lis'
'Nogueira, F\'atima'
'O'Neill, Paul M'
'Fausto, Rui'
'Cristiano, Maria Lurdes Santos'
_publ_section_title
;
 Quinolone-Hydroxyquinoline Tautomerism in Quinolone 3-Esters. Preserving
 the 4-Oxoquinoline Structure To Retain Antimalarial Activity.
;
_journal_issue                   24
_journal_name_full               'The Journal of organic chemistry'
_journal_page_first              12244
_journal_page_last               12257
_journal_paper_doi               10.1021/acs.joc.5b02169
_journal_volume                  80
_journal_year                    2015
_chemical_formula_moiety         'C13 H14 Cl N O3'
_chemical_formula_sum            'C13 H14 Cl N O3'
_chemical_formula_weight         267.70
_chemical_melting_point          420
_chemical_name_systematic
;
Ethyl 4-hydroxy-5-methyl quinolinium chloride 3-carboxylate
;
_space_group_crystal_system      triclinic
_space_group_IT_number           2
_space_group_name_Hall           '-P 1'
_space_group_name_H-M_alt        'P -1'
_atom_sites_solution_hydrogens   geom
_audit_creation_method           SHELXL-2014/7
_cell_angle_alpha                76.882(2)
_cell_angle_beta                 77.792(3)
_cell_angle_gamma                71.232(2)
_cell_formula_units_Z            2
_cell_length_a                   7.2031(5)
_cell_length_b                   9.4082(5)
_cell_length_c                   10.7921(7)
_cell_measurement_reflns_used    2380
_cell_measurement_temperature    293(2)
_cell_measurement_theta_max      42.772
_cell_measurement_theta_min      6.475
_cell_volume                     666.76(7)
_computing_cell_refinement       'SAINT (Bruker, 2003)'
_computing_data_collection       'SMART (Bruker, 2003)'
_computing_data_reduction        'SAINT (Bruker, 2003)'
_computing_molecular_graphics    'PLATON (Spek, 2003)'
_computing_publication_material  'SHELXL-2014/7 (Sheldrick, 2014)'
_computing_structure_refinement  'SHELXL-2014/7 (Sheldrick, 2014)'
_computing_structure_solution    'SHELXT-2014/7 (Sheldrick, 2014)'
_diffrn_ambient_temperature      293(2)
_diffrn_measured_fraction_theta_full 0.995
_diffrn_measured_fraction_theta_max 0.969
_diffrn_measurement_device_type
'Bruker APEX CCD area-detector diffractometer'
_diffrn_measurement_method       '\f and \w'
_diffrn_radiation_monochromator  graphite
_diffrn_radiation_source         'fine-focus sealed tube'
_diffrn_radiation_type           MoK\a
_diffrn_radiation_wavelength     0.71073
_diffrn_reflns_av_R_equivalents  0.0388
_diffrn_reflns_av_unetI/netI     0.0537
_diffrn_reflns_Laue_measured_fraction_full 0.995
_diffrn_reflns_Laue_measured_fraction_max 0.969
_diffrn_reflns_limit_h_max       9
_diffrn_reflns_limit_h_min       -9
_diffrn_reflns_limit_k_max       10
_diffrn_reflns_limit_k_min       -12
_diffrn_reflns_limit_l_max       14
_diffrn_reflns_limit_l_min       -14
_diffrn_reflns_number            13439
_diffrn_reflns_point_group_measured_fraction_full 0.995
_diffrn_reflns_point_group_measured_fraction_max 0.969
_diffrn_reflns_theta_full        25.242
_diffrn_reflns_theta_max         28.476
_diffrn_reflns_theta_min         3.021
_exptl_absorpt_coefficient_mu    0.286
_exptl_absorpt_correction_T_max  0.977
_exptl_absorpt_correction_T_min  0.822
_exptl_absorpt_correction_type   multi-scan
_exptl_absorpt_process_details   'SADABS (Sheldrick, 2000)'
_exptl_crystal_colour            'light orange'
_exptl_crystal_density_diffrn    1.333
_exptl_crystal_description       needle
_exptl_crystal_F_000             280
_exptl_crystal_size_max          0.33
_exptl_crystal_size_mid          0.08
_exptl_crystal_size_min          0.08
_exptl_transmission_factor_max   0.977
_exptl_transmission_factor_min   0.973
_refine_diff_density_max         0.353
_refine_diff_density_min         -0.164
_refine_diff_density_rms         0.044
_refine_ls_extinction_method     none
_refine_ls_goodness_of_fit_ref   1.018
_refine_ls_hydrogen_treatment    riding
_refine_ls_matrix_type           full
_refine_ls_number_parameters     186
_refine_ls_number_reflns         3271
_refine_ls_number_restraints     26
_refine_ls_restrained_S_all      1.024
_refine_ls_R_factor_all          0.1271
_refine_ls_R_factor_gt           0.0559
_refine_ls_shift/su_max          0.000
_refine_ls_shift/su_mean         0.000
_refine_ls_structure_factor_coef Fsqd
_refine_ls_weighting_details
'w=1/[\s^2^(Fo^2^)+(0.0753P)^2^+0.0688P] where P=(Fo^2^+2Fc^2^)/3'
_refine_ls_weighting_scheme      calc
_refine_ls_wR_factor_gt          0.1377
_refine_ls_wR_factor_ref         0.1661
_reflns_Friedel_coverage         0.000
_reflns_number_gt                1653
_reflns_number_total             3271
_reflns_threshold_expression     'I > 2\s(I)'
_cod_data_source_file            jo5b02169_si_002.cif
_cod_data_source_block           crist
_cod_database_code               4036475
_shelx_shelxl_version_number     2014/7
_shelx_space_group_comment
;
The symmetry employed for this shelxl refinement is uniquely defined
by the following loop, which should always be used as a source of
symmetry information in preference to the above space-group names.
They are only intended as comments.
;
_shelx_estimated_absorpt_t_min   0.912
_shelx_estimated_absorpt_t_max   0.977
_shelx_res_file
;

    crist.res created by SHELXL-2014/7


TITL crist  - SHELXL
CELL  0.71073    7.2031    9.4082   10.7921    76.882    77.792    71.232
ZERR     2    0.0005    0.0005    0.0007    0.0020    0.0030    0.0020
LATT   1
SFAC  C  H  O N CL
UNIT    26 28  6   2 2
SIZE      0.33     0.08     0.08
ACTA
FMAP 2
PLAN  -30
BOND $H
CONF
HTAB N1 Cl
HTAB O15 O18
OMIT 0 1 1
OMIT 0 0 1
OMIT 0 0 2
L.S.     50
ISOR 0.02 C20A C20B C23A C23B
SADI C20A O19 C20B O19
SADI C20A C23A C20B C23B
WGHT    0.075300    0.068800
FVAR       0.63423   0.69778
CL    5    0.329214    0.003558    0.721669    11.00000    0.08756    0.06086 =
         0.06277   -0.00980   -0.01252   -0.02289
O15   3    0.222248    0.657799    0.246086    11.00000    0.10105    0.07040 =
         0.08689    0.01034   -0.03021   -0.03061
AFIX 147
H16   2    0.234047    0.632842    0.176155    11.00000   -1.50000
AFIX   0
O18   3    0.238642    0.486296    0.087191    11.00000    0.12887    0.12420 =
         0.06077    0.00639   -0.02694   -0.05295
O19   3    0.225010    0.248613    0.171328    11.00000    0.08501    0.09743 =
         0.05384   -0.02845   -0.01526   -0.02641
N1    4    0.280272    0.281606    0.523290    11.00000    0.05240    0.05062 =
         0.05090   -0.01292   -0.01112   -0.01441
AFIX  43
H31   2    0.295111    0.200757    0.581088    11.00000   -1.20000
AFIX   0
C2    1    0.274272    0.270180    0.406749    11.00000    0.04642    0.05695 =
         0.05899   -0.01896   -0.00856   -0.01540
AFIX  43
H30   2    0.286536    0.175425    0.388265    11.00000   -1.20000
AFIX   0
C3    1    0.249955    0.396234    0.309047    11.00000    0.04646    0.06376 =
         0.05207   -0.01136   -0.01124   -0.01748
C4    1    0.238324    0.535541    0.337674    11.00000    0.04486    0.05738 =
         0.06673    0.00269   -0.01473   -0.01590
C5    1    0.227134    0.689978    0.506744    11.00000    0.03979    0.05427 =
         0.10209   -0.02076   -0.00573   -0.01403
C6    1    0.235922    0.682888    0.634766    11.00000    0.04907    0.07958 =
         0.10854   -0.05497   -0.00365   -0.02004
AFIX  43
H29   2    0.227110    0.771830    0.662462    11.00000   -1.20000
AFIX   0
C7    1    0.257157    0.549860    0.723066    11.00000    0.05631    0.08494 =
         0.08198   -0.03908   -0.00893   -0.02061
AFIX  43
H28   2    0.261990    0.550696    0.808324    11.00000   -1.20000
AFIX   0
C8    1    0.271160    0.416796    0.686350    11.00000    0.05133    0.07285 =
         0.06300   -0.02402   -0.00802   -0.01730
AFIX  43
H27   2    0.285342    0.326913    0.745984    11.00000   -1.20000
AFIX   0
C9    1    0.242497    0.551306    0.465119    11.00000    0.03785    0.05395 =
         0.06987   -0.01649   -0.00868   -0.01402
C10   1    0.263929    0.417534    0.558661    11.00000    0.03813    0.05417 =
         0.05809   -0.01899   -0.00842   -0.01114
C17   1    0.240656    0.380696    0.178220    11.00000    0.06386    0.08938 =
         0.05974   -0.01044   -0.01379   -0.02567
C11   1    0.203265    0.840720    0.417070    11.00000    0.07865    0.05881 =
         0.13535   -0.01588   -0.01050   -0.02215
AFIX 137
H12   2    0.315048    0.833414    0.349664    11.00000   -1.50000
H13   2    0.195603    0.918141    0.464121    11.00000   -1.50000
H14   2    0.083928    0.866697    0.380262    11.00000   -1.50000
AFIX   0
PART 1
C20A  1    0.219563    0.218881    0.043784    21.00000    0.08762    0.12823 =
         0.04275   -0.03738    0.00113   -0.03561
AFIX  23
H21A  2    0.341754    0.222727   -0.013774    21.00000   -1.20000
H22A  2    0.109191    0.293226    0.005611    21.00000   -1.20000
AFIX   0
C23A  1    0.194948    0.062431    0.069213    21.00000    0.19864    0.18966 =
         0.07628   -0.07411    0.01645   -0.12147
AFIX 137
H24A  2    0.304571   -0.009126    0.107983    21.00000   -1.50000
H25A  2    0.190953    0.035029   -0.010416    21.00000   -1.50000
H26A  2    0.073521    0.060978    0.126394    21.00000   -1.50000
AFIX   0
PART 2
C20B  1    0.261019    0.198540    0.043688   -21.00000    0.24744    0.19712 =
         0.12068   -0.04503   -0.10033   -0.03551
AFIX  23
H21B  2    0.373157    0.107956    0.038837   -21.00000   -1.20000
H22B  2    0.285247    0.278577   -0.026493   -21.00000   -1.20000
AFIX   0
C23B  1    0.069642    0.165514    0.039925   -21.00000    0.13902    0.19695 =
         0.10432   -0.07493   -0.00422   -0.09045
AFIX 137
H24B  2    0.079814    0.060717    0.076308   -21.00000   -1.50000
H25B  2    0.046813    0.184917   -0.047645   -21.00000   -1.50000
H26B  2   -0.038752    0.230017    0.088731   -21.00000   -1.50000
PART 0

REM  crist  - SHELXL
REM R1 =  0.0586 for   1654 Fo > 4sig(Fo)  and  0.1296 for all   3272 data
REM    166 parameters refined using      0 restraints
AFIX   0
HKLF 4

REM  crist  - SHELXL
REM R1 =  0.0559 for    1653 Fo > 4sig(Fo)  and  0.1271 for all    3271 data
REM    186 parameters refined using     26 restraints

END

WGHT      0.0752      0.0680

REM Highest difference peak  0.353,  deepest hole -0.164,  1-sigma level  0.044
Q1    1   0.4424  0.1982 -0.0163  11.00000  0.05    0.35
Q2    1   0.2801  0.6134  0.8149  11.00000  0.05    0.27
Q3    1   0.3170  0.7489  0.9607  11.00000  0.05    0.25
Q4    1   0.2530  0.7824  0.9950  11.00000  0.05    0.21
Q5    1   0.2237  0.4883  0.5162  11.00000  0.05    0.19
Q6    1   0.1928  0.0837  0.7196  11.00000  0.05    0.18
Q7    1   0.2682  0.4816  0.5010  11.00000  0.05    0.17
Q8    1   0.2184  0.8033  0.4418  11.00000  0.05    0.17
Q9    1   0.1906  0.5051  0.1041  11.00000  0.05    0.17
Q10   1   0.3017  0.1046  0.6386  11.00000  0.05    0.17
Q11   1   0.2936  0.5511  0.3948  11.00000  0.05    0.17
Q12   1   0.2268  0.7686  0.4552  11.00000  0.05    0.17
Q13   1   0.0625  0.1433  0.6466  11.00000  0.05    0.16
Q14   1   0.2522  0.8230  0.3051  11.00000  0.05    0.16
Q15   1   0.2764  0.7053  0.5568  11.00000  0.05    0.15
Q16   1   0.3316 -0.0214  0.5897  11.00000  0.05    0.15
Q17   1   0.3116  0.4570  0.6087  11.00000  0.05    0.15
Q18   1   0.2998  0.6023  0.6513  11.00000  0.05    0.15
Q19   1   0.1754  0.6985  0.5449  11.00000  0.05    0.15
Q20   1   0.3399  0.4106  0.0871  11.00000  0.05    0.14
Q21   1   0.2240  0.3627  0.3490  11.00000  0.05    0.14
Q22   1   0.4235  0.1024  0.6873  11.00000  0.05    0.14
Q23   1   0.2104  0.3733  0.2758  11.00000  0.05    0.13
Q24   1   0.1171  0.3629  0.0003  11.00000  0.05    0.13
Q25   1   0.1883  0.6104  0.6428  11.00000  0.05    0.13
Q26   1   0.1868  0.5369  0.4241  11.00000  0.05    0.12
Q27   1   0.2743  0.5761  0.2794  11.00000  0.05    0.12
Q28   1   0.2096  0.5737  0.3156  11.00000  0.05    0.11
Q29   1   0.1326  0.2156  0.2794  11.00000  0.05    0.11
Q30   1   0.4261  0.6094  0.6959  11.00000  0.05    0.11
;
_shelx_res_checksum              50007
_shelx_hkl_file
;
  -1   0   0  -14.68    0.23   5
   1   0   0  -11.14    0.60   1
   1   0   0  -14.53    0.22   2
   1   0   0  -13.09    0.48   2
   1   0   0  -14.03    0.30   5
   1   0   0  -13.00    0.47   5
  -1   0   0  -14.64    0.17   3
  -1   0   0  -14.51    0.23   2
  -1   0   0  -14.45    0.25   1
   2   0   0 9757.98  198.19   1
   2   0   0 9690.14  199.62   2
   2   0   0 9737.36  200.39   2
   2   0   0 9808.30  202.16   3
  -2   0   0 9843.76  198.29   2
   2   0   0 9579.59  206.71   5
   2   0   0 9509.03  207.17   5
  -2   0   0 9493.70  198.22   1
  -2   0   0 9876.29  206.20   5
  -2   0   0 9998.60  194.98   1
  -3   0   0   20.77    1.89   2
   3   0   0   19.73    2.01   1
   3   0   0   18.06    1.82   2
  -3   0   0   22.65    2.16   1
  -3   0   0   16.06    1.85   5
   3   0   0   18.38    1.85   2
  -3   0   0   17.73    1.70   2
   3   0   0   19.98    2.04   5
   3   0   0   20.42    1.58   3
   3   0   0   20.85    2.13   5
  -4   0   0  903.90   21.38   2
   4   0   0  945.05   22.08   2
  -4   0   0  941.36   21.59   2
   4   0   0  928.47   21.97   2
   4   0   0  943.71   20.76   3
   4   0   0  914.17   22.93   5
  -4   0   0  926.36   21.93   1
   4   0   0  908.23   21.96   1
  -4   0   0  932.45   20.78   4
   4   0   0  901.98   22.74   5
  -4   0   0  945.82   22.62   5
   5   0   0    1.20    1.46   5
  -5   0   0    1.52    1.44   1
   5   0   0   -0.46    1.30   1
   5   0   0   -0.72    1.18   2
  -5   0   0    0.71    1.17   2
   5   0   0    0.32    1.37   5
   5   0   0    0.74    1.28   2
   6   0   0   72.52    5.21   5
  -6   0   0   68.72    4.81   1
   6   0   0   73.85    5.07   2
   6   0   0   67.03    5.06   1
   7   0   0    4.46    2.31   1
  -7   0   0    1.93    1.87   1
   7   0   0    0.13    1.90   5
   8   0   0    7.07    2.81   1
  -8   0   0    6.64    2.61   1
   9   0   0   -1.08    2.46   1
  -8   1   0   -0.49    1.99   1
   8  -1   0   -0.23    2.42   1
   7  -1   0    0.53    2.12   5
  -7   1   0    1.53    1.89   1
   7  -1   0    1.65    2.09   1
   6  -1   0   27.61    3.59   1
   6  -1   0   22.14    3.21   2
   6  -1   0   30.93    3.73   5
  -6   1   0   27.81    3.47   1
   5  -1   0   -0.50    1.19   3
   5  -1   0    0.06    1.36   1
   5  -1   0    1.91    1.55   2
  -5   1   0    0.44    1.35   1
   5  -1   0   -0.04    1.30   5
  -5   1   0    1.47    1.30   5
   5  -1   0   -0.67    1.09   5
   5  -1   0   -0.07    1.25   2
  -4   1   0  163.43    6.07   1
   4  -1   0  146.66    5.91   2
  -4   1   0  153.05    5.92   5
   4  -1   0  152.68    6.06   2
   4  -1   0  154.34    6.11   1
  -4   1   0  157.53    6.03   5
   4  -1   0  147.22    6.22   5
   4  -1   0  165.96    5.73   3
   4  -1   0  156.13    6.40   5
   3  -1   0    7.11    1.51   5
  -3   1   0    8.05    1.52   1
   3  -1   0    8.53    1.44   3
  -3   1   0    8.89    1.47   5
   3  -1   0    9.37    1.61   5
   3  -1   0    7.82    1.59   1
   3  -1   0    6.95    1.49   2
  -3   1   0    7.49    1.24   2
  -3   1   0    5.48    1.16   2
  -3   1   0    7.87    1.40   5
  -3   1   0    8.48    1.09   4
   3  -1   0    8.17    1.43   2
  -2   1   0  500.90   12.06   5
   2  -1   0  503.00   11.82   2
  -2   1   0  517.87   11.47   2
  -2   1   0  523.76   11.38   4
   2  -1   0  520.16   11.47   4
   2  -1   0  499.78   12.35   5
   2  -1   0  504.59   12.31   5
   2  -1   0  504.59   12.01   3
  -2   1   0  526.40   11.90   1
  -2   1   0  509.73   11.86   1
  -2   1   0  498.28   12.10   5
   2  -1   0  491.99   11.83   1
   2  -1   0  520.11   11.89   2
  -2   1   0  508.53   11.45   2
  -1   1   0   95.47    2.72   1
   1  -1   0   91.02    2.59   2
   1  -1   0   91.63    2.59   2
  -1   1   0   94.30    2.40   2
  -1   1   0   94.27    2.72   1
   1  -1   0   94.98    2.74   1
  -1   1   0   93.66    2.70   5
   1  -1   0   89.50    2.78   5
   1  -1   0   95.98    2.59   4
  -1   1   0   94.28    2.67   5
   1  -1   0   90.66    2.99   3
  -1   1   0   93.28    2.41   2
   1  -1   0   96.97    2.82   5
  -1   1   0   95.99    2.58   4
   1  -1   0   93.13    2.73   1
   1   1   0  489.47   10.36   1
   1   1   0  463.56   10.33   2
  -2  -1   0 1861.81   38.21   1
  -2  -1   0 1744.80   39.46   5
   2   1   0 1869.55   38.30   2
  -2  -1   0 1881.79   38.28   2
  -2  -1   0 1861.68   42.57   3
   2   1   0 1820.58   39.55   5
  -2  -1   0 1804.76   38.30   2
   2   1   0 1835.02   39.52   5
  -2  -1   0 1853.33   39.50   5
   2   1   0 1841.03   38.18   1
  -3  -1   0  268.17    7.46   2
  -3  -1   0  247.81    7.72   5
  -3  -1   0  261.94    7.82   5
   3   1   0  251.98    7.84   5
   3   1   0  247.78    7.41   2
   3   1   0  259.43    7.60   1
   3   1   0  261.57    7.86   5
   3   1   0  259.48    7.47   2
  -3  -1   0  254.58    7.57   1
  -4  -1   0  920.58   23.14   5
   4   1   0  954.04   22.41   2
   4   1   0  958.29   22.54   1
   4   1   0  925.52   22.28   2
  -4  -1   0  997.63   22.28   2
  -4  -1   0  995.03   23.28   5
   4   1   0  929.81   23.24   5
   4   1   0  953.76   23.33   5
  -4  -1   0  923.89   22.37   1
  -5  -1   0   30.98    3.17   5
   5   1   0   28.52    3.16   5
  -5  -1   0   30.97    3.10   5
  -5  -1   0   26.53    2.99   1
  -5  -1   0   27.04    2.63   2
  -5  -1   0   31.51    2.96   2
   5   1   0   29.32    3.00   2
   5   1   0   25.24    3.03   5
   5   1   0   27.92    2.81   2
   5   1   0   23.98    3.02   1
   6   1   0  238.63    9.82   5
   6   1   0  253.51   10.06   5
  -6  -1   0  224.73    9.11   1
  -6  -1   0  210.59    9.09   5
   6   1   0  241.68    9.45   1
   6   1   0  227.78    8.98   2
  -7  -1   0    0.09    1.87   1
   7   1   0    1.86    1.89   5
   7   1   0   -1.15    1.86   1
   8   1   0   46.17    5.30   1
  -8  -1   0   34.10    4.66   1
  -9  -1   0    2.18    2.61   1
   9   1   0    2.04    2.82   1
  -8   2   0   -0.37    1.81   1
   7  -2   0   -0.80    2.10   1
  -7   2   0    2.49    1.94   1
   7  -2   0    1.14    2.06   5
  -6   2   0   10.41    2.53   1
   6  -2   0   10.08    2.70   5
   6  -2   0   12.16    2.88   1
   6  -2   0    9.95    2.63   2
   5  -2   0   10.89    2.36   5
  -5   2   0    5.76    1.71   5
   5  -2   0    8.08    2.14   2
  -5   2   0    7.49    2.10   1
   5  -2   0    7.98    2.18   1
   5  -2   0    7.17    2.05   2
   5  -2   0    5.56    1.98   5
   5  -2   0   11.76    2.16   3
   4  -2   0   33.50    2.85   3
  -4   2   0   33.04    2.74   1
   4  -2   0   31.02    2.81   2
   4  -2   0   29.25    2.81   5
   4  -2   0   36.20    3.07   5
  -4   2   0   34.10    2.54   5
   4  -2   0   34.30    2.88   2
   4  -2   0   31.83    2.89   1
   3  -2   0   94.43    4.01   2
  -3   2   0   94.68    3.76   5
   3  -2   0   88.75    3.92   1
   3  -2   0   94.44    4.18   5
   3  -2   0   94.30    4.28   5
   3  -2   0   97.95    3.42   4
  -3   2   0   94.88    3.90   1
   3  -2   0   94.32    3.99   2
   3  -2   0   90.70    4.18   3
  -3   2   0   94.73    3.72   5
  -3   2   0   93.19    3.27   4
  -2   2   0    1.67    0.73   5
  -2   2   0    2.68    0.84   1
   2  -2   0    0.40    0.97   3
  -2   2   0    3.07    0.92   1
  -2   2   0    2.31    0.72   5
   2  -2   0    2.78    0.95   5
   2  -2   0    1.58    0.75   4
   2  -2   0    2.67    1.00   1
  -2   2   0    1.82    0.48   2
   2  -2   0    2.19    0.85   2
   2  -2   0    1.26    0.81   2
  -2   2   0    2.02    0.72   4
  -2   2   0    1.57    0.48   2
   2  -2   0    1.60    0.84   5
   1  -2   0   61.80    2.26   4
  -1   2   0   62.65    2.00   1
   1  -2   0   62.74    2.12   5
  -1   2   0   65.41    2.33   4
   1  -2   0   58.15    2.05   5
  -1   2   0   59.58    1.68   5
   1  -2   0   59.52    2.11   1
   1  -2   0   62.96    1.81   2
   1  -2   0   60.73    1.76   2
   0  -2   0   68.20    1.78   1
   0  -2   0   68.84    1.79   1
  -1  -2   0   93.94    2.58   2
  -1  -2   0   97.38    2.86   5
   1   2   0   91.49    2.67   1
   1   2   0   91.06    2.61   5
  -1  -2   0   94.79    2.57   2
  -1  -2   0   93.07    2.76   5
  -1  -2   0   97.74    2.77   1
  -1  -2   0   92.29    2.76   1
   1   2   0   92.81    2.67   5
   1   2   0   93.82    2.68   1
  -2  -2   0   79.55    3.17   5
  -2  -2   0   77.42    2.94   2
   2   2   0   75.79    2.75   2
   2   2   0   76.43    3.01   5
  -2  -2   0   80.06    2.99   2
  -2  -2   0   73.53    2.99   1
   2   2   0   77.59    3.00   1
   2   2   0   78.05    3.00   1
  -2  -2   0   78.75    3.16   5
   2   2   0   82.77    2.87   2
   3   2   0  105.73    4.23   1
  -3  -2   0  102.85    4.30   5
   3   2   0   90.94    3.72   2
   3   2   0   92.77    4.06   5
  -3  -2   0  100.84    4.32   5
  -3  -2   0  102.33    4.10   2
   3   2   0   97.19    3.89   2
   3   2   0   99.00    4.15   5
  -3  -2   0  106.31    4.22   1
  -3  -2   0   95.95    4.01   2
   4   2   0    3.34    1.42   5
  -4  -2   0    1.06    1.32   2
  -4  -2   0    3.53    1.29   2
   4   2   0    0.66    0.96   2
  -4  -2   0    1.35    1.22   1
  -4  -2   0    0.25    1.06   5
   4   2   0   -0.40    1.07   5
   4   2   0    0.59    1.31   1
  -4  -2   0    0.28    1.18   5
   5   2   0   16.13    2.30   2
  -5  -2   0    9.68    2.13   5
   5   2   0    7.84    2.15   1
   5   2   0   10.17    2.23   5
   5   2   0   12.99    2.42   5
  -5  -2   0   11.19    2.26   1
  -5  -2   0   13.33    2.41   5
  -5  -2   0   12.82    2.25   2
   6   2   0    3.45    1.98   1
   6   2   0    1.75    1.92   5
  -6  -2   0    4.46    1.96   5
  -6  -2   0    0.78    1.61   1
  -7  -2   0    0.77    1.87   1
   7   2   0    3.65    2.19   1
  -8  -2   0    2.36    2.28   1
   8   2   0   -0.99    2.02   1
  -9  -2   0   -1.58    2.24   1
   9   2   0   -0.47    2.48   1
  -8   3   0    0.94    2.29   1
   7  -3   0    2.01    2.25   5
  -7   3   0   -1.38    1.57   1
   6  -3   0    0.69    1.97   1
  -6   3   0    1.67    1.53   1
   6  -3   0    5.82    2.16   5
   6  -3   0    1.28    1.79   2
   5  -3   0    3.28    1.79   2
   5  -3   0    4.77    1.83   5
   5  -3   0    6.11    2.16   1
   5  -3   0    6.84    2.04   2
  -5   3   0    4.67    1.76   1
  -4   3   0    0.81    1.25   1
   4  -3   0    0.39    1.11   5
   4  -3   0    0.78    1.33   1
  -4   3   0    0.50    0.93   5
   4  -3   0   -0.78    1.05   2
   4  -3   0    0.83    1.26   2
   4  -3   0    0.47    1.25   3
   4  -3   0    0.31    1.15   5
  -3   3   0   84.25    3.58   1
   3  -3   0   84.10    3.81   2
   3  -3   0   90.55    3.49   4
   3  -3   0   77.15    3.63   2
   3  -3   0   85.62    3.99   5
  -3   3   0   81.76    3.20   5
   3  -3   0   80.59    4.42   3
   3  -3   0   83.16    4.05   5
   3  -3   0   80.49    3.74   1
  -2   3   0   73.86    2.79   1
  -2   3   0   71.60    2.18   5
  -2   3   0   72.48    2.16   5
   2  -3   0   66.13    3.02   5
   2  -3   0   74.61    3.19   5
   2  -3   0   75.02    3.10   1
   2  -3   0   70.33    2.99   4
   2  -3   0   76.44    3.89   3
   2  -3   0   70.33    2.79   2
   2  -3   0   76.70    2.93   2
   1  -3   0  151.92    5.41   3
   1  -3   0  153.82    4.16   5
   1  -3   0  150.68    4.08   5
  -1   3   0  155.96    3.71   1
   1  -3   0  154.82    4.75   4
  -1   3   0  149.77    3.71   1
   1  -3   0  157.03    4.14   1
   0  -3   0  243.65    5.39   1
   0  -3   0  234.79    6.69   4
   0  -3   0  239.24    5.38   1
  -1  -3   0    2.03    0.54   5
  -1  -3   0    2.59    0.57   5
  -1  -3   0    1.92    0.61   1
   1   3   0    2.18    0.50   1
  -2  -3   0  104.88    3.68   1
   2   3   0  104.60    3.57   1
  -2  -3   0  108.91    3.57   2
   2   3   0  114.04    3.64   1
  -2  -3   0  109.11    3.85   5
   2   3   0  103.79    3.51   5
   2   3   0   99.97    3.05   2
  -2  -3   0  102.23    3.71   5
   2   3   0  109.88    3.62   5
  -2  -3   0  103.54    3.58   2
  -3  -3   0   34.45    2.58   5
   3   3   0   31.45    2.20   2
   3   3   0   37.69    2.51   1
  -3  -3   0   33.01    2.41   2
   3   3   0   30.74    2.33   5
   3   3   0   30.96    2.31   5
  -3  -3   0   35.56    2.39   2
  -3  -3   0   33.70    2.56   1
  -3  -3   0   32.21    2.52   5
   3   3   0   29.53    2.10   2
  -4  -3   0    2.94    1.23   2
  -4  -3   0    0.39    1.07   2
  -4  -3   0    0.86    1.19   1
   4   3   0    2.43    1.25   2
   4   3   0    4.25    1.46   1
  -4  -3   0    1.10    1.29   5
  -4  -3   0    0.95    1.07   5
   4   3   0    1.45    1.14   5
   4   3   0    4.04    1.26   2
   5   3   0    3.86    1.62   1
  -5  -3   0    1.61    1.42   5
   5   3   0    5.40    1.75   5
  -5  -3   0    3.83    1.85   5
  -5  -3   0    4.91    1.81   1
   5   3   0    2.93    1.44   2
  -5  -3   0    2.93    1.42   2
   5   3   0    2.00    1.45   5
  -5  -3   0    2.34    1.43   2
  -6  -3   0    7.10    2.18   5
  -6  -3   0    8.79    2.57   5
  -6  -3   0    7.12    2.20   1
   6   3   0    5.37    2.00   5
  -6  -3   0    3.46    1.69   2
   6   3   0    7.08    2.23   1
   7   3   0   -1.71    1.78   1
  -7  -3   0    1.01    1.68   1
   8   3   0    2.17    2.46   1
  -8  -3   0    0.38    2.05   1
   9   3   0   -2.22    2.17   1
  -9  -3   0    0.27    2.49   1
   7  -4   0    1.50    2.39   5
  -7   4   0    1.14    1.99   1
   6  -4   0    1.13    1.90   5
  -6   4   0    1.70    1.61   1
   6  -4   0    0.92    1.88   2
  -5   4   0    6.55    1.74   1
   5  -4   0    5.52    2.07   2
   5  -4   0    2.64    1.72   5
  -4   4   0    0.84    1.16   1
   4  -4   0   -0.34    0.98   4
   4  -4   0    2.69    1.41   2
   4  -4   0   -0.26    1.14   5
   4  -4   0    0.01    1.30   2
   4  -4   0   -0.61    1.26   1
   4  -4   0    1.02    1.32   5
   3  -4   0   47.52    3.13   5
   3  -4   0   58.70    3.01   4
   3  -4   0   49.92    3.00   1
   3  -4   0   48.07    3.11   5
  -3   4   0   55.02    2.69   1
   3  -4   0   58.06    3.09   2
   3  -4   0   52.52    3.05   2
   3  -4   0   51.96    3.92   3
   2  -4   0   63.10    2.92   5
   2  -4   0   66.63    4.08   3
   2  -4   0   62.24    2.85   1
  -2   4   0   59.83    2.26   1
   2  -4   0   67.78    2.76   2
   2  -4   0   58.88    2.52   2
   2  -4   0   67.35    3.05   5
   2  -4   0   61.60    3.05   4
   1  -4   0   61.86    2.23   5
   1  -4   0   62.84    3.13   4
   1  -4   0   64.91    2.34   5
   1  -4   0   61.87    2.33   1
   1  -4   0   62.43    3.77   3
   0  -4   0  226.07    7.04   4
   0  -4   0  233.72    5.37   1
  -1  -4   0   16.40    1.14   5
   1   4   0   17.86    0.83   1
  -1  -4   0   17.89    1.26   1
  -1  -4   0   17.19    1.12   5
  -2  -4   0   96.53    3.67   5
   2   4   0  103.20    3.46   1
  -2  -4   0   95.30    3.43   2
  -2  -4   0   97.47    3.38   2
  -2  -4   0   94.45    3.65   5
   2   4   0   97.24    3.37   1
  -2  -4   0   99.73    3.59   1
   2   4   0   96.06    3.03   5
   2   4   0  102.68    3.13   5
   3   4   0   49.98    2.69   5
   3   4   0   46.06    2.58   5
  -3  -4   0   46.12    2.97   5
   3   4   0   47.05    2.71   1
  -3  -4   0   45.68    2.83   1
  -3  -4   0   48.93    2.79   2
  -3  -4   0   47.64    2.96   5
  -3  -4   0   47.36    2.81   2
   4   4   0    5.22    1.52   5
  -4  -4   0    3.55    1.52   2
  -4  -4   0    2.99    1.43   1
   4   4   0    4.38    1.42   5
  -4  -4   0    1.72    1.26   2
  -4  -4   0    6.00    1.69   5
  -4  -4   0    2.04    1.26   5
   4   4   0    4.77    1.49   1
  -4  -4   0    2.11    0.64   3
  -5  -4   0    3.08    1.54   5
  -5  -4   0   -0.21    1.55   5
   5   4   0    3.37    1.63   1
   5   4   0    1.57    1.30   2
  -5  -4   0   -0.96    0.97   2
  -5  -4   0    1.41    1.40   2
  -5  -4   0    1.39    1.38   1
  -6  -4   0   15.52    2.92   1
   6   4   0    8.83    2.51   1
  -6  -4   0    9.33    2.22   2
  -6  -4   0   12.24    2.68   5
   7   4   0    4.49    2.20   1
  -7  -4   0   -0.92    1.62   1
   8   4   0    1.72    2.10   1
  -8  -4   0    1.94    2.19   1
   9   4   0    0.85    2.70   1
  -9  -4   0    1.92    2.25   1
  -7   5   0    1.04    1.89   1
   6  -5   0   -2.32    1.72   5
   6  -5   0   -2.78    1.86   2
  -6   5   0   -2.05    1.33   1
   5  -5   0    4.70    2.02   2
  -5   5   0    1.13    1.43   1
   5  -5   0   -0.30    1.51   5
   4  -5   0    3.34    1.57   5
   4  -5   0    0.90    1.37   2
   4  -5   0    1.11    1.30   4
   4  -5   0    0.98    1.41   2
  -4   5   0    2.23    1.23   1
   3  -5   0    4.30    1.38   2
  -3   5   0    4.10    0.95   1
   3  -5   0    2.92    1.27   5
   3  -5   0    7.46    1.63   4
   3  -5   0    3.40    1.37   5
   3  -5   0    4.24    1.42   1
  -3   5   0    3.20    0.92   1
   3  -5   0    4.38    1.38   2
   2  -5   0    1.58    0.83   2
   2  -5   0    3.47    1.03   5
   2  -5   0    1.24    0.89   5
   2  -5   0    2.51    1.18   4
   2  -5   0    5.18    1.17   1
   2  -5   0    0.75    0.74   2
   1  -5   0   15.74    2.01   4
   1  -5   0   22.23    1.43   5
   1  -5   0   16.71    2.39   3
   1  -5   0   21.63    1.43   1
   1  -5   0   20.24    1.31   5
   0  -5   0   38.91    3.12   3
   0  -5   0   42.62    1.48   5
   0  -5   0   43.12    1.73   1
   0  -5   0   33.65    2.70   4
   0  -5   0   41.98    1.48   5
  -1  -5   0  286.38    7.08   5
  -1  -5   0  291.20    7.16   5
  -1  -5   0  296.30    7.04   1
  -2  -5   0   18.97    1.52   2
  -2  -5   0   20.35    1.66   5
   2   5   0   18.29    1.45   1
  -2  -5   0   19.09    1.52   2
  -2  -5   0   21.49    1.74   1
  -2  -5   0   19.80    1.66   5
  -3  -5   0  221.55    7.34   5
  -3  -5   0  240.17    7.21   1
   3   5   0  231.68    6.74   1
   3   5   0  229.74    6.47   5
  -3  -5   0  226.42    6.96   2
  -3  -5   0  238.10    7.13   2
  -3  -5   0  235.60    7.42   5
  -4  -5   0    1.69    1.32   1
  -4  -5   0    3.52    1.41   5
  -4  -5   0    1.72    0.88   3
  -4  -5   0    1.58    1.22   2
  -4  -5   0    1.43    1.24   2
   4   5   0   -0.21    1.11   1
  -4  -5   0    2.17    1.24   5
   4   5   0   -1.04    0.98   5
   5   5   0   16.36    2.31   5
  -5  -5   0   12.50    2.42   5
  -5  -5   0   12.71    2.50   5
  -5  -5   0   17.79    2.48   2
  -5  -5   0   18.33    2.68   1
   5   5   0   17.10    2.47   1
  -5  -5   0   18.84    2.60   2
  -6  -5   0    4.41    1.99   2
   6   5   0    4.44    1.94   1
  -6  -5   0    6.47    2.24   5
  -6  -5   0    3.80    1.98   1
  -7  -5   0    3.17    2.21   1
   7   5   0    0.01    1.84   1
  -7  -5   0    4.60    2.22   5
   8   5   0   -1.65    1.79   1
  -8  -5   0   -1.54    1.90   1
  -9  -5   0    0.50    2.18   1
   9   5   0   -2.02    1.83   1
   6  -6   0   10.35    3.07   2
  -6   6   0    6.13    1.79   1
  -5   6   0    6.20    1.38   1
   5  -6   0    7.00    2.33   5
   5  -6   0    8.77    2.42   2
   4  -6   0   19.51    2.68   5
  -4   6   0   17.09    1.45   1
   4  -6   0   14.96    2.40   2
   4  -6   0   16.53    2.45   2
   3  -6   0    6.57    1.55   2
   3  -6   0    9.00    1.72   2
   3  -6   0    3.26    1.41   5
   3  -6   0    7.68    1.81   4
   3  -6   0    4.11    1.48   5
   2  -6   0    1.47    1.28   4
   2  -6   0    0.33    0.78   2
   2  -6   0    0.31    0.94   5
   2  -6   0    0.00    0.83   5
   2  -6   0   -0.42    0.83   2
   1  -6   0   13.89    1.35   1
   1  -6   0   16.48    2.18   4
   1  -6   0   17.49    1.42   5
   1  -6   0   15.05    1.27   5
   0  -6   0   17.60    2.65   3
   0  -6   0   19.70    1.20   5
   0  -6   0   18.48    2.29   4
   0  -6   0   22.94    1.28   5
  -1  -6   0   71.58    2.65   5
  -1  -6   0   78.08    4.34   3
  -1  -6   0   67.37    4.07   4
  -1  -6   0   72.64    2.62   5
  -1  -6   0   74.73    2.67   1
  -2  -6   0    9.57    1.12   2
  -2  -6   0   10.34    1.37   5
   2   6   0    9.04    0.85   1
  -2  -6   0    6.93    1.05   2
  -2  -6   0    9.85    1.30   5
  -2  -6   0    9.15    1.25   1
   2   6   0    9.37    0.80   1
  -2  -6   0    8.61    1.80   3
  -3  -6   0   64.07    3.53   3
   3   6   0   61.90    2.94   1
  -3  -6   0   60.17    3.24   1
  -3  -6   0   66.68    3.52   5
  -3  -6   0   67.90    3.55   5
  -3  -6   0   65.33    3.37   2
  -3  -6   0   63.21    3.23   2
  -4  -6   0    3.25    1.38   2
  -4  -6   0    1.26    1.27   2
  -4  -6   0   -0.29    1.12   5
  -4  -6   0    4.05    1.50   1
  -4  -6   0    0.39    1.03   3
   4   6   0    0.36    1.10   1
   4   6   0    0.92    0.97   5
  -4  -6   0    1.22    1.35   5
  -5  -6   0    9.53    2.26   2
  -5  -6   0    1.15    1.55   5
  -5  -6   0    3.82    1.79   5
  -5  -6   0    7.47    2.12   1
  -5  -6   0    7.31    1.25   3
   5   6   0    3.45    1.67   1
   5   6   0    4.93    1.57   5
  -5  -6   0    3.95    1.70   2
  -6  -6   0    0.12    1.47   1
  -6  -6   0    2.33    1.79   2
  -6  -6   0    1.22    1.59   5
   6   6   0    2.24    1.64   1
  -7  -6   0    3.58    2.20   5
   7   6   0    2.51    1.95   1
  -7  -6   0    0.11    1.53   1
  -8  -6   0   -0.48    1.91   1
   8   6   0   -1.98    1.64   1
   9   6   0    0.73    2.43   1
  -9  -6   0    3.46    2.44   1
   5  -7   0   19.21    3.17   2
   4  -7   0    6.30    1.99   2
   4  -7   0   10.66    2.37   5
   4  -7   0    4.55    1.94   2
   3  -7   0   82.32    4.48   5
   3  -7   0   82.57    4.24   2
   3  -7   0   78.82    4.45   5
   3  -7   0   90.94    4.96   4
   3  -7   0   82.59    4.23   2
   2  -7   0   45.86    2.89   5
   2  -7   0   43.97    2.58   2
   2  -7   0   47.31    2.53   2
   2  -7   0   45.39    2.84   5
   2  -7   0   49.62    3.76   4
   1  -7   0  127.19    4.32   5
   1  -7   0  134.65    6.12   4
   1  -7   0  138.88    4.56   5
   1  -7   0  135.38    3.75   2
   0  -7   0   90.52    3.11   5
   0  -7   0   91.68    3.08   5
   0  -7   0   96.45    5.17   4
  -1  -7   0   63.74    2.61   5
  -1  -7   0   58.92    2.56   5
  -1  -7   0   71.95    4.54   4
  -2  -7   0   27.16    2.02   1
  -2  -7   0   25.40    1.81   2
  -2  -7   0   28.59    1.83   2
  -2  -7   0   25.74    2.84   3
  -2  -7   0   23.17    1.94   5
  -2  -7   0   28.56    2.06   5
  -3  -7   0   11.19    1.77   5
   3   7   0   12.10    1.33   1
  -3  -7   0   11.74    1.74   2
  -3  -7   0   14.08    1.70   2
  -3  -7   0   14.32    1.80   1
  -3  -7   0    7.60    1.65   5
  -3  -7   0   10.13    2.04   3
  -4  -7   0   -0.40    1.18   5
  -4  -7   0    0.88    1.20   2
  -4  -7   0    0.08    1.34   5
  -4  -7   0    0.93    1.28   1
  -4  -7   0    1.66    1.37   2
  -4  -7   0    0.75    1.27   3
   4   7   0    1.74    1.20   1
  -5  -7   0    5.72    1.80   1
   5   7   0    7.74    1.93   1
  -5  -7   0    8.87    2.14   2
  -5  -7   0    3.59    1.75   5
  -5  -7   0   11.30    2.38   2
   6   7   0    5.48    2.05   1
  -6  -7   0    3.30    1.85   1
  -6  -7   0    3.17    1.92   5
  -6  -7   0    4.32    2.00   2
  -7  -7   0    7.51    2.49   1
  -7  -7   0    7.47    2.72   5
   7   7   0    4.98    2.30   1
   8   7   0    2.56    2.30   1
  -8  -7   0   -0.85    1.54   1
   5  -8   0    1.19    2.14   2
   4  -8   0   -0.76    1.69   2
   3  -8   0    2.54    1.47   2
   3  -8   0    2.79    1.50   2
   3  -8   0    0.45    1.42   5
   2  -8   0   -0.66    1.02   5
   2  -8   0    0.55    1.17   5
   2  -8   0   -0.88    1.33   4
   2  -8   0    1.28    1.03   2
   2  -8   0    1.03    1.10   2
   1  -8   0   11.64    2.43   4
   1  -8   0   14.06    1.28   2
   1  -8   0   14.25    1.63   5
   1  -8   0   12.18    1.18   2
   1  -8   0   14.24    1.52   5
   0  -8   0    3.70    1.81   4
   0  -8   0    4.78    0.99   5
   0  -8   0    3.35    0.88   5
  -1  -8   0   66.20    4.65   4
  -1  -8   0   67.07    2.92   5
  -1  -8   0   70.13    2.98   5
  -1  -8   0   71.71    2.44   2
  -2  -8   0    2.41    1.13   5
  -2  -8   0    1.81    1.03   5
  -2  -8   0    1.68    0.92   2
  -2  -8   0    0.40    0.88   2
  -2  -8   0    0.57    1.57   4
  -3  -8   0   99.89    4.71   5
  -3  -8   0   99.58    4.37   2
  -3  -8   0  111.02    4.58   2
  -3  -8   0  102.59    4.69   5
  -4  -8   0   19.44    2.57   3
  -4  -8   0   31.50    2.88   2
   4   8   0   25.13    2.14   1
  -4  -8   0   23.06    2.78   5
  -4  -8   0   21.43    2.53   2
  -5  -8   0   38.72    3.68   2
   5   8   0   32.85    2.94   1
  -5  -8   0   42.28    3.88   5
  -6  -8   0   16.71    3.21   5
  -6  -8   0   20.29    3.23   2
   6   8   0   20.44    2.86   1
  -7  -8   0    4.01    2.55   5
   7   8   0    3.70    2.11   1
   8   8   0    5.75    2.48   1
   3  -9   0    0.84    1.54   2
   3  -9   0    2.93    1.65   2
   2  -9   0   -0.60    0.97   2
   2  -9   0   -0.52    1.03   5
   2  -9   0    1.23    1.66   4
   2  -9   0    0.34    1.10   2
   1  -9   0    2.65    1.09   5
   1  -9   0    2.12    1.73   4
   1  -9   0    2.70    0.94   2
   1  -9   0    2.64    1.08   5
   0  -9   0    4.21    0.85   2
   0  -9   0    2.75    0.97   5
   0  -9   0    3.73    2.03   4
   0  -9   0    3.94    1.03   5
  -1  -9   0    0.00    0.75   5
  -1  -9   0    0.50    1.44   4
  -1  -9   0    1.43    0.78   2
  -2  -9   0   -1.08    1.28   4
  -2  -9   0    1.20    0.95   2
  -2  -9   0    0.64    1.06   5
  -2  -9   0    1.10    0.94   2
  -2  -9   0   -0.51    0.88   5
  -3  -9   0    1.85    1.34   5
  -3  -9   0    2.61    1.30   5
  -3  -9   0    2.57    1.27   2
  -3  -9   0    1.79    1.77   4
  -3  -9   0    0.26    1.14   2
  -4  -9   0    0.81    1.32   2
  -4  -9   0    1.92    1.57   2
   4   9   0    1.60    0.80   1
  -4  -9   0    1.06    1.36   5
  -5  -9   0   -0.05    1.37   5
   5   9   0   -0.42    1.26   1
  -5  -9   0   -0.70    1.35   2
  -6  -9   0    0.06    1.83   5
   6   9   0    1.02    1.64   1
  -6  -9   0    0.45    1.89   2
  -7  -9   0    5.90    2.69   5
   7   9   0    3.16    2.02   1
   8   9   0    0.53    2.08   1
   2 -10   0    1.58    1.34   2
   1 -10   0    2.34    2.00   4
   1 -10   0    0.97    0.97   2
   0 -10   0    0.41    1.81   4
   0 -10   0    3.27    0.96   2
   0 -10   0    2.37    1.07   5
   0 -10   0    3.54    1.03   5
  -1 -10   0    2.07    1.04   5
  -1 -10   0   -1.63    1.52   4
  -1 -10   0   -0.19    0.83   5
  -1 -10   0   -0.33    0.80   2
  -2 -10   0    1.98    1.23   5
  -2 -10   0   -0.26    1.02   2
  -2 -10   0    0.07    1.73   4
  -2 -10   0    0.48    1.06   5
  -2 -10   0    1.67    1.07   2
  -3 -10   0    4.15    1.51   2
  -3 -10   0    2.95    1.45   2
  -3 -10   0    6.36    2.46   4
  -3 -10   0    5.55    1.64   5
  -4 -10   0    2.58    1.59   2
  -4 -10   0    1.61    1.42   5
  -4 -10   0    2.49    1.69   2
  -4 -10   0    1.01    1.95   4
  -5 -10   0    0.29    1.69   2
  -5 -10   0    1.18    1.66   5
   6  10   0    0.12    1.49   1
  -6 -10   0   -0.68    1.83   2
   7  10   0   -1.68    1.69   1
   0 -11   0    0.13    1.04   2
   0 -11   0    6.13    2.57   4
  -1 -11   0    2.71    1.18   2
  -1 -11   0    4.15    2.48   4
  -2 -11   0    2.50    2.22   4
  -2 -11   0    1.38    1.13   2
  -2 -11   0    3.05    1.39   2
  -3 -11   0    6.12    2.56   4
  -3 -11   0    6.77    1.83   2
  -3 -11   0    6.49    1.72   2
  -4 -11   0    1.48    1.61   2
  -4 -11   0    1.01    2.03   4
  -5 -11   0    0.25    2.08   4
  -5 -11   0    1.04    1.83   2
  -6 -11   0    1.97    2.23   2
  -6 -11   0   -1.42    2.39   4
  -1 -12   0    2.67    2.37   4
  -1 -12   0    1.83    1.40   2
  -2 -12   0    0.27    1.37   2
  -2 -12   0    0.23    2.21   4
  -3 -12   0    5.54    2.92   4
  -4 -12   0    1.42    2.28   4
  -3 -12   1    0.97    2.49   4
  -2 -12   1    2.62    2.66   4
  -6 -11   1   -0.76    2.21   4
  -5 -11   1   -1.45    2.22   4
  -5 -11   1    4.58    2.26   2
  -4 -11   1    2.61    2.26   4
  -4 -11   1    1.36    1.75   2
  -3 -11   1    2.65    2.21   4
  -3 -11   1    4.53    1.76   2
  -2 -11   1    3.48    2.47   4
  -2 -11   1    1.73    1.52   2
  -2 -11   1    2.57    1.44   2
  -1 -11   1   -1.51    1.90   4
  -1 -11   1    1.62    1.29   2
   0 -11   1   -1.34    1.88   4
   1 -11   1    1.81    2.32   4
  -7 -10   1   -0.31    2.20   4
   7  10  -1    0.34    1.94   1
  -6 -10   1   -0.38    2.32   4
  -6 -10   1    0.92    2.01   2
   6  10  -1   -1.08    1.54   1
  -5 -10   1    4.02    2.56   4
   5  10  -1    3.92    1.40   1
  -5 -10   1    0.80    1.65   2
  -4 -10   1    2.66    1.71   5
  -4 -10   1    1.02    2.03   4
  -4 -10   1    5.44    1.88   2
  -3 -10   1    0.14    1.11   5
  -3 -10   1    1.29    1.32   2
  -3 -10   1   -0.29    1.47   4
  -3 -10   1    0.53    1.40   2
  -2 -10   1    6.51    1.56   2
  -2 -10   1    9.32    1.72   2
  -2 -10   1    8.05    1.73   5
  -2 -10   1    2.97    2.03   4
  -1 -10   1    7.82    1.62   5
  -1 -10   1    6.99    1.47   2
  -1 -10   1    7.92    2.71   4
   0 -10   1   -1.03    1.48   4
   0 -10   1    1.56    1.11   2
   1 -10   1    9.55    1.64   2
   1 -10   1    5.93    2.64   4
   2 -10   1    2.01    1.58   2
  -7  -9   1    3.79    2.62   5
   7   9  -1    1.76    2.04   1
  -6  -9   1    4.12    2.15   5
  -6  -9   1   -0.91    1.96   2
   6   9  -1   -0.14    1.51   1
   5   9  -1    2.87    1.58   1
  -5  -9   1    1.29    1.66   2
  -5  -9   1    0.55    1.69   5
  -5  -9   1   -0.67    1.91   4
  -4  -9   1    6.44    2.01   2
  -4  -9   1    6.89    2.06   5
  -4  -9   1    4.46    1.76   2
  -4  -9   1    1.82    2.18   4
   4   9  -1    5.73    1.31   1
  -3  -9   1    3.99    1.60   2
  -3  -9   1    4.09    1.47   2
  -3  -9   1    3.54    1.61   5
  -3  -9   1    2.16    2.03   4
  -2  -9   1    7.04    1.50   2
  -2  -9   1    4.48    2.06   4
  -2  -9   1   10.67    1.82   5
  -2  -9   1    7.50    1.52   2
  -2  -9   1    9.52    1.71   5
  -1  -9   1   16.90    3.17   4
  -1  -9   1   15.50    1.74   2
  -1  -9   1   15.83    1.86   5
  -1  -9   1   16.69    1.95   5
   0  -9   1   -1.26    1.27   4
   0  -9   1   -0.56    0.83   2
   0  -9   1    0.18    0.90   5
   0  -9   1   -1.34    0.80   5
   1  -9   1    8.25    2.57   4
   1  -9   1   10.54    1.70   5
   1  -9   1   10.47    1.55   2
   1  -9   1    5.87    1.50   5
   2  -9   1    1.77    1.35   2
   2  -9   1    0.33    1.81   4
   3  -9   1   -0.04    1.47   2
   8   8  -1    2.05    2.27   1
   7   8  -1   20.15    3.42   1
  -7  -8   1   22.52    4.15   5
  -6  -8   1   13.91    3.06   5
   6   8  -1   17.74    2.88   1
  -6  -8   1   18.66    3.20   2
  -5  -8   1   65.37    4.57   2
  -5  -8   1   62.80    4.74   5
   5   8  -1   64.99    4.11   1
  -4  -8   1    6.92    1.91   2
   4   8  -1   12.38    1.87   1
  -4  -8   1   10.95    2.20   2
  -4  -8   1    6.68    1.91   5
  -4  -8   1    8.91    2.22   3
  -3  -8   1   67.60    3.77   2
   3   8  -1   69.64    2.76   1
  -3  -8   1   65.87    4.00   5
  -3  -8   1   63.72    3.98   5
  -3  -8   1   66.49    3.80   2
  -3  -8   1   67.76    5.19   4
  -2  -8   1    1.44    1.16   2
  -2  -8   1    4.03    1.36   5
  -2  -8   1    1.08    1.49   4
  -2  -8   1    2.32    1.18   2
  -2  -8   1    4.38    1.29   5
  -1  -8   1   18.58    1.88   5
  -1  -8   1   19.68    3.14   4
  -1  -8   1   17.93    1.79   5
  -1  -8   1   17.16    1.64   2
   0  -8   1    7.55    1.34   5
   0  -8   1    8.04    2.33   4
   0  -8   1    6.85    1.13   2
   0  -8   1    8.36    1.38   5
   1  -8   1    1.49    1.05   5
   1  -8   1    2.52    0.95   2
   1  -8   1    0.84    0.98   5
   1  -8   1    1.30    1.66   4
   2  -8   1   11.97    1.94   5
   2  -8   1   10.88    1.87   5
   2  -8   1   15.41    2.83   4
   2  -8   1   15.58    1.84   2
   3  -8   1   -0.54    1.33   2
   3  -8   1    2.55    1.67   5
   3  -8   1    0.61    1.95   4
   4  -8   1    4.73    2.19   2
  -8  -7   1   -1.20    2.37   1
   8   7  -1    0.16    1.88   1
   7   7  -1    4.94    2.25   1
  -7  -7   1    2.33    2.26   5
  -7  -7   1    2.91    2.18   1
  -6  -7   1    7.80    2.40   5
  -6  -7   1    5.23    2.17   2
  -6  -7   1    4.17    2.09   1
   6   7  -1   10.84    2.52   1
   5   7  -1   12.98    2.30   1
  -5  -7   1   10.60    2.45   5
  -5  -7   1   10.35    2.34   1
  -5  -7   1   10.66    2.34   2
  -4  -7   1   88.36    4.71   1
   4   7  -1   81.45    4.13   1
  -4  -7   1   85.45    4.68   2
  -4  -7   1   73.90    4.41   2
  -4  -7   1   78.11    4.70   5
  -4  -7   1   78.04    4.68   5
   3   7  -1   68.12    3.10   1
  -3  -7   1   62.97    3.61   2
  -3  -7   1   61.88    3.73   5
  -3  -7   1   65.04    3.63   2
  -3  -7   1   54.26    3.45   1
  -3  -7   1   61.30    3.74   5
  -2  -7   1  212.22    6.41   2
  -2  -7   1  211.98    6.87   5
   2   7  -1  214.43    5.17   1
  -2  -7   1  217.15    6.60   1
  -2  -7   1  204.73    8.53   4
  -2  -7   1  226.97    6.65   2
  -2  -7   1  201.32    6.90   5
  -1  -7   1  143.76    4.73   1
  -1  -7   1  139.40    4.91   5
  -1  -7   1  143.49    4.95   5
  -1  -7   1  148.28    6.73   4
  -1  -7   1  144.96    4.49   2
   0  -7   1  137.21    4.69   5
   0  -7   1  128.54    6.36   4
   0  -7   1  128.97    4.50   5
   0  -7   1  137.34    4.08   2
   1  -7   1   94.41    5.25   4
   1  -7   1   92.09    3.84   5
   1  -7   1   95.67    3.47   2
   2  -7   1   19.53    2.00   2
   2  -7   1   27.43    2.17   2
   2  -7   1   26.32    2.44   5
   2  -7   1   24.78    3.05   4
   2  -7   1   27.15    2.38   5
   3  -7   1   18.54    2.42   5
   3  -7   1   19.38    2.89   4
   3  -7   1   15.11    2.15   2
   3  -7   1   16.06    2.12   2
   4  -7   1    3.02    1.89   2
   4  -7   1    2.60    1.74   5
   5  -7   1    1.57    2.15   2
   8   6  -1    6.32    2.65   1
  -8  -6   1    1.16    2.28   1
   7   6  -1    0.19    1.90   1
  -7  -6   1   -0.73    1.76   1
  -7  -6   1    0.08    1.88   5
  -6  -6   1    1.94    1.74   1
  -6  -6   1   -0.31    1.40   2
   6   6  -1   -0.15    1.56   1
  -6  -6   1    2.40    1.85   5
  -5  -6   1    7.41    2.13   5
   5   6  -1    6.57    1.87   1
  -5  -6   1    5.05    1.82   2
  -5  -6   1    4.91    1.86   1
   4   6  -1    7.48    1.46   5
  -4  -6   1    6.96    1.84   5
  -4  -6   1    7.66    1.96   5
  -4  -6   1    7.03    1.72   1
   4   6  -1   10.07    1.89   1
  -4  -6   1    6.81    1.75   2
  -4  -6   1    9.63    1.95   2
   3   6  -1    3.71    0.86   5
  -3  -6   1    3.32    1.29   5
  -3  -6   1    4.66    1.41   1
  -3  -6   1    2.11    1.21   2
   3   6  -1    4.12    1.31   1
  -3  -6   1    1.23    1.12   2
  -3  -6   1    5.30    1.43   5
  -2  -6   1   34.02    2.36   5
  -2  -6   1   28.43    2.18   1
   2   6  -1   24.88    1.70   1
  -2  -6   1   27.02    2.07   2
  -2  -6   1   27.17    2.22   5
  -2  -6   1   26.52    3.01   4
  -2  -6   1   31.91    2.12   2
  -1  -6   1    3.23    0.95   5
  -1  -6   1    2.16    0.78   2
  -1  -6   1    1.70    0.86   1
  -1  -6   1    2.58    0.92   5
  -1  -6   1    0.96    1.30   4
   0  -6   1    0.46    0.76   1
   0  -6   1    1.35    0.59   2
   0  -6   1   -0.49    0.96   4
   0  -6   1    1.35    0.73   5
   0  -6   1    1.26    0.73   5
   1  -6   1    2.06    0.75   2
   1  -6   1    1.38    0.92   5
   1  -6   1    4.51    1.59   4
   1  -6   1    2.82    0.80   2
   1  -6   1    3.15    1.06   1
   1  -6   1    3.05    0.89   5
   2  -6   1   42.16    3.45   4
   2  -6   1   39.13    2.50   2
   2  -6   1   39.93    2.42   2
   2  -6   1   40.64    2.77   5
   2  -6   1   41.72    2.72   5
  -3   6  -1    3.27    0.71   1
   3  -6   1    4.64    1.55   5
   3  -6   1    2.87    1.36   2
   3  -6   1    2.15    1.38   5
   3  -6   1    5.63    1.90   4
   3  -6   1    1.20    1.18   2
   4  -6   1   19.54    2.83   5
   4  -6   1   28.50    3.14   4
  -4   6  -1   25.95    1.99   1
   4  -6   1   27.62    2.95   2
   4  -6   1   19.59    2.71   2
   5  -6   1    6.48    2.26   2
  -5   6  -1    5.71    1.52   1
   5  -6   1    2.04    1.88   5
  -6   6  -1    3.87    1.78   1
   6  -6   1    2.80    2.45   2
   9   5  -1   -0.76    1.99   1
  -9  -5   1   -1.01    2.26   1
   8   5  -1    2.88    2.45   1
  -8  -5   1    1.16    1.98   1
   7   5  -1    4.15    2.41   1
  -7  -5   1    5.46    2.41   1
  -6  -5   1    6.19    2.31   5
  -6  -5   1    5.13    1.98   1
   6   5  -1   -0.75    1.61   1
  -6  -5   1    0.31    1.36   2
  -5  -5   1   32.36    3.22   2
   5   5  -1   31.93    3.18   1
  -5  -5   1   31.46    3.46   5
  -5  -5   1   29.78    3.40   5
  -5  -5   1   35.38    3.42   2
   5   5  -1   34.35    3.17   5
  -5  -5   1   29.78    3.14   1
  -4  -5   1    1.36    1.31   5
   4   5  -1    0.59    1.10   5
  -4  -5   1   -0.11    1.08   1
  -4  -5   1   -0.58    1.15   5
   4   5  -1    1.59    1.26   1
  -4  -5   1    0.18    1.13   2
  -4  -5   1    2.99    1.36   2
  -3  -5   1   14.30    1.95   5
   3   5  -1   12.65    1.49   5
  -3  -5   1   12.13    1.73   2
  -3  -5   1   13.36    1.92   5
  -3  -5   1   11.19    1.69   2
   3   5  -1   12.91    1.72   1
  -3  -5   1   16.99    1.94   1
  -2  -5   1    0.37    0.80   5
   2   5  -1   -0.27    0.45   5
  -2  -5   1    0.48    0.81   1
   2   5  -1   -0.91    0.65   1
  -2  -5   1    0.16    0.85   2
  -2  -5   1    0.11    0.77   2
  -2  -5   1   -0.56    0.73   5
   2   5  -1   -0.29    0.42   5
  -1  -5   1   17.33    2.34   4
  -1  -5   1   17.84    1.37   2
  -1  -5   1   19.05    1.56   5
  -1  -5   1   19.63    1.54   1
   1   5  -1   15.99    1.14   1
  -1  -5   1   20.29    1.58   5
   1   5  -1   16.27    1.15   1
   0  -5   1   32.37    1.42   2
   0  -5   1   35.81    1.91   1
   0  -5   1   34.65    1.86   5
   0  -5   1   35.22    2.93   4
   0  -5   1   34.92    1.83   5
   1  -5   1   40.18    2.08   5
   1  -5   1   42.85    3.05   4
   1  -5   1   40.52    2.21   5
   1  -5   1   41.42    1.80   2
   1  -5   1   39.30    1.86   2
   1  -5   1   42.34    2.21   1
   2  -5   1   55.49    2.95   1
   2  -5   1   53.69    2.94   5
   2  -5   1   55.45    2.77   2
  -2   5  -1   46.68    1.98   1
   2  -5   1   49.63    2.81   5
   2  -5   1   54.18    2.62   2
  -2   5  -1   53.06    2.02   1
   2  -5   1   58.67    3.49   4
   3  -5   1    4.15    1.40   2
  -3   5  -1    4.12    1.11   1
   3  -5   1    1.62    1.38   4
   3  -5   1    3.00    1.26   2
   3  -5   1    3.11    1.35   5
   3  -5   1    1.46    1.27   1
   3  -5   1    2.92    1.25   5
  -4   5  -1   12.47    1.77   1
   4  -5   1   10.73    2.18   5
   4  -5   1   15.00    2.37   2
   4  -5   1   15.08    2.29   2
   4  -5   1   15.83    2.32   4
   5  -5   1    0.87    1.60   5
  -5   5  -1   -0.28    1.28   1
   5  -5   1    0.02    1.58   2
   6  -5   1   -0.96    1.77   5
  -6   5  -1    1.50    1.55   1
   6  -5   1   -0.34    1.97   2
  -7   5  -1    2.69    2.08   1
  -9  -4   1   -0.50    2.39   1
   9   4  -1    0.66    2.53   1
   8   4  -1    2.42    2.31   1
  -8  -4   1    2.91    2.44   1
  -7  -4   1    3.79    2.19   1
   7   4  -1    3.75    2.42   1
   6   4  -1    0.32    1.63   1
  -6  -4   1    0.58    1.61   5
  -6  -4   1    2.25    1.78   2
  -6  -4   1    6.30    2.16   1
  -5  -4   1   46.88    4.00   5
  -5  -4   1   47.47    3.63   2
   5   4  -1   44.14    3.30   2
  -5  -4   1   43.98    3.82   1
  -5  -4   1   50.15    3.78   2
  -5  -4   1   50.24    4.08   5
   5   4  -1   45.63    3.49   1
  -4  -4   1    4.79    1.57   5
   4   4  -1    5.23    1.37   2
  -4  -4   1    5.92    1.58   2
  -4  -4   1    4.50    1.70   5
   4   4  -1    5.78    1.56   1
  -4  -4   1    7.16    1.66   2
  -4  -4   1    5.58    1.53   1
   4   4  -1    6.63    1.55   5
   3   4  -1   41.46    2.59   5
  -3  -4   1   36.24    2.60   2
   3   4  -1   37.26    2.57   1
  -3  -4   1   40.52    2.71   2
   3   4  -1   41.85    2.58   5
  -3  -4   1   44.28    2.98   5
  -3  -4   1   37.08    2.79   5
  -3  -4   1   43.04    2.80   1
   2   4  -1   18.71    1.67   1
  -2  -4   1   23.31    1.80   2
   2   4  -1   20.92    1.84   1
  -2  -4   1   23.05    1.94   5
   2   4  -1   22.98    1.62   5
  -2  -4   1   21.26    1.88   1
  -2  -4   1   20.10    1.72   2
   2   4  -1   20.19    1.58   5
  -2  -4   1   22.40    1.88   5
  -1  -4   1   15.45    2.07   4
  -1  -4   1   12.55    1.29   1
  -1  -4   1   13.98    1.35   5
  -1  -4   1   14.85    1.21   2
   1   4  -1   14.61    1.16   1
  -1  -4   1   12.75    1.28   5
   0  -4   1    0.66    0.65   1
   0  -4   1   -0.15    1.08   4
   0   4  -1    0.04    0.49   1
   0  -4   1    0.75    0.65   5
   0  -4   1    0.80    0.48   2
   0   4  -1   -0.11    0.50   1
   0  -4   1    0.38    0.57   5
   1  -4   1   55.89    2.01   2
  -1   4  -1   50.59    1.85   1
  -1   4  -1   53.47    1.87   1
   1  -4   1   51.56    2.38   5
   1  -4   1   50.08    2.05   2
   1  -4   1   51.60    2.28   5
   1  -4   1   54.20    3.09   4
   1  -4   1   52.72    2.39   1
   2  -4   1   24.80    1.86   2
   2  -4   1   28.74    2.07   1
  -2   4  -1   26.36    1.70   1
   2  -4   1   23.77    1.96   5
   2  -4   1   24.87    1.96   5
   2  -4   1   24.45    1.76   2
   2  -4   1   23.08    2.21   4
   3  -4   1    4.45    1.39   1
   3  -4   1    6.18    1.48   5
   3  -4   1    3.33    1.31   5
   3  -4   1    5.50    1.42   2
   3  -4   1    5.72    1.91   3
   3  -4   1    4.22    1.47   4
   3  -4   1    5.46    1.39   2
  -3   4  -1    3.69    1.22   1
  -4   4  -1   11.52    1.84   1
   4  -4   1    9.65    2.08   5
   4  -4   1    9.95    2.01   2
   4  -4   1   10.59    2.11   1
   4  -4   1   14.00    2.30   5
   4  -4   1   11.39    2.09   2
   4  -4   1   10.41    1.90   4
  -5   4  -1   -0.07    1.32   1
   5  -4   1    1.74    1.59   5
   5  -4   1   -0.20    1.50   2
  -6   4  -1   -0.63    1.50   1
   6  -4   1   -0.84    1.60   5
   6  -4   1   -2.81    1.58   2
  -7   4  -1    0.74    1.74   1
   7  -4   1    1.42    2.14   5
   9   3  -1   -0.70    2.33   1
  -9  -3   1   -2.96    2.18   1
   8   3  -1    1.08    2.32   1
  -8  -3   1    1.35    2.15   1
   7   3  -1    3.85    2.18   1
  -7  -3   1    4.21    2.22   1
   6   3  -1    3.28    2.02   1
  -6  -3   1    2.64    1.74   5
   6   3  -1   -0.14    1.60   5
  -6  -3   1    3.04    1.93   1
   5   3  -1   19.09    2.66   5
  -5  -3   1   11.16    2.39   5
  -5  -3   1   20.70    2.79   1
   5   3  -1   16.02    2.57   1
   5   3  -1   23.43    2.60   2
   5   3  -1   19.37    2.73   5
  -5  -3   1   19.40    2.67   2
  -5  -3   1   19.31    2.94   5
  -5  -3   1   21.06    2.55   2
  -4  -3   1  150.26    6.03   2
  -4  -3   1  160.13    6.16   2
  -4  -3   1  173.97    6.76   5
  -4  -3   1  159.30    6.54   5
  -4  -3   1  158.54    6.25   1
   4   3  -1  157.91    6.19   1
   4   3  -1  166.13    6.51   5
   4   3  -1  151.03    5.68   2
  -3  -3   1    1.67    1.18   5
   3   3  -1    2.25    1.13   5
   3   3  -1    3.41    1.25   1
  -3  -3   1    3.26    1.21   2
   3   3  -1    1.21    0.96   2
  -3  -3   1    1.24    1.17   5
   3   3  -1    3.09    1.14   2
  -3  -3   1    1.98    1.20   2
  -3  -3   1    1.57    1.13   1
   2   3  -1  506.33   12.23   5
   2   3  -1  523.75   11.66   2
   2   3  -1  501.20   11.96   1
  -2  -3   1  503.50   12.11   1
  -2  -3   1  512.75   12.59   5
  -2  -3   1  502.69   12.64   5
  -2  -3   1  499.63   11.95   2
   2   3  -1  507.53   11.50   2
  -2  -3   1  492.33   12.07   2
   2   3  -1  510.40   12.36   5
  -1  -3   1  165.78    4.40   2
   1   3  -1  167.31    4.53   1
   1   3  -1  160.31    4.30   5
   1   3  -1  167.40    4.44   5
  -1  -3   1  170.91    4.77   5
  -1  -3   1  163.13    4.65   1
   1   3  -1  160.69    4.47   1
  -1  -3   1  167.66    4.82   5
  -1  -3   1  163.68    4.47   2
   0  -3   1  291.59    7.00   1
   0  -3   1  295.37    6.71   2
   0  -3   1  297.45    8.20   4
   0   3  -1  295.06    6.81   1
   0  -3   1  293.49    7.17   5
   0  -3   1  312.34    7.25   5
   1  -3   1  176.87    4.64   2
   1  -3   1  176.88    5.08   5
   1  -3   1  184.58    5.01   5
  -1   3  -1  178.58    5.67   4
   1  -3   1  175.44    5.62   4
  -1   3  -1  180.59    4.71   1
   1  -3   1  182.98    4.54   2
   1  -3   1  181.29    4.98   1
   2  -3   1    1.94    0.95   1
  -2   3  -1    2.02    0.67   5
  -2   3  -1    1.21    0.58   5
   2  -3   1    1.19    0.86   5
   2  -3   1   -0.15    0.75   2
   2  -3   1    2.23    0.96   5
   2  -3   1    1.38    1.08   4
   2  -3   1    2.65    0.93   2
  -2   3  -1    2.72    0.93   1
   3  -3   1    6.98    1.55   5
   3  -3   1    4.31    1.26   2
   3  -3   1    4.62    1.38   1
   3  -3   1    4.01    1.27   2
   3  -3   1    5.07    1.37   4
  -3   3  -1    4.19    1.24   1
  -3   3  -1    6.88    1.15   5
   3  -3   1    7.91    1.89   3
   3  -3   1    6.23    1.45   5
   4  -3   1    2.98    1.36   4
   4  -3   1    2.02    1.37   5
  -4   3  -1    4.79    1.54   1
   4  -3   1    3.15    1.47   2
   4  -3   1    4.43    1.65   1
   4  -3   1    3.53    1.59   3
   4  -3   1    4.30    1.59   5
  -4   3  -1    4.77    1.30   5
   4  -3   1    6.60    1.71   2
  -5   3  -1    2.42    1.66   1
   5  -3   1    2.60    1.58   2
   5  -3   1    3.32    1.78   2
   5  -3   1    1.20    1.64   5
   6  -3   1    0.18    1.71   5
   6  -3   1    0.32    1.75   2
  -6   3  -1    0.33    1.60   1
   6  -3   1   -0.52    1.62   1
  -7   3  -1    0.86    1.81   1
   7  -3   1    1.49    2.28   5
  -8   3  -1    0.85    2.18   1
  -9  -2   1   -2.74    1.88   1
   9   2  -1   -2.66    2.33   1
   8   2  -1    0.12    2.09   1
  -8  -2   1    1.42    2.08   1
  -7  -2   1    1.30    2.01   1
   7   2  -1    0.86    2.06   1
  -6  -2   1   16.80    2.98   1
  -6  -2   1   15.59    2.86   5
   6   2  -1   13.98    2.89   1
   6   2  -1   15.31    2.99   5
  -5  -2   1    4.44    1.84   2
  -5  -2   1    3.61    1.69   5
   5   2  -1    5.24    1.81   1
   5   2  -1    2.99    1.52   2
   5   2  -1    4.13    1.84   5
  -5  -2   1    2.00    1.56   1
  -5  -2   1    4.21    1.86   5
   5   2  -1    1.89    1.52   5
   4   2  -1   51.44    3.38   1
  -4  -2   1   49.55    3.49   2
   4   2  -1   51.35    3.55   5
  -4  -2   1   55.60    3.54   1
  -4  -2   1   56.61    3.64   5
  -4  -2   1   56.57    2.18   3
   4   2  -1   48.24    3.40   5
   4   2  -1   57.62    3.44   2
  -4  -2   1   58.17    3.42   2
  -4  -2   1   64.08    4.02   5
  -3  -2   1   10.03    1.53   2
  -3  -2   1   11.47    1.77   1
  -3  -2   1    6.68    1.62   5
  -3  -2   1   11.53    1.74   5
   3   2  -1    9.74    1.54   2
  -3  -2   1   10.64    1.70   2
   3   2  -1   11.68    1.61   2
   3   2  -1   14.09    1.83   1
   3   2  -1   11.65    1.72   5
   3   2  -1    8.42    1.57   5
   2   2  -1   38.28    2.05   2
  -2  -2   1   34.70    2.08   2
  -2  -2   1   35.88    2.20   5
  -2  -2   1   34.47    2.02   2
   2   2  -1   35.95    1.99   2
   2   2  -1   39.37    2.26   5
  -2  -2   1   37.58    2.21   1
  -2  -2   1   39.53    2.30   5
   1   2  -1  676.61   14.90   5
   1   2  -1  675.06   14.50   1
   1   2  -1  671.13   14.25   2
  -1  -2   1  671.65   15.01   5
   1   2  -1  656.25   14.89   5
  -1  -2   1  640.37   15.03   5
  -1  -2   1  661.34   14.49   2
   1   2  -1  666.76   14.50   1
  -1  -2   1  660.61   14.42   2
  -1  -2   1  664.81   14.54   1
   1   2  -1  677.04   14.31   2
   0  -2   1    7.82    0.75   5
   0   2  -1    7.85    1.07   4
   0   2  -1    7.48    0.62   5
   0  -2   1    8.19    0.81   1
   0  -2   1    8.48    0.77   5
   0   2  -1    8.03    0.65   5
   0   2  -1    6.65    0.70   1
   0  -2   1    8.00    0.79   1
   0  -2   1    6.56    0.99   4
   0  -2   1    7.57    0.64   2
  -1   2  -1  609.18   14.18   4
  -1   2  -1  604.07   13.51   1
   1  -2   1  607.86   14.22   4
   1  -2   1  616.12   14.09   5
   1  -2   1  623.55   13.62   1
   1  -2   1  635.92   14.05   5
  -1   2  -1  612.20   13.80   5
   1  -2   1  624.01   13.40   2
   1  -2   1  625.27   13.50   2
  -1   2  -1  624.39   13.70   5
  -1   2  -1  647.28   13.50   1
   2  -2   1  145.67    4.71   1
  -2   2  -1  159.36    4.66   1
   2  -2   1  145.44    4.61   2
  -2   2  -1  142.38    4.45   5
  -2   2  -1  146.11    3.88   2
   2  -2   1  145.02    4.66   4
   2  -2   1  139.72    4.44   2
   2  -2   1  142.65    4.79   5
  -2   2  -1  148.81    3.82   2
  -2   2  -1  143.36    4.38   5
  -2   2  -1  147.08    4.62   4
  -2   2  -1  142.91    4.53   1
   2  -2   1  143.15    4.87   5
   3  -2   1   13.25    1.73   2
  -3   2  -1   13.89    1.59   5
   3  -2   1   10.98    1.59   2
   3  -2   1   13.02    1.78   1
   3  -2   1   10.65    1.72   5
  -3   2  -1   14.63    1.74   1
   3  -2   1   12.08    1.56   4
  -3   2  -1   13.86    1.57   5
   3  -2   1   15.21    1.90   5
   4  -2   1   44.15    3.27   5
   4  -2   1   49.43    3.34   2
  -4   2  -1   46.18    3.02   5
   4  -2   1   50.70    3.39   3
   4  -2   1   48.80    3.55   5
   4  -2   1   53.79    3.43   1
   4  -2   1   49.26    3.34   2
  -4   2  -1   48.32    3.33   1
  -5   2  -1   10.98    2.11   5
   5  -2   1    9.22    2.28   2
   5  -2   1    9.81    2.28   1
   5  -2   1    9.99    2.30   5
   5  -2   1   10.95    2.35   5
   5  -2   1   11.74    2.18   3
   5  -2   1   16.16    2.54   2
  -5   2  -1    9.83    2.21   1
  -6   2  -1    1.04    1.71   1
   6  -2   1    3.90    2.09   5
   6  -2   1    1.55    1.78   2
   6  -2   1    0.69    2.00   1
   7  -2   1    6.84    2.76   1
   7  -2   1    2.35    2.21   5
  -7   2  -1    5.41    2.40   1
  -8   2  -1    0.67    2.05   1
   9   1  -1    3.01    2.83   1
  -9  -1   1    0.51    2.65   1
  -8  -1   1   49.24    5.33   1
   8   1  -1   44.17    5.31   1
  -7  -1   1    1.77    2.01   1
   7   1  -1    0.61    2.03   1
   6   1  -1  162.38    7.81   5
  -6  -1   1  148.95    7.30   5
  -6  -1   1  142.06    7.17   1
   6   1  -1  149.68    7.31   1
   6   1  -1  154.94    7.36   2
   5   1  -1    1.25    1.45   2
   5   1  -1    0.14    1.26   2
  -5  -1   1    1.04    1.24   2
   5   1  -1    2.36    1.63   5
  -5  -1   1    0.75    1.55   1
  -5  -1   1    3.73    1.81   5
  -5  -1   1    1.73    1.45   5
   5   1  -1    0.87    1.40   5
   5   1  -1    2.11    1.64   1
   4   1  -1  278.64    9.01   1
  -4  -1   1  291.08    7.47   3
   4   1  -1  293.61    9.02   2
   4   1  -1  288.89    9.46   5
  -4  -1   1  302.08    9.02   2
  -4  -1   1  287.89    9.43   5
  -4  -1   1  303.80    9.32   1
   4   1  -1  293.13    9.08   2
   4   1  -1  296.93    9.65   5
  -4  -1   1  281.53    9.32   5
   3   1  -1   23.74    2.26   5
   3   1  -1   25.00    2.29   1
  -3  -1   1   32.52    2.59   5
   3   1  -1   27.65    2.24   2
  -3  -1   1   26.70    2.30   5
  -3  -1   1   24.99    2.14   2
   3   1  -1   27.10    2.37   5
  -3  -1   1   27.48    1.65   3
   3   1  -1   28.89    2.29   2
  -3  -1   1   30.32    2.49   1
  -2  -1   1  461.06   11.41   5
   2   1  -1  446.77   10.83   2
  -2  -1   1  438.59   10.79   2
   2   1  -1  450.96   11.30   5
   2   1  -1  463.30   11.38   5
   2   1  -1  455.11   10.95   1
  -2  -1   1  461.83   10.99   1
  -2  -1   1  467.02   11.42   5
  -2  -1   1  449.23   10.81   2
   1   1  -1  946.64   19.78   2
  -1  -1   1  925.98   19.80   2
  -1  -1   1  929.08   19.79   2
   1   1  -1  957.45   19.81   1
   1   1  -1  939.57   19.71   1
  -1  -1   1  965.83   19.73   1
  -1  -1   1  937.24   20.47   5
  -1  -1   1  924.79   20.53   5
  -1  -1   1  872.07   19.77   1
   1   1  -1  947.24   20.51   5
   0   1  -1  589.93   13.15   5
   0   1  -1  624.48   13.17   4
   0   1  -1  625.73   12.70   1
   0  -1   1  585.50   12.66   1
   0   1  -1  617.51   13.22   5
   0   1  -1  539.43   12.63   2
   1  -1   1 1230.34   24.76   1
   1  -1   1 1198.46   25.74   5
  -1   1  -1 1131.04   24.67   1
   1  -1   1 1222.06   24.93   2
   1  -1   1 1160.95   25.30   4
  -1   1  -1 1159.80   24.76   1
  -1   1  -1 1209.87   24.81   2
  -1   1  -1 1170.24   25.66   5
   1  -1   1 1184.44   25.65   5
   1  -1   1 1207.46   24.79   1
  -1   1  -1 1179.07   25.51   5
   1  -1   1 1193.50   24.79   2
  -1   1  -1 1209.78   24.71   2
  -1   1  -1 1195.45   25.25   4
  -2   1  -1  186.70    5.37   5
  -2   1  -1  180.92    5.05   2
   2  -1   1  180.71    5.38   1
  -2   1  -1  186.77    5.49   5
   2  -1   1  185.70    5.67   5
  -2   1  -1  184.72    4.97   2
   2  -1   1  181.08    5.55   5
   2  -1   1  179.43    5.21   4
   2  -1   1  178.20    5.28   2
  -2   1  -1  188.01    5.19   4
  -2   1  -1  187.16    5.34   1
   2  -1   1  182.57    5.26   2
  -2   1  -1  192.07    5.40   1
  -3   1  -1   57.08    3.07   1
  -3   1  -1   59.38    3.13   5
  -3   1  -1   58.05    2.83   2
   3  -1   1   58.56    3.18   2
  -3   1  -1   61.93    2.94   2
   3  -1   1   60.28    3.20   2
   3  -1   1   60.48    3.34   5
  -3   1  -1   66.32    3.23   5
   3  -1   1   64.18    3.34   1
   3  -1   1   69.89    3.49   5
  -4   1  -1   19.71    2.34   1
  -4   1  -1   20.05    2.21   5
  -4   1  -1   20.48    2.23   5
   4  -1   1   22.87    2.12   3
   4  -1   1   23.51    2.54   5
   4  -1   1   22.28    2.37   2
   4  -1   1   19.58    2.20   2
   4  -1   1   23.54    2.44   1
   4  -1   1   16.67    2.30   5
   5  -1   1   -1.28    1.32   2
   5  -1   1    1.82    1.58   5
   5  -1   1   -0.49    1.28   5
  -5   1  -1   -1.11    1.20   1
   5  -1   1    1.30    1.21   3
   5  -1   1    1.45    1.62   1
   5  -1   1   -0.29    1.18   2
  -5   1  -1   -0.91    1.04   5
   6  -1   1   -0.35    1.48   2
  -6   1  -1    0.43    1.57   1
   6  -1   1   -1.01    1.59   1
   6  -1   1   -1.44    1.51   5
   6  -1   1    0.96    1.50   3
   7  -1   1   -1.69    1.87   1
  -7   1  -1    2.62    2.08   1
   7  -1   1    3.47    2.20   5
   8  -1   1    3.33    2.81   1
  -8   1  -1    1.81    2.20   1
  -8   0   1    4.78    2.62   1
   8   0  -1    7.30    2.94   1
  -7   0   1    5.26    2.32   1
   7   0  -1    3.67    2.50   5
   7   0  -1    3.18    2.48   1
   6   0  -1   45.23    4.19   2
   6   0  -1   54.80    4.68   1
   6   0  -1   54.23    4.75   5
  -6   0   1   56.36    4.42   1
  -5   0   1   63.59    4.24   1
   5   0  -1   72.92    4.78   5
   5   0  -1   73.51    4.63   1
  -5   0   1   78.94    4.23   2
   5   0  -1   78.90    4.61   2
   5   0  -1   77.28    4.63   2
   5   0  -1   65.20    4.66   5
   4   0  -1  467.40   13.43   5
  -4   0   1  476.70   12.44   2
  -4   0   1  471.70   13.13   5
   4   0  -1  470.52   12.85   2
  -4   0   1  452.42   12.75   1
   4   0  -1  476.08   13.57   5
   4   0  -1  464.75   12.94   1
   4   0  -1  470.87   12.87   2
  -3   0   1  248.18    7.25   2
  -3   0   1  246.33    7.15   2
   3   0  -1  246.90    7.76   5
  -3   0   1  245.01    6.73   3
   3   0  -1  237.20    7.33   2
  -3   0   1  244.53    7.41   1
   3   0  -1  245.25    7.79   5
   3   0  -1  241.63    7.46   1
  -3   0   1  253.13    7.60   5
   3   0  -1  250.86    7.47   2
  -2   0   1 1950.32   40.94   3
  -2   0   1 1977.31   42.04   5
   2   0  -1 1932.46   40.78   2
  -2   0   1 1969.37   40.69   1
   2   0  -1 1982.46   40.82   2
   2   0  -1 1940.25   40.68   1
   2   0  -1 1923.50   42.13   5
  -2   0   1 1938.90   40.62   2
   2   0  -1 1977.45   42.18   5
  -2   0   1 1976.45   40.68   2
   1   0  -1  309.23    7.48   5
  -1   0   1  297.21    7.12   2
   1   0  -1  274.67    7.09   2
   1   0  -1  315.96    7.21   1
   1   0  -1  309.05    7.48   5
  -1   0   1  330.76    7.29   1
  -1   0   1  314.56    7.48   5
   1   0  -1  314.90    7.20   2
   0   0  -1   -0.27    0.13   1
   0   0   1   -0.19    0.13   1
   1   0   1   29.87    1.41   2
   1   0   1   35.04    1.50   1
  -1   0  -1   29.56    1.38   4
  -1   0  -1   33.19    1.43   1
   2   0   1    6.02    1.05   2
   2   0   1    5.55    1.02   5
  -2   0  -1    4.88    0.98   5
  -2   0  -1    5.87    0.91   2
   2   0   1    2.10    0.95   2
  -2   0  -1    7.52    1.12   1
   2   0   1    6.48    1.11   5
  -2   0  -1    5.05    1.04   1
   2   0   1    6.13    1.08   1
  -2   0  -1    6.46    0.95   4
   3   0   1   27.87    2.18   1
  -3   0  -1   28.01    2.14   2
   3   0   1   25.15    1.71   3
  -3   0  -1   24.72    1.93   4
  -3   0  -1   25.72    2.03   2
  -3   0  -1   22.90    2.03   1
  -3   0  -1   29.80    2.34   5
   3   0   1   23.60    1.98   2
   3   0   1   21.16    2.07   5
   3   0   1   30.67    2.31   2
   3   0   1   25.90    2.20   5
  -4   0  -1    6.15    1.48   2
   4   0   1    3.59    1.47   5
   4   0   1    4.57    1.54   5
  -4   0  -1    3.67    1.39   1
   4   0   1    2.68    1.45   1
  -4   0  -1    7.71    1.69   5
  -4   0  -1    3.48    1.29   2
   4   0   1    6.51    1.64   2
   4   0   1    3.62    1.10   3
   4   0   1    1.14    1.16   2
  -5   0  -1   16.18    2.23   2
   5   0   1   20.55    2.53   2
   5   0   1   14.56    2.48   5
   5   0   1   16.71    2.69   5
  -5   0  -1   14.83    2.52   1
   5   0   1   18.41    1.89   3
   5   0   1   20.14    2.74   1
   5   0   1   14.50    2.34   2
   6   0   1    1.25    1.73   5
   6   0   1   -1.11    1.57   1
   6   0   1    0.16    1.64   2
   6   0   1   -2.47    1.03   3
  -6   0  -1    3.46    1.86   1
   7   0   1    5.78    2.55   1
   7   0   1    2.59    2.13   5
  -7   0  -1    2.35    2.08   1
   8   0   1   -0.70    2.04   1
  -8   0  -1    0.08    1.96   1
  -9   0  -1   -1.75    2.07   1
   9   0   1   -3.73    2.07   1
  -8   1   1    0.05    2.04   1
   8  -1  -1    0.03    2.51   1
   7  -1  -1   -0.34    2.02   1
  -7   1   1   -0.71    1.56   1
   7  -1  -1    1.65    2.05   5
  -6   1   1    0.18    1.56   1
   6  -1  -1   -1.51    1.60   5
   6  -1  -1   -0.13    1.68   2
   6  -1  -1    1.00    1.81   1
   5  -1  -1    4.51    1.71   2
   5  -1  -1    3.66    1.82   2
  -5   1   1    4.55    1.66   5
   5  -1  -1    3.95    1.92   5
   5  -1  -1    3.93    1.81   5
  -5   1   1    3.55    1.68   1
   5  -1  -1    2.98    1.71   1
  -4   1   1   58.26    2.32   4
   4  -1  -1   54.83    3.25   3
   4  -1  -1   59.08    3.86   5
   4  -1  -1   61.50    3.76   1
   4  -1  -1   57.71    3.63   2
   4  -1  -1   52.69    3.65   5
  -4   1   1   47.58    3.22   1
   4  -1  -1   53.32    3.50   2
  -4   1   1   58.00    3.49   5
  -3   1   1    3.63    1.20   5
   3  -1  -1    1.88    1.07   2
  -3   1   1    4.69    1.17   2
   3  -1  -1    1.90    1.25   1
  -3   1   1    2.67    1.07   5
   3  -1  -1    1.16    1.12   2
   3  -1  -1    4.87    1.38   5
   3  -1  -1    1.71    1.18   3
  -3   1   1    1.47    0.61   4
  -3   1   1    2.85    1.02   2
  -3   1   1    2.07    1.19   1
  -3   1   1    2.35    1.13   3
   3  -1  -1    1.49    1.03   5
  -2   1   1  273.27    7.20   1
   2  -1  -1  273.01    7.23   2
  -2   1   1  270.59    7.38   5
   2  -1  -1  280.11    7.46   3
  -2   1   1  278.89    7.41   5
   2  -1  -1  279.62    7.36   1
  -2   1   1  278.51    6.33   4
  -2   1   1  280.14    6.95   2
  -2   1   1  280.17    6.86   2
   2  -1  -1  278.42    7.18   2
   2  -1  -1  277.90    7.65   5
   2  -1  -1  283.75    7.66   5
  -2   1   1  284.28    7.32   1
  -2   1   1  281.36    7.53   3
  -1   1   1   29.11    1.21   2
   1  -1  -1   31.32    1.32   2
   1  -1  -1   29.61    1.49   5
  -1   1   1   29.56    1.16   2
  -1   1   1   29.76    1.41   1
   1  -1  -1   31.88    1.52   1
   1  -1  -1   27.74    1.42   5
   1  -1  -1   29.97    1.70   3
  -1   1   1   30.01    1.48   1
  -1   1   1   28.23    1.35   5
   1  -1  -1   27.70    1.35   2
   1  -1  -1   29.53    1.50   1
  -1   1   1   30.15    1.41   5
  -1   1   1   29.19    1.76   3
   0   1   1   -1.09    0.14   1
   0   1   1   -1.21    0.23   3
   0  -1  -1   -1.40    0.14   1
   0  -1  -1   -1.38    0.13   1
   1   1   1   46.48    1.67   1
   1   1   1   34.59    1.55   5
   1   1   1   41.88    1.51   2
  -2  -1  -1  690.52   16.25   5
   2   1   1  707.98   15.65   1
  -2  -1  -1  693.27   15.55   2
   2   1   1  700.65   16.25   5
  -2  -1  -1  697.09   15.66   1
   2   1   1  726.96   15.70   1
   2   1   1  674.87   16.13   5
  -2  -1  -1  701.04   15.67   2
  -2  -1  -1  727.42   16.25   5
   3   1   1    2.38    0.98   2
  -3  -1  -1    2.93    1.17   5
   3   1   1    4.24    1.28   1
   3   1   1    3.01    0.61   3
   3   1   1    1.24    0.93   5
  -3  -1  -1    1.35    1.03   5
  -3  -1  -1    1.08    0.98   2
  -3  -1  -1    1.93    1.09   1
   3   1   1    2.39    1.18   5
  -4  -1  -1  248.45    8.20   5
   4   1   1  256.87    7.91   2
   4   1   1  241.36    8.00   1
  -4  -1  -1  242.66    7.95   1
   4   1   1  246.16    6.07   3
   4   1   1  217.74    7.93   5
   4   1   1  238.45    7.74   2
  -4  -1  -1  247.48    7.75   2
  -4  -1  -1  250.91    8.28   5
   4   1   1  239.44    8.29   5
   5   1   1   25.67    2.93   5
  -5  -1  -1   22.86    2.51   2
   5   1   1   21.23    2.50   2
  -5  -1  -1   30.67    3.11   5
  -5  -1  -1   26.59    2.74   2
   5   1   1   19.41    2.75   5
   5   1   1   23.24    2.67   2
   5   1   1   20.33    2.71   1
  -5  -1  -1   28.60    3.00   5
  -5  -1  -1   21.82    2.77   1
  -6  -1  -1   36.96    3.79   5
   6   1   1   31.71    3.41   2
  -6  -1  -1   32.04    3.62   1
   6   1   1   33.10    3.90   5
   6   1   1   31.10    3.74   5
   6   1   1   35.07    3.79   1
   7   1   1    3.80    2.36   1
   7   1   1    1.11    2.02   5
  -7  -1  -1    6.75    2.42   1
  -8  -1  -1    2.25    2.17   1
   8   1   1   -0.09    2.24   1
  -9  -1  -1   -1.72    2.06   1
   9   1   1   -0.68    2.63   1
  -8   2   1   -0.53    2.00   1
   7  -2  -1    0.34    2.08   1
  -7   2   1    0.76    1.93   1
   7  -2  -1   -2.18    1.86   5
   6  -2  -1    1.97    1.89   2
  -6   2   1    1.58    1.73   1
   6  -2  -1   -0.80    1.69   5
   6  -2  -1    2.90    2.10   1
   5  -2  -1    0.40    1.57   1
   5  -2  -1    2.83    1.74   3
  -5   2   1    3.03    1.50   5
   5  -2  -1    3.04    1.80   2
   5  -2  -1    3.56    1.81   5
  -5   2   1    5.06    1.72   1
   5  -2  -1    1.06    1.44   2
   5  -2  -1    4.58    1.89   5
   4  -2  -1    0.13    1.25   2
   4  -2  -1    0.69    1.34   1
   4  -2  -1    0.21    1.31   3
   4  -2  -1    0.30    1.11   2
  -4   2   1   -1.18    1.01   1
   4  -2  -1    1.34    1.33   5
  -4   2   1    1.92    0.63   4
  -4   2   1   -0.72    0.91   5
   4  -2  -1    0.50    1.22   5
   3  -2  -1    7.47    1.49   5
  -3   2   1    8.48    1.40   1
   3  -2  -1   12.58    1.78   5
   3  -2  -1    8.68    1.52   2
  -3   2   1    7.42    1.29   5
  -3   2   1   10.02    0.85   4
  -3   2   1    8.81    1.33   5
   3  -2  -1   10.88    1.71   1
   3  -2  -1   13.44    1.90   3
   3  -2  -1    9.89    1.53   2
  -2   2   1   11.17    1.13   5
   2  -2  -1   10.01    1.32   5
   2  -2  -1   11.69    1.42   1
  -2   2   1   11.42    1.27   1
  -2   2   1   10.38    1.28   1
   2  -2  -1   10.46    1.31   5
  -2   2   1   12.77    1.18   5
  -2   2   1   11.41    1.65   3
   2  -2  -1   12.21    0.92   4
   2  -2  -1   14.25    1.31   2
  -2   2   1   11.77    0.86   2
   2  -2  -1   13.87    1.36   2
  -2   2   1   13.52    0.87   2
   2  -2  -1   12.56    1.72   3
   1  -2  -1  176.93    4.17   2
  -1   2   1  173.51    4.29   1
   1  -2  -1  174.62    4.54   5
   1  -2  -1  176.48    4.50   1
   1  -2  -1  170.40    4.10   2
   1  -2  -1  178.59    5.41   3
   1  -2  -1  175.83    4.56   5
   1  -2  -1  176.24    4.39   4
   0  -2  -1   55.83    2.46   3
   0   2   1   54.13    2.42   3
  -1  -2  -1  207.63    4.87   2
   1   2   1  211.52    5.02   5
   1   2   1  215.81    5.43   3
   1   2   1  216.10    5.01   1
  -1  -2  -1  207.19    5.18   5
  -1  -2  -1  210.34    5.19   5
  -1  -2  -1  208.24    5.38   3
  -1  -2  -1  212.88    5.05   1
   1   2   1  208.17    5.02   5
  -1  -2  -1  217.65    5.03   1
  -2  -2  -1  487.94   11.61   1
   2   2   1  512.53   11.66   1
  -2  -2  -1  505.96   11.65   2
  -2  -2  -1  507.97   12.09   5
  -2  -2  -1  498.96   11.58   2
   2   2   1  508.06   12.04   5
  -2  -2  -1  501.59   12.16   5
   2   2   1  500.09   11.97   5
   2   2   1  502.61   11.38   2
   2   2   1  515.13   11.68   1
   3   2   1   24.43    1.90   2
   3   2   1   19.81    1.98   1
  -3  -2  -1   21.72    2.00   1
  -3  -2  -1   21.85    2.05   5
  -3  -2  -1   20.13    1.84   2
   3   2   1   15.53    1.76   5
  -3  -2  -1   17.03    1.88   5
  -3  -2  -1   16.80    1.80   2
  -4  -2  -1   69.52    3.84   1
  -4  -2  -1   74.52    4.09   5
   4   2   1   77.99    4.19   5
  -4  -2  -1   72.84    3.79   2
  -4  -2  -1   69.08    4.01   5
   4   2   1   75.71    3.96   1
   4   2   1   73.23    3.78   2
  -4  -2  -1   76.15    3.87   2
   4   2   1   74.16    4.08   5
   5   2   1   10.87    2.29   5
   5   2   1    7.24    1.76   2
  -5  -2  -1    5.20    1.73   5
  -5  -2  -1   12.13    2.13   2
  -5  -2  -1    8.96    2.08   1
   5   2   1    9.33    2.09   1
  -5  -2  -1    9.13    1.85   2
   5   2   1   13.58    2.36   5
  -5  -2  -1    8.00    2.06   5
   6   2   1    2.68    1.99   1
   6   2   1    0.59    1.72   5
  -6  -2  -1    0.99    1.63   1
  -6  -2  -1   -1.26    1.03   5
   7   2   1    3.13    2.24   1
  -7  -2  -1   -0.46    1.70   1
  -8  -2  -1    6.28    2.68   1
   8   2   1    0.29    1.99   1
   9   2   1   -1.00    2.50   1
  -9  -2  -1    2.29    2.26   1
   7  -3  -1   -0.84    1.86   5
  -7   3   1    2.90    2.06   1
   6  -3  -1    2.20    1.86   5
   6  -3  -1    1.91    1.95   1
   6  -3  -1    0.52    1.76   2
  -6   3   1    3.71    1.92   1
   5  -3  -1    9.79    2.28   2
   5  -3  -1    9.20    2.34   1
   5  -3  -1    9.42    2.30   2
  -5   3   1    4.63    1.68   1
   5  -3  -1    9.44    2.34   5
  -4   3   1    1.80    1.26   1
   4  -3  -1    4.04    1.65   5
   4  -3  -1    5.07    1.60   2
   4  -3  -1    1.82    1.40   5
   4  -3  -1    3.06    1.62   1
   4  -3  -1    4.21    1.50   2
  -4   3   1    1.74    1.06   5
   4  -3  -1    3.77    1.71   3
   3  -3  -1    7.28    0.98   4
   3  -3  -1    5.42    1.36   5
   3  -3  -1    5.39    1.30   2
   3  -3  -1    3.02    1.54   3
  -3   3   1    6.17    1.00   5
   3  -3  -1    5.08    1.35   2
   3  -3  -1    4.02    1.36   1
   3  -3  -1    4.21    1.30   5
  -3   3   1    5.71    1.23   1
   2  -3  -1   32.02    1.86   2
   2  -3  -1   33.54    2.13   5
  -2   3   1   33.41    1.84   1
   2  -3  -1   32.11    2.06   5
  -2   3   1   31.19    1.19   5
   2  -3  -1   34.22    1.97   2
   2  -3  -1   34.23    2.82   3
   2  -3  -1   35.85    1.81   4
   2  -3  -1   32.25    2.11   1
   1  -3  -1   35.87    1.61   1
   1  -3  -1   36.03    1.48   5
   1  -3  -1   39.12    2.66   3
   1  -3  -1   35.57    1.87   4
   1  -3  -1   36.86    1.50   5
  -1   3   1   33.95    1.12   1
   0  -3  -1    0.77    0.83   3
   1   3   1  119.25    2.83   1
  -1  -3  -1  114.52    3.00   5
   1   3   1  115.08    2.83   1
  -1  -3  -1  120.95    3.10   1
  -1  -3  -1  114.35    3.01   5
  -1  -3  -1  120.00    3.98   3
   2   3   1  111.34    3.51   1
   2   3   1  103.48    3.36   5
  -2  -3  -1  101.74    3.64   5
  -2  -3  -1  102.91    3.62   5
  -2  -3  -1  103.32    3.51   1
   2   3   1  103.80    3.35   5
   2   3   1   99.81    3.38   1
   2   3   1  104.69    2.86   2
  -2  -3  -1  102.72    3.30   3
  -2  -3  -1  106.36    3.40   2
  -3  -3  -1    6.60    1.42   5
  -3  -3  -1    5.97    1.43   5
  -3  -3  -1   10.08    1.49   1
   3   3   1    4.74    1.12   2
   3   3   1    8.61    1.39   5
   3   3   1    6.47    1.36   1
  -3  -3  -1    4.68    1.27   2
   3   3   1    7.82    1.41   5
  -3  -3  -1    7.14    1.32   2
   4   3   1    9.98    1.61   2
  -4  -3  -1   12.94    2.09   5
   4   3   1   10.69    1.89   1
  -4  -3  -1    8.89    1.79   5
  -4  -3  -1   10.15    1.77   2
  -4  -3  -1   14.22    1.98   2
   4   3   1   16.61    2.08   5
  -4  -3  -1   13.45    1.98   1
  -5  -3  -1    7.36    1.94   1
   5   3   1   11.00    2.24   5
   5   3   1   10.51    1.91   2
   5   3   1    8.46    2.01   5
  -5  -3  -1    7.41    1.96   2
  -5  -3  -1    8.95    2.05   5
   5   3   1    9.68    2.23   1
  -5  -3  -1    6.19    2.02   5
  -5  -3  -1   10.42    2.03   2
   6   3   1    7.14    2.19   1
   6   3   1    5.12    2.05   5
  -6  -3  -1    4.02    1.84   5
  -6  -3  -1    7.55    2.09   2
  -6  -3  -1    4.07    1.97   1
  -6  -3  -1    2.71    1.89   5
   7   3   1    1.71    1.94   1
  -7  -3  -1    4.77    2.18   1
   8   3   1    1.70    2.31   1
  -8  -3  -1    2.46    2.42   1
   9   3   1   -0.84    2.15   1
  -9  -3  -1   -2.46    2.01   1
  -7   4   1    1.25    1.93   1
   7  -4  -1    2.61    2.45   5
   6  -4  -1    0.56    1.88   5
  -6   4   1   -0.38    1.47   1
   6  -4  -1   -1.14    1.85   2
  -5   4   1    9.26    1.94   1
   5  -4  -1   10.14    2.36   2
   5  -4  -1   10.40    2.45   5
   4  -4  -1   15.82    2.29   2
   4  -4  -1   15.29    2.28   2
   4  -4  -1   17.08    2.40   5
   4  -4  -1   12.38    2.25   5
   4  -4  -1   22.04    2.65   1
  -4   4   1   15.69    1.98   1
   3  -4  -1    3.54    1.30   5
   3  -4  -1    6.35    1.17   4
   3  -4  -1    3.42    1.36   2
   3  -4  -1    4.33    1.78   3
   3  -4  -1    4.88    1.31   2
   3  -4  -1    3.33    1.29   5
  -3   4   1    3.77    1.07   1
   3  -4  -1    5.69    1.52   1
   2  -4  -1   39.32    1.98   2
  -2   4   1   39.61    1.68   1
   2  -4  -1   36.42    2.20   5
   2  -4  -1   34.63    2.13   4
   2  -4  -1   39.00    1.99   2
   2  -4  -1   40.41    2.24   1
   2  -4  -1   39.27    2.25   5
  -2   4   1   38.11    1.68   1
   2  -4  -1   35.68    3.15   3
   1  -4  -1   70.82    3.94   3
   1  -4  -1   69.06    2.38   1
   1  -4  -1   66.63    2.99   4
   1  -4  -1   64.68    2.17   5
   1  -4  -1   68.11    2.19   5
   0  -4  -1    5.39    1.42   3
  -1  -4  -1  215.30    5.03   1
  -1  -4  -1  211.54    6.55   3
  -2  -4  -1  132.19    3.86   2
   2   4   1  130.83    3.90   1
  -2  -4  -1  130.71    4.12   1
   2   4   1  134.36    3.43   5
  -2  -4  -1  136.00    4.33   5
  -2  -4  -1  137.68    4.29   5
  -2  -4  -1  129.55    4.48   3
  -3  -4  -1   37.82    2.67   5
   3   4   1   34.32    2.29   1
  -3  -4  -1   38.63    2.47   2
   3   4   1   40.02    2.30   5
  -3  -4  -1   41.95    2.71   5
   3   4   1   38.90    2.31   5
  -3  -4  -1   39.09    2.58   1
   3   4   1   35.27    1.90   2
  -3  -4  -1   44.07    2.57   2
  -3  -4  -1   38.70    2.03   3
  -4  -4  -1   46.06    3.24   1
   4   4   1   46.43    3.07   5
  -4  -4  -1   47.81    3.34   5
  -4  -4  -1   49.91    3.55   5
  -4  -4  -1   43.04    3.05   2
  -4  -4  -1   50.04    3.26   2
   4   4   1   46.63    3.13   1
   4   4   1   47.98    3.10   5
  -5  -4  -1   -0.23    1.25   1
  -5  -4  -1    1.22    1.47   5
   5   4   1    0.56    1.21   2
   5   4   1    0.16    1.34   1
  -5  -4  -1   -1.11    1.03   2
  -5  -4  -1    0.96    1.33   2
  -5  -4  -1    0.92    1.23   5
  -6  -4  -1   -0.08    1.58   5
  -6  -4  -1   -0.40    1.61   5
  -6  -4  -1   -1.32    1.27   1
   6   4   1    0.53    1.72   1
  -6  -4  -1   -0.05    1.38   2
  -7  -4  -1   -0.77    1.50   1
  -7  -4  -1   -0.22    1.71   5
   7   4   1    1.79    1.99   1
   8   4   1    0.25    1.85   1
  -8  -4  -1    4.23    2.40   1
  -9  -4  -1   -2.04    2.19   1
   9   4   1   -0.63    2.37   1
  -7   5   1   -1.14    1.71   1
   6  -5  -1    0.49    1.81   5
  -6   5   1    1.20    1.59   1
   6  -5  -1   -1.83    1.82   2
  -5   5   1    1.13    1.35   1
   5  -5  -1    0.38    1.55   5
   5  -5  -1    2.61    1.95   2
   4  -5  -1    9.97    2.01   2
   4  -5  -1    8.35    2.02   2
   4  -5  -1    6.64    1.88   5
  -4   5   1    8.95    1.51   1
   3  -5  -1    1.02    1.15   5
   3  -5  -1    1.99    1.13   4
   3  -5  -1    0.38    1.03   5
   3  -5  -1   -0.46    1.19   1
   3  -5  -1    0.77    1.19   2
   3  -5  -1    0.26    1.09   2
  -3   5   1    2.01    0.80   1
  -3   5   1   -0.19    0.73   1
   2  -5  -1   36.47    2.24   5
   2  -5  -1   36.10    1.92   2
   2  -5  -1   37.60    2.29   5
   2  -5  -1   36.54    1.91   2
   2  -5  -1   36.81    2.20   1
   2  -5  -1   36.67    2.52   4
   1  -5  -1   60.44    4.09   3
   1  -5  -1   62.37    2.29   1
   1  -5  -1   60.27    3.21   4
   1  -5  -1   61.56    2.09   5
   1  -5  -1   60.16    2.11   5
   0  -5  -1    7.80    1.76   3
  -1  -5  -1   57.49    1.93   1
  -1  -5  -1   50.10    3.24   3
   2   5   1   52.74    1.93   1
   2   5   1   50.46    1.90   1
  -2  -5  -1   48.85    2.36   5
  -2  -5  -1   50.93    3.04   3
  -2  -5  -1   57.68    2.52   1
  -2  -5  -1   49.30    2.05   2
  -2  -5  -1   54.47    2.45   5
  -3  -5  -1    9.47    1.44   3
  -3  -5  -1    8.78    1.41   2
   3   5   1    8.20    1.04   5
   3   5   1    9.05    1.38   1
  -3  -5  -1    8.82    1.48   1
  -3  -5  -1    8.43    1.46   5
  -3  -5  -1    9.26    1.41   2
  -3  -5  -1    7.23    1.47   5
   3   5   1   11.95    1.19   5
  -4  -5  -1   99.83    4.88   5
  -4  -5  -1  102.08    4.93   5
  -4  -5  -1   95.80    4.60   1
   4   5   1  107.70    4.35   5
  -4  -5  -1  104.12    4.71   2
  -4  -5  -1   97.42    4.58   2
  -4  -5  -1   99.51    3.52   3
   4   5   1   93.21    4.35   1
  -5  -5  -1   28.83    2.98   1
  -5  -5  -1   24.14    2.81   2
   5   5   1   26.78    2.87   1
  -5  -5  -1   28.28    3.06   5
   5   5   1   29.31    2.80   5
  -5  -5  -1   28.56    3.19   5
  -5  -5  -1   24.67    2.84   2
  -6  -5  -1   25.17    3.37   5
  -6  -5  -1   28.30    3.45   1
   6   5   1   20.61    3.05   1
  -6  -5  -1   20.57    3.08   2
   7   5   1    8.43    2.61   1
  -7  -5  -1    6.68    2.65   5
  -7  -5  -1    6.66    2.40   1
   8   5   1    2.14    2.31   1
  -8  -5  -1    3.48    2.34   1
  -9  -5  -1   -0.04    2.18   1
   9   5   1    0.44    2.13   1
   6  -6  -1    0.67    2.17   2
   5  -6  -1    0.31    1.70   5
  -5   6   1    0.97    1.13   1
   5  -6  -1    4.53    2.09   2
   4  -6  -1   -1.12    1.29   2
  -4   6   1    0.21    0.74   1
   4  -6  -1    0.21    1.40   2
   4  -6  -1   -0.53    1.27   5
   3  -6  -1   11.22    1.84   4
   3  -6  -1    7.60    1.65   2
   3  -6  -1   11.76    1.75   2
   3  -6  -1    8.14    1.70   5
   3  -6  -1    6.68    1.63   5
   2  -6  -1    5.83    1.24   5
   2  -6  -1    4.37    1.16   5
   2  -6  -1    2.54    1.41   4
   2  -6  -1    4.48    0.98   2
   2  -6  -1    4.60    0.94   2
   1  -6  -1   34.38    2.72   4
   1  -6  -1   36.01    1.69   5
   1  -6  -1   36.57    1.66   5
   0  -6  -1    1.06    1.08   4
   0  -6  -1    0.02    1.31   3
  -1  -6  -1   18.53    2.42   3
  -2  -6  -1   14.71    1.40   5
  -2  -6  -1   18.24    1.48   1
  -2  -6  -1   18.43    2.21   3
  -2  -6  -1   18.33    1.50   5
  -2  -6  -1   17.33    1.21   2
   3   6   1    9.02    1.22   1
  -3  -6  -1    8.18    1.48   5
  -3  -6  -1    9.33    1.43   2
  -3  -6  -1    7.49    1.40   1
  -3  -6  -1   10.44    1.70   3
  -3  -6  -1   10.19    1.61   5
  -3  -6  -1    9.87    1.48   2
   4   6   1   10.17    1.70   1
  -4  -6  -1    9.17    1.46   3
   4   6   1   11.19    1.45   5
  -4  -6  -1    9.86    1.84   1
  -4  -6  -1    9.66    1.91   5
  -4  -6  -1   11.44    1.88   2
  -4  -6  -1    8.11    1.78   5
  -4  -6  -1   13.40    2.01   2
   5   6   1   34.59    2.82   5
  -5  -6  -1   30.23    3.12   1
  -5  -6  -1   35.62    3.32   2
  -5  -6  -1   38.15    2.13   3
  -5  -6  -1   36.99    3.23   2
  -5  -6  -1   32.15    3.43   5
   5   6   1   35.19    3.06   1
  -5  -6  -1   34.87    3.43   5
  -6  -6  -1   -2.60    1.32   2
   6   6   1    2.68    1.70   1
  -6  -6  -1    3.89    1.95   1
  -6  -6  -1    3.24    1.75   5
   7   6   1    6.79    2.37   1
  -7  -6  -1    6.94    2.60   5
  -7  -6  -1    9.58    2.67   1
   8   6   1    2.36    2.29   1
  -8  -6  -1    4.80    2.68   1
  -9  -6  -1   -0.73    2.07   1
   9   6   1    0.48    2.40   1
   5  -7  -1    6.20    2.50   2
   4  -7  -1    8.79    2.13   2
   4  -7  -1    9.79    2.25   5
   4  -7  -1    8.79    2.21   2
   3  -7  -1   11.05    1.83   2
   3  -7  -1    5.27    1.68   5
   3  -7  -1    8.04    1.83   5
   3  -7  -1    9.62    1.84   2
   2  -7  -1   35.00    3.10   4
   2  -7  -1   34.26    2.16   2
   2  -7  -1   36.10    2.47   5
   2  -7  -1   31.74    2.37   5
   2  -7  -1   34.40    2.08   2
   1  -7  -1    0.09    0.64   5
   1  -7  -1    0.34    1.28   4
   1  -7  -1   -0.02    0.64   5
   0  -7  -1   23.91    2.66   4
  -1  -7  -1    6.51    0.72   5
  -1  -7  -1    6.39    0.72   5
  -2  -7  -1    0.09    0.72   5
  -2  -7  -1   -0.42    1.23   3
  -2  -7  -1    0.57    0.71   5
  -2  -7  -1   -0.13    0.55   2
  -2  -7  -1   -0.22    0.70   1
  -3  -7  -1   -1.19    0.89   2
  -3  -7  -1    1.50    1.05   1
   3   7   1   -0.47    0.60   1
  -3  -7  -1   -0.41    0.88   5
  -3  -7  -1    0.32    1.02   5
   3   7   1    0.12    0.64   1
  -3  -7  -1    0.86    0.97   2
  -3  -7  -1   -0.98    1.13   3
  -4  -7  -1   -1.02    1.18   5
  -4  -7  -1   -0.79    1.09   2
   4   7   1   -0.11    1.01   1
  -4  -7  -1   -1.09    1.01   3
  -4  -7  -1   -0.32    1.13   1
  -4  -7  -1   -0.29    1.10   5
  -4  -7  -1   -0.18    1.16   2
  -5  -7  -1    5.59    1.91   1
  -5  -7  -1    5.09    1.89   2
  -5  -7  -1    7.23    2.04   2
  -5  -7  -1    7.41    2.07   5
   5   7   1    5.85    1.70   1
   6   7   1    0.47    1.56   1
  -6  -7  -1    0.32    1.63   1
  -6  -7  -1    0.22    1.52   5
  -6  -7  -1    1.28    1.74   2
  -7  -7  -1    4.71    2.39   5
   7   7   1    2.55    2.05   1
  -7  -7  -1    1.87    1.98   1
  -8  -7  -1   -0.03    2.15   1
   8   7   1    0.94    2.05   1
  -9  -7  -1   -0.73    2.42   1
   9   7   1    0.40    2.32   1
   5  -8  -1   -1.70    2.06   2
   4  -8  -1    1.46    1.81   2
   3  -8  -1   -2.15    1.17   2
   3  -8  -1   -1.18    1.20   5
   3  -8  -1    0.67    1.26   2
   2  -8  -1    0.55    0.95   2
   2  -8  -1    1.18    1.04   2
   2  -8  -1    2.32    1.68   4
   2  -8  -1    0.46    1.10   5
   2  -8  -1    1.91    1.12   5
   1  -8  -1    9.70    2.19   4
   1  -8  -1    6.62    1.10   5
   1  -8  -1   11.01    1.22   5
   0  -8  -1    4.23    1.83   4
  -1  -8  -1   21.76    1.39   5
  -1  -8  -1   21.41    2.93   4
  -1  -8  -1   21.08    1.34   5
  -2  -8  -1   59.27    2.78   5
  -2  -8  -1   57.18    2.77   5
  -2  -8  -1   57.53    2.35   2
  -2  -8  -1   60.55    2.30   2
  -3  -8  -1    1.16    1.11   5
  -3  -8  -1    2.14    1.17   5
  -3  -8  -1    2.72    1.21   2
  -3  -8  -1    3.36    1.21   2
  -4  -8  -1   52.92    3.77   5
   4   8   1   57.81    2.78   1
  -4  -8  -1   46.76    3.51   5
  -4  -8  -1   51.98    3.52   2
  -4  -8  -1   54.59    3.69   3
  -4  -8  -1   58.80    3.59   2
   5   8   1    1.53    1.31   1
  -5  -8  -1    1.82    1.48   2
  -5  -8  -1   -0.78    1.42   2
  -5  -8  -1    0.63    1.44   5
  -6  -8  -1   14.23    2.88   5
   6   8   1   10.87    2.24   1
  -6  -8  -1    7.31    2.27   2
  -7  -8  -1   -0.83    1.68   5
   7   8   1    0.46    1.75   1
   8   8   1   -0.04    1.87   1
   3  -9  -1    0.81    1.46   2
   3  -9  -1    1.19    1.51   2
   2  -9  -1    1.02    1.14   5
   2  -9  -1    1.43    1.07   2
   2  -9  -1    0.23    1.05   2
   2  -9  -1    0.77    1.20   5
   1  -9  -1    4.01    1.07   5
   1  -9  -1    7.45    1.24   5
   1  -9  -1    4.61    0.83   2
   1  -9  -1    5.18    2.02   4
   0  -9  -1    0.88    1.50   4
   0  -9  -1   -0.54    0.57   5
   0  -9  -1    0.35    0.68   5
  -1  -9  -1   11.27    2.53   4
  -1  -9  -1    8.72    1.07   5
  -2  -9  -1   10.16    2.63   4
  -2  -9  -1    8.18    1.15   2
  -2  -9  -1    9.24    1.14   2
  -2  -9  -1    6.68    1.28   5
  -2  -9  -1    9.36    1.35   5
  -3  -9  -1    1.82    1.24   5
  -3  -9  -1   -0.95    0.92   5
  -3  -9  -1    0.05    1.05   2
  -3  -9  -1    1.67    1.13   2
  -4  -9  -1    3.98    1.64   5
  -4  -9  -1    7.14    1.72   2
  -4  -9  -1    3.06    1.54   2
  -5  -9  -1    3.73    1.65   2
  -5  -9  -1   -0.11    1.56   5
   5   9   1    2.07    1.31   1
   6   9   1   -1.23    1.32   1
  -6  -9  -1   -0.99    1.66   2
  -6  -9  -1   -0.06    1.66   5
   7   9   1    0.70    1.76   1
  -7  -9  -1   -1.97    1.84   5
   8   9   1    3.45    2.29   1
   2 -10  -1    0.37    1.15   2
   2 -10  -1    0.33    1.15   2
   1 -10  -1    2.79    0.91   2
   1 -10  -1    2.64    1.15   5
   1 -10  -1    0.89    1.81   4
   1 -10  -1    2.09    0.93   2
   0 -10  -1    0.12    0.71   5
   0 -10  -1    0.18    0.72   5
   0 -10  -1    3.93    2.04   4
  -1 -10  -1    4.89    1.09   5
  -1 -10  -1    5.64    1.04   5
  -1 -10  -1    4.16    2.12   4
  -2 -10  -1    1.39    0.93   2
  -2 -10  -1    5.38    1.09   2
  -2 -10  -1    4.85    1.21   5
  -2 -10  -1    1.63    1.90   4
  -3 -10  -1    1.10    1.18   5
  -3 -10  -1    0.19    1.04   2
  -3 -10  -1    2.84    1.30   2
  -4 -10  -1    1.63    1.43   2
  -4 -10  -1    2.76    1.54   2
  -4 -10  -1    0.83    1.28   5
  -5 -10  -1    1.48    1.67   5
  -5 -10  -1    0.79    1.51   2
   6  10   1    0.49    1.40   1
  -6 -10  -1    2.88    2.18   2
   7  10   1    1.39    1.90   1
   0 -11  -1    1.18    0.78   2
   0 -11  -1   -0.21    0.88   5
   0 -11  -1    3.59    2.20   4
  -1 -11  -1    1.47    0.83   2
  -1 -11  -1    2.03    0.99   5
  -1 -11  -1    1.15    1.98   4
  -2 -11  -1    2.16    1.90   4
  -2 -11  -1   -0.15    0.94   2
  -2 -11  -1    0.54    0.97   2
  -3 -11  -1   -1.64    1.07   2
  -3 -11  -1    0.62    1.18   2
  -3 -11  -1    0.85    2.03   4
  -4 -11  -1    0.08    1.38   2
  -4 -11  -1   -0.33    1.44   2
  -4 -11  -1    0.40    1.95   4
  -5 -11  -1    3.31    1.92   2
  -6 -11  -1    2.37    2.19   2
  -1 -12  -1    5.44    2.57   4
  -2 -12  -1    4.60    1.44   2
  -2 -12  -1    0.35    2.03   4
  -3 -12  -1    3.73    2.23   4
  -3 -12  -1    0.15    1.46   2
  -4 -12  -1    1.15    2.34   4
  -5 -12  -1    0.64    2.27   4
  -5 -11   2    2.72    2.14   2
  -5 -11   2    3.64    2.64   4
  -4 -11   2    4.05    2.90   4
  -4 -11   2    3.51    2.00   2
  -3 -11   2   -0.89    1.46   2
  -3 -11   2    1.23    2.13   4
  -2 -11   2    0.39    1.50   2
  -2 -11   2   -1.26    1.75   4
  -1 -11   2    2.99    1.61   2
  -1 -11   2   -0.90    1.31   2
  -1 -11   2    2.55    2.38   4
   0 -11   2    1.61    2.53   4
   6  10  -2    0.73    1.76   1
  -6 -10   2    2.82    2.78   4
  -5 -10   2    1.67    2.40   4
  -5 -10   2    1.90    2.00   2
   5  10  -2   -0.27    1.33   1
  -4 -10   2   -0.46    1.91   4
  -4 -10   2    5.27    2.00   2
  -3 -10   2    5.76    1.96   5
  -3 -10   2    8.14    2.83   4
  -3 -10   2    8.48    2.13   2
  -2 -10   2    0.15    1.18   5
  -2 -10   2   -0.13    1.32   2
  -2 -10   2   -0.94    1.38   2
  -2 -10   2   -0.51    1.75   4
  -1 -10   2    9.87    1.94   2
  -1 -10   2    9.67    2.96   4
  -1 -10   2   10.79    1.94   2
   0 -10   2    1.65    1.23   2
   0 -10   2    0.88    2.06   4
   1 -10   2    1.15    1.34   2
   1 -10   2   -1.45    1.88   4
   2 -10   2    0.16    2.14   4
   7   9  -2    4.09    2.27   1
  -7  -9   2   -1.19    2.42   4
  -7  -9   2   -1.22    2.41   5
  -6  -9   2    4.24    2.39   5
  -6  -9   2    4.77    2.83   4
   6   9  -2    3.24    1.89   1
  -5  -9   2    0.96    1.79   2
   5   9  -2    0.40    1.52   1
  -5  -9   2    0.83    1.74   5
  -5  -9   2    1.12    2.18   4
   4   9  -2    4.42    1.40   1
  -4  -9   2    1.46    1.57   5
  -4  -9   2    6.08    2.59   4
  -4  -9   2    4.75    1.97   2
  -3  -9   2    7.25    1.90   2
  -3  -9   2    4.90    2.32   4
  -3  -9   2    5.71    1.82   5
   3   9  -2    6.37    0.96   1
  -3  -9   2    4.94    1.73   2
  -2  -9   2    0.62    1.58   4
  -2  -9   2   -0.42    1.01   5
  -2  -9   2    1.38    1.24   2
  -2  -9   2    0.42    1.22   2
  -1  -9   2    1.08    1.26   2
  -1  -9   2    1.58    1.94   4
  -1  -9   2    4.86    1.51   5
   0  -9   2    6.31    1.45   2
   0  -9   2    6.03    1.51   5
   0  -9   2    6.25    2.45   4
   1  -9   2   -0.22    1.90   4
   1  -9   2    0.76    1.22   5
   1  -9   2    1.42    1.18   2
   2  -9   2    3.36    1.50   2
   2  -9   2    2.78    2.17   4
   3  -9   2    6.60    2.10   2
   8   8  -2    3.18    2.54   1
  -8  -8   2    8.40    3.47   4
  -7  -8   2    1.35    2.66   4
  -7  -8   2    3.74    2.56   5
   7   8  -2   -1.34    1.76   1
  -6  -8   2    3.69    2.20   5
   6   8  -2    4.43    2.03   1
  -6  -8   2    3.43    2.67   4
   5   8  -2   -1.13    1.43   1
  -5  -8   2    2.68    2.17   4
  -5  -8   2    0.56    1.66   2
  -5  -8   2   -0.77    1.46   5
  -4  -8   2    2.09    2.10   4
  -4  -8   2    3.36    1.68   2
   4   8  -2    3.06    1.53   1
  -4  -8   2    5.28    1.89   5
  -3  -8   2    8.13    1.92   2
  -3  -8   2   10.83    2.10   5
  -3  -8   2   10.99    2.78   4
   3   8  -2   10.19    1.61   1
  -3  -8   2   10.87    2.12   2
  -2  -8   2   17.61    2.09   2
  -2  -8   2   13.77    2.10   5
  -2  -8   2   16.92    3.19   4
  -2  -8   2   15.94    1.99   2
  -2  -8   2    9.14    1.89   5
  -1  -8   2   12.99    1.88   5
  -1  -8   2   20.40    3.32   4
  -1  -8   2   17.36    1.91   2
   0  -8   2   20.30    2.05   5
   0  -8   2   16.53    2.02   5
   0  -8   2   14.94    3.01   4
   0  -8   2   17.94    1.84   2
   1  -8   2   -1.08    1.06   5
   1  -8   2    0.76    1.02   5
   1  -8   2    2.78    1.12   2
   1  -8   2    1.89    1.84   4
   2  -8   2    2.19    1.93   4
   2  -8   2    6.79    1.63   2
   2  -8   2    3.19    1.44   5
   3  -8   2    0.88    1.63   5
   3  -8   2    0.60    1.46   2
   3  -8   2    3.84    2.25   4
   4  -8   2   -0.43    1.71   2
  -8  -7   2    4.21    2.99   4
   8   7  -2   -0.15    2.09   1
  -8  -7   2    2.16    2.50   1
   7   7  -2    1.83    2.05   1
  -7  -7   2    2.50    2.19   1
  -6  -7   2   13.31    2.89   1
   6   7  -2   14.93    3.01   1
  -6  -7   2   16.72    3.47   5
  -5  -7   2    0.19    1.59   5
   5   7  -2    0.41    1.51   1
  -5  -7   2    3.98    2.24   4
  -5  -7   2    0.43    1.57   2
  -5  -7   2    0.20    1.49   1
  -4  -7   2   54.43    3.84   2
  -4  -7   2   45.69    3.94   5
   4   7  -2   43.13    3.28   1
  -4  -7   2   52.51    4.84   4
  -4  -7   2   45.16    3.70   2
  -4  -7   2   48.97    3.76   1
  -3  -7   2    1.03    1.39   5
  -3  -7   2    0.74    1.27   1
  -3  -7   2    1.29    1.69   4
   3   7  -2    2.13    1.22   1
  -3  -7   2    0.89    1.37   5
  -3  -7   2    4.03    1.58   2
  -3  -7   2    1.28    1.33   2
  -2  -7   2   24.67    2.45   5
  -2  -7   2   25.72    2.38   1
   2   7  -2   23.95    1.85   1
  -2  -7   2   23.53    2.37   5
  -2  -7   2   21.65    2.25   2
  -2  -7   2   26.72    2.34   2
  -2  -7   2   20.03    3.17   4
  -1  -7   2   -0.09    0.92   5
  -1  -7   2    2.18    1.17   5
  -1  -7   2    1.58    1.07   2
  -1  -7   2    0.82    1.52   4
   0  -7   2   -0.31    0.84   2
   0  -7   2   -0.16    1.25   4
   0  -7   2    1.53    1.03   5
   0  -7   2    0.25    0.95   5
   1  -7   2    4.69    1.37   5
   1  -7   2    2.36    1.10   5
   1  -7   2    3.80    1.15   2
   1  -7   2    7.12    2.22   4
   2  -7   2    0.06    1.08   2
   2  -7   2    0.91    1.49   4
   2  -7   2    0.66    1.06   5
   2  -7   2    0.17    1.05   5
   3  -7   2    4.87    1.75   2
   3  -7   2   12.69    2.67   4
   3  -7   2    6.05    1.89   5
   4  -7   2   -0.36    1.56   2
   4  -7   2    2.38    1.72   5
   5  -7   2    2.60    2.18   2
  -8  -6   2    0.71    1.91   1
   8   6  -2    2.35    2.40   1
   7   6  -2    1.31    2.08   1
  -7  -6   2    0.47    1.98   1
  -6  -6   2   14.04    2.91   1
  -6  -6   2   12.76    3.09   5
   6   6  -2   10.38    2.52   1
  -5  -6   2    5.50    2.03   2
  -5  -6   2    2.80    1.65   1
   5   6  -2    5.13    1.91   1
  -5  -6   2    7.42    2.28   5
  -4  -6   2   29.44    2.94   2
  -4  -6   2   27.12    3.07   5
  -4  -6   2   26.54    2.88   2
   4   6  -2   24.29    2.67   1
  -4  -6   2   32.87    3.17   1
   4   6  -2   29.91    2.61   5
  -4  -6   2   28.02    3.03   5
   3   6  -2   31.21    2.56   1
  -3  -6   2   34.93    2.87   1
  -3  -6   2   37.60    3.08   5
  -3  -6   2   33.97    2.78   2
  -3  -6   2   28.04    3.38   4
  -3  -6   2   33.32    2.76   2
  -3  -6   2   35.06    3.01   5
  -2  -6   2   -1.23    0.80   2
  -2  -6   2    0.39    1.00   5
  -2  -6   2    0.24    0.99   2
  -2  -6   2    0.92    1.09   5
   2   6  -2    1.72    0.98   1
  -2  -6   2    0.57    1.26   4
  -2  -6   2   -0.25    0.89   1
  -1  -6   2   24.54    1.93   2
  -1  -6   2   27.60    2.19   5
  -1  -6   2   26.60    2.14   1
  -1  -6   2   24.68    2.09   5
   1   6  -2   29.45    1.72   1
  -1  -6   2   24.23    2.97   4
   0   6  -2   47.57    1.72   1
   0  -6   2   46.59    2.47   2
   0  -6   2   47.05    2.68   1
   0  -6   2   49.27    2.68   5
   0  -6   2   50.40    3.83   4
   0  -6   2   48.36    2.72   5
   1  -6   2    1.15    0.91   5
   1  -6   2    1.55    1.04   1
   1  -6   2   -1.05    0.79   5
   1  -6   2   -0.13    0.77   2
   1  -6   2    1.04    1.42   4
   2  -6   2   34.10    2.41   2
  -2   6  -2   33.89    1.60   1
   2  -6   2   32.81    2.60   5
   2  -6   2   28.75    2.59   5
  -2   6  -2   33.48    1.58   1
   2  -6   2   35.85    3.46   4
   3  -6   2    8.18    2.25   4
   3  -6   2    6.38    1.73   5
  -3   6  -2    5.36    1.16   1
   3  -6   2    4.69    1.59   2
   3  -6   2    4.50    1.62   5
   4  -6   2    5.94    2.24   4
   4  -6   2    3.25    1.78   2
  -4   6  -2    2.64    1.23   1
   4  -6   2    0.73    1.49   5
   5  -6   2   -0.14    1.71   5
   5  -6   2    0.51    1.93   2
  -5   6  -2    0.31    1.26   1
  -6   6  -2    1.81    1.57   1
   6  -6   2   -1.58    1.93   2
   8   5  -2    5.11    2.49   1
  -8  -5   2    2.52    2.54   1
   7   5  -2   -1.62    1.51   1
  -7  -5   2    0.05    1.84   1
  -6  -5   2    1.42    1.96   1
  -6  -5   2    3.15    2.01   5
   6   5  -2    4.94    2.12   1
  -5  -5   2    2.95    1.84   1
   5   5  -2    3.15    1.71   1
  -5  -5   2    1.26    1.54   2
  -5  -5   2    3.72    1.91   5
  -4  -5   2   15.25    2.24   2
  -4  -5   2   12.59    2.34   5
  -4  -5   2   19.81    2.44   2
  -4  -5   2   12.65    2.36   5
  -4  -5   2   14.44    2.36   1
   4   5  -2   15.31    2.31   1
   4   5  -2   20.08    2.34   5
  -3  -5   2   28.20    2.69   5
   3   5  -2   29.98    2.31   5
  -3  -5   2   26.79    2.42   2
  -3  -5   2   30.56    2.58   2
  -3  -5   2   33.19    3.30   4
  -3  -5   2   25.43    2.54   1
   3   5  -2   29.38    2.53   1
  -3  -5   2   28.83    2.73   5
  -2  -5   2    0.69    0.91   2
  -2  -5   2    2.37    1.10   5
  -2  -5   2    0.53    0.89   1
  -2  -5   2    0.81    0.96   5
   2   5  -2    0.65    0.70   5
  -2  -5   2   -1.57    1.02   4
   2   5  -2   -0.20    0.85   1
  -2  -5   2    2.54    1.05   2
  -1  -5   2   24.46    1.79   2
  -1  -5   2   24.99    1.96   1
   1   5  -2   23.90    1.70   1
  -1  -5   2   25.75    2.77   4
  -1  -5   2   23.47    2.00   5
  -1  -5   2   24.41    1.99   5
   0  -5   2   46.99    2.54   1
   0  -5   2   51.69    2.40   2
   0  -5   2   51.09    2.62   5
   0  -5   2   48.39    3.42   4
   0  -5   2   53.56    2.66   5
   0   5  -2   45.59    2.05   1
   1  -5   2   -0.65    0.66   2
   1  -5   2    2.41    0.97   1
   1  -5   2    1.81    1.39   4
  -1   5  -2    1.41    0.74   1
  -1   5  -2    1.69    0.70   1
   1  -5   2    0.98    0.85   5
   1  -5   2    1.00    0.78   5
   2  -5   2   22.21    2.19   5
   2  -5   2   23.75    2.73   4
  -2   5  -2   19.36    1.59   1
   2  -5   2   19.74    2.05   1
   2  -5   2   22.16    1.92   2
   2  -5   2   23.77    2.14   5
   3  -5   2   23.67    2.57   5
  -3   5  -2   24.58    2.09   1
   3  -5   2   24.89    2.67   5
   3  -5   2   28.81    3.09   4
   3  -5   2   21.74    2.28   2
   3  -5   2   21.56    2.48   1
   4  -5   2    0.68    1.37   5
  -4   5  -2    0.51    1.18   1
   4  -5   2    1.32    1.67   4
   4  -5   2   -1.75    1.26   2
   5  -5   2    4.15    2.05   5
  -5   5  -2    4.70    1.77   1
   5  -5   2    5.84    2.24   2
   6  -5   2   -2.25    1.43   5
  -6   5  -2   -0.91    1.41   1
   6  -5   2    0.30    1.91   2
  -7   5  -2    0.24    1.83   1
   9   4  -2    0.13    2.79   1
  -8  -4   2    1.70    2.28   1
   8   4  -2    2.10    2.46   1
   7   4  -2    8.44    2.76   1
  -7  -4   2    5.21    2.60   1
   6   4  -2    0.82    1.68   1
  -6  -4   2    0.36    1.59   1
  -6  -4   2   -1.88    1.40   5
  -5  -4   2    0.63    1.34   2
  -5  -4   2   -1.43    1.24   1
  -5  -4   2    2.36    1.66   5
   5   4  -2    2.43    1.71   1
  -5  -4   2    0.69    1.60   2
  -5  -4   2   -0.35    1.57   5
   4   4  -2   -1.16    0.94   2
  -4  -4   2    0.18    1.14   5
  -4  -4   2    0.43    1.30   2
   4   4  -2   -0.35    1.15   1
  -4  -4   2   -1.01    1.22   1
  -4  -4   2    0.74    1.20   2
   4   4  -2    0.28    1.10   5
  -4  -4   2    1.51    1.44   5
  -3  -4   2   22.70    2.42   5
  -3  -4   2   14.51    2.10   5
  -3  -4   2   15.36    2.07   1
  -3  -4   2   18.59    2.05   2
   3   4  -2   14.53    1.89   5
   3   4  -2   20.38    2.05   5
   3   4  -2   19.93    2.16   1
  -3  -4   2   15.02    1.94   2
   2   4  -2   18.60    1.73   5
  -2  -4   2   17.27    1.78   2
  -2  -4   2   16.95    1.83   1
  -2  -4   2   18.23    1.80   2
  -2  -4   2   18.79    2.41   4
  -2  -4   2   21.32    2.08   5
   2   4  -2   16.44    1.57   5
  -2  -4   2   15.79    1.82   5
   2   4  -2   19.76    1.90   1
  -1  -4   2   47.25    2.45   2
   1   4  -2   44.78    2.04   5
  -1  -4   2   45.72    3.13   4
  -1  -4   2   44.03    2.57   5
   1   4  -2   52.24    2.18   5
  -1  -4   2   47.75    2.38   2
   1   4  -2   41.35    2.30   1
   1   4  -2   47.09    2.38   1
  -1  -4   2   47.49    2.50   1
   0   4  -2  113.67    3.64   1
   0  -4   2  112.14    3.99   5
   0   4  -2  113.90    2.97   5
   0  -4   2  109.90    4.84   4
   0  -4   2  115.98    3.98   1
   0   4  -2  110.61    2.99   5
   0  -4   2  109.75    3.63   2
   0  -4   2  114.95    4.01   5
   1  -4   2    0.93    0.80   5
   1  -4   2    1.09    1.13   4
  -1   4  -2   -0.26    0.65   1
   1  -4   2    1.57    0.81   5
   1  -4   2   -0.59    0.63   2
   1  -4   2    0.70    0.80   1
   2  -4   2   35.88    2.45   5
   2  -4   2   33.86    2.38   1
  -2   4  -2   34.83    1.50   5
   2  -4   2   32.59    2.44   5
  -2   4  -2   34.78    2.16   1
   2  -4   2   37.46    2.27   2
   2  -4   2   34.80    2.80   4
   3  -4   2   17.70    2.18   5
   3  -4   2   14.39    1.86   2
   3  -4   2   17.28    2.17   1
   3  -4   2   21.92    2.46   4
   3  -4   2   18.53    2.25   5
  -3   4  -2   19.70    1.94   1
   4  -4   2    0.45    1.22   5
   4  -4   2   -0.05    1.23   5
   4  -4   2   -0.45    1.27   2
  -4   4  -2   -1.60    1.13   1
   4  -4   2    0.46    1.36   4
   4  -4   2   -0.79    1.19   2
   4  -4   2    0.56    1.43   1
   5  -4   2    3.68    1.90   1
   5  -4   2    2.81    1.69   5
  -5   4  -2    2.15    1.49   1
   5  -4   2    3.38    1.91   4
   5  -4   2    2.63    1.79   2
  -6   4  -2    3.10    1.85   1
   6  -4   2    1.11    1.90   5
   6  -4   2    1.62    1.86   2
   7  -4   2    1.67    2.35   5
  -7   4  -2   -0.99    1.80   1
  -9  -3   2   -2.00    2.37   1
   9   3  -2    1.12    2.78   1
   8   3  -2    0.95    2.29   1
  -8  -3   2   -3.66    1.75   1
  -7  -3   2    1.82    2.04   1
   7   3  -2    4.31    2.25   1
  -6  -3   2   15.34    2.95   1
   6   3  -2   13.50    2.75   1
  -6  -3   2   13.14    2.90   5
   5   3  -2    2.02    1.54   5
  -5  -3   2   -1.38    1.08   1
  -5  -3   2    0.73    1.35   2
  -5  -3   2   -0.38    1.33   5
  -5  -3   2   -1.40    0.79   3
  -5  -3   2   -0.07    1.44   2
  -5  -3   2   -0.39    1.62   5
   5   3  -2   -0.88    1.22   1
   5   3  -2    2.27    1.39   2
   4   3  -2   47.90    3.20   2
  -4  -3   2   38.76    3.04   2
  -4  -3   2   44.57    3.38   1
  -4  -3   2   47.79    3.36   2
  -4  -3   2   45.92    3.70   5
   4   3  -2   45.32    3.43   5
   4   3  -2   54.40    3.57   5
   4   3  -2   45.76    3.42   1
  -4  -3   2   45.59    3.43   5
  -3  -3   2   65.48    3.44   2
   3   3  -2   69.63    3.41   2
  -3  -3   2   64.59    3.77   1
   3   3  -2   65.97    3.52   1
   3   3  -2   66.36    3.30   2
  -3  -3   2   62.44    3.47   2
   3   3  -2   67.66    3.69   5
  -3  -3   2   66.85    3.73   5
  -3  -3   2   63.49    3.74   5
   2   3  -2    3.40    1.10   5
   2   3  -2    3.34    0.99   2
  -2  -3   2    2.48    1.10   2
  -2  -3   2    3.08    1.38   4
   2   3  -2    3.70    1.16   5
   2   3  -2    4.62    1.12   2
  -2  -3   2    2.35    1.11   2
  -2  -3   2    3.71    1.25   1
  -2  -3   2    2.78    1.17   5
  -2  -3   2    3.10    1.21   5
   2   3  -2    0.59    1.05   1
  -1  -3   2  256.07    6.79   2
  -1  -3   2  255.40    7.70   4
   1   3  -2  251.59    6.75   5
  -1  -3   2  260.84    7.02   1
   1   3  -2  262.05    6.92   5
   1   3  -2  259.05    6.32   2
  -1  -3   2  257.89    7.23   5
   1   3  -2  251.47    6.79   1
  -1  -3   2  247.59    7.12   5
   1   3  -2  258.51    6.81   1
  -1  -3   2  259.45    6.80   2
   0   3  -2   92.60    3.04   5
   0  -3   2   97.27    3.41   5
   0  -3   2   91.74    3.13   2
   0   3  -2   86.86    3.13   1
   0  -3   2   92.87    3.98   4
   0   3  -2   95.48    3.03   5
   0  -3   2   90.99    3.32   1
   0  -3   2   88.30    3.30   5
   0   3  -2   90.68    3.15   1
   1  -3   2   80.27    2.92   2
  -1   3  -2   83.16    2.71   5
  -1   3  -2   77.40    2.75   5
  -1   3  -2   73.49    2.96   1
   1  -3   2   80.06    3.16   5
   1  -3   2   77.76    3.68   4
   1  -3   2   77.24    3.17   1
   1  -3   2   78.69    3.21   5
  -1   3  -2   78.95    2.98   1
   2  -3   2   35.25    2.60   4
   2  -3   2   34.79    2.29   1
  -2   3  -2   35.00    1.92   5
   2  -3   2   35.41    2.37   5
  -2   3  -2   34.28    2.24   1
   2  -3   2   31.26    2.06   2
   2  -3   2   32.13    2.33   5
  -2   3  -2   32.32    1.95   5
  -3   3  -2    4.26    1.30   1
  -3   3  -2    5.85    1.21   5
   3  -3   2    3.29    1.28   1
   3  -3   2    1.73    1.25   4
   3  -3   2    6.07    1.50   5
   3  -3   2    5.13    1.42   5
   3  -3   2    3.67    1.28   2
   3  -3   2    1.86    1.12   2
   4  -3   2    4.23    1.63   5
  -4   3  -2    3.31    1.26   5
   4  -3   2    4.41    1.68   5
   4  -3   2    7.72    1.86   2
  -4   3  -2    2.15    1.43   1
   4  -3   2    2.59    1.53   2
   4  -3   2    8.24    1.83   4
   4  -3   2    3.00    1.55   1
   5  -3   2    4.71    1.84   1
  -5   3  -2    5.27    1.83   1
   5  -3   2    4.03    1.90   2
   5  -3   2    2.45    1.67   5
   6  -3   2    9.68    2.51   2
   6  -3   2    1.79    1.75   5
  -6   3  -2    8.87    2.36   1
   7  -3   2    1.74    2.49   5
  -7   3  -2    4.18    2.24   1
  -8   3  -2    0.12    2.11   1
   9   2  -2    1.65    2.59   1
  -8  -2   2    3.22    2.72   1
   8   2  -2   -2.04    1.85   1
   7   2  -2    0.53    2.06   1
  -7  -2   2    0.31    1.95   1
   6   2  -2   12.66    2.92   1
   6   2  -2    9.16    2.45   5
  -6  -2   2   10.98    2.70   5
  -6  -2   2    9.38    2.34   1
   5   2  -2    7.38    2.04   2
  -5  -2   2    4.42    1.75   5
  -5  -2   2    6.55    2.08   1
  -5  -2   2    6.10    1.22   3
   5   2  -2    8.18    2.30   1
  -5  -2   2    6.46    1.94   2
   5   2  -2    9.31    2.24   5
   5   2  -2    6.88    2.13   5
  -5  -2   2    7.03    2.27   5
  -4  -2   2   13.62    2.23   1
  -4  -2   2   11.99    1.96   2
   4   2  -2   10.58    2.02   1
  -4  -2   2   12.50    2.14   5
  -4  -2   2   12.72    1.96   2
   4   2  -2   14.49    2.28   5
  -4  -2   2   16.11    2.45   5
   4   2  -2    9.79    1.86   2
   4   2  -2    8.54    1.94   5
   3   2  -2  170.76    6.34   5
  -3  -2   2  184.68    6.29   2
  -3  -2   2  181.01    6.18   2
  -3  -2   2  181.59    6.59   5
  -3  -2   2  194.16    6.52   1
   3   2  -2  190.48    6.56   5
   3   2  -2  177.26    6.08   2
  -3  -2   2  176.80    6.52   5
  -2  -2   2   16.82    1.63   2
  -2  -2   2   17.09    1.81   1
   2   2  -2   16.50    1.55   2
  -2  -2   2   14.81    1.76   5
  -2  -2   2   17.53    1.86   5
  -2  -2   2   18.27    1.80   4
  -2  -2   2   17.25    1.68   2
   2   2  -2   17.72    1.81   1
   2   2  -2   21.57    1.93   5
   2   2  -2   17.90    1.64   2
  -1  -2   2  270.48    7.29   5
  -1  -2   2  248.62    7.27   4
   1   2  -2  275.42    6.98   1
   1   2  -2  256.71    7.01   5
   1   2  -2  268.53    6.97   1
   1   2  -2  264.79    6.66   2
  -1  -2   2  268.57    6.87   2
  -1  -2   2  262.69    6.96   1
  -1  -2   2  262.87    7.19   5
   1   2  -2  264.80    7.09   5
  -1  -2   2  267.86    6.90   2
   0   2  -2  339.93    8.17   1
   0   2  -2  345.04    7.75   2
   0  -2   2  337.30    8.43   5
   0   2  -2  328.06    8.25   5
   0  -2   2  328.14    8.76   4
   0   2  -2  349.67    8.32   5
   0   2  -2  343.66    8.12   1
   0  -2   2  336.49    8.19   1
   0  -2   2  338.48    8.43   5
   0  -2   2  337.16    8.03   2
   1  -2   2   35.35    1.95   1
   1  -2   2   36.15    1.78   2
  -1   2  -2   34.36    1.51   2
  -1   2  -2   37.30    1.96   1
  -1   2  -2   37.14    1.59   2
   1  -2   2   36.85    2.04   5
  -1   2  -2   34.78    2.19   4
   1  -2   2   34.64    2.19   4
   1  -2   2   34.14    1.94   5
  -1   2  -2   34.21    1.94   1
  -1   2  -2   33.89    1.78   5
  -1   2  -2   33.69    1.82   5
   2  -2   2  228.75    6.71   5
  -2   2  -2  218.23    5.63   2
  -2   2  -2  221.36    6.38   5
   2  -2   2  221.91    6.80   5
   2  -2   2  222.42    6.48   1
  -2   2  -2  198.66    5.71   2
   2  -2   2  221.67    6.26   2
   2  -2   2  217.86    6.69   4
  -2   2  -2  218.00    6.39   1
  -2   2  -2  230.42    6.28   5
   3  -2   2  158.45    5.71   4
  -3   2  -2  163.92    5.56   5
   3  -2   2  174.55    5.87   2
   3  -2   2  168.08    5.90   1
   3  -2   2  165.87    6.07   5
  -3   2  -2  167.31    5.78   5
   3  -2   2  160.04    6.09   5
  -3   2  -2  157.77    5.62   1
   3  -2   2  166.19    5.73   2
  -4   2  -2   29.29    2.60   1
   4  -2   2   29.02    2.72   2
   4  -2   2   31.63    2.88   1
   4  -2   2   31.08    2.68   4
  -4   2  -2   25.40    2.43   5
   4  -2   2   27.68    2.78   5
   4  -2   2   25.71    2.66   2
   4  -2   2   26.44    2.82   5
   5  -2   2   52.22    4.16   5
   5  -2   2   42.85    3.83   5
   5  -2   2   50.97    3.94   1
   5  -2   2   66.17    4.29   2
  -5   2  -2   54.31    3.89   1
   5  -2   2   54.03    3.94   3
  -5   2  -2   55.15    3.81   5
   5  -2   2   52.23    4.00   2
   6  -2   2    3.51    1.86   5
   6  -2   2    3.53    2.27   1
  -6   2  -2    4.51    1.89   1
   6  -2   2   -0.80    1.69   2
  -7   2  -2    6.99    2.56   1
   7  -2   2    0.00    2.04   5
   7  -2   2    5.00    2.55   1
  -8   2  -2    2.02    2.44   1
   8   1  -2    1.17    2.35   1
  -8  -1   2    1.92    2.48   1
  -7  -1   2    3.23    2.22   1
   7   1  -2    1.61    2.21   1
   6   1  -2    0.96    1.86   1
   6   1  -2   -1.34    1.50   5
  -6  -1   2   -0.94    1.48   1
   5   1  -2    1.70    1.55   2
  -5  -1   2    0.95    1.39   5
  -5  -1   2    0.65    1.56   5
  -5  -1   2    1.63    1.32   2
  -5  -1   2    1.40    1.11   3
   5   1  -2    1.93    1.74   5
  -5  -1   2   -0.20    1.39   1
   5   1  -2    4.64    1.89   5
   5   1  -2    2.73    1.88   1
   5   1  -2    1.37    1.53   2
   4   1  -2   19.33    2.52   5
   4   1  -2   26.02    2.77   5
  -4  -1   2   19.37    2.42   1
  -4  -1   2   21.87    1.84   3
  -4  -1   2   16.54    2.31   5
   4   1  -2   18.17    2.31   2
  -4  -1   2   20.83    2.34   2
   4   1  -2   20.25    2.59   1
   4   1  -2   20.54    2.36   2
  -4  -1   2   23.35    2.68   5
  -3  -1   2   59.31    3.35   2
   3   1  -2   58.42    3.39   5
  -3  -1   2   56.13    3.56   5
   3   1  -2   58.51    3.39   1
  -3  -1   2   54.99    3.29   5
  -3  -1   2   61.38    3.36   1
   3   1  -2   51.67    3.17   2
   3   1  -2   53.21    3.11   2
   3   1  -2   59.27    3.42   5
  -2  -1   2   71.32    3.09   2
   2   1  -2   67.95    3.18   1
  -2  -1   2   71.93    3.31   5
  -2  -1   2   76.06    2.93   4
  -2  -1   2   74.89    3.35   5
   2   1  -2   73.20    3.34   5
   2   1  -2   72.76    3.29   5
  -2  -1   2   76.89    3.34   1
  -2  -1   2   73.00    3.13   2
   2   1  -2   70.12    3.03   2
  -1  -1   2    4.13    0.79   2
  -1  -1   2    2.37    0.81   1
   1   1  -2    5.92    1.00   1
   1   1  -2    4.77    0.89   4
   1   1  -2    3.24    0.76   2
   1   1  -2    4.58    0.89   5
   1   1  -2    3.59    0.86   1
  -1  -1   2    3.79    0.90   5
  -1  -1   2    4.05    0.84   4
  -1  -1   2    3.30    0.84   2
  -1  -1   2    5.53    1.00   5
   0   1  -2  122.44    3.48   2
   0  -1   2  125.40    3.57   2
   0  -1   2  123.27    3.75   5
   0   1  -2  120.44    3.64   1
   0  -1   2  124.41    3.90   4
   0   1  -2  123.34    3.69   5
   0  -1   2  123.79    3.78   5
   0  -1   2  121.66    3.64   1
   0   1  -2  119.80    3.81   4
   0   1  -2  124.04    3.64   1
  -1   1  -2  490.37   11.40   1
   1  -1   2  494.92   11.86   5
  -1   1  -2  505.74   11.68   5
  -1   1  -2  490.61   11.76   4
   1  -1   2  505.12   11.51   1
  -1   1  -2  514.93   11.41   1
   1  -1   2  495.24   11.84   4
  -1   1  -2  504.77   11.16   2
   1  -1   2  503.57   11.83   5
   1  -1   2  492.98   11.29   2
  -2   1  -2   37.74    2.04   2
  -2   1  -2   37.91    1.96   2
  -2   1  -2   35.73    2.19   1
  -2   1  -2   36.66    2.25   4
   2  -1   2   36.25    2.30   5
   2  -1   2   39.19    2.16   2
  -2   1  -2   37.69    2.25   5
  -2   1  -2   37.76    2.25   1
  -2   1  -2   38.33    2.17   5
   2  -1   2   37.27    2.30   1
   2  -1   2   38.91    2.35   5
   2  -1   2   36.75    2.30   4
  -3   1  -2  292.17    7.80   2
   3  -1   2  273.79    8.21   2
   3  -1   2  288.75    8.23   4
  -3   1  -2  281.46    8.53   5
   3  -1   2  289.35    8.47   1
   3  -1   2  304.86    8.93   5
  -3   1  -2  285.85    8.38   5
   3  -1   2  292.21    8.75   5
  -3   1  -2  286.14    7.96   2
  -3   1  -2  284.17    8.36   1
   4  -1   2   59.68    3.80   5
   4  -1   2   60.90    3.64   2
   4  -1   2   64.78    3.93   5
  -4   1  -2   53.41    3.45   5
  -4   1  -2   51.92    3.07   2
  -4   1  -2   60.82    3.55   1
   4  -1   2   49.10    3.36   2
   4  -1   2   55.12    3.55   1
  -4   1  -2   52.85    3.36   5
   5  -1   2   50.40    3.95   5
   5  -1   2   30.80    3.11   2
   5  -1   2   40.48    3.65   5
  -5   1  -2   41.23    3.37   5
   5  -1   2   36.32    3.27   2
  -5   1  -2   37.72    3.49   1
   5  -1   2   32.59    2.78   3
   5  -1   2   41.24    3.48   1
   6  -1   2   32.66    3.84   1
   6  -1   2   26.81    2.85   3
   6  -1   2   29.97    3.65   5
   6  -1   2   31.80    3.56   2
  -6   1  -2   35.23    3.84   1
   7  -1   2   -2.16    1.69   5
  -7   1  -2    0.66    1.96   1
   7  -1   2   -1.58    1.75   1
   8  -1   2    7.95    3.07   1
  -8   1  -2    3.02    2.44   1
   8   0  -2   -4.24    2.06   1
  -8   0   2   -0.90    2.05   1
  -7   0   2   -0.88    1.86   1
   7   0  -2   -2.11    1.70   1
   6   0  -2    0.37    1.92   2
  -6   0   2    3.83    2.07   1
   6   0  -2    3.21    2.02   1
   6   0  -2    2.89    2.07   5
   5   0  -2    2.73    1.70   1
   5   0  -2    7.39    2.15   5
  -5   0   2    6.11    2.02   1
   5   0  -2   12.76    2.62   5
   5   0  -2    4.46    2.02   2
  -5   0   2    6.21    1.52   3
   5   0  -2    6.63    2.06   2
   4   0  -2    7.52    1.86   5
  -4   0   2    6.72    1.45   3
  -4   0   2    8.26    1.63   2
   4   0  -2    6.01    1.77   2
   4   0  -2    5.90    1.71   1
   4   0  -2    9.87    1.84   2
   4   0  -2    8.53    2.03   5
  -4   0   2    7.87    1.81   5
  -4   0   2    4.84    1.60   1
  -3   0   2  266.11    7.58   2
   3   0  -2  249.52    8.19   5
  -3   0   2  271.07    7.70   2
  -3   0   2  268.81    7.92   1
   3   0  -2  237.37    7.64   2
  -3   0   2  270.38    8.22   5
  -3   0   2  257.46    7.33   3
   3   0  -2  266.40    7.87   2
   3   0  -2  249.25    8.13   5
   3   0  -2  257.26    7.89   1
  -2   0   2   16.53    1.08   4
  -2   0   2   18.30    1.77   5
  -2   0   2   17.13    1.60   2
  -2   0   2   16.10    1.63   1
   2   0  -2   18.94    1.71   1
   2   0  -2   15.13    1.69   5
  -2   0   2   18.13    1.45   2
   2   0  -2   18.46    1.68   2
   2   0  -2   18.08    1.56   2
   2   0  -2   17.04    1.65   5
   1   0  -2 1126.64   24.50   2
  -1   0   2 1153.64   24.49   2
   1   0  -2 1152.26   25.38   5
  -1   0   2 1156.61   25.35   5
   1   0  -2 1135.81   24.46   2
  -1   0   2 1168.15   24.56   4
  -1   0   2 1193.29   24.50   1
   1   0  -2 1144.46   25.37   5
   1   0  -2 1163.63   24.56   1
  -1   0   2 1162.02   24.52   1
   1   0  -2 1199.49   24.51   4
   0   0   2   55.10    2.10   4
   0   0  -2   52.39    2.05   1
   0   0  -2   57.29    2.15   5
   0   0  -2   55.68    2.00   2
   0   0   2   54.60    2.02   2
   0   0  -2   56.10    2.09   4
   0   0  -2   54.18    2.08   5
   0   0   2   49.89    2.05   1
   0   0  -2   55.65    2.11   1
   0   0   2   53.36    2.10   5
   0   0   2   58.83    2.19   1
  -1   0  -2  338.86    7.85   1
  -1   0  -2  320.26    8.00   5
  -1   0  -2  337.20    8.07   4
   1   0   2  328.29    7.72   2
   1   0   2  332.00    7.84   1
   1   0   2  325.84    8.05   5
  -1   0  -2  325.78    7.81   1
   1   0   2  318.53    8.00   4
   1   0   2  329.05    7.83   1
   1   0   2  321.43    8.05   5
  -1   0  -2  307.85    8.01   5
  -1   0  -2  318.12    7.64   2
  -2   0  -2   68.32    2.96   5
   2   0   2   63.76    2.87   4
  -2   0  -2   71.35    2.78   2
   2   0   2   65.36    3.00   5
   2   0   2   63.99    2.76   2
  -2   0  -2   67.79    2.90   1
   2   0   2   69.64    2.92   1
   2   0   2   70.33    3.04   5
  -2   0  -2   66.26    2.92   4
   3   0   2    7.51    1.51   1
  -3   0  -2    5.71    1.39   1
  -3   0  -2    5.23    1.22   2
  -3   0  -2    4.07    1.23   2
   3   0   2    4.14    1.29   5
  -3   0  -2    8.33    1.47   5
   3   0   2    7.08    1.55   5
   3   0   2    5.06    1.33   2
  -4   0  -2    0.67    1.00   2
   4   0   2    0.06    1.01   2
  -4   0  -2    2.39    1.33   1
   4   0   2    3.37    1.35   1
  -4   0  -2    3.08    1.31   5
   4   0   2    1.74    1.22   5
  -4   0  -2    2.60    1.21   2
   4   0   2    1.69    1.28   5
  -5   0  -2    2.08    1.39   1
   5   0   2    1.68    1.41   2
   5   0   2    0.32    1.19   5
   5   0   2    1.08    1.28   1
   5   0   2    0.21    1.02   3
   5   0   2   -0.73    1.18   5
  -5   0  -2   -1.10    1.07   2
  -6   0  -2    6.72    2.11   1
   6   0   2    5.79    2.20   2
   6   0   2    4.60    1.52   3
   6   0   2    7.36    2.32   5
   6   0   2    8.73    2.57   1
   7   0   2    1.01    1.90   5
   7   0   2    2.51    2.16   1
  -7   0  -2    3.42    2.22   1
   8   0   2    1.12    2.40   1
  -8   0  -2    1.36    2.26   1
  -9   0  -2   -0.64    2.24   1
   9   0   2    1.30    3.02   1
  -8   1   2    0.33    2.07   1
   8  -1  -2    1.26    2.46   1
   7  -1  -2    3.31    2.08   1
   7  -1  -2    1.11    2.12   5
  -7   1   2    4.86    2.27   1
   6  -1  -2   12.02    2.89   1
  -6   1   2   11.95    2.73   1
   6  -1  -2   14.70    3.11   5
   6  -1  -2   15.92    3.02   2
   5  -1  -2   -1.28    1.15   2
   5  -1  -2    0.34    1.65   1
  -5   1   2   -1.02    1.18   5
   5  -1  -2    2.50    1.63   5
   5  -1  -2   -0.10    1.49   5
   5  -1  -2    0.39    1.62   2
  -5   1   2   -0.22    1.41   1
   4  -1  -2   44.98    3.29   2
   4  -1  -2   47.65    3.41   2
  -4   1   2   44.55    3.04   5
   4  -1  -2   34.84    3.19   5
   4  -1  -2   41.32    3.27   1
  -4   1   2   44.23    2.99   3
  -4   1   2   45.25    3.21   1
   4  -1  -2   38.24    3.30   5
   3  -1  -2   12.83    1.89   5
   3  -1  -2    9.72    1.72   2
   3  -1  -2    9.46    1.72   1
  -3   1   2   13.06    1.54   2
  -3   1   2   12.24    1.83   1
  -3   1   2   10.38    1.68   5
  -3   1   2   13.63    1.52   2
   3  -1  -2   13.04    1.89   5
  -3   1   2    8.50    1.61   3
   3  -1  -2   18.40    1.93   2
  -3   1   2   10.92    1.56   5
   2  -1  -2    0.42    0.88   2
  -2   1   2    0.40    0.95   3
   2  -1  -2    0.55    0.76   2
  -2   1   2   -1.02    0.57   2
  -2   1   2    1.04    0.92   1
   2  -1  -2    0.69    0.79   5
  -2   1   2   -0.42    0.78   1
  -2   1   2    0.12    0.80   2
  -2   1   2    0.81    0.78   5
   2  -1  -2    0.39    0.87   1
   2  -1  -2    0.46    0.85   5
  -2   1   2    3.33    1.04   5
   1  -1  -2   63.27    2.28   2
   1  -1  -2   60.77    2.45   5
  -1   1   2   62.85    2.43   1
  -1   1   2   63.29    2.14   2
   1  -1  -2   61.83    2.53   5
  -1   1   2   68.77    2.50   5
  -1   1   2   63.52    2.23   2
  -1   1   2   59.89    2.32   5
   1  -1  -2   59.63    2.41   1
  -1   1   2   64.01    2.75   3
   1  -1  -2   62.88    1.75   4
  -1   1   2   61.63    2.38   1
   1  -1  -2   61.64    2.36   2
   0  -1  -2  290.15    6.68   1
   0  -1  -2  286.43    6.90   5
   0  -1  -2  282.99    6.73   4
   0   1   2  286.07    6.47   2
   0  -1  -2  283.61    6.58   2
   0   1   2  278.42    6.77   5
   0   1   2  289.50    6.69   1
   0  -1  -2  283.48    6.87   5
   0   1   2  288.46    6.83   5
   0   1   2  289.31    6.48   2
   0   1   2  290.68    6.66   1
   0  -1  -2  286.07    6.56   2
   0  -1  -2  284.69    6.65   1
   1   1   2   10.99    0.96   5
  -1  -1  -2    9.21    0.96   1
  -1  -1  -2    9.86    0.96   5
   1   1   2   11.92    1.07   1
   1   1   2   11.33    1.01   1
   1   1   2    9.75    0.91   2
  -1  -1  -2    8.68    0.94   5
  -1  -1  -2   10.15    1.02   1
  -1  -1  -2    8.59    0.87   2
  -2  -1  -2  153.84    4.87   5
   2   1   2  152.52    4.76   1
  -2  -1  -2  157.42    4.68   2
  -2  -1  -2  152.55    4.92   5
   2   1   2  153.34    4.87   5
   2   1   2  152.30    4.89   5
  -2  -1  -2  151.45    4.74   1
  -3  -1  -2  178.05    5.89   1
   3   1   2  171.51    5.98   5
  -3  -1  -2  180.13    5.72   2
  -3  -1  -2  176.27    5.99   5
  -3  -1  -2  176.18    6.13   5
   3   1   2  170.28    5.80   1
   3   1   2  175.92    6.06   5
  -4  -1  -2    2.75    1.27   1
  -4  -1  -2    2.76    1.34   2
   4   1   2    4.70    1.59   5
   4   1   2    0.40    1.24   1
  -4  -1  -2    1.74    1.30   5
  -4  -1  -2    4.60    1.48   5
   4   1   2    3.25    1.32   2
   4   1   2    4.09    1.44   5
   5   1   2   18.52    2.48   2
  -5  -1  -2   17.00    2.52   5
  -5  -1  -2   17.47    2.37   2
  -5  -1  -2   12.57    2.24   1
   5   1   2   16.84    2.59   5
   5   1   2   26.88    2.94   1
  -5  -1  -2   17.62    2.31   2
   5   1   2   16.53    1.49   3
   5   1   2   14.70    2.51   5
  -5  -1  -2   21.44    2.67   5
  -6  -1  -2    3.38    1.79   5
   6   1   2    7.11    2.20   5
   6   1   2   -0.15    1.57   5
  -6  -1  -2    2.29    1.74   1
   6   1   2    1.00    1.57   2
   6   1   2   -0.15    1.63   1
   6   1   2    1.74    1.01   3
   7   1   2    3.58    2.17   1
   7   1   2   -0.76    1.66   5
  -7  -1  -2    0.41    1.85   1
   8   1   2   -0.73    2.04   1
  -8  -1  -2    1.53    2.02   1
  -9  -1  -2   -3.62    1.94   1
   9   1   2    0.70    2.42   1
  -8   2   2    0.69    2.24   1
  -7   2   2    0.95    1.82   1
   7  -2  -2   -2.79    1.68   5
   7  -2  -2   -0.54    2.05   1
   6  -2  -2   10.83    2.74   2
   6  -2  -2    6.65    2.47   1
  -6   2   2    5.12    1.97   1
   6  -2  -2    5.68    2.28   5
   5  -2  -2    4.21    1.90   2
  -5   2   2   -0.56    1.31   1
   5  -2  -2    1.00    1.56   5
   5  -2  -2    1.52    1.71   1
   4  -2  -2   16.83    2.40   5
   4  -2  -2   16.72    2.39   5
  -4   2   2   19.66    2.38   1
   4  -2  -2   15.17    2.34   1
   4  -2  -2   15.30    2.16   2
  -4   2   2   12.98    1.84   5
   4  -2  -2   13.33    2.08   2
   3  -2  -2   25.71    2.24   2
   3  -2  -2   22.50    2.25   1
   3  -2  -2   27.38    2.44   5
  -3   2   2   21.76    1.97   5
  -3   2   2   28.16    2.24   1
   3  -2  -2   27.84    2.56   3
   3  -2  -2   27.39    2.47   5
  -3   2   2   27.12    2.05   5
   3  -2  -2   26.58    2.18   2
  -3   2   2   23.25    2.39   3
  -2   2   2   17.83    1.61   1
   2  -2  -2   16.02    1.58   2
  -2   2   2   15.58    1.10   2
   2  -2  -2   16.88    1.69   1
   2  -2  -2   13.07    1.84   3
   2  -2  -2   15.64    1.63   5
   2  -2  -2   17.51    1.51   2
  -2   2   2   15.60    1.34   5
  -2   2   2   15.15    1.14   2
  -2   2   2   15.45    2.01   3
  -2   2   2   18.39    1.63   1
  -2   2   2   15.02    1.41   5
   2  -2  -2   17.38    1.78   5
   1  -2  -2   44.94    1.73   2
  -1   2   2   44.45    1.63   5
  -1   2   2   43.10    1.83   1
   1  -2  -2   48.72    2.06   1
   1  -2  -2   43.40    1.95   5
  -1   2   2   46.65    1.94   1
   1  -2  -2   46.23    2.07   5
   1  -2  -2   47.15    1.86   2
  -1   2   2   42.61    1.67   5
  -1   2   2   48.54    2.62   3
   0   2   2  840.49   17.60   1
   0  -2  -2  853.43   18.31   5
   0  -2  -2  834.88   17.57   1
   0  -2  -2  864.81   17.56   1
   0  -2  -2  847.78   18.34   5
   0  -2  -2  822.17   19.31   2
   0   2   2  808.66   18.74   3
   1   2   2    5.45    0.63   5
   1   2   2    5.51    0.91   3
  -1  -2  -2    6.35    0.70   2
  -1  -2  -2    5.83    0.72   5
   1   2   2    5.02    0.72   1
   1   2   2    4.64    0.45   2
  -1  -2  -2    4.77    0.68   5
  -1  -2  -2    6.91    0.83   1
   1   2   2    5.60    0.46   2
   1   2   2    4.82    0.61   5
   1   2   2    4.66    0.68   1
   2   2   2  359.53    9.13   1
   2   2   2  364.45    9.37   5
  -2  -2  -2  376.87    9.25   1
  -2  -2  -2  380.67    9.12   2
  -2  -2  -2  385.28    9.59   5
   2   2   2  381.29    8.94   2
   2   2   2  394.74    9.24   1
  -2  -2  -2  372.05    9.59   5
   2   2   2  380.64    9.41   5
   3   2   2  209.67    6.59   5
  -3  -2  -2  189.23    6.11   2
  -3  -2  -2  194.38    6.13   2
   3   2   2  196.11    6.02   2
  -3  -2  -2  201.23    6.64   5
   3   2   2  196.98    6.23   1
  -3  -2  -2  204.48    6.37   1
  -4  -2  -2   22.87    2.45   5
  -4  -2  -2   20.35    2.20   2
  -4  -2  -2   23.12    2.49   5
   4   2   2   21.49    2.37   1
   4   2   2   17.92    2.22   5
   4   2   2   18.63    2.20   5
  -4  -2  -2   22.63    2.29   2
  -4  -2  -2   22.26    2.34   1
   5   2   2   27.45    2.96   5
  -5  -2  -2   25.34    2.66   2
  -5  -2  -2   29.43    3.17   5
   5   2   2   28.73    3.06   5
  -5  -2  -2   28.68    3.03   1
   5   2   2   33.46    3.27   1
  -5  -2  -2   25.40    2.77   2
  -5  -2  -2   33.48    3.23   5
  -6  -2  -2    0.47    1.43   1
   6   2   2    1.13    1.74   1
   6   2   2   -0.57    1.52   5
  -6  -2  -2    0.63    1.41   5
  -7  -2  -2    1.35    1.75   1
   7   2   2   -1.27    1.84   1
  -8  -2  -2   -0.49    1.91   1
   8   2   2    1.61    2.34   1
   9   2   2   -1.48    2.49   1
  -9  -2  -2    1.46    2.40   1
  -7   3   2   -2.91    1.64   1
   7  -3  -2   -1.15    1.88   5
   6  -3  -2    2.98    2.20   2
   6  -3  -2    1.93    1.95   5
   6  -3  -2    2.78    2.05   1
  -6   3   2    3.89    1.81   1
   5  -3  -2   -0.64    1.58   1
  -5   3   2    2.00    1.54   1
   5  -3  -2    0.98    1.66   2
   5  -3  -2   -1.38    1.50   5
  -4   3   2   10.84    1.55   5
   4  -3  -2    5.97    1.95   3
   4  -3  -2    9.95    2.05   5
   4  -3  -2   10.51    2.03   2
  -4   3   2    9.13    1.78   1
   4  -3  -2    8.25    1.96   5
   4  -3  -2    6.96    1.95   1
   4  -3  -2   11.01    2.07   2
   3  -3  -2   37.87    2.80   5
   3  -3  -2   34.15    2.44   2
   3  -3  -2   35.40    2.61   1
  -3   3   2   37.26    2.41   1
   3  -3  -2   34.18    2.52   2
   3  -3  -2   32.36    3.05   3
  -3   3   2   35.49    2.03   5
   3  -3  -2   29.48    2.51   5
   2  -3  -2  170.37    5.48   5
  -2   3   2  164.97    6.43   3
   2  -3  -2  173.61    6.49   3
   2  -3  -2  170.94    4.26   4
   2  -3  -2  172.96    5.46   5
   2  -3  -2  174.61    5.39   1
  -2   3   2  168.87    4.90   1
  -2   3   2  174.36    4.35   5
  -2   3   2  165.33    4.31   5
   2  -3  -2  167.84    5.03   2
   2  -3  -2  167.65    5.14   2
   1  -3  -2   84.82    2.87   1
  -1   3   2   86.58    4.11   3
   1  -3  -2   85.65    2.34   2
  -1   3   2   88.69    2.49   1
   1  -3  -2   85.88    2.42   2
   1  -3  -2   90.36    4.25   3
   1  -3  -2   81.08    2.83   5
   1  -3  -2   86.69    2.82   5
   0  -3  -2  966.84   20.17   1
   0  -3  -2  977.12   22.13   3
   1   3   2   12.07    1.40   3
  -1  -3  -2   11.22    0.90   5
  -1  -3  -2   12.31    0.84   5
   1   3   2   11.25    0.75   1
  -1  -3  -2   11.51    1.43   3
  -1  -3  -2   11.91    0.92   1
   2   3   2  310.53    7.76   3
  -2  -3  -2  306.63    8.06   5
   2   3   2  301.10    7.63   5
   2   3   2  299.86    6.94   2
  -2  -3  -2  311.59    8.00   5
   2   3   2  310.45    7.66   1
   2   3   2  324.63    7.70   1
  -2  -3  -2  313.01    7.61   2
   2   3   2  305.29    7.62   5
  -2  -3  -2  299.02    7.72   1
   3   3   2   33.64    1.64   3
   3   3   2   34.34    2.38   5
  -3  -3  -2   35.22    2.46   5
  -3  -3  -2   32.89    2.53   5
   3   3   2   37.83    2.41   5
   3   3   2   31.61    2.33   1
  -3  -3  -2   33.64    2.36   2
  -3  -3  -2   33.04    2.37   1
   3   3   2   29.38    2.09   2
  -3  -3  -2   37.35    2.48   2
  -4  -3  -2   -0.52    0.91   2
   4   3   2   -1.24    0.87   2
  -4  -3  -2   -0.96    1.04   5
  -4  -3  -2   -0.12    1.05   5
  -4  -3  -2   -0.60    1.03   1
   4   3   2   -0.16    1.16   1
   4   3   2    0.58    1.06   5
  -4  -3  -2    1.17    1.17   2
  -5  -3  -2   10.45    2.07   2
   5   3   2    9.75    2.08   5
   5   3   2    8.06    2.03   5
  -5  -3  -2   10.45    2.14   5
   5   3   2    7.11    1.88   1
  -5  -3  -2   11.30    2.14   1
  -5  -3  -2    8.79    1.88   2
   5   3   2    7.40    1.76   2
  -5  -3  -2    7.76    2.00   5
   6   3   2   10.77    2.56   1
   6   3   2   15.99    2.92   5
  -6  -3  -2   11.69    2.68   5
  -6  -3  -2   14.02    2.46   2
  -6  -3  -2   15.70    2.82   5
  -6  -3  -2   16.89    2.95   1
   7   3   2   -0.81    1.59   1
  -7  -3  -2   -1.88    1.25   1
  -8  -3  -2    5.12    2.53   1
   8   3   2    6.56    2.69   1
   9   3   2    4.05    2.66   1
  -9  -3  -2    2.13    2.38   1
  -7   4   2    0.65    1.93   1
  -6   4   2    9.29    2.26   1
   6  -4  -2    6.94    2.50   5
   6  -4  -2   11.67    3.01   2
   5  -4  -2   -0.81    1.38   5
   5  -4  -2   -2.37    1.50   2
  -5   4   2    1.18    1.50   1
   4  -4  -2   42.41    3.53   5
   4  -4  -2   51.71    3.60   2
   4  -4  -2   47.53    3.60   5
  -4   4   2   49.66    3.01   1
   4  -4  -2   47.00    3.44   2
   4  -4  -2   43.67    3.47   1
   3  -4  -2   30.97    2.47   5
   3  -4  -2   23.04    2.20   2
  -3   4   2   24.15    1.93   1
   3  -4  -2   27.88    1.50   4
   3  -4  -2   32.08    2.65   1
   3  -4  -2   26.54    3.11   3
   3  -4  -2   21.48    2.27   5
   3  -4  -2   27.14    2.23   2
   2  -4  -2   90.91    3.62   5
   2  -4  -2   90.02    3.60   1
   2  -4  -2   89.56    3.08   4
   2  -4  -2   90.46    3.29   2
  -2   4   2   85.87    2.82   1
   2  -4  -2   94.52    4.94   3
   2  -4  -2   88.18    3.63   5
   2  -4  -2   87.83    3.22   2
  -1   4   2  104.49    5.00   3
   1  -4  -2  106.09    3.65   4
   1  -4  -2   97.20    3.04   5
   1  -4  -2  100.25    3.21   1
   1  -4  -2  104.59    4.88   3
   1  -4  -2   97.49    3.07   5
   0  -4  -2  165.49    3.82   1
   0  -4  -2  161.00    6.01   3
   0   4   2  166.46    6.12   3
  -1  -4  -2   23.91    1.21   1
   1   4   2   25.19    2.20   3
  -1  -4  -2   23.37    2.10   3
  -2  -4  -2  395.57    9.21   2
  -2  -4  -2  403.00    9.86   5
  -2  -4  -2  401.35    9.55   1
  -2  -4  -2  400.85    9.81   5
   2   4   2  386.03    9.15   1
   2   4   2  404.37   10.22   3
   2   4   2  389.62    8.98   5
  -2  -4  -2  402.55   10.20   3
   3   4   2   19.70    1.87   1
  -3  -4  -2   16.94    1.74   2
  -3  -4  -2   20.65    1.97   1
  -3  -4  -2   19.31    2.00   5
   3   4   2   16.80    1.57   5
   3   4   2   17.88    1.66   5
  -3  -4  -2   13.91    1.75   5
   3   4   2   17.83    1.39   2
  -4  -4  -2  335.22    9.73   2
  -4  -4  -2  328.56    9.65   1
  -4  -4  -2  324.90   10.09   5
  -4  -4  -2  331.88   10.25   5
   4   4   2  337.20    9.81   5
   4   4   2  321.43    9.57   5
  -4  -4  -2  318.14    9.61   2
   4   4   2  350.48    9.85   1
  -5  -4  -2   27.36    3.07   5
   5   4   2   23.78    2.73   5
  -5  -4  -2   21.48    2.68   2
  -5  -4  -2   23.76    2.80   1
  -5  -4  -2   26.74    2.78   2
   5   4   2   24.98    2.39   2
  -5  -4  -2   21.66    2.78   5
   5   4   2   18.89    2.67   1
  -6  -4  -2   98.28    6.01   5
  -6  -4  -2   98.61    5.91   5
   6   4   2   96.61    5.70   1
  -6  -4  -2  101.21    5.73   2
  -6  -4  -2   90.94    5.61   1
  -7  -4  -2   -0.50    1.53   5
  -7  -4  -2   -1.58    1.41   1
   7   4   2   -2.43    1.40   1
  -8  -4  -2    9.17    3.06   1
   8   4   2   10.83    3.07   1
  -9  -4  -2   -2.26    1.85   1
   9   4   2    4.41    2.91   1
   6  -5  -2    0.25    1.96   5
   6  -5  -2    0.15    2.08   2
  -6   5   2   -1.58    1.35   1
  -5   5   2    0.73    1.28   1
   5  -5  -2    0.98    1.57   5
   5  -5  -2    3.73    1.91   2
   4  -5  -2   -0.25    1.39   2
   4  -5  -2   -0.21    1.28   2
  -4   5   2    0.01    1.05   1
   4  -5  -2    0.53    1.31   5
   3  -5  -2   27.40    2.31   2
   3  -5  -2   23.84    2.42   5
   3  -5  -2   29.57    1.98   4
  -3   5   2   27.81    1.70   1
   3  -5  -2   26.31    2.45   5
   3  -5  -2   33.14    2.57   2
   3  -5  -2   34.56    2.80   1
   2  -5  -2   55.23    2.69   4
   2  -5  -2   55.26    2.76   5
   2  -5  -2   54.14    2.40   2
   2  -5  -2   49.39    2.69   5
   2  -5  -2   55.52    2.47   2
   2  -5  -2   52.70    2.74   1
   1  -5  -2   47.12    2.70   4
   1  -5  -2   54.39    2.18   1
   1  -5  -2   56.05    2.05   5
   1  -5  -2   53.29    1.99   5
   1  -5  -2   56.54    3.81   3
   0  -5  -2  397.67   11.51   3
  -1  -5  -2    0.61    0.50   1
  -1  -5  -2    2.42    1.26   3
  -2  -5  -2  576.32   12.76   2
  -2  -5  -2  590.46   13.68   5
  -2  -5  -2  591.58   14.72   3
   2   5   2  597.14   12.51   1
   2   5   2  594.34   12.57   1
  -2  -5  -2  579.50   13.68   5
  -2  -5  -2  585.57   13.29   1
  -3  -5  -2   10.39    1.50   3
   3   5   2   11.43    1.05   5
  -3  -5  -2   14.03    1.58   2
  -3  -5  -2   12.03    1.60   5
   3   5   2   11.12    1.10   5
  -3  -5  -2    9.59    1.46   1
   3   5   2    8.89    1.28   1
  -3  -5  -2    8.87    1.51   5
   3   5   2   12.73    1.48   1
  -4  -5  -2  136.86    5.51   2
   4   5   2  138.89    5.29   1
  -4  -5  -2  129.77    5.74   5
  -4  -5  -2  152.96    6.04   5
   4   5   2  147.37    5.21   5
  -4  -5  -2  142.83    5.52   2
  -4  -5  -2  133.58    5.41   1
  -5  -5  -2    0.82    1.29   5
   5   5   2    1.50    1.37   1
  -5  -5  -2    1.31    1.40   2
  -5  -5  -2    2.45    1.68   5
  -5  -5  -2    5.64    1.81   2
   5   5   2    0.51    1.22   5
  -5  -5  -2    1.67    1.46   1
  -6  -5  -2   18.62    2.93   2
  -6  -5  -2   20.41    3.09   5
   6   5   2   17.19    2.87   1
  -6  -5  -2   21.63    3.14   1
  -7  -5  -2   -1.71    1.58   1
  -7  -5  -2    1.98    1.93   5
   7   5   2   -0.23    1.56   1
   8   5   2    8.76    3.01   1
  -8  -5  -2    4.65    2.52   1
   9   5   2    1.62    2.39   1
  -9  -5  -2    3.91    2.52   1
   6  -6  -2    2.83    2.35   2
  -5   6   2   -0.14    1.06   1
   5  -6  -2   -0.51    1.72   2
   5  -6  -2    0.27    1.76   5
  -4   6   2    0.43    0.72   1
   4  -6  -2    0.23    1.42   5
   4  -6  -2   -0.84    1.31   2
   4  -6  -2    1.07    1.47   2
   3  -6  -2    2.52    1.22   2
   3  -6  -2    5.17    1.53   5
   3  -6  -2    4.27    1.43   2
   3  -6  -2    1.72    1.29   5
   2  -6  -2    2.72    0.91   2
   2  -6  -2    4.54    1.26   4
   2  -6  -2    2.89    1.05   5
   2  -6  -2    3.74    0.93   2
   2  -6  -2    3.48    1.03   5
   1  -6  -2    0.90    0.57   5
   1  -6  -2    0.57    0.54   5
   1  -6  -2    1.15    1.05   4
   0  -6  -2   28.49    2.93   3
  -1  -6  -2   49.62    3.45   3
  -2  -6  -2   12.76    1.22   5
  -2  -6  -2   14.50    1.28   1
  -2  -6  -2   13.97    1.98   3
  -2  -6  -2   14.01    0.93   2
  -2  -6  -2   14.85    1.31   5
  -3  -6  -2   99.64    4.18   5
  -3  -6  -2   99.40    3.98   1
  -3  -6  -2  101.69    3.83   2
  -3  -6  -2   95.98    4.38   3
  -3  -6  -2   97.91    4.13   5
   3   6   2  101.85    3.43   1
  -4  -6  -2   15.75    2.08   1
  -4  -6  -2   18.89    2.32   5
  -4  -6  -2   14.93    2.01   2
  -4  -6  -2   16.07    2.27   5
  -4  -6  -2   13.72    1.72   3
   4   6   2   16.73    1.59   5
  -4  -6  -2   14.20    1.92   2
   4   6   2   16.28    1.86   1
  -5  -6  -2   28.02    3.04   1
   5   6   2   30.86    2.93   1
  -5  -6  -2   32.85    3.32   5
  -5  -6  -2   26.08    2.86   2
  -5  -6  -2   25.40    3.01   5
  -5  -6  -2   26.00    2.90   2
   5   6   2   26.88    2.51   5
  -6  -6  -2   29.75    3.46   1
   6   6   2   32.63    3.39   1
  -6  -6  -2   21.76    3.18   2
  -6  -6  -2   32.44    3.71   5
   7   6   2    4.97    2.22   1
  -7  -6  -2    2.15    1.84   1
  -7  -6  -2    3.07    1.98   5
  -8  -6  -2    0.75    1.90   1
   8   6   2    4.03    2.40   1
   9   6   2    2.09    2.56   1
  -9  -6  -2   -0.43    2.20   1
   5  -7  -2   -1.75    1.77   2
   4  -7  -2   10.62    2.33   2
   4  -7  -2    9.30    2.24   5
   4  -7  -2    6.88    2.00   2
   3  -7  -2    4.98    1.55   2
   3  -7  -2    3.42    1.38   2
   3  -7  -2    4.91    1.57   5
   3  -7  -2    1.91    1.49   5
   2  -7  -2    3.42    1.20   5
   2  -7  -2    4.56    1.08   2
   2  -7  -2    4.12    1.19   5
   2  -7  -2    4.44    1.05   2
   2  -7  -2    5.70    1.57   4
   1  -7  -2    6.01    0.88   5
   1  -7  -2    7.80    0.91   5
   1  -7  -2   10.21    1.84   4
   0  -7  -2    2.69    1.39   4
  -2  -7  -2    0.06    0.67   5
  -2  -7  -2    0.55    0.74   5
  -2  -7  -2    0.34    1.30   3
  -3  -7  -2   18.74    2.38   3
  -3  -7  -2   22.50    1.83   2
  -3  -7  -2   18.91    1.92   1
  -3  -7  -2   19.80    1.95   5
  -3  -7  -2   25.59    2.21   5
  -4  -7  -2    5.30    1.62   5
  -4  -7  -2    4.39    1.56   3
   4   7   2    5.15    1.30   1
  -4  -7  -2    5.94    1.57   2
  -4  -7  -2    7.72    1.78   5
  -4  -7  -2    8.01    1.70   1
  -4  -7  -2    7.25    1.68   2
  -5  -7  -2    2.12    1.53   2
  -5  -7  -2    4.11    1.71   1
  -5  -7  -2    3.46    1.73   2
   5   7   2    2.19    1.42   1
  -5  -7  -2    5.25    1.79   5
   6   7   2   10.22    2.18   1
  -6  -7  -2    7.38    2.30   5
  -6  -7  -2    6.26    2.19   2
  -6  -7  -2    8.19    2.29   1
   7   7   2    2.34    1.96   1
  -7  -7  -2    2.29    1.93   1
  -7  -7  -2   -0.09    1.82   5
  -8  -7  -2   -1.15    1.72   1
   8   7   2   -0.94    1.77   1
  -9  -7  -2    0.40    2.43   1
   9   7   2    4.81    2.86   1
   4  -8  -2   -0.42    1.80   2
   3  -8  -2   -1.31    1.10   5
   3  -8  -2    1.88    1.38   2
   3  -8  -2   -0.32    1.05   2
   2  -8  -2    1.64    1.13   5
   2  -8  -2    1.85    1.13   5
   2  -8  -2    0.36    1.28   4
   2  -8  -2    3.17    1.04   2
   2  -8  -2    3.19    1.04   2
   1  -8  -2   -0.16    0.67   5
   1  -8  -2   -0.06    0.65   5
   1  -8  -2   -0.07    1.18   4
   0  -8  -2   30.35    3.10   4
  -2  -8  -2   32.63    1.92   5
  -2  -8  -2   31.79    1.92   5
  -3  -8  -2   21.70    1.87   2
  -3  -8  -2   16.18    1.89   5
  -3  -8  -2   19.06    1.76   2
  -3  -8  -2   19.14    2.04   5
  -4  -8  -2    0.59    1.25   5
   4   8   2    2.67    0.95   1
  -4  -8  -2    6.05    1.82   3
  -4  -8  -2    3.61    1.45   5
  -4  -8  -2    4.33    1.56   2
  -4  -8  -2    0.95    1.30   2
  -5  -8  -2    3.73    1.67   5
  -5  -8  -2    2.91    1.68   2
  -5  -8  -2    2.25    1.59   2
   5   8   2    2.18    1.36   1
  -6  -8  -2   -0.34    1.63   2
   6   8   2    0.86    1.38   1
  -6  -8  -2    0.27    1.46   5
   7   8   2   -1.35    1.51   1
  -7  -8  -2   -0.40    1.79   5
   8   8   2   -2.62    1.76   1
   3  -9  -2    1.91    1.59   2
   3  -9  -2    1.17    1.40   2
   2  -9  -2    1.87    1.21   5
   2  -9  -2    3.35    1.17   2
   2  -9  -2    1.68    1.11   2
   2  -9  -2    2.51    1.25   5
   1  -9  -2    5.64    1.09   5
   1  -9  -2    5.04    1.05   5
   1  -9  -2    3.00    1.72   4
   0  -9  -2   15.20    2.63   4
  -1  -9  -2    2.34    1.64   4
  -2  -9  -2   17.20    1.54   5
  -2  -9  -2   15.59    1.49   5
  -3  -9  -2   -0.15    1.07   5
  -3  -9  -2    0.71    0.96   2
  -3  -9  -2   -0.46    0.83   5
  -3  -9  -2   -0.17    0.90   2
  -4  -9  -2   -1.35    1.07   2
  -4  -9  -2    0.44    1.22   2
  -4  -9  -2    1.28    1.21   5
  -4  -9  -2    1.77    1.39   5
  -5  -9  -2   -0.56    1.44   2
  -5  -9  -2   -0.01    1.50   2
  -5  -9  -2   -1.25    1.26   5
   5   9   2   -0.98    1.03   1
   6   9   2    3.94    1.64   1
  -6  -9  -2    2.91    1.91   5
  -6  -9  -2    1.29    1.87   2
   7   9   2    3.23    1.93   1
  -7  -9  -2    7.15    2.47   5
  -8  -9  -2   -0.28    2.04   5
   8   9   2    0.95    2.02   1
   3 -10  -2    1.33    1.61   2
   2 -10  -2   -0.03    1.07   2
   2 -10  -2    2.25    1.32   2
   1 -10  -2    5.86    1.18   5
   0 -10  -2    2.31    1.84   4
  -1 -10  -2   -0.27    1.42   4
  -2 -10  -2    0.23    0.86   5
  -2 -10  -2    0.20    1.63   4
  -2 -10  -2   -1.11    0.73   5
  -3 -10  -2    3.35    1.23   5
  -3 -10  -2    4.48    1.31   2
  -3 -10  -2    6.20    1.37   2
  -3 -10  -2    7.14    1.63   5
  -4 -10  -2    4.56    1.63   2
  -4 -10  -2    2.62    1.41   5
  -4 -10  -2    4.72    1.68   2
  -5 -10  -2    4.76    1.96   2
  -5 -10  -2    2.98    1.76   5
  -6 -10  -2    5.48    2.38   2
  -6 -10  -2    7.14    2.45   5
   6  10   2    6.73    1.63   1
   7  10   2    2.07    1.73   1
   1 -11  -2   -0.26    0.89   2
   1 -11  -2    0.61    1.04   5
   0 -11  -2    1.69    1.99   4
  -1 -11  -2    3.03    2.10   4
  -2 -11  -2   -0.58    0.93   5
  -2 -11  -2   -0.91    1.79   4
  -2 -11  -2    2.55    0.93   2
  -2 -11  -2    0.91    0.82   2
  -3 -11  -2   13.03    1.74   2
  -3 -11  -2    8.38    1.63   2
  -4 -11  -2   -0.17    1.32   2
  -4 -11  -2    1.41    1.45   2
  -5 -11  -2    0.98    1.71   2
  -6 -11  -2   -0.18    1.87   2
  -1 -12  -2    0.57    2.04   4
  -2 -12  -2    2.14    2.01   4
  -2 -12  -2    1.25    1.07   2
  -3 -12  -2   -2.22    1.84   4
  -3 -12  -2    0.48    1.25   2
  -4 -12  -2    1.33    2.08   4
  -4 -11   3   -1.08    1.81   2
  -4 -11   3    2.19    2.57   4
  -3 -11   3   -0.38    2.07   4
  -3 -11   3    2.74    1.96   2
  -2 -11   3    1.76    1.68   2
  -2 -11   3   -2.45    2.05   4
  -1 -11   3    1.95    2.26   4
   0 -11   3    0.83    2.44   4
  -6 -10   3   -0.89    2.78   4
   6  10  -3    4.24    2.15   1
  -5 -10   3    5.94    2.47   2
  -5 -10   3    3.11    2.71   4
   5  10  -3    3.62    1.79   1
  -4 -10   3    0.53    1.85   2
  -4 -10   3    0.48    2.22   4
  -3 -10   3    7.26    2.15   2
  -3 -10   3    3.97    2.52   4
  -2 -10   3    5.27    1.97   2
  -2 -10   3    1.22    2.13   4
  -1 -10   3    2.46    2.40   4
  -1 -10   3    0.75    1.48   2
   0 -10   3    2.69    2.55   4
   0 -10   3    2.89    1.59   2
   1 -10   3   -0.08    1.55   2
   1 -10   3    0.92    2.30   4
   2 -10   3    2.57    2.67   4
  -7  -9   3    0.17    2.48   4
  -6  -9   3   -0.01    2.05   5
  -6  -9   3    1.01    2.47   4
   6   9  -3    0.09    1.97   1
   5   9  -3    1.77    1.72   1
  -5  -9   3    1.80    2.41   4
  -5  -9   3    1.80    2.11   2
  -5  -9   3    0.21    1.74   5
  -4  -9   3    1.98    1.78   5
  -4  -9   3   -0.44    1.66   2
   4   9  -3    3.91    1.65   1
  -4  -9   3   -0.67    2.08   4
  -3  -9   3    1.06    1.46   5
  -3  -9   3    0.62    1.56   2
  -3  -9   3    3.55    2.08   4
   3   9  -3    3.22    1.20   1
  -2  -9   3   12.46    2.18   2
  -2  -9   3   13.89    2.36   2
  -2  -9   3   10.55    3.04   4
  -2  -9   3   11.32    2.25   5
  -1  -9   3   -0.96    1.26   2
  -1  -9   3    2.13    1.36   5
  -1  -9   3    1.72    2.00   4
  -1  -9   3    1.55    1.34   2
   0  -9   3    3.42    1.56   2
   0  -9   3    0.24    2.00   4
   0  -9   3    5.21    1.64   5
   1  -9   3    4.13    1.67   2
   1  -9   3    4.68    2.41   4
   2  -9   3    0.11    1.48   2
   2  -9   3    2.50    2.23   4
   3  -9   3    1.61    2.39   4
   3  -9   3    1.59    1.84   2
   7   8  -3    1.17    2.03   1
  -7  -8   3    0.69    2.75   4
  -6  -8   3    0.45    2.37   4
   6   8  -3   -1.24    1.84   1
  -6  -8   3    1.76    2.14   5
  -5  -8   3   12.43    3.28   4
  -5  -8   3    7.57    2.48   5
  -5  -8   3    6.50    2.35   2
   5   8  -3   12.47    2.49   1
  -4  -8   3    2.84    2.07   4
   4   8  -3   -0.14    1.35   1
  -4  -8   3    4.25    1.87   2
  -4  -8   3   -0.52    1.36   5
  -3  -8   3    7.02    2.00   5
  -3  -8   3    4.63    1.83   2
   3   8  -3    9.31    1.77   1
  -3  -8   3    7.35    2.65   4
  -3  -8   3    8.81    2.17   2
  -2  -8   3    3.08    1.53   2
  -2  -8   3    1.38    1.39   5
   2   8  -3    2.88    1.06   1
  -2  -8   3    2.02    1.86   4
  -2  -8   3    2.91    1.47   2
  -1  -8   3   -0.54    1.20   2
  -1  -8   3    1.51    1.24   5
  -1  -8   3    1.07    1.72   4
  -1  -8   3    0.26    1.25   2
   0  -8   3    0.35    1.08   2
   0  -8   3    2.44    1.95   4
   0  -8   3    2.16    1.15   5
   1  -8   3   10.47    1.85   2
   1  -8   3    9.79    2.83   4
   1  -8   3    8.87    1.83   5
   2  -8   3    1.21    1.88   4
   2  -8   3    2.52    1.47   2
   2  -8   3    3.29    1.46   5
   3  -8   3    5.06    1.90   2
   3  -8   3    2.95    2.31   4
   4  -8   3    2.85    2.17   2
  -8  -7   3    0.82    2.68   1
   8   7  -3    0.92    2.36   1
  -8  -7   3    1.21    2.77   4
  -7  -7   3   -0.79    2.14   1
   7   7  -3   -2.21    1.65   1
  -7  -7   3   -0.20    2.31   4
  -6  -7   3   -1.15    1.62   5
  -6  -7   3   -1.15    1.78   4
   6   7  -3   -0.80    1.64   1
  -6  -7   3    1.15    1.91   1
   5   7  -3    2.25    1.75   1
  -5  -7   3    3.19    1.85   2
  -5  -7   3   -0.62    1.34   1
  -5  -7   3    1.39    2.02   4
  -5  -7   3   -0.91    1.38   5
  -4  -7   3    1.66    1.65   5
  -4  -7   3    0.46    1.45   1
  -4  -7   3    1.92    1.83   4
  -4  -7   3    2.58    1.69   2
   4   7  -3    3.51    1.64   1
  -3  -7   3    0.03    1.26   5
  -3  -7   3    0.53    1.34   2
  -3  -7   3    1.59    1.99   4
  -3  -7   3    1.66    1.44   1
  -3  -7   3    1.53    1.42   2
   3   7  -3    1.82    1.38   1
  -2  -7   3   11.23    1.97   2
  -2  -7   3    8.75    2.53   4
  -2  -7   3   10.89    2.07   5
  -2  -7   3   11.27    2.00   1
   2   7  -3   12.92    1.72   1
  -2  -7   3    9.87    2.02   5
  -2  -7   3   10.30    1.95   2
  -1  -7   3    7.39    1.68   5
  -1  -7   3   11.14    2.68   4
  -1  -7   3    7.41    1.70   5
  -1  -7   3    7.94    1.72   2
  -1  -7   3    5.95    1.55   2
   1   7  -3    8.00    1.28   1
   0  -7   3    1.21    1.19   5
   0  -7   3    2.80    1.73   4
   0  -7   3    1.15    1.22   5
   0  -7   3    5.08    1.41   2
   0   7  -3    3.48    0.81   1
   1  -7   3   16.41    1.97   2
   1  -7   3   12.16    1.95   5
   1  -7   3   16.59    2.18   5
   1  -7   3   17.92    3.14   4
   2  -7   3    0.89    1.23   5
   2  -7   3    3.52    1.42   2
   2  -7   3    2.60    1.95   4
   3  -7   3    1.68    1.41   5
   3  -7   3    5.83    2.47   4
   3  -7   3    1.56    1.52   2
   4  -7   3    2.13    1.89   2
   4  -7   3    0.49    2.08   4
   4  -7   3    2.21    1.87   5
   5  -7   3   -0.71    2.00   2
  -8  -6   3   -0.05    2.32   1
   8   6  -3    1.77    2.48   1
   7   6  -3   -1.37    1.74   1
  -7  -6   3   -2.10    1.77   1
  -7  -6   3   -0.18    2.04   4
  -6  -6   3    1.18    2.09   5
  -6  -6   3    2.80    2.24   4
   6   6  -3    1.82    1.97   1
  -6  -6   3    1.22    1.79   1
  -5  -6   3    5.07    2.15   5
   5   6  -3    7.93    2.19   1
  -5  -6   3    3.82    2.07   4
  -5  -6   3    6.43    2.07   2
  -5  -6   3    7.10    2.22   1
  -4  -6   3    2.73    1.63   1
  -4  -6   3    5.37    2.04   2
  -4  -6   3    1.13    1.44   5
  -4  -6   3    3.43    1.66   2
  -4  -6   3    0.57    1.85   4
   4   6  -3    1.48    1.47   1
  -3  -6   3    8.94    1.95   2
   3   6  -3    8.47    1.85   1
  -3  -6   3    9.57    2.12   5
  -3  -6   3    9.03    2.32   4
  -3  -6   3    9.17    1.94   2
  -3  -6   3    6.11    1.83   5
  -3  -6   3    7.80    1.90   1
  -2  -6   3   39.69    3.08   5
  -2  -6   3   36.83    3.76   4
  -2  -6   3   36.83    2.83   2
  -2  -6   3   41.41    2.99   2
  -2  -6   3   38.68    3.05   5
  -2  -6   3   36.24    2.83   1
   2   6  -3   36.71    2.65   1
  -1  -6   3   -1.17    0.93   2
   1   6  -3    1.22    0.89   1
  -1  -6   3    0.38    1.25   4
  -1  -6   3    2.08    1.15   5
  -1  -6   3    0.43    1.01   1
  -1  -6   3    0.57    1.03   2
   0  -6   3   29.57    2.45   1
   0   6  -3   22.62    1.74   1
   0  -6   3   24.57    2.28   5
   0  -6   3   26.83    2.15   2
   0  -6   3   30.68    2.48   5
   0  -6   3   30.73    3.38   4
   1  -6   3    6.04    1.53   1
  -1   6  -3    7.26    1.15   1
   1  -6   3    4.47    1.80   4
   1  -6   3    7.35    1.42   2
   1  -6   3    6.30    1.46   5
   1  -6   3    6.90    1.57   5
   2  -6   3   -0.02    1.03   5
   2  -6   3   -0.49    1.04   5
   2  -6   3    0.42    1.54   4
   2  -6   3    0.62    1.13   2
  -2   6  -3   -0.04    0.84   1
   3  -6   3   -0.29    1.62   4
  -3   6  -3    0.28    1.08   1
   3  -6   3   -1.22    1.18   5
   3  -6   3    1.76    1.41   2
   4  -6   3   -0.17    1.87   4
   4  -6   3   -0.03    1.44   5
   4  -6   3    2.04    1.66   2
  -4   6  -3    0.30    1.19   1
   5  -6   3    0.15    1.91   2
   5  -6   3    1.75    2.02   5
  -5   6  -3   -0.12    1.37   1
  -6   6  -3    0.26    1.69   1
  -8  -5   3    3.36    2.55   1
   8   5  -3    4.27    2.70   1
  -7  -5   3    4.14    2.33   1
   7   5  -3    0.85    1.87   1
  -7  -5   3    2.16    2.12   4
  -6  -5   3    8.18    2.62   5
   6   5  -3    3.82    2.04   1
  -6  -5   3    2.66    2.15   4
  -6  -5   3    7.97    2.44   1
  -5  -5   3   14.81    2.66   2
  -5  -5   3   13.90    2.86   4
  -5  -5   3   11.20    2.60   5
  -5  -5   3   13.23    2.76   1
   5   5  -3   16.42    2.79   1
  -4  -5   3   -1.03    1.23   5
  -4  -5   3    1.40    1.45   2
  -4  -5   3   -1.06    1.30   1
  -4  -5   3    0.14    1.28   5
   4   5  -3   -1.00    1.22   1
  -4  -5   3    0.55    1.57   4
  -4  -5   3   -1.28    1.16   2
   4   5  -3    0.34    1.19   5
  -3  -5   3    8.51    2.00   5
  -3  -5   3   11.15    2.38   4
  -3  -5   3    9.55    1.86   2
  -3  -5   3   11.88    2.09   1
   3   5  -3   11.76    1.79   5
  -3  -5   3   15.04    2.13   2
  -3  -5   3   11.23    2.12   5
   3   5  -3   11.76    2.05   1
  -2  -5   3   34.08    3.35   4
  -2  -5   3   40.04    2.93   5
   2   5  -3   37.03    2.63   1
  -2  -5   3   38.64    2.84   1
  -2  -5   3   34.11    2.63   2
  -2  -5   3   35.15    2.73   2
  -2  -5   3   35.20    2.84   5
   2   5  -3   36.66    2.37   5
  -1  -5   3    9.30    1.54   5
  -1  -5   3    8.00    1.52   1
   1   5  -3    8.48    1.11   5
  -1  -5   3    9.37    1.48   2
  -1  -5   3    8.22    1.55   5
  -1  -5   3    8.38    1.42   2
   1   5  -3    8.60    1.37   1
  -1  -5   3    7.98    2.01   4
   0  -5   3   21.87    2.02   5
   0  -5   3   19.17    2.57   4
   0   5  -3   22.37    1.22   5
   0  -5   3   21.16    1.98   1
   0  -5   3   20.77    2.00   5
   0   5  -3   21.77    1.79   1
   0  -5   3   23.30    1.91   2
   1  -5   3   46.78    2.68   2
   1  -5   3   48.35    3.00   5
   1  -5   3   47.18    2.87   5
   1  -5   3   55.54    3.84   4
  -1   5  -3   48.04    2.54   1
   1  -5   3   46.12    2.90   1
   2  -5   3    1.47    1.19   1
   2  -5   3    2.40    1.47   4
  -2   5  -3    0.88    1.03   1
   2  -5   3    1.14    1.07   5
   2  -5   3    2.13    1.12   2
   2  -5   3    1.56    1.20   5
   3  -5   3    8.14    1.78   2
   3  -5   3   12.77    2.16   5
   3  -5   3   12.15    2.16   5
  -3   5  -3   10.59    1.69   1
   3  -5   3   12.15    2.12   1
   3  -5   3   12.41    2.50   4
   4  -5   3    5.01    2.06   4
   4  -5   3    4.76    1.81   2
  -4   5  -3    6.99    1.72   1
   4  -5   3    4.70    1.91   5
   5  -5   3    0.29    1.63   2
  -5   5  -3    0.71    1.40   1
   5  -5   3   -0.96    1.52   5
   5  -5   3   -0.35    1.77   4
   6  -5   3    1.07    2.04   5
  -6   5  -3    2.94    1.87   1
   6  -5   3    0.18    2.23   2
  -8  -4   3    1.78    2.11   1
   8   4  -3    0.03    2.23   1
  -7  -4   3    5.44    2.51   1
   7   4  -3    2.24    2.17   1
  -7  -4   3    1.08    1.83   4
  -6  -4   3    1.22    1.71   1
   6   4  -3    4.25    2.10   1
  -6  -4   3    5.51    2.09   4
  -6  -4   3    4.61    2.13   5
  -5  -4   3    4.24    1.98   5
   5   4  -3    8.64    2.18   1
  -5  -4   3    3.81    1.84   2
  -5  -4   3    2.86    1.86   1
  -5  -4   3    4.30    1.91   4
  -4  -4   3   47.68    3.80   5
  -4  -4   3   42.75    3.41   2
  -4  -4   3   51.20    3.78   1
  -4  -4   3   44.38    3.74   4
   4   4  -3   50.38    3.32   2
  -4  -4   3   49.56    4.05   5
  -4  -4   3   46.40    3.48   2
   4   4  -3   39.67    3.44   1
  -3  -4   3   39.25    2.97   2
  -3  -4   3   42.52    3.13   2
  -3  -4   3   42.98    3.11   1
  -3  -4   3   41.36    3.26   5
  -3  -4   3   44.55    3.38   4
  -3  -4   3   39.86    3.17   5
   3   4  -3   37.15    2.86   5
   3   4  -3   38.32    3.03   1
   2   4  -3  199.16    6.51   5
   2   4  -3  207.68    6.71   5
  -2  -4   3  201.04    6.75   2
  -2  -4   3  219.63    6.88   2
  -2  -4   3  200.35    7.11   5
   2   4  -3  206.68    6.64   1
  -2  -4   3  201.35    7.49   4
  -2  -4   3  201.04    7.08   5
  -2  -4   3  211.91    6.90   1
   1   4  -3  195.47    6.17   1
   1   4  -3  201.47    6.09   5
  -1  -4   3  193.35    6.52   5
  -1  -4   3  201.74    6.25   2
  -1  -4   3  199.03    6.33   1
  -1  -4   3  203.58    7.35   4
  -1  -4   3  198.44    6.22   2
  -1  -4   3  204.16    6.61   5
   1   4  -3  195.99    5.98   5
   0  -4   3  120.32    4.24   2
   0  -4   3  116.39    4.47   5
   0  -4   3  114.36    4.39   1
   0   4  -3  120.29    3.96   5
   0   4  -3  119.26    3.91   5
   0  -4   3  119.79    4.53   5
   0  -4   3  110.21    5.11   4
   0   4  -3  108.65    4.09   1
   1  -4   3  213.07    6.86   5
   1  -4   3  210.69    6.65   1
  -1   4  -3  218.64    6.01   5
   1  -4   3  220.21    6.44   2
   1  -4   3  217.70    6.84   5
  -1   4  -3  216.30    6.30   1
   1  -4   3  214.57    7.63   4
  -2   4  -3    0.71    0.97   1
  -2   4  -3    0.74    0.79   5
   2  -4   3    2.32    1.52   4
   2  -4   3    0.62    0.96   5
   2  -4   3    1.68    1.04   2
   2  -4   3    1.82    1.06   5
   2  -4   3    3.35    1.24   1
   3  -4   3   31.03    2.63   2
   3  -4   3   39.41    3.02   1
   3  -4   3   30.65    2.85   5
   3  -4   3   34.00    3.05   5
  -3   4  -3   35.61    2.69   1
   3  -4   3   39.31    3.38   4
   4  -4   3    1.55    1.50   5
   4  -4   3    4.27    2.02   4
   4  -4   3    2.74    1.62   1
  -4   4  -3    2.60    1.41   1
   4  -4   3    0.17    1.32   2
   5  -4   3   -1.52    1.42   4
   5  -4   3    1.19    1.81   2
   5  -4   3   -0.20    1.55   5
  -5   4  -3   -0.89    1.29   1
   6  -4   3    0.87    1.93   2
   6  -4   3    0.13    1.83   5
  -6   4  -3   -1.16    1.54   1
   7  -4   3    0.36    2.26   5
  -7   4  -3   -0.28    1.86   1
   8   3  -3    4.42    2.85   1
  -8  -3   3    1.92    2.60   1
  -7  -3   3    2.27    2.10   1
   7   3  -3    7.75    2.82   1
   6   3  -3    9.73    2.59   1
  -6  -3   3    7.27    2.50   1
  -6  -3   3   11.15    2.27   4
  -5  -3   3   65.92    4.71   5
  -5  -3   3   49.73    3.85   2
  -5  -3   3   51.39    3.70   4
  -5  -3   3   46.59    4.14   1
  -5  -3   3   64.96    4.84   5
   5   3  -3   51.57    4.07   5
  -4  -3   3    4.21    1.53   4
   4   3  -3    1.45    1.30   5
  -4  -3   3    3.79    1.49   2
  -4  -3   3    2.30    1.44   2
  -4  -3   3    6.18    1.82   5
   4   3  -3    2.59    1.51   1
  -4  -3   3    0.87    1.58   5
   4   3  -3    1.87    1.37   2
   4   3  -3    4.02    1.67   5
  -4  -3   3    4.15    1.74   1
  -3  -3   3  246.33    7.91   4
  -3  -3   3  244.26    8.35   5
   3   3  -3  252.16    8.17   5
  -3  -3   3  238.75    7.81   2
  -3  -3   3  221.66    8.08   5
   3   3  -3  226.57    7.76   1
   3   3  -3  242.45    7.42   2
  -3  -3   3  229.38    7.91   1
  -3  -3   3  233.38    7.75   2
   2   3  -3    1.79    0.98   5
  -2  -3   3    1.02    1.16   4
   2   3  -3    3.27    1.16   2
   2   3  -3   -0.07    0.83   2
  -2  -3   3    1.46    1.09   2
  -2  -3   3    1.12    1.12   5
  -2  -3   3    3.55    1.21   5
   2   3  -3    1.07    1.06   5
  -2  -3   3    1.08    1.11   2
   2   3  -3    2.86    1.15   1
  -2  -3   3    0.58    1.14   1
   1   3  -3  334.43    8.88   5
  -1  -3   3  322.06    8.69   2
   1   3  -3  318.18    8.66   5
  -1  -3   3  333.93    9.15   5
  -1  -3   3  321.80    9.13   5
  -1  -3   3  331.18    8.88   1
   1   3  -3  316.69    8.66   1
   1   3  -3  333.18    8.29   2
  -1  -3   3  312.43    8.61   2
  -1  -3   3  326.84    9.56   4
   0   3  -3   70.02    2.56   2
   0  -3   3   72.11    3.29   5
   0  -3   3   69.61    3.03   2
   0  -3   3   65.94    3.15   5
   0  -3   3   64.97    3.16   1
   0   3  -3   67.27    2.90   5
   0   3  -3   69.97    2.95   5
   0   3  -3   66.76    3.07   1
   1  -3   3  141.55    5.50   4
  -1   3  -3  131.63    4.60   1
   1  -3   3  135.23    4.85   5
   1  -3   3  137.67    4.55   2
  -1   3  -3  139.72    4.58   5
  -1   3  -3  132.97    4.41   5
   1  -3   3  135.44    4.78   1
   1  -3   3  128.84    4.84   5
  -1   3  -3  139.21    3.85   2
   2  -3   3  228.35    7.67   4
  -2   3  -3  231.26    6.62   5
   2  -3   3  225.87    7.11   1
  -2   3  -3  219.67    6.72   5
   2  -3   3  222.27    6.78   2
   2  -3   3  220.85    7.15   5
   2  -3   3  227.22    7.36   5
  -2   3  -3  232.58    6.94   1
   3  -3   3   45.37    3.26   5
   3  -3   3   48.25    3.33   5
   3  -3   3   51.27    3.13   2
  -3   3  -3   51.41    2.97   5
  -3   3  -3   41.60    2.97   1
   3  -3   3   47.52    3.21   1
   3  -3   3   45.96    3.37   4
   4  -3   3  111.66    5.49   1
  -4   3  -3  119.65    5.24   1
   4  -3   3  109.48    5.64   5
   4  -3   3  127.34    5.78   4
   4  -3   3  110.23    5.70   5
   4  -3   3  111.74    5.39   2
  -4   3  -3  114.02    5.02   5
   5  -3   3   16.21    2.83   5
   5  -3   3   18.64    2.94   1
  -5   3  -3   20.27    2.78   1
   5  -3   3   19.83    2.93   2
  -6   3  -3   15.95    2.97   1
   6  -3   3   17.99    3.24   2
   6  -3   3   18.17    3.27   5
   6  -3   3   14.83    2.98   1
  -7   3  -3    7.31    2.53   1
   7  -3   3    3.18    2.57   5
  -8   3  -3    0.26    2.24   1
   8   2  -3   -1.46    2.17   1
  -8  -2   3   -1.09    2.16   1
  -7  -2   3    0.09    2.03   1
   7   2  -3   -0.45    1.93   1
   6   2  -3    1.00    1.82   1
  -6  -2   3    2.99    1.49   4
  -6  -2   3    0.69    1.64   1
   6   2  -3   -0.03    1.75   5
   5   2  -3    8.59    2.45   5
  -5  -2   3   13.23    2.62   1
   5   2  -3   14.32    2.73   5
  -5  -2   3   10.63    1.71   3
   5   2  -3   12.46    2.60   1
  -5  -2   3   10.55    1.89   4
  -5  -2   3   11.60    2.45   5
  -4  -2   3   42.91    2.91   4
   4   2  -3   40.19    3.49   1
   4   2  -3   44.81    3.38   2
  -4  -2   3   47.03    3.37   2
  -4  -2   3   47.85    3.63   2
  -4  -2   3   42.98    3.43   1
  -4  -2   3   45.36    3.70   5
  -4  -2   3   46.61    3.54   5
   4   2  -3   37.98    3.42   5
   4   2  -3   48.60    3.52   5
  -3  -2   3   -0.10    1.05   1
  -3  -2   3   -0.95    1.06   2
   3   2  -3    0.31    1.03   5
  -3  -2   3    1.46    1.22   5
   3   2  -3    0.31    1.11   1
  -3  -2   3   -0.24    0.97   5
  -3  -2   3    0.39    0.99   4
  -3  -2   3    1.51    1.11   2
   3   2  -3    0.89    1.14   5
   3   2  -3    0.77    1.02   2
  -2  -2   3  272.69    7.94   2
  -2  -2   3  277.25    8.44   5
   2   2  -3  294.39    7.95   2
   2   2  -3  271.76    8.32   5
  -2  -2   3  282.25    8.53   5
  -2  -2   3  277.33    8.03   4
  -2  -2   3  283.23    8.09   2
   2   2  -3  282.08    8.20   1
   2   2  -3  265.84    7.74   2
  -2  -2   3  276.48    8.18   1
   1   2  -3  178.28    5.81   5
  -1  -2   3  181.56    5.92   4
  -1  -2   3  183.99    5.64   2
   1   2  -3  192.89    5.55   2
  -1  -2   3  196.17    5.74   2
  -1  -2   3  183.12    5.97   5
   1   2  -3  189.98    5.75   1
  -1  -2   3  173.78    5.82   5
  -1  -2   3  179.10    5.72   1
   0   2  -3  208.06    6.00   5
   0  -2   3  194.22    6.38   4
   0   2  -3  204.17    5.93   1
   0  -2   3  192.62    5.72   2
   0   2  -3  206.94    6.01   5
   0  -2   3  202.15    6.08   5
   0   2  -3  203.98    5.53   2
   0  -2   3  205.07    6.15   5
   0   2  -3  217.50    5.98   1
   0  -2   3  193.11    5.92   1
   1  -2   3  447.18   11.33   5
   1  -2   3  436.75   10.70   2
  -1   2  -3  441.54   11.11   5
  -1   2  -3  436.47   10.93   5
   1  -2   3  432.33   10.91   1
  -1   2  -3  446.27   10.29   2
  -1   2  -3  435.81   10.84   1
   1  -2   3  450.10   11.60   4
   1  -2   3  446.87   11.27   5
   2  -2   3   20.79    2.22   4
  -2   2  -3   20.64    1.62   2
  -2   2  -3   20.81    1.65   2
   2  -2   3   20.65    1.84   2
   2  -2   3   22.73    2.09   1
  -2   2  -3   19.83    1.95   1
  -2   2  -3   21.72    1.90   5
   2  -2   3   19.29    1.95   5
   2  -2   3   20.33    1.99   5
  -2   2  -3   17.37    1.74   5
   3  -2   3  110.20    4.59   2
   3  -2   3  105.25    4.86   5
  -3   2  -3  101.49    4.54   1
   3  -2   3  110.19    4.89   4
   3  -2   3  103.14    4.67   1
   3  -2   3  104.12    4.87   5
  -3   2  -3  110.67    4.53   5
  -3   2  -3  112.01    4.65   5
   4  -2   3    1.42    1.32   5
   4  -2   3    1.32    1.25   5
   4  -2   3   -0.45    1.11   1
  -4   2  -3    1.33    1.27   1
   4  -2   3    1.08    1.28   2
   4  -2   3   -0.15    1.23   4
  -4   2  -3    1.21    1.19   5
   5  -2   3    4.09    1.94   2
   5  -2   3    2.01    1.61   5
  -5   2  -3    5.61    1.78   5
   5  -2   3    5.40    2.05   1
  -5   2  -3    2.43    1.54   1
   6  -2   3    3.56    2.14   2
   6  -2   3    1.27    1.65   1
  -6   2  -3    3.77    1.92   1
   6  -2   3    3.19    2.09   5
   7  -2   3    9.30    2.92   1
  -7   2  -3   -1.09    1.64   1
   7  -2   3   -0.45    1.81   5
  -8   2  -3    0.00    2.07   1
   8   1  -3   -1.31    2.04   1
  -8  -1   3    0.93    2.27   1
   7   1  -3   -1.65    1.85   1
  -7  -1   3    1.07    1.96   1
   6   1  -3   -0.95    1.75   5
  -6  -1   3    0.45    1.85   1
   6   1  -3    0.94    1.81   1
  -5  -1   3    2.22    1.11   4
  -5  -1   3    5.72    1.80   2
  -5  -1   3    8.60    1.66   3
   5   1  -3    8.04    2.26   5
   5   1  -3    4.40    1.91   2
  -5  -1   3    3.37    1.69   5
   5   1  -3    3.79    2.00   5
   5   1  -3    5.35    1.87   2
   5   1  -3    3.44    1.97   1
  -5  -1   3    3.14    1.81   1
   4   1  -3    5.98    1.68   2
   4   1  -3    3.92    1.63   5
   4   1  -3    2.71    1.59   5
  -4  -1   3    4.20    1.52   5
  -4  -1   3    5.49    1.88   5
  -4  -1   3    6.40    1.21   4
   4   1  -3    6.10    1.69   2
   4   1  -3    6.04    1.77   1
  -4  -1   3    1.97    1.53   1
  -4  -1   3    4.47    1.46   2
  -4  -1   3    5.21    1.43   3
  -4  -1   3    4.09    1.59   2
  -3  -1   3    0.71    1.16   1
  -3  -1   3    2.28    1.31   2
   3   1  -3    0.77    1.09   2
  -3  -1   3   -0.19    0.76   4
  -3  -1   3   -0.19    0.87   5
   3   1  -3   -0.14    0.91   2
   3   1  -3   -0.47    1.04   1
   3   1  -3    1.05    1.06   5
   3   1  -3    0.39    1.16   5
  -3  -1   3    1.25    1.21   5
   2   1  -3  136.70    4.81   2
  -2  -1   3  130.00    4.88   1
   2   1  -3  129.71    4.86   1
   2   1  -3  128.68    4.96   5
  -2  -1   3  136.04    5.13   5
  -2  -1   3  129.42    4.36   4
  -2  -1   3  130.69    5.01   5
  -2  -1   3  131.16    4.82   2
   2   1  -3  126.79    4.97   5
  -1  -1   3  213.53    6.06   2
  -1  -1   3  208.36    6.14   1
  -1  -1   3  209.30    5.97   4
  -1  -1   3  212.78    6.36   5
   1   1  -3  213.25    6.05   4
   1   1  -3  205.76    6.11   1
   1   1  -3  195.04    6.14   5
   1   1  -3  211.04    6.30   5
   1   1  -3  214.76    6.00   2
  -1  -1   3  204.62    5.92   2
  -1  -1   3  206.67    6.25   5
   0   1  -3  227.94    6.43   5
   0   1  -3  231.42    6.33   1
   0  -1   3  223.43    6.15   2
   0  -1   3  228.43    6.23   2
   0  -1   3  223.02    6.46   5
   0  -1   3  226.71    6.51   4
   0  -1   3  229.70    6.56   5
   0   1  -3  231.22    6.09   2
   0  -1   3  243.35    6.47   1
   1  -1   3  327.29    8.19   2
  -1   1  -3  327.94    8.39   1
  -1   1  -3  318.79    8.45   5
   1  -1   3  311.48    8.69   4
   1  -1   3  331.32    8.62   5
  -1   1  -3  324.60    8.02   2
   1  -1   3  324.23    8.43   1
   1  -1   3  324.62    8.70   5
  -2   1  -3   -0.01    0.93   1
  -2   1  -3    0.12    0.81   5
   2  -1   3    0.38    1.03   4
   2  -1   3    1.18    0.91   2
   2  -1   3   -0.33    0.85   5
   2  -1   3   -0.41    0.77   5
   2  -1   3   -0.35    0.89   1
  -2   1  -3   -0.32    0.74   2
   3  -1   3   41.11    2.88   5
   3  -1   3   43.18    2.84   2
  -3   1  -3   41.10    2.61   2
   3  -1   3   45.62    2.90   1
   3  -1   3   40.01    2.80   4
  -3   1  -3   38.46    2.70   1
  -3   1  -3   38.71    2.42   2
  -3   1  -3   42.06    2.78   5
   3  -1   3   42.55    2.94   5
   4  -1   3   20.60    2.37   2
   4  -1   3   18.86    2.43   5
  -4   1  -3   20.70    2.43   1
  -4   1  -3   19.36    2.32   5
   4  -1   3   24.51    2.61   1
  -4   1  -3   16.45    1.99   2
  -4   1  -3   22.83    2.37   5
   4  -1   3   20.27    2.54   5
  -5   1  -3    3.92    1.70   1
   5  -1   3    1.10    1.45   2
   5  -1   3    1.57    1.42   5
  -5   1  -3    2.82    1.61   5
   5  -1   3    2.05    1.66   1
   5  -1   3    0.64    1.43   5
   6  -1   3    4.67    2.09   2
  -6   1  -3    2.76    1.74   1
   6  -1   3    3.00    1.77   3
   6  -1   3    1.31    1.70   1
   6  -1   3    6.29    2.21   5
   7  -1   3    0.78    2.14   1
   7  -1   3    2.78    2.23   5
  -7   1  -3    1.82    2.06   1
  -8   1  -3   -2.11    1.80   1
   8  -1   3   -3.27    2.00   1
  -8   0   3   -1.25    2.26   1
   8   0  -3    1.56    2.45   1
   7   0  -3    2.62    2.46   1
  -7   0   3   -1.25    1.53   1
  -6   0   3    1.62    1.37   3
   6   0  -3    1.01    1.95   1
  -6   0   3    1.82    1.82   1
   6   0  -3    0.51    1.94   5
  -5   0   3   13.78    1.29   4
   5   0  -3   16.58    2.96   5
  -5   0   3   10.15    2.35   1
   5   0  -3   15.96    2.80   1
   5   0  -3   15.61    2.65   2
   5   0  -3    9.21    2.37   5
  -5   0   3   16.17    2.23   3
  -4   0   3    1.28    1.18   2
   4   0  -3    0.90    1.34   5
  -4   0   3    2.52    0.76   4
  -4   0   3    0.25    1.28   5
   4   0  -3    1.83    1.48   2
  -4   0   3    1.45    1.28   1
  -4   0   3    3.25    1.36   3
   4   0  -3    2.86    1.49   1
   4   0  -3    0.75    1.29   5
   4   0  -3    2.33    1.29   2
  -3   0   3    3.10    0.76   4
   3   0  -3    0.51    0.97   2
   3   0  -3    3.54    1.46   5
  -3   0   3    5.31    1.49   1
  -3   0   3    3.65    1.28   3
   3   0  -3    2.72    1.30   2
   3   0  -3    4.13    1.34   5
   3   0  -3    1.03    1.18   1
  -3   0   3    3.42    1.32   2
  -3   0   3    3.16    1.16   2
  -3   0   3    4.69    1.48   5
  -2   0   3   21.55    1.44   4
  -2   0   3   19.32    1.93   1
   2   0  -3   19.82    2.07   5
   2   0  -3   21.72    1.85   2
  -2   0   3   21.81    1.81   2
   2   0  -3   23.15    1.99   2
   2   0  -3   18.99    2.01   5
  -2   0   3   23.84    2.17   5
  -2   0   3   22.27    1.92   2
   1   0  -3  350.98    8.33   4
  -1   0   3  343.77    8.58   2
   1   0  -3  324.78    8.93   5
  -1   0   3  344.42    8.74   1
   1   0  -3  351.91    8.82   1
   1   0  -3  330.42    8.54   2
  -1   0   3  343.21    8.96   5
   1   0  -3  333.15    8.62   2
  -1   0   3  356.31    9.09   5
  -1   0   3  340.98    8.30   4
   1   0  -3  347.88    9.08   5
   0   0  -3   55.64    2.36   2
   0   0  -3   55.46    2.37   2
   0   0   3   58.64    2.43   2
   0   0  -3   56.66    2.49   5
   0   0  -3   57.05    2.51   1
   0   0  -3   58.86    2.55   5
   0   0  -3   54.72    2.41   4
   0   0   3   54.29    2.48   1
   0   0   3   57.60    2.43   4
   0   0   3   55.83    2.46   5
   0   0   3   55.26    2.48   5
   1   0   3  788.85   18.19   4
  -1   0  -3  798.05   17.60   2
   1   0   3  801.20   17.59   2
   1   0   3  792.24   17.73   1
   1   0   3  795.45   18.23   5
  -1   0  -3  793.58   18.31   5
  -1   0  -3  814.11   17.76   1
   1   0   3  820.06   18.37   5
  -1   0  -3  799.40   18.27   5
  -1   0  -3  809.26   18.17   4
   2   0   3   62.35    2.87   2
  -2   0  -3   55.53    2.81   1
   2   0   3   62.32    2.92   1
  -2   0  -3   65.36    2.80   2
  -2   0  -3   59.30    2.88   5
   2   0   3   54.90    2.89   5
  -2   0  -3   55.24    2.90   5
   2   0   3   62.29    3.07   5
   2   0   3   63.88    3.09   4
  -3   0  -3  116.56    4.93   5
   3   0   3  119.88    4.88   1
   3   0   3  118.21    4.97   5
  -3   0  -3  120.42    4.54   2
  -3   0  -3  128.48    5.00   5
   3   0   3  121.79    5.04   5
  -3   0  -3  125.56    4.91   1
   3   0   3  115.36    4.65   2
  -3   0  -3  116.27    4.52   2
  -4   0  -3   69.96    3.96   1
  -4   0  -3   68.05    3.69   2
  -4   0  -3   70.50    3.57   2
  -4   0  -3   76.10    4.09   5
   4   0   3   73.64    4.30   5
  -4   0  -3   62.82    3.78   5
   4   0   3   58.37    3.70   2
   4   0   3   60.61    3.74   1
   4   0   3   76.80    4.32   5
   5   0   3    0.97    1.44   5
   5   0   3    0.13    1.39   5
  -5   0  -3   -0.25    1.13   2
   5   0   3    1.61    1.57   1
   5   0   3    1.08    1.41   2
  -5   0  -3   -1.85    1.01   1
  -6   0  -3    2.52    1.89   1
   6   0   3    1.44    1.26   3
   6   0   3    2.95    1.91   2
   6   0   3    1.49    1.79   1
   6   0   3    1.89    1.69   5
  -7   0  -3   -0.98    1.64   1
   7   0   3    1.35    1.88   5
   7   0   3    0.38    2.06   1
   8   0   3   -2.67    1.74   1
  -8   0  -3   -1.30    1.75   1
   9   0   3    4.38    3.03   1
  -9   0  -3    2.24    2.55   1
  -8   1   3    0.39    2.10   1
   8  -1  -3   -1.05    2.64   1
  -7   1   3   -0.95    1.80   1
   7  -1  -3   -0.17    2.21   1
   6  -1  -3    2.94    2.17   5
  -6   1   3    2.86    1.91   1
   6  -1  -3    5.39    2.18   1
   5  -1  -3   10.60    2.47   5
   5  -1  -3   13.57    2.56   2
  -5   1   3   11.44    2.37   1
  -5   1   3   15.13    2.42   3
  -5   1   3   14.71    2.43   5
   5  -1  -3   14.37    2.77   1
   4  -1  -3   -1.22    1.06   5
   4  -1  -3    0.15    1.19   5
  -4   1   3    1.17    1.28   1
  -4   1   3    0.37    1.07   5
   4  -1  -3   -2.39    1.07   1
  -4   1   3   -0.52    1.20   3
   4  -1  -3   -0.80    1.10   2
   4  -1  -3   -1.02    1.17   2
   3  -1  -3   44.78    3.05   2
   3  -1  -3   46.31    3.24   5
   3  -1  -3   48.42    3.19   5
  -3   1   3   47.56    2.64   2
  -3   1   3   44.52    3.13   5
   3  -1  -3   50.83    3.23   1
  -3   1   3   53.01    3.06   5
  -3   1   3   47.30    3.02   1
   3  -1  -3   43.70    2.92   2
  -3   1   3   46.93    3.08   3
   2  -1  -3    8.48    1.56   1
   2  -1  -3    5.97    1.44   5
  -2   1   3    7.24    0.68   4
   2  -1  -3    8.18    1.30   2
  -2   1   3    7.76    1.51   3
  -2   1   3    7.08    1.21   5
   2  -1  -3    6.06    1.32   5
   2  -1  -3    6.71    1.34   2
  -2   1   3    6.30    1.38   5
  -2   1   3    6.98    1.37   1
  -2   1   3    7.00    1.27   2
  -2   1   3    6.44    1.10   2
   1  -1  -3   13.34    1.42   5
   1  -1  -3   13.27    1.38   5
  -1   1   3   13.33    1.23   5
  -1   1   3   12.99    1.36   1
  -1   1   3   14.58    1.38   1
   1  -1  -3   12.27    1.21   2
  -1   1   3   13.28    1.34   5
  -1   1   3   14.87    1.29   2
  -1   1   3   10.09    1.05   2
   1  -1  -3   12.40    1.26   2
  -1   1   3   12.73    1.03   4
   1  -1  -3   12.30    1.39   1
   1  -1  -3   12.85    0.99   4
   0  -1  -3    0.15    0.63   4
   0  -1  -3   -0.08    0.51   5
   0   1   3    0.02    0.59   1
   0   1   3   -0.46    0.42   2
   0  -1  -3    0.77    0.58   2
   0   1   3    0.60    0.65   5
   0   1   3    0.83    0.65   4
   0   1   3    1.24    0.63   2
   0  -1  -3    0.96    0.58   2
   0   1   3    1.53    0.75   1
   0  -1  -3    0.51    0.65   1
   0  -1  -3    0.74    0.57   5
  -1  -1  -3  178.94    5.06   2
   1   1   3  187.50    5.23   1
  -1  -1  -3  178.85    5.35   5
  -1  -1  -3  178.40    5.19   1
  -1  -1  -3  185.18    5.36   5
   1   1   3  181.32    5.00   2
   1   1   3  188.33    5.23   1
  -1  -1  -3  193.30    5.53   4
   1   1   3  189.78    5.28   5
  -2  -1  -3   58.69    2.83   5
   2   1   3   61.51    2.82   5
  -2  -1  -3   61.32    2.90   1
   2   1   3   56.30    2.78   1
  -2  -1  -3   55.70    2.83   5
   2   1   3   64.65    2.93   5
  -2  -1  -3   63.03    2.78   2
  -2  -1  -3   59.02    2.94   4
  -3  -1  -3    0.24    0.94   2
  -3  -1  -3    2.40    1.17   2
   3   1   3    2.34    1.10   5
   3   1   3   -1.82    0.95   1
   3   1   3    0.33    1.01   5
  -3  -1  -3    1.24    1.07   5
  -3  -1  -3    0.05    1.00   1
  -3  -1  -3   -0.23    0.91   5
   4   1   3   60.15    3.76   5
   4   1   3   63.46    3.71   1
  -4  -1  -3   64.48    3.87   5
  -4  -1  -3   72.35    3.97   5
  -4  -1  -3   65.44    3.80   1
  -4  -1  -3   61.90    3.49   2
   4   1   3   55.82    3.68   5
   4   1   3   68.45    3.69   2
  -5  -1  -3   18.66    2.33   2
   5   1   3   17.80    2.63   1
  -5  -1  -3   13.76    2.42   5
   5   1   3   14.98    2.52   5
  -5  -1  -3   13.32    2.15   2
  -5  -1  -3   16.18    2.49   5
   5   1   3   14.45    2.46   5
   5   1   3   15.69    2.28   2
  -5  -1  -3   13.44    2.29   1
   6   1   3    2.96    1.99   1
   6   1   3    4.70    1.27   3
  -6  -1  -3    3.11    1.78   1
  -6  -1  -3    4.77    1.92   5
   6   1   3    2.96    1.81   5
   6   1   3    6.46    2.22   5
   6   1   3    1.62    1.71   2
  -7  -1  -3   10.31    2.67   1
   7   1   3    6.54    2.56   1
  -8  -1  -3   -0.87    1.90   1
   8   1   3    0.10    1.86   1
   9   1   3    2.52    2.84   1
  -9  -1  -3   -0.68    2.38   1
   7  -2  -3   -0.78    2.17   1
  -7   2   3    1.39    1.97   1
   7  -2  -3   -1.17    2.01   5
   6  -2  -3    1.55    1.89   5
   6  -2  -3   -1.21    1.93   1
   6  -2  -3   -0.93    1.92   2
  -6   2   3    1.82    1.79   1
  -5   2   3    1.26    1.44   1
   5  -2  -3    1.39    1.64   1
   5  -2  -3   -0.35    1.47   5
   5  -2  -3   -0.08    1.59   2
   4  -2  -3    9.39    1.96   2
  -4   2   3   11.14    2.03   1
   4  -2  -3    6.54    1.87   1
  -4   2   3    9.43    1.67   5
   4  -2  -3   13.05    2.23   5
   4  -2  -3    8.74    2.08   5
  -4   2   3   10.40    2.13   3
   4  -2  -3   13.25    2.23   2
   3  -2  -3    7.16    1.47   2
   3  -2  -3    4.76    1.50   5
   3  -2  -3    3.36    1.47   1
   3  -2  -3   11.21    1.78   5
  -3   2   3    7.49    1.80   3
  -3   2   3    6.52    1.30   5
   3  -2  -3    9.21    1.70   2
  -3   2   3    3.46    1.29   1
   2  -2  -3  219.76    6.94   5
   2  -2  -3  224.83    6.72   1
  -2   2   3  217.51    6.49   1
  -2   2   3  216.52    7.29   3
  -2   2   3  233.40    5.74   2
   2  -2  -3  225.33    6.63   2
   2  -2  -3  226.06    7.00   5
   2  -2  -3  227.56    6.50   2
  -2   2   3  219.81    6.38   5
  -2   2   3  230.76    6.56   5
  -1   2   3  275.88    8.18   3
   1  -2  -3  293.66    7.63   5
  -1   2   3  291.36    6.57   2
  -1   2   3  298.19    6.53   2
   1  -2  -3  285.30    7.25   2
   1  -2  -3  285.16    7.66   5
  -1   2   3  291.49    7.22   5
  -1   2   3  280.38    7.20   1
  -1   2   3  290.15    7.30   5
   1  -2  -3  275.60    7.11   2
  -1   2   3  282.18    7.27   1
   1  -2  -3  293.57    6.76   4
   1  -2  -3  281.92    7.39   1
   0   2   3  297.75    6.54   2
   0   2   3  293.57    7.08   5
   0   2   3  314.06    7.14   1
   0  -2  -3  299.90    7.19   1
   0   2   3  293.53    6.54   2
   0   2   3  287.72    7.09   5
   0  -2  -3  289.48    7.37   5
   0   2   3  286.51    7.03   1
   0  -2  -3  289.07    7.34   5
   0  -2  -3  293.23    7.02   2
   0  -2  -3  284.58    6.92   2
   1   2   3  793.25   16.73   1
   1   2   3  762.17   17.15   5
   1   2   3  769.94   17.21   5
   1   2   3  777.97   16.39   2
  -1  -2  -3  757.55   17.35   5
  -1  -2  -3  774.50   16.84   1
   1   2   3  762.73   16.76   1
   1   2   3  785.91   16.46   2
  -1  -2  -3  756.57   16.71   2
  -1  -2  -3  774.56   17.33   5
  -2  -2  -3   66.63    2.96   1
   2   2   3   72.99    2.81   2
   2   2   3   73.09    3.00   5
  -2  -2  -3   69.93    3.06   5
   2   2   3   70.07    2.99   1
  -2  -2  -3   71.20    2.95   2
   2   2   3   72.93    3.02   1
  -2  -2  -3   69.52    3.15   5
   3   2   3   76.24    3.64   5
   3   2   3   69.48    3.31   2
  -3  -2  -3   77.19    3.50   2
   3   2   3   65.78    3.47   1
  -3  -2  -3   70.44    3.60   5
  -3  -2  -3   73.83    3.68   5
  -3  -2  -3   73.63    3.56   1
  -4  -2  -3    0.13    1.03   2
  -4  -2  -3    0.53    1.19   1
  -4  -2  -3   -0.01    1.07   5
   4   2   3    0.90    1.04   2
  -4  -2  -3    0.17    0.97   2
   4   2   3    1.80    1.25   1
   4   2   3   -0.09    0.94   5
   4   2   3   -0.36    0.92   5
  -4  -2  -3    0.55    1.07   5
  -5  -2  -3    2.95    1.54   1
  -5  -2  -3    0.91    1.38   2
   5   2   3    1.88    1.51   5
  -5  -2  -3    1.29    1.29   2
   5   2   3    1.91    1.56   1
  -5  -2  -3    5.24    1.70   5
  -5  -2  -3    3.42    1.57   5
   5   2   3    6.51    1.86   5
  -6  -2  -3   -0.04    1.41   5
  -6  -2  -3    2.41    1.63   1
   6   2   3    1.14    1.53   5
   6   2   3   -0.70    1.47   1
   7   2   3    5.25    2.54   1
  -7  -2  -3    6.71    2.46   1
  -8  -2  -3    7.39    2.86   1
   8   2   3   -0.95    1.99   1
   9   2   3   -0.41    2.42   1
  -9  -2  -3   -0.75    2.15   1
   7  -3  -3    4.22    2.63   5
  -7   3   3   -1.30    1.69   1
  -6   3   3    4.47    2.08   1
   6  -3  -3    9.45    2.78   2
   6  -3  -3    5.42    2.39   5
   5  -3  -3   16.19    2.77   1
   5  -3  -3   13.40    2.67   2
   5  -3  -3    9.98    2.39   5
  -5   3   3   12.05    2.31   1
   4  -3  -3   52.36    3.65   1
   4  -3  -3   50.61    3.80   5
  -4   3   3   55.94    4.23   3
   4  -3  -3   52.67    3.81   5
  -4   3   3   46.08    3.22   1
   4  -3  -3   49.63    3.59   2
   4  -3  -3   44.97    3.63   2
   3  -3  -3   31.07    2.55   2
  -3   3   3   31.40    3.03   3
  -3   3   3   29.25    2.33   1
   3  -3  -3   29.67    2.42   2
   3  -3  -3   29.53    2.66   5
  -3   3   3   31.51    2.00   5
   3  -3  -3   31.54    2.67   1
   3  -3  -3   28.84    2.58   5
   2  -3  -3  195.18    5.79   2
   2  -3  -3  204.17    5.94   2
  -2   3   3  194.03    5.20   5
   2  -3  -3  205.56    6.39   5
  -2   3   3  193.54    7.16   3
  -2   3   3  195.76    5.72   1
  -2   3   3  199.76    5.32   5
  -2   3   3  192.85    5.66   1
   2  -3  -3  192.73    6.04   1
   2  -3  -3  179.52    6.13   5
   1  -3  -3    7.67    1.04   2
   1  -3  -3    7.59    1.17   5
  -1   3   3    6.16    0.97   1
   1  -3  -3    8.00    0.95   2
   1  -3  -3    6.44    1.11   1
   1  -3  -3    7.92    1.08   5
  -1   3   3    7.72    1.74   3
   0  -3  -3   41.35    1.55   2
   0   3   3   38.75    2.70   3
   0  -3  -3   40.73    1.82   1
   0   3   3   41.14    1.60   1
   0  -3  -3   40.72    1.78   5
   0  -3  -3   39.33    1.47   2
   0  -3  -3   41.72    1.81   5
  -1  -3  -3    7.63    0.81   2
  -1  -3  -3   10.17    0.96   5
  -1  -3  -3    8.26    0.96   5
  -1  -3  -3   10.57    0.92   2
   1   3   3    9.61    1.40   3
  -1  -3  -3    9.23    1.03   1
   1   3   3    9.18    0.73   5
   1   3   3    9.97    0.95   1
   1   3   3    7.72    0.64   5
  -2  -3  -3   76.12    3.11   5
   2   3   3   70.39    2.37   2
   2   3   3   69.62    3.04   3
   2   3   3   71.59    2.91   1
   2   3   3   75.87    2.90   5
  -2  -3  -3   68.67    3.03   5
  -2  -3  -3   73.32    3.03   1
   2   3   3   72.20    2.42   2
   2   3   3   74.14    2.80   5
  -2  -3  -3   72.26    2.90   2
   2   3   3   76.94    2.99   1
  -3  -3  -3    1.42    1.06   2
  -3  -3  -3    0.94    1.14   1
   3   3   3    1.10    0.96   2
   3   3   3    0.50    0.91   1
   3   3   3   -0.16    0.82   3
   3   3   3    0.65    1.02   5
  -3  -3  -3    0.66    1.11   5
  -3  -3  -3   -0.94    0.83   5
   3   3   3    2.69    1.02   5
   4   3   3   87.41    4.33   5
  -4  -3  -3   76.15    4.08   1
  -4  -3  -3   84.97    4.18   2
   4   3   3   72.89    3.98   1
  -4  -3  -3   80.73    4.35   5
   4   3   3   84.22    3.81   2
  -4  -3  -3   82.57    4.39   5
  -4  -3  -3   84.78    4.16   2
   4   3   3   84.75    2.71   3
   5   3   3   24.23    2.86   1
  -5  -3  -3   24.87    2.93   5
   5   3   3   23.46    2.77   5
   5   3   3   27.05    2.88   5
  -5  -3  -3   23.26    2.74   1
  -5  -3  -3   29.22    2.94   2
   5   3   3   21.39    2.45   2
  -5  -3  -3   28.97    2.92   2
  -5  -3  -3   21.58    2.80   5
   6   3   3    6.81    2.30   1
   6   3   3    7.62    2.31   5
  -6  -3  -3    7.39    2.23   5
  -6  -3  -3    6.63    2.03   1
  -6  -3  -3   11.46    2.37   2
  -6  -3  -3    5.16    2.10   5
   7   3   3    5.01    2.17   1
  -7  -3  -3    5.49    2.29   1
  -8  -3  -3    0.46    1.92   1
   8   3   3   -1.08    1.92   1
   9   3   3   -1.31    2.27   1
  -9  -3  -3   -0.75    1.99   1
  -7   4   3   -0.97    1.73   1
   6  -4  -3    3.69    2.19   5
  -6   4   3    8.24    2.28   1
   6  -4  -3    4.90    2.46   2
  -5   4   3    1.19    1.41   1
   5  -4  -3    2.11    1.79   5
   5  -4  -3   -1.31    1.59   2
   4  -4  -3   11.11    2.26   5
   4  -4  -3   12.61    2.19   2
   4  -4  -3    8.02    2.03   5
   4  -4  -3   11.70    2.23   1
   4  -4  -3   11.81    2.20   2
  -4   4   3   12.93    1.92   1
   3  -4  -3   -0.35    0.94   2
   3  -4  -3    0.79    1.22   1
  -3   4   3    1.86    1.67   3
   3  -4  -3    1.65    1.24   5
   3  -4  -3    0.83    0.97   5
   3  -4  -3   -1.75    1.05   2
  -3   4   3    0.77    0.93   1
   2  -4  -3   27.52    2.08   1
   2  -4  -3   24.73    2.95   3
   2  -4  -3   22.70    1.29   4
  -2   4   3   23.29    1.55   1
   2  -4  -3   20.56    1.95   5
  -2   4   3   21.87    2.68   3
   2  -4  -3   24.25    1.98   5
   2  -4  -3   20.84    1.66   2
   2  -4  -3   21.19    1.80   2
  -1   4   3   96.94    4.81   3
   1  -4  -3   86.83    2.67   2
   1  -4  -3   90.16    3.16   5
   1  -4  -3   91.81    4.74   3
  -1   4   3   94.47    2.42   1
   1  -4  -3   89.30    3.15   1
   1  -4  -3   89.06    2.79   2
   1  -4  -3   90.60    3.27   5
   0   4   3  175.40    6.61   3
   0  -4  -3  187.30    4.69   5
   0  -4  -3  188.18    6.77   3
   0  -4  -3  187.64    4.76   5
   0  -4  -3  188.01    4.78   1
  -1  -4  -3  415.33    9.56   5
  -1  -4  -3  408.71   11.15   3
   1   4   3  397.29   11.08   3
  -1  -4  -3  412.81    9.60   5
  -1  -4  -3  424.41    9.44   1
   2   4   3  401.58    9.55   1
   2   4   3  416.36    9.23   5
  -2  -4  -3  396.78   10.14   5
   2   4   3  408.04    9.26   5
  -2  -4  -3  415.59    9.66   2
  -2  -4  -3  389.95    9.81   1
  -2  -4  -3  415.10   10.21   5
   2   4   3  414.74   10.67   3
  -3  -4  -3  219.64    7.04   5
   3   4   3  232.81    6.50   3
   3   4   3  224.36    6.57   5
  -3  -4  -3  220.49    7.11   5
  -3  -4  -3  225.12    6.77   2
  -3  -4  -3  224.52    6.91   1
   3   4   3  216.41    6.59   1
   3   4   3  229.27    6.55   5
  -4  -4  -3  140.14    5.59   2
   4   4   3  154.60    5.72   1
   4   4   3  158.67    5.72   5
  -4  -4  -3  138.95    5.65   1
   4   4   3  139.61    5.55   5
  -4  -4  -3  134.69    5.45   2
   4   4   3  151.68    4.33   3
  -4  -4  -3  144.23    5.92   5
  -4  -4  -3  156.30    6.23   5
   5   4   3    9.48    1.80   2
  -5  -4  -3    6.13    1.85   5
   5   4   3    5.58    1.79   1
   5   4   3    2.30    1.47   5
  -5  -4  -3    3.26    1.55   5
  -5  -4  -3    6.50    1.89   2
  -5  -4  -3    6.33    1.83   2
  -5  -4  -3    5.97    1.85   1
   6   4   3   13.92    2.74   1
  -6  -4  -3   14.28    2.77   5
  -6  -4  -3   14.27    2.64   1
  -6  -4  -3   14.47    2.71   2
  -6  -4  -3   14.62    2.94   5
   7   4   3    0.14    1.54   1
  -7  -4  -3    2.42    1.94   5
  -7  -4  -3   -0.82    1.50   1
   8   4   3    0.25    1.93   1
  -8  -4  -3    0.71    2.01   1
   9   4   3   -1.69    2.04   1
  -9  -4  -3    0.20    2.08   1
  -6   5   3   -0.60    1.46   1
   6  -5  -3   -0.96    1.98   2
  -5   5   3    3.77    1.61   1
   5  -5  -3    5.84    2.27   5
   5  -5  -3    9.53    2.48   2
   4  -5  -3    9.95    2.19   2
   4  -5  -3    8.81    2.10   5
  -4   5   3    8.83    1.55   1
   4  -5  -3    9.44    2.13   2
   3  -5  -3   13.42    1.97   2
   3  -5  -3   11.64    2.00   5
   3  -5  -3   16.80    2.17   5
  -3   5   3   14.54    1.41   1
   3  -5  -3   16.16    2.00   2
   2  -5  -3   77.58    3.47   5
   2  -5  -3   75.19    2.99   4
   2  -5  -3   84.91    3.54   1
   2  -5  -3   72.31    3.48   5
   2  -5  -3   81.06    3.17   2
   2  -5  -3   78.44    3.28   2
  -1   5   3    0.35    1.36   3
   1  -5  -3    0.26    0.59   5
   1  -5  -3    1.71    1.40   3
   1  -5  -3   -0.28    0.64   5
   1  -5  -3    0.67    0.72   1
   0  -5  -3  113.10    5.32   3
   0   5   3   93.78    5.00   3
   0  -5  -3  105.53    2.98   1
  -1  -5  -3   14.37    1.11   1
   1   5   3   14.09    2.06   3
  -1  -5  -3   17.67    2.27   3
  -1  -5  -3   12.13    0.95   5
   2   5   3    4.99    1.46   3
  -2  -5  -3    7.67    1.10   5
   2   5   3    7.58    0.77   1
  -2  -5  -3    5.85    0.99   5
  -2  -5  -3    6.32    1.57   3
  -2  -5  -3    6.93    1.12   1
  -2  -5  -3    5.99    0.91   2
   2   5   3    6.74    0.77   1
   3   5   3    1.88    0.99   1
   3   5   3    0.74    0.68   5
  -3  -5  -3    0.19    0.99   5
  -3  -5  -3    0.47    0.89   5
   3   5   3    1.56    1.07   3
  -3  -5  -3    1.78    1.06   1
  -3  -5  -3    1.93    1.02   2
   3   5   3    1.64    0.98   1
  -4  -5  -3   -0.41    1.04   2
  -4  -5  -3   -2.21    0.85   2
   4   5   3   -0.26    1.14   1
  -4  -5  -3   -0.89    0.93   1
  -4  -5  -3   -0.39    1.02   5
   4   5   3    1.15    1.00   5
  -4  -5  -3   -0.80    0.92   5
  -5  -5  -3    9.62    2.12   5
  -5  -5  -3    9.10    1.93   1
  -5  -5  -3   13.65    2.26   2
  -5  -5  -3   11.75    2.37   5
   5   5   3    9.52    2.16   1
  -5  -5  -3   13.01    2.23   2
   5   5   3   11.63    2.02   5
   6   5   3    6.46    2.10   1
  -6  -5  -3    1.68    1.60   1
  -6  -5  -3    4.93    1.94   2
  -6  -5  -3    4.37    1.88   5
   7   5   3    4.91    2.12   1
  -7  -5  -3    3.89    2.23   5
  -7  -5  -3    6.49    2.33   1
  -8  -5  -3    6.24    2.58   1
   8   5   3    8.63    2.79   1
  -9  -5  -3   -3.19    1.87   1
   9   5   3    4.18    2.72   1
   6  -6  -3    1.37    2.37   2
   5  -6  -3   -1.26    1.67   2
  -5   6   3    0.32    1.14   1
   5  -6  -3   -0.16    1.64   5
  -4   6   3    2.04    0.82   1
   4  -6  -3    3.76    1.79   2
   4  -6  -3    0.25    1.56   2
   4  -6  -3    1.87    1.55   5
   3  -6  -3   -0.09    1.14   2
   3  -6  -3    1.09    1.12   5
   3  -6  -3    0.33    1.17   5
   3  -6  -3   -0.17    0.96   2
   2  -6  -3   18.16    1.81   5
   2  -6  -3   21.15    1.86   4
   2  -6  -3   14.59    1.51   2
   2  -6  -3   18.63    1.56   2
   2  -6  -3   14.83    1.74   5
   1  -6  -3   19.47    1.98   4
   1  -6  -3   23.97    1.60   5
   1  -6  -3   21.79    1.48   5
   0  -6  -3    4.67    1.83   3
  -1  -6  -3   86.35    4.70   3
  -2  -6  -3   33.22    1.93   5
  -2  -6  -3   30.47    1.42   2
  -2  -6  -3   31.95    1.83   5
  -2  -6  -3   34.85    2.97   3
  -2  -6  -3   35.39    1.95   1
   3   6   3   21.26    1.58   1
  -3  -6  -3   26.49    2.20   5
  -3  -6  -3   24.82    1.93   2
  -3  -6  -3   26.96    2.15   1
  -3  -6  -3   26.25    2.11   5
  -3  -6  -3   28.48    2.55   3
   4   6   3   55.16    3.05   1
  -4  -6  -3   54.01    3.39   1
   4   6   3   54.41    2.61   5
  -4  -6  -3   55.44    3.63   5
  -4  -6  -3   52.69    3.47   5
  -4  -6  -3   53.79    3.30   2
  -5  -6  -3    0.35    1.32   5
  -5  -6  -3    0.42    1.40   2
  -5  -6  -3    0.13    1.23   2
   5   6   3    3.31    1.34   5
  -5  -6  -3    1.12    1.45   5
   5   6   3    1.88    1.50   1
  -5  -6  -3    1.59    1.39   1
  -6  -6  -3    6.62    2.04   5
  -6  -6  -3    3.07    1.78   2
   6   6   3    6.37    2.08   1
  -6  -6  -3    6.70    2.16   1
   7   6   3    8.37    2.53   1
  -7  -6  -3    5.08    2.28   5
  -7  -6  -3    2.22    2.04   1
   8   6   3   -0.59    1.76   1
  -8  -6  -3    4.77    2.51   1
   9   6   3    3.50    2.62   1
  -9  -6  -3   -0.49    2.03   1
   5  -7  -3    0.22    2.02   2
   4  -7  -3   -1.61    1.44   2
   4  -7  -3   -0.61    1.46   5
   3  -7  -3    0.98    1.36   5
   3  -7  -3    1.06    1.12   2
   3  -7  -3    1.13    1.38   2
   2  -7  -3    3.09    1.09   2
   2  -7  -3    2.29    1.06   5
   2  -7  -3    1.79    0.94   2
   2  -7  -3    4.26    1.24   5
   2  -7  -3    3.58    1.27   4
   1  -7  -3   16.28    2.05   4
   1  -7  -3   14.19    1.26   5
   1  -7  -3   13.96    1.21   5
  -2  -7  -3   20.41    1.56   5
  -2  -7  -3   22.06    2.78   3
  -2  -7  -3   17.76    1.46   5
  -3  -7  -3   12.87    1.53   2
  -3  -7  -3   13.80    1.64   1
  -3  -7  -3   13.10    2.19   3
  -3  -7  -3   15.55    1.83   5
  -3  -7  -3   12.28    1.62   5
  -4  -7  -3   22.74    2.44   5
  -4  -7  -3   20.76    2.22   2
  -4  -7  -3   17.73    2.10   1
   4   7   3   22.56    1.95   1
  -4  -7  -3   19.44    2.17   2
  -4  -7  -3   23.40    2.47   5
  -5  -7  -3    1.05    1.53   5
  -5  -7  -3    1.68    1.43   2
  -5  -7  -3    0.79    1.54   2
  -5  -7  -3    0.13    1.27   1
   5   7   3   -0.83    1.18   1
  -5  -7  -3   -0.88    1.16   5
  -6  -7  -3   -1.19    1.56   2
   6   7   3   -0.53    1.45   1
  -6  -7  -3   -0.14    1.48   1
  -6  -7  -3   -0.88    1.31   5
   7   7   3    2.09    1.82   1
  -7  -7  -3    1.20    1.93   5
  -7  -7  -3   -1.04    1.51   1
   8   7   3   -0.44    1.95   1
  -8  -7  -3   -0.40    1.90   1
   9   7   3    3.57    2.48   1
  -9  -7  -3   -0.27    2.30   1
   4  -8  -3   -0.66    1.55   2
   3  -8  -3    1.45    1.45   2
   3  -8  -3   -0.28    1.17   2
   3  -8  -3   -0.31    1.32   5
   2  -8  -3    4.52    1.22   2
   2  -8  -3    7.01    1.20   2
   2  -8  -3    7.40    1.48   5
   2  -8  -3    6.26    1.39   5
   1  -8  -3    6.58    1.04   5
   1  -8  -3    9.04    1.99   4
   1  -8  -3    6.42    0.98   5
   0  -8  -3    6.32    1.82   4
  -2  -8  -3    1.31    0.76   5
  -2  -8  -3    1.27    0.71   5
  -3  -8  -3    0.44    0.96   2
  -3  -8  -3    3.68    1.17   5
  -3  -8  -3    0.80    1.07   5
  -4  -8  -3   14.54    2.23   5
   4   8   3    7.53    1.05   1
  -4  -8  -3   10.99    2.15   3
  -4  -8  -3    6.59    1.64   2
  -4  -8  -3    9.96    1.86   2
  -4  -8  -3    5.60    1.59   5
   5   8   3    1.95    1.29   1
  -5  -8  -3    3.71    1.86   2
  -5  -8  -3    0.74    1.43   5
  -5  -8  -3    3.11    1.66   2
  -6  -8  -3    0.46    1.53   5
   6   8   3   -0.86    1.37   1
  -6  -8  -3    2.81    1.91   2
   7   8   3   -0.51    1.70   1
  -7  -8  -3    3.13    2.10   5
  -7  -8  -3    0.57    2.05   2
  -8  -8  -3   -1.22    2.08   5
   8   8   3    1.66    1.94   1
   9   8   3    1.90    2.31   1
   3  -9  -3    0.83    1.44   2
   3  -9  -3   -0.33    1.49   2
   2  -9  -3    5.88    1.24   2
   2  -9  -3    4.97    1.36   2
   2  -9  -3    4.25    1.37   5
   2  -9  -3    4.39    1.40   5
   1  -9  -3   -0.08    0.82   5
   1  -9  -3   -0.25    0.72   5
   1  -9  -3   -0.90    1.31   4
   0  -9  -3    0.81    1.51   4
  -2  -9  -3    5.74    1.06   5
  -2  -9  -3    6.97    1.08   5
  -3  -9  -3    0.39    1.05   5
  -3  -9  -3    0.63    0.94   2
  -3  -9  -3    0.26    0.93   5
  -4  -9  -3   22.73    2.40   2
  -4  -9  -3   21.67    2.55   5
  -4  -9  -3   26.71    2.73   5
  -4  -9  -3   25.18    2.49   2
  -5  -9  -3    5.92    1.98   5
  -5  -9  -3    4.90    1.90   2
  -5  -9  -3    4.78    1.89   2
   5   9   3    4.70    1.20   1
   6   9   3    6.86    1.87   1
  -6  -9  -3    3.98    1.97   5
  -6  -9  -3    3.03    1.95   2
  -7  -9  -3    4.05    2.21   5
   7   9   3    4.24    1.93   1
  -7  -9  -3    0.10    1.93   2
   8   9   3   -0.52    1.95   1
  -8  -9  -3    3.01    2.61   5
   2 -10  -3    2.14    1.35   2
   2 -10  -3    2.44    1.22   2
   1 -10  -3    0.72    0.79   5
   0 -10  -3    2.72    1.77   4
  -1 -10  -3    2.51    1.74   4
  -2 -10  -3    1.82    0.97   5
  -2 -10  -3    1.98    0.92   5
  -3 -10  -3    1.19    1.10   5
  -3 -10  -3    0.67    1.01   2
  -3 -10  -3   -1.75    1.05   5
  -4 -10  -3    3.82    1.53   5
  -4 -10  -3    5.88    1.67   2
  -4 -10  -3    3.02    1.47   2
  -5 -10  -3    1.57    1.69   2
  -5 -10  -3    1.13    1.38   5
   6  10   3    0.32    1.16   1
  -6 -10  -3   -0.50    1.60   2
  -6 -10  -3   -1.11    1.60   5
  -7 -10  -3    1.58    2.04   2
   7  10   3   -1.38    1.49   1
   0 -11  -3    3.65    2.10   4
  -1 -11  -3   10.86    2.80   4
  -2 -11  -3    4.59    1.11   5
  -2 -11  -3    2.94    2.17   4
  -3 -11  -3    3.56    1.27   2
  -3 -11  -3    3.81    1.26   2
  -4 -11  -3    3.06    1.59   2
  -4 -11  -3    3.87    1.59   2
  -5 -11  -3   -0.47    1.60   2
  -6 -11  -3   -0.70    1.92   2
  -7 -11  -3    1.93    2.18   2
  -1 -12  -3   -0.46    1.85   4
  -2 -12  -3    2.11    2.13   4
  -2 -12  -3   -0.86    1.02   5
  -3 -12  -3    1.37    1.21   2
  -3 -12  -3   -0.66    2.00   4
  -4 -12  -3    0.15    1.49   2
  -2 -11   4   -1.18    2.27   4
   5  10  -4    1.74    1.95   1
  -5 -10   4   -4.04    2.10   4
  -4 -10   4    2.48    2.67   4
  -4 -10   4    2.22    2.15   2
   4  10  -4    1.29    1.47   1
  -3 -10   4   -1.57    2.13   4
  -3 -10   4    0.84    1.73   2
  -2 -10   4    0.62    2.26   4
  -2 -10   4   -0.80    1.57   2
  -1 -10   4    0.09    1.93   4
  -1 -10   4   -0.61    1.53   2
   0 -10   4    2.03    2.33   4
   0 -10   4    0.39    1.68   2
   1 -10   4    0.01    1.73   2
   1 -10   4    1.05    2.43   4
   6   9  -4    0.97    2.09   1
  -6  -9   4    2.74    3.05   4
  -5  -9   4    0.51    2.24   4
   5   9  -4    0.84    1.74   1
  -5  -9   4    0.70    2.10   5
   4   9  -4    2.39    1.71   1
  -4  -9   4    2.62    2.01   5
  -4  -9   4   -0.86    2.17   4
  -4  -9   4    1.20    1.97   2
  -3  -9   4   -1.19    1.36   5
  -3  -9   4   -1.20    1.60   2
   3   9  -4   -0.22    1.27   1
  -3  -9   4    2.31    2.16   4
  -2  -9   4    0.98    1.58   2
  -2  -9   4   -0.89    1.34   5
   2   9  -4   -0.22    0.95   1
  -2  -9   4   -1.13    1.74   4
  -1  -9   4    2.82    1.56   5
  -1  -9   4    2.80    1.67   2
  -1  -9   4   -0.02    2.09   4
   0  -9   4   -0.88    1.80   4
   0  -9   4    1.67    1.61   2
   0  -9   4    3.42    1.64   5
   1  -9   4   -0.79    1.98   4
   1  -9   4    2.69    1.63   2
   2  -9   4    0.84    1.72   2
   2  -9   4    1.68    2.33   4
   3  -9   4    1.65    2.58   4
   3  -9   4    1.78    1.93   2
  -7  -8   4    4.21    3.05   4
   7   8  -4    1.23    2.32   1
  -6  -8   4    4.37    2.55   5
   6   8  -4    0.66    2.03   1
  -6  -8   4    0.69    2.59   4
  -5  -8   4   -1.68    1.82   4
   5   8  -4    0.57    1.78   1
  -5  -8   4   -1.04    1.61   5
  -4  -8   4    4.96    2.20   2
  -4  -8   4    2.02    1.82   5
  -4  -8   4    3.67    2.43   4
   4   8  -4    3.48    1.76   1
  -3  -8   4   12.09    3.20   4
  -3  -8   4   11.63    2.50   5
   3   8  -4    5.85    1.80   1
  -3  -8   4    6.68    2.21   2
   2   8  -4    1.22    1.19   1
  -2  -8   4    0.80    2.06   4
  -2  -8   4    0.85    1.39   5
  -2  -8   4    5.26    1.91   2
   1   8  -4   13.94    1.61   1
  -1  -8   4   18.55    2.53   5
  -1  -8   4   16.79    2.38   2
  -1  -8   4   20.06    2.59   2
  -1  -8   4   18.84    3.59   4
   0  -8   4   -1.11    1.12   5
   0   8  -4    0.74    0.75   1
   0  -8   4    2.29    1.97   4
   0  -8   4    1.04    1.35   2
   1  -8   4    6.42    1.88   5
   1  -8   4    3.39    2.18   4
   1  -8   4    4.11    1.66   2
   2  -8   4    1.55    1.46   5
   2  -8   4    1.65    1.88   4
   2  -8   4    1.62    1.55   2
   3  -8   4    0.47    1.62   2
   3  -8   4    1.73    2.20   4
   4  -8   4    0.29    1.94   2
  -7  -7   4    2.25    2.62   4
   7   7  -4   -0.05    1.99   1
  -7  -7   4    0.49    2.23   1
  -6  -7   4    0.99    1.99   1
   6   7  -4    2.38    2.06   1
  -6  -7   4    2.37    2.33   4
  -6  -7   4    1.23    2.15   5
  -5  -7   4   -1.16    1.73   1
  -5  -7   4    1.17    2.02   4
   5   7  -4   -1.61    1.54   1
  -5  -7   4   -0.26    1.76   5
  -4  -7   4    3.85    2.31   4
  -4  -7   4   -0.39    1.52   2
   4   7  -4    2.68    1.72   1
  -4  -7   4    2.72    1.89   5
  -4  -7   4   -0.84    1.47   1
   3   7  -4    8.67    1.97   1
  -3  -7   4    4.27    1.83   1
  -3  -7   4    7.21    1.99   2
  -3  -7   4    4.17    1.71   5
  -3  -7   4    7.47    2.63   4
  -2  -7   4    1.10    1.32   5
  -2  -7   4   -0.30    1.23   2
  -2  -7   4   -0.18    1.56   4
   2   7  -4    0.94    1.22   1
  -2  -7   4    1.00    1.35   2
  -1  -7   4   14.17    2.25   5
  -1  -7   4   14.16    2.13   2
  -1  -7   4   12.67    2.90   4
   1   7  -4   16.93    1.98   1
  -1  -7   4   13.35    2.11   2
   0  -7   4   11.44    1.97   2
   0  -7   4   10.25    2.00   5
   0  -7   4   13.94    3.08   4
   0   7  -4   10.18    1.48   1
   1  -7   4    1.04    1.28   2
   1  -7   4   -0.84    1.58   4
  -1   7  -4    0.62    0.99   1
   1  -7   4    1.07    1.27   5
   2  -7   4    5.30    1.84   5
  -2   7  -4    8.16    1.33   1
   2  -7   4   10.48    2.83   4
   2  -7   4   10.92    2.11   2
   3  -7   4    2.50    2.20   4
   3  -7   4    0.68    1.53   5
  -3   7  -4    2.50    1.20   1
   3  -7   4    3.64    1.81   2
   4  -7   4   -1.63    1.94   4
   4  -7   4   -0.08    1.77   2
   5  -7   4    0.27    2.27   2
   8   6  -4   -1.52    2.07   1
   7   6  -4   -0.83    1.91   1
  -7  -6   4    0.03    2.25   1
  -7  -6   4    2.78    2.49   4
  -6  -6   4    1.38    2.09   4
  -6  -6   4    2.35    2.27   5
  -6  -6   4   -0.39    1.88   1
   6   6  -4   -0.04    1.74   1
   5   6  -4    1.54    1.69   1
  -5  -6   4   -0.45    1.71   1
  -5  -6   4    3.00    1.82   5
  -5  -6   4    3.58    2.08   4
  -4  -6   4    5.70    2.33   4
  -4  -6   4    5.16    1.96   2
   4   6  -4    0.99    1.54   1
  -4  -6   4    2.06    1.68   5
  -4  -6   4    8.00    2.23   1
  -3  -6   4    0.46    1.31   1
  -3  -6   4    0.23    1.40   2
  -3  -6   4   -0.92    1.26   5
  -3  -6   4    0.18    1.31   2
   3   6  -4    2.48    1.52   1
  -3  -6   4    2.18    1.89   4
   2   6  -4    1.43    1.27   1
  -2  -6   4   -0.68    1.48   4
  -2  -6   4   -0.64    1.24   2
  -2  -6   4    0.91    1.21   1
  -2  -6   4    1.79    1.27   2
  -2  -6   4   -0.68    1.14   5
  -2  -6   4    1.22    1.39   5
  -1  -6   4   10.54    1.87   2
  -1  -6   4   12.47    2.13   5
  -1  -6   4    9.53    1.94   5
   1   6  -4    9.10    1.71   1
  -1  -6   4   10.53    1.89   1
  -1  -6   4    4.24    1.93   4
  -1  -6   4    9.17    1.85   2
   0  -6   4   12.98    2.70   4
   0  -6   4    7.42    1.74   1
   0  -6   4    8.13    1.78   5
   0   6  -4    6.48    1.43   1
   0  -6   4   10.12    1.86   5
   0  -6   4    7.47    1.68   2
  -1   6  -4    1.35    0.99   1
   1  -6   4    0.89    1.17   5
   1  -6   4   -1.03    0.91   5
   1  -6   4   -0.37    1.04   2
   1  -6   4    0.30    1.62   4
   1  -6   4    0.71    1.20   1
  -2   6  -4   11.87    1.74   1
   2  -6   4   14.67    2.92   4
   2  -6   4    9.11    1.87   2
   2  -6   4    7.39    1.83   5
   3  -6   4    2.67    1.84   4
   3  -6   4    1.19    1.51   2
  -3   6  -4    0.18    1.16   1
   3  -6   4    2.79    1.66   5
   4  -6   4   -1.95    1.38   2
   4  -6   4    0.39    1.96   4
  -4   6  -4    0.20    1.29   1
   4  -6   4    2.30    1.80   5
  -5   6  -4    0.04    1.57   1
   5  -6   4   -0.29    2.23   4
   5  -6   4   -0.29    1.83   5
   5  -6   4    2.03    2.12   2
  -6   6  -4    1.00    1.83   1
  -8  -5   4    1.32    2.70   1
   8   5  -4    3.16    2.55   1
  -7  -5   4    3.26    2.40   4
   7   5  -4    2.46    2.22   1
  -7  -5   4    1.01    2.18   1
   6   5  -4   -1.95    1.60   1
  -6  -5   4   -0.79    1.77   1
  -6  -5   4   -0.38    1.75   4
   5   5  -4    1.26    1.60   1
  -5  -5   4   -2.26    1.39   1
  -5  -5   4    0.53    1.79   5
  -5  -5   4   -0.51    1.56   4
  -4  -5   4    5.60    2.00   2
  -4  -5   4    5.43    1.98   5
  -4  -5   4    3.72    1.76   1
   4   5  -4    9.29    2.30   1
  -4  -5   4    5.96    2.18   4
  -3  -5   4   16.15    2.41   2
  -3  -5   4   27.57    3.11   5
  -3  -5   4   23.28    2.66   2
  -3  -5   4   23.56    3.08   4
   3   5  -4   20.79    2.34   5
  -3  -5   4   16.54    2.59   1
  -3  -5   4   18.80    2.73   5
   3   5  -4   15.56    2.35   1
  -2  -5   4    2.31    1.32   2
  -2  -5   4    0.58    1.14   1
  -2  -5   4    1.13    1.49   4
   2   5  -4    2.50    1.39   1
  -2  -5   4    2.84    1.45   5
  -2  -5   4    1.83    1.21   2
   2   5  -4    3.01    1.19   5
  -2  -5   4    5.25    1.58   5
  -1  -5   4   50.35    3.38   5
  -1  -5   4   52.99    3.23   2
  -1  -5   4   56.56    3.42   1
   1   5  -4   50.50    3.13   1
  -1  -5   4   51.66    3.47   5
  -1  -5   4   45.87    3.11   2
  -1  -5   4   58.71    4.24   4
   1   5  -4   50.90    2.76   5
   0  -5   4    9.53    1.75   5
   0  -5   4    8.73    1.71   5
   0  -5   4    8.22    1.59   2
   0  -5   4   11.10    2.34   4
   0   5  -4    5.26    1.37   1
   0   5  -4    8.63    1.27   5
   0  -5   4    8.35    1.71   1
   1  -5   4    5.51    1.48   2
   1  -5   4    7.04    2.09   4
   1  -5   4    9.17    1.77   5
  -1   5  -4    5.46    1.36   1
   1  -5   4    5.40    1.46   5
   1  -5   4    8.50    1.71   1
   2  -5   4    9.85    2.39   4
   2  -5   4    5.09    1.65   1
  -2   5  -4    3.51    1.38   1
   2  -5   4    6.24    1.72   5
   2  -5   4    4.96    1.49   2
   2  -5   4    8.52    1.82   5
  -3   5  -4    5.43    1.62   1
   3  -5   4    5.51    1.78   5
   3  -5   4    5.06    1.88   1
   3  -5   4    7.78    2.32   4
   3  -5   4    4.84    1.72   2
  -4   5  -4   -0.77    1.14   1
   4  -5   4   -1.13    1.28   2
   4  -5   4    0.67    1.34   5
   4  -5   4    2.59    2.04   4
   5  -5   4    4.46    2.09   5
   5  -5   4    3.81    2.21   2
   5  -5   4    8.05    2.64   4
  -5   5  -4    4.98    1.88   1
  -6   5  -4    2.74    1.98   1
   6  -5   4   -1.81    1.97   5
   8   4  -4   -0.57    2.15   1
  -8  -4   4   -0.55    1.96   1
   7   4  -4   -0.10    1.84   1
  -7  -4   4   -0.10    1.93   1
   6   4  -4   17.09    3.35   1
  -6  -4   4   15.48    3.19   1
  -6  -4   4   14.72    2.82   4
  -5  -4   4    5.05    2.10   1
   5   4  -4    0.87    1.76   1
  -5  -4   4    1.92    1.56   4
  -5  -4   4   -0.46    1.41   5
  -4  -4   4   80.90    5.18   5
  -4  -4   4   82.60    4.90   2
   4   4  -4   80.30    4.91   1
  -4  -4   4   83.28    5.19   5
  -4  -4   4   86.14    4.92   2
  -4  -4   4   77.40    4.85   4
  -4  -4   4   89.32    5.15   1
  -3  -4   4   24.62    2.88   5
   3   4  -4   25.63    2.58   5
  -3  -4   4   24.47    2.91   5
  -3  -4   4   22.09    2.55   2
  -3  -4   4   18.63    2.58   4
   3   4  -4   23.23    2.71   1
  -3  -4   4   21.76    2.71   1
  -3  -4   4   22.64    2.54   2
  -2  -4   4   79.40    4.30   5
  -2  -4   4   73.77    4.07   1
  -2  -4   4   71.35    4.14   5
  -2  -4   4   74.52    4.05   2
  -2  -4   4   75.19    4.52   4
   2   4  -4   75.34    3.98   1
   2   4  -4   73.17    3.82   5
  -2  -4   4   85.08    4.16   2
  -1  -4   4   29.36    2.60   5
   1   4  -4   29.30    2.45   1
   1   4  -4   30.32    2.29   5
  -1  -4   4   27.73    2.87   4
  -1  -4   4   29.78    2.53   1
  -1  -4   4   30.39    2.44   2
  -1  -4   4   30.81    2.46   2
  -1  -4   4   31.00    2.67   5
   0  -4   4    0.14    1.21   4
   0  -4   4    0.59    0.94   5
   0   4  -4    0.54    0.95   1
   0  -4   4   -0.69    0.86   1
   0  -4   4   -0.27    0.87   2
   0   4  -4    1.23    0.87   5
   0  -4   4    0.85    0.91   5
   1  -4   4    1.71    1.05   2
   1  -4   4    1.79    0.98   5
   1  -4   4    0.29    1.23   4
   1  -4   4    3.10    1.18   5
  -1   4  -4    0.95    0.84   5
  -1   4  -4   -1.47    0.74   1
   1  -4   4    0.44    0.93   1
  -2   4  -4    6.32    1.36   5
   2  -4   4   10.57    1.74   2
   2  -4   4    6.95    1.99   4
   2  -4   4    7.64    1.70   5
  -2   4  -4    9.00    1.67   1
   2  -4   4    8.79    1.73   5
   2  -4   4   10.95    1.85   1
   3  -4   4   22.52    2.67   5
   3  -4   4   28.07    2.83   1
   3  -4   4   22.95    2.69   5
  -3   4  -4   19.42    2.38   1
   3  -4   4   16.68    2.78   4
   3  -4   4   22.67    2.50   2
  -4   4  -4    1.28    1.38   1
   4  -4   4    1.15    1.39   5
   4  -4   4    1.32    1.52   1
   4  -4   4   -0.41    1.40   2
   4  -4   4    1.13    1.64   4
   5  -4   4    6.15    2.27   2
   5  -4   4   10.81    2.73   4
   5  -4   4    6.56    2.33   5
  -5   4  -4    6.89    2.02   1
   5  -4   4    9.68    2.50   1
   6  -4   4    0.30    1.84   5
  -6   4  -4    0.43    1.77   1
   7  -4   4   -1.08    2.17   5
  -7   4  -4    0.22    2.03   1
  -8  -3   4    2.06    2.53   1
   8   3  -4    1.68    2.46   1
   7   3  -4    0.02    2.20   1
  -7  -3   4    1.11    2.22   1
   6   3  -4   -0.55    1.70   1
  -6  -3   4    2.97    2.08   1
  -6  -3   4    1.41    1.47   4
   5   3  -4    3.75    1.83   5
  -5  -3   4    0.40    1.66   1
   5   3  -4    5.83    2.05   1
  -5  -3   4    3.53    1.96   5
  -5  -3   4    6.15    1.85   4
  -4  -3   4    1.42    1.42   2
   4   3  -4   -0.39    1.38   1
  -4  -3   4    1.59    1.31   4
  -4  -3   4   -0.88    1.26   1
  -4  -3   4   -0.76    1.21   5
   4   3  -4   -0.93    1.06   5
  -4  -3   4    0.96    1.62   5
   4   3  -4   -2.15    1.08   2
  -4  -3   4    0.50    1.21   2
   3   3  -4    4.67    1.63   5
  -3  -3   4    2.34    1.24   2
  -3  -3   4    5.44    1.67   2
  -3  -3   4    4.55    1.66   5
  -3  -3   4    5.47    1.66   1
  -3  -3   4    5.40    1.70   5
  -3  -3   4    2.52    1.31   4
   3   3  -4    0.80    1.35   1
   3   3  -4    3.89    1.44   2
   2   3  -4   81.10    4.15   1
  -2  -3   4   82.33    4.11   2
  -2  -3   4   85.90    4.08   2
  -2  -3   4   83.41    4.34   4
  -2  -3   4   76.51    4.10   1
  -2  -3   4   85.20    4.38   5
  -2  -3   4   81.60    4.29   5
   2   3  -4   80.63    3.75   2
   2   3  -4   82.02    4.19   5
  -1  -3   4   44.45    3.01   5
   1   3  -4   42.36    2.64   5
  -1  -3   4   52.87    3.19   5
   1   3  -4   47.17    2.94   5
  -1  -3   4   40.94    2.80   1
   1   3  -4   40.90    2.81   1
  -1  -3   4   53.19    3.39   4
  -1  -3   4   45.90    2.85   2
  -1  -3   4   45.39    2.88   2
   0  -3   4  378.33   10.61   5
   0   3  -4  401.05   10.35   5
   0  -3   4  371.83   10.55   5
   0   3  -4  370.53   10.08   1
   0  -3   4  377.57   10.10   2
   0  -3   4  376.25   11.07   4
   0  -3   4  385.82   10.34   1
   0   3  -4  361.26   10.11   5
  -1   3  -4   17.60    1.74   5
   1  -3   4   19.43    2.06   5
  -1   3  -4   15.30    1.73   5
   1  -3   4   20.19    2.04   1
  -1   3  -4   17.55    1.91   1
   1  -3   4   16.74    1.77   2
   1  -3   4   22.43    2.56   4
   1  -3   4   16.27    1.88   5
   2  -3   4  200.05    7.11   5
   2  -3   4  208.36    7.34   5
   2  -3   4  210.19    7.12   1
   2  -3   4  211.32    7.71   4
   2  -3   4  223.34    6.95   2
  -2   3  -4  212.71    6.86   5
  -2   3  -4  210.16    6.86   1
   3  -3   4    1.22    1.28   5
   3  -3   4    3.76    1.66   4
   3  -3   4    3.84    1.48   1
  -3   3  -4    0.08    1.06   1
   3  -3   4    0.93    1.12   2
   3  -3   4    1.56    1.23   5
  -3   3  -4    0.38    0.95   5
   4  -3   4   21.67    2.97   4
   4  -3   4   17.95    2.67   1
   4  -3   4   15.85    2.59   5
   4  -3   4   21.69    2.95   5
  -4   3  -4   15.49    2.44   1
  -4   3  -4   19.77    2.45   5
   4  -3   4   20.92    2.64   2
   5  -3   4    0.61    1.68   2
   5  -3   4    3.66    1.93   1
   5  -3   4    0.01    1.65   4
   5  -3   4    0.94    1.51   5
  -5   3  -4   -0.66    1.36   1
  -6   3  -4    2.70    1.92   1
   6  -3   4    1.12    1.85   2
   6  -3   4   -1.82    1.58   1
   6  -3   4   -1.47    1.95   5
  -7   3  -4    1.84    2.22   1
   7  -3   4    0.11    2.00   5
   8   2  -4   -0.42    2.32   1
  -8  -2   4   -1.92    1.58   1
   7   2  -4   -0.39    2.06   1
  -7  -2   4    0.23    2.00   1
   6   2  -4    1.69    2.07   1
  -6  -2   4    3.31    2.03   1
  -5  -2   4   -0.69    1.45   5
   5   2  -4    2.92    1.90   5
   5   2  -4   -0.08    1.56   1
  -5  -2   4    1.74    1.20   4
  -5  -2   4    2.06    1.72   1
   4   2  -4   31.00    3.27   5
  -4  -2   4   29.76    3.21   5
  -4  -2   4   29.57    3.25   1
   4   2  -4   23.93    2.98   1
  -4  -2   4   34.33    3.58   5
  -4  -2   4   30.18    2.56   4
   4   2  -4   40.57    3.73   5
   4   2  -4   30.88    2.99   2
  -4  -2   4   29.32    3.01   2
   3   2  -4    3.33    1.52   5
   3   2  -4    5.06    1.60   1
  -3  -2   4    3.28    1.30   2
  -3  -2   4    6.09    1.68   1
  -3  -2   4    4.97    1.53   2
  -3  -2   4    5.20    1.64   5
  -3  -2   4    7.13    1.51   4
  -3  -2   4    3.98    1.61   5
   3   2  -4    4.86    1.48   5
   3   2  -4    6.26    1.60   2
   2   2  -4   10.91    1.61   2
  -2  -2   4   10.26    1.73   2
  -2  -2   4    9.35    1.69   5
  -2  -2   4    8.48    1.67   1
  -2  -2   4   10.98    1.72   4
   2   2  -4   10.72    1.78   5
  -2  -2   4    9.88    1.81   5
   2   2  -4   11.01    1.86   1
   2   2  -4    9.05    1.71   5
  -2  -2   4    9.56    1.68   2
   2   2  -4   10.61    1.65   2
  -1  -2   4   38.58    2.89   5
   1   2  -4   40.06    2.77   1
  -1  -2   4   34.48    2.59   4
  -1  -2   4   37.89    2.54   2
  -1  -2   4   37.21    2.64   5
   1   2  -4   38.65    2.68   5
  -1  -2   4   38.63    2.56   2
   1   2  -4   37.97    2.36   2
  -1  -2   4   37.79    2.73   1
   0   2  -4   18.29    1.84   5
   0  -2   4   21.29    1.98   5
   0  -2   4   18.36    1.76   2
   0  -2   4   18.46    2.12   4
   0  -2   4   17.09    1.86   2
   0   2  -4   18.67    1.89   1
   0  -2   4   17.64    1.90   5
   0  -2   4   17.31    1.89   1
   0   2  -4   18.59    1.66   2
   1  -2   4    5.90    1.63   4
   1  -2   4    4.62    1.22   1
   1  -2   4    6.34    1.33   2
  -1   2  -4    5.65    1.36   1
  -1   2  -4    7.42    1.19   2
  -1   2  -4    8.11    1.38   5
   1  -2   4    4.88    1.25   5
  -1   2  -4    8.21    1.36   5
   1  -2   4    5.73    1.39   5
   2  -2   4   27.90    2.41   5
  -2   2  -4   28.50    2.03   2
  -2   2  -4   24.11    2.28   1
  -2   2  -4   27.17    2.26   5
   2  -2   4   27.10    2.45   5
   2  -2   4   26.02    2.34   1
  -2   2  -4   26.60    2.20   5
   2  -2   4   26.87    2.21   2
   2  -2   4   27.48    2.62   4
   3  -2   4   19.62    2.15   2
   3  -2   4   21.91    2.43   5
  -3   2  -4   13.38    2.01   1
  -3   2  -4   17.00    2.08   5
   3  -2   4   19.09    2.41   4
   3  -2   4   16.26    2.20   5
   3  -2   4   14.46    2.07   1
  -4   2  -4   -1.36    0.91   5
   4  -2   4   -0.11    1.20   5
   4  -2   4   -0.43    1.24   2
   4  -2   4    1.35    1.43   1
   4  -2   4   -0.85    1.21   4
   4  -2   4    1.64    1.38   5
  -4   2  -4    0.22    1.31   1
  -5   2  -4    7.70    2.06   1
   5  -2   4    4.30    1.94   2
   5  -2   4    5.41    2.11   1
   5  -2   4    8.06    2.29   5
   6  -2   4    3.04    2.21   5
   6  -2   4    6.85    2.50   1
  -6   2  -4    1.49    1.73   1
   6  -2   4    6.84    2.37   2
   7  -2   4    4.95    2.52   5
   7  -2   4    1.11    1.95   1
  -7   2  -4   -1.38    1.64   1
  -8   2  -4    1.32    2.35   1
  -8  -1   4    0.08    2.18   1
   8   1  -4   -0.22    2.50   1
   7   1  -4   -0.41    2.22   1
  -7  -1   4    3.66    2.38   1
  -6  -1   4    5.43    2.27   1
   6   1  -4    8.82    2.77   1
   5   1  -4   -0.40    1.51   5
  -5  -1   4    1.03    1.78   1
   5   1  -4    0.92    1.68   1
  -5  -1   4   -0.08    1.53   5
  -5  -1   4   -1.52    1.25   3
   5   1  -4    0.44    1.54   2
  -5  -1   4    1.00    1.04   4
   4   1  -4   45.13    3.77   1
  -4  -1   4   39.57    3.15   2
   4   1  -4   42.04    3.70   5
   4   1  -4   35.62    3.14   2
  -4  -1   4   36.97    2.37   4
   4   1  -4   38.74    3.30   2
   4   1  -4   37.77    3.43   5
  -4  -1   4   36.76    3.58   5
  -4  -1   4   42.32    3.64   1
  -4  -1   4   33.91    3.27   5
  -3  -1   4   13.98    2.21   1
  -3  -1   4   11.27    1.51   4
   3   1  -4   10.45    1.81   2
  -3  -1   4   11.48    1.96   5
   3   1  -4    9.39    1.96   5
  -3  -1   4   11.96    1.99   2
  -3  -1   4   11.68    2.14   5
   3   1  -4   12.75    2.18   5
   3   1  -4    7.70    1.81   1
   3   1  -4   11.38    1.82   2
   2   1  -4   13.54    1.93   1
  -2  -1   4   10.09    1.83   5
  -2  -1   4   13.48    1.96   1
   2   1  -4   14.68    1.97   5
  -2  -1   4   10.05    1.67   2
   2   1  -4   14.21    1.75   2
  -2  -1   4   10.60    1.75   5
  -2  -1   4   13.69    1.58   4
   2   1  -4   10.80    1.82   5
  -1  -1   4   64.61    3.41   5
   1   1  -4   67.97    3.38   5
  -1  -1   4   68.30    3.40   5
  -1  -1   4   62.63    3.35   1
   1   1  -4   70.19    3.52   1
   1   1  -4   68.43    3.16   2
  -1  -1   4   70.77    3.25   2
  -1  -1   4   68.55    3.35   2
  -1  -1   4   66.27    3.20   4
   1   1  -4   66.87    3.42   5
   0  -1   4   77.66    3.31   2
   0  -1   4   80.52    3.56   5
   0   1  -4   77.62    3.44   5
   0  -1   4   74.62    3.42   1
   0   1  -4   81.38    3.51   5
   0  -1   4   74.99    3.51   4
   0   1  -4   79.14    3.27   2
   0  -1   4   77.21    3.37   2
   0   1  -4   79.46    3.50   1
   0  -1   4   80.35    3.61   5
  -1   1  -4    7.73    1.36   5
  -1   1  -4    4.99    1.13   2
  -1   1  -4    7.55    1.41   1
   1  -1   4    5.78    1.34   5
   1  -1   4    6.29    1.50   4
   1  -1   4    7.88    1.31   2
   1  -1   4    5.65    1.27   1
   1  -1   4    9.05    1.41   5
   2  -1   4   91.33    4.19   5
   2  -1   4   94.86    3.96   2
   2  -1   4   87.41    4.05   5
  -2   1  -4   82.05    3.92   1
  -2   1  -4   88.96    3.92   5
   2  -1   4   86.97    3.97   1
   2  -1   4   85.78    4.24   4
  -2   1  -4   91.63    3.68   2
   3  -1   4   39.48    2.83   2
  -3   1  -4   37.31    2.86   1
   3  -1   4   40.84    2.97   5
   3  -1   4   44.87    3.11   5
   3  -1   4   38.00    2.98   4
  -3   1  -4   36.78    2.68   5
   3  -1   4   36.64    2.91   1
  -3   1  -4   34.89    2.49   2
   4  -1   4    3.94    1.57   5
   4  -1   4    2.84    1.45   2
  -4   1  -4    1.55    1.29   1
   4  -1   4    4.95    1.71   1
  -4   1  -4    4.34    1.42   2
   4  -1   4    4.74    1.80   4
   4  -1   4    1.12    1.31   5
  -5   1  -4   16.75    2.70   5
  -5   1  -4   13.85    2.58   1
   5  -1   4   15.49    2.65   1
   5  -1   4    8.37    2.09   5
   5  -1   4   13.83    2.48   2
   5  -1   4   13.29    2.64   5
   6  -1   4   -1.64    1.50   1
   6  -1   4    3.72    1.94   5
  -6   1  -4    1.79    1.73   1
   6  -1   4   -1.38    1.50   2
  -7   1  -4   -1.01    1.76   1
   7  -1   4    1.95    2.00   5
   7  -1   4    3.33    2.19   1
  -8   1  -4   -3.22    1.85   1
   8  -1   4    0.95    2.62   1
  -8   0   4    1.73    2.40   1
   8   0  -4   -0.67    2.45   1
   7   0  -4   -1.47    2.09   1
  -7   0   4    0.49    1.82   1
  -6   0   4    0.66    1.79   1
   6   0  -4    0.46    1.85   5
   6   0  -4    1.10    1.97   1
   5   0  -4    0.99    1.66   5
  -5   0   4   -0.35    1.39   1
  -5   0   4    2.51    1.55   3
   5   0  -4   -1.11    1.38   1
   5   0  -4   -2.32    1.39   2
  -4   0   4    1.94    1.40   3
  -4   0   4    2.63    1.52   1
   4   0  -4    4.42    1.57   2
   4   0  -4    3.80    1.69   5
   4   0  -4    4.44    1.76   2
   4   0  -4    4.68    1.83   5
  -4   0   4    4.16    1.48   2
  -4   0   4    4.93    0.96   4
   4   0  -4    2.93    1.74   1
  -3   0   4   43.76    2.88   2
   3   0  -4   46.55    3.12   2
  -3   0   4   43.01    3.07   1
  -3   0   4   39.01    2.07   4
   3   0  -4   36.12    2.99   5
   3   0  -4   48.14    3.43   5
  -3   0   4   38.98    3.13   5
   3   0  -4   44.36    3.14   2
   3   0  -4   41.22    3.10   1
  -2   0   4   -0.62    0.87   2
  -2   0   4    3.57    1.30   2
   2   0  -4    3.07    1.18   2
  -2   0   4    2.91    0.95   4
   2   0  -4    0.92    1.18   2
   2   0  -4    1.07    1.12   5
  -2   0   4    0.45    0.94   5
  -2   0   4    1.20    1.13   5
   2   0  -4    1.36    1.29   5
  -2   0   4    0.81    1.03   1
   2   0  -4    1.30    1.17   1
  -1   0   4  120.64    4.15   4
   1   0  -4  127.57    4.25   4
   1   0  -4  115.40    4.34   2
  -1   0   4  120.66    4.56   5
  -1   0   4  123.17    4.46   2
   1   0  -4  123.95    4.44   2
  -1   0   4  122.46    4.59   1
   1   0  -4  120.58    4.63   1
  -1   0   4  122.90    4.74   5
   1   0  -4  122.29    4.70   5
   1   0  -4  124.58    4.74   5
   0   0  -4  218.08    6.41   5
   0   0   4  211.35    6.19   1
   0   0  -4  210.86    6.11   2
   0   0   4  212.05    6.40   5
   0   0  -4  203.55    6.31   5
   0   0   4  208.57    6.26   4
   0   0  -4  194.73    5.93   2
   0   0   4  206.43    6.02   2
   0   0   4  200.00    6.28   5
   0   0  -4  207.74    6.20   4
   0   0  -4  208.78    6.22   1
   1   0   4    4.63    1.08   5
   1   0   4    5.71    1.33   4
  -1   0  -4    4.85    1.17   1
   1   0   4    7.64    1.32   1
  -1   0  -4    6.76    1.10   2
  -1   0  -4    5.68    1.15   5
   1   0   4    5.83    1.16   5
  -1   0  -4    7.98    1.29   5
   2   0   4  167.65    5.79   5
   2   0   4  155.72    5.81   4
   2   0   4  168.90    5.74   1
  -2   0  -4  153.27    5.22   2
   2   0   4  164.98    5.77   5
  -2   0  -4  171.54    5.73   5
  -2   0  -4  158.40    5.60   1
   2   0   4  161.50    5.40   2
  -2   0  -4  166.24    5.90   5
  -3   0  -4   24.48    2.34   5
   3   0   4   21.99    2.30   5
   3   0   4   25.12    2.22   2
   3   0   4   27.06    2.48   5
  -3   0  -4   22.94    2.34   5
  -3   0  -4   23.32    2.11   2
   3   0   4   25.77    2.47   1
  -3   0  -4   21.89    2.31   1
   3   0   4   19.29    2.31   4
  -4   0  -4    4.00    1.41   5
   4   0   4    3.48    1.56   5
   4   0   4    0.39    1.18   5
   4   0   4    4.37    1.55   2
   4   0   4    3.26    1.45   1
  -4   0  -4    2.39    1.24   2
  -4   0  -4    3.14    1.32   2
  -4   0  -4    2.72    1.46   1
  -4   0  -4    2.19    1.22   5
   5   0   4   16.26    2.68   5
  -5   0  -4   13.40    2.52   1
   5   0   4   14.68    2.64   5
   5   0   4   14.74    2.57   1
  -5   0  -4   11.53    2.15   2
   5   0   4   18.81    2.61   2
   6   0   4   -1.01    1.60   2
   6   0   4    2.81    1.90   5
   6   0   4    4.67    1.94   1
  -6   0  -4    4.66    2.03   1
   7   0   4    1.90    1.97   1
  -7   0  -4    0.22    1.80   1
  -8   0  -4   -1.51    2.12   1
   8   0   4   -0.37    2.40   1
   9   0   4    0.25    2.45   1
  -9   0  -4    0.45    2.38   1
   8  -1  -4    1.29    2.81   1
  -8   1   4    1.62    2.39   1
   7  -1  -4   -1.29    2.17   1
  -7   1   4    1.39    1.99   1
   6  -1  -4   -0.37    1.63   1
  -6   1   4   -0.19    1.62   1
   6  -1  -4    1.26    2.07   5
   5  -1  -4   -0.22    1.47   5
   5  -1  -4    0.16    1.71   1
  -5   1   4    0.74    1.61   3
  -5   1   4    0.92    1.61   1
   5  -1  -4    1.11    1.72   2
  -4   1   4   10.18    2.13   1
  -4   1   4   13.66    2.29   3
   4  -1  -4   18.44    2.70   1
   4  -1  -4   10.54    2.28   2
   4  -1  -4   11.06    2.14   2
   4  -1  -4   13.76    2.54   5
  -4   1   4   10.85    2.02   5
   4  -1  -4   18.49    2.73   5
   3  -1  -4   62.56    3.87   5
   3  -1  -4   61.73    3.58   2
  -3   1   4   70.06    3.81   1
  -3   1   4   65.56    3.81   3
   3  -1  -4   68.16    3.95   1
   3  -1  -4   60.48    3.66   2
  -3   1   4   62.67    3.52   5
  -3   1   4   65.96    3.24   2
  -3   1   4   65.91    3.84   5
   3  -1  -4   59.44    3.78   5
   2  -1  -4   18.59    1.87   2
   2  -1  -4   17.96    2.09   5
   2  -1  -4   14.49    1.87   1
  -2   1   4   16.74    1.64   2
  -2   1   4   18.61    1.86   5
   2  -1  -4   17.21    1.93   2
  -2   1   4   12.21    1.68   1
  -2   1   4   16.07    1.23   4
  -2   1   4   13.77    1.74   2
   2  -1  -4   15.06    1.86   5
   2  -1  -4   16.43    1.27   4
  -2   1   4   14.81    1.83   5
  -1   1   4  243.69    7.07   5
   1  -1  -4  242.03    7.23   5
  -1   1   4  225.51    6.85   5
   1  -1  -4  246.82    6.31   4
  -1   1   4  240.76    6.33   4
  -1   1   4  238.35    6.82   1
  -1   1   4  232.21    6.43   2
  -1   1   4  246.28    6.63   2
   1  -1  -4  234.63    6.94   1
   1  -1  -4  227.65    6.69   2
   1  -1  -4  236.41    6.82   2
   1  -1  -4  223.57    6.98   5
   0   1   4    0.19    0.72   2
   0  -1  -4    0.54    0.70   5
   0   1   4    0.35    0.76   1
   0  -1  -4    1.13    0.83   5
   0   1   4   -0.04    0.74   4
   0  -1  -4    0.55    0.81   1
   0  -1  -4    1.60    0.79   2
   0  -1  -4    0.31    0.77   4
   0  -1  -4    0.47    0.75   2
   0   1   4    0.48    0.80   5
   0   1   4    1.78    0.75   2
   1   1   4   27.29    2.06   4
  -1  -1  -4   29.07    2.07   5
   1   1   4   32.11    1.87   2
  -1  -1  -4   30.84    2.07   1
   1   1   4   27.18    1.98   5
  -1  -1  -4   30.47    1.93   2
   1   1   4   31.37    1.93   2
   1   1   4   33.64    2.07   1
  -1  -1  -4   25.01    1.98   5
  -2  -1  -4   12.58    1.60   5
   2   1   4   15.54    1.72   5
  -2  -1  -4   16.36    1.69   2
  -2  -1  -4   13.10    1.66   5
  -2  -1  -4   17.11    1.82   1
   2   1   4   17.06    1.83   1
   2   1   4   12.60    1.65   5
  -3  -1  -4   -0.65    1.07   1
  -3  -1  -4   -0.90    0.86   5
   3   1   4    1.52    1.13   5
   3   1   4    0.52    0.99   5
   3   1   4   -0.67    0.93   1
  -3  -1  -4    0.77    1.01   2
  -3  -1  -4    0.80    1.14   5
   4   1   4   14.30    2.22   5
   4   1   4   11.92    2.08   5
  -4  -1  -4   16.80    2.23   5
   4   1   4   13.05    2.13   1
   4   1   4   10.18    1.85   2
  -4  -1  -4   11.04    1.88   2
  -4  -1  -4   15.02    2.26   5
  -4  -1  -4   16.18    2.28   1
  -5  -1  -4    1.58    1.52   1
   5   1   4    3.03    1.64   5
  -5  -1  -4    2.36    1.51   5
   5   1   4    3.79    1.66   1
   5   1   4    5.22    1.67   2
  -5  -1  -4    4.14    1.65   5
   5   1   4    1.45    1.43   5
   6   1   4   24.03    3.33   5
   6   1   4   20.57    3.21   1
  -6  -1  -4   18.08    3.09   5
  -6  -1  -4   17.15    2.95   1
  -7  -1  -4   -0.50    1.61   1
   7   1   4   -2.71    1.79   1
   8   1   4    1.56    2.45   1
  -8  -1  -4    4.25    2.55   1
  -9  -1  -4    3.14    2.59   1
   9   1   4   10.35    3.59   1
  -7   2   4    2.04    2.12   1
  -6   2   4   -1.35    1.58   1
   6  -2  -4    5.58    2.33   1
   6  -2  -4    2.77    2.10   5
   5  -2  -4   -1.43    1.56   2
  -5   2   4    0.33    1.65   3
   5  -2  -4    6.03    2.16   5
   5  -2  -4    1.35    1.77   1
  -5   2   4   -0.17    1.46   1
   4  -2  -4   24.11    2.85   1
  -4   2   4   20.21    2.34   5
  -4   2   4   15.25    2.66   3
   4  -2  -4   25.99    2.80   2
   4  -2  -4   16.45    2.63   5
   4  -2  -4   19.79    2.77   5
   4  -2  -4   24.10    2.88   2
  -4   2   4   15.84    2.34   1
   3  -2  -4    1.60    1.17   5
   3  -2  -4    3.82    1.50   1
   3  -2  -4    4.81    1.55   5
  -3   2   4    2.29    1.20   1
   3  -2  -4    0.12    1.02   2
   3  -2  -4    3.11    1.44   2
  -3   2   4    3.00    1.13   5
  -3   2   4    2.68    1.70   3
   2  -2  -4   18.76    1.98   2
  -2   2   4   16.80    1.81   5
  -2   2   4   16.38    1.78   1
   2  -2  -4   13.62    1.89   5
   2  -2  -4   13.51    1.79   5
   2  -2  -4   13.64    1.65   2
  -2   2   4   14.45    1.54   5
   2  -2  -4   11.86    1.71   1
  -2   2   4   15.76    2.22   3
   1  -2  -4    0.70    1.05   2
  -1   2   4    1.68    0.87   5
  -1   2   4    2.59    1.01   5
   1  -2  -4    5.10    1.26   5
   1  -2  -4    5.38    0.93   4
   1  -2  -4    3.77    1.10   5
  -1   2   4    2.51    0.88   2
   1  -2  -4    2.43    1.08   1
   1  -2  -4    3.24    0.96   2
  -1   2   4    3.55    1.05   1
  -1   2   4    2.35    0.76   2
   0   2   4   17.26    1.28   2
   0  -2  -4   16.39    1.55   1
   0   2   4   15.07    1.43   5
   0   2   4   16.01    1.57   1
   0   2   4   14.76    1.44   1
   0  -2  -4   16.63    1.58   5
   0  -2  -4   16.18    1.40   2
   0   2   4   17.21    1.38   2
   0  -2  -4   17.96    1.54   5
   0   2   4   14.65    1.33   5
   0  -2  -4   14.58    1.46   2
   0  -2  -4   16.37    1.55   4
   1   2   4  366.48    9.23   5
  -1  -2  -4  367.35    9.23   1
  -1  -2  -4  374.02    9.70   4
  -1  -2  -4  357.46    9.41   5
  -1  -2  -4  360.29    9.46   5
   1   2   4  371.54    9.29   5
  -1  -2  -4  368.10    9.04   2
   1   2   4  358.78    8.71   2
   1   2   4  367.39    9.09   1
   1   2   4  360.03    8.67   2
   1   2   4  352.39    9.08   1
   2   2   4  257.21    6.99   2
   2   2   4  248.59    7.31   1
  -2  -2  -4  250.91    7.53   5
  -2  -2  -4  247.98    7.52   5
   2   2   4  254.48    7.34   5
  -2  -2  -4  264.56    7.21   2
  -2  -2  -4  258.85    7.35   1
  -3  -2  -4  434.17   11.84   5
   3   2   4  421.90   11.06   2
  -3  -2  -4  432.79   11.30   2
  -3  -2  -4  428.17   11.51   1
  -3  -2  -4  421.38   11.95   5
   3   2   4  432.33   11.60   5
   3   2   4  428.01   11.43   1
  -4  -2  -4   87.63    4.74   5
   4   2   4   97.22    4.73   5
  -4  -2  -4   94.93    4.51   2
  -4  -2  -4   88.70    4.35   2
   4   2   4   89.06    4.37   2
  -4  -2  -4   98.57    4.85   5
  -4  -2  -4   87.02    4.49   1
   4   2   4   90.84    4.58   1
   4   2   4   91.45    4.67   5
  -5  -2  -4  116.65    5.97   5
   5   2   4  117.17    5.85   5
  -5  -2  -4  122.68    5.68   2
  -5  -2  -4  111.98    5.39   2
  -5  -2  -4  110.03    5.73   5
   5   2   4  115.22    5.72   1
  -5  -2  -4  121.59    5.92   1
   5   2   4  127.35    6.18   5
   6   2   4   13.95    2.75   1
  -6  -2  -4    9.53    2.55   5
   6   2   4   11.74    2.61   5
  -6  -2  -4    7.73    2.33   1
   7   2   4    6.26    2.66   1
  -7  -2  -4    5.62    2.30   1
  -8  -2  -4    0.99    2.07   1
   8   2   4   -1.89    2.01   1
   9   2   4    1.75    2.56   1
  -9  -2  -4    1.64    2.50   1
   7  -3  -4    1.00    2.29   5
  -7   3   4   -0.08    1.79   1
  -6   3   4    5.12    2.16   1
   6  -3  -4    8.10    2.56   5
  -5   3   4    0.24    1.82   3
   5  -3  -4   -0.07    1.71   1
  -5   3   4   -0.04    1.34   1
   5  -3  -4    2.58    1.97   2
   5  -3  -4   -1.17    1.47   5
  -4   3   4   24.11    3.18   3
  -4   3   4   18.94    2.43   1
   4  -3  -4   27.75    3.10   5
   4  -3  -4   27.19    2.84   2
   4  -3  -4   26.12    2.99   2
   4  -3  -4   22.85    2.86   1
  -3   3   4   34.34    3.35   3
   3  -3  -4   27.37    2.43   2
  -3   3   4   28.40    2.43   1
   3  -3  -4   29.44    2.69   1
   3  -3  -4   31.85    2.81   5
   3  -3  -4   23.15    2.58   5
  -3   3   4   29.56    2.09   5
   3  -3  -4   24.94    2.52   2
  -2   3   4    4.29    0.97   5
   2  -3  -4    3.44    1.28   2
   2  -3  -4    4.40    1.34   5
  -2   3   4    3.79    1.13   1
  -2   3   4    6.15    1.74   3
   2  -3  -4    4.17    1.25   5
   2  -3  -4    4.95    1.42   1
   2  -3  -4    6.52    1.28   2
   1  -3  -4  151.31    5.02   1
  -1   3   4  157.34    4.80   1
   1  -3  -4  148.60    5.15   5
  -1   3   4  160.89    4.46   5
   1  -3  -4  162.33    4.54   4
  -1   3   4  158.14    6.14   3
   1  -3  -4  155.81    5.15   5
   1  -3  -4  152.10    4.85   2
   1  -3  -4  158.13    4.81   2
  -1   3   4  149.73    4.70   1
  -1   3   4  153.84    4.38   5
   0   3   4   48.91    2.28   1
   0  -3  -4   40.61    2.34   5
   0   3   4   41.65    3.02   3
   0   3   4   46.48    1.89   5
   0   3   4   52.23    1.98   5
   0  -3  -4   48.33    2.37   5
   0  -3  -4   44.63    2.25   2
   0  -3  -4   43.05    2.31   1
   0   3   4   47.46    2.18   1
   0  -3  -4   44.55    2.14   2
   1   3   4   71.04    2.87   1
   1   3   4   74.69    2.69   5
  -1  -3  -4   70.69    3.03   1
  -1  -3  -4   76.00    3.03   5
  -1  -3  -4   70.79    2.82   2
  -1  -3  -4   75.39    2.84   2
   1   3   4   72.13    2.72   5
  -1  -3  -4   72.68    3.00   5
   1   3   4   73.09    2.87   1
  -2  -3  -4   80.08    3.53   5
   2   3   4   83.07    3.24   5
   2   3   4   81.59    3.41   1
  -2  -3  -4   87.90    3.51   2
  -2  -3  -4   85.12    3.54   5
   2   3   4   81.76    2.93   2
   2   3   4   79.83    3.30   5
  -2  -3  -4   81.39    3.50   1
   2   3   4   79.35    2.85   2
   3   3   4    6.28    1.42   1
  -3  -3  -4    6.08    1.40   2
  -3  -3  -4    4.04    1.39   1
   3   3   4    5.54    1.37   5
  -3  -3  -4    6.25    1.47   5
  -3  -3  -4    4.26    1.32   5
   3   3   4    4.76    1.16   2
   3   3   4    5.83    1.30   5
  -4  -3  -4    1.20    1.24   5
  -4  -3  -4   -0.66    0.96   2
   4   3   4    0.29    1.11   1
  -4  -3  -4    0.88    1.10   5
   4   3   4   -0.09    1.03   2
   4   3   4    0.79    0.99   5
  -4  -3  -4    0.34    1.14   1
   5   3   4    0.35    1.38   1
   5   3   4   -0.20    1.21   5
   5   3   4    3.56    1.49   2
  -5  -3  -4    0.32    1.32   5
  -5  -3  -4    0.25    1.34   1
  -5  -3  -4    1.53    1.44   5
  -5  -3  -4    1.67    1.24   2
  -5  -3  -4    3.20    1.59   2
   5   3   4    1.15    1.27   5
   6   3   4   23.35    3.21   5
  -6  -3  -4   17.01    2.98   5
   6   3   4   21.53    3.19   1
  -6  -3  -4   18.12    2.92   1
  -6  -3  -4   19.82    2.86   2
  -6  -3  -4   20.87    3.27   5
   7   3   4    1.73    1.99   1
  -7  -3  -4   -0.48    1.59   1
  -8  -3  -4    6.79    2.80   1
   8   3   4   10.81    3.24   1
   9   3   4    1.64    2.65   1
  -9  -3  -4   -0.43    2.21   1
  -7   4   4    0.23    1.76   1
  -6   4   4   -0.75    1.60   1
   6  -4  -4    3.10    2.08   5
  -5   4   4    0.66    1.30   1
   5  -4  -4    1.39    1.89   2
   5  -4  -4   -2.68    1.23   5
   4  -4  -4   -0.56    1.26   2
   4  -4  -4    2.12    1.58   2
  -4   4   4   -1.06    1.17   1
   4  -4  -4   -2.38    1.19   1
  -4   4   4    0.16    1.87   3
   4  -4  -4    0.18    1.39   5
  -3   4   4    8.31    2.36   3
   3  -4  -4    9.09    1.72   2
   3  -4  -4    6.47    1.69   1
   3  -4  -4    8.06    1.78   2
  -3   4   4    8.74    1.53   1
   3  -4  -4   10.47    1.90   5
   3  -4  -4    7.47    1.81   5
   2  -4  -4    5.18    1.30   5
   2  -4  -4    3.24    1.23   5
  -2   4   4    5.15    1.05   1
   2  -4  -4    4.97    1.34   1
  -2   4   4    4.81    1.84   3
   2  -4  -4    5.81    1.37   2
   2  -4  -4    6.48    1.24   2
  -1   4   4   31.63    2.98   3
   1  -4  -4   33.10    2.07   1
   1  -4  -4   34.83    2.03   2
   1  -4  -4   31.07    1.79   2
   1  -4  -4   34.78    2.20   5
   1  -4  -4   28.03    1.99   5
  -1   4   4   30.43    1.64   1
   0  -4  -4   81.23    3.03   1
   0  -4  -4   80.52    2.66   2
   0  -4  -4   81.96    2.75   2
   0   4   4   81.82    2.53   1
   0   4   4   83.15    2.53   1
   0  -4  -4   81.03    3.07   5
   0  -4  -4   74.14    2.94   5
   0   4   4   85.96    4.47   3
  -1  -4  -4    1.14    0.77   5
  -1  -4  -4   -0.39    0.60   5
   1   4   4   -0.16    0.60   1
   1   4   4   -0.11    1.11   3
  -1  -4  -4   -0.09    0.66   2
  -1  -4  -4   -0.85    0.66   2
  -1  -4  -4   -0.32    0.77   1
   2   4   4   52.78    3.11   3
  -2  -4  -4   48.99    2.66   5
  -2  -4  -4   49.15    2.62   1
   2   4   4   49.84    2.17   5
   2   4   4   58.49    2.58   1
  -2  -4  -4   50.85    2.69   5
  -2  -4  -4   53.51    2.56   2
   2   4   4   49.45    2.43   1
  -3  -4  -4   95.69    4.06   2
   3   4   4   90.81    3.78   5
   3   4   4   96.04    3.86   5
  -3  -4  -4  105.41    4.31   1
   3   4   4   88.64    3.82   3
  -3  -4  -4  107.26    4.51   5
   3   4   4  102.58    4.07   1
  -3  -4  -4  107.94    4.44   5
   4   4   4   -0.53    0.78   3
  -4  -4  -4    1.23    1.09   2
   4   4   4   -0.79    0.90   1
  -4  -4  -4    0.48    1.08   5
  -4  -4  -4    3.30    1.35   1
   4   4   4    0.44    0.96   5
  -4  -4  -4   -0.79    0.95   5
   5   4   4   37.76    3.37   1
   5   4   4   36.94    1.90   3
  -5  -4  -4   31.32    3.28   5
  -5  -4  -4   31.05    3.07   2
   5   4   4   34.90    3.13   5
  -5  -4  -4   28.37    3.00   2
  -5  -4  -4   38.35    3.40   1
  -5  -4  -4   32.72    3.31   5
  -6  -4  -4    4.78    1.98   1
   6   4   4    8.73    2.53   1
  -6  -4  -4    2.91    1.74   2
  -6  -4  -4    5.22    2.04   5
  -7  -4  -4    1.82    1.72   5
   7   4   4    1.11    1.88   1
  -7  -4  -4    2.72    1.90   1
   8   4   4    3.18    2.12   1
  -8  -4  -4    0.96    2.03   1
   9   4   4    2.59    2.59   1
  -9  -4  -4   -0.42    2.03   1
  -6   5   4    1.28    1.69   1
   5  -5  -4   -0.76    1.71   2
  -5   5   4    0.70    1.29   1
   5  -5  -4   -0.40    1.53   5
  -4   5   4    3.79    1.41   1
   4  -5  -4    1.15    1.54   5
   4  -5  -4    4.84    1.78   2
   4  -5  -4    6.10    1.97   2
  -3   5   4    5.59    2.28   3
   3  -5  -4    8.94    1.85   5
  -3   5   4    7.27    1.29   1
   3  -5  -4    9.27    1.93   5
   3  -5  -4   11.56    1.84   2
   3  -5  -4   10.29    1.99   2
   2  -5  -4   -0.08    0.60   4
   2  -5  -4   -0.33    1.03   1
   2  -5  -4    2.61    1.17   5
  -2   5   4   -0.20    0.59   1
   2  -5  -4   -0.80    0.80   5
   2  -5  -4    0.50    1.03   2
  -2   5   4    0.24    0.62   1
   2  -5  -4   -0.13    0.85   2
  -2   5   4   -0.08    1.73   3
  -1   5   4   51.37    3.94   3
   1  -5  -4   51.65    2.54   5
   1  -5  -4   51.74    2.49   1
   1  -5  -4   51.12    2.28   2
   1  -5  -4   47.92    2.12   2
   1  -5  -4   52.26    2.59   5
   0  -5  -4   37.25    1.36   2
   0  -5  -4   34.83    1.81   5
   0  -5  -4   34.77    1.80   5
   0  -5  -4   34.96    1.88   1
   0   5   4   35.75    3.35   3
  -1  -5  -4   32.04    1.83   1
  -1  -5  -4   29.44    1.66   5
  -1  -5  -4   31.16    1.76   5
  -1  -5  -4   30.77    1.37   2
  -1  -5  -4   30.22    1.36   2
   1   5   4   29.49    2.77   3
   2   5   4   30.40    2.71   3
  -2  -5  -4   32.10    2.12   5
   2   5   4   31.70    1.65   1
  -2  -5  -4   30.26    1.87   2
  -2  -5  -4   34.29    2.08   5
  -2  -5  -4   33.28    2.10   1
   3   5   4    2.48    0.84   5
  -3  -5  -4    4.79    1.23   2
  -3  -5  -4    1.13    1.08   5
  -3  -5  -4    1.01    0.93   5
   3   5   4    2.58    1.05   1
   3   5   4    2.83    1.30   3
  -3  -5  -4    2.85    1.19   1
   4   5   4    1.51    1.00   5
  -4  -5  -4    1.51    1.23   1
   4   5   4    0.45    1.09   1
   4   5   4   -0.25    0.93   3
  -4  -5  -4    0.85    1.13   2
  -4  -5  -4    0.05    1.06   5
  -4  -5  -4    1.35    1.28   5
  -5  -5  -4    2.86    1.59   5
   5   5   4   -0.43    1.27   5
  -5  -5  -4    4.49    1.66   1
  -5  -5  -4   -0.67    1.22   5
  -5  -5  -4    0.97    1.33   2
  -5  -5  -4    0.30    1.18   2
   5   5   4    0.91    1.38   1
  -6  -5  -4    4.68    1.99   2
  -6  -5  -4    1.79    1.63   5
   6   5   4    0.84    1.75   1
  -6  -5  -4    1.95    1.58   1
  -7  -5  -4    0.92    1.71   5
   7   5   4    0.13    1.79   1
  -7  -5  -4    0.76    1.70   1
  -8  -5  -4    2.76    2.12   1
   8   5   4   -1.18    2.09   1
  -9  -5  -4   -0.62    2.23   1
   9   5   4    2.06    2.50   1
   5  -6  -4   -1.92    1.79   2
   4  -6  -4    4.75    1.81   5
   4  -6  -4   -0.83    1.41   2
  -4   6   4    3.03    1.00   1
   3  -6  -4    4.83    1.60   2
   3  -6  -4    3.74    1.41   2
   3  -6  -4    4.56    1.52   5
   3  -6  -4    1.68    1.40   5
   2  -6  -4    0.05    1.04   5
   2  -6  -4   -0.03    0.84   5
   2  -6  -4   -0.43    0.78   4
   2  -6  -4    0.88    1.05   2
   2  -6  -4    0.60    0.91   2
  -2   6   4   -2.11    1.37   3
   1  -6  -4    8.06    1.22   5
   1  -6  -4    7.45    0.89   2
  -1   6   4    6.00    2.08   3
   1  -6  -4    8.29    1.01   2
   1  -6  -4   10.60    1.25   5
   0  -6  -4   27.82    1.55   5
   0  -6  -4   26.13    1.55   5
   0   6   4   28.22    3.15   3
  -1  -6  -4    1.28    0.58   5
  -1  -6  -4    1.67    0.76   1
   1   6   4    2.22    1.62   3
  -1  -6  -4    2.53    0.71   5
  -1  -6  -4   -0.86    1.41   3
  -2  -6  -4   33.07    2.00   5
  -2  -6  -4   32.51    1.78   2
  -2  -6  -4   33.56    2.07   5
   2   6   4   31.64    2.92   3
  -2  -6  -4   35.75    2.09   1
   3   6   4   48.57    2.33   1
   3   6   4   51.08    3.48   3
  -3  -6  -4   46.93    2.77   2
  -3  -6  -4   50.45    2.99   5
  -3  -6  -4   50.86    2.91   1
  -3  -6  -4   51.75    2.99   5
  -4  -6  -4    1.44    1.29   1
  -4  -6  -4   -0.16    1.10   5
  -4  -6  -4    2.60    1.34   2
  -4  -6  -4    2.35    1.26   5
   4   6   4    0.36    1.13   1
   4   6   4    1.29    1.19   3
   5   6   4   47.77    3.50   1
  -5  -6  -4   31.40    3.27   5
  -5  -6  -4   33.70    3.19   2
   5   6   4   34.56    2.77   5
  -5  -6  -4   37.02    3.47   5
  -5  -6  -4   23.20    2.80   2
  -5  -6  -4   32.79    3.14   1
  -6  -6  -4    2.04    1.73   2
  -6  -6  -4   -0.91    1.34   5
   6   6   4    1.59    1.75   1
  -6  -6  -4    4.96    2.00   1
   7   6   4    1.38    1.91   1
  -7  -6  -4    4.52    2.29   5
  -7  -6  -4    0.91    1.74   1
   8   6   4   -2.91    1.72   1
  -8  -6  -4    0.46    2.14   1
  -9  -6  -4    1.58    2.29   1
   9   6   4    0.44    2.39   1
   5  -7  -4   -0.24    1.95   2
   4  -7  -4   -1.09    1.45   2
   3  -7  -4    9.10    1.92   2
   3  -7  -4    8.61    1.79   2
   3  -7  -4    7.23    1.82   5
   2  -7  -4   -0.83    0.95   2
   2  -7  -4    0.11    0.93   5
   2  -7  -4    0.97    1.00   5
   2  -7  -4    0.13    0.85   2
   1  -7  -4   23.48    2.33   4
   1  -7  -4   27.16    1.48   2
   1  -7  -4   25.45    1.85   5
   1  -7  -4   26.07    1.87   5
   1  -7  -4   24.92    1.39   2
   0  -7  -4    4.94    0.78   5
   0  -7  -4    5.05    0.82   5
  -1  -7  -4    2.62    0.64   5
   1   7   4    0.39    1.61   3
  -1  -7  -4    2.80    0.72   5
  -2  -7  -4    3.26    0.89   5
  -2  -7  -4    5.40    1.92   3
  -2  -7  -4    4.34    0.80   2
  -2  -7  -4    5.12    1.06   5
  -2  -7  -4    6.66    1.15   1
  -3  -7  -4   16.76    1.87   1
  -3  -7  -4   11.35    1.58   2
  -3  -7  -4   15.26    1.81   5
  -3  -7  -4   11.05    1.62   5
  -4  -7  -4    4.55    1.46   5
  -4  -7  -4    3.14    1.45   5
  -4  -7  -4    4.13    1.40   1
   4   7   4    1.77    1.11   1
  -4  -7  -4    1.49    1.38   2
   5   7   4   24.09    2.53   1
  -5  -7  -4   17.54    2.65   5
  -5  -7  -4   12.93    2.30   1
  -5  -7  -4   18.01    2.59   2
  -5  -7  -4   21.03    2.75   2
  -6  -7  -4    1.94    1.86   5
   6   7   4    4.69    1.95   1
  -6  -7  -4    6.98    2.21   1
  -6  -7  -4    5.18    2.10   2
   7   7   4   -1.18    1.60   1
  -7  -7  -4    2.90    2.14   5
  -7  -7  -4    0.17    1.80   1
  -8  -7  -4   -1.43    1.82   1
   8   7   4    2.19    2.28   1
   9   7   4    0.09    2.25   1
  -9  -7  -4   -1.77    2.09   1
   4  -8  -4    7.18    2.19   2
   3  -8  -4    1.19    1.56   2
   3  -8  -4    0.24    1.27   2
   2  -8  -4    2.58    1.19   2
   2  -8  -4    3.44    1.30   5
   2  -8  -4    2.06    1.12   5
   2  -8  -4    1.16    1.04   2
   1  -8  -4    2.25    0.93   5
   1  -8  -4    2.81    1.46   4
   1  -8  -4    2.02    0.90   5
   0  -8  -4    0.34    0.59   5
  -1  -8  -4    1.38    0.54   5
  -2  -8  -4    1.17    0.85   5
  -2  -8  -4    1.37    0.77   5
  -3  -8  -4   28.51    2.30   5
  -3  -8  -4   23.72    1.90   2
  -3  -8  -4   22.87    2.13   5
   4   8   4    3.88    0.89   1
  -4  -8  -4    1.89    1.42   5
  -4  -8  -4    4.48    1.53   5
  -4  -8  -4    2.60    1.41   2
  -5  -8  -4   17.39    2.61   2
  -5  -8  -4   21.05    2.71   2
   5   8   4   17.94    1.98   1
  -5  -8  -4   14.27    2.47   5
  -6  -8  -4   11.91    2.63   5
  -6  -8  -4    8.49    2.43   2
   6   8   4   10.28    2.17   1
   7   8   4    2.95    1.91   1
  -7  -8  -4    4.90    2.47   2
  -7  -8  -4    2.69    2.23   5
   8   8   4    4.16    2.37   1
  -8  -8  -4    0.61    2.25   5
   9   8   4    1.02    2.44   1
   3  -9  -4    0.11    1.53   2
   3  -9  -4    1.74    1.48   2
   2  -9  -4    0.98    1.03   2
   2  -9  -4   -0.51    1.06   2
   1  -9  -4    6.29    1.16   5
   1  -9  -4    7.04    1.17   5
   0  -9  -4   20.48    2.76   4
  -2  -9  -4   42.14    2.29   5
  -2  -9  -4   41.56    2.24   5
  -3  -9  -4   -0.32    1.04   5
  -3  -9  -4   -0.04    0.98   5
  -3  -9  -4   -1.15    0.92   2
  -4  -9  -4   14.63    2.06   2
  -4  -9  -4   13.41    2.20   5
  -4  -9  -4   11.59    2.05   5
  -5  -9  -4    2.00    1.68   2
  -5  -9  -4    1.11    1.39   2
   5   9   4    2.07    1.04   1
  -5  -9  -4   -0.47    1.31   5
  -6  -9  -4    1.99    1.88   5
  -6  -9  -4    1.13    1.62   2
   6   9   4    1.33    1.42   1
  -7  -9  -4    2.33    1.95   5
   7   9   4    1.55    1.68   1
  -7  -9  -4   -1.77    1.94   2
  -8  -9  -4    0.23    2.39   5
   8   9   4    0.81    2.00   1
   2 -10  -4    0.50    1.17   2
   1 -10  -4    1.05    0.94   5
   0 -10  -4    4.57    2.05   4
  -2 -10  -4    1.74    0.88   5
  -2 -10  -4    2.13    1.03   5
  -3 -10  -4   15.09    1.90   5
  -3 -10  -4   11.81    1.75   5
  -3 -10  -4   12.56    1.59   2
  -4 -10  -4    0.74    1.32   2
  -4 -10  -4    0.80    1.24   5
  -5 -10  -4    6.66    2.04   5
  -5 -10  -4   10.75    2.28   2
   6  10   4    6.69    1.46   1
  -6 -10  -4    8.46    2.52   2
  -6 -10  -4    2.96    2.07   5
  -7 -10  -4   -0.44    2.09   2
   7  10   4    0.19    1.56   1
   8  10   4    4.03    2.18   1
  -1 -11  -4    1.37    1.64   4
  -2 -11  -4    2.29    1.07   5
  -3 -11  -4    1.46    1.04   2
  -4 -11  -4    0.48    1.32   2
  -4 -11  -4   -0.48    1.30   2
  -5 -11  -4    1.73    1.76   2
  -6 -11  -4    1.55    2.08   2
  -7 -11  -4    1.84    2.49   2
  -1 -12  -4    0.75    1.79   4
  -2 -12  -4    1.62    2.17   4
  -3 -12  -4   -0.22    1.07   2
  -4 -12  -4    0.48    1.43   2
   4  10  -5    0.16    1.68   1
  -4 -10   5    2.03    2.54   4
  -3 -10   5    0.22    2.34   4
  -3 -10   5    1.70    2.19   2
  -2 -10   5    3.58    2.16   2
  -2 -10   5   -1.32    2.25   4
  -1 -10   5    2.10    2.50   4
  -1 -10   5    0.40    1.84   2
   0 -10   5    8.36    3.41   4
   0 -10   5    3.79    2.06   2
  -5  -9   5   -0.18    2.32   4
   5   9  -5   -1.03    1.74   1
   4   9  -5   -2.39    1.38   1
  -4  -9   5   -0.49    2.08   4
   3   9  -5    0.60    1.53   1
  -3  -9   5    3.28    2.03   5
  -3  -9   5   -0.23    1.77   2
  -3  -9   5    3.84    2.60   4
   2   9  -5    0.75    1.25   1
  -2  -9   5    5.31    2.65   4
  -2  -9   5    1.89    1.74   5
  -2  -9   5    0.64    1.70   2
  -1  -9   5   -1.30    1.91   4
  -1  -9   5    1.78    1.75   2
   0  -9   5    0.97    2.25   4
   0  -9   5    2.34    1.73   2
   1  -9   5    1.08    2.38   4
   1  -9   5    1.25    1.83   2
   2  -9   5    1.39    1.87   2
   2  -9   5   -3.18    2.03   4
   6   8  -5    0.02    2.16   1
  -6  -8   5    0.89    2.75   4
  -5  -8   5    0.14    2.08   5
  -5  -8   5    1.67    2.58   4
   5   8  -5    1.40    1.95   1
  -4  -8   5    2.81    2.33   4
   4   8  -5   -2.22    1.43   1
  -4  -8   5    0.14    1.90   2
  -4  -8   5    0.67    1.83   5
   3   8  -5    3.59    1.83   1
  -3  -8   5    5.35    2.55   4
  -3  -8   5    6.88    2.33   2
  -3  -8   5    7.30    2.34   5
  -2  -8   5    3.41    1.85   5
   2   8  -5    5.36    1.78   1
  -2  -8   5    7.63    2.83   4
  -2  -8   5    1.93    1.84   2
   1   8  -5    1.62    1.24   1
  -1  -8   5   -0.07    1.80   4
  -1  -8   5    0.53    1.43   2
  -1  -8   5    0.76    1.53   5
   0   8  -5    3.26    1.21   1
   0  -8   5    1.66    2.21   4
   0  -8   5    3.50    1.78   2
   0  -8   5    5.34    1.88   5
   1  -8   5    0.68    1.45   2
   1  -8   5   -0.94    1.78   4
   1  -8   5    1.17    1.38   5
  -1   8  -5    3.01    1.14   1
   2  -8   5    1.00    1.70   2
   2  -8   5    0.47    1.88   4
   3  -8   5    0.43    1.73   2
   3  -8   5   -0.08    2.20   4
   4  -8   5   -2.68    2.48   4
  -7  -7   5    1.55    2.63   1
   7   7  -5    0.66    2.41   1
  -7  -7   5    0.82    2.69   4
  -6  -7   5    2.03    2.71   4
  -6  -7   5    1.14    2.24   1
   6   7  -5    1.21    2.23   1
   5   7  -5   -0.83    1.57   1
  -5  -7   5    0.05    1.88   1
  -5  -7   5    0.98    2.00   5
  -5  -7   5   -2.57    2.12   4
  -4  -7   5   -1.40    1.91   4
  -4  -7   5    1.75    1.86   5
  -4  -7   5    0.13    1.85   2
   4   7  -5    0.26    1.49   1
  -4  -7   5    0.95    1.73   1
  -3  -7   5   -0.03    1.60   1
   3   7  -5    0.57    1.50   1
  -3  -7   5   -1.51    1.37   5
  -3  -7   5   -1.38    1.56   4
  -3  -7   5   -1.09    1.56   2
   2   7  -5    7.63    1.93   1
  -2  -7   5    9.72    2.40   5
  -2  -7   5   11.91    2.96   4
  -2  -7   5    8.06    2.17   2
  -1  -7   5    3.34    1.63   5
  -1  -7   5    4.08    1.77   2
   1   7  -5    3.80    1.61   1
  -1  -7   5    2.18    1.81   4
   0  -7   5    5.29    1.81   5
   0  -7   5    9.53    2.91   4
   0   7  -5    5.56    1.52   1
   0  -7   5    5.57    1.91   2
  -1   7  -5   16.37    1.98   1
   1  -7   5   15.67    2.44   2
   1  -7   5   13.41    2.47   5
   1  -7   5   18.54    3.68   4
   2  -7   5    0.16    1.55   2
  -2   7  -5   -0.85    1.17   1
   2  -7   5   -0.65    1.28   5
   2  -7   5   -1.47    1.71   4
   3  -7   5    5.09    2.13   2
   3  -7   5    6.20    2.27   5
  -3   7  -5    6.09    1.57   1
   3  -7   5    7.77    2.93   4
   4  -7   5    1.45    2.09   2
   4  -7   5    4.26    2.73   4
  -4   7  -5    1.57    1.52   1
  -7  -6   5    0.93    2.36   4
  -7  -6   5    2.43    2.40   1
   7   6  -5    1.10    2.32   1
  -6  -6   5    0.48    1.83   1
  -6  -6   5    3.81    2.57   4
   6   6  -5   -1.72    1.85   1
  -5  -6   5    5.40    2.51   5
  -5  -6   5   18.47    3.39   1
  -5  -6   5    6.22    2.65   4
   5   6  -5    8.79    2.60   1
  -4  -6   5   -0.23    1.63   5
  -4  -6   5    3.85    2.01   1
  -4  -6   5    4.95    2.36   4
  -4  -6   5    4.08    2.07   2
   4   6  -5    2.59    1.79   1
  -3  -6   5   36.32    3.61   1
  -3  -6   5   19.80    3.13   5
  -3  -6   5   25.69    3.74   4
   3   6  -5   26.11    3.05   1
  -3  -6   5   31.79    3.45   2
  -2  -6   5   26.71    3.01   1
  -2  -6   5   20.39    2.76   2
  -2  -6   5   15.56    2.63   5
  -2  -6   5   23.96    2.87   2
   2   6  -5   21.45    2.64   1
  -2  -6   5   23.18    3.54   4
  -1  -6   5   10.70    2.23   5
  -1  -6   5    8.55    2.52   4
  -1  -6   5   10.68    2.11   2
  -1  -6   5    9.29    2.06   2
  -1  -6   5   12.16    2.28   1
   1   6  -5   11.23    1.98   1
   0  -6   5   14.42    2.34   1
   0   6  -5   19.84    2.25   1
   0  -6   5   17.37    2.37   2
   0  -6   5   16.50    2.39   5
   0  -6   5   17.86    3.22   4
   1  -6   5   -0.50    1.20   2
  -1   6  -5   -0.30    0.92   1
   1  -6   5    1.38    1.88   4
   1  -6   5    0.51    1.14   5
   2  -6   5    3.72    2.17   4
   2  -6   5   -0.05    1.27   2
  -2   6  -5   -1.43    1.08   1
   2  -6   5   -1.85    1.11   5
   3  -6   5    3.41    1.74   2
  -3   6  -5   -0.09    1.27   1
   3  -6   5    1.87    1.63   5
   3  -6   5    1.38    1.92   4
   4  -6   5    0.43    2.16   4
   4  -6   5    4.98    2.13   5
   4  -6   5    2.25    2.05   2
  -4   6  -5   -1.22    1.25   1
   5  -6   5    3.11    2.57   4
   5  -6   5    1.83    2.11   2
  -5   6  -5    3.14    1.92   1
  -7  -5   5   -1.71    1.90   1
   7   5  -5   -2.22    1.99   1
  -6  -5   5    2.24    2.19   1
  -6  -5   5    3.91    2.26   4
   6   5  -5    3.55    2.25   1
  -5  -5   5    5.10    2.30   4
  -5  -5   5    4.89    2.31   5
   5   5  -5    3.08    2.10   1
  -5  -5   5    3.78    2.25   1
  -4  -5   5    1.83    1.83   4
  -4  -5   5    2.98    1.75   1
  -4  -5   5    3.06    1.87   5
  -4  -5   5    0.36    1.59   2
   4   5  -5    3.58    1.89   1
  -3  -5   5    7.76    2.25   1
   3   5  -5    7.59    2.12   1
  -3  -5   5    7.76    2.11   5
  -3  -5   5   12.16    2.70   4
  -3  -5   5    5.14    1.94   2
  -2  -5   5    1.28    1.38   2
  -2  -5   5    0.34    1.33   2
   2   5  -5    0.29    1.05   5
  -2  -5   5   -1.14    1.07   1
  -2  -5   5    0.96    1.44   4
  -2  -5   5   -1.52    1.11   5
  -2  -5   5    0.68    1.26   5
   2   5  -5   -0.18    1.17   1
  -1  -5   5    3.90    1.56   2
  -1  -5   5    7.62    1.85   5
  -1  -5   5    7.59    1.79   1
   1   5  -5    6.37    1.75   1
  -1  -5   5    3.37    1.76   4
   1   5  -5    6.72    1.51   5
  -1  -5   5    5.87    1.78   5
  -1  -5   5    7.68    1.81   2
   0  -5   5    0.11    1.10   5
   0  -5   5    0.46    1.46   4
   0  -5   5    1.78    1.29   5
   0   5  -5   -0.33    0.94   5
   0   5  -5    0.49    1.11   1
   0  -5   5   -0.92    1.09   1
   0  -5   5    0.01    1.12   2
   1  -5   5   43.68    3.38   5
   1  -5   5   52.97    3.71   5
  -1   5  -5   48.90    3.19   1
   1  -5   5   44.75    3.23   2
   1  -5   5   48.91    3.48   1
   1  -5   5   46.39    4.31   4
   2  -5   5    4.33    1.65   1
   2  -5   5    2.36    1.43   2
   2  -5   5    2.13    1.41   5
   2  -5   5    3.95    1.99   4
  -2   5  -5    2.38    1.44   1
   3  -5   5   34.31    4.00   4
  -3   5  -5   25.76    2.75   1
   3  -5   5   29.31    3.06   2
   3  -5   5   30.28    3.23   1
   3  -5   5   29.40    3.26   5
   4  -5   5    4.24    2.04   5
   4  -5   5    7.46    2.55   4
   4  -5   5    1.20    1.76   2
  -4   5  -5    2.94    1.57   1
   5  -5   5    1.87    2.06   5
   5  -5   5    6.09    2.65   4
  -5   5  -5    6.17    2.04   1
   5  -5   5    4.83    2.34   2
  -6   5  -5    1.17    1.93   1
   8   4  -5    3.73    3.06   1
  -7  -4   5   -0.20    2.06   1
   7   4  -5    0.87    2.27   1
  -6  -4   5    4.67    2.16   4
  -6  -4   5    1.97    2.09   1
   6   4  -5    4.47    2.34   1
   5   4  -5    2.21    1.78   1
  -5  -4   5    2.89    2.07   5
  -5  -4   5    2.95    1.75   4
  -5  -4   5    4.73    2.20   1
  -4  -4   5   -0.22    1.37   2
  -4  -4   5    1.35    1.71   4
  -4  -4   5   -2.61    1.24   1
  -4  -4   5    1.71    1.55   5
   4   4  -5    1.95    1.65   1
   3   4  -5    0.37    1.43   1
  -3  -4   5    5.30    1.82   2
  -3  -4   5    5.06    1.91   5
  -3  -4   5    3.16    1.73   1
  -3  -4   5    2.93    1.71   4
   3   4  -5    2.68    1.45   5
  -3  -4   5    1.47    1.73   5
  -3  -4   5    1.37    1.57   2
   2   4  -5   42.31    3.19   5
  -2  -4   5   47.10    3.55   1
   2   4  -5   56.11    3.69   1
  -2  -4   5   50.46    3.76   5
  -2  -4   5   50.61    3.54   2
  -2  -4   5   55.78    3.76   2
  -2  -4   5   50.92    3.83   4
  -2  -4   5   49.82    3.72   5
  -1  -4   5   13.89    2.26   5
  -1  -4   5   11.50    1.96   2
  -1  -4   5   11.78    2.08   5
   1   4  -5   17.50    2.20   1
  -1  -4   5   14.89    2.58   4
  -1  -4   5   13.16    1.97   2
   1   4  -5   11.10    1.82   5
  -1  -4   5   11.33    1.99   1
   0  -4   5   87.61    4.28   2
   0  -4   5   81.85    4.50   5
   0  -4   5   80.39    4.82   4
   0   4  -5   86.10    4.05   5
   0  -4   5   90.19    4.43   1
   0  -4   5   83.09    4.43   5
   0   4  -5   82.15    4.17   1
   1  -4   5   46.37    3.91   4
   1  -4   5   50.18    3.38   5
   1  -4   5   37.62    2.98   5
  -1   4  -5   48.59    3.05   5
   1  -4   5   44.59    3.07   2
   1  -4   5   46.10    3.25   1
  -1   4  -5   45.65    3.08   1
  -2   4  -5   12.79    1.85   5
   2  -4   5   18.99    2.47   1
   2  -4   5   11.72    2.16   5
   2  -4   5   13.39    2.68   4
   2  -4   5   16.42    2.15   2
   2  -4   5   12.43    2.13   5
  -2   4  -5   16.17    2.14   1
   3  -4   5    9.49    2.05   2
   3  -4   5    7.82    2.04   1
   3  -4   5    8.89    2.13   5
   3  -4   5   12.31    2.69   4
  -3   4  -5   12.20    2.17   1
  -4   4  -5    1.14    1.50   1
   4  -4   5   -0.58    1.27   1
   4  -4   5    1.73    1.87   4
   4  -4   5   -1.22    1.36   5
   4  -4   5   -0.20    1.36   2
   5  -4   5    1.10    1.94   4
   5  -4   5    1.36    1.82   5
  -5   4  -5   -1.04    1.30   1
   5  -4   5    0.59    1.75   2
  -6   4  -5    0.95    1.70   1
   6  -4   5    0.85    2.07   5
  -7   4  -5    3.69    2.42   1
  -8  -3   5   -1.88    2.46   1
   8   3  -5   -1.83    2.48   1
   7   3  -5   -2.28    2.09   1
  -7  -3   5    0.26    2.21   1
  -6  -3   5    0.43    1.44   4
  -6  -3   5    2.69    2.01   1
   6   3  -5    1.10    1.99   1
  -5  -3   5    6.59    2.40   1
   5   3  -5   10.18    2.71   1
  -5  -3   5   10.38    2.15   4
  -5  -3   5    4.75    2.20   5
  -4  -3   5   -0.28    1.27   1
  -4  -3   5    1.11    1.45   5
   4   3  -5    0.27    1.33   5
  -4  -3   5    0.87    1.78   5
  -4  -3   5    1.30    1.45   2
  -4  -3   5   -0.19    1.27   4
   4   3  -5    0.92    1.45   1
  -3  -3   5   36.01    3.19   4
   3   3  -5   33.32    3.10   5
   3   3  -5   37.55    2.96   2
  -3  -3   5   37.18    3.46   1
  -3  -3   5   36.07    3.21   2
  -3  -3   5   40.58    3.50   5
  -3  -3   5   38.40    3.41   2
  -3  -3   5   37.39    3.57   5
   3   3  -5   44.14    3.69   1
   2   3  -5   17.80    2.37   1
   2   3  -5   17.59    2.33   5
  -2  -3   5   19.50    2.32   2
  -2  -3   5   17.22    2.43   5
  -2  -3   5   20.09    2.46   4
  -2  -3   5   13.32    2.16   1
  -2  -3   5   21.80    2.39   2
  -2  -3   5   20.94    2.56   5
   1   3  -5   11.23    1.76   5
   1   3  -5   12.24    1.89   5
  -1  -3   5    9.48    1.79   5
  -1  -3   5   10.46    1.96   5
  -1  -3   5   10.97    1.86   2
  -1  -3   5   14.85    1.96   2
   1   3  -5    9.65    1.80   1
  -1  -3   5   13.26    2.17   4
  -1  -3   5   11.44    1.91   1
   0  -3   5   10.44    1.68   2
   0  -3   5   14.61    1.97   1
   0  -3   5   11.21    1.80   5
   0  -3   5   10.75    1.91   5
   0  -3   5   13.96    2.29   4
   0   3  -5   10.87    1.62   5
   0  -3   5   14.23    1.92   2
   0   3  -5   11.26    1.77   5
   0   3  -5   11.54    1.81   1
  -1   3  -5    4.86    1.40   1
   1  -3   5    3.70    1.26   1
   1  -3   5    4.12    1.65   4
   1  -3   5    5.98    1.52   5
   1  -3   5    4.19    1.35   2
   1  -3   5    6.04    1.57   5
  -1   3  -5    4.74    1.32   5
   2  -3   5    7.50    2.00   4
  -2   3  -5    7.90    1.76   1
   2  -3   5    7.58    1.77   1
   2  -3   5    6.05    1.66   5
  -2   3  -5    6.55    1.46   5
   2  -3   5    8.25    1.66   2
   2  -3   5    9.32    1.85   5
   3  -3   5    0.75    1.30   1
   3  -3   5    4.40    1.92   4
   3  -3   5    4.49    1.60   5
  -3   3  -5    2.01    1.46   1
   3  -3   5    5.49    1.67   2
   3  -3   5    2.96    1.44   5
  -3   3  -5    3.57    1.39   5
   4  -3   5   19.17    2.75   2
   4  -3   5   16.29    2.78   5
   4  -3   5   16.31    2.97   4
   4  -3   5   15.25    2.61   1
  -4   3  -5   18.90    2.70   1
   5  -3   5    0.52    1.75   4
   5  -3   5   -0.03    1.61   1
  -5   3  -5    1.19    1.59   1
   5  -3   5    1.61    1.77   5
   5  -3   5   -2.23    1.44   2
  -6   3  -5   -2.09    1.45   1
   6  -3   5    0.12    2.03   5
   6  -3   5    6.46    2.63   1
  -7   3  -5    0.42    2.01   1
  -8  -2   5   -1.72    2.09   1
   8   2  -5   -1.34    2.58   1
   7   2  -5   -1.54    2.02   1
  -7  -2   5   -0.95    2.11   1
  -6  -2   5    2.48    2.05   1
   6   2  -5   -0.48    1.89   1
  -5  -2   5    0.33    1.31   4
   5   2  -5    4.64    2.02   5
  -5  -2   5    2.11    1.94   1
   5   2  -5    2.74    1.92   1
  -4  -2   5    9.54    2.38   1
   4   2  -5    7.91    2.31   1
  -4  -2   5    5.92    1.59   4
  -4  -2   5    9.92    2.26   5
   4   2  -5    5.11    2.04   5
  -4  -2   5    7.35    2.43   5
  -3  -2   5   15.58    2.25   2
  -3  -2   5    9.73    2.09   2
   3   2  -5   13.73    2.43   1
   3   2  -5    8.39    2.03   5
  -3  -2   5   11.74    2.34   5
  -3  -2   5   13.26    2.24   5
  -3  -2   5   14.55    2.43   1
   3   2  -5   13.74    2.12   2
  -3  -2   5   13.28    1.96   4
   3   2  -5   11.08    2.20   5
  -2  -2   5   80.87    4.55   5
   2   2  -5   79.93    4.15   2
  -2  -2   5   77.20    4.22   1
  -2  -2   5   83.11    4.45   5
   2   2  -5   92.80    4.72   5
   2   2  -5   78.81    4.42   1
  -2  -2   5   79.42    4.16   2
   2   2  -5   75.97    4.28   5
  -2  -2   5   75.10    4.05   4
  -2  -2   5   89.50    4.22   2
   2   2  -5   89.64    4.21   2
  -1  -2   5   -0.32    0.94   1
   1   2  -5   -0.85    0.77   5
  -1  -2   5    1.51    1.15   2
   1   2  -5    2.32    1.16   1
  -1  -2   5    1.09    1.01   5
  -1  -2   5   -0.25    0.90   2
  -1  -2   5   -0.05    1.06   5
  -1  -2   5    1.02    1.07   4
   1   2  -5    0.58    0.95   2
   0   2  -5   99.84    4.06   2
   0  -2   5   94.96    4.41   5
   0  -2   5   91.38    4.51   4
   0  -2   5   87.52    4.17   1
   0   2  -5   91.03    4.28   1
   0  -2   5  100.63    4.19   2
   0   2  -5   88.73    4.18   5
   0  -2   5   92.43    4.43   5
   0  -2   5   91.84    4.18   2
   1  -2   5   58.94    3.37   1
   1  -2   5   52.75    3.32   5
   1  -2   5   57.09    3.25   2
   1  -2   5   55.03    3.64   4
  -1   2  -5   52.67    3.17   1
  -1   2  -5   62.35    3.41   5
   1  -2   5   56.26    3.37   5
   2  -2   5    0.76    1.02   5
   2  -2   5    0.83    1.34   4
  -2   2  -5    1.59    1.14   1
   2  -2   5    0.30    1.11   1
  -2   2  -5    0.52    0.93   5
  -2   2  -5    0.97    0.96   5
   2  -2   5   -0.59    0.86   2
   2  -2   5    0.67    1.09   5
  -3   2  -5   19.77    2.46   1
   3  -2   5   23.92    2.62   1
  -3   2  -5   16.74    2.22   5
   3  -2   5   21.02    2.32   2
   3  -2   5   22.57    2.59   5
   3  -2   5   30.06    3.19   4
   3  -2   5   24.27    2.75   5
   4  -2   5   11.65    2.52   4
   4  -2   5   11.86    2.46   5
  -4   2  -5   10.02    2.22   1
   4  -2   5   15.30    2.43   2
   4  -2   5   11.83    2.31   5
   4  -2   5   15.21    2.54   1
  -4   2  -5   13.77    2.29   5
   5  -2   5    0.11    1.58   2
   5  -2   5   -0.08    1.43   5
  -5   2  -5    1.46    1.54   1
   5  -2   5   -1.50    1.37   1
   6  -2   5    4.30    1.99   1
   6  -2   5    5.02    2.36   5
  -6   2  -5    1.51    1.76   1
   7  -2   5    0.55    2.13   1
  -7   2  -5    0.09    1.84   1
  -8   2  -5    0.01    2.14   1
   8   1  -5    0.68    2.64   1
  -8  -1   5    1.70    2.56   1
  -7  -1   5   -0.62    2.07   1
   7   1  -5   -1.20    1.90   1
  -6  -1   5   -1.21    1.53   1
   6   1  -5    9.58    2.84   1
   5   1  -5    5.65    2.22   1
  -5  -1   5    7.31    2.30   1
   5   1  -5    3.24    2.08   5
  -5  -1   5    7.35    2.12   3
  -5  -1   5    4.77    1.38   4
   4   1  -5   -0.14    1.35   5
   4   1  -5   -0.43    1.49   1
  -4  -1   5    0.83    1.45   1
   4   1  -5    3.55    1.77   2
  -4  -1   5   -0.59    1.18   2
  -4  -1   5    0.80    1.09   4
   4   1  -5   -1.47    1.35   5
  -4  -1   5   -0.63    1.19   5
   4   1  -5   -0.55    1.19   2
   3   1  -5   11.93    2.19   5
   3   1  -5   14.93    2.26   2
  -3  -1   5   14.77    2.28   2
   3   1  -5   17.12    2.54   5
  -3  -1   5   12.44    2.17   5
   3   1  -5   15.56    2.13   2
   3   1  -5   18.74    2.69   1
  -3  -1   5   11.54    2.16   1
  -3  -1   5   14.34    1.76   4
  -3  -1   5   10.59    2.23   5
   2   1  -5   40.46    3.10   5
  -2  -1   5   42.26    3.07   1
   2   1  -5   48.48    3.05   2
  -2  -1   5   41.16    3.09   5
  -2  -1   5   43.52    2.72   4
   2   1  -5   39.96    3.21   1
   2   1  -5   42.35    3.00   2
  -2  -1   5   43.31    3.36   5
  -2  -1   5   44.42    3.05   2
   2   1  -5   42.48    3.14   5
  -1  -1   5   -0.08    1.00   4
  -1  -1   5    1.83    1.27   5
  -1  -1   5    2.71    1.19   2
   1   1  -5    0.36    0.94   2
   1   1  -5    1.88    1.08   5
  -1  -1   5    0.68    1.00   1
   1   1  -5    5.13    1.48   1
   1   1  -5    3.41    1.32   5
  -1  -1   5    1.89    1.08   5
  -1  -1   5    0.37    1.06   2
   0   1  -5   57.00    3.02   2
   0   1  -5   53.26    3.18   5
   0  -1   5   46.07    3.15   5
   0  -1   5   54.16    3.32   4
   0  -1   5   47.92    2.88   2
   0   1  -5   46.34    3.03   1
   0  -1   5   50.32    3.06   5
   0  -1   5   59.43    3.29   1
   0  -1   5   46.55    2.88   2
   0   1  -5   50.02    3.02   5
   1  -1   5   73.69    3.73   5
   1  -1   5   68.02    3.59   1
   1  -1   5   65.07    3.73   4
  -1   1  -5   72.97    3.72   5
  -1   1  -5   64.75    3.50   5
   1  -1   5   67.01    3.59   5
   1  -1   5   68.12    3.40   2
  -1   1  -5   67.58    3.39   2
  -1   1  -5   66.88    3.57   1
  -2   1  -5    0.28    1.08   1
  -2   1  -5    1.35    0.97   2
   2  -1   5    2.14    1.36   4
   2  -1   5   -0.05    1.04   1
   2  -1   5    0.74    1.04   2
   2  -1   5    0.04    0.92   5
   2  -1   5    1.02    1.02   5
  -2   1  -5   -0.61    0.80   5
   3  -1   5   17.60    2.51   4
   3  -1   5   15.07    2.03   2
   3  -1   5    9.76    1.92   1
   3  -1   5    9.99    1.93   5
  -3   1  -5   12.32    1.93   5
   3  -1   5   11.14    2.04   5
  -3   1  -5   15.68    2.23   1
   4  -1   5    9.40    2.06   1
  -4   1  -5    4.47    1.76   1
  -4   1  -5    9.66    1.84   2
   4  -1   5    8.49    2.05   5
   4  -1   5    4.94    1.66   2
   4  -1   5   11.45    2.26   5
   4  -1   5   10.26    2.31   4
   5  -1   5    2.04    1.69   5
   5  -1   5    2.56    1.70   2
  -5   1  -5   -0.12    1.30   1
   5  -1   5   -0.27    1.44   1
   6  -1   5    2.49    1.99   5
   6  -1   5    4.17    2.14   1
  -7   1  -5    0.18    1.88   1
   7  -1   5    0.41    1.87   1
  -8   1  -5    0.07    2.19   1
   7   0  -5   -0.72    1.99   1
  -7   0   5   -0.23    1.91   1
  -6   0   5    0.64    1.92   1
   6   0  -5    1.12    2.05   1
  -5   0   5    1.84    1.71   3
   5   0  -5    5.08    2.20   1
   5   0  -5    6.39    2.29   5
  -5   0   5    2.34    1.81   1
  -4   0   5   24.67    2.94   3
   4   0  -5   34.39    3.19   2
   4   0  -5   34.33    3.59   5
  -4   0   5   32.21    2.07   4
   4   0  -5   37.37    3.49   2
   4   0  -5   35.70    3.71   5
  -4   0   5   28.77    3.19   1
   4   0  -5   31.69    3.39   1
   3   0  -5   15.77    2.24   2
  -3   0   5   13.09    1.51   4
   3   0  -5   13.82    2.10   2
   3   0  -5   10.49    2.11   1
  -3   0   5   15.96    2.45   5
  -3   0   5   11.53    2.18   1
   3   0  -5   13.82    2.29   5
  -3   0   5    9.65    1.73   2
   3   0  -5   10.14    2.12   5
   2   0  -5  216.95    7.40   2
   2   0  -5  216.69    7.74   5
   2   0  -5  229.73    7.66   1
  -2   0   5  220.79    7.46   1
  -2   0   5  225.02    7.20   2
   2   0  -5  231.53    7.91   5
  -2   0   5  210.61    7.43   5
   2   0  -5  219.07    7.35   2
  -2   0   5  215.00    6.52   4
  -2   0   5  235.64    7.85   5
  -2   0   5  225.95    7.15   2
   1   0  -5    1.18    1.03   5
  -1   0   5    1.75    0.99   5
   1   0  -5    2.44    1.19   2
  -1   0   5    1.76    1.11   1
  -1   0   5    0.29    0.80   2
   1   0  -5    0.81    1.08   1
   1   0  -5    0.80    1.01   5
  -1   0   5    2.09    1.20   2
  -1   0   5    1.95    1.11   4
   1   0  -5    1.35    1.03   2
  -1   0   5    3.18    1.25   5
   0   0  -5  181.67    6.24   5
   0   0   5  174.44    5.99   1
   0   0   5  180.12    6.08   4
   0   0  -5  186.05    5.94   2
   0   0   5  178.13    6.19   5
   0   0  -5  174.76    6.17   5
   0   0   5  184.27    6.30   5
   0   0  -5  185.68    6.16   1
   0   0   5  179.13    5.87   2
   1   0   5   93.71    4.03   2
  -1   0  -5   96.09    3.98   2
   1   0   5  108.51    4.50   5
  -1   0  -5   94.15    4.19   1
  -1   0  -5   98.30    4.27   5
   1   0   5   96.12    4.23   5
   1   0   5   93.19    4.34   4
   1   0   5  104.48    4.35   1
  -1   0  -5   97.29    4.31   5
  -2   0  -5    2.31    1.12   2
   2   0   5    1.50    1.18   5
   2   0   5    0.97    1.01   5
   2   0   5    0.77    1.10   1
  -2   0  -5    1.61    1.26   1
   2   0   5    2.74    1.34   4
   2   0   5    2.21    1.09   2
  -2   0  -5    1.15    1.01   5
  -2   0  -5    0.70    0.97   5
  -3   0  -5   76.75    3.79   2
   3   0   5   70.20    3.91   1
   3   0   5   69.42    3.74   2
  -3   0  -5   67.35    3.90   1
  -3   0  -5   67.27    3.95   5
   3   0   5   69.03    4.06   4
   3   0   5   71.47    4.05   5
  -3   0  -5   82.93    4.19   5
   3   0   5   73.22    4.14   5
  -4   0  -5   17.19    2.43   5
   4   0   5   17.14    2.48   5
  -4   0  -5   16.83    2.48   1
   4   0   5   19.16    2.58   1
  -4   0  -5   13.34    2.01   2
   4   0   5   14.93    2.27   2
  -4   0  -5   19.57    2.45   5
   4   0   5   14.94    2.35   5
   5   0   5    9.07    2.23   2
  -5   0  -5    7.78    2.12   5
   5   0   5    6.59    2.07   1
   5   0   5    5.46    2.01   5
  -5   0  -5    7.49    2.14   1
   5   0   5    6.10    2.00   5
   6   0   5    1.36    1.74   1
   6   0   5    3.13    1.92   5
  -6   0  -5    1.98    1.69   1
   7   0   5   -2.07    1.61   1
  -7   0  -5    0.63    1.86   1
  -8   0  -5    2.10    2.25   1
   8   0   5    2.64    2.80   1
  -7   1   5    3.18    2.32   1
   7  -1  -5    0.26    2.44   1
  -6   1   5   10.71    2.74   1
   6  -1  -5    6.76    2.73   5
   6  -1  -5   11.80    3.05   1
   5  -1  -5   22.75    3.20   2
   5  -1  -5   18.99    3.28   1
  -5   1   5   16.35    2.80   3
  -5   1   5   19.92    3.01   1
   5  -1  -5   21.89    3.32   5
  -4   1   5   20.78    2.81   1
   4  -1  -5   24.17    3.03   2
   4  -1  -5   21.22    3.02   5
   4  -1  -5   25.35    3.15   5
   4  -1  -5   22.33    3.02   1
   4  -1  -5   19.26    2.70   2
  -4   1   5   22.05    2.90   3
  -4   1   5   22.99    2.68   5
   3  -1  -5   55.71    3.62   2
   3  -1  -5   51.72    3.80   5
  -3   1   5   57.59    3.89   3
  -3   1   5   59.88    3.62   5
  -3   1   5   56.03    2.31   4
   3  -1  -5   54.58    3.71   2
   3  -1  -5   57.17    3.88   5
   3  -1  -5   51.44    3.67   1
  -3   1   5   59.93    3.73   1
   2  -1  -5   45.23    3.12   2
   2  -1  -5   47.69    3.03   2
  -2   1   5   43.59    2.88   5
  -2   1   5   47.00    2.68   2
  -2   1   5   48.20    3.10   1
  -2   1   5   44.05    2.29   4
   2  -1  -5   45.23    3.17   1
  -2   1   5   47.05    3.20   5
   2  -1  -5   50.08    3.34   5
   2  -1  -5   43.54    3.14   5
  -1   1   5   16.23    1.67   4
   1  -1  -5   16.33    1.91   2
   1  -1  -5   15.44    2.04   1
  -1   1   5   18.41    1.84   2
   1  -1  -5   18.43    1.99   5
   1  -1  -5   12.63    1.84   5
  -1   1   5   13.49    1.75   1
   1  -1  -5   16.67    1.77   2
  -1   1   5   18.55    1.70   2
  -1   1   5   19.84    2.04   5
   0  -1  -5  205.14    6.70   5
   0   1   5  207.92    6.15   2
   0   1   5  199.08    6.45   1
   0   1   5  198.83    6.42   4
   0   1   5  212.76    6.29   2
   0   1   5  217.44    6.75   5
   0  -1  -5  207.33    6.54   1
   0  -1  -5  206.91    6.39   2
   0  -1  -5  215.20    6.86   5
   0  -1  -5  204.66    6.36   2
  -1  -1  -5    4.38    1.15   2
   1   1   5    4.82    1.38   4
   1   1   5    4.19    1.13   2
  -1  -1  -5    5.96    1.43   1
   1   1   5    4.28    1.25   1
  -1  -1  -5    5.27    1.37   5
   1   1   5    5.64    1.25   2
   1   1   5    5.02    1.30   5
  -1  -1  -5    6.92    1.48   5
  -2  -1  -5  584.54   14.22   2
   2   1   5  585.42   14.82   5
  -2  -1  -5  569.27   14.90   5
  -2  -1  -5  604.68   14.97   5
  -2  -1  -5  564.26   14.47   1
   2   1   5  572.30   14.85   5
   2   1   5  570.21   14.47   1
   3   1   5   11.90    1.94   1
  -3  -1  -5   14.04    2.05   1
  -3  -1  -5   11.13    1.89   5
   3   1   5   16.79    2.12   5
  -3  -1  -5   14.13    1.80   2
  -3  -1  -5   15.84    2.09   5
   3   1   5   11.34    1.92   5
  -4  -1  -5  311.48   10.14   5
  -4  -1  -5  303.20    9.97   1
  -4  -1  -5  311.19    9.58   2
   4   1   5  302.83   10.22   5
   4   1   5  321.16   10.35   5
  -4  -1  -5  316.30   10.38   5
   4   1   5  312.86   10.05   1
  -5  -1  -5    4.63    1.97   1
   5   1   5    6.43    2.03   5
   5   1   5    0.38    1.31   2
   5   1   5    2.55    1.64   1
   5   1   5    2.32    1.75   5
  -5  -1  -5    1.16    1.49   5
   6   1   5   51.79    4.57   5
   6   1   5   59.96    4.88   1
  -6  -1  -5   58.00    4.59   1
  -7  -1  -5    4.75    2.13   1
   7   1   5    4.42    2.39   1
  -8  -1  -5   -0.19    1.91   1
   8   1   5    7.41    2.89   1
  -9  -1  -5    0.77    2.52   1
   9   1   5    0.10    2.57   1
  -7   2   5   -0.96    1.78   1
   6  -2  -5    0.73    1.92   5
   6  -2  -5   -0.23    2.06   1
  -6   2   5   -1.48    1.53   1
  -5   2   5    1.81    1.56   1
   5  -2  -5    1.12    1.87   2
   5  -2  -5    1.69    1.82   1
   5  -2  -5    1.31    1.82   5
  -5   2   5    0.77    1.81   3
   4  -2  -5   26.90    3.21   1
  -4   2   5   15.62    2.47   1
  -4   2   5   15.02    2.62   3
   4  -2  -5   18.85    2.88   5
   4  -2  -5   24.46    3.12   2
  -3   2   5    2.07    1.64   3
   3  -2  -5    2.56    1.58   2
   3  -2  -5    0.33    1.16   1
  -3   2   5    1.57    1.08   5
   3  -2  -5    4.21    1.72   5
   3  -2  -5    1.17    1.13   2
  -3   2   5    0.03    1.20   1
   3  -2  -5    2.23    1.27   5
   2  -2  -5  272.96    8.77   5
   2  -2  -5  277.52    8.83   5
   2  -2  -5  276.16    6.71   4
   2  -2  -5  274.95    8.30   2
   2  -2  -5  280.43    8.46   2
  -2   2   5  266.76    8.11   5
   2  -2  -5  282.93    8.60   1
  -2   2   5  269.57    8.21   1
  -2   2   5  258.17    8.97   3
   1  -2  -5   12.66    1.69   2
  -1   2   5   13.82    1.66   5
  -1   2   5   13.39    1.55   5
   1  -2  -5   13.72    1.78   5
   1  -2  -5   15.64    1.93   1
   1  -2  -5   10.82    1.69   5
  -1   2   5   15.04    1.79   1
   1  -2  -5   11.47    1.52   2
   0  -2  -5 1108.43   24.49   1
   0   2   5 1119.64   23.82   2
   0  -2  -5 1104.81   24.40   2
   0  -2  -5 1075.66   24.29   2
   0   2   5 1079.06   24.91   5
   0   2   5 1143.58   25.05   5
   0  -2  -5 1111.22   25.36   5
   0  -2  -5 1089.68   25.33   5
   0   2   5 1134.41   23.93   2
   0   2   5 1102.24   24.36   1
  -1  -2  -5   53.61    3.00   1
   1   2   5   55.86    2.86   5
   1   2   5   46.44    2.47   2
   1   2   5   54.52    2.62   2
  -1  -2  -5   50.56    2.85   5
  -1  -2  -5   49.83    2.74   2
  -1  -2  -5   52.81    2.97   5
   1   2   5   44.77    2.72   5
   1   2   5   48.11    2.75   1
   2   2   5  681.00   15.99   2
  -2  -2  -5  684.30   16.25   2
   2   2   5  659.39   16.27   1
   2   2   5  686.21   16.61   5
  -2  -2  -5  711.86   16.99   5
  -2  -2  -5  672.86   16.46   1
  -2  -2  -5  685.21   16.97   5
   3   2   5   15.66    1.98   5
  -3  -2  -5   11.69    1.91   1
  -3  -2  -5    9.28    1.78   5
  -3  -2  -5   10.35    1.77   5
   3   2   5    7.06    1.58   1
   3   2   5    8.17    1.57   2
  -3  -2  -5   11.37    1.72   2
   4   2   5   99.62    5.12   5
   4   2   5  112.71    5.16   5
   4   2   5   94.97    4.96   1
   4   2   5  101.36    4.72   2
  -4  -2  -5  107.82    5.21   5
  -4  -2  -5  105.32    4.85   2
  -4  -2  -5  113.26    5.44   5
  -4  -2  -5  104.35    5.13   1
  -5  -2  -5    0.95    1.43   5
  -5  -2  -5    0.71    1.33   2
   5   2   5   -0.06    1.42   1
   5   2   5   -0.31    1.23   5
  -5  -2  -5    1.69    1.48   5
  -5  -2  -5   -1.23    1.27   2
  -5  -2  -5    3.05    1.63   1
   5   2   5    2.06    1.44   5
  -6  -2  -5   19.69    3.20   1
   6   2   5   35.49    3.85   5
  -6  -2  -5   25.35    3.45   5
   6   2   5   22.14    3.26   1
   7   2   5    3.41    2.06   1
  -7  -2  -5    3.61    2.05   1
  -8  -2  -5    8.27    2.94   1
   8   2   5    7.99    3.08   1
   9   2   5    0.89    2.73   1
  -9  -2  -5    1.99    2.65   1
  -7   3   5    1.04    2.01   1
  -6   3   5   -0.96    1.45   1
   6  -3  -5    0.04    1.90   5
   5  -3  -5    1.98    1.99   2
   5  -3  -5    0.21    1.81   5
   5  -3  -5   -0.07    1.82   1
  -5   3   5    4.35    2.34   3
  -5   3   5    1.65    1.59   1
  -4   3   5    0.96    1.30   1
   4  -3  -5    3.26    1.75   5
   4  -3  -5   -1.75    1.43   1
  -4   3   5    0.95    1.83   3
   4  -3  -5   -1.06    1.45   2
   3  -3  -5    3.66    1.62   1
  -3   3   5    0.69    0.91   5
   3  -3  -5    3.11    1.65   2
  -3   3   5   -0.32    1.45   3
   3  -3  -5    3.38    1.64   5
   3  -3  -5    2.61    1.41   2
   3  -3  -5    1.07    1.25   5
  -3   3   5    0.86    1.16   1
  -2   3   5   19.17    2.00   1
   2  -3  -5   19.43    2.20   1
   2  -3  -5   21.18    2.28   2
   2  -3  -5   18.00    1.98   2
   2  -3  -5   22.38    1.15   4
   2  -3  -5   21.31    2.33   5
   2  -3  -5   22.74    2.33   5
  -2   3   5   27.15    1.99   5
  -2   3   5   22.36    2.78   3
  -1   3   5   35.21    2.02   5
  -1   3   5   34.42    3.06   3
   1  -3  -5   39.39    2.59   1
   1  -3  -5   39.49    2.43   2
   1  -3  -5   38.12    2.64   5
  -1   3   5   40.69    2.34   1
   1  -3  -5   35.09    2.50   2
   1  -3  -5   42.17    2.73   5
   0   3   5   55.77    2.55   5
   0  -3  -5   52.63    2.64   2
   0  -3  -5   51.40    2.84   1
   0  -3  -5   54.45    2.89   5
   0   3   5   54.00    2.68   1
   0  -3  -5   48.10    2.70   2
   0   3   5   53.82    2.51   5
   0  -3  -5   49.87    2.78   5
   1   3   5  261.10    7.14   5
  -1  -3  -5  264.39    7.61   5
   1   3   5  258.08    7.23   1
  -1  -3  -5  250.46    7.46   5
   1   3   5  256.37    7.15   5
  -1  -3  -5  255.84    7.40   1
  -1  -3  -5  261.29    7.20   2
   1   3   5  260.32    6.42   2
  -1  -3  -5  260.19    7.18   2
   2   3   5    5.15    1.19   5
  -2  -3  -5    5.54    1.45   1
   2   3   5    4.53    1.23   1
   2   3   5    3.10    1.07   5
  -2  -3  -5    4.51    1.30   5
   2   3   5    4.76    1.09   2
  -2  -3  -5    3.54    1.20   2
  -2  -3  -5    3.20    1.21   5
   3   3   5   88.19    3.83   2
  -3  -3  -5   86.53    4.35   5
  -3  -3  -5   89.49    4.28   5
  -3  -3  -5   83.85    4.17   1
  -3  -3  -5   92.00    4.16   2
   3   3   5   89.11    4.12   5
   3   3   5   88.26    4.12   1
   3   3   5   86.32    4.13   5
   4   3   5   79.44    4.30   5
  -4  -3  -5   77.10    4.47   5
  -4  -3  -5   79.81    4.39   1
   4   3   5   83.17    4.08   2
   4   3   5   78.61    4.23   1
  -4  -3  -5   87.31    4.61   5
  -4  -3  -5   81.08    4.27   2
  -5  -3  -5    1.16    1.35   5
  -5  -3  -5   -1.18    1.22   1
   5   3   5    1.68    1.39   2
   5   3   5    0.83    1.29   1
  -5  -3  -5   -1.59    1.11   2
   5   3   5    1.17    1.34   5
  -5  -3  -5    0.80    1.26   5
  -5  -3  -5    2.44    1.51   2
  -6  -3  -5   28.16    3.58   1
   6   3   5   23.70    3.26   5
  -6  -3  -5   30.94    3.46   2
  -6  -3  -5   26.96    3.52   5
   6   3   5   24.27    3.25   1
  -7  -3  -5    2.51    1.97   1
   7   3   5    3.76    2.22   1
  -8  -3  -5    2.84    2.32   1
   8   3   5    2.50    2.33   1
   9   3   5    1.46    2.61   1
  -9  -3  -5    1.68    2.24   1
   6  -4  -5    3.40    2.26   5
  -6   4   5   -0.63    1.64   1
  -5   4   5    2.68    2.29   3
   5  -4  -5    3.80    2.24   2
   5  -4  -5   -2.31    1.43   5
  -5   4   5    0.83    1.48   1
  -4   4   5   -0.50    1.78   3
  -4   4   5    0.17    1.21   1
   4  -4  -5    0.37    1.55   2
   4  -4  -5   -0.96    1.33   5
   3  -4  -5    1.43    1.30   2
  -3   4   5    2.09    1.21   1
   3  -4  -5    1.00    1.23   5
  -3   4   5   -0.34    1.81   3
   3  -4  -5    0.70    1.46   2
   3  -4  -5    1.51    1.49   1
   3  -4  -5    0.72    1.29   5
  -2   4   5   10.65    1.51   1
   2  -4  -5    9.72    1.74   2
   2  -4  -5    5.64    1.58   5
  -2   4   5    8.54    2.26   3
   2  -4  -5    5.69    1.42   2
   2  -4  -5    9.02    1.70   5
   2  -4  -5   10.33    1.71   1
  -1   4   5   19.96    1.66   1
   1  -4  -5   19.43    1.88   5
   1  -4  -5   18.12    1.89   5
   1  -4  -5   21.69    1.99   1
   1  -4  -5   16.78    1.64   2
  -1   4   5   17.07    2.62   3
   1  -4  -5   19.51    1.85   2
   0   4   5    4.77    1.68   3
   0  -4  -5    8.52    1.33   5
   0  -4  -5    6.39    1.05   2
   0   4   5    6.71    1.08   1
   0  -4  -5    6.39    1.21   1
   0  -4  -5    6.04    1.16   2
   0  -4  -5    4.67    1.10   5
  -1  -4  -5  138.19    4.42   2
  -1  -4  -5  130.15    4.67   5
   1   4   5  136.22    5.67   3
  -1  -4  -5  140.77    4.44   2
  -1  -4  -5  133.57    4.72   5
   1   4   5  136.48    3.79   5
   1   4   5  136.37    3.81   5
  -1  -4  -5  129.64    4.61   1
   1   4   5  133.09    4.31   1
   2   4   5   14.42    1.58   1
   2   4   5   17.20    1.50   5
  -2  -4  -5   18.95    1.76   2
   2   4   5   16.25    2.13   3
   2   4   5   17.40    1.48   5
  -2  -4  -5   20.63    1.98   1
  -2  -4  -5   17.51    1.79   5
  -2  -4  -5   19.54    1.88   5
   3   4   5   38.46    2.12   2
  -3  -4  -5   37.32    2.66   2
   3   4   5   33.06    2.37   5
   3   4   5   37.67    2.57   1
  -3  -4  -5   33.66    2.63   1
  -3  -4  -5   35.98    2.73   5
  -3  -4  -5   36.92    2.74   5
   4   4   5   50.94    3.35   5
  -4  -4  -5   51.90    3.60   5
   4   4   5   58.70    3.55   1
  -4  -4  -5   59.31    3.79   5
  -4  -4  -5   53.75    3.50   2
  -4  -4  -5   44.99    3.40   1
  -5  -4  -5   -0.63    1.15   2
  -5  -4  -5    1.32    1.30   2
  -5  -4  -5   -0.13    1.21   1
  -5  -4  -5    0.82    1.46   5
   5   4   5   -1.80    1.00   5
   5   4   5   -0.13    1.23   1
   5   4   5    0.21    0.97   3
  -5  -4  -5    1.89    1.43   5
   6   4   5   15.32    2.84   1
  -6  -4  -5    4.87    1.91   5
   6   4   5   11.07    1.25   3
  -6  -4  -5    9.82    2.46   1
  -6  -4  -5    8.88    2.29   2
   7   4   5    2.75    2.17   1
  -7  -4  -5    2.61    2.05   1
  -7  -4  -5    5.76    2.69   5
   8   4   5   -1.50    1.90   1
  -8  -4  -5   -1.85    1.74   1
   9   4   5    0.46    2.57   1
  -9  -4  -5    1.06    2.48   1
  -6   5   5   -0.36    1.67   1
   5  -5  -5    1.61    1.85   5
  -5   5   5    3.05    1.65   1
   5  -5  -5    5.09    2.37   2
   4  -5  -5    0.42    1.56   5
  -4   5   5    1.77    1.30   1
  -4   5   5    5.73    2.62   3
   4  -5  -5    3.34    1.85   2
  -3   5   5   11.77    1.67   1
   3  -5  -5    5.66    1.69   2
  -3   5   5   10.37    2.83   3
   3  -5  -5    7.09    1.88   5
   3  -5  -5    9.20    2.02   2
   2  -5  -5   18.39    2.12   1
  -2   5   5   23.03    3.32   3
   2  -5  -5   23.44    1.32   4
  -2   5   5   22.23    1.72   1
   2  -5  -5   21.19    2.30   5
   2  -5  -5   18.99    2.17   5
   2  -5  -5   21.82    2.09   2
   2  -5  -5   20.12    2.20   2
   1  -5  -5    1.20    1.03   1
  -1   5   5   -0.34    0.58   1
  -1   5   5    1.08    1.67   3
  -1   5   5   -0.08    0.60   1
   1  -5  -5    2.02    0.89   2
   1  -5  -5   -0.90    0.83   5
   1  -5  -5    1.07    0.86   5
   1  -5  -5   -0.07    0.91   2
   0   5   5   20.50    1.14   1
   0  -5  -5   19.88    1.73   5
   0   5   5   19.73    1.10   1
   0  -5  -5   21.46    1.79   1
   0   5   5   23.24    2.79   3
   0  -5  -5   22.58    1.58   2
   0  -5  -5   20.49    1.72   5
   0  -5  -5   25.06    1.73   2
  -1  -5  -5   18.07    1.59   5
  -1  -5  -5   19.08    1.49   2
  -1  -5  -5   18.88    1.73   1
   1   5   5   18.30    2.45   3
   1   5   5   17.58    1.24   1
  -1  -5  -5   20.29    1.58   2
   1   5   5   18.75    1.25   1
  -1  -5  -5   22.12    1.74   5
   2   5   5    0.84    1.18   3
  -2  -5  -5    1.13    0.94   2
   2   5   5   -0.16    0.74   1
  -2  -5  -5    0.72    0.82   5
  -2  -5  -5    1.36    1.06   1
  -2  -5  -5    1.46    0.91   5
  -3  -5  -5    6.79    1.50   5
  -3  -5  -5    7.36    1.52   1
  -3  -5  -5    6.68    1.42   2
   3   5   5    4.65    1.25   1
   3   5   5    7.00    1.63   3
  -3  -5  -5    4.00    1.33   5
   3   5   5    4.24    1.03   5
   4   5   5   20.74    2.12   5
  -4  -5  -5   24.74    2.56   5
  -4  -5  -5   21.36    2.47   1
   4   5   5   20.26    2.12   3
   4   5   5   24.59    2.47   1
  -4  -5  -5   22.14    2.55   5
  -4  -5  -5   21.29    2.40   2
  -5  -5  -5   -1.43    1.09   1
  -5  -5  -5    4.65    1.74   5
  -5  -5  -5    0.60    1.42   2
  -5  -5  -5    2.31    1.66   5
   5   5   5    1.84    1.56   1
   5   5   5    1.03    1.33   5
   5   5   5    1.08    1.10   3
  -6  -5  -5    3.21    1.82   5
   6   5   5    6.24    2.18   1
  -6  -5  -5    6.25    2.22   1
  -6  -5  -5    7.09    2.11   2
   7   5   5    4.20    2.11   1
  -7  -5  -5    2.04    1.79   1
  -7  -5  -5    2.46    2.26   5
   8   5   5    0.99    2.18   1
  -8  -5  -5   -0.77    1.66   1
  -9  -5  -5   -0.57    1.97   1
   9   5   5    2.11    2.54   1
   5  -6  -5    2.30    2.25   2
  -4   6   5   -0.53    0.97   1
   4  -6  -5    0.73    1.72   5
   4  -6  -5   -0.22    1.55   2
   3  -6  -5    5.11    1.66   2
  -3   6   5    4.41    0.78   1
  -3   6   5    6.57    2.82   3
   3  -6  -5    3.64    1.62   2
   3  -6  -5    5.34    1.87   5
   2  -6  -5   12.77    1.85   2
   2  -6  -5   13.38    1.94   5
   2  -6  -5   11.06    1.68   2
   2  -6  -5   14.38    1.94   5
  -2   6   5   14.50    3.22   3
   1  -6  -5    0.15    0.89   5
   1  -6  -5    0.64    0.90   5
   1  -6  -5    1.24    0.80   2
  -1   6   5    1.83    1.88   3
   1  -6  -5    1.78    1.03   2
   0  -6  -5    9.08    1.13   2
   0  -6  -5   13.93    1.46   1
   0  -6  -5   10.65    1.37   5
   0  -6  -5   12.03    1.37   5
   0  -6  -5    9.87    1.08   2
   0   6   5   10.14    2.40   3
  -1  -6  -5    4.00    0.87   2
  -1  -6  -5    4.76    1.07   1
   1   6   5    2.97    1.77   3
  -1  -6  -5    3.33    0.87   2
  -1  -6  -5    3.63    0.92   5
  -1  -6  -5    4.69    1.00   5
   2   6   5    3.92    0.65   1
  -2  -6  -5    4.05    1.18   1
   2   6   5    2.81    1.57   3
   2   6   5    3.33    0.67   1
  -2  -6  -5    2.03    0.97   5
  -2  -6  -5    0.85    0.84   5
  -2  -6  -5    2.36    0.98   2
   3   6   5    0.34    0.86   1
  -3  -6  -5    0.99    0.94   5
  -3  -6  -5    1.07    0.98   5
   3   6   5    1.94    1.38   3
  -3  -6  -5   -0.02    1.06   2
  -3  -6  -5    0.81    1.02   1
   4   6   5   26.82    2.59   3
  -4  -6  -5   24.20    2.66   5
   4   6   5   23.66    2.29   1
  -4  -6  -5   30.65    2.73   2
  -4  -6  -5   21.38    2.52   5
  -4  -6  -5   21.10    2.43   1
   5   6   5    6.87    1.55   3
  -5  -6  -5    8.75    2.20   1
  -5  -6  -5    9.17    2.08   2
   5   6   5    6.25    1.89   1
  -5  -6  -5    7.33    2.13   5
  -5  -6  -5    5.22    1.88   5
  -6  -6  -5   13.83    2.65   2
   6   6   5    8.19    2.29   1
  -6  -6  -5    9.85    2.42   1
  -6  -6  -5   17.61    3.03   5
  -7  -6  -5    3.53    2.17   5
   7   6   5    2.42    2.01   1
  -7  -6  -5    5.54    2.27   1
   8   6   5   -1.39    2.08   1
  -8  -6  -5   -0.87    1.91   1
  -9  -6  -5    1.04    2.49   1
   9   6   5   -0.87    2.30   1
   5  -7  -5    1.55    2.21   2
   4  -7  -5    0.40    1.81   2
   3  -7  -5    1.52    1.58   2
   3  -7  -5    4.59    1.74   2
   3  -7  -5    4.01    1.73   5
   2  -7  -5   19.68    2.02   2
   2  -7  -5   15.96    2.06   5
   2  -7  -5   13.82    1.95   5
   2  -7  -5   16.86    2.04   2
   1  -7  -5    4.19    1.16   5
   1  -7  -5    2.83    0.93   2
   1  -7  -5    2.59    1.12   5
   1  -7  -5    4.39    1.13   2
  -1   7   5    2.72    1.98   3
   0  -7  -5   22.11    1.39   2
   0   7   5   22.00    3.40   3
   0  -7  -5   23.59    1.79   5
   0  -7  -5   23.35    1.46   2
   0  -7  -5   23.00    1.76   5
  -1  -7  -5   53.03    2.48   5
   1   7   5   56.68    4.43   3
  -1  -7  -5   58.48    2.07   2
  -1  -7  -5   53.84    2.55   5
  -1  -7  -5   50.06    2.02   2
   2   7   5    4.40    1.89   3
  -2  -7  -5    5.44    1.15   5
  -2  -7  -5    3.31    1.09   5
  -2  -7  -5    0.88    0.87   2
  -3  -7  -5   56.50    3.19   1
  -3  -7  -5   48.86    3.08   5
   3   7   5   54.98    4.03   3
  -3  -7  -5   53.23    3.22   5
   3   7   5   47.56    2.01   1
  -3  -7  -5   48.30    2.93   2
   3   7   5   54.13    2.00   1
   4   7   5    0.21    1.41   3
  -4  -7  -5   -1.27    1.07   1
  -4  -7  -5    1.10    1.18   5
  -4  -7  -5   -1.71    1.01   2
   4   7   5    0.95    1.08   1
  -4  -7  -5    2.02    1.31   5
  -5  -7  -5    1.10    1.44   5
   5   7   5   -0.82    1.21   1
  -5  -7  -5    2.21    1.52   1
  -5  -7  -5    0.80    1.51   2
  -6  -7  -5    0.21    1.50   5
  -6  -7  -5   -1.53    1.49   1
   6   7   5    1.69    1.58   1
  -6  -7  -5   -1.25    1.38   2
  -7  -7  -5    2.21    1.98   1
   7   7   5    2.63    2.02   1
  -7  -7  -5    2.48    1.99   5
   8   7   5    1.54    2.08   1
  -8  -7  -5   -1.48    1.78   1
   9   7   5    0.06    2.35   1
  -9  -7  -5    0.96    2.23   1
   4  -8  -5    0.31    1.95   2
   3  -8  -5    0.43    1.53   2
   3  -8  -5   -1.14    1.20   2
   2  -8  -5    0.96    1.06   2
   2  -8  -5    0.46    1.10   5
   2  -8  -5    0.29    1.19   2
   1  -8  -5   14.16    1.64   5
   1  -8  -5   14.87    1.41   2
   1  -8  -5   11.10    1.34   2
   1  -8  -5   10.91    1.54   5
   0  -8  -5    1.25    0.82   5
   0  -8  -5    1.54    0.86   5
  -1  -8  -5   49.25    2.35   5
  -1  -8  -5   46.12    2.26   5
  -2  -8  -5   18.30    1.73   5
  -2  -8  -5   17.54    1.41   2
  -2  -8  -5   17.10    1.64   5
  -2  -8  -5   17.13    1.47   2
  -3  -8  -5   39.72    2.82   5
  -3  -8  -5   36.90    2.58   2
  -3  -8  -5   40.32    2.78   5
  -4  -8  -5   27.68    2.76   5
  -4  -8  -5   27.76    2.61   2
   4   8   5   23.73    1.66   1
  -4  -8  -5   25.08    2.71   5
  -5  -8  -5    0.79    1.36   5
  -5  -8  -5    2.75    1.63   2
   5   8   5    2.16    1.29   1
  -6  -8  -5    4.88    2.09   2
  -6  -8  -5    7.03    2.28   5
   6   8   5    7.15    1.95   1
   7   8   5   -0.50    1.58   1
  -7  -8  -5    1.37    1.98   5
  -8  -8  -5   -0.44    2.21   5
   8   8   5   -3.19    1.70   1
   3  -9  -5    1.70    1.77   2
   2  -9  -5    4.72    1.51   2
   2  -9  -5    5.44    1.49   2
   1  -9  -5    0.65    0.88   2
   1  -9  -5    2.33    1.12   5
   1  -9  -5    2.34    0.94   2
   1  -9  -5    0.39    0.91   5
   0  -9  -5    7.40    1.13   5
   0  -9  -5    9.74    1.20   5
  -1  -9  -5   -0.16    0.68   5
  -1  -9  -5   -0.18    0.60   5
  -2  -9  -5    0.58    0.85   5
  -2  -9  -5    0.74    0.80   5
  -2  -9  -5    0.59    0.80   2
  -3  -9  -5    0.17    1.02   5
  -3  -9  -5   -1.04    0.81   5
  -3  -9  -5   -0.42    1.00   2
  -4  -9  -5    1.08    1.29   5
  -4  -9  -5    1.15    1.31   2
   5   9   5    5.37    1.17   1
  -5  -9  -5    2.54    1.71   2
  -5  -9  -5    4.97    1.86   5
   6   9   5   -0.89    1.21   1
  -6  -9  -5    0.20    1.68   2
  -6  -9  -5    0.51    1.63   5
  -7  -9  -5    0.18    1.78   5
  -7  -9  -5    5.83    2.61   2
   7   9   5    4.92    2.03   1
  -8  -9  -5    0.61    2.40   5
   8   9   5    1.66    2.06   1
   2 -10  -5    0.58    1.22   2
   1 -10  -5    0.46    0.87   2
   1 -10  -5    0.77    0.98   2
   1 -10  -5    1.33    1.05   5
   0 -10  -5    3.61    0.93   5
   0 -10  -5    2.85    0.89   5
  -1 -10  -5    4.70    0.90   5
  -1 -10  -5    6.42    1.08   5
  -2 -10  -5   -0.04    0.80   5
  -2 -10  -5   -0.13    0.73   2
  -2 -10  -5    0.42    0.92   5
  -3 -10  -5    5.36    1.41   5
  -3 -10  -5    2.85    1.39   5
  -3 -10  -5    5.38    1.30   2
  -4 -10  -5    5.27    1.68   2
  -4 -10  -5    6.03    1.75   5
  -5 -10  -5   -0.42    1.29   5
  -5 -10  -5    0.02    1.49   2
  -6 -10  -5    4.27    2.19   2
  -7 -10  -5    0.65    2.26   2
   7  10   5   -0.39    1.51   1
   1 -11  -5    0.22    0.99   2
  -2 -11  -5    1.00    1.01   5
  -3 -11  -5    3.04    1.24   2
  -4 -11  -5    0.38    1.44   2
  -5 -11  -5    2.88    1.83   2
  -6 -11  -5   -2.19    1.81   2
  -7 -11  -5    2.80    2.49   2
  -3 -12  -5    0.06    1.18   2
  -4 -12  -5    3.54    1.72   2
   4   9  -6    2.13    2.01   1
  -4  -9   6    0.20    2.32   4
  -3  -9   6    1.75    2.72   4
   3   9  -6    0.76    1.87   1
   2   9  -6   -0.43    1.51   1
  -2  -9   6    0.64    1.93   2
  -2  -9   6    1.08    2.70   4
   1   9  -6   -0.61    1.24   1
  -1  -9   6    0.89    2.51   4
  -1  -9   6   -0.09    1.86   2
   0  -9   6   -0.09    2.39   4
   0  -9   6    0.12    2.00   2
   1  -9   6    1.98    2.54   4
   1  -9   6   -0.93    1.81   2
   2  -9   6    3.35    3.20   4
  -5  -8   6    6.09    3.21   4
   5   8  -6    1.21    2.12   1
   4   8  -6    2.83    1.90   1
  -4  -8   6    0.99    2.04   5
  -4  -8   6    0.96    2.24   4
  -3  -8   6   -2.92    1.55   2
  -3  -8   6    3.88    2.68   4
   3   8  -6   -0.34    1.59   1
  -3  -8   6    1.73    1.99   5
  -2  -8   6    5.63    2.97   4
   2   8  -6   -0.12    1.52   1
  -2  -8   6    2.60    1.99   2
  -2  -8   6    4.49    2.14   5
   1   8  -6    0.79    1.42   1
  -1  -8   6    1.56    1.64   5
  -1  -8   6    2.91    1.94   2
  -1  -8   6    3.08    2.35   4
   0  -8   6   -0.59    1.66   2
   0  -8   6    1.12    1.54   5
   0  -8   6   -1.04    1.82   4
   0   8  -6    0.60    1.23   1
   1  -8   6   -2.35    1.52   2
  -1   8  -6    1.31    1.26   1
   1  -8   6   -0.05    1.88   4
   1  -8   6   -0.72    1.46   5
   2  -8   6    3.21    2.39   4
   2  -8   6    0.06    1.79   2
   3  -8   6   -2.08    2.08   4
   3  -8   6   -0.97    2.02   2
  -6  -7   6   -0.07    2.19   1
  -6  -7   6    3.65    2.79   4
   6   7  -6   -1.47    2.11   1
   5   7  -6    1.96    2.03   1
  -5  -7   6    0.68    2.12   1
  -5  -7   6    1.58    2.42   4
   4   7  -6    0.88    1.75   1
  -4  -7   6    4.65    2.35   5
  -4  -7   6    5.31    2.70   4
  -4  -7   6    9.28    2.69   1
  -3  -7   6   13.81    3.29   4
  -3  -7   6    5.52    2.49   5
  -3  -7   6    7.35    2.42   2
   3   7  -6    9.79    2.42   1
   2   7  -6    7.47    2.13   1
  -2  -7   6    5.02    2.07   5
  -2  -7   6    5.60    2.17   2
  -2  -7   6    3.89    2.42   4
   1   7  -6   16.23    2.48   1
  -1  -7   6   22.18    3.13   2
  -1  -7   6   22.68    3.93   4
  -1  -7   6   20.68    3.09   5
   0   7  -6    0.57    1.23   1
   0  -7   6    1.07    1.95   4
   0  -7   6   -1.97    1.20   2
   0  -7   6   -1.90    1.18   5
  -1   7  -6   10.95    1.99   1
   1  -7   6    8.47    2.30   2
   1  -7   6    4.12    2.59   4
   1  -7   6    9.21    2.39   5
   2  -7   6    3.72    2.59   4
   2  -7   6    1.37    1.67   5
  -2   7  -6    1.06    1.49   1
   2  -7   6    1.94    1.71   2
   3  -7   6    0.51    1.86   5
  -3   7  -6    1.42    1.51   1
   3  -7   6    2.06    1.90   2
   3  -7   6    0.91    2.25   4
  -4   7  -6    0.68    1.59   1
   4  -7   6    0.94    2.09   2
   4  -7   6    3.91    2.86   4
   7   6  -6    0.57    2.34   1
   6   6  -6   -0.24    2.01   1
  -6  -6   6    0.91    2.20   1
  -6  -6   6    1.14    2.41   4
   5   6  -6    5.31    2.45   1
  -5  -6   6    9.02    3.06   4
  -5  -6   6   13.13    3.33   1
   4   6  -6   -1.14    1.54   1
  -4  -6   6    2.07    1.87   1
  -4  -6   6    2.87    2.27   4
  -4  -6   6   -0.94    1.60   5
   3   6  -6    2.34    1.75   1
  -3  -6   6    1.53    1.85   1
  -3  -6   6    3.40    2.13   4
  -3  -6   6    9.34    2.49   5
  -3  -6   6    8.76    2.52   2
  -2  -6   6    1.56    1.67   1
  -2  -6   6    2.36    1.65   2
   2   6  -6    0.52    1.54   1
  -2  -6   6   -2.12    1.49   4
  -2  -6   6    1.14    1.55   5
  -1  -6   6   -0.70    1.30   5
  -1  -6   6   -2.03    1.27   4
  -1  -6   6   -1.86    1.19   2
   1   6  -6   -1.03    1.25   1
  -1  -6   6    1.82    1.56   1
   0  -6   6   24.13    3.69   4
   0  -6   6   12.62    2.33   2
   0  -6   6   22.38    2.91   5
   0   6  -6   20.72    2.56   1
   0  -6   6   18.66    2.75   1
   1  -6   6   -1.04    1.71   4
   1  -6   6    0.01    1.32   2
   1  -6   6   -0.87    1.22   5
  -1   6  -6    1.18    1.37   1
   2  -6   6   20.53    2.99   5
   2  -6   6   27.33    4.23   4
   2  -6   6   25.52    3.09   2
  -2   6  -6   22.08    2.63   1
   3  -6   6    6.91    2.85   4
  -3   6  -6    4.09    1.83   1
   3  -6   6    3.92    1.94   2
   3  -6   6    3.15    2.00   5
   4  -6   6    4.96    2.25   5
   4  -6   6    1.73    2.21   4
   4  -6   6    0.49    1.86   2
  -4   6  -6    3.08    1.79   1
  -5   6  -6    2.51    1.93   1
   5  -6   6    0.80    2.55   4
   7   5  -6    0.73    2.24   1
  -7  -5   6    0.89    2.22   1
  -6  -5   6    5.31    2.43   1
   6   5  -6    2.44    2.22   1
  -6  -5   6    2.37    2.31   4
   5   5  -6    0.28    1.92   1
  -5  -5   6   -0.18    1.71   4
  -5  -5   6   -1.73    1.51   1
   4   5  -6    9.81    2.59   1
  -4  -5   6    7.01    2.43   5
  -4  -5   6    7.34    2.62   4
  -4  -5   6    9.30    2.63   1
  -3  -5   6    9.06    2.46   1
  -3  -5   6   12.65    2.64   2
  -3  -5   6    6.67    2.18   5
   3   5  -6   12.59    2.44   1
  -3  -5   6    8.03    2.56   4
  -2  -5   6   15.57    2.54   2
  -2  -5   6    7.13    2.38   4
  -2  -5   6   15.94    2.76   5
  -2  -5   6   14.19    2.61   1
   2   5  -6   14.87    2.57   1
   1   5  -6   51.39    3.73   1
  -1  -5   6   44.09    3.78   5
  -1  -5   6   38.63    3.58   1
  -1  -5   6   48.95    3.75   2
  -1  -5   6   56.00    4.78   4
  -1  -5   6   43.52    3.60   2
   0  -5   6    2.69    1.61   5
   0  -5   6    2.96    1.67   1
   0  -5   6    0.95    1.27   2
   0   5  -6    0.48    1.34   1
   0  -5   6    1.55    1.59   4
   0  -5   6    2.14    1.57   2
   1  -5   6   27.23    3.69   4
   1  -5   6   28.64    2.96   2
  -1   5  -6   23.38    2.75   1
   1  -5   6   23.31    2.89   1
   1  -5   6   25.64    2.98   5
  -2   5  -6   -0.95    1.23   1
   2  -5   6    0.22    1.38   5
   2  -5   6    0.28    1.75   4
   2  -5   6   -0.39    1.29   2
   2  -5   6    0.06    1.44   1
   3  -5   6   -1.53    1.60   4
  -3   5  -6   -1.30    1.24   1
   3  -5   6    1.16    1.59   2
   3  -5   6   -1.16    1.33   5
   4  -5   6    2.17    1.94   2
  -4   5  -6   -0.13    1.53   1
   4  -5   6   -1.86    1.52   5
   4  -5   6    4.57    2.46   4
   5  -5   6    0.15    2.29   4
   5  -5   6   -2.73    1.71   5
  -5   5  -6   -1.42    1.56   1
  -6   5  -6    1.44    2.06   1
  -7  -4   6    2.74    2.37   1
   7   4  -6    3.93    2.56   1
  -6  -4   6   -1.51    1.86   1
   6   4  -6   -0.60    1.61   1
  -6  -4   6   -1.27    1.81   4
  -5  -4   6   -0.26    1.77   1
  -5  -4   6   -0.35    1.62   4
   5   4  -6   -1.89    1.62   1
  -4  -4   6    5.59    2.10   4
  -4  -4   6    1.60    1.95   1
  -4  -4   6    0.71    1.72   5
   4   4  -6    2.62    2.05   1
   3   4  -6    8.40    2.21   1
  -3  -4   6    8.57    2.24   1
  -3  -4   6    7.65    2.17   5
  -3  -4   6    5.45    2.11   4
  -3  -4   6    7.32    2.13   2
  -2  -4   6   -0.35    1.41   2
  -2  -4   6    6.01    1.74   2
  -2  -4   6    1.80    1.59   1
   2   4  -6    1.58    1.33   5
  -2  -4   6    1.61    1.58   5
   2   4  -6    0.52    1.43   1
  -2  -4   6    3.86    1.97   4
  -2  -4   6    5.19    1.80   5
  -1  -4   6   24.61    2.79   2
  -1  -4   6   27.32    3.00   1
  -1  -4   6   24.27    3.19   4
   1   4  -6   27.74    2.90   1
   1   4  -6   31.40    2.88   5
  -1  -4   6   28.16    3.10   5
  -1  -4   6   26.51    3.00   5
  -1  -4   6   26.93    2.88   2
   0   4  -6    5.09    1.46   5
   0  -4   6    2.94    1.44   2
   0  -4   6    4.78    1.63   2
   0  -4   6    2.62    1.59   4
   0  -4   6    7.04    1.89   1
   0  -4   6    3.78    1.58   5
   0   4  -6    4.03    1.61   1
   0  -4   6    4.70    1.61   5
   1  -4   6    4.69    1.59   2
   1  -4   6    1.80    1.61   4
   1  -4   6    6.08    1.91   1
  -1   4  -6    4.20    1.48   5
   1  -4   6    6.48    1.78   5
   1  -4   6    4.65    1.78   5
  -1   4  -6    7.91    1.89   1
   2  -4   6   17.21    2.57   5
  -2   4  -6   22.09    2.40   5
   2  -4   6   19.63    2.78   1
   2  -4   6   24.18    2.74   2
   2  -4   6   17.76    3.11   4
  -2   4  -6   20.58    2.61   1
  -3   4  -6    2.32    1.65   1
   3  -4   6    2.85    1.95   4
   3  -4   6    1.82    1.58   1
   3  -4   6    3.49    1.66   2
   3  -4   6    1.45    1.54   5
   4  -4   6    2.22    2.16   4
   4  -4   6    6.76    2.25   1
   4  -4   6    4.14    2.09   5
  -4   4  -6    3.63    1.88   1
   4  -4   6    3.68    1.95   2
   5  -4   6    2.64    2.13   5
   5  -4   6    3.09    2.48   4
  -5   4  -6    2.35    1.86   1
  -6   4  -6    1.24    2.05   1
   6  -4   6   -0.18    2.22   5
  -7  -3   6    1.86    2.49   1
   7   3  -6    0.21    2.24   1
   6   3  -6    2.22    2.20   1
  -6  -3   6    2.54    2.41   1
  -5  -3   6    0.22    1.44   4
  -5  -3   6    1.33    1.90   1
   5   3  -6    0.28    1.85   1
  -4  -3   6   12.32    2.72   5
   4   3  -6   10.97    2.73   1
  -4  -3   6    9.81    2.26   4
  -4  -3   6   13.76    2.88   1
   3   3  -6    2.25    1.44   5
  -3  -3   6    5.47    1.84   4
  -3  -3   6    8.06    2.36   1
  -3  -3   6    6.23    1.92   5
  -3  -3   6    9.40    2.14   2
   3   3  -6   10.28    2.37   1
  -3  -3   6    5.44    2.20   5
  -2  -3   6   13.35    2.46   4
  -2  -3   6   11.67    2.37   1
  -2  -3   6    8.96    2.14   5
   2   3  -6   14.18    2.48   1
  -2  -3   6    8.51    2.06   2
  -2  -3   6    8.28    1.94   2
  -2  -3   6   10.51    2.21   5
  -1  -3   6   54.04    3.89   5
  -1  -3   6   46.69    3.51   5
   1   3  -6   45.32    3.49   1
  -1  -3   6   45.39    3.46   2
  -1  -3   6   45.82    3.60   4
  -1  -3   6   53.34    3.65   1
  -1  -3   6   49.04    3.47   2
   0  -3   6    2.27    1.62   4
   0  -3   6    2.75    1.38   5
   0   3  -6    1.14    1.08   5
   0  -3   6    4.20    1.59   5
   0  -3   6   -0.01    1.11   2
   0   3  -6    2.27    1.36   1
   0  -3   6    2.04    1.29   1
   0  -3   6    1.61    1.18   2
   1  -3   6   23.82    2.75   5
   1  -3   6   21.11    2.94   4
   1  -3   6   21.04    2.41   2
  -1   3  -6   21.61    2.55   1
   1  -3   6   21.10    2.57   1
  -1   3  -6   18.07    2.25   5
   1  -3   6   16.41    2.33   5
   2  -3   6   15.88    2.53   1
  -2   3  -6   12.21    2.07   5
   2  -3   6   14.75    2.31   5
   2  -3   6   11.84    2.19   5
   2  -3   6   16.69    2.32   2
  -2   3  -6   19.22    2.49   1
   2  -3   6   19.62    2.95   4
   3  -3   6    0.87    1.33   5
  -3   3  -6    0.48    1.23   5
   3  -3   6   -0.04    1.34   1
  -3   3  -6    5.03    1.82   1
   3  -3   6    2.14    1.43   2
   3  -3   6    2.29    1.61   4
   4  -3   6    1.76    1.65   5
   4  -3   6    2.73    1.74   2
   4  -3   6   -0.52    1.59   4
  -4   3  -6   -0.41    1.29   1
   4  -3   6    1.89    1.66   1
   5  -3   6   10.27    2.73   2
   5  -3   6    7.85    2.55   5
   5  -3   6    1.00    1.85   1
  -5   3  -6    3.50    1.95   1
   5  -3   6    4.54    2.41   4
  -6   3  -6    0.07    1.73   1
   6  -3   6   -1.55    2.01   5
   6  -3   6    0.57    1.91   1
  -7   3  -6    1.85    2.31   1
   7   2  -6   -0.45    2.52   1
  -7  -2   6    3.65    2.57   1
   6   2  -6   -0.42    1.98   1
  -6  -2   6   -0.98    1.53   1
  -5  -2   6    0.61    1.32   4
  -5  -2   6    0.74    1.73   1
   5   2  -6    0.87    1.95   1
   4   2  -6    1.57    1.77   5
  -4  -2   6    1.41    1.51   5
   4   2  -6    3.32    2.00   1
  -4  -2   6    5.66    1.71   4
  -4  -2   6    0.92    1.61   1
  -3  -2   6    6.74    1.99   1
  -3  -2   6    1.49    1.67   2
   3   2  -6    4.77    1.84   1
   3   2  -6    7.91    2.10   5
  -3  -2   6    4.92    1.73   5
  -3  -2   6    5.03    1.66   4
  -3  -2   6    4.57    1.91   5
  -3  -2   6    2.01    1.46   2
  -2  -2   6    0.19    1.21   4
  -2  -2   6    1.28    1.23   5
   2   2  -6    0.96    1.24   5
   2   2  -6    1.23    1.45   1
  -2  -2   6   -1.41    0.82   2
   2   2  -6   -0.04    1.16   2
  -2  -2   6    0.04    1.16   1
   2   2  -6   -1.25    0.99   5
  -2  -2   6    1.37    1.36   2
  -2  -2   6    0.53    1.27   5
  -1  -2   6   36.18    3.18   5
  -1  -2   6   31.11    2.92   5
  -1  -2   6   30.35    2.93   4
   1   2  -6   40.00    2.93   2
   1   2  -6   37.95    3.18   5
   1   2  -6   39.88    3.23   1
  -1  -2   6   34.51    2.82   2
   1   2  -6   33.02    2.93   5
  -1  -2   6   32.47    3.05   1
  -1  -2   6   37.08    3.08   2
   0  -2   6   66.65    3.93   5
   0   2  -6   64.10    3.80   5
   0  -2   6   63.60    3.85   1
   0  -2   6   65.10    3.66   2
   0  -2   6   62.87    3.92   5
   0   2  -6   55.64    3.69   1
   0  -2   6   60.95    3.56   2
   0  -2   6   56.35    3.86   4
   1  -2   6   13.27    1.93   2
   1  -2   6    5.18    1.55   1
   1  -2   6    4.81    1.71   4
  -1   2  -6    9.03    1.88   1
  -1   2  -6    6.66    1.64   5
   1  -2   6    7.19    1.73   5
   1  -2   6    8.16    1.79   5
  -2   2  -6   89.76    4.66   5
   2  -2   6   74.56    4.70   4
   2  -2   6   91.03    4.82   5
   2  -2   6   87.19    4.70   5
   2  -2   6   92.85    4.85   1
   2  -2   6   82.23    4.34   2
  -2   2  -6   87.48    4.62   1
   3  -2   6    7.42    1.99   5
   3  -2   6    3.48    1.78   4
  -3   2  -6    3.98    1.73   1
   3  -2   6    9.43    1.90   2
   3  -2   6    4.51    1.64   1
   3  -2   6    7.13    1.97   5
  -3   2  -6    4.42    1.56   5
   4  -2   6   12.44    2.46   2
   4  -2   6   13.90    2.67   5
   4  -2   6   17.35    2.96   4
  -4   2  -6   12.27    2.52   1
   4  -2   6   19.23    3.03   1
   5  -2   6    5.64    2.22   5
   5  -2   6    7.29    2.34   1
   5  -2   6    4.89    2.41   4
  -5   2  -6    9.99    2.58   1
   5  -2   6   11.43    2.69   2
   6  -2   6    1.07    2.01   5
  -6   2  -6    0.27    1.67   1
   6  -2   6    3.75    2.11   1
  -7   2  -6   -0.09    1.87   1
   7  -2   6   -1.50    2.03   1
   7   1  -6    0.76    2.24   1
  -7  -1   6    0.51    2.18   1
  -6  -1   6    0.25    1.50   1
   6   1  -6   -1.56    1.84   1
   5   1  -6    7.45    2.60   1
  -5  -1   6    5.77    2.32   1
  -5  -1   6    6.95    2.28   3
   4   1  -6   22.01    3.29   5
   4   1  -6   18.76    3.20   1
  -4  -1   6   20.74    3.14   1
  -4  -1   6   16.28    2.09   4
  -4  -1   6   19.93    3.00   5
   3   1  -6   -0.17    1.32   5
   3   1  -6    2.30    1.50   2
   3   1  -6   -0.50    1.18   2
  -3  -1   6    1.03    1.22   5
  -3  -1   6    1.42    1.23   4
   3   1  -6    0.82    1.53   1
  -3  -1   6    2.05    1.48   1
   3   1  -6    0.62    1.45   5
   2   1  -6   31.62    3.15   1
  -2  -1   6   40.15    3.46   5
  -2  -1   6   41.02    3.16   2
  -2  -1   6   37.02    3.04   5
  -2  -1   6   43.37    3.33   1
   2   1  -6   39.74    3.16   2
  -2  -1   6   37.02    2.81   4
   2   1  -6   39.71    3.40   5
   2   1  -6   41.12    3.29   5
  -1  -1   6    9.29    1.95   5
   1   1  -6    3.35    1.43   5
  -1  -1   6    3.67    1.36   2
   1   1  -6    4.69    1.47   5
  -1  -1   6    3.59    1.37   5
   1   1  -6    4.61    1.51   1
   1   1  -6    4.34    1.32   2
  -1  -1   6    5.20    1.52   4
  -1  -1   6    5.43    1.58   1
  -1  -1   6    5.57    1.44   2
   0  -1   6    1.12    1.23   5
   0   1  -6    3.45    1.29   5
   0  -1   6    3.47    1.25   2
   0   1  -6    3.34    1.32   5
   0   1  -6    4.54    1.35   2
   0  -1   6    4.78    1.42   5
   0  -1   6    4.77    1.58   1
   0   1  -6    2.94    1.36   1
   0  -1   6    4.49    1.43   2
   0  -1   6    5.08    1.59   4
  -1   1  -6    0.82    1.09   2
   1  -1   6   -0.33    1.02   4
  -1   1  -6    1.19    1.04   5
  -1   1  -6    3.40    1.25   5
   1  -1   6    1.86    1.15   5
  -1   1  -6    1.01    1.18   1
   1  -1   6    2.30    1.21   1
   1  -1   6    1.44    1.00   2
   1  -1   6   -0.30    0.91   5
   1  -1   6    0.23    1.13   2
  -2   1  -6    8.47    1.80   1
   2  -1   6    6.63    1.80   4
  -2   1  -6    9.17    1.74   5
   2  -1   6    6.76    1.75   1
  -2   1  -6    8.02    1.70   5
   2  -1   6    5.56    1.54   5
   2  -1   6    7.48    1.59   2
   2  -1   6    4.33    1.49   5
   3  -1   6   18.72    2.77   4
   3  -1   6   19.98    2.35   2
   3  -1   6   27.58    2.90   1
  -3   1  -6   24.95    2.69   5
  -3   1  -6   15.33    2.39   1
   3  -1   6   28.53    2.96   5
   3  -1   6   21.16    2.73   5
   4  -1   6    1.30    1.57   5
   4  -1   6    3.44    1.77   1
   4  -1   6    0.19    1.55   4
   4  -1   6    1.19    1.48   5
   4  -1   6    3.20    1.49   2
  -4   1  -6    1.94    1.68   1
  -5   1  -6   11.10    2.60   1
   5  -1   6    3.19    2.08   5
   5  -1   6    9.26    2.47   1
   5  -1   6    4.57    2.03   2
   6  -1   6    0.33    1.74   5
   6  -1   6    2.59    2.01   1
  -6   1  -6   -1.68    1.61   1
  -7   1  -6    0.87    1.94   1
   7  -1   6   -0.08    1.96   1
   8  -1   6   -0.44    2.16   1
  -8   1  -6    6.28    2.94   1
   7   0  -6   -0.64    2.26   1
  -7   0   6   -1.80    1.85   1
  -6   0   6   10.94    2.82   1
   6   0  -6   14.08    3.49   1
   5   0  -6    2.90    2.05   5
  -5   0   6   -0.33    1.56   1
   5   0  -6    1.32    2.06   1
  -5   0   6    0.87    1.91   3
   4   0  -6   40.43    3.81   2
   4   0  -6   41.34    4.07   5
  -4   0   6   42.43    3.93   1
   4   0  -6   46.63    4.27   1
  -4   0   6   46.39    2.64   4
  -3   0   6   35.30    3.35   1
  -3   0   6   31.88    2.90   2
   3   0  -6   34.84    3.21   2
  -3   0   6   28.95    2.36   4
   3   0  -6   33.43    3.19   2
   3   0  -6   37.90    3.68   5
   3   0  -6   40.43    3.68   5
   3   0  -6   41.15    3.70   1
  -2   0   6   33.60    3.05   5
  -2   0   6   32.21    2.46   4
  -2   0   6   34.16    2.86   2
  -2   0   6   34.87    2.70   2
   2   0  -6   32.53    2.88   2
  -2   0   6   23.97    2.55   5
   2   0  -6   32.71    3.16   1
  -2   0   6   35.60    3.13   1
   2   0  -6   34.40    3.16   5
   2   0  -6   29.24    2.96   5
   2   0  -6   36.86    2.90   2
  -1   0   6  176.00    6.36   4
   1   0  -6  185.40    6.62   2
   1   0  -6  205.83    7.23   5
   1   0  -6  191.89    6.86   1
  -1   0   6  181.58    6.79   5
  -1   0   6  184.49    6.94   5
  -1   0   6  192.54    6.46   2
  -1   0   6  196.23    6.70   2
   1   0  -6  177.53    6.49   2
   1   0  -6  189.50    7.08   5
  -1   0   6  188.43    6.81   1
   0   0   6    3.26    1.26   1
   0   0  -6    3.16    1.19   5
   0   0  -6    1.36    1.07   2
   0   0   6    2.70    1.17   5
   0   0   6    1.82    1.29   4
   0   0   6    3.35    1.38   5
   0   0  -6    2.15    1.23   1
   0   0  -6    1.23    1.18   5
   0   0   6    3.04    1.23   2
   1   0   6  155.05    6.12   4
   1   0   6  142.94    5.54   2
  -1   0  -6  165.56    6.07   1
   1   0   6  157.53    6.14   5
   1   0   6  151.39    5.96   5
   1   0   6  151.02    5.85   1
  -1   0  -6  157.70    6.15   5
  -1   0  -6  151.46    5.62   2
  -1   0  -6  160.50    6.15   5
   2   0   6   35.06    3.11   4
   2   0   6   41.59    3.05   5
   2   0   6   33.59    2.88   5
  -2   0  -6   39.21    2.78   2
  -2   0  -6   32.75    2.96   1
  -2   0  -6   35.54    2.83   5
   2   0   6   33.74    2.67   2
  -2   0  -6   32.11    2.87   5
   2   0   6   27.32    2.68   1
  -3   0  -6    1.05    1.21   1
  -3   0  -6    1.20    1.26   5
  -3   0  -6    5.10    1.53   5
   3   0   6    2.70    1.33   2
   3   0   6    3.58    1.46   5
  -3   0  -6    3.40    1.43   2
   3   0   6    3.53    1.47   1
   3   0   6    1.25    1.43   4
   3   0   6    1.75    1.23   5
  -4   0  -6    5.06    1.80   1
   4   0   6    7.67    1.99   5
   4   0   6    3.23    1.62   2
  -4   0  -6    4.04    1.59   5
   4   0   6    5.85    1.97   1
   4   0   6    3.16    1.64   5
  -4   0  -6    4.64    1.75   5
   5   0   6    3.76    1.73   5
   5   0   6    4.44    1.98   2
   5   0   6    4.03    1.80   1
  -5   0  -6    4.74    1.89   5
  -5   0  -6    5.12    2.08   1
   6   0   6    2.20    1.88   1
   6   0   6    1.12    1.74   5
  -6   0  -6   -0.42    1.63   1
   7   0   6    0.33    1.96   1
  -7   0  -6    1.23    1.84   1
  -8   0  -6   -1.81    1.73   1
   8   0   6   -0.07    2.13   1
  -7   1   6    0.84    2.17   1
   7  -1  -6    1.21    2.69   1
  -6   1   6    4.47    2.25   1
   6  -1  -6    0.17    1.89   1
  -5   1   6   -0.29    1.90   3
  -5   1   6   -1.38    1.46   1
   5  -1  -6    1.46    2.04   5
   5  -1  -6    0.30    1.93   1
   4  -1  -6    9.09    2.43   2
   4  -1  -6    6.89    2.28   5
   4  -1  -6    8.89    2.48   1
  -4   1   6    6.45    2.21   3
  -4   1   6    6.38    2.11   1
   3  -1  -6    7.87    1.84   2
  -3   1   6    8.68    1.28   4
  -3   1   6    9.56    2.08   1
   3  -1  -6    9.85    2.31   1
   3  -1  -6   10.50    2.28   5
   3  -1  -6    5.13    1.78   5
  -3   1   6    5.92    1.59   5
   3  -1  -6    7.14    1.92   2
   2  -1  -6   60.75    3.96   5
   2  -1  -6   53.03    3.76   5
   2  -1  -6   56.49    3.50   2
  -2   1   6   64.53    3.81   1
  -2   1   6   64.48    3.39   2
   2  -1  -6   58.96    3.70   2
  -2   1   6   60.93    3.00   4
   2  -1  -6   61.75    3.86   1
   1  -1  -6  103.10    4.76   5
   1  -1  -6  104.25    4.84   5
  -1   1   6  100.39    4.22   4
   1  -1  -6   96.06    4.38   2
   1  -1  -6  104.47    4.75   1
   1  -1  -6   98.51    4.45   2
  -1   1   6   96.75    4.19   2
  -1   1   6  105.60    4.83   5
  -1   1   6   99.70    4.59   1
   0   1   6  278.08    8.60   5
   0  -1  -6  283.86    8.79   5
   0   1   6  271.04    8.40   1
   0  -1  -6  279.25    8.46   1
   0  -1  -6  272.63    8.27   2
   0  -1  -6  291.16    8.82   5
   0   1   6  267.18    8.31   4
   0   1   6  278.52    8.09   2
   0  -1  -6  275.23    8.32   2
   0   1   6  264.98    7.90   2
  -1  -1  -6  111.53    4.82   5
   1   1   6  111.45    4.78   5
  -1  -1  -6  101.53    4.67   5
  -1  -1  -6  111.09    4.55   2
  -1  -1  -6  103.37    4.71   1
   1   1   6  104.88    4.76   4
   1   1   6  110.33    4.45   2
   1   1   6  100.25    4.28   2
   1   1   6  102.99    4.57   5
   1   1   6  104.96    4.61   1
  -2  -1  -6  217.22    7.57   5
  -2  -1  -6  232.99    7.72   5
  -2  -1  -6  217.23    7.49   1
   2   1   6  227.16    7.57   5
  -2  -1  -6  226.72    7.30   2
   2   1   6  222.23    7.56   5
   2   1   6  210.77    7.29   1
   2   1   6  207.46    7.66   4
  -3  -1  -6    3.11    1.47   1
  -3  -1  -6    0.07    1.02   5
  -3  -1  -6   -0.10    1.00   5
   3   1   6    0.13    1.12   5
   3   1   6   -0.90    0.91   1
   3   1   6    0.10    1.05   5
  -3  -1  -6    1.50    1.11   2
  -4  -1  -6   31.52    3.21   1
  -4  -1  -6   20.63    2.70   5
   4   1   6   25.34    2.86   5
  -4  -1  -6   25.90    2.87   5
   4   1   6   34.26    3.28   5
   4   1   6   26.15    3.01   1
  -4  -1  -6   29.95    2.83   2
   5   1   6    8.14    2.28   5
  -5  -1  -6   13.85    2.67   1
  -5  -1  -6   10.70    2.52   5
   5   1   6    9.79    2.35   5
   5   1   6    9.59    2.46   1
   6   1   6   -0.17    1.74   5
  -6  -1  -6    0.30    1.66   1
   6   1   6   -0.59    1.60   1
  -7  -1  -6   -0.94    1.55   1
   7   1   6   -0.72    1.72   1
  -8  -1  -6    0.79    1.93   1
   8   1   6    2.90    2.45   1
   9   1   6   -2.16    2.32   1
  -7   2   6    4.56    2.63   1
   6  -2  -6   -0.48    2.03   5
   6  -2  -6   -2.51    1.95   1
  -6   2   6    2.57    1.99   1
   5  -2  -6    7.54    2.57   1
  -5   2   6    0.94    1.68   1
  -5   2   6    3.58    2.35   3
   5  -2  -6    2.79    2.03   5
   4  -2  -6    8.97    2.39   2
  -4   2   6    7.59    2.01   1
  -4   2   6   10.00    2.44   3
   4  -2  -6    3.97    2.08   5
   4  -2  -6    6.24    2.16   1
   3  -2  -6   -0.23    1.44   1
   3  -2  -6    0.32    1.54   2
   3  -2  -6   -0.26    1.19   2
   3  -2  -6    0.08    1.18   5
  -3   2   6    5.09    1.72   1
   3  -2  -6    2.80    1.61   5
  -3   2   6    3.42    1.42   5
  -3   2   6    2.95    1.88   3
   2  -2  -6    4.24    1.59   1
  -2   2   6    2.74    1.30   1
   2  -2  -6    6.21    1.68   5
   2  -2  -6    4.44    1.60   5
   2  -2  -6    7.14    1.67   2
  -2   2   6    3.69    1.27   5
   2  -2  -6    2.72    1.50   2
  -1   2   6   -0.21    0.80   1
   1  -2  -6   -0.91    0.80   2
   1  -2  -6   -0.79    0.99   2
   1  -2  -6   -0.35    1.03   5
   1  -2  -6   -1.46    0.79   5
   1  -2  -6   -0.42    1.03   1
  -1   2   6   -0.88    0.76   5
   0  -2  -6   58.06    3.42   5
   0  -2  -6   58.61    3.20   2
   0   2   6   54.15    3.07   1
   0  -2  -6   60.06    3.18   2
   0  -2  -6   52.80    3.15   1
   0   2   6   58.30    3.27   5
   0   2   6   54.38    3.03   5
   0  -2  -6   56.13    3.30   5
  -1  -2  -6    3.32    1.39   1
   1   2   6    5.81    1.42   5
  -1  -2  -6    3.10    1.18   2
   1   2   6    3.66    1.09   2
   1   2   6    3.32    1.12   2
  -1  -2  -6    4.66    1.37   5
   1   2   6    5.68    1.44   1
   1   2   6    4.07    1.21   5
  -1  -2  -6    3.46    1.24   5
  -2  -2  -6  112.89    4.66   2
  -2  -2  -6  114.85    5.11   5
  -2  -2  -6  117.69    5.00   1
   2   2   6  114.37    4.87   5
  -2  -2  -6  119.54    5.13   5
   2   2   6  110.18    4.84   1
   2   2   6  123.34    4.57   2
   2   2   6  114.92    4.55   2
   3   2   6   26.43    2.54   5
   3   2   6   25.33    2.58   1
  -3  -2  -6   23.93    2.53   1
  -3  -2  -6   24.76    2.53   5
   3   2   6   21.66    2.24   2
  -3  -2  -6   22.37    2.58   5
  -3  -2  -6   22.26    2.27   2
  -4  -2  -6    5.22    1.71   5
   4   2   6    5.12    1.65   5
  -4  -2  -6    4.62    1.61   2
   4   2   6    5.42    1.66   5
   4   2   6    4.20    1.47   2
  -4  -2  -6    4.29    1.68   1
  -4  -2  -6   10.76    2.17   5
   4   2   6    4.23    1.59   1
  -5  -2  -6   12.36    2.55   1
  -5  -2  -6   12.36    2.48   5
   5   2   6   12.03    2.52   1
  -5  -2  -6   10.72    2.27   2
   5   2   6   12.79    2.49   5
  -5  -2  -6    7.56    1.98   2
   5   2   6    9.00    2.10   2
  -5  -2  -6   10.29    2.39   5
  -6  -2  -6    6.03    2.20   1
   6   2   6    4.85    2.06   1
  -6  -2  -6    3.78    2.08   5
  -7  -2  -6   -0.38    1.76   1
   7   2   6    0.08    1.88   1
  -8  -2  -6    3.64    2.29   1
  -9  -2  -6   -0.05    2.47   1
   9   2   6   -2.11    2.44   1
  -6   3   6   -0.04    1.91   1
   6  -3  -6    1.52    2.11   5
   5  -3  -6    1.23    1.78   5
  -5   3   6   -1.34    1.41   1
   5  -3  -6    0.51    1.83   2
  -5   3   6   -0.66    2.03   3
   5  -3  -6   -1.13    1.85   1
   4  -3  -6   12.53    2.72   5
   4  -3  -6   16.16    2.80   2
  -4   3   6   19.99    3.40   3
  -4   3   6   19.87    2.69   1
   4  -3  -6   26.00    3.30   1
  -3   3   6    5.41    2.25   3
   3  -3  -6    8.96    2.01   2
  -3   3   6    5.17    1.60   1
   3  -3  -6    9.68    2.15   1
   3  -3  -6    4.57    1.83   5
   3  -3  -6   10.95    2.29   5
   3  -3  -6    5.58    1.94   2
   2  -3  -6   48.11    3.38   2
   2  -3  -6   47.03    3.35   5
   2  -3  -6   39.02    3.10   1
  -2   3   6   54.13    3.01   5
  -2   3   6   47.79    4.06   3
  -2   3   6   47.01    3.07   1
   2  -3  -6   49.18    3.59   5
   2  -3  -6   42.43    3.22   2
  -1   3   6   28.32    2.07   5
   1  -3  -6   28.72    2.45   2
   1  -3  -6   33.40    2.47   2
   1  -3  -6   33.18    2.75   1
   1  -3  -6   33.53    2.68   5
  -1   3   6   28.98    2.30   1
  -1   3   6   21.19    2.77   3
   1  -3  -6   32.23    2.74   5
   0   3   6    6.38    1.32   1
   0  -3  -6    4.26    1.32   1
   0  -3  -6    5.09    1.20   2
   0  -3  -6    3.99    1.24   5
   0  -3  -6    4.09    1.32   2
   0   3   6    3.26    1.05   5
   0  -3  -6    4.58    1.28   5
  -1  -3  -6    1.38    0.95   5
   1   3   6    0.40    0.94   1
  -1  -3  -6   -1.46    0.84   2
   1   3   6    0.73    0.88   5
   1   3   6    0.40    0.86   5
  -1  -3  -6    0.06    0.98   1
  -1  -3  -6    0.04    0.87   5
  -1  -3  -6    0.73    0.81   2
   2   3   6   18.32    2.03   1
  -2  -3  -6   17.12    2.05   5
  -2  -3  -6   17.91    2.05   5
   2   3   6   18.83    1.93   5
  -2  -3  -6   17.44    1.92   2
  -2  -3  -6   25.01    2.37   1
   2   3   6   19.40    1.95   5
  -3  -3  -6   12.60    1.97   1
   3   3   6   11.28    1.80   5
   3   3   6   13.17    1.73   2
  -3  -3  -6   12.32    1.98   5
  -3  -3  -6    9.85    1.76   2
   3   3   6   12.55    1.88   5
   3   3   6   13.62    1.98   1
  -3  -3  -6   10.42    1.86   5
  -4  -3  -6   -0.61    1.11   5
   4   3   6    4.09    1.54   2
  -4  -3  -6    1.79    1.44   1
  -4  -3  -6    2.52    1.43   5
   4   3   6    2.63    1.38   1
  -4  -3  -6    3.18    1.45   2
  -5  -3  -6   11.00    2.45   1
   5   3   6   14.52    2.66   1
  -5  -3  -6   15.02    2.51   2
  -5  -3  -6   14.29    2.55   5
  -5  -3  -6   15.26    2.72   5
  -6  -3  -6    0.44    1.46   5
  -6  -3  -6   -0.06    1.63   1
   6   3   6    1.14    1.69   1
  -7  -3  -6    0.11    1.78   1
   7   3   6    1.66    1.94   1
   8   3   6    0.12    2.05   1
  -8  -3  -6    0.67    1.97   1
  -9  -3  -6   -0.94    2.31   1
   9   3   6    0.05    2.57   1
  -6   4   6    0.45    1.84   1
  -5   4   6    0.99    1.63   1
   5  -4  -6    0.54    1.81   5
   5  -4  -6   -0.37    1.92   2
  -5   4   6    3.95    2.60   3
  -4   4   6    8.18    2.00   1
   4  -4  -6    7.48    2.29   2
  -4   4   6    8.46    2.94   3
   4  -4  -6    1.93    1.70   5
   3  -4  -6   11.10    2.25   1
  -3   4   6   12.68    2.02   1
   3  -4  -6   11.85    2.37   5
   3  -4  -6   12.48    2.30   2
   3  -4  -6   10.60    2.35   2
  -3   4   6    9.74    2.66   3
   2  -4  -6    8.22    1.84   1
  -2   4   6    0.61    1.74   3
  -2   4   6    5.22    1.43   1
   2  -4  -6    5.45    1.47   2
   2  -4  -6    5.66    1.74   2
   2  -4  -6    5.15    1.62   5
   2  -4  -6    1.35    1.29   5
   1  -4  -6   52.25    3.26   1
   1  -4  -6   47.82    3.12   5
  -1   4   6   46.80    2.74   1
  -1   4   6   52.53    4.04   3
  -1   4   6   52.56    2.35   5
   1  -4  -6   47.04    3.10   5
   1  -4  -6   48.93    3.12   2
   1  -4  -6   48.79    2.98   2
   0  -4  -6    5.54    1.26   2
   0  -4  -6    7.87    1.45   5
   0  -4  -6    6.85    1.45   1
   0   4   6    7.15    1.30   1
   0  -4  -6    4.72    1.31   5
   0  -4  -6    7.79    1.50   2
   0   4   6    6.14    1.92   3
   0   4   6    6.48    0.98   5
  -1  -4  -6    8.88    1.54   1
   1   4   6    3.86    1.65   3
  -1  -4  -6    8.76    1.50   5
   1   4   6    6.67    1.29   1
  -1  -4  -6    8.94    1.39   2
  -1  -4  -6    6.01    1.23   2
   1   4   6    6.14    1.09   5
  -1  -4  -6    7.14    1.46   5
  -2  -4  -6   62.87    3.25   2
  -2  -4  -6   56.72    3.30   1
  -2  -4  -6   61.13    3.35   5
   2   4   6   58.25    2.96   5
  -2  -4  -6   57.12    3.35   5
   2   4   6   58.71    3.18   1
  -3  -4  -6   12.20    1.86   2
  -3  -4  -6   13.71    2.06   5
  -3  -4  -6   12.86    1.95   5
   3   4   6   11.23    1.69   5
   3   4   6   14.20    1.99   1
  -3  -4  -6   11.77    1.92   1
   4   4   6   17.68    2.21   5
  -4  -4  -6   17.67    2.41   2
   4   4   6   10.73    2.04   1
  -4  -4  -6   17.74    2.49   1
  -4  -4  -6   16.50    2.51   5
  -4  -4  -6   15.21    2.41   5
  -5  -4  -6   33.63    3.51   1
  -5  -4  -6   34.04    3.26   2
   5   4   6   34.29    3.27   5
  -5  -4  -6   27.41    3.27   5
  -5  -4  -6   33.05    3.44   5
   5   4   6   34.38    3.45   1
  -6  -4  -6   -0.32    1.64   1
  -6  -4  -6   -0.23    1.58   2
   6   4   6   -1.42    1.31   1
  -6  -4  -6   -1.71    1.48   5
  -7  -4  -6   10.37    2.79   1
   7   4   6    6.75    2.67   1
   8   4   6    2.89    2.46   1
  -8  -4  -6   -0.79    1.69   1
   9   4   6    0.59    2.56   1
  -9  -4  -6    1.34    2.27   1
   5  -5  -6   -1.01    1.99   2
  -5   5   6    0.06    1.50   1
   5  -5  -6   -0.93    1.71   5
   4  -5  -6   -0.76    1.53   2
  -4   5   6    2.35    2.55   3
   4  -5  -6    3.35    1.92   5
  -4   5   6    0.47    1.27   1
  -3   5   6    5.20    1.47   1
  -3   5   6    2.81    2.22   3
   3  -5  -6    2.67    1.71   5
   3  -5  -6    2.14    1.44   2
   3  -5  -6    2.75    1.70   2
  -2   5   6    2.41    1.05   1
   2  -5  -6   -0.27    1.03   5
   2  -5  -6    0.41    1.18   2
   2  -5  -6    0.54    1.22   5
   2  -5  -6    1.37    1.43   2
  -2   5   6   -2.84    1.53   3
   1  -5  -6   25.69    2.41   1
   1  -5  -6   18.70    2.14   5
   1  -5  -6   20.27    2.14   5
  -1   5   6   18.48    2.99   3
   1  -5  -6   19.31    1.96   2
  -1   5   6   18.92    1.62   1
   1  -5  -6   16.40    2.01   2
   0   5   6   22.68    3.04   3
   0  -5  -6   30.07    2.33   1
   0   5   6   22.41    1.66   1
   0  -5  -6   22.24    2.10   5
   0  -5  -6   28.27    2.28   5
   0  -5  -6   25.72    2.07   2
   0  -5  -6   23.31    1.92   2
  -1  -5  -6    3.23    1.12   5
  -1  -5  -6    3.39    1.21   1
  -1  -5  -6    5.94    1.29   5
   1   5   6    2.81    0.95   1
   1   5   6    1.18    1.53   3
  -1  -5  -6    3.00    1.08   2
  -1  -5  -6    4.42    1.12   2
  -2  -5  -6   78.64    3.63   2
  -2  -5  -6   73.77    3.74   5
  -2  -5  -6   77.38    3.83   1
  -2  -5  -6   79.38    3.91   5
   2   5   6   80.94    3.43   1
   2   5   6   69.10    4.21   3
   2   5   6   77.62    2.79   5
   2   5   6   80.58    3.46   1
   3   5   6   14.15    1.59   5
  -3  -5  -6   12.76    1.94   5
   3   5   6   12.67    2.06   3
  -3  -5  -6   16.25    2.08   1
  -3  -5  -6   13.14    1.91   2
  -3  -5  -6   17.63    2.14   5
   3   5   6   11.99    1.78   1
   4   5   6   21.53    2.26   5
  -4  -5  -6   19.90    2.59   5
  -4  -5  -6   17.47    2.37   2
  -4  -5  -6   18.32    2.51   1
   4   5   6   20.70    2.33   3
  -4  -5  -6   16.42    2.43   5
   4   5   6   22.15    2.47   1
   5   5   6   20.57    2.21   3
   5   5   6   16.90    2.55   1
   5   5   6   19.19    2.53   5
  -5  -5  -6   17.00    2.76   1
  -5  -5  -6   17.07    2.73   5
  -5  -5  -6   12.31    2.46   5
  -5  -5  -6   15.95    2.57   2
  -6  -5  -6   -0.99    1.55   1
  -6  -5  -6    0.89    1.87   5
   6   5   6    2.74    1.81   1
  -6  -5  -6    0.09    1.49   2
   7   5   6    0.54    1.85   1
  -7  -5  -6    3.81    2.20   5
  -7  -5  -6    3.55    2.12   1
   8   5   6    2.05    2.27   1
  -8  -5  -6   -1.47    1.46   1
  -9  -5  -6    1.11    2.25   1
   9   5   6    0.75    2.51   1
   5  -6  -6    3.37    2.32   2
   4  -6  -6   -1.64    1.47   5
  -4   6   6    1.04    1.22   1
   4  -6  -6    0.00    1.78   2
   3  -6  -6    2.06    1.57   5
  -3   6   6    1.06    0.88   1
   3  -6  -6    0.00    1.39   2
   3  -6  -6    1.66    1.56   2
  -3   6   6    2.50    2.35   3
   2  -6  -6    0.98    1.11   2
   2  -6  -6    0.96    1.26   5
  -2   6   6   -0.35    0.59   1
   2  -6  -6   -1.92    1.00   5
   2  -6  -6    0.72    1.23   2
  -2   6   6   -1.37    1.80   3
   1  -6  -6    7.68    1.58   2
  -1   6   6    6.16    2.46   3
   1  -6  -6    8.05    1.61   5
   1  -6  -6    7.53    1.58   5
   1  -6  -6    4.48    1.27   2
   0  -6  -6   18.75    1.93   5
   0   6   6   24.00    3.25   3
   0  -6  -6   17.81    1.79   2
   0  -6  -6   19.10    1.95   5
   0  -6  -6   16.46    1.62   2
  -1  -6  -6    6.23    1.23   2
  -1  -6  -6    5.18    1.15   2
  -1  -6  -6    5.04    1.31   1
   1   6   6    3.45    1.88   3
  -1  -6  -6    6.10    1.25   5
  -1  -6  -6    4.90    1.23   5
  -2  -6  -6   47.96    3.05   1
   2   6   6   46.63    2.24   1
  -2  -6  -6   45.33    2.89   5
   2   6   6   42.61    3.62   3
  -2  -6  -6   46.54    2.74   2
  -2  -6  -6   47.63    2.95   5
   3   6   6    1.04    1.40   3
  -3  -6  -6    0.61    1.16   1
  -3  -6  -6   -0.77    1.02   5
  -3  -6  -6    1.18    1.07   5
  -3  -6  -6    1.05    1.10   2
   3   6   6    1.13    0.94   1
  -4  -6  -6    3.28    1.54   5
  -4  -6  -6    4.09    1.55   5
  -4  -6  -6    2.80    1.49   1
   4   6   6    3.90    1.58   3
  -4  -6  -6    5.74    1.76   2
  -5  -6  -6    2.18    1.65   2
   5   6   6   -0.91    1.28   1
  -5  -6  -6   -0.03    1.47   1
   5   6   6    3.95    1.47   3
  -5  -6  -6   -0.18    1.34   5
  -6  -6  -6   15.10    3.07   5
  -6  -6  -6   16.09    3.00   1
  -6  -6  -6   11.91    2.76   2
   6   6   6   17.06    2.88   1
   7   6   6   -0.80    1.76   1
  -7  -6  -6    3.89    2.14   5
  -7  -6  -6    0.94    1.88   1
  -8  -6  -6   12.61    3.37   1
   8   6   6   22.24    3.99   1
   9   6   6    4.05    3.00   1
  -9  -6  -6    2.80    2.56   1
   4  -7  -6    2.92    2.13   2
   3  -7  -6   -0.18    1.40   5
   3  -7  -6   -1.38    1.43   2
   2  -7  -6    5.95    1.72   2
   2  -7  -6    6.26    1.62   2
  -2   7   6    3.01    2.48   3
   2  -7  -6    5.96    1.68   5
   1  -7  -6    5.06    1.44   5
  -1   7   6    3.75    2.32   3
   1  -7  -6    0.89    1.11   5
   1  -7  -6    5.19    1.40   2
   1  -7  -6    6.90    1.33   2
   0  -7  -6    1.96    0.95   2
   0  -7  -6    3.09    1.19   5
   0  -7  -6    1.21    1.00   2
   0  -7  -6    0.75    0.97   5
   0   7   6    2.78    2.04   3
  -1  -7  -6   -0.14    0.84   5
  -1  -7  -6    1.49    0.87   2
   1   7   6    2.46    2.04   3
  -1  -7  -6   -0.94    0.85   2
  -1  -7  -6    0.45    0.84   5
  -2  -7  -6   20.59    2.06   5
  -2  -7  -6   20.40    2.06   5
  -2  -7  -6   20.98    1.90   2
   2   7   6   21.80    3.19   3
   3   7   6   16.24    2.77   3
   3   7   6   17.40    1.52   1
  -3  -7  -6   17.26    2.12   5
  -3  -7  -6   22.72    2.27   2
  -3  -7  -6   23.58    2.38   5
   4   7   6   26.07    2.28   1
   4   7   6   23.35    2.90   3
  -4  -7  -6   21.15    2.68   5
  -4  -7  -6   20.13    2.54   1
  -4  -7  -6   22.39    2.54   2
  -4  -7  -6   21.95    2.66   5
  -5  -7  -6   18.85    2.76   1
  -5  -7  -6   18.15    2.73   2
   5   7   6   15.22    2.32   3
  -5  -7  -6   12.60    2.57   5
   5   7   6   18.24    2.42   1
  -6  -7  -6   10.71    2.67   1
  -6  -7  -6    9.77    2.71   5
  -6  -7  -6   11.35    2.63   2
   6   7   6    8.90    2.26   1
  -7  -7  -6    2.75    1.92   1
   7   7   6    3.58    2.23   1
  -7  -7  -6    1.99    1.99   5
  -8  -7  -6    7.01    2.90   1
   8   7   6    3.08    2.45   1
  -9  -7  -6   -0.06    2.19   1
   9   7   6   -2.03    2.15   1
   4  -8  -6   -2.55    1.63   2
   3  -8  -6    3.48    1.86   2
   2  -8  -6    1.94    1.38   5
   2  -8  -6    2.14    1.48   2
   2  -8  -6    2.64    1.31   2
   1  -8  -6   14.15    1.79   2
  -1   8   6   13.90    3.54   3
   1  -8  -6   12.07    1.68   2
   1  -8  -6   15.65    1.92   5
   1  -8  -6   14.65    1.96   5
   0  -8  -6    8.77    1.26   2
   0   8   6    9.73    2.80   3
   0  -8  -6   11.47    1.53   5
   0  -8  -6    8.42    1.28   2
   0  -8  -6   11.85    1.61   5
   1   8   6    3.67    2.15   3
  -1  -8  -6    5.81    1.28   5
  -1  -8  -6    4.47    1.11   2
  -1  -8  -6    2.88    1.04   5
  -1  -8  -6    3.92    1.01   2
  -2  -8  -6   14.91    1.67   2
  -2  -8  -6   11.54    1.60   5
  -2  -8  -6   17.52    1.91   5
   2   8   6   15.78    3.15   3
  -3  -8  -6    7.14    1.50   2
   3   8   6    5.06    2.29   3
  -3  -8  -6    3.78    1.36   5
  -3  -8  -6    7.70    1.70   5
   4   8   6    2.87    1.02   1
  -4  -8  -6    2.90    1.52   2
  -4  -8  -6    4.75    1.62   5
   4   8   6    2.30    1.79   3
   5   8   6   17.46    2.14   1
  -5  -8  -6   13.08    2.42   2
  -5  -8  -6   14.14    2.61   5
   6   8   6    2.90    1.64   1
  -6  -8  -6    2.85    1.89   5
  -6  -8  -6    4.48    1.94   2
  -7  -8  -6    2.97    2.04   5
   7   8   6    0.63    1.80   1
  -8  -8  -6    3.08    2.53   5
   8   8   6    1.18    2.10   1
   2  -9  -6    1.03    1.37   2
   2  -9  -6    2.35    1.47   2
   1  -9  -6    1.65    1.19   2
   1  -9  -6    4.01    1.21   2
   1  -9  -6    3.31    1.32   5
   0  -9  -6   -0.22    0.80   2
   0  -9  -6    0.58    1.00   5
   0  -9  -6    0.87    0.91   5
   0  -9  -6    0.43    0.94   2
  -1  -9  -6    1.23    0.82   2
  -1  -9  -6    1.24    1.01   5
  -1  -9  -6    1.53    0.89   5
  -1  -9  -6    2.66    0.95   2
  -2  -9  -6   -2.00    0.82   5
  -2  -9  -6   -0.24    0.96   2
  -2  -9  -6    0.85    0.94   5
  -3  -9  -6    2.96    1.22   5
  -3  -9  -6    3.91    1.44   5
  -3  -9  -6    0.55    1.12   2
  -4  -9  -6    3.71    1.54   5
  -4  -9  -6    3.12    1.43   2
  -5  -9  -6    8.89    2.32   5
   5   9   6    7.93    1.39   1
   6   9   6    5.69    1.81   1
  -6  -9  -6    9.52    2.64   2
  -6  -9  -6    6.95    2.40   5
  -7  -9  -6   -0.05    2.05   2
  -7  -9  -6    0.42    2.02   5
   7   9   6   -0.54    1.50   1
   8   9   6    2.64    2.13   1
   2 -10  -6    0.22    1.43   2
   1 -10  -6    0.37    1.16   2
   1 -10  -6    0.70    1.01   2
   0 -10  -6    0.49    0.98   5
   0 -10  -6    0.71    0.80   2
   0 -10  -6    0.14    0.86   2
  -1 -10  -6    0.40    0.80   2
  -1 -10  -6    0.61    0.81   2
  -1 -10  -6   -0.27    0.73   5
  -1 -10  -6   -0.04    0.93   5
  -2 -10  -6    2.49    1.20   5
  -2 -10  -6    3.09    1.11   5
  -2 -10  -6    2.39    1.02   2
  -3 -10  -6    2.34    1.30   5
  -3 -10  -6    3.77    1.38   2
  -4 -10  -6    0.68    1.30   2
  -4 -10  -6    2.88    1.54   5
  -5 -10  -6    1.40    1.65   5
  -6 -10  -6   -1.49    1.65   2
   7  10   6    0.53    1.62   1
  -7 -10  -6    1.16    2.34   2
   0 -11  -6    0.87    0.93   2
  -1 -11  -6   -0.15    0.89   5
  -2 -11  -6    4.72    1.36   5
  -2 -11  -6    2.90    1.13   2
  -3 -11  -6    2.23    1.32   2
  -4 -11  -6    4.45    1.73   2
  -6 -11  -6    0.69    1.94   2
  -2 -12  -6    3.29    1.27   2
  -3 -12  -6    0.15    1.22   2
  -4 -12  -6    2.18    1.64   2
  -3  -9   7   -1.05    2.44   4
   3   9  -7   -0.83    1.80   1
  -2  -9   7   -1.00    2.33   4
   2   9  -7   -1.04    1.68   1
   1   9  -7    1.78    1.72   1
  -1  -9   7    3.78    3.01   4
   0  -9   7    1.67    2.61   4
   4   8  -7   -1.80    1.71   1
  -4  -8   7   -1.10    2.42   4
  -3  -8   7   -1.82    1.88   5
   3   8  -7   -1.15    1.67   1
  -3  -8   7    0.67    2.55   4
  -2  -8   7   -1.42    1.74   5
  -2  -8   7    0.27    2.42   4
   2   8  -7    1.18    1.70   1
  -1  -8   7    0.48    1.82   2
   1   8  -7   -0.61    1.41   1
  -1  -8   7   -0.09    2.26   4
  -1  -8   7    0.44    1.74   5
   0   8  -7    1.15    1.60   1
   0  -8   7    0.70    2.15   4
   0  -8   7    1.53    1.98   2
   1  -8   7   -1.00    1.88   2
   1  -8   7    0.51    2.24   4
  -1   8  -7    1.11    1.55   1
  -2   8  -7   -0.30    1.52   1
   2  -8   7   -0.23    2.35   4
   2  -8   7    3.75    2.31   2
  -5  -7   7    3.91    2.97   4
   5   7  -7    2.34    2.17   1
  -5  -7   7    0.96    2.40   1
  -4  -7   7   -1.72    2.02   5
   4   7  -7   -0.15    1.91   1
  -4  -7   7    0.37    2.23   4
  -3  -7   7   -1.55    1.80   5
   3   7  -7    3.46    2.01   1
  -3  -7   7    2.39    2.49   4
  -2  -7   7    3.99    2.17   2
  -2  -7   7   -0.18    1.70   5
  -2  -7   7    0.22    2.09   4
   2   7  -7    0.49    1.75   1
  -1  -7   7    0.48    2.08   4
   1   7  -7    1.33    1.65   1
  -1  -7   7    1.47    1.72   2
  -1  -7   7    2.71    1.81   5
   0   7  -7    5.45    1.89   1
   0  -7   7    3.36    2.03   2
   0  -7   7    5.95    2.19   5
   0  -7   7    6.14    2.71   4
   1  -7   7    3.42    2.11   2
  -1   7  -7    1.49    1.47   1
   1  -7   7    3.10    2.20   4
   1  -7   7    1.81    1.86   5
   2  -7   7   -0.61    1.64   2
   2  -7   7    1.35    1.79   5
  -2   7  -7    1.13    1.54   1
   2  -7   7    5.07    2.74   4
  -3   7  -7   -0.90    1.61   1
   3  -7   7    0.31    2.34   4
   4  -7   7   -3.14    2.43   4
  -6  -6   7   -3.15    1.99   1
  -6  -6   7   -1.47    2.40   4
   6   6  -7   -2.01    1.88   1
   5   6  -7    2.43    2.10   1
  -5  -6   7   -1.86    1.97   1
  -5  -6   7   -1.22    2.03   4
  -4  -6   7    5.05    2.40   1
   4   6  -7    0.85    1.87   1
  -4  -6   7    1.03    2.19   4
  -4  -6   7    3.59    2.51   5
  -3  -6   7    9.05    2.93   4
  -3  -6   7    6.43    2.45   1
   3   6  -7    3.53    1.95   1
  -3  -6   7    6.34    2.56   5
   2   6  -7    9.26    2.48   1
  -2  -6   7   18.08    3.26   5
  -2  -6   7   14.15    2.90   1
  -2  -6   7   18.05    3.09   2
  -2  -6   7   16.93    3.67   4
   1   6  -7    2.14    1.69   1
  -1  -6   7    2.92    2.35   4
  -1  -6   7    3.37    1.90   2
  -1  -6   7   -1.06    1.50   5
  -1  -6   7    3.30    1.92   1
   0  -6   7   18.30    2.91   2
   0  -6   7   14.75    2.82   1
   0   6  -7   16.47    2.69   1
   0  -6   7   14.66    3.42   4
   0  -6   7   19.36    3.09   5
  -1   6  -7   -1.40    1.19   1
   1  -6   7    1.78    2.10   4
   1  -6   7   -0.68    1.51   2
   1  -6   7    1.61    1.72   5
   2  -6   7    3.20    1.81   5
  -2   6  -7    0.49    1.51   1
   2  -6   7    1.11    2.02   4
   2  -6   7   -0.34    1.44   2
   3  -6   7   -1.04    1.57   5
   3  -6   7    6.16    2.74   4
  -3   6  -7   -0.48    1.50   1
   3  -6   7    2.11    2.03   2
   4  -6   7   -0.09    2.05   5
   4  -6   7    3.47    2.72   4
  -4   6  -7   -1.05    1.66   1
  -5   6  -7   -0.55    1.78   1
   5  -6   7   -4.70    2.24   4
  -6  -5   7    0.31    2.27   4
  -6  -5   7    1.95    2.65   1
   6   5  -7    1.73    2.56   1
  -5  -5   7   -0.37    2.01   4
  -5  -5   7   -1.93    1.47   1
   5   5  -7   -1.02    1.62   1
  -4  -5   7    4.28    2.33   4
   4   5  -7   -1.93    1.55   1
  -4  -5   7   -0.72    1.83   1
  -3  -5   7   -0.99    1.75   4
   3   5  -7   -0.34    1.58   1
  -3  -5   7    1.84    1.64   1
  -3  -5   7   -1.62    1.59   5
  -2  -5   7   -0.50    1.46   2
  -2  -5   7    3.31    1.87   1
   2   5  -7    2.12    1.67   1
  -2  -5   7    0.12    1.77   4
  -2  -5   7    3.20    1.95   5
  -1  -5   7    3.48    1.83   1
  -1  -5   7    1.22    1.55   2
  -1  -5   7   -0.34    1.47   5
  -1  -5   7   -1.77    1.35   4
   1   5  -7    2.83    1.65   1
   0  -5   7    6.58    2.38   4
   0  -5   7    5.59    2.06   2
   0   5  -7    5.55    1.97   1
   0  -5   7    4.95    2.05   5
   0  -5   7    8.42    2.23   1
   1  -5   7   11.08    2.42   2
   1  -5   7   18.25    2.82   1
  -1   5  -7   11.38    2.45   1
   1  -5   7   17.86    3.45   4
   1  -5   7   17.81    2.96   5
   2  -5   7   -0.01    1.82   4
   2  -5   7   -0.55    1.35   2
   2  -5   7   -0.39    1.54   1
  -2   5  -7    1.53    1.61   1
   2  -5   7    1.99    1.66   5
   3  -5   7    7.97    3.08   4
  -3   5  -7    8.39    2.29   1
   3  -5   7    8.74    2.38   2
   3  -5   7    5.20    2.17   5
   4  -5   7    0.00    1.82   5
   4  -5   7    3.40    2.46   4
  -4   5  -7    6.36    2.25   1
  -5   5  -7    2.83    2.12   1
   5  -5   7    0.26    2.51   4
   5  -5   7    0.77    2.01   5
   7   4  -7   -0.72    2.25   1
   6   4  -7   -2.47    1.76   1
  -6  -4   7    1.65    2.38   1
  -5  -4   7    1.08    1.84   4
   5   4  -7    2.07    2.11   1
  -5  -4   7    2.26    2.29   1
   4   4  -7    0.64    1.60   1
  -4  -4   7    0.70    1.82   1
  -4  -4   7    0.15    1.72   4
  -3  -4   7    8.13    2.52   1
   3   4  -7    5.75    2.20   1
  -3  -4   7    8.64    2.49   5
  -3  -4   7    5.06    2.09   4
  -2  -4   7    5.23    1.99   2
  -2  -4   7    1.45    1.78   5
  -2  -4   7    5.34    2.01   1
  -2  -4   7    8.21    2.46   4
   2   4  -7    4.82    1.92   1
  -1  -4   7    0.02    1.33   1
  -1  -4   7   -0.40    1.31   2
   1   4  -7    0.63    1.39   1
  -1  -4   7   -2.05    1.19   5
  -1  -4   7   -1.03    1.61   4
   0   4  -7   13.34    2.49   1
   0  -4   7   16.16    2.79   1
   0  -4   7   13.10    2.40   2
   0  -4   7   14.59    2.93   4
   0  -4   7   18.94    2.89   5
  -1   4  -7    4.99    1.90   1
   1  -4   7    3.79    1.77   2
   1  -4   7    6.03    2.09   5
   1  -4   7    2.46    2.00   4
   1  -4   7    3.47    1.79   1
   2  -4   7   -0.09    1.38   2
   2  -4   7   -0.67    1.24   5
   2  -4   7    1.06    1.61   1
  -2   4  -7    0.84    1.47   1
   2  -4   7    1.71    1.76   4
   3  -4   7    3.69    2.10   4
   3  -4   7    4.16    1.90   5
  -3   4  -7    2.56    1.74   1
   3  -4   7    2.11    1.72   2
   3  -4   7   -0.32    1.39   1
   4  -4   7    0.81    1.96   4
   4  -4   7    2.13    1.90   1
   4  -4   7   -0.78    1.51   5
  -4   4  -7   -0.07    1.55   1
   4  -4   7    0.55    1.71   2
   5  -4   7   -0.06    2.16   4
   5  -4   7    0.69    1.87   5
  -5   4  -7    1.26    2.00   1
  -6   4  -7    1.88    2.12   1
   7   3  -7    3.30    2.76   1
  -7  -3   7   -2.26    1.87   1
  -6  -3   7    4.51    2.68   1
   6   3  -7    3.62    2.63   1
  -5  -3   7   12.73    2.66   4
  -5  -3   7   14.24    3.30   1
   5   3  -7   13.74    3.32   1
  -4  -3   7    0.30    1.73   1
   4   3  -7    2.18    1.97   1
  -4  -3   7    2.90    2.00   4
  -3  -3   7   40.96    4.20   1
  -3  -3   7   36.28    3.92   5
   3   3  -7   35.22    3.84   1
  -3  -3   7   45.19    4.01   4
   2   3  -7    1.97    1.63   1
  -2  -3   7   -0.87    1.28   1
  -2  -3   7    0.88    1.35   5
  -2  -3   7    1.52    1.53   2
  -2  -3   7    2.00    1.80   4
  -1  -3   7   20.78    2.91   1
  -1  -3   7   16.64    2.43   2
   1   3  -7   11.93    2.40   1
  -1  -3   7   17.38    2.69   5
  -1  -3   7   16.43    2.58   2
  -1  -3   7   10.17    2.42   4
  -1  -3   7    9.74    2.36   5
   0   3  -7   11.79    2.31   1
   0  -3   7   11.79    2.43   1
   0  -3   7   11.75    2.33   5
   0  -3   7    8.67    2.13   5
   0  -3   7   13.67    2.71   4
   0  -3   7    7.75    1.88   2
   0  -3   7   12.39    2.20   2
   0   3  -7    9.84    2.03   5
   1  -3   7    0.16    1.19   2
   1  -3   7    1.26    1.39   5
   1  -3   7    0.39    1.49   4
   1  -3   7   -0.18    1.12   5
   1  -3   7    4.29    1.67   1
  -1   3  -7    0.44    1.22   5
  -1   3  -7    0.51    1.37   1
   2  -3   7   -0.01    1.47   4
  -2   3  -7    0.30    1.22   5
   2  -3   7    0.93    1.46   5
  -2   3  -7   -0.82    1.35   1
   2  -3   7    2.88    1.66   1
   2  -3   7   -1.42    1.17   2
  -3   3  -7    2.87    1.74   1
   3  -3   7    5.36    2.39   4
   3  -3   7    2.68    1.79   1
   3  -3   7    1.16    1.54   2
   3  -3   7    3.41    1.70   5
   4  -3   7    3.64    2.30   4
   4  -3   7    2.82    1.81   5
   4  -3   7    3.05    1.85   2
   4  -3   7    3.80    1.92   1
  -4   3  -7    0.51    1.55   1
  -5   3  -7   -0.70    1.61   1
   5  -3   7   -0.34    1.71   5
   5  -3   7   -2.50    1.80   4
   5  -3   7   -1.30    1.62   1
  -6   3  -7   -0.29    1.73   1
   6  -3   7   -0.64    2.00   1
  -7   3  -7   -1.03    2.07   1
  -7  -2   7    0.31    2.42   1
   7   2  -7    0.86    2.53   1
  -6  -2   7   -2.55    1.78   1
   6   2  -7   -1.52    1.91   1
   5   2  -7    1.48    2.10   1
  -5  -2   7   -1.12    1.78   1
   4   2  -7   -1.47    1.59   1
  -4  -2   7    0.69    1.40   4
  -4  -2   7   -0.13    1.58   1
  -3  -2   7    2.29    1.62   5
  -3  -2   7    2.81    1.63   4
  -3  -2   7    2.80    1.87   1
   3   2  -7   -0.80    1.59   1
   3   2  -7   -0.37    1.34   5
  -2  -2   7   15.94    2.47   4
  -2  -2   7   12.73    2.56   1
  -2  -2   7    7.17    2.33   5
  -2  -2   7   10.56    2.18   2
   2   2  -7   16.29    2.44   2
  -2  -2   7   15.15    2.59   5
   2   2  -7   13.68    2.46   5
  -2  -2   7   15.52    2.52   2
   2   2  -7   14.05    2.61   1
  -1  -2   7   14.32    2.31   2
   1   2  -7   11.21    2.16   1
  -1  -2   7    9.16    2.17   1
  -1  -2   7   10.29    2.00   2
   1   2  -7   11.00    2.16   5
  -1  -2   7    9.75    2.19   4
  -1  -2   7   12.53    2.31   5
   1   2  -7    8.55    2.02   5
  -1  -2   7   14.93    2.54   5
   0  -2   7   27.59    3.20   4
   0  -2   7   23.23    2.87   1
   0  -2   7   20.61    2.69   5
   0  -2   7   24.45    2.65   2
   0   2  -7   27.32    3.01   1
   0   2  -7   22.44    2.62   5
   0  -2   7   24.49    2.61   2
   0  -2   7   30.33    3.20   5
  -1   2  -7   91.12    4.98   1
   1  -2   7   82.98    4.91   5
   1  -2   7   82.35    5.11   4
   1  -2   7   93.36    4.88   2
   1  -2   7   85.60    4.93   5
   1  -2   7   83.02    4.70   1
   1  -2   7   93.03    4.71   2
  -2   2  -7    0.79    1.50   1
   2  -2   7    3.49    1.69   1
   2  -2   7   -0.35    1.45   4
   2  -2   7    0.08    1.17   5
   2  -2   7    2.19    1.41   5
   2  -2   7   -0.14    1.23   2
   3  -2   7   83.55    4.97   2
   3  -2   7   93.09    5.59   5
  -3   2  -7   95.75    5.38   1
   3  -2   7   86.78    5.27   1
  -3   2  -7   94.51    5.30   5
   3  -2   7   90.37    5.64   4
   4  -2   7    2.06    1.76   2
   4  -2   7    6.12    2.46   4
   4  -2   7    4.83    2.04   1
   4  -2   7    1.96    1.84   5
  -4   2  -7    5.40    2.07   1
  -5   2  -7   22.46    3.46   1
   5  -2   7   26.13    3.71   1
   5  -2   7   21.49    3.51   5
   5  -2   7   24.02    3.88   4
   6  -2   7    0.74    2.07   5
   6  -2   7   -0.87    1.75   1
  -6   2  -7    1.35    1.94   1
   7  -2   7    2.24    2.68   1
  -7   2  -7    0.62    2.10   1
  -7  -1   7    1.18    2.44   1
   7   1  -7   -1.20    2.45   1
   6   1  -7    1.76    2.26   1
  -6  -1   7   -0.87    1.73   1
  -5  -1   7    1.56    1.84   1
   5   1  -7   -0.52    1.86   1
  -4  -1   7    2.53    1.91   1
  -4  -1   7   -1.03    1.22   4
   4   1  -7    0.92    1.62   1
   4   1  -7    0.61    1.82   5
  -3  -1   7    3.29    1.85   1
   3   1  -7    6.22    1.96   2
   3   1  -7    7.39    2.51   1
   3   1  -7    8.07    2.36   5
   3   1  -7    3.94    2.04   5
  -3  -1   7    4.82    1.87   5
  -3  -1   7    7.44    1.84   4
  -2  -1   7   26.35    3.22   5
   2   1  -7   26.68    3.11   1
  -2  -1   7   29.60    3.08   5
  -2  -1   7   23.62    2.99   1
   2   1  -7   30.25    3.36   5
   2   1  -7   25.91    3.00   5
   2   1  -7   28.32    2.92   2
  -2  -1   7   31.44    2.92   4
  -1  -1   7    2.77    1.59   2
  -1  -1   7    4.92    1.60   5
   1   1  -7    1.25    1.40   1
  -1  -1   7    2.14    1.63   5
   1   1  -7   -0.65    0.93   5
   1   1  -7    4.17    1.56   5
  -1  -1   7   -0.31    1.26   4
   1   1  -7    1.09    1.28   2
  -1  -1   7    3.55    1.63   1
   0  -1   7   76.82    4.18   2
   0   1  -7   83.25    4.71   5
   0   1  -7   80.44    4.49   5
   0  -1   7   74.32    4.52   4
   0   1  -7   87.56    4.63   1
   0  -1   7   85.31    4.80   5
   0   1  -7   80.15    4.27   2
   0  -1   7   80.09    4.52   1
   0  -1   7   74.88    4.33   2
   0  -1   7   78.20    4.47   5
  -1   1  -7    0.32    0.99   5
   1  -1   7    0.98    1.14   2
  -1   1  -7    1.21    1.06   2
  -1   1  -7   -0.34    1.10   5
   1  -1   7    0.25    1.13   2
   1  -1   7   -0.32    1.17   4
  -1   1  -7   -0.28    1.10   1
   1  -1   7   -0.56    0.95   5
   1  -1   7    1.31    1.24   1
   1  -1   7   -0.45    1.14   5
  -2   1  -7   14.06    2.37   5
   2  -1   7   16.13    2.48   1
   2  -1   7   13.22    2.31   5
   2  -1   7   11.70    2.23   5
   2  -1   7   15.68    2.68   4
  -2   1  -7   12.62    2.30   1
  -2   1  -7   14.26    2.25   5
   2  -1   7   17.28    2.23   2
   3  -1   7    9.78    2.10   2
   3  -1   7    5.36    1.80   5
   3  -1   7    7.40    2.00   5
   3  -1   7    6.81    2.15   4
  -3   1  -7    6.61    2.00   1
   3  -1   7    5.55    1.85   1
   4  -1   7    5.73    1.95   2
   4  -1   7    2.75    1.89   4
  -4   1  -7    3.88    2.09   1
   4  -1   7    4.58    1.97   5
   4  -1   7    6.04    2.16   1
   5  -1   7   42.65    4.40   5
  -5   1  -7   25.35    3.56   1
   5  -1   7   42.57    4.32   1
   6  -1   7   12.65    3.03   1
  -6   1  -7    9.86    2.94   1
  -7   1  -7   29.57    4.31   1
   7  -1   7   21.38    4.19   1
  -8   1  -7    3.06    2.57   1
   8  -1   7    4.31    3.08   1
  -7   0   7    1.37    2.31   1
   7   0  -7    0.72    2.71   1
  -6   0   7    4.37    2.52   1
   6   0  -7    5.70    2.90   1
   5   0  -7    2.55    2.32   1
  -5   0   7   -0.12    1.60   1
  -5   0   7    0.23    2.16   3
  -4   0   7    2.78    1.78   1
  -4   0   7    5.90    1.54   4
   4   0  -7    6.56    2.30   1
   4   0  -7    8.34    2.46   5
   3   0  -7   11.89    2.63   5
  -3   0   7   13.02    2.53   1
   3   0  -7   12.31    2.40   2
  -3   0   7   13.21    1.97   4
   3   0  -7   13.43    2.77   1
   2   0  -7    2.72    1.52   2
  -2   0   7    0.96    1.28   1
  -2   0   7    1.47    1.20   5
  -2   0   7   -0.34    1.02   2
   2   0  -7    1.53    1.58   1
   2   0  -7    3.63    1.55   5
   2   0  -7    0.36    1.09   2
   2   0  -7   -0.05    1.37   5
  -2   0   7    1.01    1.29   4
   1   0  -7   -0.56    1.18   1
  -1   0   7   -0.66    1.01   5
  -1   0   7    0.04    1.27   5
  -1   0   7   -0.01    1.16   4
   1   0  -7    2.34    1.35   5
  -1   0   7   -0.13    1.14   1
  -1   0   7    0.19    0.97   2
   1   0  -7    1.45    1.25   5
   1   0  -7    1.03    1.14   2
   1   0  -7    0.42    1.12   2
   0   0   7   21.04    2.56   4
   0   0  -7   27.06    2.80   1
   0   0  -7   34.69    3.08   5
   0   0  -7   25.20    2.61   5
   0   0   7   25.15    2.77   5
   0   0   7   19.21    2.36   2
   0   0   7   23.57    2.61   1
   0   0   7   23.59    2.57   5
   0   0  -7   21.39    2.34   2
  -1   0  -7   41.48    3.24   5
  -1   0  -7   38.81    3.13   5
   1   0   7   38.29    3.13   5
  -1   0  -7   40.26    3.09   2
   1   0   7   41.08    3.19   5
   1   0   7   46.13    3.12   2
  -1   0  -7   40.36    3.21   1
   1   0   7   41.22    3.33   1
   1   0   7   43.87    3.50   4
  -2   0  -7    7.56    1.82   5
   2   0   7    9.67    1.93   5
  -2   0  -7   10.48    2.12   1
  -2   0  -7   11.83    2.09   5
   2   0   7    5.47    1.84   4
  -2   0  -7    6.95    1.71   2
   2   0   7   10.81    2.13   5
   2   0   7   10.95    2.19   1
   3   0   7   52.62    4.06   4
  -3   0  -7   58.55    4.13   1
   3   0   7   57.20    3.93   1
   3   0   7   49.53    3.85   5
   3   0   7   57.59    3.73   2
  -3   0  -7   57.41    3.96   5
  -3   0  -7   50.32    3.84   5
   3   0   7   55.81    4.00   5
   4   0   7   -2.35    1.13   1
   4   0   7   -0.63    1.25   5
   4   0   7    3.03    1.66   2
   4   0   7    1.74    1.63   5
  -4   0  -7   -0.74    1.07   5
  -4   0  -7    0.50    1.42   1
   5   0   7    8.31    2.34   5
  -5   0  -7   14.76    2.94   1
   5   0   7    9.83    2.59   1
   6   0   7    2.24    1.87   1
  -6   0  -7    0.87    1.92   1
  -7   0  -7    2.98    2.45   1
   7   0   7    4.48    2.58   1
  -8   0  -7    4.80    2.83   1
   8   0   7    6.96    3.09   1
  -6   1   7   -0.13    1.79   1
   6  -1  -7    0.58    2.39   1
   5  -1  -7    3.00    2.32   5
  -5   1   7    5.11    2.35   3
  -5   1   7    2.53    2.01   1
   5  -1  -7   -1.32    2.05   1
  -4   1   7    1.48    1.66   1
   4  -1  -7   -1.70    1.43   5
  -4   1   7    0.48    1.78   3
   4  -1  -7    2.08    1.95   1
   4  -1  -7   -0.34    1.57   2
   3  -1  -7   17.03    2.93   1
  -3   1   7   16.16    2.68   1
  -3   1   7   17.45    1.91   4
   3  -1  -7   17.88    2.93   5
   3  -1  -7   15.04    2.78   2
   2  -1  -7    9.67    2.23   5
  -2   1   7    5.18    1.49   4
   2  -1  -7    9.30    1.96   2
   2  -1  -7    7.19    1.85   2
  -2   1   7    6.89    1.62   2
  -2   1   7    7.44    1.92   1
   2  -1  -7    4.41    1.85   1
   2  -1  -7    7.19    1.98   5
   1  -1  -7    1.15    1.15   5
  -1   1   7    0.28    1.07   4
  -1   1   7    1.13    1.27   5
   1  -1  -7   -0.82    0.86   2
   1  -1  -7   -0.37    1.09   2
   1  -1  -7    0.79    1.24   1
  -1   1   7   -0.19    1.02   1
  -1   1   7    0.15    0.98   2
   1  -1  -7   -0.14    1.06   5
   0   1   7    7.11    1.77   4
   0  -1  -7    7.93    1.77   5
   0   1   7    7.21    1.75   5
   0   1   7    9.34    1.91   1
   0  -1  -7    6.91    1.71   1
   0  -1  -7    5.90    1.60   5
   0  -1  -7    6.48    1.54   2
   0   1   7    7.90    1.53   2
   0  -1  -7    8.58    1.75   2
   1   1   7  123.78    5.53   4
  -1  -1  -7  118.98    5.13   2
  -1  -1  -7  118.61    5.52   5
  -1  -1  -7  126.85    5.59   5
   1   1   7  125.94    5.42   5
  -1  -1  -7  110.23    5.30   1
   1   1   7  123.76    5.05   2
   1   1   7  128.53    5.11   2
   1   1   7  116.83    5.27   1
   1   1   7  120.07    5.29   5
  -2  -1  -7    5.61    1.63   5
  -2  -1  -7    3.39    1.49   1
   2   1   7    4.88    1.52   5
   2   1   7    4.15    1.55   5
   2   1   7    3.70    1.27   2
  -2  -1  -7    1.71    1.17   2
   2   1   7    4.73    1.47   2
   2   1   7    2.59    1.34   1
  -2  -1  -7    4.18    1.45   5
   2   1   7    1.30    1.36   4
  -3  -1  -7  125.09    6.10   5
   3   1   7  126.61    6.03   5
  -3  -1  -7  135.82    6.12   1
   3   1   7  127.16    5.92   1
   3   1   7  122.18    5.89   5
  -3  -1  -7  127.07    5.64   2
  -3  -1  -7  122.59    5.93   5
  -4  -1  -7   21.45    2.94   5
  -4  -1  -7   28.58    3.30   1
   4   1   7   25.99    3.18   1
  -4  -1  -7   28.21    3.19   5
  -4  -1  -7   25.75    2.84   2
   4   1   7   25.29    3.15   5
   4   1   7   23.09    2.93   5
  -5  -1  -7   18.12    3.07   1
  -5  -1  -7   11.61    2.60   5
   5   1   7   20.89    3.19   5
   5   1   7   10.02    2.51   1
   6   1   7   16.14    3.22   1
  -6  -1  -7   11.03    2.99   1
  -7  -1  -7    0.36    2.04   1
   7   1   7   -1.10    1.84   1
  -8  -1  -7    0.92    2.37   1
   8   1   7    1.82    2.32   1
   6  -2  -7   -0.43    2.17   1
  -6   2   7    0.65    1.79   1
  -5   2   7    0.62    2.22   3
  -5   2   7    1.13    1.68   1
   5  -2  -7    3.33    2.19   1
   5  -2  -7    3.85    2.28   5
   4  -2  -7    3.48    2.07   1
   4  -2  -7    1.13    1.89   5
  -4   2   7    2.45    1.74   1
   4  -2  -7    2.41    2.17   2
  -4   2   7    1.22    1.88   3
  -3   2   7   13.28    2.90   3
   3  -2  -7   23.71    3.04   2
   3  -2  -7   30.43    3.47   5
   3  -2  -7   21.34    3.04   1
  -3   2   7   23.84    2.90   1
  -2   2   7   27.02    2.68   5
   2  -2  -7   27.60    2.82   2
   2  -2  -7   27.25    3.04   5
   2  -2  -7   26.85    2.99   2
   2  -2  -7   31.37    3.24   1
  -2   2   7   26.22    2.80   1
   2  -2  -7   29.05    3.10   5
   1  -2  -7   24.56    2.47   2
   1  -2  -7   28.43    2.76   5
   1  -2  -7   29.49    2.77   2
  -1   2   7   27.58    2.52   5
   1  -2  -7   28.75    2.86   1
   1  -2  -7   25.30    2.75   5
  -1   2   7   25.24    2.57   1
   0  -2  -7   19.73    2.22   2
   0   2   7   17.00    2.12   1
   0  -2  -7   17.24    2.22   5
   0  -2  -7   14.43    2.15   1
   0  -2  -7   17.94    2.24   5
   0   2   7   14.33    1.90   5
   0  -2  -7   15.68    1.99   2
   1   2   7   -0.41    0.96   1
   1   2   7    1.59    1.11   5
   1   2   7   -0.75    0.84   2
  -1  -2  -7   -0.80    0.94   5
  -1  -2  -7   -0.80    0.91   5
   1   2   7   -0.96    0.77   5
  -1  -2  -7    1.85    1.19   1
  -1  -2  -7   -0.52    0.78   2
  -2  -2  -7    8.68    1.88   1
   2   2   7    9.39    1.89   1
  -2  -2  -7    7.98    1.64   2
  -2  -2  -7   12.25    2.07   5
   2   2   7   12.28    1.99   5
  -2  -2  -7   12.27    2.05   5
   2   2   7    7.64    1.57   2
  -3  -2  -7    2.32    1.40   1
   3   2   7    2.16    1.33   5
   3   2   7    3.36    1.41   1
  -3  -2  -7    2.34    1.30   5
  -3  -2  -7    0.96    1.27   5
  -3  -2  -7    1.86    1.30   2
   3   2   7   -1.22    1.03   5
   3   2   7    3.00    1.36   2
  -4  -2  -7   40.27    3.38   2
  -4  -2  -7   43.93    3.81   1
   4   2   7   39.51    3.33   2
   4   2   7   41.99    3.72   5
   4   2   7   44.54    3.81   1
  -4  -2  -7   47.97    3.84   5
  -4  -2  -7   42.64    3.89   5
   4   2   7   39.88    3.55   5
  -5  -2  -7    1.51    1.63   1
  -5  -2  -7    1.07    1.51   5
   5   2   7    3.03    1.69   1
   5   2   7    1.28    1.70   5
  -5  -2  -7    1.96    1.59   5
   6   2   7   16.22    3.08   1
  -6  -2  -7   18.27    3.37   1
   7   2   7    6.34    2.46   1
  -7  -2  -7    3.69    2.48   1
  -8  -2  -7    6.57    2.86   1
   8   2   7    2.32    2.37   1
   9   2   7   -1.14    2.62   1
  -6   3   7    0.11    2.00   1
  -5   3   7    1.66    2.54   3
   5  -3  -7    2.48    2.12   5
  -5   3   7    2.28    1.91   1
  -4   3   7   -1.04    1.36   1
   4  -3  -7   -0.85    1.57   5
   4  -3  -7    2.85    1.89   2
  -4   3   7    0.43    1.93   3
   4  -3  -7   -1.68    1.50   1
   3  -3  -7    4.44    1.97   1
  -3   3   7    8.76    2.01   1
   3  -3  -7    5.79    2.10   5
   3  -3  -7    9.55    2.43   2
  -3   3   7   12.14    2.97   3
   2  -3  -7   25.28    2.88   5
   2  -3  -7   23.06    2.81   1
   2  -3  -7   22.52    2.60   2
  -2   3   7   24.52    2.66   1
   2  -3  -7   24.23    2.78   2
  -2   3   7   23.28    2.30   5
  -2   3   7   20.64    3.25   3
   2  -3  -7   18.89    2.64   5
   1  -3  -7    8.59    1.87   2
   1  -3  -7    6.95    1.84   1
  -1   3   7    7.36    1.41   5
   1  -3  -7    6.47    1.59   2
   1  -3  -7    5.82    1.66   5
  -1   3   7    6.34    1.66   1
   1  -3  -7    6.60    1.83   5
   0   3   7   51.67    2.99   5
   0   3   7   51.48    3.14   1
   0  -3  -7   49.10    3.39   5
   0  -3  -7   50.62    3.16   2
   0  -3  -7   48.95    3.26   1
   0  -3  -7   46.11    3.32   5
   0  -3  -7   43.53    3.10   2
   1   3   7    0.05    0.86   5
  -1  -3  -7    1.61    1.32   1
  -1  -3  -7    1.52    1.12   5
  -1  -3  -7   -1.10    0.85   2
   1   3   7   -0.78    0.92   1
  -1  -3  -7    1.41    1.11   5
  -2  -3  -7    1.88    1.17   2
  -2  -3  -7    0.98    1.11   5
  -2  -3  -7    1.54    1.20   5
  -2  -3  -7   -0.42    1.08   1
   2   3   7    2.24    1.15   5
   2   3   7    1.06    1.09   1
  -3  -3  -7    6.47    1.59   2
  -3  -3  -7    4.28    1.73   1
   3   3   7    6.83    1.65   5
   3   3   7    6.74    1.61   2
  -3  -3  -7    5.53    1.76   5
  -3  -3  -7    4.33    1.52   5
   3   3   7    5.76    1.68   1
  -4  -3  -7   10.73    2.18   1
   4   3   7    7.39    1.85   2
   4   3   7    9.14    2.15   1
  -4  -3  -7   10.98    2.27   5
  -4  -3  -7   10.33    2.12   2
  -4  -3  -7    8.79    2.10   5
   5   3   7    1.55    1.65   1
  -5  -3  -7    3.71    1.82   5
  -5  -3  -7    0.60    1.58   1
  -6  -3  -7    5.48    2.33   5
   6   3   7    5.91    2.23   1
  -6  -3  -7    5.50    2.33   1
  -7  -3  -7    5.20    2.52   1
   7   3   7    4.99    2.48   1
   8   3   7    5.50    2.63   1
  -8  -3  -7    1.43    2.19   1
  -9  -3  -7    0.13    2.34   1
   9   3   7    0.11    2.60   1
  -6   4   7    3.93    2.23   1
  -5   4   7    1.90    1.76   1
   5  -4  -7    1.10    2.13   5
  -4   4   7   10.54    2.29   1
   4  -4  -7    5.37    2.30   5
   4  -4  -7    9.24    2.64   2
  -4   4   7   10.71    3.06   3
   3  -4  -7    3.24    1.82   1
   3  -4  -7    3.89    1.79   5
  -3   4   7    3.34    2.25   3
  -3   4   7    6.52    1.83   1
   3  -4  -7    1.39    1.74   2
  -2   4   7    3.72    1.44   1
  -2   4   7    2.55    2.07   3
   2  -4  -7   -0.38    1.23   5
   2  -4  -7    1.23    1.49   2
   2  -4  -7    2.42    1.53   1
   2  -4  -7    2.20    1.32   2
   1  -4  -7    1.33    1.38   5
  -1   4   7   -0.36    0.97   1
   1  -4  -7    2.17    1.35   1
   1  -4  -7    1.51    1.19   2
   1  -4  -7   -1.29    1.11   2
  -1   4   7   -0.34    1.57   3
   1  -4  -7    2.41    1.40   5
   0   4   7    4.60    1.11   5
   0  -4  -7    3.99    1.50   1
   0  -4  -7    3.22    1.37   2
   0  -4  -7    2.11    1.19   5
   0   4   7    2.62    1.75   3
   0  -4  -7    2.93    1.29   5
   0   4   7    2.16    1.18   1
   0  -4  -7    1.71    1.11   2
  -1  -4  -7   37.99    2.92   5
   1   4   7   35.16    2.61   1
  -1  -4  -7   36.33    2.80   5
   1   4   7   37.17    2.44   5
  -1  -4  -7   38.67    2.83   2
  -1  -4  -7   36.93    2.67   2
  -1  -4  -7   40.01    2.94   1
  -2  -4  -7    1.83    1.34   1
   2   4   7    0.32    0.97   1
  -2  -4  -7    1.58    1.17   5
  -2  -4  -7    1.17    1.07   2
   2   4   7   -0.02    0.92   5
  -2  -4  -7    1.74    1.24   5
  -3  -4  -7   59.56    3.78   5
  -3  -4  -7   59.91    3.96   5
   3   4   7   57.07    3.57   1
  -3  -4  -7   56.93    3.72   1
  -3  -4  -7   66.94    3.87   2
   3   4   7   59.56    3.59   5
   4   4   7    8.67    1.97   5
  -4  -4  -7    6.65    1.92   5
  -4  -4  -7   10.58    2.09   2
   4   4   7   12.65    2.29   1
  -4  -4  -7   10.98    2.19   5
  -4  -4  -7   11.70    2.25   1
   5   4   7   11.54    2.45   1
  -5  -4  -7    8.91    2.36   5
  -5  -4  -7    7.18    2.21   1
  -6  -4  -7    2.07    1.76   5
  -6  -4  -7    1.28    1.93   1
   6   4   7    3.11    1.97   1
  -7  -4  -7    0.30    1.96   1
   7   4   7   -0.25    1.63   1
   8   4   7    0.93    2.18   1
  -8  -4  -7    4.50    2.56   1
   9   4   7   -0.12    2.51   1
  -9  -4  -7    0.25    2.19   1
  -5   5   7   -1.79    1.62   1
   4  -5  -7    5.65    2.43   2
   4  -5  -7   10.48    2.72   5
  -4   5   7   10.09    2.14   1
  -3   5   7    2.93    2.45   3
   3  -5  -7    1.70    1.60   5
  -3   5   7   -0.22    1.20   1
   3  -5  -7   -0.93    1.50   2
  -2   5   7   65.52    5.40   3
  -2   5   7   60.03    3.35   1
   2  -5  -7   67.98    4.19   2
   2  -5  -7   76.28    4.35   2
   2  -5  -7   70.77    4.38   5
   1  -5  -7    0.61    1.39   5
   1  -5  -7    3.96    1.54   2
  -1   5   7    3.84    2.22   3
   1  -5  -7    3.93    1.44   2
   1  -5  -7    3.95    1.52   5
  -1   5   7    3.09    1.23   1
   1  -5  -7    7.86    1.79   1
   0  -5  -7  197.29    6.65   2
   0   5   7  182.02    8.18   3
   0  -5  -7  190.64    6.70   1
   0  -5  -7  203.96    6.64   2
   0   5   7  195.50    6.06   1
   0  -5  -7  190.55    7.02   5
   0  -5  -7  200.27    7.09   5
  -1  -5  -7   48.25    3.17   5
  -1  -5  -7   46.36    3.01   2
  -1  -5  -7   51.91    3.27   5
   1   5   7   59.02    4.39   3
  -1  -5  -7   55.06    3.18   2
   1   5   7   49.32    2.73   1
  -1  -5  -7   48.22    3.17   1
   2   5   7  132.86    5.11   1
  -2  -5  -7  134.03    5.41   2
  -2  -5  -7  147.32    5.89   5
  -2  -5  -7  138.80    5.79   5
   2   5   7  142.39    6.54   3
  -2  -5  -7  137.97    5.64   1
   3   5   7   60.26    3.30   5
  -3  -5  -7   63.47    3.78   2
   3   5   7   64.46    4.23   3
  -3  -5  -7   56.73    3.76   1
  -3  -5  -7   61.22    3.89   5
  -3  -5  -7   57.01    3.76   5
   3   5   7   54.13    3.38   1
   4   5   7   41.97    3.26   1
   4   5   7   29.92    3.02   3
  -4  -5  -7   38.45    3.45   1
   4   5   7   36.49    2.90   5
  -4  -5  -7   28.89    3.18   5
  -4  -5  -7   37.12    3.25   2
  -4  -5  -7   33.73    3.29   5
   5   5   7   13.19    2.54   1
  -5  -5  -7   10.35    2.46   1
  -5  -5  -7   11.99    2.50   5
   5   5   7   17.83    2.37   3
   6   5   7   17.01    3.01   1
  -6  -5  -7   20.15    3.38   1
  -6  -5  -7   12.64    3.08   5
  -7  -5  -7   -1.03    1.57   1
  -7  -5  -7    1.21    2.00   5
   7   5   7    0.47    2.05   1
  -8  -5  -7    3.61    2.50   1
   8   5   7    9.97    3.22   1
  -9  -5  -7    0.20    2.28   1
   9   5   7    1.51    2.58   1
  -4   6   7    2.67    1.43   1
   4  -6  -7    1.72    2.02   2
   3  -6  -7    0.46    1.51   5
   3  -6  -7    2.31    1.83   2
  -3   6   7    2.87    1.23   1
  -2   6   7    8.44    1.29   1
   2  -6  -7   11.86    2.19   2
   2  -6  -7    9.88    2.16   5
   2  -6  -7    9.41    1.98   2
  -2   6   7    9.23    2.91   3
   1  -6  -7    1.72    1.32   2
  -1   6   7    2.90    2.14   3
   1  -6  -7    0.96    1.36   5
  -1   6   7    0.52    0.78   1
   1  -6  -7   -0.35    1.12   5
   1  -6  -7    0.30    1.09   2
   0   6   7   33.82    1.90   1
   0  -6  -7   35.00    2.62   2
   0   6   7   35.72    3.94   3
   0  -6  -7   39.18    2.89   2
   0  -6  -7   38.10    2.90   5
   1   6   7    3.81    1.03   1
  -1  -6  -7    3.47    1.29   5
  -1  -6  -7    5.63    1.39   2
  -1  -6  -7    3.86    1.39   2
  -1  -6  -7    0.52    1.32   1
  -1  -6  -7    0.35    1.04   5
   1   6   7    2.78    1.87   3
  -2  -6  -7  192.38    7.03   5
   2   6   7  198.68    5.96   1
  -2  -6  -7  189.99    6.52   2
   2   6   7  194.32    8.17   3
  -2  -6  -7  190.57    6.82   1
  -2  -6  -7  192.33    6.99   5
  -3  -6  -7    2.86    1.54   1
  -3  -6  -7   -0.43    1.18   5
  -3  -6  -7    1.24    1.30   2
   3   6   7    3.53    1.40   1
   3   6   7    3.48    1.91   3
  -3  -6  -7    2.22    1.37   5
   4   6   7  329.81   10.15   1
   4   6   7  332.45   10.83   3
  -4  -6  -7  350.75   11.54   5
  -4  -6  -7  344.71   10.95   1
  -4  -6  -7  342.31   11.19   5
  -4  -6  -7  350.33   10.78   2
  -5  -6  -7   -0.81    1.16   5
   5   6   7   -1.66    1.20   1
  -5  -6  -7   -0.39    1.35   1
   5   6   7    0.80    1.46   3
   6   6   7  189.01    8.08   1
  -6  -6  -7  195.18    9.22   5
  -6  -6  -7  183.57    8.54   1
  -7  -6  -7    6.96    2.65   5
   7   6   7    4.46    2.27   1
  -7  -6  -7    3.00    2.18   1
  -8  -6  -7   41.72    5.12   1
   8   6   7   46.25    5.13   1
   9   6   7    4.12    2.68   1
  -9  -6  -7    1.45    2.28   1
   4  -7  -7    0.06    1.99   2
   3  -7  -7    3.96    2.03   2
   2  -7  -7   10.34    2.13   5
   2  -7  -7    7.10    1.90   2
   2  -7  -7   11.11    2.13   2
   1  -7  -7    3.85    1.61   2
  -1   7   7    5.90    2.49   3
   1  -7  -7    6.99    1.76   5
   1  -7  -7    6.21    1.54   2
   0  -7  -7   39.03    2.75   2
   0   7   7   49.39    4.75   3
   0  -7  -7   49.68    3.27   5
   0  -7  -7   39.09    2.85   2
   1   7   7    1.99    1.88   3
  -1  -7  -7   -0.69    0.85   5
  -1  -7  -7    0.34    1.03   2
  -1  -7  -7   -0.09    0.96   5
  -1  -7  -7    1.74    1.08   2
   2   7   7   44.15    1.73   1
  -2  -7  -7   55.82    3.37   5
   2   7   7   37.50    3.98   3
  -2  -7  -7   48.97    3.09   2
  -2  -7  -7   49.88    3.25   5
   3   7   7    2.98    1.86   3
  -3  -7  -7    2.14    1.30   5
   3   7   7    1.88    1.07   1
  -3  -7  -7    5.41    1.64   5
  -3  -7  -7    3.75    1.49   2
  -4  -7  -7   14.76    2.41   5
   4   7   7   14.25    2.69   3
   4   7   7   20.68    2.23   1
  -4  -7  -7   19.51    2.59   2
   5   7   7    8.55    2.02   1
  -5  -7  -7    9.89    2.39   1
   5   7   7    9.99    2.33   3
  -5  -7  -7    8.87    2.42   5
  -6  -7  -7   16.41    3.05   1
  -6  -7  -7    9.62    2.58   5
   6   7   7   15.27    2.80   1
  -7  -7  -7    4.77    2.61   5
  -7  -7  -7    8.14    2.69   1
   7   7   7    6.27    2.52   1
   8   7   7   17.17    3.71   1
  -8  -7  -7   20.08    3.91   1
   3  -8  -7   -1.61    1.63   2
   2  -8  -7    7.34    1.96   2
   2  -8  -7    6.45    1.89   2
   1  -8  -7    0.61    1.17   5
   1  -8  -7    2.08    1.39   2
   1  -8  -7    0.07    1.07   2
   0  -8  -7   17.71    1.97   2
   0   8   7   17.33    3.51   3
   0  -8  -7   17.74    1.92   2
   0  -8  -7   17.95    2.12   5
  -1  -8  -7   10.79    1.60   2
   1   8   7   20.99    3.69   3
  -1  -8  -7   15.51    1.78   2
  -1  -8  -7   13.24    1.73   5
  -1  -8  -7   17.38    2.04   5
  -2  -8  -7    6.35    1.48   2
  -2  -8  -7    8.59    1.68   5
  -2  -8  -7    7.14    1.56   5
   2   8   7    6.84    2.40   3
  -3  -8  -7   18.66    2.27   2
  -3  -8  -7   18.24    2.29   5
  -3  -8  -7   18.03    2.36   5
   3   8   7   14.96    2.98   3
  -4  -8  -7    0.88    1.33   5
   4   8   7   -1.84    1.47   3
  -4  -8  -7    0.75    1.46   2
   4   8   7    0.50    1.06   1
  -5  -8  -7    2.44    1.66   5
   5   8   7    4.06    1.64   1
   5   8   7    3.02    1.84   3
   6   8   7    2.71    1.78   1
  -6  -8  -7    2.54    2.06   5
   7   8   7   -0.45    1.79   1
  -7  -8  -7   -0.71    1.77   5
   8   8   7   -0.20    1.92   1
   2  -9  -7    0.30    1.46   2
   1  -9  -7    1.09    1.16   2
   1  -9  -7    0.27    1.22   2
   0  -9  -7    0.04    0.96   2
   0  -9  -7    0.24    1.13   2
   0  -9  -7    1.01    1.00   5
  -1  -9  -7    6.13    1.32   2
  -1  -9  -7    2.84    1.34   5
   1   9   7    5.87    2.72   3
  -1  -9  -7    8.04    1.46   2
  -1  -9  -7    5.60    1.34   5
  -2  -9  -7    2.27    1.29   2
  -2  -9  -7    1.56    1.25   5
   2   9   7    1.81    2.10   3
  -2  -9  -7    3.72    1.25   5
  -3  -9  -7    4.71    1.58   2
   3   9   7    7.84    2.74   3
  -3  -9  -7    9.83    1.85   5
   4   9   7   15.73    3.12   3
  -4  -9  -7   12.91    2.34   5
  -4  -9  -7   14.41    2.30   2
  -5  -9  -7    0.92    1.52   5
   5   9   7    1.27    1.16   1
  -6  -9  -7    9.37    2.63   5
   6   9   7   13.50    2.17   1
   7   9   7    1.36    1.71   1
  -7  -9  -7   -1.36    1.70   5
   8   9   7    1.61    2.12   1
   1 -10  -7    1.26    1.23   2
   0 -10  -7   -0.63    1.05   2
   0 -10  -7    0.38    1.07   2
  -1 -10  -7    2.82    1.16   2
  -1 -10  -7    3.40    1.20   2
  -2 -10  -7    3.11    1.23   5
  -2 -10  -7   -1.08    1.04   2
  -3 -10  -7    4.84    1.53   5
  -3 -10  -7    6.01    1.64   2
  -4 -10  -7    3.37    1.75   2
  -4 -10  -7    5.31    1.92   5
   7  10   7   -0.33    1.55   1
   0 -11  -7    1.04    1.19   2
  -1 -11  -7    0.62    1.12   2
  -2 -11  -7    1.63    1.24   2
  -3 -11  -7    0.81    1.37   2
  -4 -11  -7    1.47    1.59   2
  -6 -11  -7   -2.91    1.81   2
  -3 -12  -7    0.24    1.39   2
   3   8  -8    0.21    2.07   1
  -3  -8   8    2.79    2.95   4
   2   8  -8    3.83    2.21   1
  -2  -8   8    1.02    2.65   4
  -1  -8   8    0.71    2.56   4
   1   8  -8    1.16    1.87   1
   0   8  -8   -0.85    1.69   1
   0  -8   8    2.08    2.83   4
   1  -8   8   -2.53    2.35   4
  -1   8  -8    0.20    1.76   1
  -4  -7   8   -1.21    2.32   4
   4   7  -8   -0.89    1.99   1
   3   7  -8   -1.07    1.75   1
  -3  -7   8   -1.85    2.28   4
   2   7  -8    5.46    2.31   1
  -2  -7   8    3.26    2.64   4
  -2  -7   8    4.05    2.44   5
   1   7  -8    0.62    1.88   1
  -1  -7   8    1.89    2.03   5
  -1  -7   8    4.24    2.72   4
   0  -7   8    0.07    1.83   5
   0   7  -8    1.72    1.76   1
   0  -7   8    1.44    2.47   4
  -1   7  -8    2.37    1.80   1
   1  -7   8   -0.33    1.91   4
   1  -7   8    0.89    1.91   5
  -2   7  -8   -0.89    1.63   1
   2  -7   8    3.73    2.73   4
   3  -7   8    1.21    2.58   4
  -3   7  -8   -0.37    1.84   1
   5   6  -8    0.76    2.30   1
  -5  -6   8    1.06    2.32   1
  -5  -6   8    4.27    2.98   4
  -4  -6   8    1.51    2.16   1
   4   6  -8    2.28    2.13   1
  -4  -6   8    1.74    2.29   4
   3   6  -8    0.95    1.89   1
  -3  -6   8   -1.03    2.03   4
  -3  -6   8   -1.29    1.82   5
  -3  -6   8    2.38    2.16   1
   2   6  -8    1.23    1.84   1
  -2  -6   8    2.52    2.38   4
  -2  -6   8   -0.26    1.94   1
  -2  -6   8   -2.25    1.54   5
  -1  -6   8    4.14    2.64   4
  -1  -6   8   -0.41    1.74   1
   1   6  -8    1.53    1.84   1
  -1  -6   8    2.24    1.94   5
   0   6  -8   -0.44    1.47   1
   0  -6   8    2.47    1.94   5
   0  -6   8   -1.14    1.62   2
   0  -6   8    4.69    2.42   4
   1  -6   8    4.59    2.55   4
   1  -6   8    3.73    2.14   5
   1  -6   8    0.36    1.88   2
  -1   6  -8    2.47    1.84   1
  -2   6  -8    5.13    2.13   1
   2  -6   8    5.90    2.73   4
   2  -6   8    5.61    2.30   5
  -3   6  -8   -2.26    1.47   1
   3  -6   8    0.68    2.00   5
   3  -6   8   -0.96    2.18   4
  -4   6  -8    0.77    1.92   1
   4  -6   8    0.63    2.65   4
  -6  -5   8    1.41    2.52   1
   6   5  -8    2.44    2.43   1
   5   5  -8   -1.05    1.70   1
  -5  -5   8   -2.19    1.92   4
  -5  -5   8    1.29    2.23   1
  -4  -5   8    3.68    2.49   1
  -4  -5   8    7.13    2.84   4
   4   5  -8    4.32    2.26   1
  -3  -5   8    0.09    1.81   1
  -3  -5   8   -0.37    1.69   4
  -3  -5   8    0.30    1.98   5
   3   5  -8    2.27    1.92   1
  -2  -5   8    2.83    2.11   5
   2   5  -8    3.63    2.03   1
  -2  -5   8   11.74    3.19   4
  -2  -5   8    9.01    2.70   1
  -1  -5   8    4.87    2.13   5
  -1  -5   8    2.98    2.17   4
   1   5  -8    5.95    2.10   1
  -1  -5   8   -1.13    1.59   1
   0   5  -8    1.40    1.75   1
   0  -5   8    0.88    1.78   2
   0  -5   8    1.08    1.63   5
   0  -5   8    0.13    1.66   4
   0  -5   8   -0.75    1.48   1
   1  -5   8    2.78    1.86   5
  -1   5  -8    4.47    1.92   1
   1  -5   8    4.45    2.07   2
   1  -5   8    6.37    2.25   1
   1  -5   8    5.04    2.45   4
   2  -5   8    5.27    2.13   2
  -2   5  -8    6.45    2.22   1
   2  -5   8    6.24    2.25   1
   2  -5   8    7.56    2.61   4
   2  -5   8    2.72    1.96   5
   3  -5   8   -0.82    1.93   4
  -3   5  -8   -1.00    1.56   1
   3  -5   8   -0.86    1.59   5
   4  -5   8    0.85    2.06   5
   4  -5   8    1.33    2.51   4
  -4   5  -8   -1.28    1.76   1
   5  -5   8   -0.52    2.39   5
   5  -5   8   -0.77    2.57   4
  -5   5  -8   -0.60    1.99   1
   6   4  -8    0.78    2.56   1
  -6  -4   8   -0.44    1.98   1
  -5  -4   8   -2.86    1.46   1
  -5  -4   8    3.30    2.27   4
   5   4  -8    4.13    2.48   1
   4   4  -8    6.59    2.75   1
  -4  -4   8    4.12    2.31   1
  -4  -4   8    7.65    2.62   4
  -3  -4   8    4.62    2.19   4
   3   4  -8    4.12    2.04   1
  -3  -4   8    5.38    2.34   1
  -2  -4   8    3.46    1.93   1
  -2  -4   8    7.55    2.49   5
   2   4  -8   12.02    2.67   1
  -2  -4   8    5.93    2.42   4
  -1  -4   8   10.82    2.46   5
  -1  -4   8   18.50    2.95   2
  -1  -4   8   13.85    3.08   4
   1   4  -8   20.55    3.18   1
  -1  -4   8   13.73    2.85   1
   0  -4   8   -1.70    1.27   5
   0  -4   8   -1.01    1.45   2
   0  -4   8    1.09    1.69   4
   0  -4   8    2.49    1.58   1
   0   4  -8    2.20    1.62   1
   1  -4   8    7.61    2.25   5
   1  -4   8    7.58    2.17   2
   1  -4   8   11.82    2.94   4
  -1   4  -8    3.78    1.87   1
   1  -4   8    4.85    2.05   1
   2  -4   8    3.87    1.92   5
   2  -4   8    8.99    2.42   1
  -2   4  -8    9.48    2.33   1
   2  -4   8    6.78    2.21   2
   2  -4   8    1.48    2.12   4
   3  -4   8   -0.69    1.40   5
   3  -4   8    0.03    1.83   4
   3  -4   8   -1.24    1.58   1
  -3   4  -8   -0.75    1.49   1
  -4   4  -8    2.84    1.98   1
   4  -4   8    4.49    2.38   5
   4  -4   8    2.58    2.36   4
   4  -4   8   -0.92    1.79   1
  -5   4  -8   -0.15    2.08   1
   5  -4   8    3.62    2.51   5
   5  -4   8    3.51    2.77   4
  -6   4  -8   -1.29    1.99   1
   6   3  -8    0.18    2.29   1
  -6  -3   8    3.46    2.38   1
   5   3  -8   18.90    4.02   1
  -5  -3   8    9.20    3.14   1
   4   3  -8    2.35    2.19   1
  -4  -3   8   -0.62    1.78   1
  -4  -3   8    0.78    1.87   4
   3   3  -8   19.47    3.40   1
  -3  -3   8   19.12    3.21   4
  -3  -3   8   22.62    3.56   1
  -2  -3   8    3.72    1.80   1
  -2  -3   8   -1.06    1.61   4
  -2  -3   8   -0.32    1.44   5
   2   3  -8   -0.42    1.36   1
  -1  -3   8    5.20    2.16   4
  -1  -3   8    6.05    2.09   1
   1   3  -8    2.10    1.80   1
  -1  -3   8    5.35    2.09   5
  -1  -3   8    4.78    1.87   2
   0  -3   8    1.81    1.83   4
   0  -3   8    1.68    1.58   1
   0  -3   8   -1.11    1.16   5
   0  -3   8    1.62    1.53   2
   0   3  -8    3.42    1.87   1
   1  -3   8    0.75    1.72   4
   1  -3   8    2.30    1.77   1
  -1   3  -8    1.02    1.51   1
   1  -3   8    4.62    1.87   2
   1  -3   8    2.66    1.78   5
   2  -3   8    8.20    2.58   4
   2  -3   8   12.83    2.46   2
  -2   3  -8   10.46    2.47   1
   2  -3   8   10.79    2.67   1
   2  -3   8    8.62    2.40   5
   3  -3   8    9.08    2.40   5
   3  -3   8    9.76    2.57   1
  -3   3  -8    5.95    2.11   1
   3  -3   8    6.95    2.62   4
   3  -3   8    6.97    2.23   2
  -4   3  -8    5.54    2.24   1
   4  -3   8    1.14    2.14   4
   4  -3   8    1.61    1.77   1
   4  -3   8    1.49    1.97   5
  -5   3  -8    2.42    2.00   1
   5  -3   8    6.29    2.65   5
   5  -3   8   12.05    3.21   4
   5  -3   8   11.91    3.05   1
  -6   3  -8    1.07    2.19   1
   6  -3   8   -0.67    2.16   1
  -6  -2   8    3.33    2.52   1
   6   2  -8   -2.24    2.05   1
  -5  -2   8    6.63    2.63   1
   5   2  -8    4.12    2.50   1
  -4  -2   8   16.18    2.73   4
  -4  -2   8   20.55    3.73   1
   4   2  -8    8.35    2.65   1
  -3  -2   8   76.01    5.30   1
   3   2  -8   65.94    5.19   1
  -3  -2   8   67.21    4.64   4
   2   2  -8   36.27    3.82   1
  -2  -2   8   34.24    3.79   1
  -2  -2   8   32.79    3.51   4
   2   2  -8   30.23    3.52   5
  -2  -2   8   36.49    3.87   5
  -1  -2   8  221.27    8.94   4
  -1  -2   8  210.57    8.74   1
  -1  -2   8  232.20    9.19   5
  -1  -2   8  223.86    8.50   2
  -1  -2   8  222.08    9.31   5
   1   2  -8  228.48    8.96   1
   1   2  -8  226.28    8.90   5
   0  -2   8   15.63    2.90   4
   0  -2   8   22.11    3.20   5
   0  -2   8   14.90    2.71   1
   0   2  -8   20.15    3.01   1
   0  -2   8   22.88    3.03   5
   0  -2   8   13.18    2.41   2
   0   2  -8   16.05    2.61   5
   1  -2   8  269.05    9.27   2
  -1   2  -8  244.24    9.33   1
   1  -2   8  256.32    9.86   5
   1  -2   8  254.22   10.03   4
   1  -2   8  249.06    9.63   5
   1  -2   8  249.89    9.39   1
   2  -2   8    5.10    1.93   2
   2  -2   8    3.88    2.09   4
   2  -2   8    3.36    1.72   5
  -2   2  -8    3.60    1.91   1
   2  -2   8    3.32    1.78   1
   3  -2   8   89.44    5.37   2
   3  -2   8   95.93    6.15   4
  -3   2  -8   87.93    5.44   1
   3  -2   8   85.01    5.57   5
   3  -2   8   99.92    5.79   1
   4  -2   8    4.08    2.28   4
   4  -2   8    5.15    2.08   1
  -4   2  -8    3.34    1.91   1
   4  -2   8    0.51    1.81   5
   5  -2   8   17.24    3.44   1
   5  -2   8    8.88    3.16   4
   5  -2   8   13.18    3.15   5
  -5   2  -8   18.24    3.33   1
  -6   2  -8    4.30    2.41   1
   6  -2   8    5.19    2.59   1
  -7   2  -8    9.60    3.14   1
   7  -2   8    3.84    2.66   1
  -6  -1   8   -0.06    1.95   1
   6   1  -8   -1.46    2.27   1
  -5  -1   8    4.96    2.32   1
   5   1  -8    4.88    2.63   1
  -4  -1   8    0.80    1.72   1
   4   1  -8    0.38    1.97   1
  -3  -1   8    7.68    2.09   4
  -3  -1   8    9.66    2.44   1
   3   1  -8   10.29    2.66   1
   3   1  -8    8.26    2.37   5
  -2  -1   8    1.89    1.49   5
   2   1  -8    2.03    1.89   1
  -2  -1   8    7.16    1.96   4
  -2  -1   8    2.79    1.69   1
   2   1  -8    2.41    1.61   5
   1   1  -8   10.94    2.42   1
  -1  -1   8   14.04    2.50   5
  -1  -1   8    7.75    2.27   1
  -1  -1   8   10.55    2.34   4
   1   1  -8    8.52    2.17   5
   0  -1   8   65.64    4.39   2
   0   1  -8   56.90    4.19   5
   0  -1   8   78.23    4.76   5
   0  -1   8   67.00    4.84   5
   0   1  -8   65.97    4.44   1
   0  -1   8   69.47    4.61   1
   0  -1   8   71.11    4.74   4
   0  -1   8   66.49    4.25   2
  -1   1  -8   29.73    3.33   1
   1  -1   8   29.55    3.54   4
   1  -1   8   33.42    3.18   2
   1  -1   8   37.01    3.44   5
   1  -1   8   34.37    3.12   2
   1  -1   8   30.14    3.30   5
   1  -1   8   34.99    3.56   1
  -1   1  -8   29.79    3.15   5
   2  -1   8  171.11    7.50   1
   2  -1   8  166.75    7.22   2
  -2   1  -8  164.11    7.44   1
   2  -1   8  171.71    7.52   5
   2  -1   8  168.92    7.04   2
   2  -1   8  178.26    7.83   5
  -2   1  -8  160.88    7.30   5
   2  -1   8  182.66    8.09   4
   3  -1   8   72.66    5.41   4
   3  -1   8   74.18    4.99   1
   3  -1   8   72.46    4.71   2
  -3   1  -8   76.62    5.06   1
  -3   1  -8   83.17    5.24   5
   3  -1   8   84.32    5.39   5
   4  -1   8   93.59    5.84   1
   4  -1   8   93.73    6.09   4
  -4   1  -8   97.83    5.91   1
   4  -1   8   96.35    6.06   5
  -5   1  -8   54.34    4.96   1
   5  -1   8   52.65    4.97   1
   5  -1   8   48.63    4.84   5
  -6   1  -8   14.12    3.28   1
   6  -1   8   24.07    4.08   1
   7  -1   8   15.29    3.81   1
  -7   1  -8   16.26    3.58   1
  -6   0   8    0.10    1.98   1
   6   0  -8    1.36    2.52   1
   5   0  -8   -2.67    1.78   1
  -5   0   8    5.40    2.77   3
  -5   0   8    4.68    2.33   1
   4   0  -8   14.51    3.20   1
  -4   0   8   14.11    2.95   1
   3   0  -8    0.28    1.65   5
   3   0  -8   -0.66    1.70   1
  -3   0   8   -1.85    1.14   4
  -3   0   8   -1.63    1.14   1
  -2   0   8   57.84    4.26   1
   2   0  -8   46.90    4.10   5
   2   0  -8   46.49    4.20   5
  -2   0   8   43.06    3.54   4
   2   0  -8   44.45    3.75   2
  -2   0   8   50.77    3.99   5
   2   0  -8   47.08    4.25   1
   1   0  -8    6.43    1.99   1
   1   0  -8    7.77    2.19   5
  -1   0   8    9.85    1.99   2
  -1   0   8    5.43    1.92   4
  -1   0   8    0.33    1.29   1
   1   0  -8    7.50    1.95   2
  -1   0   8    7.82    1.99   5
   1   0  -8    7.90    2.03   2
   1   0  -8    9.04    2.21   5
   0   0   8   18.77    2.59   5
   0   0  -8   24.87    2.97   1
   0   0  -8   22.95    2.89   5
   0   0   8   26.24    2.65   2
   0   0  -8   21.89    2.82   5
   0   0   8   15.21    2.57   4
   0   0  -8   25.39    2.79   2
   0   0   8   25.28    3.00   1
   1   0   8   -0.76    1.01   5
  -1   0  -8    0.99    1.35   5
   1   0   8    6.22    1.84   2
  -1   0  -8    4.77    1.67   5
   1   0   8    1.25    1.61   4
  -1   0  -8    3.98    1.79   1
   1   0   8    2.18    1.59   5
  -1   0  -8    4.79    1.69   2
   1   0   8    4.85    1.64   1
  -2   0  -8    0.75    1.29   5
  -2   0  -8   -0.04    1.20   2
   2   0   8    2.16    1.75   4
  -2   0  -8    0.11    1.30   1
   2   0   8    1.40    1.43   5
   2   0   8    1.11    1.41   1
  -2   0  -8    0.54    1.21   5
   2   0   8    1.01    1.23   5
   2   0   8    2.66    1.60   2
   3   0   8    2.70    1.60   2
  -3   0  -8    2.93    1.79   1
  -3   0  -8   -0.25    1.24   5
   3   0   8    1.31    1.72   4
   3   0   8    4.32    1.78   1
   3   0   8    4.20    1.80   5
   3   0   8    2.11    1.83   5
   4   0   8    4.32    1.95   1
  -4   0  -8    0.04    1.42   1
  -4   0  -8    1.60    1.63   5
   4   0   8    2.39    1.68   5
  -5   0  -8    6.36    2.34   1
   5   0   8    3.32    2.02   5
   5   0   8    6.72    2.35   1
  -6   0  -8    7.90    2.61   1
   6   0   8    2.42    2.20   1
   7   0   8    2.53    2.41   1
  -7   0  -8    0.64    2.10   1
  -8   0  -8    3.63    2.76   1
   8   0   8    3.65    2.74   1
  -6   1   8   -2.10    1.84   1
   6  -1  -8    3.18    2.66   1
  -5   1   8    1.91    2.40   3
  -5   1   8    0.21    1.83   1
   5  -1  -8   -0.53    2.14   1
  -4   1   8    4.09    1.87   1
   4  -1  -8    2.08    1.90   5
  -4   1   8   -0.16    2.21   3
   4  -1  -8    0.07    1.84   1
  -3   1   8   10.53    1.84   4
   3  -1  -8    4.35    2.18   1
   3  -1  -8    8.79    2.42   5
   3  -1  -8   10.94    2.55   2
  -3   1   8    7.44    2.11   1
  -2   1   8   15.86    2.26   4
   2  -1  -8   16.43    2.94   1
   2  -1  -8   17.56    2.75   2
   2  -1  -8   20.15    2.88   5
  -2   1   8   13.93    2.58   1
  -1   1   8   63.31    4.25   1
   1  -1  -8   59.28    4.36   5
   1  -1  -8   64.79    4.22   2
   1  -1  -8   63.53    4.11   2
  -1   1   8   64.20    4.03   4
   1  -1  -8   72.28    4.64   5
   1  -1  -8   67.30    4.37   1
   0   1   8    7.75    1.74   2
   0  -1  -8    8.89    1.89   2
   0   1   8    6.72    1.90   1
   0  -1  -8    8.33    2.01   5
   0  -1  -8   11.46    2.24   5
   0   1   8    7.81    1.99   4
   0  -1  -8   10.28    2.20   1
   1   1   8   44.01    3.23   2
   1   1   8   41.06    3.24   5
  -1  -1  -8   41.92    3.58   5
  -1  -1  -8   40.71    3.55   1
   1   1   8   44.58    3.74   4
  -1  -1  -8   46.37    3.62   5
   1   1   8   42.13    3.51   1
   1   1   8   45.79    3.71   5
  -1  -1  -8   42.80    3.37   2
   2   1   8    2.43    1.35   5
  -2  -1  -8    1.87    1.39   2
  -2  -1  -8    1.21    1.56   1
   2   1   8   -0.56    1.08   2
   2   1   8    0.84    1.45   5
   2   1   8   -0.17    1.12   1
  -2  -1  -8    3.27    1.61   5
   2   1   8    1.00    1.60   4
  -2  -1  -8    3.15    1.45   5
  -3  -1  -8    1.95    1.69   5
  -3  -1  -8    3.56    1.50   5
  -3  -1  -8    0.89    1.38   2
   3   1   8    0.19    1.29   1
   3   1   8    1.85    1.52   5
  -3  -1  -8    3.61    1.68   1
   4   1   8    0.34    1.37   1
   4   1   8    0.34    1.46   5
  -4  -1  -8   -0.10    1.37   5
  -4  -1  -8    0.18    1.53   1
  -5  -1  -8    0.36    1.60   1
   5   1   8    3.18    1.89   1
  -6  -1  -8    0.75    1.87   1
   6   1   8   -1.26    1.43   1
  -7  -1  -8    1.31    2.25   1
   7   1   8    1.51    2.04   1
   8   1   8    0.48    2.54   1
  -8  -1  -8   -0.39    2.09   1
  -6   2   8   -0.95    2.06   1
   5  -2  -8    0.27    2.17   1
  -5   2   8    1.35    2.34   3
  -5   2   8   -0.31    1.62   1
   4  -2  -8    2.66    2.01   5
  -4   2   8    4.38    2.58   3
  -4   2   8    4.68    2.07   1
   4  -2  -8    2.77    2.14   1
   3  -2  -8    1.85    2.02   1
   3  -2  -8    4.95    2.32   5
  -3   2   8    5.51    1.94   1
  -3   2   8    2.25    2.22   3
   3  -2  -8    0.33    1.71   2
  -2   2   8    4.46    1.75   1
   2  -2  -8    2.76    1.58   2
   2  -2  -8    7.04    2.18   5
   2  -2  -8    1.24    1.78   1
   1  -2  -8   59.60    4.20   5
   1  -2  -8   67.73    4.20   2
   1  -2  -8   70.86    4.55   5
   1  -2  -8   59.18    4.10   1
  -1   2   8   63.06    4.06   1
   1  -2  -8   64.96    4.25   2
  -1   2   8   68.81    4.11   5
   0  -2  -8    1.97    1.46   5
   0  -2  -8    0.65    1.25   5
   0  -2  -8    3.51    1.46   2
   0  -2  -8    0.71    1.20   2
   0   2   8   -0.28    1.05   5
   0  -2  -8   -0.08    1.24   1
   0   2   8    0.66    1.25   1
  -1  -2  -8   90.30    4.93   5
  -1  -2  -8   86.19    4.60   2
   1   2   8   83.37    4.60   1
   1   2   8   87.73    4.22   2
  -1  -2  -8   99.77    5.25   5
  -1  -2  -8   91.17    4.92   1
  -2  -2  -8   22.03    2.87   1
  -2  -2  -8   16.17    2.29   2
  -2  -2  -8   22.13    2.71   5
   2   2   8   19.61    2.30   2
   2   2   8   21.09    2.66   1
  -2  -2  -8   19.62    2.64   5
   3   2   8    8.75    2.08   5
   3   2   8    9.52    1.97   2
  -3  -2  -8   12.02    2.40   5
  -3  -2  -8    7.55    1.93   2
  -3  -2  -8   12.83    2.39   5
   3   2   8    8.94    2.11   1
  -3  -2  -8   12.94    2.48   1
   4   2   8   21.73    3.04   1
   4   2   8   11.23    2.43   5
  -4  -2  -8   10.26    2.46   1
  -4  -2  -8   12.54    2.64   5
  -4  -2  -8   16.18    2.81   5
  -5  -2  -8   -0.30    1.43   5
   5   2   8   -1.07    1.49   1
  -5  -2  -8    3.62    1.90   1
   6   2   8    0.52    1.74   1
  -6  -2  -8    0.97    1.76   1
   7   2   8    2.99    2.27   1
  -7  -2  -8   -1.86    1.75   1
   8   2   8    0.94    2.43   1
  -8  -2  -8   -0.96    1.97   1
   5  -3  -8   -0.27    2.11   5
  -5   3   8    0.60    1.85   1
  -4   3   8    4.21    1.81   1
   4  -3  -8   -1.13    1.88   1
  -4   3   8    1.24    2.15   3
   4  -3  -8    2.43    2.02   5
  -3   3   8    0.13    1.93   3
   3  -3  -8   -2.57    1.49   1
   3  -3  -8   -1.30    1.31   5
  -3   3   8   -0.45    1.27   1
   3  -3  -8   -0.87    1.50   2
   2  -3  -8    2.34    1.84   1
   2  -3  -8   -0.76    1.55   2
  -2   3   8    1.10    1.32   1
  -2   3   8    0.00    2.05   3
   2  -3  -8    0.18    1.53   5
  -1   3   8    5.89    1.61   5
   1  -3  -8    7.22    2.01   5
   1  -3  -8    6.12    1.93   5
   1  -3  -8    6.14    1.74   2
   1  -3  -8    7.40    2.03   1
  -1   3   8    5.11    1.73   1
   1  -3  -8    6.38    1.93   2
   0  -3  -8   39.24    3.24   2
   0  -3  -8   39.22    3.36   5
   0   3   8   38.28    3.04   1
   0  -3  -8   41.53    3.42   1
   0  -3  -8   36.78    3.08   2
   0   3   8   36.30    2.85   5
   0  -3  -8   38.12    3.36   5
  -1  -3  -8   10.46    1.90   2
   1   3   8   12.96    2.15   1
   1   3   8   15.74    2.12   5
  -1  -3  -8   13.60    2.20   5
  -1  -3  -8   10.81    2.11   5
  -1  -3  -8   12.15    2.28   1
  -2  -3  -8  110.38    5.23   2
  -2  -3  -8  107.76    5.42   5
   2   3   8  109.88    5.20   5
  -2  -3  -8  108.53    5.52   5
   2   3   8  108.01    5.22   1
  -2  -3  -8  111.68    5.39   1
  -3  -3  -8    3.34    1.50   5
   3   3   8    1.57    1.35   1
  -3  -3  -8    1.92    1.34   2
   3   3   8    4.12    1.56   5
  -3  -3  -8    4.01    1.72   5
  -3  -3  -8    2.06    1.42   1
  -4  -3  -8   57.63    4.37   5
   4   3   8   51.74    4.08   1
  -4  -3  -8   55.18    4.34   5
  -4  -3  -8   54.73    4.43   1
  -5  -3  -8    8.43    2.35   5
   5   3   8   13.42    2.69   1
  -5  -3  -8    8.57    2.39   1
  -6  -3  -8    2.47    1.93   1
   6   3   8    1.06    1.79   1
   7   3   8    2.37    2.21   1
  -7  -3  -8    1.39    2.11   1
   8   3   8    0.84    2.28   1
  -8  -3  -8    0.34    2.14   1
  -5   4   8    0.87    1.85   1
   5  -4  -8    0.71    2.14   5
   4  -4  -8    2.01    1.93   5
  -4   4   8    5.85    2.11   1
   4  -4  -8    3.84    2.39   2
   3  -4  -8   -0.27    1.51   5
  -3   4   8    2.23    2.25   3
  -3   4   8   -3.24    1.17   1
   3  -4  -8    1.11    1.81   2
   2  -4  -8    3.17    1.95   1
  -2   4   8    5.18    1.79   1
  -2   4   8    4.25    2.36   3
   2  -4  -8    3.37    1.91   2
   2  -4  -8    3.60    1.92   5
   1  -4  -8    1.82    1.57   2
   1  -4  -8    3.76    1.69   5
  -1   4   8    3.95    2.12   3
   1  -4  -8    3.86    1.77   1
   1  -4  -8    3.51    1.51   2
  -1   4   8    5.52    1.66   1
   0   4   8   25.59    2.55   1
   0  -4  -8   23.67    2.73   5
   0  -4  -8   27.86    2.87   5
   0  -4  -8   24.52    2.54   2
   0  -4  -8   25.68    2.67   2
   0  -4  -8   28.14    2.89   1
   1   4   8    8.04    1.76   1
  -1  -4  -8    5.30    1.62   5
  -1  -4  -8    7.13    1.70   5
  -1  -4  -8    9.80    2.02   1
   1   4   8    8.83    1.63   5
  -1  -4  -8    6.55    1.67   2
   2   4   8   30.52    2.89   1
   2   4   8   34.03    2.79   5
  -2  -4  -8   32.52    3.10   1
  -2  -4  -8   33.96    2.93   2
  -2  -4  -8   33.93    3.18   5
  -2  -4  -8   40.89    3.32   5
  -3  -4  -8    3.80    1.63   5
  -3  -4  -8    6.76    1.96   1
   3   4   8    5.14    1.76   1
   3   4   8    7.48    1.77   5
  -3  -4  -8    5.70    1.75   5
  -3  -4  -8    6.17    1.78   2
  -4  -4  -8    7.53    2.19   1
   4   4   8    8.38    2.07   5
   4   4   8    9.85    2.23   1
  -4  -4  -8    5.96    2.06   5
  -5  -4  -8   18.65    3.14   1
  -5  -4  -8   12.68    2.75   5
   5   4   8   11.21    2.51   1
  -6  -4  -8    0.03    1.82   5
   6   4   8   -0.18    1.50   1
  -6  -4  -8   -1.84    1.25   1
  -7  -4  -8    5.42    2.58   1
   7   4   8    1.66    2.06   1
   8   4   8    5.58    2.53   1
  -8  -4  -8    2.15    2.30   1
  -5   5   8    0.21    1.85   1
  -4   5   8   39.52    3.48   1
   4  -5  -8   26.79    3.83   2
   4  -5  -8   38.51    4.34   5
  -3   5   8    4.08    2.53   3
   3  -5  -8   -0.27    1.75   2
  -3   5   8    1.42    1.45   1
   3  -5  -8    4.16    2.04   5
   2  -5  -8  106.65    5.63   2
   2  -5  -8   99.82    5.70   5
  -2   5   8   94.80    6.57   3
  -2   5   8  109.56    4.81   1
  -1   5   8   16.60    3.36   3
   1  -5  -8   16.04    2.49   2
   1  -5  -8   19.55    2.67   5
  -1   5   8   13.22    2.00   1
   1  -5  -8   13.63    2.19   2
   0  -5  -8  105.78    4.94   2
   0  -5  -8   99.15    5.15   5
   0   5   8  107.52    6.30   3
   0  -5  -8  103.51    5.04   1
   0  -5  -8   96.99    4.84   2
   0  -5  -8  109.40    5.38   5
   0   5   8  104.37    4.51   1
  -1  -5  -8   18.17    2.28   2
  -1  -5  -8   15.74    2.31   1
   1   5   8   17.00    2.05   1
   1   5   8   14.58    2.91   3
  -1  -5  -8   11.38    2.08   5
  -1  -5  -8   17.97    2.30   2
  -1  -5  -8   16.80    2.30   5
  -2  -5  -8   50.69    3.46   2
  -2  -5  -8   56.41    3.73   1
  -2  -5  -8   54.38    3.81   5
   2   5   8   49.95    3.35   1
  -2  -5  -8   57.84    3.86   5
   2   5   8   57.09    4.40   3
  -3  -5  -8    0.21    1.09   5
   3   5   8   -1.41    1.06   1
   3   5   8   -0.13    1.08   5
  -3  -5  -8   -1.41    1.17   1
  -3  -5  -8    1.48    1.45   5
  -3  -5  -8   -0.69    1.18   2
  -4  -5  -8   38.84    3.84   5
   4   5   8   45.00    3.55   1
  -4  -5  -8   42.10    3.83   1
   5   5   8    8.86    2.41   1
  -5  -5  -8   13.42    2.77   1
  -5  -5  -8   10.98    2.66   5
  -6  -5  -8   21.56    3.56   1
  -6  -5  -8   11.52    2.95   5
   6   5   8   18.99    3.20   1
  -7  -5  -8   -0.17    2.06   1
   7   5   8    1.24    2.11   1
   8   5   8   10.35    3.28   1
  -8  -5  -8    5.63    2.84   1
   4  -6  -8    5.82    2.67   2
  -4   6   8    3.72    1.68   1
   3  -6  -8    2.65    1.84   5
  -3   6   8    2.92    1.43   1
   3  -6  -8    5.01    2.29   2
   2  -6  -8    9.99    2.40   2
  -2   6   8    9.65    1.61   1
   2  -6  -8    9.88    2.29   5
  -2   6   8   16.50    3.70   3
  -1   6   8   22.88    3.77   3
  -1   6   8   28.71    2.15   1
   1  -6  -8   30.26    3.01   2
   1  -6  -8   26.47    2.91   5
   1  -6  -8   29.09    2.81   2
   0  -6  -8   63.50    3.82   2
   0  -6  -8   76.48    4.13   2
   0   6   8   63.14    5.33   3
   0  -6  -8   61.44    3.96   5
   0   6   8   69.39    3.17   1
  -1  -6  -8   34.47    3.07   5
   1   6   8   42.34    2.62   1
  -1  -6  -8   41.56    3.05   2
  -1  -6  -8   34.30    2.84   2
  -1  -6  -8   37.52    3.01   5
   1   6   8   40.19    4.21   3
  -2  -6  -8  148.00    6.44   5
  -2  -6  -8  153.12    6.48   5
  -2  -6  -8  157.86    6.32   1
   2   6   8  152.92    5.52   1
  -2  -6  -8  148.39    5.97   2
   2   6   8  159.87    7.58   3
  -3  -6  -8    8.54    1.97   5
  -3  -6  -8   10.73    2.11   2
  -3  -6  -8   11.07    2.21   1
   3   6   8   13.60    2.01   1
   3   6   8    8.52    2.46   3
  -4  -6  -8   86.52    5.09   1
   4   6   8   89.67    5.24   3
  -4  -6  -8   83.02    4.90   2
  -4  -6  -8   87.57    5.41   5
   4   6   8   92.09    4.75   1
   5   6   8    1.74    1.64   1
  -5  -6  -8    0.67    1.57   5
   5   6   8   -1.14    1.51   3
  -5  -6  -8    1.33    1.71   1
   6   6   8   30.58    3.61   1
  -6  -6  -8   28.60    3.97   5
  -6  -6  -8   27.46    3.78   1
  -7  -6  -8   -0.18    1.95   1
  -7  -6  -8   -0.98    1.87   5
   7   6   8   -0.21    1.86   1
  -8  -6  -8    5.70    2.74   1
   8   6   8    5.73    2.76   1
   4  -7  -8    2.32    2.20   2
   3  -7  -8    0.05    1.83   2
   2  -7  -8    1.99    1.68   2
   2  -7  -8    1.40    1.66   5
   1  -7  -8    0.19    1.29   5
   1  -7  -8   -0.25    1.33   2
   1  -7  -8    0.36    1.26   2
   0   7   8    2.66    2.11   3
   0  -7  -8    3.25    1.40   2
   0  -7  -8    1.95    1.39   2
   0  -7  -8    1.44    1.26   5
  -1  -7  -8    0.28    1.04   5
   1   7   8   -1.62    1.60   3
  -1  -7  -8    0.44    1.09   2
  -1  -7  -8    0.20    1.11   2
  -1  -7  -8   -0.49    1.12   5
   1   7   8   -0.31    0.62   1
   2   7   8   13.97    1.49   1
  -2  -7  -8   12.38    1.98   2
  -2  -7  -8   16.45    2.34   5
   2   7   8   12.43    2.95   3
  -2  -7  -8   10.13    2.01   5
  -3  -7  -8    1.38    1.33   5
   3   7   8    3.35    1.26   1
  -3  -7  -8    2.32    1.51   2
   3   7   8    1.10    1.84   3
  -4  -7  -8   -0.10    1.24   5
   4   7   8    4.71    1.60   1
   4   7   8    2.00    1.73   3
  -4  -7  -8    2.26    1.52   2
   5   7   8    5.36    2.04   3
  -5  -7  -8    5.17    2.15   5
  -6  -7  -8    3.91    2.29   5
   6   7   8    3.87    2.07   1
   7   7   8   -0.87    1.85   1
  -7  -7  -8    1.38    2.34   5
  -7  -7  -8    0.51    1.94   1
   8   7   8    9.30    3.07   1
   3  -8  -8    3.93    2.17   2
   2  -8  -8    1.67    1.68   2
   1  -8  -8    0.03    1.35   5
   1  -8  -8    2.01    1.56   2
   1  -8  -8    2.53    1.50   2
   0  -8  -8   -0.60    0.98   5
   0  -8  -8    0.91    1.34   2
   0  -8  -8   -0.12    1.13   2
   1   8   8    5.62    2.57   3
  -1  -8  -8    1.74    1.22   2
  -1  -8  -8    0.32    1.19   2
  -1  -8  -8    1.88    1.20   5
  -2  -8  -8    1.30    1.29   2
   2   8   8    2.70    2.13   3
  -2  -8  -8    3.09    1.40   5
   3   8   8    3.46    2.16   3
  -3  -8  -8   -0.52    1.30   2
  -3  -8  -8    0.35    1.05   5
   3   8   8   -0.70    0.73   1
   4   8   8    4.46    2.20   3
  -4  -8  -8    3.92    1.69   5
   4   8   8    3.86    1.32   1
  -5  -8  -8    1.23    1.60   5
   5   8   8    2.64    1.54   1
   5   8   8    4.78    2.17   3
  -6  -8  -8   -0.32    1.68   5
   6   8   8    2.92    1.80   1
  -7  -8  -8    0.07    2.01   5
   7   8   8   -0.68    1.65   1
   8   8   8    0.98    2.18   1
   1  -9  -8    2.32    1.50   2
   1  -9  -8    0.91    1.52   2
   0  -9  -8    1.31    1.33   2
   0  -9  -8    1.36    1.29   2
  -1  -9  -8    2.57    1.26   2
  -1  -9  -8    3.55    1.42   2
  -1  -9  -8    0.70    1.12   5
  -2  -9  -8    5.28    1.57   5
  -2  -9  -8    9.04    1.81   2
   2   9   8    3.56    2.54   3
   3   9   8   -0.19    1.72   3
  -3  -9  -8    0.02    1.39   2
  -3  -9  -8    0.16    1.08   5
  -4  -9  -8    7.13    2.00   5
   4   9   8    5.17    2.50   3
   5   9   8    0.34    1.20   1
  -5  -9  -8    2.11    1.77   5
  -6  -9  -8   -0.13    1.78   5
   6   9   8    1.80    1.59   1
   7   9   8    0.00    1.78   1
   0 -10  -8    1.13    1.29   2
   0 -10  -8    1.03    1.40   2
  -1 -10  -8    1.80    1.31   2
  -1 -10  -8    4.87    1.55   2
  -2 -10  -8    8.29    1.83   2
  -3 -10  -8    0.38    1.33   2
   4  10   8    6.30    2.85   3
   7  10   8    1.26    1.76   1
  -1 -11  -8    1.85    1.44   2
  -2 -11  -8    1.02    1.35   2
  -3 -11  -8    1.18    1.50   2
   3   7  -9    0.43    2.24   1
  -3  -7   9   -1.52    2.40   4
  -2  -7   9    2.64    2.86   4
   2   7  -9    0.03    1.92   1
  -1  -7   9   -2.38    2.39   4
  -1  -7   9    0.01    1.90   5
   1   7  -9    1.31    1.99   1
   0   7  -9   -1.07    1.72   1
   0  -7   9   -0.74    1.87   5
   0  -7   9    0.07    2.41   4
  -1   7  -9    0.79    1.82   1
   1  -7   9    2.35    2.42   4
   2  -7   9    2.22    2.85   4
  -2   7  -9   -1.03    1.82   1
  -4  -6   9   -1.40    2.44   1
   4   6  -9    0.12    2.36   1
  -4  -6   9   -0.71    2.64   4
  -3  -6   9    1.36    2.58   4
   3   6  -9   -1.67    1.81   1
  -3  -6   9    0.75    2.04   1
  -2  -6   9    2.29    2.65   4
  -2  -6   9    0.70    1.83   1
   2   6  -9   -0.60    1.80   1
  -1  -6   9    1.40    2.19   1
  -1  -6   9    2.80    2.15   5
   1   6  -9    0.59    1.83   1
  -1  -6   9    0.33    2.29   4
   0  -6   9    0.64    2.48   4
   0   6  -9    0.87    1.85   1
   0  -6   9    0.63    1.90   5
   1  -6   9   -0.68    1.86   5
   1  -6   9    0.26    2.23   4
  -1   6  -9    2.25    2.00   1
   2  -6   9   -0.29    2.47   4
  -2   6  -9    0.19    1.77   1
   2  -6   9   -0.80    1.84   5
  -3   6  -9    1.39    1.92   1
   3  -6   9    1.12    2.76   4
   5   5  -9    0.30    2.29   1
  -5  -5   9   -1.79    2.25   4
  -5  -5   9    1.64    2.18   1
   4   5  -9   -1.81    1.82   1
  -4  -5   9    0.51    1.88   1
  -4  -5   9   -1.13    2.22   4
  -3  -5   9    5.36    2.83   1
  -3  -5   9    6.70    2.91   4
   3   5  -9    9.12    2.87   1
  -2  -5   9    1.97    2.25   1
  -2  -5   9    2.50    2.49   4
   2   5  -9    3.60    2.23   1
  -1  -5   9    3.48    2.12   1
  -1  -5   9    4.79    2.52   4
  -1  -5   9   12.28    3.16   5
   1   5  -9    8.80    2.65   1
   0  -5   9    9.16    3.07   4
   0   5  -9    2.78    2.04   1
   0  -5   9    6.44    2.37   1
   0  -5   9    3.30    2.03   5
   1  -5   9    0.18    1.70   1
  -1   5  -9    0.65    1.75   1
   1  -5   9   -1.89    1.83   4
   1  -5   9    3.00    2.06   5
   2  -5   9    1.77    2.09   1
  -2   5  -9    0.01    1.64   1
   2  -5   9    1.23    2.45   4
   2  -5   9    0.59    1.84   5
   3  -5   9    1.04    2.45   4
   3  -5   9    0.04    1.87   5
  -3   5  -9    0.17    1.82   1
   4  -5   9   -3.57    2.19   4
  -4   5  -9    1.11    1.97   1
   5   4  -9    1.69    2.37   1
  -5  -4   9    4.41    2.92   1
  -4  -4   9    0.14    2.03   4
  -4  -4   9    0.21    2.05   1
   4   4  -9    1.97    2.22   1
  -3  -4   9    5.41    2.49   1
   3   4  -9    0.96    1.91   1
  -3  -4   9    1.93    2.25   4
  -2  -4   9   -0.94    1.90   1
   2   4  -9    3.55    2.20   1
  -2  -4   9   -0.24    1.93   4
  -1  -4   9   -2.13    1.69   4
  -1  -4   9   -0.12    1.91   5
   1   4  -9   -0.07    1.72   1
  -1  -4   9    2.82    2.06   1
   0  -4   9   15.44    3.40   4
   0  -4   9   11.92    2.91   1
   0  -4   9   17.86    3.26   5
   0   4  -9   16.37    3.07   1
  -1   4  -9    4.40    2.06   1
   1  -4   9    3.53    2.10   5
   1  -4   9    3.52    1.99   1
   1  -4   9    5.14    2.48   4
  -2   4  -9    6.29    2.32   1
   2  -4   9    8.85    2.94   4
   2  -4   9    8.35    2.70   1
   2  -4   9    0.65    1.72   5
   3  -4   9    4.52    2.81   4
  -3   4  -9    5.21    2.18   1
   3  -4   9    6.69    2.73   5
   3  -4   9    8.58    2.73   1
   4  -4   9    1.26    2.11   5
   4  -4   9   -0.08    1.96   1
  -4   4  -9    1.54    2.05   1
   4  -4   9   -0.77    2.29   4
  -5   4  -9    2.28    2.25   1
   5  -4   9    4.10    2.96   4
  -5  -3   9    1.23    2.53   1
   5   3  -9    3.68    2.76   1
  -4  -3   9    8.73    2.89   1
   4   3  -9    0.86    2.22   1
  -4  -3   9    0.74    1.91   4
  -3  -3   9    1.35    1.85   1
   3   3  -9   -2.37    1.29   1
  -3  -3   9   -1.80    1.63   4
  -2  -3   9    9.92    2.63   4
  -2  -3   9   10.96    3.11   1
   2   3  -9    6.46    2.34   1
   1   3  -9    1.25    1.69   1
  -1  -3   9   -0.12    1.72   4
  -1  -3   9    0.01    1.52   5
  -1  -3   9    1.93    1.88   1
   0  -3   9   17.67    3.34   4
   0   3  -9   14.66    2.99   1
   0  -3   9   21.50    3.31   5
   0  -3   9   23.29    3.48   1
   1  -3   9    1.74    1.74   1
  -1   3  -9    4.95    2.12   1
   1  -3   9    8.17    2.47   5
   1  -3   9    1.25    1.99   4
   2  -3   9    1.24    1.74   1
   2  -3   9    3.70    2.27   4
   2  -3   9    6.24    2.28   5
  -2   3  -9    3.16    2.11   1
   3  -3   9    7.70    2.47   1
  -3   3  -9    6.55    2.42   1
   3  -3   9    6.59    2.62   4
   3  -3   9    5.50    2.38   5
   4  -3   9    1.05    1.97   1
   4  -3   9   -0.39    2.07   4
  -4   3  -9   -2.35    1.54   1
   4  -3   9   -0.28    1.67   5
  -5   3  -9    4.45    2.37   1
   5  -3   9    0.48    2.27   4
   5  -3   9    0.62    2.16   1
  -6   3  -9    1.21    2.24   1
   6   2  -9    6.61    3.29   1
  -6  -2   9    3.05    2.62   1
   5   2  -9    5.10    2.85   1
  -5  -2   9    3.50    2.49   1
  -4  -2   9   14.77    3.53   1
  -4  -2   9   17.69    3.06   4
   4   2  -9   12.47    3.48   1
   3   2  -9   14.45    3.37   1
  -3  -2   9   16.64    3.41   1
  -3  -2   9   18.82    3.15   4
   2   2  -9   17.16    3.15   1
  -2  -2   9    9.93    2.86   1
  -2  -2   9    8.38    2.45   4
  -1  -2   9   17.27    3.18   5
  -1  -2   9   20.50    3.31   4
   1   2  -9   12.64    2.99   1
  -1  -2   9   18.70    3.23   1
   0  -2   9    6.55    2.30   1
   0  -2   9    4.85    2.16   4
   0  -2   9    6.82    2.29   5
   0   2  -9    3.09    1.97   1
   1  -2   9   -1.75    1.60   4
   1  -2   9    1.36    1.78   1
  -1   2  -9    1.40    1.52   1
   1  -2   9    1.37    1.48   5
   2  -2   9    7.35    2.48   4
   2  -2   9    8.18    2.29   5
  -2   2  -9    4.31    2.06   1
   2  -2   9    7.92    2.48   1
   3  -2   9    2.50    1.93   5
   3  -2   9    0.26    1.87   4
  -3   2  -9    1.72    1.88   1
   3  -2   9    6.53    2.42   1
   4  -2   9    7.94    2.89   4
   4  -2   9    9.64    2.69   5
  -4   2  -9   13.17    2.95   1
   4  -2   9    6.73    2.40   1
  -5   2  -9    0.88    1.87   1
   5  -2   9    2.90    2.73   4
   5  -2   9   -1.89    1.61   1
  -6   2  -9    0.66    2.31   1
   6  -2   9    2.43    2.40   1
  -6  -1   9   -0.10    2.16   1
   6   1  -9    5.36    2.91   1
   5   1  -9    7.11    2.97   1
  -5  -1   9    3.32    2.37   1
  -4  -1   9   -0.43    1.84   1
   4   1  -9   -0.38    1.95   1
   3   1  -9   22.37    3.78   1
  -3  -1   9    8.94    2.54   1
  -3  -1   9   23.01    3.06   4
  -2  -1   9   22.57    3.17   4
  -2  -1   9   24.18    3.58   1
   2   1  -9   23.54    3.51   1
  -1  -1   9   18.49    3.08   5
  -1  -1   9   23.77    3.27   4
  -1  -1   9   14.57    2.87   1
   1   1  -9   22.82    3.13   5
   1   1  -9   17.77    3.04   1
   0  -1   9   62.77    4.85   4
   0  -1   9   66.19    4.74   5
   0  -1   9   64.82    4.67   1
   0   1  -9   67.86    4.80   1
   0   1  -9   59.00    4.52   5
   1  -1   9    1.51    1.64   4
   1  -1   9   -0.47    1.43   5
   1  -1   9    2.14    1.62   1
  -1   1  -9    0.03    1.55   1
  -1   1  -9    0.61    1.43   5
  -2   1  -9   26.05    3.41   1
   2  -1   9   28.55    3.49   5
   2  -1   9   21.93    3.47   4
   2  -1   9   29.61    3.59   1
  -3   1  -9   -0.75    1.56   1
   3  -1   9    2.77    2.13   4
   3  -1   9    2.46    1.74   5
   3  -1   9    1.59    1.63   1
   4  -1   9   -0.07    1.65   1
  -4   1  -9    0.12    1.64   1
   4  -1   9    3.13    1.99   5
   4  -1   9    0.18    2.05   4
   5  -1   9   -0.21    1.91   1
  -5   1  -9   -1.44    1.76   1
   6  -1   9    3.19    2.27   1
  -6   1  -9   -0.49    2.05   1
  -7   1  -9    2.70    2.45   1
   7  -1   9   -0.56    2.25   1
   6   0  -9    1.04    2.59   1
  -6   0   9    2.09    2.49   1
   5   0  -9    2.38    2.48   1
  -5   0   9   -1.37    1.54   1
  -4   0   9    2.82    1.96   1
   4   0  -9   -0.42    2.25   1
  -3   0   9   -0.04    1.71   1
  -3   0   9    0.63    1.58   4
   3   0  -9   -2.65    1.75   1
   2   0  -9   12.11    2.91   1
  -2   0   9   15.60    2.59   4
  -2   0   9    5.92    2.25   1
   2   0  -9    8.89    2.53   5
   1   0  -9    4.93    2.13   1
  -1   0   9    2.00    1.66   1
  -1   0   9    6.16    1.99   4
   1   0  -9    1.00    1.54   5
   0   0   9   40.60    3.76   5
   0   0   9   45.73    4.10   1
   0   0  -9   47.39    4.31   5
   0   0  -9   32.24    3.70   1
   0   0   9   46.04    4.11   4
   0   0  -9   37.67    3.73   5
  -1   0  -9   22.82    3.14   5
   1   0   9   24.13    3.16   1
  -1   0  -9   23.60    3.22   1
  -1   0  -9   29.27    3.50   5
   1   0   9   30.21    3.51   4
   1   0   9   28.71    3.29   5
   2   0   9   16.35    2.78   5
   2   0   9   11.11    2.71   4
  -2   0  -9   20.76    3.11   1
   2   0   9   15.08    2.85   1
  -2   0  -9   12.52    2.45   5
  -3   0  -9   28.73    3.69   1
   3   0   9   29.83    3.61   1
   3   0   9   27.86    3.79   4
   3   0   9   30.94    3.62   5
  -4   0  -9    0.52    1.83   1
   4   0   9   -0.19    1.45   1
  -5   0  -9    2.11    1.96   1
   5   0   9    5.80    2.34   1
  -6   0  -9    1.74    2.27   1
   6   0   9    7.52    2.82   1
  -7   0  -9    1.40    2.29   1
   7   0   9    0.27    2.05   1
   5  -1  -9   -0.65    2.12   1
  -5   1   9   -1.47    1.63   1
  -4   1   9   -0.94    1.64   1
   4  -1  -9    1.50    2.20   1
  -4   1   9    1.09    2.37   3
   3  -1  -9   -0.75    1.66   5
   3  -1  -9   -0.37    1.92   1
  -3   1   9   -0.77    1.50   1
   2  -1  -9   -0.29    1.39   5
  -2   1   9   -1.11    1.35   1
   2  -1  -9   -0.86    1.51   1
  -2   1   9   -0.80    1.36   4
  -1   1   9    1.31    1.63   4
  -1   1   9   -0.67    1.53   1
   1  -1  -9    0.50    1.49   5
   1  -1  -9    0.91    1.64   2
   1  -1  -9    4.25    1.96   1
   0  -1  -9    6.10    2.17   1
   0   1   9    7.66    2.21   4
   0  -1  -9    7.90    2.32   5
   0   1   9   10.42    2.28   1
   0  -1  -9    8.26    2.10   5
   1   1   9   14.76    2.45   5
  -1  -1  -9   15.23    2.67   5
  -1  -1  -9   13.01    2.51   5
  -1  -1  -9    9.36    2.40   1
   1   1   9   15.96    2.68   1
   1   1   9   18.40    2.96   4
   2   1   9    0.78    1.76   4
  -2  -1  -9    5.09    1.93   1
  -2  -1  -9    5.87    2.09   5
  -2  -1  -9    4.40    1.91   5
   2   1   9    4.84    1.99   1
   2   1   9    5.33    1.91   5
   3   1   9   19.65    2.99   5
  -3  -1  -9   20.78    3.15   1
  -3  -1  -9   13.59    2.73   5
   3   1   9   28.56    3.47   1
  -4  -1  -9    2.22    1.75   5
  -4  -1  -9    1.30    1.68   1
   4   1   9    0.15    1.50   1
  -5  -1  -9    0.13    1.66   1
   5   1   9   -2.12    1.23   1
   6   1   9    0.70    2.06   1
  -6  -1  -9    2.78    2.22   1
   7   1   9   -0.48    2.19   1
  -7  -1  -9   -0.71    1.99   1
  -8  -1  -9    0.63    2.46   1
   8   1   9    1.08    2.57   1
  -5   2   9   -1.38    1.74   1
   5  -2  -9    0.67    2.42   1
  -4   2   9    1.12    1.81   1
   4  -2  -9    0.93    2.18   1
  -4   2   9    2.78    2.70   3
   4  -2  -9    4.70    2.50   5
   3  -2  -9   10.20    2.90   1
  -3   2   9   10.07    3.00   3
   3  -2  -9    5.45    2.45   5
  -3   2   9    5.84    2.16   1
   2  -2  -9    0.18    1.74   1
   2  -2  -9   -1.23    1.57   2
  -2   2   9   -0.47    1.41   1
   2  -2  -9    0.41    1.60   5
   1  -2  -9    6.30    2.05   2
   1  -2  -9    4.23    1.92   5
  -1   2   9    1.49    1.51   1
   1  -2  -9    6.97    2.26   1
   0  -2  -9    1.69    1.81   1
   0   2   9    3.57    1.65   1
   0  -2  -9    2.04    1.51   5
   0   2   9    6.35    1.78   5
  -1  -2  -9    5.45    2.18   1
  -1  -2  -9    6.61    2.02   5
   1   2   9    7.15    2.04   1
  -1  -2  -9    5.92    1.91   5
  -2  -2  -9    5.64    1.90   5
  -2  -2  -9    4.83    1.82   5
  -2  -2  -9    4.62    1.90   1
   2   2   9    2.15    1.63   1
   3   2   9   14.72    2.59   5
  -3  -2  -9   12.27    2.55   5
  -3  -2  -9   12.08    2.66   1
   3   2   9   15.23    2.69   1
  -4  -2  -9    3.49    1.81   1
   4   2   9    1.50    1.69   1
  -4  -2  -9   -2.04    1.13   5
   5   2   9    1.73    1.80   1
  -5  -2  -9   -0.46    1.56   1
  -6  -2  -9    0.71    1.88   1
   6   2   9    4.80    2.37   1
  -7  -2  -9    5.11    2.62   1
   7   2   9   -2.02    1.92   1
  -8  -2  -9    1.74    2.66   1
   8   2   9   -0.37    2.35   1
  -5   3   9    1.51    2.19   1
   4  -3  -9    1.41    2.09   5
  -4   3   9    1.50    1.93   1
   3  -3  -9    8.83    2.65   5
  -3   3   9    8.03    2.80   3
  -3   3   9    8.16    2.29   1
   3  -3  -9   11.33    3.15   1
  -2   3   9    3.55    2.32   3
  -2   3   9    5.71    1.94   1
   2  -3  -9    7.19    2.38   1
   2  -3  -9    2.98    1.89   5
   2  -3  -9    4.68    2.03   2
   1  -3  -9    7.34    2.26   2
   1  -3  -9    9.55    2.37   1
   1  -3  -9    9.09    2.38   5
  -1   3   9    9.83    2.26   1
   0  -3  -9   23.07    3.03   5
   0   3   9   23.18    2.85   1
   0  -3  -9   24.49    2.94   2
   0  -3  -9   25.78    3.10   1
  -1  -3  -9    1.18    1.45   5
  -1  -3  -9    0.67    1.60   1
   1   3   9    1.26    1.32   5
   1   3   9    0.95    1.38   1
  -1  -3  -9    1.09    1.33   2
   2   3   9    4.74    1.86   1
   2   3   9    6.40    1.91   5
  -2  -3  -9    8.55    2.16   5
  -2  -3  -9    9.14    2.38   1
  -3  -3  -9   12.15    2.53   5
   3   3   9    9.48    2.19   1
  -3  -3  -9   13.62    2.60   1
  -4  -3  -9    0.60    1.75   1
   4   3   9    0.13    1.34   1
  -4  -3  -9   -2.08    1.14   5
  -5  -3  -9    1.10    1.91   1
   5   3   9    4.68    1.99   1
  -5  -3  -9    9.83    2.66   5
  -6  -3  -9   -1.42    1.58   1
   6   3   9    2.00    1.97   1
  -7  -3  -9   -0.50    2.11   1
   7   3   9    0.49    1.91   1
   8   3   9   -1.62    1.89   1
  -8  -3  -9    3.32    2.60   1
  -5   4   9    4.19    2.34   1
  -4   4   9   -0.62    1.73   1
   4  -4  -9    1.36    2.07   5
  -3   4   9    0.37    1.57   1
   3  -4  -9    2.02    1.95   5
   3  -4  -9   -1.13    1.89   2
   2  -4  -9   16.03    2.90   2
  -2   4   9   11.72    2.35   1
   2  -4  -9    8.63    2.62   1
   2  -4  -9   12.94    2.74   5
  -2   4   9   12.35    3.21   3
  -1   4   9   -0.04    1.21   1
   1  -4  -9    0.95    1.50   5
   1  -4  -9    0.98    1.60   2
   1  -4  -9    1.15    1.56   1
  -1   4   9    0.58    1.99   3
   0  -4  -9   21.35    2.71   2
   0   4   9   24.60    2.72   1
   0  -4  -9   19.71    2.76   1
   0  -4  -9   20.01    2.64   2
   0  -4  -9   23.59    2.98   5
  -1  -4  -9   25.39    2.77   2
   1   4   9   25.99    2.81   1
  -1  -4  -9   22.50    2.89   5
  -1  -4  -9   25.27    3.08   1
   2   4   9    3.57    1.44   5
  -2  -4  -9    4.33    1.75   5
  -2  -4  -9    2.60    1.70   1
  -2  -4  -9    3.05    1.68   2
   2   4   9    2.98    1.55   1
   3   4   9   29.09    3.25   1
  -3  -4  -9   31.18    3.32   5
  -3  -4  -9   25.42    3.16   1
  -4  -4  -9    4.92    2.10   5
  -4  -4  -9    2.47    1.77   1
   4   4   9    1.97    1.74   1
   5   4   9    1.65    1.70   1
  -5  -4  -9    3.11    2.12   5
  -5  -4  -9    1.65    1.79   1
  -6  -4  -9    9.81    2.85   1
   6   4   9   11.50    2.88   1
   7   4   9   -0.92    1.82   1
  -7  -4  -9    4.01    2.52   1
  -8  -4  -9    5.60    2.96   1
   8   4   9    3.63    2.68   1
  -4   5   9    4.96    2.23   1
   3  -5  -9    6.00    2.27   5
   3  -5  -9    2.92    2.17   2
  -3   5   9    3.03    1.78   1
   2  -5  -9    5.45    2.01   5
  -2   5   9    4.63    1.67   1
   2  -5  -9    2.11    1.96   2
   1  -5  -9    4.12    1.92   2
   1  -5  -9    2.26    1.65   5
  -1   5   9    5.17    2.62   3
  -1   5   9    5.35    1.77   1
   0   5   9    0.48    1.19   1
   0  -5  -9    0.17    1.46   1
   0   5   9    3.51    2.19   3
   0  -5  -9   -1.12    1.35   2
   0  -5  -9    1.40    1.43   5
   0  -5  -9   -1.75    1.09   2
  -1  -5  -9   -1.51    1.12   5
   1   5   9    1.91    1.32   1
  -1  -5  -9   -1.06    1.34   1
  -1  -5  -9    0.71    1.26   2
   1   5   9   -0.52    1.79   3
  -2  -5  -9    0.24    1.48   1
  -2  -5  -9   -1.09    1.20   5
  -2  -5  -9   -0.39    1.13   2
   2   5   9   -0.70    1.09   1
   3   5   9    2.73    1.50   1
  -3  -5  -9    3.47    1.64   5
  -3  -5  -9    0.75    1.57   1
   4   5   9    2.42    1.62   1
  -4  -5  -9    0.75    1.51   1
  -4  -5  -9    1.80    1.63   5
  -5  -5  -9    0.96    1.63   1
  -5  -5  -9    0.37    1.42   5
   5   5   9   -0.38    1.39   1
  -6  -5  -9    5.02    2.33   1
   6   5   9    0.89    1.74   1
  -6  -5  -9    0.48    1.57   5
  -7  -5  -9    2.93    2.34   1
   7   5   9    1.94    2.01   1
  -8  -5  -9    3.46    2.63   1
   8   5   9   -0.65    2.19   1
  -4   6   9    0.37    1.58   1
   3  -6  -9    0.33    1.93   2
  -3   6   9    1.15    1.44   1
  -2   6   9    3.06    1.43   1
   2  -6  -9   -1.35    1.57   2
   2  -6  -9    4.83    2.02   5
   1  -6  -9   -0.07    1.32   5
  -1   6   9   -1.24    2.04   3
  -1   6   9   -0.29    1.14   1
   1  -6  -9   -1.52    1.45   2
   0   6   9    9.10    1.67   1
   0  -6  -9    4.50    1.74   5
   0  -6  -9    9.38    2.10   2
   0  -6  -9    8.88    1.98   2
   0   6   9    9.44    2.94   3
   1   6   9   15.00    3.26   3
  -1  -6  -9   15.15    2.39   2
  -1  -6  -9   16.29    2.33   2
  -1  -6  -9   12.84    2.24   5
   1   6   9   17.26    2.09   1
   2   6   9    3.44    1.45   1
  -2  -6  -9    4.23    1.67   2
  -2  -6  -9    6.03    1.97   5
   2   6   9    1.13    2.01   3
   3   6   9   53.56    4.61   3
  -3  -6  -9   47.82    3.88   5
  -3  -6  -9   59.20    4.20   1
   3   6   9   51.67    3.55   1
  -4  -6  -9    2.67    1.58   5
   4   6   9    0.87    1.74   3
   4   6   9    0.23    1.42   1
  -4  -6  -9   -0.71    1.45   1
  -5  -6  -9   32.36    3.95   5
   5   6   9   17.63    2.92   1
   5   6   9   21.47    3.15   3
  -5  -6  -9   20.08    3.22   1
   6   6   9    4.01    2.19   1
  -6  -6  -9    1.99    2.05   5
  -6  -6  -9   -1.15    1.56   1
   7   6   9    0.34    1.79   1
  -7  -6  -9    3.09    2.29   1
  -8  -6  -9   -2.25    2.22   1
   8   6   9   -0.07    2.09   1
   3  -7  -9    3.00    2.21   2
   2  -7  -9    4.06    1.99   2
   1  -7  -9    3.84    1.80   2
   0  -7  -9    9.07    2.08   5
   0  -7  -9   10.56    2.15   2
   0  -7  -9    8.10    1.95   2
   0   7   9    7.62    1.16   1
  -1  -7  -9    0.16    1.12   5
   1   7   9    0.68    0.96   1
  -1  -7  -9    0.83    1.29   2
  -1  -7  -9    2.55    1.45   2
   1   7   9    1.28    2.13   3
   2   7   9    1.12    1.10   1
  -2  -7  -9    3.13    1.52   2
  -2  -7  -9    1.32    1.38   5
   2   7   9    0.23    1.97   3
   3   7   9    8.15    2.67   3
  -3  -7  -9    3.37    1.58   5
   3   7   9    7.61    1.80   1
  -4  -7  -9    5.77    2.04   5
   4   7   9    1.08    1.53   1
   4   7   9    1.23    1.85   3
   5   7   9   -0.16    1.72   3
   5   7   9    2.27    1.63   1
  -5  -7  -9    0.78    1.59   5
   6   7   9    3.37    1.97   1
  -6  -7  -9    4.42    2.24   5
   7   7   9    3.11    2.26   1
  -7  -7  -9    2.61    2.42   5
   8   7   9    0.30    2.34   1
   2  -8  -9    1.71    1.80   2
   1  -8  -9   -0.01    1.57   2
   0  -8  -9    0.55    1.36   5
   0  -8  -9    2.43    1.61   2
  -1  -8  -9    2.28    1.45   2
  -1  -8  -9   -0.11    1.35   2
  -1  -8  -9    1.64    1.31   5
  -2  -8  -9   -0.68    1.00   5
   2   8   9   -1.26    1.98   3
  -2  -8  -9    1.39    1.44   2
   3   8   9    4.17    2.37   3
   3   8   9    3.54    1.17   1
  -3  -8  -9    4.59    1.73   5
   4   8   9    4.53    2.30   3
   4   8   9    5.26    1.59   1
  -4  -8  -9    0.23    1.40   5
   5   8   9    0.92    1.86   3
  -5  -8  -9    1.77    1.77   5
   5   8   9   -1.06    1.29   1
   6   8   9    5.66    2.07   1
  -6  -8  -9    4.70    2.32   5
  -7  -8  -9    2.56    2.40   5
   7   8   9    1.65    2.03   1
   8   8   9    2.02    2.19   1
   1  -9  -9   -1.44    1.60   2
   0  -9  -9    0.42    1.44   2
  -1  -9  -9    0.21    1.26   2
  -1  -9  -9    0.26    1.44   2
  -2  -9  -9    0.05    1.40   2
  -2  -9  -9    2.24    1.41   5
  -3  -9  -9   -0.80    1.19   5
   3   9   9    2.39    2.18   3
   4   9   9    4.51    2.52   3
  -4  -9  -9    6.00    2.21   5
   5   9   9   -0.19    1.28   1
  -5  -9  -9    1.33    1.81   5
   6   9   9    5.71    2.13   1
   7   9   9    1.03    1.99   1
  -1 -10  -9    0.56    1.32   2
  -1 -10  -9   -0.14    1.46   2
  -3  -6  10    1.70    2.76   1
  -3  -6  10    2.63    2.84   4
   3   6 -10   -0.45    2.12   1
   2   6 -10    2.50    2.39   1
  -2  -6  10   -1.75    2.35   4
  -2  -6  10   -0.97    2.17   1
  -1  -6  10   -0.09    2.41   4
   1   6 -10    0.68    2.03   1
   0   6 -10    0.05    2.01   1
   0  -6  10    2.35    2.55   4
  -1   6 -10    8.22    2.67   1
   1  -6  10    4.55    3.05   4
  -2   6 -10   -1.53    1.87   1
   2  -6  10    0.32    2.71   4
  -4  -5  10    0.94    2.36   1
  -4  -5  10    0.91    2.60   4
   4   5 -10   -0.56    2.15   1
   3   5 -10    4.25    2.64   1
  -3  -5  10    2.85    2.50   1
  -3  -5  10   -2.14    2.13   4
  -2  -5  10   -0.44    2.10   4
   2   5 -10    1.34    2.25   1
  -2  -5  10    0.89    2.24   1
  -1  -5  10   -2.42    2.08   4
   1   5 -10    1.52    2.17   1
  -1  -5  10   -1.61    1.68   1
   0  -5  10    2.47    2.69   4
   0  -5  10    1.74    2.16   1
   0   5 -10    1.20    1.95   1
  -1   5 -10   -1.55    1.55   1
   1  -5  10    0.70    2.35   4
   1  -5  10    1.14    2.22   1
   2  -5  10    1.77    2.69   4
  -2   5 -10   -2.38    1.62   1
   3  -5  10    1.00    2.60   4
  -3   5 -10    0.45    2.12   1
  -4  -4  10    1.33    2.18   4
  -4  -4  10    0.99    2.46   1
   4   4 -10    0.95    2.32   1
   3   4 -10   -2.75    1.69   1
  -3  -4  10    3.89    2.47   1
  -3  -4  10    0.27    2.05   4
   2   4 -10    8.62    2.80   1
  -2  -4  10    8.52    2.91   4
  -2  -4  10   10.03    2.96   1
  -1  -4  10    6.05    2.80   4
  -1  -4  10    5.21    2.47   1
   1   4 -10    3.35    2.33   1
   0  -4  10    3.04    2.36   4
   0  -4  10    2.62    2.21   1
   0   4 -10    1.79    2.03   1
   1  -4  10    7.14    2.59   1
   1  -4  10    4.63    2.63   4
  -1   4 -10    3.41    2.01   1
   2  -4  10   -0.95    2.34   4
  -2   4 -10    0.91    1.95   1
   2  -4  10    0.68    1.87   1
   3  -4  10    6.73    2.90   4
   3  -4  10    1.22    2.13   1
  -3   4 -10    1.79    2.05   1
   4  -4  10   -0.57    2.60   4
  -4   4 -10   -2.22    1.68   1
   5   3 -10   -1.57    2.45   1
  -5  -3  10   -1.04    2.14   1
   4   3 -10    1.11    2.39   1
  -4  -3  10    0.90    2.34   1
  -4  -3  10   -0.68    2.23   4
  -3  -3  10   -1.74    1.71   1
   3   3 -10   -1.92    1.72   1
  -3  -3  10    0.86    2.27   4
  -2  -3  10    0.65    1.84   4
   2   3 -10    1.93    2.03   1
  -2  -3  10    2.69    2.15   1
   1   3 -10   -2.91    1.58   1
  -1  -3  10   -1.77    1.80   1
  -1  -3  10    2.20    2.20   4
   0  -3  10    0.77    1.63   1
   0  -3  10   -0.36    1.76   4
   0   3 -10    1.95    2.00   1
  -1   3 -10    2.15    1.97   1
   1  -3  10   -0.46    1.60   1
   1  -3  10    2.54    2.33   4
  -2   3 -10   11.69    3.05   1
   2  -3  10   17.42    3.71   4
   2  -3  10   16.00    3.36   1
   3  -3  10   -1.29    1.73   1
  -3   3 -10   -2.86    1.26   1
   3  -3  10    0.71    2.23   4
   4  -3  10    2.71    2.15   1
  -4   3 -10    5.76    2.60   1
   4  -3  10    6.59    3.13   4
   5  -3  10    3.18    2.84   4
   5  -3  10   -0.84    1.93   1
  -5   3 -10   -0.02    2.13   1
   5   2 -10    1.27    2.72   1
  -5  -2  10    1.54    2.32   1
  -4  -2  10    1.11    2.34   1
   4   2 -10    0.81    2.42   1
  -3  -2  10    3.22    2.18   4
   3   2 -10   -1.79    1.65   1
  -3  -2  10   -1.35    1.80   1
  -2  -2  10    1.70    2.17   1
   2   2 -10    1.37    2.19   1
  -2  -2  10    4.33    2.33   4
  -1  -2  10    8.09    2.59   4
  -1  -2  10    9.20    2.85   1
   1   2 -10    9.34    2.81   1
   0   2 -10    2.85    2.06   1
   0  -2  10    2.38    2.30   4
   0  -2  10    6.55    2.38   1
   1  -2  10    6.47    2.47   4
   1  -2  10    6.81    2.43   1
  -1   2 -10    8.97    2.67   1
   2  -2  10    1.67    1.90   4
  -2   2 -10    1.39    1.81   1
   2  -2  10    1.00    1.95   1
   3  -2  10    1.15    2.08   4
  -3   2 -10    0.97    1.78   1
   3  -2  10    0.68    1.71   1
  -4   2 -10   -1.41    1.60   1
   4  -2  10    1.25    1.95   1
   4  -2  10   -0.47    2.04   4
   5  -2  10    2.16    2.41   1
  -5   2 -10    1.35    1.92   1
   5  -2  10    0.39    2.51   4
  -6   2 -10    0.49    2.24   1
   6  -2  10   -1.68    2.14   1
   5   1 -10    3.50    2.72   1
  -5  -1  10    5.49    2.73   1
  -4  -1  10   -2.78    1.60   1
   4   1 -10    1.35    2.39   1
  -3  -1  10    2.58    2.03   4
   3   1 -10    1.86    2.32   1
  -3  -1  10    2.00    1.95   1
   2   1 -10    0.33    1.67   1
  -2  -1  10   -1.50    1.73   1
  -2  -1  10    0.61    1.76   4
  -1  -1  10   -0.01    1.80   4
  -1  -1  10    1.86    1.92   1
   1   1 -10    0.65    1.99   1
   0  -1  10    1.97    2.03   4
   0   1 -10    0.66    1.85   1
   0  -1  10    1.59    1.76   1
   1  -1  10    5.96    2.34   4
  -1   1 -10    7.88    2.50   1
   1  -1  10   12.51    2.87   1
   2  -1  10    5.39    2.54   4
  -2   1 -10    9.41    2.52   1
   2  -1  10    4.65    2.18   1
   3  -1  10    2.91    2.08   1
  -3   1 -10    0.28    1.74   1
   3  -1  10    1.55    1.95   4
  -4   1 -10    2.32    1.98   1
   4  -1  10    7.08    2.88   4
   4  -1  10    2.37    1.89   1
   5  -1  10   -0.95    1.96   1
  -5   1 -10    1.04    2.02   1
  -6   1 -10   -0.52    1.95   1
   6  -1  10    1.88    2.38   1
  -5   0  10    1.84    2.39   1
   5   0 -10    3.62    2.97   1
  -4   0  10    0.24    2.04   1
   4   0 -10   -0.68    2.24   1
   3   0 -10    1.15    2.08   1
  -3   0  10    0.06    1.78   1
  -2   0  10    8.20    2.45   1
   2   0 -10    1.17    1.88   1
  -2   0  10    3.59    2.03   4
  -1   0  10    1.94    1.82   1
   1   0 -10    0.05    1.87   1
  -1   0  10   -0.62    1.67   4
   0   0 -10    0.05    1.82   1
   0   0  10    0.21    1.44   1
   0   0 -10    0.82    1.61   5
   0   0  10   -0.40    1.66   4
   1   0  10    9.95    2.66   4
  -1   0 -10    8.54    2.46   5
  -1   0 -10    8.44    2.46   1
   1   0  10   10.21    2.51   1
   2   0  10    5.99    2.43   4
   2   0  10    8.43    2.45   1
  -2   0 -10    7.95    2.43   1
   3   0  10    2.99    2.31   4
   3   0  10   -0.30    1.50   1
  -3   0 -10   -0.01    1.66   1
   4   0  10    7.10    2.49   1
  -4   0 -10    6.72    2.60   1
   5   0  10   -1.31    1.49   1
  -5   0 -10   -0.14    1.87   1
  -6   0 -10    1.74    2.25   1
   6   0  10   -0.24    1.94   1
  -7   0 -10    0.95    2.29   1
   7   0  10    1.80    2.62   1
  -5   1  10    3.45    2.56   1
   5  -1 -10    0.56    2.72   1
   4  -1 -10    2.23    2.47   1
  -4   1  10    1.59    2.17   1
   3  -1 -10   -0.14    2.00   1
  -3   1  10    2.67    2.04   1
  -2   1  10   15.01    2.65   4
  -2   1  10    8.11    2.54   1
   2  -1 -10   10.85    3.02   5
   2  -1 -10   10.43    2.78   1
  -1   1  10   14.68    2.97   1
   1  -1 -10   12.42    2.88   5
   1  -1 -10    9.70    2.74   1
  -1   1  10   10.98    2.61   4
   0   1  10    1.23    1.57   1
   0  -1 -10    1.71    1.89   1
   0   1  10    2.47    1.94   4
   0  -1 -10   -0.83    1.47   5
   1   1  10   16.32    2.93   1
  -1  -1 -10   19.37    3.14   5
  -1  -1 -10   16.17    3.01   1
   1   1  10   22.61    3.36   4
  -2  -1 -10    3.29    1.89   5
   2   1  10    2.88    2.13   4
   2   1  10    2.04    1.76   1
  -2  -1 -10    2.18    1.80   1
  -3  -1 -10    4.65    2.03   1
   3   1  10   -0.79    1.39   1
  -4  -1 -10    2.99    2.04   1
   4   1  10    3.83    1.95   1
  -5  -1 -10    4.23    2.29   1
   5   1  10    1.16    1.95   1
  -6  -1 -10   -1.21    2.04   1
   6   1  10   -2.21    1.74   1
  -7  -1 -10    1.03    2.52   1
   7   1  10    2.03    2.31   1
  -5   2  10    0.59    2.15   1
  -4   2  10    0.58    1.96   1
   4  -2 -10    1.23    2.51   1
   3  -2 -10   -0.72    1.95   5
  -3   2  10    6.76    2.41   1
   3  -2 -10    2.78    2.36   1
  -2   2  10    3.84    1.91   1
   2  -2 -10    1.40    1.90   1
   2  -2 -10   -0.68    1.59   5
   1  -2 -10    0.07    1.81   1
   1  -2 -10    0.78    1.74   5
  -1   2  10    0.64    1.63   1
   0  -2 -10    1.96    1.68   5
   0  -2 -10    3.21    1.86   1
   0   2  10    0.66    1.49   1
   1   2  10    1.89    1.48   1
  -1  -2 -10    0.56    1.47   5
  -1  -2 -10    1.85    1.68   1
  -2  -2 -10   14.54    2.86   5
   2   2  10   11.42    2.48   1
  -2  -2 -10   13.94    2.97   1
   3   2  10    9.10    2.53   1
  -3  -2 -10   11.84    2.77   1
  -3  -2 -10   10.95    2.56   5
  -4  -2 -10    7.00    2.55   1
   4   2  10    7.76    2.55   1
   5   2  10   21.89    3.78   1
  -5  -2 -10   16.27    3.41   1
   6   2  10    0.84    2.06   1
  -6  -2 -10   -0.93    1.89   1
  -7  -2 -10    4.87    2.78   1
   7   2  10    2.00    2.26   1
  -4   3  10    0.27    2.06   1
  -3   3  10    0.48    1.75   1
   3  -3 -10   -0.07    1.88   5
   3  -3 -10   -1.90    1.84   1
   2  -3 -10    9.15    2.64   5
  -2   3  10   13.11    2.75   1
   2  -3 -10   14.70    2.97   1
  -2   3  10   13.99    3.61   3
   1  -3 -10    8.81    2.65   5
   1  -3 -10    9.89    2.76   1
   1  -3 -10    8.54    2.44   2
  -1   3  10   12.05    2.53   1
   0  -3 -10    8.27    2.35   5
   0  -3 -10   10.47    2.58   1
   0   3  10    8.61    2.25   1
  -1  -3 -10   31.68    3.70   1
   1   3  10   28.58    3.38   1
  -1  -3 -10   26.84    3.38   5
  -2  -3 -10   -1.11    1.30   5
  -2  -3 -10    3.84    2.00   1
   2   3  10    1.54    1.65   1
  -3  -3 -10   21.13    3.32   1
  -3  -3 -10   20.53    3.23   5
   3   3  10   16.16    2.95   1
  -4  -3 -10    0.14    1.64   1
  -4  -3 -10   -0.61    1.43   5
   4   3  10   -0.96    1.36   1
  -5  -3 -10    2.65    2.04   1
   5   3  10    4.44    2.18   1
  -6  -3 -10    1.32    2.13   1
   6   3  10    2.09    2.16   1
  -7  -3 -10   -0.23    2.27   1
   7   3  10    1.94    2.49   1
   8   3  10    3.32    2.91   1
  -8  -3 -10    0.28    2.57   1
   4  -4 -10    0.89    2.42   5
  -4   4  10    0.78    1.91   1
  -3   4  10    1.15    1.83   1
   3  -4 -10    2.08    2.11   5
  -2   4  10    2.10    1.68   1
   2  -4 -10    0.67    1.84   5
   2  -4 -10    2.82    2.13   2
  -1   4  10   10.62    3.12   3
   1  -4 -10   10.38    2.72   1
   1  -4 -10   13.27    2.66   2
   1  -4 -10    5.06    2.11   5
  -1   4  10    4.76    1.94   1
   0  -4 -10    0.34    1.56   2
   0  -4 -10    4.09    1.92   5
   0   4  10    0.08    1.34   1
   0  -4 -10    0.84    1.71   1
   1   4  10    7.22    2.08   1
  -1  -4 -10   10.52    2.57   1
  -1  -4 -10   10.42    2.55   5
  -2  -4 -10   23.21    3.30   1
  -2  -4 -10   23.92    3.33   5
   2   4  10   23.47    3.05   1
  -3  -4 -10   -0.52    1.41   1
  -3  -4 -10    0.44    1.38   5
   3   4  10    1.14    1.54   1
   4   4  10   28.19    3.53   1
  -4  -4 -10   27.42    3.61   1
  -4  -4 -10   34.50    4.02   5
  -5  -4 -10    6.21    2.55   5
   5   4  10    6.30    2.34   1
  -5  -4 -10    1.98    1.92   1
   6   4  10   11.90    3.08   1
  -6  -4 -10    5.31    2.58   1
  -7  -4 -10    0.61    2.08   1
   7   4  10    1.79    2.30   1
   8   4  10    0.46    2.46   1
  -8  -4 -10    1.26    2.66   1
   3  -5 -10    1.55    2.11   5
  -3   5  10    0.69    1.79   1
   2  -5 -10   -1.02    1.90   2
  -2   5  10    1.54    1.64   1
   1  -5 -10    0.53    1.75   2
   1  -5 -10    0.66    1.76   5
  -1   5  10    0.21    1.33   1
   0  -5 -10    0.28    1.46   5
   0   5  10   -0.63    1.29   1
   0  -5 -10    0.95    1.53   2
   0   5  10   -0.73    2.18   3
   1   5  10   -1.47    1.17   1
  -1  -5 -10    0.75    1.47   5
  -1  -5 -10    0.42    1.50   1
   1   5  10    2.54    2.24   3
  -2  -5 -10    2.32    1.70   5
   2   5  10    2.84    1.66   1
  -2  -5 -10    3.31    1.91   1
  -3  -5 -10    5.91    2.06   5
   3   5  10    5.28    1.98   1
  -3  -5 -10    4.51    1.95   1
  -4  -5 -10    2.78    1.96   1
   4   5  10    8.00    2.34   1
  -4  -5 -10    2.89    1.79   5
   5   5  10    9.00    2.49   1
  -5  -5 -10    7.55    2.53   5
  -5  -5 -10   10.31    2.75   1
   6   5  10   -3.22    1.59   1
  -6  -5 -10   -0.18    1.89   1
   7   5  10   -1.45    1.81   1
  -7  -5 -10    6.06    2.86   1
  -8  -5 -10   -0.15    2.23   1
   8   5  10    4.60    2.68   1
  -3   6  10    2.01    1.77   1
  -2   6  10    0.72    1.43   1
   2  -6 -10    0.90    1.63   5
   2  -6 -10    1.27    1.98   2
   1  -6 -10    1.07    1.77   2
   1  -6 -10    6.51    2.16   5
  -1   6  10    5.37    1.75   1
   0   6  10   -0.97    1.17   1
   0  -6 -10   -0.46    1.43   2
   0  -6 -10   -1.06    1.19   5
   1   6  10    8.62    1.89   1
   1   6  10    8.09    2.93   3
  -1  -6 -10    7.31    2.11   5
  -2  -6 -10    1.32    1.54   5
   2   6  10   -1.94    1.80   3
   2   6  10    1.86    1.40   1
   3   6  10   -0.92    1.29   1
   3   6  10   -2.59    1.60   3
  -3  -6 -10   -0.75    1.36   5
  -4  -6 -10    4.27    1.99   5
  -4  -6 -10    3.75    2.01   1
   4   6  10    3.58    2.40   3
   4   6  10    2.23    1.81   1
  -5  -6 -10   -0.42    1.52   5
  -5  -6 -10    0.25    1.74   1
   5   6  10   -0.25    1.49   1
   5   6  10   -0.67    1.90   3
  -6  -6 -10   -1.30    1.61   5
  -6  -6 -10   -0.12    1.89   1
   6   6  10    0.25    1.77   1
   7   6  10    1.05    2.08   1
  -7  -6 -10    0.28    2.27   1
  -8  -6 -10    2.43    2.66   1
   2  -7 -10    3.61    2.15   2
   1  -7 -10   -0.05    1.72   2
   0   7  10    1.63    1.20   1
   0  -7 -10    1.41    1.49   5
   0  -7 -10    0.53    1.48   2
  -1  -7 -10   13.86    2.58   5
  -1  -7 -10   11.61    2.42   2
   1   7  10   16.68    1.99   1
  -2  -7 -10   -0.09    1.38   5
   2   7  10   -0.67    1.20   1
   2   7  10    0.28    1.90   3
   3   7  10    0.36    1.31   1
  -3  -7 -10    2.98    1.68   5
   3   7  10   -1.61    1.83   3
   4   7  10   -0.26    1.87   3
   4   7  10   -1.20    1.35   1
  -4  -7 -10    1.59    1.62   5
  -5  -7 -10   -1.34    1.68   5
   5   7  10    1.51    1.77   1
   5   7  10   -0.12    1.79   3
  -6  -7 -10    1.59    2.15   5
   6   7  10    0.85    1.85   1
   1  -8 -10    0.46    1.90   2
   0  -8 -10   -1.06    1.34   2
  -1  -8 -10    0.72    1.39   5
  -1  -8 -10    0.58    1.49   2
  -2  -8 -10    2.20    1.64   5
   3   8  10    2.11    2.03   3
  -3  -8 -10    0.24    1.43   5
   3   8  10    1.23    1.21   1
   4   8  10    5.48    1.77   1
   4   8  10    5.14    2.47   3
  -4  -8 -10    3.97    1.97   5
  -5  -8 -10    5.78    2.34   5
   6   8  10    2.02    1.97   1
  -6  -8 -10    2.81    2.37   5
   7   8  10    3.60    2.33   1
   0  -9 -10    4.28    1.88   2
  -1  -9 -10    1.03    1.66   2
   5   9  10    1.77    1.55   1
   6   9  10    0.55    1.71   1
   2   5 -11    2.78    2.52   1
  -2  -5  11    0.49    2.68   4
  -2  -5  11    0.09    2.61   1
  -1  -5  11    1.11    2.46   1
  -1  -5  11   -2.52    1.98   4
   1   5 -11   -0.06    2.17   1
   0  -5  11    2.30    2.50   1
   0   5 -11    0.14    2.10   1
   0  -5  11    2.36    2.51   4
  -1   5 -11    2.56    2.32   1
   1  -5  11    3.38    2.60   1
   1  -5  11    1.30    2.91   4
  -2   5 -11   -0.27    2.10   1
   2  -5  11   -1.01    2.55   4
   3   4 -11    0.56    2.41   1
  -3  -4  11    4.25    2.85   1
  -3  -4  11    2.56    2.66   4
   2   4 -11   -1.02    1.79   1
  -2  -4  11   -0.37    2.36   4
  -2  -4  11    0.32    2.16   1
  -1  -4  11    5.66    2.88   4
  -1  -4  11    4.05    2.56   1
   1   4 -11   -0.68    1.99   1
   0   4 -11    0.50    2.02   1
   0  -4  11    1.37    2.14   1
   0  -4  11    2.32    2.53   4
  -1   4 -11    0.73    2.08   1
   1  -4  11    1.08    2.61   4
   1  -4  11   -2.62    1.82   1
   2  -4  11    2.97    2.64   4
   2  -4  11    2.22    2.51   1
  -2   4 -11    1.45    2.15   1
  -3   4 -11   -0.76    1.92   1
   3  -4  11   -3.50    2.09   4
   3  -4  11    0.06    2.35   1
   4   3 -11    2.41    2.66   1
   3   3 -11    1.03    2.43   1
  -3  -3  11    1.46    2.56   1
  -3  -3  11    3.10    2.63   4
   2   3 -11   -0.37    1.73   1
  -2  -3  11    3.02    2.56   4
  -2  -3  11   -1.07    2.16   1
  -1  -3  11    4.86    2.44   1
  -1  -3  11    1.85    2.23   4
   1   3 -11    2.74    2.31   1
   0   3 -11    4.30    2.45   1
   0  -3  11    0.99    2.15   1
   0  -3  11    2.42    2.55   4
   1  -3  11   -0.91    1.88   4
  -1   3 -11   -1.30    1.75   1
   1  -3  11    3.23    2.21   1
  -2   3 -11    2.80    2.29   1
   2  -3  11   -1.25    2.02   4
   2  -3  11    3.25    2.38   1
   3  -3  11   -1.37    1.91   1
   3  -3  11    3.77    2.59   4
  -3   3 -11    0.84    2.08   1
   4  -3  11    1.99    2.80   4
   4  -3  11   -1.48    2.13   1
  -4   3 -11   -0.97    1.88   1
   4   2 -11    5.37    3.07   1
  -4  -2  11    3.40    2.80   1
  -3  -2  11    0.23    2.03   1
   3   2 -11   -0.73    1.93   1
  -3  -2  11    0.36    2.15   4
  -2  -2  11    2.55    2.35   4
   2   2 -11    0.19    2.21   1
  -2  -2  11    0.01    2.00   1
  -1  -2  11   -1.34    1.79   1
  -1  -2  11    1.59    2.01   4
   1   2 -11   -1.19    1.77   1
   0   2 -11    6.58    2.74   1
   0  -2  11    1.03    1.99   1
   0  -2  11    5.38    2.54   4
  -1   2 -11    0.05    1.80   1
   1  -2  11    1.51    2.09   1
   1  -2  11   -1.33    1.76   4
   2  -2  11    5.02    2.48   1
  -2   2 -11    1.75    1.90   1
   2  -2  11    4.38    2.80   4
   3  -2  11   -2.36    1.84   4
  -3   2 -11    5.85    2.46   1
   3  -2  11    5.24    2.63   1
   4  -2  11   -1.75    1.88   4
   4  -2  11    0.71    2.23   1
  -4   2 -11   -0.55    1.83   1
   5  -2  11    5.65    2.96   1
  -5   2 -11   -0.41    2.03   1
   4   1 -11    1.37    2.76   1
  -4  -1  11   -0.78    1.92   1
   3   1 -11   -0.73    2.02   1
  -3  -1  11    2.29    2.29   1
  -2  -1  11    1.15    2.16   4
   2   1 -11   -2.88    1.79   1
  -2  -1  11    3.78    2.03   1
   1   1 -11   -2.03    1.60   1
  -1  -1  11    1.08    1.93   4
  -1  -1  11    0.91    1.98   1
   0  -1  11    0.11    1.65   1
   0   1 -11   -2.30    1.60   1
   0  -1  11    0.11    1.80   4
   1  -1  11   -0.35    2.23   4
   1  -1  11   -2.21    1.58   1
  -1   1 -11    0.72    2.00   1
   2  -1  11   -0.94    1.89   1
  -2   1 -11   -1.78    1.77   1
   2  -1  11   -1.48    1.80   4
   3  -1  11    2.65    2.08   1
  -3   1 -11    7.03    2.64   1
   3  -1  11    6.63    2.62   4
   4  -1  11    0.53    1.93   1
   4  -1  11    5.91    2.96   4
  -4   1 -11    1.68    1.92   1
  -5   1 -11    0.53    2.18   1
   5  -1  11    1.00    2.22   1
   6  -1  11    1.36    2.53   1
  -6   1 -11    0.76    2.45   1
  -4   0  11   -1.03    2.23   1
   4   0 -11    0.62    2.66   1
   3   0 -11    1.45    2.41   1
  -3   0  11    1.94    2.19   1
   2   0 -11    1.19    2.01   1
  -2   0  11    5.94    2.44   1
  -2   0  11    3.38    2.17   4
   1   0 -11    7.67    2.88   1
  -1   0  11   12.52    2.96   1
  -1   0  11    8.44    2.73   4
   0   0  11    8.64    2.82   4
   0   0  11    9.61    2.77   1
   0   0 -11    7.15    2.55   1
   1   0  11   -0.40    1.57   4
  -1   0 -11    2.73    2.00   1
   1   0  11    1.41    1.86   1
   2   0  11    8.64    2.86   4
   2   0  11   10.60    2.91   1
  -2   0 -11    4.03    2.21   1
   3   0  11   -0.82    1.96   4
   3   0  11   -0.73    1.63   1
  -3   0 -11   -1.18    1.75   1
   4   0  11   -1.75    1.66   1
  -4   0 -11    0.40    1.97   1
   5   0  11   -0.37    1.77   1
  -5   0 -11    1.47    2.31   1
  -6   0 -11    1.13    2.41   1
   6   0  11    3.56    2.77   1
   4  -1 -11   -1.30    2.51   1
  -4   1  11   -0.06    2.16   1
   3  -1 -11    6.17    2.96   1
  -3   1  11    4.09    2.20   1
   2  -1 -11    2.91    2.45   1
  -2   1  11    3.14    1.98   1
  -1   1  11    5.30    2.37   4
  -1   1  11   10.05    2.71   1
   1  -1 -11    5.71    2.53   1
   0   1  11    1.03    1.93   4
   0  -1 -11    1.85    1.93   1
   0   1  11    2.72    1.88   1
   1   1  11    1.81    1.94   4
   1   1  11   -0.15    1.40   1
  -1  -1 -11    1.73    1.89   1
   2   1  11    4.19    1.95   1
  -2  -1 -11    2.66    1.86   1
  -3  -1 -11    5.96    2.43   1
   3   1  11    7.61    2.65   1
   4   1  11   -0.22    1.65   1
  -4  -1 -11    1.57    1.92   1
  -5  -1 -11    3.44    2.28   1
   5   1  11    4.97    2.64   1
  -6  -1 -11    3.87    2.43   1
   6   1  11    1.81    2.56   1
   7   1  11    1.52    2.31   1
  -7  -1 -11   -1.09    2.31   1
   4  -2 -11    0.00    2.64   1
  -4   2  11   -1.91    1.88   1
  -3   2  11    1.17    2.00   1
   3  -2 -11   -1.48    2.00   1
  -2   2  11    7.90    2.59   1
   2  -2 -11    5.52    2.62   1
  -1   2  11    0.18    1.38   1
   1  -2 -11    0.00    1.77   1
   1  -2 -11    2.21    1.81   5
   0  -2 -11   19.41    3.44   5
   0  -2 -11   22.96    3.61   1
   0   2  11   19.42    3.30   1
   1   2  11    3.17    1.90   1
  -1  -2 -11    2.72    2.02   1
  -1  -2 -11    2.33    1.99   5
  -2  -2 -11   18.87    3.44   1
   2   2  11   14.63    3.01   1
  -2  -2 -11   10.24    2.80   5
   3   2  11   14.56    3.10   1
  -3  -2 -11   14.09    3.11   1
   4   2  11    0.55    1.72   1
  -4  -2 -11    3.25    2.06   1
  -5  -2 -11    2.84    2.13   1
   5   2  11    1.49    1.95   1
   6   2  11    0.66    2.16   1
  -6  -2 -11    0.06    2.09   1
  -7  -2 -11    0.93    2.29   1
   7   2  11    2.90    2.56   1
  -4   3  11    3.19    2.30   1
  -3   3  11    5.19    2.42   1
   2  -3 -11   -1.45    1.51   5
  -2   3  11   -0.25    1.82   1
   2  -3 -11    0.73    1.95   1
   1  -3 -11    5.68    2.34   5
   1  -3 -11    3.02    2.21   1
  -1   3  11    4.74    2.06   1
   0  -3 -11    3.58    2.13   1
   0   3  11   -0.31    1.50   1
   0  -3 -11    0.88    1.61   5
  -1  -3 -11    1.96    1.89   1
   1   3  11    1.24    1.75   1
  -1  -3 -11   -0.80    1.39   5
   2   3  11    3.35    1.85   1
  -2  -3 -11   -0.56    1.66   1
  -2  -3 -11    0.01    1.63   5
  -3  -3 -11    1.11    1.70   5
   3   3  11    0.43    1.49   1
  -3  -3 -11    3.01    2.12   1
   4   3  11    2.71    2.12   1
  -4  -3 -11    7.51    2.51   1
  -5  -3 -11    1.99    1.79   1
   5   3  11    0.93    1.84   1
   6   3  11    3.73    2.60   1
  -6  -3 -11    9.22    3.10   1
   7   3  11    0.01    2.32   1
  -7  -3 -11   -4.12    1.83   1
  -3   4  11    0.23    1.87   1
   3  -4 -11   -0.23    2.22   5
   2  -4 -11    2.36    2.22   5
  -2   4  11    5.45    2.24   1
   1  -4 -11    1.99    1.90   5
  -1   4  11    1.64    1.72   1
   0  -4 -11   13.56    3.04   1
   0  -4 -11   20.50    3.32   5
   0   4  11   14.59    2.82   1
  -1  -4 -11    1.40    1.64   5
   1   4  11   -2.01    1.19   1
  -1  -4 -11   -0.81    1.57   1
   2   4  11   11.33    2.66   1
  -2  -4 -11    8.84    2.50   5
  -2  -4 -11   11.51    2.92   1
  -3  -4 -11    3.01    2.02   1
   3   4  11    6.64    2.21   1
  -3  -4 -11    3.60    1.94   5
   4   4  11    1.17    1.82   1
  -4  -4 -11    1.13    1.87   1
  -4  -4 -11    2.50    1.97   5
  -5  -4 -11    4.24    2.21   1
   5   4  11    2.68    2.10   1
   6   4  11    0.72    1.88   1
  -6  -4 -11   -0.22    1.80   1
   7   4  11    0.57    2.26   1
  -7  -4 -11   -1.60    1.79   1
  -3   5  11   -0.33    1.88   1
  -2   5  11    0.37    1.65   1
   2  -5 -11   -1.00    1.67   5
  -1   5  11   -2.20    1.29   1
   1  -5 -11    0.66    1.77   2
   1  -5 -11   -0.53    1.59   5
   0   5  11    4.62    1.98   1
   0  -5 -11    6.85    2.43   2
   0  -5 -11    5.41    2.21   5
   1   5  11    1.12    1.66   1
  -1  -5 -11    2.91    1.82   5
  -2  -5 -11    6.71    2.42   5
   2   5  11   10.49    2.45   1
  -2  -5 -11   10.21    2.72   1
  -3  -5 -11    4.02    2.12   5
  -3  -5 -11    4.20    2.23   1
   3   5  11    6.89    2.25   1
  -4  -5 -11   -0.24    1.70   1
   4   5  11    0.88    1.72   1
  -4  -5 -11   -0.50    1.38   5
  -5  -5 -11    3.38    2.27   5
  -5  -5 -11    3.16    2.21   1
   5   5  11    1.77    1.99   1
  -6  -5 -11    0.62    2.11   1
   6   5  11    1.51    2.03   1
   7   5  11   -2.49    1.98   1
  -7  -5 -11    2.61    2.52   1
  -2   6  11    0.15    1.68   1
  -1   6  11   -0.90    1.45   1
   1  -6 -11    0.34    1.75   5
   1  -6 -11    3.06    1.90   2
   0  -6 -11   -1.28    1.51   2
   0   6  11    5.57    1.87   1
   0  -6 -11    6.39    2.30   5
   1   6  11    0.41    1.36   1
  -1  -6 -11    2.87    1.91   5
   2   6  11    1.22    1.67   1
  -2  -6 -11    3.12    1.83   5
   3   6  11    3.62    2.57   3
   3   6  11    2.01    1.81   1
  -3  -6 -11    4.71    2.19   5
   4   6  11   -4.73    1.77   3
   4   6  11   -2.30    1.39   1
  -4  -6 -11    2.81    1.92   5
   5   6  11    2.53    1.91   1
  -5  -6 -11    0.12    1.79   1
  -5  -6 -11    1.07    1.91   5
   5   6  11    0.13    2.28   3
  -6  -6 -11    3.89    2.32   1
   6   6  11    0.07    1.87   1
  -7  -6 -11   -0.17    2.34   1
   7   6  11    2.48    2.35   1
   1  -7 -11    0.89    2.03   2
   0   7  11    0.73    1.44   1
   0  -7 -11    2.16    1.79   2
  -1  -7 -11   -0.13    1.53   5
   1   7  11    0.70    1.40   1
  -2  -7 -11    0.70    1.63   5
   2   7  11   -0.13    1.32   1
   3   7  11    0.60    1.67   1
  -3  -7 -11    1.59    1.68   5
   4   7  11   -0.73    2.26   3
  -4  -7 -11    2.12    1.83   5
   4   7  11    0.59    1.52   1
   5   7  11    2.85    2.07   1
   5   7  11   -1.85    2.17   3
  -5  -7 -11   -1.05    1.67   5
  -6  -7 -11    2.85    2.56   5
   6   7  11    0.32    1.84   1
   7   7  11   -2.19    1.99   1
   1  -8 -11    4.95    2.28   2
   0  -8 -11   -0.38    1.64   2
   2   8  11    0.75    1.29   1
   3   8  11    0.55    1.43   1
  -3  -8 -11    2.67    1.79   5
  -4  -8 -11    2.35    1.87   5
   4   8  11    0.35    1.44   1
  -5  -8 -11    0.62    1.94   5
   5   8  11    2.46    1.92   1
   5   9  11    2.45    1.74   1
   6   9  11   -0.28    1.76   1
   1   4 -12    2.80    2.51   1
  -1  -4  12   -0.54    2.60   4
  -1  -4  12    1.20    2.48   1
   0   4 -12    0.46    2.15   1
   0  -4  12    1.74    2.51   1
   0  -4  12    1.04    2.83   4
   1  -4  12    0.00    2.48   1
   1  -4  12    1.32    2.88   4
  -1   4 -12   -0.13    2.07   1
   2  -4  12   -0.96    2.49   4
  -2   4 -12    0.67    2.35   1
  -2  -3  12    4.97    2.87   4
  -2  -3  12    0.10    2.08   1
   2   3 -12    0.48    2.41   1
  -1  -3  12   -0.78    2.52   4
   1   3 -12    1.14    2.30   1
  -1  -3  12   -0.44    2.20   1
   0   3 -12    1.10    2.26   1
   0  -3  12   -1.28    2.15   4
   0  -3  12    0.37    2.01   1
   1  -3  12    2.40    2.41   1
  -1   3 -12   -0.06    2.02   1
   1  -3  12    1.24    2.39   4
   2  -3  12    0.97    2.33   4
   2  -3  12    2.85    2.55   1
  -2   3 -12    2.77    2.32   1
   3  -3  12   -0.88    2.37   4
  -3   3 -12    1.60    2.30   1
   3  -3  12   -1.77    1.96   1
  -3  -2  12   -2.76    2.00   1
   3   2 -12   -0.30    2.39   1
   2   2 -12    0.84    2.45   1
  -2  -2  12   -4.03    1.86   1
  -2  -2  12    3.31    2.72   4
  -1  -2  12    1.80    2.39   4
   1   2 -12    4.98    2.84   1
  -1  -2  12    1.48    2.10   1
   0   2 -12    2.35    2.12   1
   0  -2  12    2.76    2.41   1
   0  -2  12    0.93    2.18   4
   1  -2  12    1.69    2.20   1
   1  -2  12    1.28    2.56   4
  -1   2 -12    2.46    2.19   1
   2  -2  12    1.37    2.25   1
   2  -2  12   -2.06    1.96   4
  -2   2 -12   -0.87    1.69   1
  -3   2 -12    2.80    2.21   1
   3  -2  12   -0.62    2.41   4
   3  -2  12   -0.73    2.14   1
  -4   2 -12    2.44    2.46   1
   4  -2  12    1.98    2.73   4
   4  -2  12   -1.87    1.98   1
  -3  -1  12   -1.26    1.95   1
   3   1 -12    2.13    2.52   1
  -2  -1  12    5.09    2.63   4
   2   1 -12    2.73    2.71   1
  -2  -1  12    2.16    2.38   1
  -1  -1  12    0.35    2.14   1
  -1  -1  12    1.85    2.38   4
   1   1 -12   -1.27    2.05   1
   0  -1  12   -2.17    2.01   4
   0   1 -12    0.10    2.21   1
   0  -1  12    4.89    2.65   1
   1  -1  12    2.94    2.24   1
  -1   1 -12    2.86    2.34   1
   1  -1  12    6.02    2.96   4
   2  -1  12   -0.90    2.11   4
   2  -1  12    1.19    2.22   1
  -2   1 -12   -2.24    1.78   1
  -3   1 -12   -1.26    1.95   1
   3  -1  12   -3.21    1.67   1
   3  -1  12   -1.18    2.14   4
   4  -1  12    0.95    2.19   1
  -4   1 -12    2.64    2.19   1
   5  -1  12   -0.43    2.31   1
  -5   1 -12    2.39    2.42   1
  -3   0  12    1.66    2.31   1
   3   0 -12   -2.15    2.03   1
  -2   0  12    0.92    2.18   1
   2   0 -12   -1.02    2.31   1
  -1   0  12    0.70    2.01   1
   1   0 -12   -0.11    1.96   1
  -1   0  12   -1.27    2.07   4
   0   0  12   -0.05    2.12   4
   0   0 -12   -0.76    1.74   1
   0   0  12    2.25    1.99   1
  -1   0 -12    3.75    2.43   1
   1   0  12    1.25    2.03   4
   1   0  12    2.10    2.08   1
   2   0  12    4.20    2.43   1
   2   0  12    3.82    2.78   4
  -2   0 -12    5.61    2.67   1
  -3   0 -12    0.73    2.04   1
   3   0  12    2.52    2.18   1
   4   0  12    4.92    2.66   1
  -4   0 -12   10.80    3.40   1
  -5   0 -12    1.69    2.59   1
   5   0  12    0.76    2.13   1
  -3   1  12   -0.49    1.97   1
   3  -1 -12    3.01    2.67   1
   2  -1 -12    1.32    2.55   1
  -2   1  12    1.98    2.10   1
  -1   1  12    0.80    1.91   1
   1  -1 -12    1.58    2.36   1
   0   1  12    2.07    1.99   1
   0   1  12    2.50    2.53   4
   0  -1 -12    3.37    2.36   1
   1   1  12    5.43    2.33   1
  -1  -1 -12    1.94    2.07   1
  -2  -1 -12    2.73    2.18   1
   2   1  12    1.40    1.92   1
  -3  -1 -12   -0.74    1.86   1
   3   1  12   -2.03    1.44   1
   4   1  12   -0.72    1.59   1
  -4  -1 -12    1.34    1.96   1
  -5  -1 -12    2.62    2.36   1
   5   1  12    1.72    2.29   1
   6   1  12    0.48    2.41   1
  -6  -1 -12    2.72    2.82   1
   3  -2 -12   -2.26    2.28   1
  -3   2  12   -1.23    1.99   1
  -2   2  12    0.05    1.95   1
   2  -2 -12    1.89    2.48   1
   1  -2 -12   -0.82    2.09   1
  -1   2  12    4.87    2.26   1
   0  -2 -12   -0.05    1.87   1
   0   2  12   -0.31    1.69   1
   1   2  12   15.35    3.35   1
  -1  -2 -12   11.71    3.27   1
   2   2  12    0.31    1.84   1
  -2  -2 -12    1.49    1.94   1
  -3  -2 -12    0.50    2.01   1
   3   2  12   -0.11    1.85   1
  -4  -2 -12    2.36    2.17   1
   4   2  12    3.22    2.31   1
  -5  -2 -12    2.57    2.18   1
   5   2  12   -0.35    1.86   1
   6   2  12   -3.35    1.87   1
  -6  -2 -12   -0.73    1.85   1
  -3   3  12    1.02    2.15   1
   2  -3 -12    2.79    2.57   1
  -2   3  12    2.62    2.12   1
  -1   3  12    2.08    1.98   1
   1  -3 -12    1.02    2.36   1
   0  -3 -12   -0.43    2.06   1
   0   3  12    1.25    1.78   1
   0  -3 -12    0.72    1.88   5
   1   3  12    2.87    2.15   1
  -1  -3 -12    6.90    2.57   5
  -1  -3 -12    6.56    2.62   1
   2   3  12    1.87    1.81   1
  -2  -3 -12    2.26    2.25   1
  -3  -3 -12    3.72    2.29   1
   3   3  12    3.47    2.05   1
   4   3  12    1.42    1.85   1
  -4  -3 -12    2.74    2.10   1
  -5  -3 -12   -1.64    1.57   1
   5   3  12   -0.45    2.05   1
   6   3  12    1.96    2.36   1
  -6  -3 -12   -3.95    1.78   1
  -2   4  12   -0.85    1.72   1
   1  -4 -12    1.17    1.98   5
  -1   4  12    1.82    2.01   1
   0  -4 -12   -0.64    1.98   1
   0   4  12   -0.95    1.51   1
   0  -4 -12    0.98    1.96   5
   1   4  12    1.73    1.79   1
  -1  -4 -12    0.72    1.88   1
  -1  -4 -12    3.39    2.19   5
   2   4  12    6.75    2.38   1
  -2  -4 -12    5.79    2.56   1
  -2  -4 -12   10.47    2.88   5
  -3  -4 -12    3.42    1.97   5
  -3  -4 -12   -0.44    1.72   1
   3   4  12    4.75    2.10   1
   4   4  12    5.35    2.43   1
  -4  -4 -12    5.27    2.56   1
   5   4  12    1.04    1.99   1
  -5  -4 -12    2.36    2.36   1
   6   4  12    0.12    2.28   1
  -6  -4 -12    1.31    2.24   1
  -2   5  12    1.27    1.98   1
   1  -5 -12    0.71    1.92   5
  -1   5  12    0.55    1.80   1
   0  -5 -12    1.12    1.78   5
   0   5  12   -0.78    1.66   1
  -1  -5 -12    3.17    2.15   5
   1   5  12    1.11    1.84   1
   2   5  12   -1.79    1.44   1
  -2  -5 -12   -0.90    1.54   5
  -3  -5 -12    1.04    1.80   5
   3   5  12    0.96    1.81   1
  -3  -5 -12    3.20    2.12   1
  -4  -5 -12    3.09    2.14   5
  -4  -5 -12    0.93    1.82   1
   4   5  12    1.02    1.92   1
   5   5  12    0.78    2.07   1
  -5  -5 -12   -2.57    1.55   1
  -6  -5 -12   -0.59    2.05   1
   6   5  12    1.57    2.20   1
  -1   6  12    1.60    1.87   1
   0  -6 -12   -0.65    1.70   5
   0   6  12    0.65    1.65   1
   1   6  12    0.44    1.58   1
  -1  -6 -12    2.57    1.97   5
   2   6  12    5.11    2.20   1
  -2  -6 -12   10.50    2.91   5
   3   6  12   -2.30    1.50   1
  -3  -6 -12    1.18    1.80   5
  -4  -6 -12    5.10    2.52   5
   4   6  12    9.05    2.74   1
   5   6  12   -2.16    1.53   1
   6   6  12    3.78    2.58   1
   0   7  12    1.49    1.66   1
   1   7  12    4.64    1.93   1
  -2  -7 -12   -1.40    1.54   5
   2   7  12    0.04    1.60   1
   3   7  12    0.56    1.68   1
  -3  -7 -12    3.89    2.12   5
  -4  -7 -12    1.81    2.01   5
   4   7  12   -0.49    1.67   1
  -5  -7 -12   -0.91    1.92   5
   5   7  12    0.95    2.02   1
   6   7  12    4.63    2.50   1
   2   8  12    5.37    1.79   1
   3   8  12   -0.13    1.69   1
   4   8  12   18.34    2.88   1
   5   8  12    1.57    1.90   1
  -1  -2  13    9.84    3.53   1
  -1  -2  13    5.27    3.29   4
   1   2 -13    0.94    2.62   1
   0  -2  13    1.79    2.39   1
   0   2 -13    3.80    2.74   1
   0  -2  13    1.71    2.71   4
   1  -2  13   -0.54    2.35   4
  -1   2 -13    2.69    2.57   1
   1  -2  13   -0.80    2.16   1
  -2   2 -13    3.63    2.55   1
   2  -2  13    2.69    3.01   4
   2  -2  13   -2.37    1.94   1
   1   1 -13   -0.78    2.39   1
  -1  -1  13   -0.88    2.66   4
  -1  -1  13   -0.14    2.18   1
   0   1 -13   -0.67    1.97   1
   0  -1  13    2.65    2.36   1
   0  -1  13   -0.06    2.63   4
   1  -1  13    4.66    2.68   1
  -1   1 -13    3.15    2.60   1
   1  -1  13    5.29    3.17   4
  -2   1 -13   -0.84    2.18   1
   2  -1  13    4.56    2.57   1
   2  -1  13   -2.24    2.24   4
  -3   1 -13    6.92    3.04   1
   3  -1  13   14.80    3.75   1
   3  -1  13    2.50    2.84   4
  -2   0  13    3.66    2.67   1
   2   0 -13   -4.48    1.95   1
  -1   0  13    3.17    2.77   4
   1   0 -13    8.45    3.41   1
  -1   0  13   10.83    3.33   1
   0   0  13    1.34    2.26   1
   0   0  13    1.83    2.62   4
   0   0 -13   -1.82    2.35   1
  -1   0 -13    2.28    2.29   1
   1   0  13    7.57    3.06   1
   1   0  13    6.36    3.31   4
   2   0  13   -1.66    2.21   4
   2   0  13   -0.81    1.84   1
  -2   0 -13    3.53    2.66   1
   3   0  13    2.69    2.24   1
  -3   0 -13    1.25    2.41   1
   4   0  13   -1.30    2.21   1
  -4   0 -13   -0.24    2.35   1
   2  -1 -13    2.05    2.61   1
  -2   1  13   -1.41    2.00   1
  -1   1  13    3.26    2.43   1
   1  -1 -13    2.29    2.69   1
   0   1  13    0.02    2.04   1
   0  -1 -13    3.32    2.74   1
   1   1  13    2.58    2.11   1
  -1  -1 -13    2.48    2.39   1
   2   1  13    5.63    2.72   1
  -2  -1 -13    3.45    2.46   1
  -3  -1 -13    5.35    2.52   1
   3   1  13    6.71    2.61   1
  -4  -1 -13    2.43    2.12   1
   4   1  13    3.89    2.38   1
   5   1  13    4.98    2.92   1
  -5  -1 -13    0.54    2.19   1
  -2   2  13   -0.14    2.17   1
   2  -2 -13    0.98    2.83   1
  -1   2  13    2.14    2.22   1
   1  -2 -13    0.16    2.30   1
   0   2  13    0.55    1.85   1
   0  -2 -13    3.37    2.64   1
   1   2  13   -0.68    1.88   1
  -1  -2 -13    1.77    2.24   1
  -2  -2 -13    0.68    2.23   1
   2   2  13    1.44    2.07   1
  -3  -2 -13    6.98    2.90   1
   3   2  13    4.95    2.63   1
   4   2  13   -0.50    1.97   1
  -4  -2 -13    0.18    2.20   1
  -5  -2 -13    5.82    2.95   1
   5   2  13    2.17    2.51   1
   1  -3 -13    7.39    3.22   1
  -1   3  13    2.53    2.32   1
   0  -3 -13    0.71    2.25   1
   0   3  13   -1.22    1.82   1
   1   3  13    0.53    1.88   1
  -1  -3 -13    3.63    2.76   1
   2   3  13   -0.24    1.96   1
  -2  -3 -13    2.55    2.38   1
  -3  -3 -13    0.44    2.13   1
   3   3  13    0.49    1.78   1
  -4  -3 -13   -0.61    1.89   1
   4   3  13    0.40    2.05   1
   5   3  13   -1.13    1.86   1
  -5  -3 -13    2.33    2.29   1
  -1   4  13    2.66    2.15   1
   0   4  13    1.43    2.17   1
  -1  -4 -13    1.53    2.26   1
   1   4  13    1.20    2.03   1
  -2  -4 -13   -0.98    1.88   1
   2   4  13    0.65    1.90   1
   3   4  13    3.37    2.15   1
  -3  -4 -13   -1.01    1.73   1
  -4  -4 -13   -0.14    1.80   1
   4   4  13    0.06    1.99   1
  -5  -4 -13   -1.64    2.12   1
   5   4  13   -0.04    2.04   1
  -1   5  13    2.57    2.17   1
   0  -5 -13    3.36    2.54   5
   0   5  13    0.90    1.90   1
  -1  -5 -13    1.91    2.10   5
   1   5  13    0.51    1.69   1
  -2  -5 -13    7.78    2.64   5
   2   5  13    2.65    2.18   1
   3   5  13    1.82    2.16   1
   4   5  13    1.21    1.97   1
  -4  -5 -13    0.29    2.15   1
  -5  -5 -13    1.24    2.52   1
   5   5  13    1.27    2.23   1
   0   6  13    8.58    2.57   1
   1   6  13    1.86    1.98   1
  -2  -6 -13    6.18    2.45   5
   2   6  13    4.05    2.10   1
   3   6  13    7.72    2.50   1
  -3  -6 -13    3.79    2.19   5
   4   6  13    2.46    2.12   1
   5   6  13    7.62    2.87   1
   1   7  13    1.13    1.88   1
   2   7  13    3.75    2.14   1
   3   7  13    0.78    2.02   1
   4   7  13    3.21    2.27   1
  -1   0 -14    5.01    3.17   1
  -2   0 -14   -0.44    2.34   1
   0  -1 -14    1.69    2.55   1
  -1  -1 -14   -2.95    1.82   1
   1   1  14   -2.42    2.00   1
  -2  -1 -14    4.67    2.89   1
   2   1  14    2.92    2.45   1
   3   1  14    0.56    2.29   1
  -3  -1 -14   -1.78    2.16   1
   0   2  14    1.33    2.33   1
   0  -2 -14    6.19    3.29   1
  -1  -2 -14    1.44    2.48   1
   1   2  14    2.83    2.40   1
  -2  -2 -14   -0.19    2.18   1
   2   2  14   -1.72    1.87   1
  -3  -2 -14   -2.88    1.87   1
   3   2  14   -0.71    2.00   1
   0   3  14    1.23    2.13   1
   0  -3 -14    1.21    2.46   1
  -1  -3 -14    0.07    2.49   1
   1   3  14    7.06    2.88   1
   2   3  14    2.21    2.19   1
  -2  -3 -14   -2.14    2.26   1
   3   3  14    0.82    2.26   1
  -3  -3 -14    1.60    2.34   1
   4   3  14   -0.67    2.35   1
  -4  -3 -14    2.00    2.55   1
   1   4  14    1.40    2.30   1
  -2  -4 -14   -0.84    2.26   1
   2   4  14   -0.31    1.94   1
  -3  -4 -14    2.22    2.53   1
   3   4  14   -2.73    1.88   1
   4   4  14    1.07    2.48   1
  -4  -4 -14    2.06    2.58   1
   2   5  14    2.37    2.19   1
   3   5  14    0.58    2.12   1
   0   0   0    0.00    0.00   0
;
_shelx_hkl_checksum              84150
loop_
_space_group_symop_operation_xyz
'x, y, z'
'-x, -y, -z'
loop_
_atom_site_label
_atom_site_type_symbol
_atom_site_fract_x
_atom_site_fract_y
_atom_site_fract_z
_atom_site_U_iso_or_equiv
_atom_site_adp_type
_atom_site_occupancy
_atom_site_site_symmetry_order
_atom_site_calc_flag
_atom_site_refinement_flags_posn
_atom_site_refinement_flags_adp
_atom_site_refinement_flags_occupancy
_atom_site_disorder_assembly
_atom_site_disorder_group
Cl Cl 0.32921(11) 0.00356(8) 0.72167(6) 0.0700(3) Uani 1 1 d . . . . .
O15 O 0.2222(4) 0.6578(2) 0.2461(2) 0.0862(7) Uani 1 1 d . . . . .
H16 H 0.2340 0.6328 0.1762 0.129 Uiso 1 1 calc R U . . .
O18 O 0.2386(4) 0.4863(3) 0.0872(2) 0.1023(8) Uani 1 1 d . . . . .
O19 O 0.2250(3) 0.2486(3) 0.17133(17) 0.0754(6) Uani 1 1 d D . . . .
N1 N 0.2803(3) 0.2816(2) 0.52329(19) 0.0502(5) Uani 1 1 d . . . . .
H31 H 0.2951 0.2008 0.5811 0.060 Uiso 1 1 calc R U . . .
C2 C 0.2743(3) 0.2702(3) 0.4067(2) 0.0524(6) Uani 1 1 d . . . . .
H30 H 0.2865 0.1754 0.3883 0.063 Uiso 1 1 calc R U . . .
C3 C 0.2500(3) 0.3962(3) 0.3090(2) 0.0529(6) Uani 1 1 d . . . . .
C4 C 0.2383(4) 0.5355(3) 0.3377(3) 0.0573(7) Uani 1 1 d . . . . .
C5 C 0.2271(4) 0.6900(3) 0.5067(3) 0.0648(8) Uani 1 1 d . . . . .
C6 C 0.2359(4) 0.6829(4) 0.6348(3) 0.0734(9) Uani 1 1 d . . . . .
H29 H 0.2271 0.7718 0.6625 0.088 Uiso 1 1 calc R U . . .
C7 C 0.2572(4) 0.5499(4) 0.7231(3) 0.0704(8) Uani 1 1 d . . . . .
H28 H 0.2620 0.5507 0.8083 0.084 Uiso 1 1 calc R U . . .
C8 C 0.2712(4) 0.4168(3) 0.6863(3) 0.0605(7) Uani 1 1 d . . . . .
H27 H 0.2853 0.3269 0.7460 0.073 Uiso 1 1 calc R U . . .
C9 C 0.2425(3) 0.5513(3) 0.4651(3) 0.0526(6) Uani 1 1 d . . . . .
C10 C 0.2639(3) 0.4175(3) 0.5587(2) 0.0489(6) Uani 1 1 d . . . . .
C17 C 0.2407(4) 0.3807(4) 0.1782(3) 0.0698(8) Uani 1 1 d . . . . .
C11 C 0.2033(5) 0.8407(3) 0.4171(4) 0.0914(10) Uani 1 1 d . . . . .
H12 H 0.3150 0.8334 0.3497 0.137 Uiso 1 1 calc R U . . .
H13 H 0.1956 0.9181 0.4641 0.137 Uiso 1 1 calc R U . . .
H14 H 0.0839 0.8667 0.3803 0.137 Uiso 1 1 calc R U . . .
C20A C 0.2196(16) 0.2189(14) 0.0438(6) 0.083(3) Uani 0.70(2) 1 d D U P A 1
H21A H 0.3418 0.2227 -0.0138 0.100 Uiso 0.70(2) 1 calc R U P A 1
H22A H 0.1092 0.2932 0.0056 0.100 Uiso 0.70(2) 1 calc R U P A 1
C23A C 0.195(3) 0.0624(16) 0.0692(8) 0.136(5) Uani 0.70(2) 1 d D U P A 1
H24A H 0.3046 -0.0091 0.1080 0.204 Uiso 0.70(2) 1 calc R U P A 1
H25A H 0.1910 0.0350 -0.0104 0.204 Uiso 0.70(2) 1 calc R U P A 1
H26A H 0.0735 0.0610 0.1264 0.204 Uiso 0.70(2) 1 calc R U P A 1
C20B C 0.261(5) 0.199(6) 0.044(2) 0.181(17) Uani 0.30(2) 1 d D U P A 2
H21B H 0.3732 0.1080 0.0388 0.217 Uiso 0.30(2) 1 calc R U P A 2
H22B H 0.2852 0.2786 -0.0265 0.217 Uiso 0.30(2) 1 calc R U P A 2
C23B C 0.070(4) 0.166(5) 0.040(2) 0.130(9) Uani 0.30(2) 1 d D U P A 2
H24B H 0.0798 0.0607 0.0763 0.196 Uiso 0.30(2) 1 calc R U P A 2
H25B H 0.0468 0.1849 -0.0476 0.196 Uiso 0.30(2) 1 calc R U P A 2
H26B H -0.0388 0.2300 0.0887 0.196 Uiso 0.30(2) 1 calc R U P A 2
loop_
_atom_site_aniso_label
_atom_site_aniso_U_11
_atom_site_aniso_U_22
_atom_site_aniso_U_33
_atom_site_aniso_U_23
_atom_site_aniso_U_13
_atom_site_aniso_U_12
Cl 0.0876(6) 0.0609(4) 0.0628(5) -0.0098(3) -0.0125(4) -0.0229(3)
O15 0.1011(16) 0.0704(13) 0.0869(15) 0.0103(11) -0.0302(14) -0.0306(12)
O18 0.129(2) 0.124(2) 0.0608(14) 0.0064(14) -0.0269(13) -0.0529(16)
O19 0.0850(14) 0.0974(16) 0.0538(12) -0.0285(10) -0.0153(10) -0.0264(12)
N1 0.0524(12) 0.0506(11) 0.0509(12) -0.0129(9) -0.0111(9) -0.0144(9)
C2 0.0464(15) 0.0569(15) 0.0590(16) -0.0190(12) -0.0086(12) -0.0154(11)
C3 0.0465(15) 0.0638(16) 0.0521(15) -0.0114(12) -0.0112(12) -0.0175(12)
C4 0.0449(15) 0.0574(15) 0.0667(17) 0.0027(13) -0.0147(12) -0.0159(11)
C5 0.0398(15) 0.0543(15) 0.102(2) -0.0208(15) -0.0057(14) -0.0140(11)
C6 0.0491(17) 0.080(2) 0.109(3) -0.055(2) -0.0037(16) -0.0200(14)
C7 0.0563(17) 0.085(2) 0.082(2) -0.0391(18) -0.0089(15) -0.0206(15)
C8 0.0513(16) 0.0728(18) 0.0630(17) -0.0240(13) -0.0080(13) -0.0173(13)
C9 0.0378(14) 0.0540(14) 0.0699(17) -0.0165(12) -0.0087(12) -0.0140(10)
C10 0.0381(13) 0.0542(14) 0.0581(16) -0.0190(12) -0.0084(11) -0.0111(10)
C17 0.0639(19) 0.089(2) 0.0597(19) -0.0104(17) -0.0138(14) -0.0257(16)
C11 0.079(2) 0.0588(18) 0.135(3) -0.0159(18) -0.011(2) -0.0221(15)
C20A 0.088(5) 0.128(5) 0.043(4) -0.037(3) 0.001(3) -0.036(4)
C23A 0.199(12) 0.190(10) 0.076(4) -0.074(6) 0.016(5) -0.121(9)
C20B 0.25(3) 0.20(2) 0.121(18) -0.045(14) -0.100(15) -0.036(16)
C23B 0.139(16) 0.20(3) 0.104(12) -0.075(15) -0.004(11) -0.090(16)
loop_
_atom_type_symbol
_atom_type_description
_atom_type_scat_dispersion_real
_atom_type_scat_dispersion_imag
_atom_type_scat_source
C C 0.0033 0.0016 'International Tables Vol C Tables 4.2.6.8 and 6.1.1.4'
H H 0.0000 0.0000 'International Tables Vol C Tables 4.2.6.8 and 6.1.1.4'
O O 0.0106 0.0060 'International Tables Vol C Tables 4.2.6.8 and 6.1.1.4'
N N 0.0061 0.0033 'International Tables Vol C Tables 4.2.6.8 and 6.1.1.4'
Cl Cl 0.1484 0.1585 'International Tables Vol C Tables 4.2.6.8 and 6.1.1.4'
loop_
_geom_angle_atom_site_label_1
_geom_angle_atom_site_label_2
_geom_angle_atom_site_label_3
_geom_angle
C4 O15 H16 109.5
C17 O19 C20A 118.1(5)
C17 O19 C20B 120.7(17)
C2 N1 C10 123.0(2)
C2 N1 H31 118.5
C10 N1 H31 118.5
N1 C2 C3 121.5(2)
N1 C2 H30 119.3
C3 C2 H30 119.3
C4 C3 C2 118.4(2)
C4 C3 C17 121.2(2)
C2 C3 C17 120.4(3)
O15 C4 C3 120.3(3)
O15 C4 C9 118.5(2)
C3 C4 C9 121.2(2)
C6 C5 C9 118.0(3)
C6 C5 C11 119.2(3)
C9 C5 C11 122.9(3)
C7 C6 C5 122.8(3)
C7 C6 H29 118.6
C5 C6 H29 118.6
C8 C7 C6 120.4(3)
C8 C7 H28 119.8
C6 C7 H28 119.8
C7 C8 C10 119.0(3)
C7 C8 H27 120.5
C10 C8 H27 120.5
C10 C9 C4 116.4(2)
C10 C9 C5 117.4(2)
C4 C9 C5 126.2(3)
N1 C10 C8 118.1(2)
N1 C10 C9 119.6(2)
C8 C10 C9 122.3(2)
O18 C17 O19 124.5(3)
O18 C17 C3 122.0(3)
O19 C17 C3 113.4(3)
C5 C11 H12 109.5
C5 C11 H13 109.5
H12 C11 H13 109.5
C5 C11 H14 109.5
H12 C11 H14 109.5
H13 C11 H14 109.5
O19 C20A C23A 104.9(7)
O19 C20A H21A 110.8
C23A C20A H21A 110.8
O19 C20A H22A 110.8
C23A C20A H22A 110.8
H21A C20A H22A 108.8
C20A C23A H24A 109.5
C20A C23A H25A 109.5
H24A C23A H25A 109.5
C20A C23A H26A 109.5
H24A C23A H26A 109.5
H25A C23A H26A 109.5
O19 C20B C23B 103.4(16)
O19 C20B H21B 111.1
C23B C20B H21B 111.1
O19 C20B H22B 111.1
C23B C20B H22B 111.1
H21B C20B H22B 109.0
C20B C23B H24B 109.5
C20B C23B H25B 109.5
H24B C23B H25B 109.5
C20B C23B H26B 109.5
H24B C23B H26B 109.5
H25B C23B H26B 109.5
loop_
_geom_bond_atom_site_label_1
_geom_bond_atom_site_label_2
_geom_bond_distance
O15 C4 1.327(3)
O15 H16 0.8200
O18 C17 1.227(4)
O19 C17 1.303(4)
O19 C20A 1.476(6)
O19 C20B 1.501(16)
N1 C2 1.297(3)
N1 C10 1.379(3)
N1 H31 0.8600
C2 C3 1.388(3)
C2 H30 0.9300
C3 C4 1.387(4)
C3 C17 1.469(4)
C4 C9 1.424(4)
C5 C6 1.382(4)
C5 C9 1.438(3)
C5 C11 1.506(4)
C6 C7 1.377(4)
C6 H29 0.9300
C7 C8 1.364(4)
C7 H28 0.9300
C8 C10 1.388(4)
C8 H27 0.9300
C9 C10 1.411(3)
C11 H12 0.9600
C11 H13 0.9600
C11 H14 0.9600
C20A C23A 1.496(12)
C20A H21A 0.9700
C20A H22A 0.9700
C23A H24A 0.9600
C23A H25A 0.9600
C23A H26A 0.9600
C20B C23B 1.518(19)
C20B H21B 0.9700
C20B H22B 0.9700
C23B H24B 0.9600
C23B H25B 0.9600
C23B H26B 0.9600
loop_
_geom_hbond_atom_site_label_D
_geom_hbond_atom_site_label_H
_geom_hbond_atom_site_label_A
_geom_hbond_distance_DH
_geom_hbond_distance_HA
_geom_hbond_distance_DA
_geom_hbond_angle_DHA
N1 H31 Cl 0.86 2.10 2.955(2) 179.6
O15 H16 O18 0.82 1.84 2.570(3) 147.8
loop_
_geom_torsion_atom_site_label_1
_geom_torsion_atom_site_label_2
_geom_torsion_atom_site_label_3
_geom_torsion_atom_site_label_4
_geom_torsion
C10 N1 C2 C3 -0.2(4)
N1 C2 C3 C4 2.0(4)
N1 C2 C3 C17 -179.1(2)
C2 C3 C4 O15 177.6(2)
C17 C3 C4 O15 -1.3(4)
C2 C3 C4 C9 -2.7(4)
C17 C3 C4 C9 178.5(2)
C9 C5 C6 C7 -0.5(4)
C11 C5 C6 C7 179.9(3)
C5 C6 C7 C8 0.2(4)
C6 C7 C8 C10 0.1(4)
O15 C4 C9 C10 -178.7(2)
C3 C4 C9 C10 1.5(4)
O15 C4 C9 C5 1.2(4)
C3 C4 C9 C5 -178.5(2)
C6 C5 C9 C10 0.5(3)
C11 C5 C9 C10 -179.8(2)
C6 C5 C9 C4 -179.4(2)
C11 C5 C9 C4 0.2(4)
C2 N1 C10 C8 179.6(2)
C2 N1 C10 C9 -1.0(3)
C7 C8 C10 N1 179.4(2)
C7 C8 C10 C9 0.0(4)
C4 C9 C10 N1 0.3(3)
C5 C9 C10 N1 -179.67(19)
C4 C9 C10 C8 179.7(2)
C5 C9 C10 C8 -0.3(3)
C20A O19 C17 O18 4.8(7)
C20B O19 C17 O18 17.7(18)
C20A O19 C17 C3 -178.5(5)
C20B O19 C17 C3 -165.6(17)
C4 C3 C17 O18 6.1(4)
C2 C3 C17 O18 -172.8(3)
C4 C3 C17 O19 -170.7(2)
C2 C3 C17 O19 10.4(4)
C17 O19 C20A C23A -178.3(10)
C17 O19 C20B C23B -123(3)
