#------------------------------------------------------------------------------
#$Date: 2019-11-11 21:14:48 +0200 (Mon, 11 Nov 2019) $
#$Revision: 227389 $
#$URL: file:///home/coder/svn-repositories/cod/cif/4/03/60/4036015.cif $
#------------------------------------------------------------------------------
#
# This file is available in the Crystallography Open Database (COD),
# http://www.crystallography.net/
#
# All data on this site have been placed in the public domain by the
# contributors.
#
data_4036015
loop_
_publ_author_name
'Lazzara, Nicholas C.'
'Rosano, Robert J.'
'Vagadia, Purav P.'
'Giovine, Matthew T.'
'Bezpalko, Mark W.'
'Piro, Nicholas A.'
'Kassel, Wm Scott'
'Boyko, Walter J.'
'Zubris, Deanna L.'
'Schrader, Kevin K.'
'Wedge, David E.'
'Duke, Stephen O.'
'Giuliano, Robert M.'
_publ_section_title
;
 Synthesis and Biological Evaluation of 6-[(1 R)-1-Hydroxyethyl]-2,4a(
 R),6( S),8a( R)-tetrahydropyrano-[3,2- b]-pyran-2-one and Structural
 Analogues of the Putative Structure of Diplopyrone.
;
_journal_issue                   2
_journal_name_full               'The Journal of organic chemistry'
_journal_page_first              666
_journal_page_last               678
_journal_paper_doi               10.1021/acs.joc.8b02490
_journal_volume                  84
_journal_year                    2019
_chemical_absolute_configuration syn
_chemical_formula_moiety         'C9 H7 N O3'
_chemical_formula_sum            'C9 H7 N O3'
_chemical_formula_weight         177.16
_space_group_crystal_system      orthorhombic
_space_group_IT_number           19
_space_group_name_Hall           'P 2ac 2ab'
_space_group_name_H-M_alt        'P 21 21 21'
_atom_sites_solution_hydrogens   geom
_audit_creation_date             2018-03-26
_audit_creation_method
;
Olex2 1.2
(compiled Mar 28 2017 19:26:29 for OlexSys, GUI svn.r5337)
;
_cell_angle_alpha                90
_cell_angle_beta                 90
_cell_angle_gamma                90
_cell_formula_units_Z            4
_cell_length_a                   6.9595(6)
_cell_length_b                   10.7062(9)
_cell_length_c                   11.3837(10)
_cell_measurement_reflns_used    9932
_cell_measurement_temperature    100
_cell_measurement_theta_max      36.246
_cell_measurement_theta_min      2.611
_cell_volume                     848.20(13)
_computing_molecular_graphics    'Olex2 (Dolomanov et al., 2009)'
_computing_publication_material  'Olex2 (Dolomanov et al., 2009)'
_computing_structure_refinement  'XL (Sheldrick, 2008)'
_computing_structure_solution    'XT (Sheldrick, 2015)'
_diffrn_ambient_temperature      100.0
_diffrn_detector_area_resol_mean 8
_diffrn_measured_fraction_theta_full 1.000
_diffrn_measured_fraction_theta_max 1.000
_diffrn_measurement_device_type  'Bruker SMART APEX CCD area detector'
_diffrn_measurement_method       '\w and \f scans'
_diffrn_radiation_monochromator  graphite
_diffrn_radiation_type           MoK\a
_diffrn_radiation_wavelength     0.71073
_diffrn_reflns_av_R_equivalents  0.0205
_diffrn_reflns_av_unetI/netI     0.0112
_diffrn_reflns_Laue_measured_fraction_full 1.000
_diffrn_reflns_Laue_measured_fraction_max 1.000
_diffrn_reflns_limit_h_max       11
_diffrn_reflns_limit_h_min       -11
_diffrn_reflns_limit_k_max       17
_diffrn_reflns_limit_k_min       -17
_diffrn_reflns_limit_l_max       17
_diffrn_reflns_limit_l_min       -18
_diffrn_reflns_number            33419
_diffrn_reflns_point_group_measured_fraction_full 1.000
_diffrn_reflns_point_group_measured_fraction_max 0.999
_diffrn_reflns_theta_full        26.000
_diffrn_reflns_theta_max         36.270
_diffrn_reflns_theta_min         2.612
_diffrn_source                   'sealed tube'
_exptl_absorpt_coefficient_mu    0.106
_exptl_absorpt_correction_T_max  0.7471
_exptl_absorpt_correction_T_min  0.7158
_exptl_absorpt_correction_type   multi-scan
_exptl_absorpt_process_details
;
SADABS-2014/5 (Bruker,2014/5) was used for absorption correction.
wR2(int) was 0.0622 before and 0.0361 after correction.
The Ratio of minimum to maximum transmission is 0.9581.
The \l/2 correction factor is 0.00150.
;
_exptl_crystal_colour            colourless
_exptl_crystal_colour_primary    colourless
_exptl_crystal_density_diffrn    1.387
_exptl_crystal_description       block
_exptl_crystal_F_000             368
_exptl_crystal_size_max          0.4
_exptl_crystal_size_mid          0.3
_exptl_crystal_size_min          0.2
_refine_diff_density_max         0.436
_refine_diff_density_min         -0.167
_refine_diff_density_rms         0.050
_refine_ls_abs_structure_details
;
 Flack x determined using 1688 quotients [(I+)-(I-)]/[(I+)+(I-)]
 (Parsons, Flack and Wagner, Acta Cryst. B69 (2013) 249-259).
;
_refine_ls_abs_structure_Flack   -0.07(10)
_refine_ls_extinction_method     none
_refine_ls_goodness_of_fit_ref   1.108
_refine_ls_hydrogen_treatment    constr
_refine_ls_matrix_type           full
_refine_ls_number_parameters     118
_refine_ls_number_reflns         4104
_refine_ls_number_restraints     0
_refine_ls_restrained_S_all      1.108
_refine_ls_R_factor_all          0.0301
_refine_ls_R_factor_gt           0.0289
_refine_ls_shift/su_max          0.000
_refine_ls_shift/su_mean         0.000
_refine_ls_structure_factor_coef Fsqd
_refine_ls_weighting_details
'w=1/[\s^2^(Fo^2^)+(0.0515P)^2^+0.0605P] where P=(Fo^2^+2Fc^2^)/3'
_refine_ls_weighting_scheme      calc
_refine_ls_wR_factor_gt          0.0795
_refine_ls_wR_factor_ref         0.0805
_reflns_Friedel_coverage         0.754
_reflns_Friedel_fraction_full    1.000
_reflns_Friedel_fraction_max     0.998
_reflns_number_gt                3985
_reflns_number_total             4104
_reflns_threshold_expression     'I > 2\s(I)'
_cod_data_source_file            jo8b02490_si_003.cif
_cod_data_source_block           4
_cod_database_code               4036015
_shelx_shelxl_version_number     2016/6
_shelx_space_group_comment
;
The symmetry employed for this shelxl refinement is uniquely defined
by the following loop, which should always be used as a source of
symmetry information in preference to the above space-group names.
They are only intended as comments.
;
_olex2_refinement_description
;
1. Fixed Uiso
 At 1.2 times of:
  All C(H) groups
2.a Ternary CH refined with riding coordinates:
 C6(H6), C4A(H4A), C8A(H8A)
2.b Aromatic/amide H refined with riding coordinates:
 C7(H7), C8(H8), C4(H4), C3(H3)
;
_shelx_res_file
;
TITL bobg012_a.res in P2(1)2(1)2(1)
    bobg012_renum.res
    created by SHELXL-2016/6 at 11:01:58 on 26-Mar-2018
REM Old TITL bobg012 in P212121 #19
REM SHELXT solution in P2(1)2(1)2(1)
REM R1 0.074, Rweak 0.018, Alpha 0.000, Orientation as input
REM Flack x = -0.012 ( 0.110 ) from Parsons' quotients
REM Formula found by SHELXT: C2 N O11
CELL 0.71073 6.9595 10.7062 11.3837 90 90 90
ZERR 4 0.0006 0.0009 0.001 0 0 0
LATT -1
SYMM 0.5-X,-Y,0.5+Z
SYMM -X,0.5+Y,0.5-Z
SYMM 0.5+X,0.5-Y,-Z
SFAC C H N O
UNIT 36 28 4 12

L.S. 10
PLAN  10
TEMP -173.15
BOND $H
LIST 6
MORE -1
CONF
fmap 2
acta 52
REM <olex2.extras>
REM <HklSrc "%./bobg012_renum.hkl">
REM </olex2.extras>

WGHT    0.051500    0.060500
FVAR       1.10930
O5    4    0.240851    0.489572    0.514873    11.00000    0.01290    0.01335 =
         0.01107   -0.00055    0.00082    0.00260
O1    4    0.258586    0.284631    0.706476    11.00000    0.01735    0.01114 =
         0.01770    0.00229    0.00472    0.00145
O11   4    0.388841    0.102826    0.664031    11.00000    0.02413    0.01168 =
         0.02503    0.00356    0.00457    0.00278
N10   3    0.179876    0.805088    0.520278    11.00000    0.02000    0.01573 =
         0.03653    0.00450    0.00464    0.00025
C6    1    0.082416    0.567751    0.542712    11.00000    0.01228    0.01084 =
         0.01482    0.00052    0.00104    0.00104
AFIX  13
H6    2   -0.020738    0.550602    0.483725    11.00000   -1.20000
AFIX   0
C2    1    0.399402    0.216239    0.657887    11.00000    0.01550    0.01269 =
         0.01529    0.00238    0.00114    0.00187
C4A   1    0.375369    0.478556    0.610146    11.00000    0.01210    0.01096 =
         0.01365    0.00072   -0.00002   -0.00052
AFIX  13
H4A   2    0.423240    0.563665    0.631435    11.00000   -1.20000
AFIX   0
C7    1   -0.001305    0.543922    0.662471    11.00000    0.01514    0.01315 =
         0.01709   -0.00082    0.00480    0.00164
AFIX  43
H7    2   -0.120586    0.581302    0.682733    11.00000   -1.20000
AFIX   0
C9    1    0.137953    0.701639    0.530381    11.00000    0.01407    0.01426 =
         0.01992    0.00206    0.00166    0.00192
C8    1    0.087208    0.471990    0.740595    11.00000    0.01961    0.01481 =
         0.01349   -0.00045    0.00581    0.00151
AFIX  43
H8    2    0.024903    0.453349    0.812749    11.00000   -1.20000
AFIX   0
C4    1    0.540099    0.402129    0.565556    11.00000    0.01221    0.01430 =
         0.02179    0.00301    0.00336    0.00055
AFIX  43
H4    2    0.635329    0.439839    0.517421    11.00000   -1.20000
AFIX   0
C8A   1    0.283253    0.419578    0.717410    11.00000    0.01743    0.01148 =
         0.01160    0.00005    0.00063    0.00028
AFIX  13
H8A   2    0.366427    0.436790    0.787188    11.00000   -1.20000
AFIX   0
C3    1    0.553827    0.281292    0.593093    11.00000    0.01394    0.01485 =
         0.02354    0.00341    0.00373    0.00269
AFIX  43
H3    2    0.665346    0.236086    0.570542    11.00000   -1.20000
AFIX   0
HKLF 4




REM  bobg012_a.res in P2(1)2(1)2(1)
REM R1 =  0.0289 for    3985 Fo > 4sig(Fo)  and  0.0301 for all    4104 data
REM    118 parameters refined using      0 restraints

END

WGHT      0.0515      0.0605

REM Highest difference peak  0.436,  deepest hole -0.167,  1-sigma level  0.050
Q1    1   0.5480  0.3429  0.5798  11.00000  0.05    0.44
Q2    1   0.0418  0.5097  0.6965  11.00000  0.05    0.41
Q3    1   0.4005  0.1577  0.6756  11.00000  0.05    0.39
Q4    1   0.4529  0.4382  0.5898  11.00000  0.05    0.38
Q5    1   0.1446  0.7556  0.5353  11.00000  0.05    0.37
Q6    1   0.3275  0.4480  0.6618  11.00000  0.05    0.36
Q7    1   0.1793  0.4401  0.7306  11.00000  0.05    0.35
Q8    1   0.0461  0.5605  0.6015  11.00000  0.05    0.33
Q9    1   0.1112  0.6343  0.5404  11.00000  0.05    0.32
Q10   1   0.4753  0.2449  0.6268  11.00000  0.05    0.30
;
_shelx_res_checksum              28009
_shelx_hkl_file
;
   1   0   0    0.00    0.20
   1   0   0    0.00    0.10
   1   0   0    0.00    0.10
   1   0   0    0.10    0.10
   1   0   0    0.20    0.10
   1   0   0    0.30    0.20
  -1   0   0    0.20    0.20
   1   0   0    0.60    0.10
  -1   0   0    0.10    0.20
   2   0   0   43.30    1.10
   2   0   0   45.40    1.20
   2   0   0   45.80    0.90
   2   0   0   48.00    1.20
  -2   0   0   53.99    1.40
  -2   0   0   43.60    1.30
  -2   0   0   44.40    1.00
   2   0   0   44.20    1.20
  -3   0   0    0.30    0.50
  -3   0   0   -0.90    0.20
   3   0   0   -0.80    0.30
   3   0   0   -1.10    0.20
   3   0   0   -0.10    0.40
   3   0   0   -0.40    0.40
   3   0   0   -0.80    0.30
   3   0   0   -0.90    0.30
   3   0   0   -0.60    0.30
   4   0   0    5.20    0.70
   4   0   0    3.40    0.60
   4   0   0    5.00    0.60
   4   0   0    4.50    0.70
   4   0   0    4.90    0.60
   4   0   0    4.90    0.40
  -4   0   0    6.00    0.50
   4   0   0    6.50    0.70
   5   0   0    0.30    0.20
  -5   0   0    0.40    0.30
  -5   0   0    0.50    0.60
   5   0   0    0.00    0.40
   5   0   0    2.00    0.60
   5   0   0   -0.20    0.40
   5   0   0   -0.60    0.40
   5   0   0    0.10    0.40
   5   0   0   -0.50    0.40
  -6   0   0  801.02   12.00
  -6   0   0  776.42   13.30
   6   0   0  764.82   12.90
   6   0   0  761.72   12.90
   6   0   0  793.52   12.90
   6   0   0  766.72   13.20
   6   0   0  775.82   13.30
   7   0   0    0.50    0.80
  -7   0   0   -0.70    0.90
   7   0   0   -0.10    0.60
   7   0   0    0.60    0.70
   7   0   0    0.60    0.80
   7   0   0    0.10    0.60
   8   0   0  201.98    5.20
  -8   0   0  191.98    5.60
   8   0   0  208.68    5.70
   8   0   0  207.28    5.30
   8   0   0  205.58    5.30
   8   0   0  209.98    5.70
   9   0   0    0.70    0.90
   9   0   0    0.30    0.90
   9   0   0    1.00    1.00
   9   0   0    1.00    0.90
   9   0   0   -0.10    0.70
  -9   0   0   -0.70    1.00
  10   0   0    0.60    1.10
  10   0   0    2.80    1.40
  10   0   0    0.70    1.10
  11   0   0    0.70    1.30
  11   0   0   -0.20    1.20
   0  -1   0   -1.10    0.10
   0   1   0   -1.70    0.10
   0  -1   0   -1.70    0.10
   0   1   0   -1.50    0.10
   0  -1   0   -1.40    0.10
   0  -1   0   -1.50    0.10
   0  -1   0   -1.30    0.10
   0   1   0   -1.40    0.10
   0   1   0   -0.60    0.20
   0   1   0   -1.60    0.10
   1   1   0 4594.74   67.59
   1  -1   0 4521.85   67.29
   1  -1   0 4794.62   68.49
   1   1   0 4768.32   68.19
   1  -1   0 4623.84   66.59
  -1  -1   0 4672.23   66.89
   1   1   0 4660.13   67.19
  -1  -1   0 4691.13   67.59
  -1  -1   0 4774.62   68.19
   1  -1   0 4667.73   66.59
   1   1   0 4553.74   67.99
  -1   1   0 4660.63   68.49
   1  -1   0 4716.83   68.29
   1  -1   0 4715.43   67.79
   1   1   0 4784.02   68.39
  -1   1   0 4539.35   67.79
  -1   1   0 4828.72   66.59
  -1  -1   0 4493.15   67.09
  -2  -1   0 3544.55   51.09
   2  -1   0 3545.95   50.79
   2  -1   0 3551.84   51.69
   2  -1   0 3380.76   51.19
  -2  -1   0 3431.16   51.89
  -2   1   0 3579.54   52.39
   2  -1   0 3594.54   52.49
   2   1   0 3553.74   52.49
  -2  -1   0 3557.54   52.19
   2   1   0 3574.04   51.99
   2  -1   0 3501.95   52.29
   2   1   0 3528.05   50.79
   2   1   0 3471.35   53.09
  -2   1   0 3593.74   52.99
  -2  -1   0 3421.26   51.59
   2   1   0 3383.16   50.49
   2   1   0 3378.46   51.09
   2  -1   0 3479.75   51.79
   3   1   0  538.75    8.80
  -3  -1   0  555.74    8.50
   3  -1   0  548.05    8.80
   3   1   0  545.85    8.80
   3  -1   0  554.14    8.70
   3  -1   0  546.15    8.50
  -3  -1   0  561.84    8.80
  -3   1   0  566.14    9.00
   3  -1   0  551.24    8.70
   3   1   0  543.35    8.90
   3  -1   0  559.34    8.70
   3   1   0  548.85    8.60
   3   1   0  555.94    8.20
   3   1   0  544.85    8.70
  -3   1   0  550.34    8.90
   4   1   0  666.73   10.90
  -4   1   0  684.53   11.20
  -4   1   0  684.43   10.00
   4  -1   0  669.73   10.70
   4   1   0  667.83   10.60
   4  -1   0  666.33   10.90
  -4  -1   0  673.93   10.30
   4  -1   0  663.53   10.60
   4  -1   0  669.23   10.70
   4  -1   0  655.03   10.60
   4   1   0  672.53   10.00
  -4  -1   0  670.53   10.80
  -4   1   0  697.73   11.00
   4   1   0  670.73   10.70
   4   1   0  658.43   10.80
   5   1   0  246.08    5.20
  -5   1   0  253.67    4.20
   5   1   0  239.98    4.90
  -5  -1   0  252.07    4.50
   5   1   0  245.68    4.10
  -5   1   0  247.98    5.30
   5  -1   0  240.08    5.10
   5  -1   0  249.78    4.90
   5   1   0  243.78    4.90
   5  -1   0  250.87    5.00
   5  -1   0  244.68    5.00
   5  -1   0  247.48    5.30
  -5  -1   0  244.38    5.20
   5   1   0  242.68    5.20
   5   1   0  241.18    5.00
   5  -1   0  247.48    4.90
  -6  -1   0  236.78    4.50
  -6  -1   0  241.08    5.50
   6   1   0  239.68    5.10
   6  -1   0  232.38    5.10
   6   1   0  238.88    4.10
   6  -1   0  235.68    5.40
   6   1   0  234.28    5.20
   6  -1   0  233.88    5.00
  -6   1   0  242.98    5.60
  -6   1   0  241.08    4.10
   6  -1   0  233.48    5.40
   6   1   0  227.78    5.40
   6  -1   0  236.28    5.10
   6   1   0  237.98    5.10
   6  -1   0  239.78    5.10
   6   1   0  236.88    5.40
  -7  -1   0  404.36    8.30
  -7   1   0  393.96    8.40
   7  -1   0  397.76    7.70
   7  -1   0  398.16    8.20
   7   1   0  396.36    8.00
   7   1   0  393.46    8.20
   7   1   0  383.16    7.80
   7   1   0  400.36    8.30
   7  -1   0  388.66    7.90
   7  -1   0  394.56    7.80
   7  -1   0  400.46    7.80
   7  -1   0  392.76    8.20
   7   1   0  403.06    7.80
  -7  -1   0  406.96    7.00
   8  -1   0  139.59    4.30
   8   1   0  142.69    4.30
   8  -1   0  140.29    4.10
   8   1   0  138.79    4.50
  -8  -1   0  135.09    4.60
   8   1   0  136.69    4.10
   8  -1   0  145.09    4.60
   8  -1   0  136.19    4.50
   8  -1   0  140.29    4.10
  -8   1   0  141.99    4.70
   8   1   0  150.68    4.70
   8   1   0  140.29    4.20
   9  -1   0    0.30    0.80
   9  -1   0    0.80    1.10
   9   1   0    2.30    1.20
   9   1   0    0.80    1.00
   9   1   0    0.80    1.10
  -9   1   0    0.40    1.10
   9  -1   0   -0.10    0.90
   9   1   0    0.10    0.80
   9  -1   0   -0.40    1.00
   9   1   0    0.50    0.90
   9  -1   0    0.60    0.90
  10   1   0    9.10    1.60
  10  -1   0    6.60    1.50
  10   1   0   10.60    2.40
  10  -1   0    8.40    1.70
  10   1   0    9.00    1.60
  10   1   0    9.60    1.70
  10   1   0    9.00    1.80
  10  -1   0    9.10    1.70
  11  -1   0   25.50    2.80
  11   1   0   31.90    2.70
  11   1   0   21.50    2.40
  11   1   0   23.10    2.60
  11  -1   0   25.30    2.70
   0  -2   0 1574.24   23.10
   0  -2   0 1575.24   23.80
   0  -2   0 1526.85   22.40
   0   2   0 1532.55   22.90
   0   2   0 1576.14   22.70
   0  -2   0 1544.95   22.80
   0   2   0 1591.44   22.40
   0   2   0 1519.55   22.40
   0  -2   0 1596.14   22.60
   1  -2   0  744.93   11.30
   1   2   0  795.72   11.50
  -1   2   0  789.62   11.30
   1   2   0  775.12   11.10
   1   2   0  763.02   11.50
   1  -2   0  776.22   11.40
   1  -2   0  772.32   11.50
   1  -2   0  768.32   11.50
  -1  -2   0  771.02   11.40
   1  -2   0  776.52   11.30
   1   2   0  787.22   11.40
  -1  -2   0  764.72   11.50
   1   2   0  823.92   11.70
   1   2   0  756.22   11.40
  -1  -2   0  785.32   11.30
   1  -2   0  773.02   11.20
  -1   2   0  756.52   11.50
   2  -2   0  669.73   10.10
   2   2   0  646.74    9.80
  -2  -2   0  677.63    9.90
   2   2   0  661.53   10.10
  -2   2   0  638.84   10.20
  -2  -2   0  665.83    9.80
  -2   2   0  666.13   10.10
   2   2   0  656.03   10.10
  -2  -2   0  638.34   10.00
   2   2   0  643.24   10.10
   2  -2   0  657.03    9.60
   2  -2   0  674.23   10.10
   2  -2   0  663.83   10.20
   2  -2   0  652.93    9.90
   2   2   0  663.63   10.10
   2   2   0  671.93    9.80
  -2  -2   0  678.83   10.10
  -3   2   0  516.35    8.50
  -3  -2   0  514.55    8.10
   3   2   0  503.15    8.40
   3   2   0  502.65    8.00
   3  -2   0  507.55    7.80
  -3   2   0  521.45    8.40
   3   2   0  492.45    8.30
   3   2   0  510.95    8.30
   3  -2   0  506.85    8.10
   3   2   0  502.15    7.80
  -3  -2   0  524.05    8.20
   3  -2   0  506.35    8.30
   3   2   0  522.95    8.30
   3  -2   0  505.35    8.30
  -3  -2   0  515.15    7.90
   3  -2   0  509.35    8.10
  -4   2   0   70.29    2.30
   4  -2   0   71.09    2.00
   4  -2   0   73.69    2.00
  -4  -2   0   72.99    1.90
  -4  -2   0   70.19    2.10
   4  -2   0   68.59    1.80
   4  -2   0   73.39    2.10
   4   2   0   70.69    2.10
   4   2   0   69.99    2.10
   4   2   0   70.29    1.70
   4   2   0   69.79    2.00
   4   2   0   70.19    2.10
   5  -2   0  206.58    4.30
   5   2   0  206.08    3.70
   5  -2   0  201.08    4.50
   5   2   0  198.38    4.40
   5  -2   0  202.38    4.10
   5   2   0  199.98    4.50
  -5   2   0  201.68    4.80
   5   2   0  199.58    4.60
  -5   2   0  205.88    4.70
   5   2   0  198.98    4.60
  -5   2   0  208.98    3.40
   5  -2   0  208.48    4.50
  -5  -2   0  204.88    4.10
   5   2   0  201.68    4.30
  -5  -2   0  200.48    4.50
   5  -2   0  201.98    4.30
   6   2   0   60.69    2.40
   6  -2   0   61.79    2.60
   6  -2   0   57.79    2.40
   6  -2   0   60.69    2.10
   6  -2   0   61.19    2.20
   6   2   0   61.39    2.20
   6  -2   0   61.39    2.30
   6   2   0   64.99    2.50
  -6  -2   0   62.99    2.50
   6  -2   0   61.99    2.30
  -6   2   0   60.59    2.60
  -6   2   0   63.99    2.70
   6   2   0   60.79    2.30
   6   2   0   68.19    1.70
  -6  -2   0   62.89    2.00
   6   2   0   60.19    2.50
   7  -2   0    6.10    1.00
   7  -2   0    5.80    1.10
   7  -2   0    7.60    1.10
   7   2   0    6.90    1.10
  -7   2   0    8.30    1.40
   7  -2   0    7.10    1.20
   7   2   0    8.40    1.20
   7   2   0    9.60    1.20
   7  -2   0    8.80    1.20
   7   2   0    7.20    1.10
   7   2   0    6.10    1.10
  -7  -2   0    8.50    1.30
  -7  -2   0    9.00    1.00
   7  -2   0    7.60    1.00
   8   2   0   93.79    3.40
   8   2   0   90.79    3.50
   8  -2   0   90.49    3.60
   8   2   0   87.89    3.70
   8  -2   0   93.59    3.40
   8  -2   0   92.39    3.30
   8   2   0   96.69    3.60
   8  -2   0   90.89    3.10
   8  -2   0   92.09    3.40
   8  -2   0   88.69    3.60
   8   2   0   92.99    3.30
  -8   2   0   94.79    4.00
  -9   2   0   -1.70    1.10
   9  -2   0    0.60    0.90
   9   2   0    0.80    1.00
   9   2   0    1.00    1.00
   9   2   0    0.40    1.10
   9  -2   0    1.90    1.10
   9   2   0    1.20    0.90
   9  -2   0    1.40    0.90
   9  -2   0    0.90    0.90
   9  -2   0    0.00    0.80
   9   2   0    1.30    1.20
  10  -2   0   42.00    2.90
  10   2   0   47.50    2.90
  10  -2   0   46.80    3.00
  10   2   0   44.80    2.70
  10   2   0   48.10    3.00
  10   2   0   43.30    3.00
  11  -2   0   57.09    3.50
  11   2   0   54.29    3.60
  11   2   0   61.79    3.60
  11   2   0   64.89    3.50
  11  -2   0   62.29    3.80
   0  -3   0   -0.20    0.30
   0  -3   0   -1.10    0.30
   0   3   0   -0.60    0.30
   0  -3   0   -1.90    0.40
   0  -3   0   -0.60    0.30
   0   3   0   -0.80    0.30
   0   3   0   -0.50    0.20
  -1  -3   0 3306.67   49.99
   1   3   0 3614.44   49.90
   1   3   0 3446.46   50.09
   1  -3   0 3405.16   50.49
   1  -3   0 3366.06   51.19
   1  -3   0 3522.95   49.60
   1  -3   0 3570.74   51.39
   1   3   0 3456.65   50.49
   1   3   0 3368.76   52.49
   1   3   0 3521.35   52.69
   1  -3   0 3364.56   52.29
   1  -3   0 3576.74   51.59
  -1   3   0 3626.74   49.60
  -1   3   0 3553.04   51.29
  -1   3   0 3489.95   49.60
  -1  -3   0 3529.35   51.69
  -1  -3   0 3600.14   53.39
   2   3   0   45.10    1.10
  -2   3   0   45.50    1.50
  -2  -3   0   44.90    1.20
   2  -3   0   45.20    1.40
   2  -3   0   46.30    1.20
   2  -3   0   46.60    1.50
  -2   3   0   47.90    1.40
   2   3   0   46.90    1.50
  -2  -3   0   46.90    1.40
   2   3   0   47.20    1.30
   2  -3   0   46.20    1.30
   2  -3   0   45.80    1.40
   2   3   0   46.40    1.40
   2  -3   0   47.40    1.20
   3  -3   0  764.92   11.80
   3   3   0  732.13   12.10
   3   3   0  751.62   12.00
  -3  -3   0  774.22   11.80
   3  -3   0  787.42   12.10
   3   3   0  760.72   12.10
  -3  -3   0  781.92   12.00
   3   3   0  776.52   11.70
  -3  -3   0  770.12   11.60
   3  -3   0  770.12   11.30
   3   3   0  756.62   12.10
   3  -3   0  790.22   12.10
   3   3   0  753.62   11.60
  -3   3   0  786.12   12.30
  -3   3   0  778.02   12.10
   4  -3   0   44.90    1.60
   4  -3   0   45.90    1.30
  -4  -3   0   46.30    1.60
  -4  -3   0   45.50    1.40
   4   3   0   41.80    1.50
   4   3   0   46.20    1.70
   4   3   0   45.50    1.40
  -4   3   0   45.80    1.80
   4  -3   0   47.00    1.80
  -4  -3   0   45.70    1.60
   4  -3   0   44.50    1.70
   4   3   0   45.60    1.80
   4   3   0   42.50    1.70
  -4   3   0   45.50    1.90
   4  -3   0   46.50    1.60
   5   3   0  110.69    3.10
   5  -3   0  115.19    3.20
   5   3   0  113.99    2.60
   5   3   0  112.89    2.90
   5  -3   0  116.69    2.70
   5   3   0  115.39    3.20
  -5   3   0  115.39    3.30
   5  -3   0  117.09    3.20
  -5   3   0  114.89    3.40
   5  -3   0  114.69    3.00
   5   3   0  112.39    3.20
  -5  -3   0  116.09    2.90
   5  -3   0  114.79    3.00
  -5  -3   0  115.59    3.10
   6  -3   0    7.80    1.00
  -6   3   0    5.60    1.00
   6   3   0    8.80    1.20
  -6  -3   0    9.30    1.20
   6   3   0    8.90    1.20
  -6   3   0   10.50    1.40
   6  -3   0    9.50    0.90
   6   3   0    6.90    1.00
   6  -3   0    7.00    1.00
   6   3   0    7.60    1.00
   6   3   0    7.90    1.10
   6   3   0    9.00    0.80
  -6  -3   0    8.70    1.00
   6  -3   0    9.10    1.10
   6  -3   0    8.60    1.00
   7  -3   0   33.20    1.70
   7   3   0   29.50    2.20
   7   3   0   33.30    2.10
   7  -3   0   33.50    2.30
  -7   3   0   31.60    2.20
   7   3   0   34.20    1.90
   7   3   0   33.80    2.10
   7  -3   0   31.90    2.10
  -7  -3   0   35.10    1.80
   7   3   0   33.70    1.90
   7  -3   0   28.30    1.70
   7  -3   0   36.40    2.10
   8   3   0   74.79    3.40
   8  -3   0   73.79    3.30
   8   3   0   67.49    3.10
  -8   3   0   69.19    3.40
   8  -3   0   74.89    2.60
   8   3   0   74.69    2.90
   8   3   0   73.79    3.00
   8  -3   0   74.09    3.30
   8  -3   0   73.49    3.10
   8  -3   0   75.49    3.00
   8  -3   0   71.49    2.70
   8  -3   0   73.99    3.00
   8   3   0   73.89    3.20
   9  -3   0   27.60    2.30
   9  -3   0   25.50    2.00
   9   3   0   25.10    2.10
   9   3   0   28.50    2.40
  -9   3   0   24.30    2.70
   9   3   0   21.50    2.30
   9   3   0   25.20    2.10
   9   3   0   29.10    2.70
   9  -3   0   26.20    2.50
   9  -3   0   25.40    2.40
  10   3   0    2.80    1.10
  10   3   0    0.90    1.00
  10   3   0    1.50    1.20
  10   3   0    1.00    1.20
  10  -3   0    1.30    1.30
 -10   3   0    3.50    1.80
  10  -3   0    1.40    1.30
  11  -3   0    1.60    1.20
  11   3   0    1.40    1.20
  11  -3   0    0.00    1.20
  11   3   0    0.60    1.40
  11   3   0    1.90    1.20
   0  -4   0 4342.17   62.89
   0  -4   0 4325.27   64.69
   0   4   0 4185.68   62.59
   0   4   0 4472.25   64.49
   0  -4   0 4282.97   64.19
   0   4   0 4488.45   64.99
   0  -4   0 4463.75   63.39
   0   4   0 4309.47   63.59
   1  -4   0  721.73   10.30
  -1  -4   0  693.53   11.00
  -1  -4   0  691.63   10.90
   1  -4   0  693.23   10.80
  -1   4   0  720.13   10.10
  -1   4   0  721.23   10.50
  -1  -4   0  694.23   10.70
   1   4   0  707.43   11.00
   1   4   0  714.93   10.10
   1   4   0  709.53   10.70
   1  -4   0  714.53   10.90
   1  -4   0  699.83   11.00
   1   4   0  715.53   10.10
  -1   4   0  697.63   10.90
   1  -4   0  715.43   10.80
  -1  -4   0  702.73   10.80
   1   4   0  701.93   10.90
   2  -4   0  599.44    9.20
   2  -4   0  595.54    9.10
   2  -4   0  606.64    9.60
   2  -4   0  591.54    9.60
   2   4   0  586.04    9.60
  -2   4   0  595.44    9.60
   2  -4   0  614.94    9.50
   2  -4   0  580.84    9.30
   2   4   0  573.64    9.40
   2   4   0  597.14    9.60
   2   4   0  595.34    8.90
  -2  -4   0  598.34    9.60
   2   4   0  622.14    9.40
  -2  -4   0  603.84    9.20
  -2   4   0  603.44    9.40
   3   4   0    0.80    0.40
   3   4   0    0.20    0.40
   3  -4   0    0.20    0.30
   3  -4   0    0.60    0.40
   3   4   0    0.70    0.40
   3  -4   0    1.90    0.50
  -3  -4   0    0.30    0.40
   3  -4   0    1.40    0.40
   3  -4   0    0.60    0.30
  -3   4   0    0.00    0.40
   3   4   0    0.20    0.30
   3   4   0    0.00    0.40
  -3  -4   0    0.70    0.30
   3   4   0    0.20    0.50
  -3   4   0    0.00    0.40
  -4  -4   0  205.88    3.90
   4  -4   0  206.38    4.50
  -4  -4   0  207.88    4.30
   4   4   0  209.68    4.40
  -4   4   0  204.48    4.40
   4  -4   0  204.38    4.10
   4   4   0  208.88    4.50
   4   4   0  204.48    4.00
   4   4   0  201.28    4.50
  -4   4   0  204.18    4.60
   4   4   0  200.48    4.40
   4   4   0  203.68    4.00
   4  -4   0  202.78    4.40
   4  -4   0  206.68    4.10
   5   4   0  170.48    4.20
   5  -4   0  173.88    4.20
   5  -4   0  176.08    4.00
   5   4   0  179.48    4.20
   5   4   0  174.28    3.80
   5  -4   0  178.68    3.90
   5  -4   0  175.78    4.00
   5   4   0  174.88    4.30
  -5  -4   0  181.28    3.60
   5   4   0  173.08    3.60
  -5  -4   0  171.28    4.00
  -5   4   0  179.88    4.50
   5  -4   0  177.58    4.30
   5  -4   0  180.88    3.50
   5   4   0  174.18    4.30
   6  -4   0  129.99    3.80
   6   4   0  131.99    3.90
   6  -4   0  130.49    3.60
  -6   4   0  131.79    4.00
   6   4   0  123.49    3.60
   6  -4   0  132.09    3.40
   6  -4   0  134.89    3.10
   6  -4   0  130.09    3.50
   6   4   0  130.09    3.40
   6   4   0  135.19    3.10
   6  -4   0  126.79    3.70
   6   4   0  127.69    3.80
  -6  -4   0  133.99    3.50
   6   4   0  125.49    3.90
   7   4   0    2.00    0.80
  -7  -4   0    4.10    0.90
   7  -4   0    3.50    0.80
   7  -4   0    0.80    0.70
   7  -4   0    1.80    0.80
   7  -4   0    1.10    0.80
   7   4   0    1.80    0.60
  -7   4   0    1.50    1.10
   7   4   0    2.40    0.90
   7   4   0    1.40    0.80
  -7   4   0    1.70    0.80
   7  -4   0    1.80    0.80
   7  -4   0    1.30    0.70
   7   4   0    1.60    0.90
   7   4   0    2.20    1.00
   8  -4   0  122.89    3.90
   8   4   0  123.39    4.00
  -8   4   0  115.09    4.50
   8  -4   0  126.19    4.10
   8  -4   0  126.49    3.60
   8  -4   0  123.79    4.30
   8  -4   0  131.29    4.20
   8  -4   0  121.39    4.30
   8   4   0  119.19    4.30
   8   4   0  125.59    4.50
   8   4   0  123.79    4.30
   8   4   0  121.79    3.90
   9  -4   0   13.40    1.80
   9  -4   0   18.90    2.20
   9   4   0   10.60    1.80
   9   4   0   14.90    1.80
   9  -4   0   15.80    1.90
   9   4   0   13.50    1.90
   9   4   0   18.00    1.90
  -9   4   0   16.80    2.40
   9  -4   0   16.10    1.90
   9   4   0   16.50    2.10
   9  -4   0   14.00    1.70
  10  -4   0   13.70    1.90
  10  -4   0   13.50    2.00
  10   4   0   14.50    1.90
  10   4   0   15.80    2.20
  10   4   0   18.80    2.10
  10   4   0   12.00    1.90
 -10   4   0   12.60    2.40
  11   4   0   80.19    4.10
  11   4   0   81.79    3.90
  11  -4   0   73.59    3.90
   0  -5   0   -1.40    0.30
   0  -5   0   -1.10    0.40
   0  -5   0   -0.70    0.40
   0   5   0   -0.90    0.30
   0  -5   0   -0.90    0.40
   0   5   0   -1.60    0.40
  -1  -5   0 1568.94   23.10
   1   5   0 1570.54   22.80
  -1   5   0 1590.74   22.60
   1   5   0 1571.94   23.20
   1  -5   0 1544.25   23.00
   1   5   0 1510.25   22.30
  -1   5   0 1542.85   23.20
  -1   5   0 1568.24   22.50
   1  -5   0 1579.64   23.00
   1   5   0 1576.24   23.20
   1  -5   0 1512.05   23.20
   1  -5   0 1633.84   22.30
  -1  -5   0 1553.04   23.20
   1  -5   0 1581.64   23.10
  -1  -5   0 1530.45   22.90
  -2  -5   0   26.70    1.20
   2   5   0   28.10    0.80
   2   5   0   28.20    1.30
   2  -5   0   26.10    1.30
  -2   5   0   28.20    1.10
   2   5   0   28.60    1.20
  -2  -5   0   27.80    1.30
   2  -5   0   26.60    0.90
   2  -5   0   25.00    1.20
   2   5   0   35.30    1.30
   2   5   0   26.70    1.30
  -2  -5   0   26.60    1.10
  -2   5   0   28.50    1.40
   2  -5   0   27.60    1.20
   2  -5   0   24.90    1.10
   3   5   0    7.80    0.80
  -3   5   0   10.40    0.90
   3  -5   0   10.40    1.00
   3  -5   0   14.20    1.00
  -3   5   0    8.00    0.90
  -3  -5   0   11.90    1.10
   3  -5   0   14.20    1.10
  -3  -5   0    9.10    0.80
   3   5   0    9.10    0.90
   3   5   0    9.00    0.60
   3   5   0    9.50    0.90
   3  -5   0   10.50    0.80
   3   5   0    7.60    0.80
   3  -5   0   12.80    0.80
   4  -5   0   13.90    1.00
   4  -5   0   16.00    1.20
   4   5   0   15.90    1.20
   4  -5   0   15.50    1.30
   4   5   0   15.40    1.20
  -4   5   0   13.70    1.20
   4  -5   0   15.20    1.00
   4   5   0   15.30    0.90
   4   5   0   13.30    1.20
  -4  -5   0   16.60    1.00
  -4   5   0   16.40    1.40
   4   5   0   17.40    1.00
  -4  -5   0   17.90    1.30
   4   5   0   16.30    1.20
  -5   5   0   42.60    2.10
   5   5   0   42.20    2.00
   5   5   0   43.00    2.10
   5   5   0   41.90    2.00
   5  -5   0   44.30    1.80
   5  -5   0   39.90    2.00
  -5  -5   0   41.60    1.60
  -5  -5   0   43.70    2.00
   5  -5   0   44.20    1.90
   5  -5   0   40.10    1.90
   5   5   0   40.90    1.60
  -5   5   0   45.50    2.20
   5  -5   0   41.60    1.80
   5   5   0   41.20    1.60
   5   5   0   39.90    1.90
   6   5   0   28.40    1.90
   6   5   0   25.80    1.70
  -6   5   0   22.30    1.80
   6  -5   0   24.30    1.70
   6   5   0   25.30    1.90
   6   5   0   23.60    1.40
  -6  -5   0   24.60    1.70
   6  -5   0   23.90    1.50
   6  -5   0   24.40    1.60
   6   5   0   25.30    1.80
   6  -5   0   27.20    1.90
   6   5   0   23.20    1.40
  -6   5   0   21.80    1.90
   6  -5   0   25.10    1.60
   7   5   0  369.16    8.10
   7  -5   0  366.76    7.50
   7   5   0  350.46    7.60
  -7   5   0  361.16    8.20
   7   5   0  366.86    8.10
   7  -5   0  366.86    7.60
  -7   5   0  360.66    8.20
   7  -5   0  355.26    7.80
   7   5   0  363.16    8.00
   7  -5   0  364.16    7.20
   7   5   0  359.76    7.30
   7  -5   0  368.56    7.90
   7   5   0  363.86    6.80
  -7  -5   0  370.96    7.50
   8   5   0   34.10    2.10
  -8   5   0   32.40    2.50
   8   5   0   32.80    2.60
   8   5   0   31.30    2.20
   8  -5   0   31.00    2.40
   8   5   0   34.80    2.40
   8  -5   0   31.50    2.30
  -8  -5   0   33.80    2.20
   8  -5   0   31.10    1.90
   8  -5   0   32.60    2.10
   8  -5   0   30.30    2.20
  -8   5   0   30.20    2.50
   8   5   0   30.70    2.40
   9   5   0  444.26   10.20
   9  -5   0  452.65    9.30
   9  -5   0  447.36    9.90
   9  -5   0  440.46    9.60
   9   5   0  425.26    9.80
   9  -5   0  427.16    9.90
  -9   5   0  433.36   10.40
   9  -5   0  444.26    9.50
   9   5   0  430.76    9.90
   9   5   0  440.86    9.20
   9   5   0  444.56    9.50
  10   5   0    4.70    1.50
  10   5   0    4.10    1.40
  10  -5   0    5.00    1.60
  10   5   0    6.70    1.60
 -10   5   0    7.10    2.00
  10   5   0    6.20    1.40
  10  -5   0    9.00    1.70
  11   5   0    2.20    1.40
  11   5   0    1.10    1.10
  11  -5   0    1.30    1.30
   0  -6   0  662.83   10.60
   0  -6   0  635.94   10.30
   0   6   0  655.43    9.50
   0  -6   0  656.53   10.60
   0   6   0  659.83   10.60
   0   6   0  629.54    9.80
   1  -6   0  453.15    7.60
  -1   6   0  445.96    6.60
   1  -6   0  435.96    7.50
   1  -6   0  454.05    6.70
  -1  -6   0  451.15    7.50
   1   6   0  445.96    7.80
  -1   6   0  449.36    7.00
  -1   6   0  430.26    7.70
   1   6   0  436.86    7.20
  -1  -6   0  451.55    7.90
   1   6   0  442.56    7.70
  -1  -6   0  440.86    7.60
   1  -6   0  438.46    7.70
   2  -6   0  460.15    7.70
   2  -6   0  448.96    8.10
   2   6   0  465.55    8.10
   2  -6   0  463.95    7.80
   2  -6   0  463.45    7.20
  -2   6   0  451.45    8.00
  -2  -6   0  457.75    8.10
   2   6   0  445.26    7.70
   2  -6   0  440.36    7.80
   2   6   0  467.65    6.60
  -2   6   0  463.25    7.60
  -2  -6   0  464.75    7.70
   2   6   0  455.55    6.90
   2   6   0  454.35    8.00
   2   6   0  445.76    7.70
  -2  -6   0  466.35    7.80
   3  -6   0   16.40    1.00
   3  -6   0   19.20    1.20
  -3   6   0   16.00    1.10
   3  -6   0   16.70    1.10
   3  -6   0   17.20    1.30
  -3   6   0   16.40    1.30
  -3  -6   0   18.20    1.30
  -3  -6   0   18.80    1.10
   3  -6   0   17.70    0.90
   3   6   0   16.00    1.20
   3   6   0   19.10    1.10
   3   6   0   15.50    1.20
   3   6   0   18.10    0.80
   3   6   0   17.10    1.30
  -4  -6   0    3.00    0.80
   4  -6   0    3.80    0.60
   4   6   0    3.70    0.80
   4   6   0    3.80    0.70
   4   6   0    3.70    0.60
   4   6   0    3.20    0.70
  -4  -6   0    3.70    0.60
   4  -6   0    3.30    0.80
  -4   6   0    3.40    0.40
  -4   6   0    3.80    0.80
   4  -6   0    3.40    0.80
  -4   6   0    1.90    0.70
   4  -6   0    3.50    0.60
   4   6   0    3.10    0.70
   4  -6   0    3.30    0.70
   5  -6   0    3.20    0.90
   5   6   0    3.70    0.60
   5   6   0    3.90    0.90
  -5  -6   0    3.80    0.70
   5  -6   0    4.00    0.80
   5  -6   0    3.00    0.70
  -5   6   0    4.20    1.00
   5   6   0    3.90    1.00
   5  -6   0    3.70    0.80
   5   6   0    2.50    0.80
  -5  -6   0    2.20    0.80
  -5   6   0    4.30    1.00
   5   6   0    5.60    1.00
   5   6   0    3.70    0.80
   6  -6   0   28.30    1.70
  -6  -6   0   28.30    1.90
   6  -6   0   23.60    1.70
   6   6   0   27.90    2.00
   6   6   0   25.30    1.50
  -6   6   0   24.40    2.00
  -6   6   0   24.50    2.00
   6   6   0   28.80    1.50
  -6  -6   0   25.00    1.50
   6   6   0   22.80    1.70
   6   6   0   28.30    2.10
   6  -6   0   25.60    1.60
   6   6   0   22.30    1.70
   6  -6   0   26.70    1.70
   6  -6   0   25.10    1.90
   7  -6   0  106.39    3.50
   7   6   0  107.89    3.30
   7   6   0   99.39    3.60
   7  -6   0  114.49    3.60
   7   6   0  105.29    3.90
   7   6   0  106.89    4.00
  -7  -6   0  109.09    3.70
  -7   6   0  109.69    4.10
   7   6   0   99.79    3.80
   7  -6   0  108.69    3.80
   7   6   0  109.29    3.10
   7  -6   0  114.89    4.00
   7  -6   0  111.49    3.40
  -7   6   0  108.29    4.10
   8   6   0   54.39    2.90
   8  -6   0   55.59    2.80
   8   6   0   56.49    2.50
  -8   6   0   55.19    3.30
   8  -6   0   55.29    2.50
  -8   6   0   52.99    3.30
   8   6   0   52.79    3.00
   8   6   0   58.09    3.20
   8  -6   0   61.99    3.10
   8   6   0   58.99    3.10
   8  -6   0   57.09    2.70
  -8  -6   0   59.39    2.90
   8  -6   0   58.49    3.10
   9   6   0   27.10    2.30
   9  -6   0   21.10    2.80
   9  -6   0   27.90    2.50
   9   6   0   31.80    2.90
   9   6   0   26.20    2.20
   9  -6   0   32.40    2.60
   9  -6   0   30.10    2.40
   9   6   0   30.80    2.90
   9   6   0   28.00    2.40
  -9   6   0   33.90    3.30
  10   6   0   13.20    2.20
  10   6   0   11.10    2.00
  10   6   0   10.00    1.60
  10  -6   0    8.80    1.70
  10   6   0    8.40    1.60
  10  -6   0    8.70    1.80
 -10   6   0    9.90    2.20
   0   7   0    0.40    0.30
   0  -7   0    0.00    0.40
   0  -7   0    0.10    0.60
   0   7   0    0.30    0.50
   0  -7   0    0.20    0.50
   0   7   0   -0.10    0.20
   1  -7   0    0.50    0.60
   1   7   0    1.20    0.60
   1   7   0    0.50    0.40
  -1  -7   0    0.10    0.40
  -1   7   0    0.50    0.20
   1  -7   0    0.50    0.50
  -1  -7   0    0.50    0.60
  -1   7   0    1.70    0.40
   1  -7   0    0.30    0.50
  -1   7   0    0.10    0.40
   1   7   0    0.70    0.60
   2  -7   0    1.90    0.40
  -2  -7   0    0.80    0.70
   2  -7   0    1.10    0.60
   2   7   0    1.20    0.20
  -2  -7   0    0.40    0.40
   2  -7   0    1.10    0.50
   2   7   0   -0.10    0.40
  -2   7   0    0.60    0.40
   2  -7   0    1.50    0.50
  -2  -7   0    0.60    0.50
  -2   7   0    1.40    0.60
   2   7   0    0.60    0.50
   2   7   0    1.30    0.50
   2  -7   0    1.10    0.60
   2   7   0    0.20    0.50
   3   7   0  272.37    5.70
   3  -7   0  275.57    4.90
  -3  -7   0  274.47    5.20
   3   7   0  256.97    5.30
   3   7   0  264.67    5.70
   3  -7   0  268.07    5.50
  -3   7   0  271.27    5.30
   3  -7   0  271.57    5.40
   3   7   0  257.37    4.50
   3  -7   0  271.07    5.20
  -3  -7   0  274.17    5.40
   3   7   0  267.07    5.50
  -3  -7   0  271.57    5.80
  -3   7   0  268.97    5.70
   3  -7   0  268.17    5.80
   4  -7   0   28.00    1.70
   4  -7   0   29.70    1.60
  -4   7   0   27.00    1.70
   4  -7   0   28.90    1.40
  -4   7   0   28.30    1.10
   4   7   0   27.10    1.10
  -4  -7   0   28.90    1.80
  -4  -7   0   29.20    1.50
   4   7   0   29.90    1.90
   4  -7   0   26.00    1.80
   4   7   0   27.20    1.70
   4   7   0   30.60    1.50
  -4   7   0   28.00    1.80
   4  -7   0   26.50    1.40
   4   7   0   30.90    1.80
   5   7   0    0.50    0.70
  -5   7   0   -0.20    0.70
  -5  -7   0   -0.60    0.60
  -5  -7   0    1.20    0.80
   5  -7   0    0.70    0.60
   5  -7   0    1.50    0.70
  -5   7   0   -0.30    0.70
   5   7   0    0.30    0.80
   5   7   0    1.20    0.50
   5  -7   0    0.10    0.70
   5  -7   0    0.80    0.70
   5   7   0   -0.50    0.60
   5   7   0    1.00    0.60
   6  -7   0    9.70    1.20
   6   7   0   11.30    1.50
   6   7   0    9.20    1.30
   6   7   0    8.00    1.00
   6   7   0    9.00    1.40
  -6  -7   0   10.10    1.40
   6  -7   0    8.90    1.40
  -6  -7   0   11.70    1.20
   6   7   0    8.80    1.10
  -6   7   0    7.80    1.40
   6  -7   0    8.70    1.20
   6  -7   0    7.70    1.20
  -6   7   0    8.10    1.30
   6  -7   0    7.20    1.10
   7   7   0    8.70    1.20
   7   7   0    8.50    1.40
   7  -7   0    7.70    1.20
   7  -7   0    7.30    1.20
  -7   7   0    9.30    1.60
   7  -7   0   10.70    1.60
   7   7   0    9.00    1.20
  -7  -7   0    6.20    1.30
  -7   7   0    6.40    1.40
   7   7   0    7.60    1.30
   7  -7   0    6.20    1.30
   7   7   0    7.00    1.40
   7  -7   0    6.40    1.20
   7   7   0    5.70    1.30
   8   7   0  194.48    6.10
   8  -7   0  194.38    5.40
   8  -7   0  191.08    5.80
   8   7   0  189.58    5.60
   8   7   0  198.48    5.90
   8   7   0  205.18    6.10
   8  -7   0  200.58    5.90
   8  -7   0  196.18    5.10
  -8  -7   0  197.48    5.60
   8  -7   0  201.18    5.40
   8   7   0  198.08    5.00
  -8   7   0  196.58    6.20
   9  -7   0   -0.30    1.10
   9   7   0    1.50    0.90
   9   7   0    1.10    1.30
   9   7   0    0.30    0.90
  -9   7   0   -0.20    1.40
   9   7   0   -0.30    1.10
   9  -7   0    0.20    1.10
   9  -7   0    1.60    1.20
   9   7   0    1.30    1.30
  10   7   0    3.30    1.40
  10  -7   0    3.50    1.30
  10  -7   0    3.70    1.50
  10   7   0    2.70    1.50
 -10   7   0    6.10    2.00
  10   7   0    3.40    1.10
   0  -8   0  241.58    5.20
   0  -8   0  236.78    5.10
   0  -8   0  230.38    4.90
   0   8   0  227.38    4.20
   0   8   0  242.88    5.20
   0   8   0  245.28    3.90
   1  -8   0    0.00    0.60
  -1   8   0    0.30    0.50
  -1   8   0    0.30    0.30
   1  -8   0    0.10    0.50
   1   8   0    1.20    0.60
  -1  -8   0    0.30    0.60
  -1  -8   0    0.70    0.50
   1   8   0   -0.30    0.40
   1  -8   0    0.40    0.60
   1   8   0    1.00    0.60
   1   8   0   -0.10    0.30
  -1   8   0    1.50    0.30
  -1  -8   0   -0.10    0.50
   2  -8   0   24.40    1.60
   2  -8   0   17.90    1.30
   2   8   0   21.80    1.40
   2   8   0   20.40    1.50
   2  -8   0   19.00    0.80
   2   8   0   25.70    1.50
   2  -8   0   23.50    1.40
   2  -8   0   21.80    1.50
  -2  -8   0   21.40    1.30
  -2   8   0   19.60    1.20
  -2  -8   0   18.10    1.50
   2   8   0   19.20    1.20
  -2   8   0   23.30    1.60
  -2  -8   0   23.00    1.40
   3  -8   0   42.30    1.90
   3  -8   0   41.70    2.00
  -3   8   0   39.70    2.10
  -3   8   0   40.80    1.50
  -3  -8   0   46.20    2.30
   3  -8   0   42.10    1.80
  -3   8   0   39.80    1.80
   3   8   0   41.80    1.90
   3   8   0   43.90    2.10
   3   8   0   41.50    1.90
  -3  -8   0   39.40    1.80
  -3  -8   0   41.50    1.90
   3   8   0   39.00    2.10
   3  -8   0   42.00    1.50
   3   8   0   38.80    1.10
   3  -8   0   43.90    2.10
   4  -8   0   12.30    1.10
  -4   8   0    8.40    1.20
  -4  -8   0    8.50    1.10
   4  -8   0   10.40    1.30
   4   8   0   11.80    1.40
  -4   8   0    9.50    1.30
   4   8   0   11.20    0.80
  -4   8   0   10.10    0.80
   4  -8   0   11.90    1.30
   4   8   0   10.40    1.30
   4  -8   0    9.90    1.40
   4   8   0   10.60    1.20
  -4  -8   0    9.60    1.40
   4  -8   0   11.00    1.10
  -4  -8   0   11.80    1.10
   4   8   0    9.50    1.20
  -5   8   0   80.49    3.00
  -5   8   0   80.09    3.20
  -5  -8   0   83.79    3.30
  -5  -8   0   84.09    2.80
   5  -8   0   78.69    3.00
  -5  -8   0   85.19    2.70
   5  -8   0   83.89    2.60
   5  -8   0   85.29    2.90
   5   8   0   86.29    3.20
   5  -8   0   79.29    3.20
   5   8   0   79.09    3.20
   5   8   0   79.19    2.20
   5   8   0   79.19    3.00
   5   8   0   77.79    2.70
   6   8   0   69.69    2.30
   6   8   0   70.49    3.10
  -6  -8   0   74.79    2.70
   6  -8   0   69.79    2.90
   6  -8   0   70.09    2.60
   6  -8   0   68.99    2.80
  -6  -8   0   68.09    3.10
   6   8   0   71.29    3.30
  -6   8   0   72.49    3.20
  -6  -8   0   69.49    2.50
   6  -8   0   73.89    3.20
   6   8   0   70.49    2.70
   6   8   0   70.39    3.10
  -6   8   0   66.09    3.10
   7   8   0  306.17    6.40
  -7   8   0  304.77    7.60
   7  -8   0  314.57    7.70
   7  -8   0  301.07    7.30
   7   8   0  313.57    6.60
  -7  -8   0  296.77    7.40
   7   8   0  322.67    7.70
   7  -8   0  310.97    6.90
   7  -8   0  301.57    7.00
   7   8   0  314.97    7.40
   7  -8   0  306.17    6.80
   7   8   0  313.57    7.80
   8  -8   0   46.00    3.00
   8  -8   0   39.50    2.50
  -8   8   0   44.00    3.10
   8  -8   0   40.60    2.80
   8  -8   0   41.00    2.40
   8   8   0   44.10    2.90
   8   8   0   42.50    2.70
  -8  -8   0   43.80    2.80
   8  -8   0   44.40    2.60
   8   8   0   42.50    3.00
   9   8   0   82.19    4.70
   9  -8   0   75.29    3.70
   9   8   0   76.09    3.70
   9  -8   0   86.39    3.70
   9  -8   0   82.69    4.00
   9   8   0   79.49    4.00
  -9   8   0   78.09    4.30
  10   8   0   24.50    2.60
 -10   8   0   31.30    5.20
  10  -8   0   28.70    3.30
  10   8   0   24.70    2.90
  10  -8   0   22.30    2.50
   0  -9   0    0.50    0.50
   0  -9   0    0.70    0.60
   0   9   0   -0.10    0.60
   0   9   0   -0.20    0.30
   0   9   0   -0.30    0.50
   0   9   0    0.70    0.30
   0  -9   0    0.20    0.60
   1  -9   0   22.70    1.70
   1   9   0   23.10    1.60
  -1   9   0   26.20    1.40
  -1  -9   0   23.80    1.50
   1  -9   0   24.70    1.50
  -1   9   0   25.10    1.70
  -1  -9   0   27.20    1.70
  -1   9   0   23.70    1.10
   1  -9   0   22.10    1.60
   1   9   0   25.60    1.20
  -1  -9   0   25.30    1.70
   1   9   0   24.60    1.50
  -2  -9   0  432.56    8.20
  -2  -9   0  439.26    8.70
  -2  -9   0  443.06    8.00
  -2   9   0  441.86    7.50
   2   9   0  420.66    7.70
   2  -9   0  432.56    8.20
   2   9   0  432.86    8.50
   2   9   0  432.96    8.10
  -2   9   0  436.66    8.40
   2  -9   0  428.36    8.10
   2   9   0  430.86    8.40
  -2   9   0  438.66    7.60
   2  -9   0  417.26    8.50
   2  -9   0  416.66    8.00
  -3   9   0 1367.96   20.90
   3  -9   0 1399.86   21.30
  -3  -9   0 1291.07   21.90
   3  -9   0 1354.06   21.90
  -3   9   0 1366.46   21.80
   3  -9   0 1322.87   21.30
   3  -9   0 1357.06   21.40
   3   9   0 1323.57   21.20
  -3   9   0 1360.36   20.50
   3   9   0 1358.66   21.70
  -3  -9   0 1375.96   21.40
   3   9   0 1340.37   21.80
   3  -9   0 1393.26   20.20
   3   9   0 1390.76   21.40
  -3  -9   0 1373.26   21.10
  -4   9   0   68.19    2.00
  -4   9   0   70.39    2.90
   4   9   0   69.39    2.70
   4  -9   0   68.49    2.60
  -4   9   0   63.49    2.60
  -4  -9   0   69.79    3.10
  -4  -9   0   70.49    2.60
   4   9   0   63.49    2.50
   4  -9   0   70.89    2.40
   4   9   0   64.49    2.80
  -4  -9   0   70.19    2.50
   4  -9   0   61.19    2.90
   4  -9   0   64.99    2.70
   4   9   0   72.59    3.00
   4  -9   0   67.89    2.10
  -5  -9   0    2.60    1.10
   5  -9   0    3.20    1.00
   5   9   0    2.80    0.90
   5  -9   0    0.80    0.80
   5   9   0    3.40    1.00
   5  -9   0    1.20    0.90
  -5   9   0    2.00    0.90
   5  -9   0    4.60    0.90
  -5  -9   0    3.00    0.90
  -5   9   0    0.90    0.80
   5   9   0    2.50    1.00
  -5  -9   0    2.50    0.80
   5   9   0    3.20    1.00
   6   9   0    3.00    1.00
   6  -9   0    6.10    1.20
  -6  -9   0    6.70    1.10
   6   9   0    3.70    1.10
  -6   9   0    5.80    1.30
   6  -9   0    5.40    1.30
  -6  -9   0    5.70    1.00
   6   9   0    6.60    1.10
   6  -9   0    6.60    1.10
   6  -9   0    4.50    1.10
   6   9   0    5.10    1.30
  -6  -9   0    5.50    1.40
   7   9   0   48.30    2.70
   7  -9   0   43.80    2.60
   7  -9   0   43.30    2.40
  -7   9   0   44.50    2.90
   7   9   0   42.90    2.80
   7  -9   0   41.00    2.80
   7  -9   0   43.10    2.40
   7   9   0   40.90    2.40
   7  -9   0   42.70    2.50
   7   9   0   47.70    3.00
  -7  -9   0   42.50    2.80
   8   9   0  114.69    4.50
   8  -9   0  125.19    4.70
  -8  -9   0  122.09    4.70
   8   9   0  130.49    4.90
   8  -9   0  127.89    4.40
   8   9   0  130.79    4.10
   8  -9   0  123.89    4.20
  -8   9   0  125.69    5.00
   8  -9   0  122.79    4.90
   8   9   0  127.69    5.00
   8  -9   0  126.59    4.30
   9  -9   0  121.49    4.90
   9  -9   0  124.19    6.00
   9  -9   0  110.79    4.30
   9   9   0  106.79    4.50
   9  -9   0  109.99    4.60
   9   9   0  107.09    4.70
  -9   9   0  109.39    5.00
  10   9   0    2.00    1.40
  10  -9   0    2.40    1.30
   0  10   0 1210.38   19.10
   0  10   0 1186.48   17.50
   0 -10   0 1176.68   19.20
   0  10   0 1135.59   18.40
   0 -10   0 1183.58   19.10
   0 -10   0 1123.09   18.60
  -1  10   0   30.20    2.00
   1  10   0   30.80    1.70
   1  10   0   26.80    1.30
  -1 -10   0   24.50    1.70
  -1 -10   0   28.40    1.90
  -1  10   0   28.10    1.60
  -1  10   0   27.20    1.30
   1  10   0   29.70    1.90
   1 -10   0   23.80    1.60
  -1 -10   0   28.00    1.70
   1 -10   0   27.80    1.80
   1 -10   0   28.80    1.90
   2 -10   0  298.47    6.30
  -2 -10   0  301.47    6.30
  -2 -10   0  292.17    6.40
   2  10   0  280.77    6.60
  -2  10   0  297.97    5.60
   2 -10   0  302.87    6.40
   2  10   0  290.57    5.90
  -2  10   0  302.77    5.90
   2 -10   0  301.67    6.50
   2  10   0  298.07    6.30
  -2  10   0  299.17    6.60
   2 -10   0  289.47    6.70
   2  10   0  305.47    6.70
  -2 -10   0  302.37    6.90
  -3  10   0   11.60    1.40
   3 -10   0   12.10    1.40
  -3 -10   0   11.80    1.60
   3 -10   0   11.70    1.50
   3  10   0   12.20    1.50
   3  10   0   10.90    1.30
   3  10   0   14.00    1.40
   3 -10   0   13.40    1.40
  -3 -10   0   13.40    1.40
   3  10   0    9.00    1.30
   3 -10   0   14.20    1.40
  -3 -10   0   10.70    1.20
  -3  10   0   11.90    1.20
  -3  10   0   14.40    1.10
   4 -10   0   33.80    2.00
   4  10   0   29.80    1.80
   4  10   0   32.00    2.00
  -4 -10   0   32.80    1.90
  -4  10   0   29.00    2.20
  -4  10   0   29.90    1.40
   4 -10   0   29.80    2.10
  -4 -10   0   33.70    2.30
  -4 -10   0   32.50    1.80
   4 -10   0   34.80    2.10
   4  10   0   30.10    2.20
   4  10   0   31.20    2.20
  -4  10   0   29.20    1.90
   4 -10   0   32.20    2.30
   5  10   0   70.59    2.90
   5 -10   0   64.09    3.20
   5  10   0   60.89    3.00
   5  10   0   69.39    3.20
   5  10   0   64.29    3.00
  -5 -10   0   70.19    2.70
  -5 -10   0   70.89    2.80
   5 -10   0   64.39    2.90
  -5 -10   0   66.19    3.30
  -5  10   0   64.59    2.90
   5 -10   0   66.89    2.80
   6  10   0   65.99    3.40
   6 -10   0   67.19    3.00
  -6  10   0   64.89    3.20
   6 -10   0   62.89    2.90
   6 -10   0   67.39    3.10
  -6 -10   0   65.69    3.40
   6  10   0   60.59    2.80
   6  10   0   65.99    3.20
  -6 -10   0   65.89    2.70
  -6 -10   0   69.79    2.80
   6 -10   0   62.29    3.30
   6  10   0   66.09    3.20
   7 -10   0  174.78    5.40
  -7 -10   0  167.78    5.60
   7 -10   0  175.38    5.10
  -7  10   0  165.48    5.50
   7  10   0  176.48    4.90
   7  10   0  179.48    5.80
   7 -10   0  170.98    5.70
   7 -10   0  171.88    4.90
   7  10   0  176.68    5.60
   7 -10   0  176.18    5.20
   7  10   0  172.48    5.50
   8  10   0   17.90    2.20
   8 -10   0   24.60    2.50
  -8  10   0   22.00    2.60
  -8 -10   0   20.00    2.40
   8  10   0   21.80    2.40
   8 -10   0   21.50    2.50
   8  10   0   23.20    2.10
   8 -10   0   23.70    2.50
   8 -10   0   25.80    3.70
   8 -10   0   23.30    2.20
   9 -10   0   38.50    3.90
   9 -10   0   24.30    2.60
   9  10   0   26.60    2.70
   9 -10   0   25.80    2.80
   9  10   0   31.60    2.80
  -9  10   0   30.70    3.20
   0 -11   0    2.80    1.00
   0  11   0    0.60    0.70
   0 -11   0    0.60    0.70
   0 -11   0    0.50    0.90
   0  11   0    0.50    0.70
  -1 -11   0    0.80    0.80
  -1  11   0    0.60    0.70
   1 -11   0    0.80    0.70
   1 -11   0    0.30    0.80
   1  11   0    3.40    0.70
   1  11   0    0.20    0.70
   1 -11   0    0.10    0.70
  -1  11   0    0.80    0.70
   1  11   0   -0.30    0.70
   1 -11   0    0.80    0.70
  -1 -11   0    0.90    0.80
  -1 -11   0    0.30    0.80
   2 -11   0   76.79    2.90
  -2 -11   0   78.09    2.80
  -2 -11   0   74.79    3.40
  -2 -11   0   80.69    3.10
   2 -11   0   79.99    3.10
   2 -11   0   74.99    3.20
   2 -11   0   75.69    2.90
  -2  11   0   81.59    2.60
   2  11   0   80.59    3.20
   2  11   0   82.69    2.90
   2  11   0   80.79    2.60
  -2  11   0   86.19    3.30
  -3  11   0   13.00    1.60
   3 -11   0   15.60    1.60
   3  11   0   11.90    1.30
  -3 -11   0   13.60    1.80
   3 -11   0   11.50    1.40
   3  11   0    9.00    1.30
   3  11   0   12.10    1.60
  -3 -11   0   11.30    1.40
  -3  11   0   13.60    1.30
   3 -11   0   10.50    1.40
   3  11   0    9.60    1.30
   3 -11   0   13.00    1.70
  -3 -11   0   12.40    1.40
  -3  11   0   12.60    1.20
   4 -11   0  128.09    4.10
   4 -11   0  126.69    4.50
   4 -11   0  129.79    4.00
  -4 -11   0  126.09    4.50
   4  11   0  127.29    4.00
  -4 -11   0  134.89    4.10
   4  11   0  126.39    4.40
   4  11   0  129.89    4.00
   4  11   0  128.49    4.40
  -4 -11   0  128.79    3.80
  -4  11   0  125.59    3.80
  -5 -11   0    8.10    1.60
   5  11   0   10.90    1.60
   5 -11   0    8.80    1.60
   5  11   0   10.70    1.60
  -5 -11   0   12.50    1.50
   5  11   0   11.70    1.50
   5  11   0   11.50    1.60
  -5  11   0    9.10    1.40
   5 -11   0   11.40    1.60
  -5 -11   0   11.80    1.40
   5 -11   0   10.80    1.60
   6 -11   0  285.27    6.90
   6 -11   0  280.67    7.50
   6  11   0  283.07    6.80
  -6  11   0  281.97    7.10
  -6 -11   0  271.07    7.50
   6  11   0  285.77    7.20
   6 -11   0  279.27    7.10
   6  11   0  276.27    7.40
  -6 -11   0  279.57    6.40
   7 -11   0   14.70    1.90
   7  11   0   13.90    1.70
  -7  11   0   15.60    2.20
   7 -11   0   15.10    2.20
   7 -11   0   14.10    1.80
   7 -11   0   17.00    2.00
   7  11   0   13.40    2.00
   7  11   0   20.80    2.40
  -7 -11   0   11.30    2.00
   8  11   0   21.00    2.10
   8 -11   0   16.40    2.10
   8 -11   0   19.70    2.20
   8  11   0   19.90    2.40
   8 -11   0   20.50    2.50
   8  11   0   17.90    2.20
  -8 -11   0   13.50    2.20
  -8  11   0   16.20    2.40
   9  11   0   -0.10    1.60
   9  11   0    1.60    1.30
   9 -11   0   -3.60    1.20
   0  12   0  185.88    5.10
   0 -12   0  174.28    4.80
   0 -12   0  169.78    5.00
   0 -12   0  169.98    5.20
   0  12   0  172.58    4.60
   1  12   0   68.49    3.00
  -1  12   0   61.99    2.50
   1 -12   0   65.19    3.10
   1 -12   0   64.99    2.80
   1  12   0   68.49    2.80
  -1 -12   0   68.89    3.10
   1 -12   0   63.89    3.10
  -1 -12   0   63.69    2.70
   1 -12   0   67.89    2.80
  -1 -12   0   64.99    3.10
   2 -12   0   60.39    2.90
  -2  12   0   57.09    2.40
   2  12   0   60.29    2.30
   2  12   0   59.89    2.70
  -2 -12   0   61.59    2.80
   2 -12   0   59.09    2.70
   2 -12   0   58.89    3.00
  -2 -12   0   58.29    2.60
  -2 -12   0   56.79    3.10
   2  12   0   57.99    2.90
   2 -12   0   61.19    2.70
   3 -12   0    9.80    1.50
   3 -12   0    7.30    1.40
   3  12   0    7.40    1.20
   3 -12   0    9.60    1.40
  -3 -12   0    9.30    1.40
  -3 -12   0   11.30    1.50
  -3  12   0    9.90    1.10
   3 -12   0    9.10    1.40
  -3 -12   0    9.50    1.70
   3  12   0   11.80    1.80
   3  12   0    9.10    1.50
   3  12   0    9.80    1.20
   4 -12   0   24.50    2.40
   4 -12   0   22.70    1.90
   4  12   0   23.20    2.00
   4  12   0   22.80    1.80
   4 -12   0   24.70    2.10
  -4 -12   0   20.90    2.30
   4  12   0   24.00    2.20
  -4 -12   0   23.00    1.90
  -4 -12   0   22.00    1.80
   5  12   0   -0.80    0.80
   5 -12   0   -0.20    1.00
   5 -12   0   -0.60    0.90
  -5 -12   0    0.80    0.80
  -5  12   0    0.10    1.00
  -5 -12   0    0.00    1.10
   5  12   0    0.60    1.10
   5 -12   0   -0.50    0.80
   5  12   0    0.30    1.00
  -5 -12   0    0.50    0.90
   6  12   0   12.60    1.90
   6 -12   0   14.50    1.90
   6  12   0   11.90    1.70
   6 -12   0   11.20    1.90
   6 -12   0   12.20    1.80
  -6 -12   0   12.80    1.60
  -6  12   0   12.80    1.80
   6  12   0   13.60    1.90
  -6 -12   0   11.70    2.00
   7 -12   0  120.09    5.00
  -7  12   0  117.29    4.80
   7 -12   0  114.19    4.30
   7  12   0  116.99    4.70
   7 -12   0  115.59    4.60
  -7 -12   0  112.59    5.00
   7 -12   0  114.59    4.40
   7  12   0  122.19    4.30
   7  12   0  117.29    4.80
  -8 -12   0    7.60    1.90
   8  12   0   12.40    1.80
   8  12   0   11.40    2.00
   8 -12   0   11.00    2.10
   8 -12   0    9.20    1.80
  -8  12   0   11.00    2.10
   8  12   0    9.10    1.90
   8 -12   0    7.70    1.70
   0  13   0   -0.60    0.60
   0 -13   0    1.10    0.90
   0 -13   0    1.90    1.10
   0 -13   0    1.00    0.90
  -1  13   0  141.09    4.10
   1 -13   0  138.29    4.40
   1 -13   0  145.89    4.40
   1  13   0  147.79    4.30
   1 -13   0  139.09    4.80
   1 -13   0  135.29    4.70
  -1 -13   0  141.39    4.70
  -1 -13   0  147.49    4.40
  -1 -13   0  137.29    4.90
   2 -13   0   16.60    1.90
  -2 -13   0   20.90    2.30
  -2 -13   0   16.40    1.80
   2  13   0   16.40    1.80
  -2 -13   0   19.70    2.00
   2 -13   0   17.20    2.00
   2 -13   0   16.30    2.00
   2 -13   0   16.60    1.80
  -2  13   0   16.40    1.50
  -3  13   0  138.39    3.90
  -3 -13   0  144.79    4.60
  -3 -13   0  141.19    5.20
   3  13   0  145.19    4.10
   3 -13   0  144.69    4.60
   3 -13   0  138.89    4.90
   3 -13   0  142.99    4.60
   3  13   0  137.59    4.40
  -3 -13   0  139.29    4.40
   3 -13   0  144.19    4.50
   4 -13   0    7.30    1.50
   4  13   0    9.30    1.70
   4 -13   0    8.20    1.40
  -4 -13   0    8.20    1.40
  -4 -13   0    9.10    1.50
   4  13   0   11.80    1.50
   4 -13   0    8.50    1.70
   4  13   0   11.00    1.60
  -4 -13   0    6.00    1.60
  -5 -13   0   27.00    2.20
   5 -13   0   29.40    2.40
   5  13   0   31.90    2.30
   5 -13   0   34.30    2.80
   5  13   0   30.40    2.30
  -5 -13   0   26.10    2.70
   5  13   0   27.40    2.50
   5 -13   0   31.00    2.40
  -5 -13   0   31.20    2.30
   6  13   0   33.00    2.60
   6  13   0   29.30    2.60
   6 -13   0   31.80    2.90
   6  13   0   31.10    2.40
   6 -13   0   27.90    2.50
   6 -13   0   33.80    2.50
  -6 -13   0   26.50    2.80
   7  13   0    0.90    1.10
   7 -13   0    3.70    1.30
  -7 -13   0    2.40    1.60
   7 -13   0    1.70    1.30
   7 -13   0    0.40    1.40
   7  13   0    1.30    1.10
   7  13   0    4.30    1.60
   0 -14   0   94.29    3.70
   0 -14   0   93.99    4.00
   0 -14   0   85.59    4.00
   0  14   0   96.79    3.50
   1 -14   0   -0.70    1.10
  -1 -14   0    0.60    0.90
   1 -14   0    0.80    1.10
   1  14   0    1.70    1.00
   1 -14   0    1.50    1.00
  -1  14   0    1.10    0.80
  -1 -14   0    0.10    0.90
   1 -14   0    0.60    1.00
  -1 -14   0    3.60    1.40
   2  14   0  151.98    4.70
   2 -14   0  148.39    4.80
   2 -14   0  159.88    5.50
  -2 -14   0  156.48    5.60
  -2 -14   0  163.88    4.90
  -2  14   0  158.68    4.50
  -2 -14   0  155.68    5.10
   2 -14   0  153.08    5.10
   2 -14   0  159.48    4.90
  -3 -14   0    5.40    1.30
  -3 -14   0    6.50    1.80
   3 -14   0    5.00    1.50
  -3 -14   0    6.10    1.30
   3 -14   0    8.90    1.50
   3 -14   0    6.90    1.50
   3  14   0    6.30    1.30
  -3  14   0    6.60    1.10
   4  14   0   32.70    2.20
   4 -14   0   31.30    2.60
  -4 -14   0   29.80    2.30
   4 -14   0   30.80    2.40
  -4 -14   0   29.20    2.30
   4 -14   0   28.10    2.80
   4  14   0   32.40    2.50
  -4 -14   0   34.90    3.00
   5 -14   0   36.70    2.70
   5  14   0   35.70    2.90
   5 -14   0   32.10    2.90
   5  14   0   35.40    2.60
   5 -14   0   35.00    2.60
   5  14   0   34.40    2.40
  -5 -14   0   37.10    2.50
  -5 -14   0   31.50    3.20
   6  14   0  142.99    5.10
   6  14   0  135.89    4.80
   6 -14   0  130.79    5.40
  -6 -14   0  132.89    5.60
   6  14   0  133.49    5.40
   6 -14   0  130.39    4.90
   6 -14   0  129.79    4.90
   7  14   0    3.10    1.50
   7 -14   0    3.00    1.40
   7  14   0    3.30    1.40
   0  15   0    2.20    1.00
   0 -15   0    0.60    1.10
   0 -15   0    1.80    1.00
   0 -15   0    2.90    1.30
   0 -15   0   -0.70    1.20
   1 -15   0   47.30    2.90
   1  15   0   46.00    2.70
   1 -15   0   53.89    2.90
  -1 -15   0   44.20    3.30
   1 -15   0   44.50    3.10
  -1  15   0   49.20    2.60
  -1 -15   0   48.90    3.10
  -1 -15   0   49.20    2.90
   1 -15   0   56.79    3.40
   2 -15   0    8.10    1.50
   2 -15   0    9.00    1.70
   2 -15   0    5.50    1.60
   2  15   0   10.40    1.70
   2 -15   0    9.50    1.80
  -2 -15   0    6.10    1.70
  -2  15   0    7.40    1.30
  -2 -15   0    9.90    1.70
  -2 -15   0    9.80    1.70
   3 -15   0   29.80    2.60
   3 -15   0   28.70    2.50
   3 -15   0   26.40    2.80
  -3 -15   0   28.60    2.40
  -3 -15   0   27.90    2.50
   3  15   0   28.20    2.40
  -3 -15   0   30.70    3.10
   4 -15   0   20.20    2.50
   4 -15   0   18.90    2.30
  -4 -15   0   17.40    2.50
   4 -15   0   16.40    2.10
   4  15   0   19.80    2.20
  -4 -15   0   18.70    2.10
  -4 -15   0   19.70    2.30
   5 -15   0   32.90    2.80
   5 -15   0   42.20    2.90
   5  15   0   43.60    2.90
  -5 -15   0   39.40    3.50
  -5 -15   0   40.90    2.70
   5 -15   0   39.80    3.30
   6 -15   0   23.40    2.60
   6 -15   0   27.30    2.70
   6  15   0   25.10    2.60
   6  15   0   26.80    2.40
   0 -16   0  221.78    6.40
   0 -16   0  221.08    7.00
   0 -16   0  203.98    6.60
   0 -16   0  217.68    6.20
   0  16   0  223.58    6.10
  -1 -16   0    4.10    1.50
  -1 -16   0    5.80    1.50
   1  16   0    5.80    1.50
  -1  16   0    5.80    1.40
  -1 -16   0    6.80    1.80
   1 -16   0   10.90    2.10
   1 -16   0    5.20    1.40
   1 -16   0    5.50    1.50
   1 -16   0    3.90    1.70
  -2 -16   0   34.70    2.70
  -2  16   0   37.30    2.30
  -2 -16   0   34.60    3.20
   2 -16   0   38.60    2.70
  -2 -16   0   35.80    2.90
   2  16   0   33.20    2.60
   2 -16   0   31.60    3.20
   2 -16   0   35.70    2.80
   3 -16   0   85.99    4.40
  -3 -16   0   89.99    4.10
  -3 -16   0   91.99    4.00
   3 -16   0   88.09    4.10
  -3 -16   0   77.29    4.40
   3  16   0   89.79    4.00
   3 -16   0   87.89    4.00
   4  16   0    0.00    0.90
  -4 -16   0    2.00    1.90
   4 -16   0    4.50    1.60
   4 -16   0    0.60    1.30
  -4 -16   0    0.10    1.10
   4 -16   0    1.30    1.20
  -4 -16   0   -1.30    1.40
   5 -16   0   72.39    4.00
   5 -16   0   71.69    3.90
   5  16   0   75.79    3.80
   0 -17   0    2.50    1.50
   0 -17   0   -0.80    1.10
   0  17   0   -0.20    1.00
   0 -17   0    1.10    1.10
   0 -17   0   -1.10    1.10
  -1 -17   0   13.00    2.00
   1  17   0   16.00    2.10
  -1 -17   0   13.30    2.40
  -1 -17   0   14.80    2.20
   1 -17   0   16.30    2.40
  -1 -17   0   15.90    2.10
   1 -17   0   13.70    2.10
   1 -17   0   15.60    2.30
   1 -17   0   18.20    2.20
  -1  17   0   15.90    1.90
  -2  17   0   25.30    2.10
   2 -17   0   17.10    2.20
  -2 -17   0   28.20    3.00
  -2 -17   0   21.10    2.40
  -2 -17   0   21.20    3.00
   2  17   0   23.20    2.40
   2 -17   0   20.40    2.90
   2 -17   0   21.90    2.30
   3  17   0    2.50    1.20
   3 -17   0    2.10    1.20
   3 -17   0    1.40    1.40
  -3 -17   0    0.30    1.20
  -3 -17   0    0.10    1.20
   0   0   1   -0.30    0.10
   0   0  -1   -0.50    0.10
   0   0   1   -0.30    0.10
  -1   0   1  754.32   10.80
   1   0  -1  738.43   10.80
   1   0  -1  774.22   10.90
   1   0  -1  733.43   10.70
  -1   0   1  729.73   10.70
   1   0   1  738.43   10.60
   1   0  -1  774.12   10.70
   1   0   1  753.02   10.70
   1   0  -1  751.32   10.80
   1   0   1  718.73   10.90
   1   0  -1  735.63   10.80
   1   0  -1  710.23   10.70
  -1   0  -1  749.92   10.80
  -1   0  -1  753.92   10.80
   1   0   1  745.13   10.80
  -1   0  -1  717.93   10.90
  -1   0   1  760.32   10.60
   1   0   1  765.92   10.80
   1   0   1  725.63   10.80
  -2   0  -1 1297.37   19.30
   2   0  -1 1291.87   19.00
  -2   0  -1 1354.26   19.50
   2   0   1 1318.07   19.50
   2   0   1 1339.87   19.30
   2   0  -1 1342.17   19.30
   2   0  -1 1355.56   19.40
   2   0   1 1341.67   19.00
   2   0  -1 1321.97   19.20
   2   0   1 1352.76   19.40
   2   0   1 1289.47   19.20
   2   0  -1 1337.17   19.30
   2   0   1 1282.07   19.40
  -2   0   1 1355.06   19.50
   2   0  -1 1315.47   19.30
   2   0  -1 1345.67   19.30
  -2   0   1 1340.27   19.50
   2   0   1 1358.06   19.10
  -3   0  -1 1001.40   15.30
   3   0  -1 1005.90   14.20
   3   0   1 1001.50   14.40
   3   0  -1  995.10   15.00
   3   0   1  999.70   15.00
  -3   0   1 1037.30   14.40
   3   0  -1 1003.10   14.90
   3   0  -1  977.80   15.10
   3   0   1  977.30   15.10
   3   0   1  963.70   14.90
   3   0  -1  998.50   15.10
  -3   0  -1 1016.40   15.00
   3   0  -1  969.00   14.90
  -3   0   1  996.10   15.20
   3   0  -1 1013.70   14.70
   3   0   1 1014.20   14.80
   4   0  -1    1.00    0.40
   4   0   1    0.50    0.30
   4   0   1    0.00    0.30
   4   0  -1    0.00    0.40
  -4   0   1    0.60    0.50
   4   0   1   -0.20    0.30
   4   0  -1    1.60    0.50
   4   0  -1    0.50    0.40
   4   0   1    0.60    0.20
  -4   0  -1    0.00    0.50
   4   0  -1    0.50    0.40
   4   0   1    0.80    0.40
   4   0  -1    0.10    0.20
   4   0   1    0.10    0.40
  -4   0   1    0.50    0.30
  -4   0  -1    0.60    0.30
   4   0  -1    0.00    0.40
   4   0   1    0.00    0.40
  -4   0  -1    0.00    0.50
  -5   0   1   82.29    1.80
   5   0   1   78.09    2.40
  -5   0   1   79.89    2.70
   5   0   1   81.69    2.60
   5   0   1   79.69    2.20
   5   0  -1   79.79    1.50
   5   0  -1   79.09    2.30
  -5   0  -1   77.99    2.50
  -5   0  -1   84.29    2.00
   5   0  -1   79.89    2.50
   5   0   1   80.49    2.60
   5   0  -1   76.69    2.50
   5   0   1   77.29    2.40
   5   0  -1   80.89    2.40
   5   0  -1   78.59    2.40
   5   0   1   78.49    2.40
   5   0  -1   80.29    2.20
   5   0   1   79.49    1.70
   6   0   1  428.16    7.90
   6   0   1  412.86    7.80
  -6   0   1  427.56    8.40
  -6   0  -1  418.66    8.10
   6   0  -1  420.56    8.10
   6   0   1  421.86    7.60
   6   0  -1  411.86    7.80
   6   0   1  417.86    8.20
   6   0  -1  417.06    7.90
   6   0  -1  425.06    7.90
   6   0  -1  425.26    8.20
  -6   0   1  426.16    6.80
  -6   0  -1  424.26    7.10
   6   0   1  422.76    8.20
   7   0   1   69.59    2.70
   7   0   1   69.99    3.00
   7   0   1   67.09    2.80
   7   0   1   69.29    2.70
  -7   0   1   69.79    3.10
   7   0  -1   65.99    2.90
   7   0   1   69.59    2.50
   7   0  -1   64.49    2.70
  -7   0  -1   66.89    3.00
   7   0  -1   67.09    2.60
  -7   0  -1   68.99    2.10
   7   0  -1   72.39    2.70
   7   0  -1   68.79    2.70
  -8   0  -1   72.09    3.30
   8   0  -1   73.69    3.30
   8   0   1   75.39    2.80
   8   0  -1   76.69    3.00
   8   0   1   72.69    3.00
   8   0   1   73.29    3.40
   8   0  -1   71.19    3.00
   8   0   1   70.19    3.00
  -8   0   1   72.69    3.40
   8   0  -1   76.59    3.00
   8   0   1   69.79    3.20
   8   0  -1   72.09    3.20
   9   0   1   35.80    2.40
   9   0  -1   35.50    2.60
  -9   0  -1   33.40    2.70
   9   0   1   37.30    2.40
   9   0   1   35.30    2.20
   9   0   1   30.70    2.50
   9   0   1   38.90    2.80
   9   0  -1   36.30    2.40
   9   0  -1   32.30    2.20
   9   0  -1   33.90    2.60
   9   0  -1   34.50    2.40
  10   0  -1   31.30    2.50
  10   0   1   26.40    2.30
  10   0  -1   28.30    2.30
  10   0   1   33.80    2.60
  10   0   1   24.10    2.50
 -10   0  -1   24.90    2.80
  10   0  -1   25.20    2.60
  10   0   1   24.90    2.90
  10   0  -1   26.60    2.40
  11   0   1  108.09    4.60
  11   0  -1   98.69    4.60
  11   0   1  108.69    4.80
  11   0  -1  108.09    4.50
   0  -1   1  115.49    1.90
   0   1  -1  116.09    1.90
   0  -1   1  114.09    1.90
   0   1   1  114.69    1.90
   0  -1   1  113.69    2.00
   0   1  -1  117.09    1.90
   0  -1   1  113.49    1.90
   0  -1  -1  114.99    1.70
   0   1  -1  114.39    1.90
   1  -1   1 3030.10   44.10
  -1  -1  -1 3096.19   43.20
  -1   1   1 3081.89   44.40
   1  -1   1 2921.41   43.90
  -1   1   1 3077.59   43.00
   1   1  -1 3068.09   44.70
  -1  -1  -1 3044.70   44.00
   1   1  -1 3079.89   45.30
   1  -1   1 3018.90   43.70
   1   1  -1 3033.80   44.20
  -1  -1  -1 3014.00   44.70
   1   1  -1 2918.81   44.00
   1  -1   1 3039.10   44.00
   1   1  -1 3076.89   45.10
  -1   1   1 2991.50   44.70
   1  -1  -1 3025.90   44.60
   1  -1  -1 3022.70   42.80
   1   1   1 3107.29   44.30
   1   1   1 3059.99   44.30
  -1  -1   1 3042.30   44.60
   1   1   1 2917.91   44.10
  -1  -1   1 3029.90   44.60
   1  -1  -1 3065.99   44.40
  -1  -1   1 3025.10   44.10
  -1   1  -1 2845.42   43.80
   1  -1  -1 2996.00   44.10
   1   1   1 2920.91   44.20
   1   1   1 3089.49   45.00
   1  -1  -1 3052.09   43.80
  -1   1  -1 3003.30   44.90
   1   1   1 2902.71   44.90
   1  -1  -1 3032.40   43.80
  -2   1   1 1029.10   15.30
  -2  -1  -1 1039.30   15.10
  -2   1   1 1031.30   15.20
  -2  -1  -1 1018.80   15.00
   2  -1   1 1026.10   14.90
   2  -1   1  985.20   15.10
   2   1  -1 1028.60   15.10
   2   1  -1 1011.20   15.20
   2   1  -1 1048.50   15.20
   2   1  -1  999.70   15.00
   2  -1   1 1034.70   15.30
   2   1  -1 1029.50   15.20
   2  -1   1  989.80   15.00
   2  -1   1 1026.80   15.10
   2  -1   1 1044.00   15.40
   2  -1   1 1053.29   14.70
  -2   1  -1 1049.99   15.20
   2  -1  -1 1030.30   15.20
  -2   1  -1 1037.00   15.40
   2   1   1 1029.60   15.30
   2  -1  -1 1025.80   15.00
   2   1   1  984.50   15.00
  -2  -1   1 1056.09   14.90
   2   1   1 1042.20   14.90
   2   1   1 1044.80   15.00
  -2  -1   1 1042.10   15.00
   2   1   1 1045.30   15.20
   2  -1  -1 1010.20   15.20
   2  -1  -1 1015.40   15.10
   2   1   1 1043.00   15.20
   2  -1  -1 1049.09   14.90
  -2  -1   1  992.40   15.20
  -3   1   1  164.08    3.50
   3   1  -1  163.68    3.20
  -3   1   1  166.58    3.50
   3   1  -1  160.68    3.30
   3  -1   1  162.88    3.30
   3  -1   1  164.78    3.40
  -3  -1  -1  172.38    3.30
   3   1  -1  166.48    3.30
   3   1  -1  167.88    2.80
  -3  -1  -1  166.58    3.10
   3   1  -1  164.28    3.40
   3  -1   1  170.38    2.70
  -3   1   1  170.98    2.60
   3   1  -1  167.38    3.30
   3  -1   1  167.68    3.10
   3  -1   1  165.28    3.20
   3  -1   1  164.38    3.20
   3  -1  -1  165.68    3.30
   3   1   1  170.08    3.20
   3  -1  -1  167.08    3.20
   3   1   1  161.48    3.20
   3   1   1  160.28    3.30
  -3  -1   1  170.08    3.00
   3   1   1  165.88    3.40
   3  -1  -1  162.58    3.30
  -3   1  -1  165.38    3.60
   3   1   1  165.18    2.90
  -3  -1   1  164.48    3.40
   3  -1  -1  159.38    3.10
   3  -1  -1  163.78    3.20
   3  -1  -1  176.18    3.50
   4  -1   1  878.61   13.40
   4   1  -1  862.21   13.80
   4  -1   1  861.81   13.60
  -4  -1  -1  891.01   13.30
   4  -1   1  861.71   13.50
   4   1  -1  880.41   13.80
   4  -1   1  893.91   12.70
  -4   1   1  891.91   14.00
  -4  -1  -1  872.11   13.70
  -4   1   1  898.11   12.70
   4   1  -1  861.71   13.50
   4   1  -1  889.31   12.80
   4  -1   1  867.11   13.80
   4  -1   1  872.21   13.80
   4   1  -1  894.01   13.70
   4   1  -1  877.91   13.70
  -4  -1   1  887.11   13.90
   4   1   1  893.01   13.50
   4  -1  -1  863.91   13.60
  -4   1  -1  868.41   14.10
   4   1   1  885.01   13.90
  -4  -1   1  908.21   13.20
   4   1   1  881.11   13.80
   4   1   1  880.71   13.60
   4  -1  -1  853.81   13.70
   4   1   1  885.51   13.90
   4  -1  -1  855.01   13.80
   4  -1  -1  870.21   13.40
   4   1   1  870.91   13.00
   4  -1  -1  862.51   13.50
  -4   1  -1  882.01   13.80
   5   1  -1   67.69    2.40
   5  -1   1   65.99    2.20
   5  -1   1   66.29    2.30
   5  -1   1   67.09    2.00
   5  -1   1   64.89    2.10
  -5   1   1   67.19    2.40
   5  -1   1   65.99    2.10
   5  -1   1   70.89    1.40
   5   1  -1   65.79    2.20
  -5  -1  -1   66.49    1.90
   5   1  -1   66.69    2.30
   5   1  -1   65.89    1.50
   5   1  -1   69.29    2.30
  -5   1   1   71.19    1.40
  -5  -1  -1   66.09    2.30
   5   1  -1   66.19    2.10
   5  -1  -1   68.89    2.20
   5  -1  -1   71.49    2.10
   5   1   1   68.79    1.70
   5  -1  -1   69.59    2.20
  -5   1  -1   67.09    2.50
   5  -1  -1   66.99    2.30
  -5  -1   1   65.59    2.40
   5   1   1   66.09    2.20
   5  -1  -1   72.09    2.40
  -5   1  -1   68.09    2.30
  -5  -1   1   71.29    1.80
   5   1   1   67.59    2.30
   5   1   1   70.29    2.40
  -5   1  -1   69.79    1.70
   5   1   1   70.99    2.20
   5  -1  -1   64.89    2.00
   5   1   1   71.79    2.10
   6   1  -1  276.47    5.80
   6  -1   1  284.97    5.70
  -6   1   1  276.07    6.20
   6   1  -1  274.07    5.80
   6  -1   1  273.07    5.50
   6  -1   1  269.37    5.70
  -6  -1  -1  279.87    5.20
   6  -1   1  267.37    5.90
   6  -1   1  273.27    5.80
   6   1  -1  272.17    5.70
   6   1  -1  281.27    6.00
   6   1  -1  263.57    5.90
  -6  -1  -1  276.57    5.90
   6  -1   1  272.97    6.00
   6   1   1  277.47    5.70
   6   1   1  275.07    6.00
   6  -1  -1  274.27    5.50
  -6   1  -1  269.77    6.00
   6   1   1  273.07    5.80
   6  -1  -1  277.47    5.70
   6   1   1  278.07    4.70
  -6   1  -1  277.77    4.90
   6  -1  -1  269.87    6.00
   6  -1  -1  270.87    5.90
  -6  -1   1  278.87    6.20
   6   1   1  274.27    5.60
  -6  -1   1  283.87    5.00
   6   1   1  270.07    6.00
   6  -1  -1  273.97    5.50
   6  -1  -1  270.37    5.70
   7  -1   1  351.96    6.90
   7   1  -1  349.37    7.20
  -7   1   1  333.47    7.70
   7  -1   1  354.46    7.20
  -7  -1  -1  356.16    6.40
   7   1  -1  332.57    7.30
   7   1  -1  341.47    7.50
   7  -1   1  344.17    7.50
   7   1  -1  350.56    7.20
   7   1  -1  331.07    7.00
   7  -1   1  334.07    7.40
   7  -1   1  351.16    7.10
  -7  -1  -1  346.67    7.40
   7   1   1  349.17    7.50
   7  -1  -1  351.66    7.00
   7  -1  -1  344.77    7.10
   7   1   1  356.86    7.00
  -7  -1   1  334.17    7.60
   7  -1  -1  339.57    7.10
   7  -1  -1  338.77    7.40
   7   1   1  345.57    7.10
   7  -1  -1  345.87    6.80
  -7   1  -1  340.87    7.50
   7   1   1  343.77    7.20
   7   1   1  341.17    7.40
   7  -1  -1  352.76    7.50
   8   1  -1    6.00    1.20
   8  -1   1    4.10    1.20
   8  -1   1    3.80    1.20
   8  -1   1    2.70    1.00
   8   1  -1    4.10    1.20
  -8   1   1    3.20    1.30
   8   1  -1    5.10    1.10
  -8  -1  -1    3.20    1.30
   8   1  -1    3.70    1.10
   8  -1   1    4.00    1.00
   8  -1   1    4.70    1.20
   8   1  -1    2.90    1.10
   8   1   1    3.70    1.00
   8   1   1    3.00    1.00
   8  -1  -1    3.20    1.20
   8  -1  -1    2.90    1.00
   8   1   1    4.30    1.10
   8   1   1    4.20    1.20
   8  -1  -1    3.40    1.10
   8  -1  -1    4.50    1.00
  -8   1  -1    2.70    1.20
   8  -1  -1    3.60    1.00
   8   1   1    5.00    1.10
  -9  -1  -1   44.50    3.00
   9  -1   1   46.00    2.60
   9  -1   1   51.49    3.00
   9   1  -1   49.00    2.90
   9  -1   1   52.19    2.50
   9  -1   1   50.99    2.70
   9   1  -1   52.59    3.10
   9   1  -1   51.89    2.80
   9  -1   1   50.79    3.10
   9   1  -1   46.50    2.70
   9   1  -1   51.09    2.80
   9   1   1   51.79    2.90
   9  -1  -1   49.30    2.80
   9   1   1   49.30    2.80
   9  -1  -1   49.30    3.00
   9  -1  -1   46.70    2.60
  -9   1  -1   53.19    3.30
   9   1   1   56.29    3.20
   9  -1  -1   47.90    2.90
   9  -1  -1   47.40    2.50
   9   1   1   45.50    2.70
   9   1   1   51.19    2.60
  10   1  -1   38.30    2.90
  10  -1   1   42.20    3.00
  10   1  -1   42.90    2.80
  10   1  -1   42.00    2.70
  10  -1   1   46.50    3.00
  10   1  -1   44.00    2.80
  10   1   1   44.00    2.90
  10  -1  -1   41.70    2.70
 -10   1  -1   44.70    3.30
  10   1   1   43.20    3.70
  10  -1  -1   40.40    2.80
  10  -1  -1   46.00    3.10
  10   1   1   44.20    2.90
  10   1   1   40.80    3.00
  11  -1   1   34.20    3.00
  11   1  -1   33.40    2.80
  11  -1   1   27.80    2.80
  11   1  -1   33.00    3.00
  11   1  -1   38.20    2.90
  11   1   1   27.90    2.90
  11   1   1   34.10    2.90
  11   1   1   32.90    3.00
  11  -1  -1   34.40    2.80
  11  -1  -1   33.50    2.80
   0  -2   1   60.29    1.30
   0  -2  -1   60.69    1.20
   0   2  -1   62.29    1.20
   0   2  -1   60.59    1.30
   0  -2  -1   62.59    1.10
   0  -2  -1   60.69    1.20
   0  -2   1   60.29    1.30
   0   2   1   60.79    1.20
   0   2   1   60.69    1.10
   0   2   1   59.79    1.20
   0   2  -1   61.49    1.30
   0  -2   1   58.09    1.40
   0  -2  -1   61.09    1.30
   0  -2   1   61.79    1.40
   1   2  -1 1443.46   21.20
   1  -2   1 1490.25   21.40
  -1  -2  -1 1459.25   21.40
   1  -2   1 1467.05   21.20
  -1  -2  -1 1516.85   21.30
  -1  -2  -1 1537.25   21.60
   1   2  -1 1423.56   21.40
  -1  -2  -1 1460.35   21.40
  -1   2   1 1487.75   21.60
   1  -2   1 1505.75   21.50
   1   2  -1 1426.76   21.20
   1   2  -1 1447.66   21.50
   1   2  -1 1525.85   21.40
  -1   2   1 1504.45   21.60
   1  -2   1 1470.85   21.40
  -1   2   1 1509.15   21.30
   1  -2   1 1500.25   21.50
   1  -2   1 1500.15   21.30
   1   2   1 1490.55   21.30
   1   2   1 1571.74   22.60
   1  -2  -1 1483.15   22.00
   1  -2  -1 1520.45   21.90
   1   2   1 1441.16   21.40
  -1   2  -1 1474.15   22.00
   1   2   1 1496.95   22.50
   1  -2  -1 1475.55   21.30
  -1  -2   1 1500.85   21.30
   1  -2  -1 1483.05   21.20
  -1  -2   1 1500.25   22.40
   1   2   1 1495.05   22.00
  -1   2  -1 1453.95   21.50
  -1  -2   1 1440.96   21.80
   1  -2  -1 1500.95   21.70
  -1  -2   1 1505.35   21.40
   1   2   1 1444.66   21.30
   1  -2  -1 1492.55   21.40
  -2  -2  -1 1687.13   24.30
  -2   2   1 1767.72   24.40
   2  -2   1 1688.13   24.80
   2  -2   1 1635.64   24.40
  -2  -2  -1 1743.73   24.70
  -2  -2  -1 1693.43   24.70
  -2   2   1 1685.53   25.50
   2   2  -1 1714.93   24.50
  -2   2   1 1670.43   24.70
   2   2  -1 1759.12   24.80
   2   2  -1 1691.73   24.60
  -2   2   1 1701.63   24.30
   2   2  -1 1707.23   24.80
   2   2  -1 1742.43   24.80
  -2  -2  -1 1677.43   24.60
   2  -2   1 1744.33   24.70
   2  -2   1 1729.23   25.00
   2  -2   1 1697.83   24.60
   2   2   1 1740.13   26.10
   2  -2  -1 1691.53   25.00
   2  -2  -1 1681.93   24.60
  -2   2  -1 1686.83   25.00
   2   2   1 1707.13   24.90
  -2  -2   1 1721.33   25.70
   2   2   1 1641.34   24.80
   2   2   1 1718.93   24.80
   2   2   1 1689.63   25.60
   2  -2  -1 1694.33   24.80
   2  -2  -1 1717.13   24.20
   2  -2  -1 1714.43   24.70
   2   2   1 1769.02   24.60
  -2   2  -1 1735.53   24.70
   2  -2  -1 1736.53   24.80
  -2  -2   1 1667.93   24.50
   3   2  -1 2519.65   37.00
  -3  -2  -1 2565.44   36.30
   3   2  -1 2522.75   36.70
  -3  -2  -1 2530.15   36.70
   3  -2   1 2558.04   37.00
  -3  -2  -1 2558.64   37.70
  -3   2   1 2575.34   39.10
   3  -2   1 2600.04   36.60
   3  -2   1 2558.14   37.60
   3   2  -1 2614.84   37.00
  -3   2   1 2569.34   37.10
   3  -2   1 2488.95   36.90
   3  -2   1 2608.54   38.30
   3   2  -1 2548.25   36.90
   3   2  -1 2559.64   36.90
   3   2   1 2504.15   37.20
   3  -2  -1 2588.04   36.90
   3   2   1 2579.94   37.20
   3   2   1 2471.45   36.90
  -3  -2   1 2530.65   36.60
   3  -2  -1 2531.05   37.40
  -3  -2   1 2554.14   37.60
   3  -2  -1 2520.65   37.00
   3  -2  -1 2535.85   36.90
   3  -2  -1 2603.34   36.90
  -3   2  -1 2580.14   36.90
   3   2   1 2569.14   37.00
   3   2   1 2502.15   37.00
   3   2   1 2598.14   37.30
  -3   2  -1 2543.25   37.20
   3  -2  -1 2604.14   36.80
   4   2  -1  690.73   11.40
  -4  -2  -1  720.83   11.30
   4   2  -1  701.33   11.20
   4  -2   1  719.13   11.60
   4  -2   1  688.53   11.30
  -4   2   1  725.03   11.70
   4   2  -1  721.63   10.70
   4   2  -1  703.53   11.50
  -4  -2  -1  738.63   11.20
   4  -2   1  703.63   11.00
   4  -2   1  719.63   11.10
   4   2  -1  722.93   11.50
   4  -2   1  714.43   11.50
  -4   2   1  693.23   11.60
  -4   2  -1  713.83   11.80
   4  -2  -1  713.03   11.30
   4  -2  -1  717.53   11.40
   4  -2  -1  701.13   11.50
  -4  -2   1  699.53   11.50
   4   2   1  712.73   11.20
  -4  -2   1  713.33   11.00
   4  -2  -1  701.53   10.90
  -4   2  -1  710.13   11.50
   4   2   1  705.33   11.50
   4   2   1  706.03   11.50
   4   2   1  693.53   11.10
   4   2   1  708.43   10.80
   4   2   1  705.93   11.50
   4  -2  -1  700.53   11.20
   5  -2   1   55.69    1.90
   5   2  -1   52.89    1.40
   5   2  -1   51.49    2.00
   5  -2   1   54.39    1.80
   5   2  -1   52.49    2.10
   5   2  -1   51.89    2.10
   5  -2   1   52.99    1.90
  -5   2   1   54.69    2.20
   5  -2   1   53.99    2.10
  -5  -2  -1   55.29    2.00
  -5   2   1   55.79    2.20
   5  -2   1   49.90    2.00
  -5  -2  -1   54.89    1.80
   5   2  -1   54.19    1.90
   5   2  -1   55.79    2.10
  -5   2  -1   56.19    2.20
   5   2   1   53.19    2.00
  -5  -2   1   55.29    2.20
   5  -2  -1   54.29    2.10
   5   2   1   54.39    2.10
   5  -2  -1   54.89    1.80
   5  -2  -1   56.99    1.90
   5  -2  -1   51.99    2.00
   5   2   1   54.19    2.10
   5  -2  -1   53.49    2.00
   5   2   1   55.49    1.90
  -5  -2   1   55.69    1.80
   5   2   1   54.19    1.90
  -5   2  -1   54.49    2.30
   5   2   1   55.19    1.60
   6  -2   1   52.79    2.00
   6   2  -1   51.99    2.30
   6   2  -1   54.39    2.20
   6   2  -1   49.99    2.10
   6  -2   1   50.69    1.90
  -6   2   1   51.79    2.50
  -6  -2  -1   48.90    2.20
   6   2  -1   49.50    2.30
  -6  -2  -1   50.89    1.90
   6  -2   1   49.60    2.20
   6   2  -1   49.70    2.10
   6   2  -1   50.09    1.50
   6  -2   1   50.69    2.20
   6  -2   1   48.90    2.10
   6  -2  -1   48.20    2.10
  -6   2  -1   49.60    2.40
   6  -2  -1   50.69    2.30
   6   2   1   50.49    2.30
   6  -2  -1   52.59    2.10
   6   2   1   53.89    2.10
   6  -2  -1   46.20    2.10
   6   2   1   50.59    1.60
   6  -2  -1   50.59    2.10
  -6   2  -1   53.49    1.50
  -6   2  -1   52.59    2.50
   6   2   1   48.40    2.20
  -6  -2   1   54.79    1.80
   6   2   1   53.59    2.30
   6   2   1   52.09    2.10
   6  -2  -1   47.60    1.90
  -7   2   1   52.69    2.80
   7  -2   1   51.49    2.40
  -7  -2  -1   52.09    2.00
   7  -2   1   50.69    2.30
   7   2  -1   46.80    2.30
   7  -2   1   53.19    2.20
   7   2  -1   49.99    2.60
  -7  -2  -1   47.20    2.50
   7  -2   1   52.99    2.40
   7   2  -1   51.49    2.30
   7  -2   1   49.30    2.20
   7  -2   1   47.90    2.60
   7   2  -1   48.70    2.30
   7   2  -1   49.20    2.50
   7   2   1   51.29    2.60
   7   2   1   50.89    2.20
   7  -2  -1   47.50    2.50
   7  -2  -1   49.80    2.10
   7  -2  -1   51.19    2.50
  -7  -2   1   53.09    1.90
   7   2   1   55.09    2.40
   7  -2  -1   49.30    2.30
   7   2   1   52.09    2.50
   7  -2  -1   49.80    2.30
   7   2   1   49.30    2.40
   7  -2  -1   51.49    2.20
   8  -2   1  157.28    4.60
   8  -2   1  155.08    4.80
   8   2  -1  156.88    4.80
  -8   2   1  156.08    5.20
   8   2  -1  156.78    4.90
   8  -2   1  157.28    4.20
   8  -2   1  163.18    5.00
   8   2  -1  152.28    4.50
   8   2  -1  156.38    4.60
   8  -2   1  155.48    4.30
   8  -2   1  163.98    4.70
   8   2  -1  160.58    4.70
  -8  -2  -1  159.88    4.90
   8  -2  -1  159.38    4.90
   8   2   1  160.78    4.40
   8  -2  -1  164.88    4.30
   8   2   1  150.78    4.50
  -8   2  -1  159.88    5.10
   8   2   1  163.08    5.00
   8  -2  -1  152.18    4.70
   8   2   1  154.68    4.70
   8   2   1  156.78    4.90
   8  -2  -1  162.38    4.60
   8  -2  -1  163.88    4.40
   8  -2  -1  163.38    4.60
   9  -2   1    6.20    1.50
  -9  -2  -1    5.00    1.50
   9   2  -1    8.10    1.40
   9   2  -1    6.40    1.40
   9  -2   1    6.00    1.40
   9   2  -1    7.60    1.50
   9  -2   1    5.20    1.20
   9   2  -1    4.10    1.30
   9  -2   1    6.10    1.40
   9   2  -1    5.00    1.40
   9  -2   1    7.50    1.60
   9   2   1    7.50    1.50
   9   2   1    5.10    1.40
   9  -2  -1    6.60    1.30
   9  -2  -1    5.80    1.40
   9  -2  -1    3.40    1.40
   9  -2  -1    6.30    1.40
  -9   2  -1    4.30    1.60
   9  -2  -1    7.60    1.40
   9   2   1    8.40    1.50
   9   2   1    7.10    1.20
   9   2   1    8.40    1.60
  10   2  -1   35.10    2.60
  10   2  -1   32.00    2.50
  10   2  -1   39.80    2.90
  10  -2   1   37.90    2.90
  10   2  -1   37.40    2.80
  10  -2   1   34.20    2.70
  10  -2  -1   32.40    2.60
 -10   2  -1   34.30    3.10
  10  -2  -1   35.60    2.50
  10   2   1   37.80    3.50
  10   2   1   39.60    2.70
  10   2   1   39.70    3.00
  10   2   1   37.70    2.80
  10  -2  -1   39.40    2.80
  11   2  -1   35.10    2.80
  11  -2   1   46.80    3.20
  11  -2   1   38.90    3.20
  11   2  -1   35.00    3.10
  11   2  -1   40.50    3.00
  11  -2  -1   37.50    3.10
  11   2   1   40.30    3.00
  11  -2  -1   38.80    2.90
  11   2   1   40.10    2.90
  11   2   1   44.80    3.30
   0   3  -1  121.59    2.30
   0  -3  -1  116.89    2.30
   0  -3  -1  130.69    2.50
   0  -3   1  120.99    2.30
   0   3   1  117.99    2.30
   0  -3   1  121.59    2.50
   0   3  -1  122.09    2.10
   0  -3   1  121.59    2.50
   0  -3  -1  121.09    1.90
   0  -3   1  119.69    2.40
   0   3  -1  120.19    2.40
   0   3   1  120.79    2.10
   0   3   1  120.89    2.30
   0  -3  -1  126.19    1.80
   0  -3  -1  122.29    2.30
   0   3  -1  119.49    2.50
   0  -3  -1  119.49    2.30
   1  -3   1  343.37    5.70
  -1   3   1  342.77    5.60
  -1   3   1  357.16    5.50
  -1  -3  -1  345.97    5.40
   1  -3   1  347.27    5.50
  -1  -3  -1  342.97    5.70
   1  -3   1  341.37    5.50
   1   3  -1  343.47    5.60
   1   3  -1  344.47    5.70
   1  -3   1  340.37    5.70
   1  -3   1  350.26    5.40
  -1   3   1  345.37    5.30
  -1  -3  -1  348.67    5.60
   1   3  -1  346.47    5.80
   1   3  -1  348.97    5.30
   1  -3   1  347.37    5.80
   1  -3  -1  339.27    5.50
  -1  -3   1  352.66    5.70
   1  -3  -1  340.87    5.60
   1  -3  -1  348.97    5.20
   1  -3  -1  340.87    5.70
   1   3   1  354.46    5.70
  -1   3  -1  336.27    5.80
  -1  -3   1  348.67    5.80
  -1   3  -1  351.16    5.50
   1   3   1  328.97    5.50
   1   3   1  342.37    5.60
  -1  -3   1  342.17    5.50
   1   3   1  334.17    5.50
   1  -3  -1  344.07    5.40
   1   3   1  354.96    5.10
  -1  -3   1  353.26    5.50
   2  -3   1  732.53   11.00
   2  -3   1  716.23   11.40
  -2  -3  -1  753.62   10.80
   2  -3   1  739.33   11.20
  -2  -3  -1  725.33   10.90
  -2  -3  -1  696.33   11.20
  -2   3   1  726.93   11.30
   2   3  -1  754.92   11.00
   2   3  -1  722.93   11.30
   2   3  -1  740.73   11.40
   2  -3   1  737.53   11.10
  -2   3   1  756.72   11.30
   2  -3   1  717.13   11.00
   2   3  -1  742.93   11.40
  -2  -3  -1  726.43   11.30
  -2   3   1  738.73   10.60
   2   3  -1  716.33   11.20
  -2  -3   1  754.82   11.40
   2  -3  -1  737.03   11.30
   2   3   1  722.23   11.10
   2   3   1  705.83   11.20
   2   3   1  711.33   11.30
   2  -3  -1  741.43   11.00
  -2   3  -1  757.22   11.20
  -2   3  -1  734.93   11.50
   2  -3  -1  748.23   10.70
   2  -3  -1  746.83   11.30
   2  -3  -1  745.03   10.50
   2   3   1  726.03   10.80
   2  -3  -1  734.53   11.30
  -2  -3   1  743.53   11.10
   2   3   1  735.63   11.30
   2   3   1  752.62   11.30
   3   3  -1  501.15    8.30
   3   3  -1  494.65    8.30
  -3  -3  -1  495.15    7.60
   3  -3   1  496.75    8.40
  -3   3   1  508.45    8.30
  -3  -3  -1  508.65    8.20
   3   3  -1  518.85    8.30
   3  -3   1  491.75    8.20
   3   3  -1  500.35    7.90
   3  -3   1  484.25    7.80
  -3   3   1  502.55    7.10
   3  -3   1  498.75    8.00
  -3  -3  -1  491.35    7.80
  -3   3   1  506.75    8.30
   3   3  -1  506.85    8.20
   3   3   1  491.75    8.10
   3   3   1  489.65    8.30
   3   3   1  497.85    8.30
   3   3   1  487.15    8.30
   3  -3  -1  495.85    7.50
   3   3   1  486.15    7.80
   3   3   1  484.25    7.90
   3  -3  -1  518.15    8.50
  -3  -3   1  505.45    8.10
   3  -3  -1  501.35    8.20
  -3   3  -1  481.15    8.50
  -3   3  -1  501.35    8.20
  -3  -3   1  486.75    7.90
   3  -3  -1  487.15    7.90
   4   3  -1   91.19    2.30
   4   3  -1   91.09    2.50
   4  -3   1   91.19    2.30
  -4  -3  -1   97.19    2.40
   4  -3   1   91.49    2.50
   4   3  -1   92.59    2.10
  -4  -3  -1   98.29    2.50
   4  -3   1   94.09    2.30
  -4   3   1   94.39    2.70
   4  -3   1   91.19    2.70
   4   3  -1   89.19    2.50
  -4  -3  -1   95.59    2.10
   4   3  -1   94.39    2.60
  -4   3   1   93.19    2.70
   4  -3   1   95.99    2.50
   4   3  -1   92.79    2.70
   4  -3  -1   92.89    2.50
  -4   3  -1   93.79    2.80
   4   3   1   90.59    2.30
  -4   3  -1   88.79    2.60
  -4  -3   1   93.29    2.40
   4   3   1   91.69    2.20
   4   3   1   90.99    2.60
   4   3   1   95.49    2.70
   4  -3  -1   93.19    2.40
   4   3   1   91.09    2.40
   4   3   1   90.29    2.60
  -4  -3   1   94.89    2.30
   4  -3  -1   93.99    2.10
   4  -3  -1   92.59    2.60
   4  -3  -1   93.79    2.50
   5  -3   1  575.54    9.90
   5   3  -1  574.54   10.10
  -5   3   1  583.94   10.40
   5  -3   1  594.04    9.50
  -5  -3  -1  580.64    9.90
   5   3  -1  581.24    9.20
   5  -3   1  582.04    9.50
   5   3  -1  585.44   10.30
   5  -3   1  589.64    9.70
  -5   3   1  582.84   10.30
   5   3  -1  598.64   10.20
   5   3  -1  575.84   10.20
   5  -3   1  581.04   10.10
   5  -3   1  578.84   10.20
  -5  -3  -1  596.94    9.80
   5   3  -1  589.14    9.80
   5   3   1  585.44   10.30
   5   3   1  563.84    9.70
   5  -3  -1  575.34   10.20
  -5   3  -1  587.64   10.30
   5  -3  -1  592.74    9.40
   5   3   1  586.24   10.30
   5  -3  -1  587.84   10.00
   5  -3  -1  570.34    9.80
   5   3   1  593.24   10.30
   5   3   1  578.84    9.40
  -5  -3   1  596.24    9.70
   5  -3  -1  600.24   10.10
  -5   3  -1  565.94   10.50
   5   3   1  600.44   10.00
   6  -3   1  169.08    4.40
   6   3  -1  173.08    4.10
   6  -3   1  170.08    4.40
  -6   3   1  168.78    4.60
   6   3  -1  172.08    4.60
   6   3  -1  171.28    4.40
   6  -3   1  176.48    4.30
   6  -3   1  175.48    3.90
   6   3  -1  166.58    4.40
   6   3  -1  177.28    4.40
  -6   3   1  182.48    4.70
   6   3  -1  175.88    3.50
  -6  -3  -1  169.78    4.30
   6  -3   1  167.68    4.00
   6  -3   1  168.48    3.80
  -6  -3  -1  172.18    4.00
   6   3   1  173.18    4.50
   6  -3  -1  181.48    3.80
   6   3   1  173.68    4.60
   6  -3  -1  165.38    4.20
   6  -3  -1  174.08    4.30
   6  -3  -1  178.98    4.30
  -6  -3   1  174.38    4.00
   6   3   1  172.58    4.10
   6  -3  -1  164.38    4.40
  -6   3  -1  174.78    4.70
   6   3   1  174.68    3.60
   6   3   1  168.28    4.10
  -6   3  -1  179.18    4.70
   6   3   1  164.68    4.40
   7  -3   1  139.09    4.20
   7  -3   1  142.59    4.10
   7  -3   1  141.49    3.80
   7   3  -1  133.59    4.00
   7   3  -1  142.49    4.20
  -7  -3  -1  146.69    3.70
   7   3  -1  134.19    3.80
  -7  -3  -1  138.09    4.10
   7   3  -1  138.29    4.20
   7   3  -1  141.29    4.40
   7  -3   1  142.89    3.70
  -7   3   1  133.69    4.50
   7  -3   1  142.09    4.20
   7  -3   1  143.79    3.50
   7   3   1  138.99    4.30
   7  -3  -1  142.09    4.00
   7  -3  -1  139.29    4.20
   7  -3  -1  136.79    3.50
   7  -3  -1  139.99    4.00
   7   3   1  134.79    4.20
   7   3   1  137.59    3.90
  -7  -3   1  146.59    3.60
   7  -3  -1  135.99    4.20
   7  -3  -1  142.99    4.00
  -7   3  -1  141.19    4.50
  -7   3  -1  135.49    4.30
   7   3   1  132.99    4.20
   7   3   1  133.89    3.80
   8   3  -1   24.40    2.20
   8   3  -1   25.20    2.00
   8   3  -1   26.50    2.00
   8   3  -1   26.60    1.80
   8  -3   1   22.20    1.90
   8  -3   1   24.90    1.90
   8  -3   1   26.80    2.20
   8  -3   1   27.60    1.80
   8  -3   1   25.80    2.30
   8   3  -1   27.60    2.10
  -8  -3  -1   27.20    2.10
  -8   3   1   24.20    2.50
   8  -3   1   29.10    2.10
   8  -3  -1   26.10    1.90
   8   3   1   25.90    1.80
   8   3   1   25.40    2.30
   8  -3  -1   25.70    2.10
  -8   3  -1   25.00    2.20
   8   3   1   25.30    2.10
   8  -3  -1   26.60    1.90
   8  -3  -1   28.70    2.00
   8   3   1   26.60    1.90
   8   3   1   29.80    2.20
   8  -3  -1   22.20    2.10
   8  -3  -1   24.40    2.00
   9  -3   1   33.60    2.70
   9   3  -1   33.20    2.30
   9   3  -1   29.90    2.20
   9   3  -1   34.20    2.50
  -9   3   1   33.50    3.00
   9  -3   1   32.70    2.50
   9   3  -1   32.10    2.70
   9   3  -1   33.70    2.60
   9  -3   1   34.80    2.40
   9   3   1   34.60    2.30
   9  -3  -1   32.00    2.50
   9   3   1   35.40    2.50
   9  -3  -1   34.70    2.30
   9   3   1   38.70    2.90
   9  -3  -1   32.40    2.60
   9  -3  -1   31.00    2.30
  -9   3  -1   26.80    2.70
   9   3   1   26.20    2.20
   9   3   1   33.30    2.20
  10   3  -1   35.50    2.60
  10  -3   1   32.70    2.70
  10  -3   1   33.40    2.70
  10   3  -1   34.80    2.60
  10   3  -1   36.70    2.90
  10   3  -1   34.10    2.70
  10   3   1   30.10    2.60
  10   3   1   42.50    4.60
  10   3   1   37.70    2.90
  10   3   1   35.80    2.60
  10  -3  -1   33.20    2.50
  10  -3  -1   38.40    2.90
  10  -3  -1   35.70    2.70
 -10   3  -1   31.80    3.20
  11  -3   1   19.20    2.60
  11   3  -1   23.80    2.70
  11   3  -1   19.90    2.50
  11  -3   1   22.20    2.50
  11   3  -1   27.40    2.70
  11   3   1   20.40    2.40
  11   3   1   18.70    2.50
  11   3   1   17.40    2.30
  11  -3  -1   17.80    2.30
  11  -3  -1   18.30    2.50
   0   4  -1   44.20    1.20
   0   4   1   46.80    0.90
   0  -4   1   47.00    1.50
   0   4  -1   44.80    1.40
   0  -4  -1   43.30    1.20
   0   4  -1   45.90    1.50
   0  -4  -1   43.40    1.30
   0   4   1   46.70    1.30
   0  -4  -1   44.00    1.30
   0  -4   1   44.60    1.40
   0   4   1   44.70    1.00
   0   4   1   44.10    1.30
   0   4  -1   46.40    1.10
  -1  -4  -1  361.56    6.00
  -1   4   1  359.16    5.60
  -1  -4  -1  350.56    5.70
   1  -4   1  353.06    5.80
   1   4  -1  353.86    6.00
   1  -4   1  358.66    5.80
   1  -4   1  357.76    6.10
   1   4  -1  356.46    5.40
   1  -4   1  360.86    5.50
  -1  -4  -1  353.86    5.90
   1  -4   1  358.16    6.20
   1   4  -1  358.76    5.40
   1   4  -1  346.37    6.10
  -1   4   1  351.26    5.90
  -1   4   1  350.26    5.60
   1  -4   1  361.26    6.00
   1   4  -1  355.56    5.80
   1   4   1  355.36    5.90
   1  -4  -1  366.36    5.40
   1  -4  -1  353.06    5.80
  -1   4  -1  345.77    6.10
   1   4   1  354.66    5.20
  -1   4  -1  354.76    5.70
   1  -4  -1  347.57    5.80
  -1  -4   1  363.86    6.10
  -1  -4   1  347.37    5.80
  -1  -4   1  351.16    5.80
   1  -4  -1  349.37    5.90
   1   4   1  348.67    5.80
   1   4   1  347.27    5.90
  -1   4  -1  349.87    5.40
  -2   4   1   38.60    1.40
   2   4  -1   38.30    1.40
  -2   4   1   39.20    1.40
   2  -4   1   41.50    1.20
  -2  -4  -1   39.90    1.40
   2   4  -1   39.40    1.50
  -2   4   1   40.40    1.00
  -2  -4  -1   39.20    1.20
   2  -4   1   42.00    1.30
  -2  -4  -1   41.50    1.40
   2  -4   1   40.20    1.40
   2  -4   1   40.00    1.30
   2   4  -1   39.00    1.40
   2   4  -1   38.70    1.10
   2   4   1   39.40    1.00
   2   4   1   40.30    1.40
  -2  -4   1   41.20    1.50
  -2  -4   1   39.80    1.20
   2  -4  -1   39.30    1.20
   2   4   1   38.00    1.40
   2  -4  -1   40.20    1.50
  -2  -4   1   40.20    1.30
  -2   4  -1   40.40    1.60
   2  -4  -1   40.00    1.40
  -2   4  -1   38.80    1.30
   2   4   1   35.60    1.30
   2  -4  -1   38.20    1.10
   2  -4  -1   36.40    1.40
   3  -4   1    7.00    0.70
   3   4  -1    7.80    0.70
  -3   4   1    8.70    0.40
   3  -4   1    7.60    0.90
  -3   4   1    8.00    0.80
   3   4  -1    8.80    0.90
  -3  -4  -1    8.90    0.60
   3  -4   1    8.50    0.70
   3   4  -1    9.10    0.90
  -3   4   1    9.30    0.90
   3  -4   1    7.50    0.70
  -3  -4  -1    7.20    0.80
   3   4  -1    7.50    0.80
  -3  -4  -1    8.60    0.60
   3   4  -1    6.90    0.70
   3  -4  -1    6.80    0.70
   3  -4  -1    9.20    0.90
  -3  -4   1    9.50    0.70
   3  -4  -1    8.50    0.50
   3   4   1    7.30    0.70
   3  -4  -1    8.00    0.40
   3   4   1    9.60    0.80
  -3   4  -1    8.90    1.00
   3   4   1   10.20    0.60
  -3   4  -1    6.50    0.70
   3   4   1    7.00    0.80
   3   4   1    8.20    0.90
   3  -4  -1    8.20    0.70
   3   4   1    5.60    0.70
   4   4  -1  300.57    5.40
   4   4  -1  298.97    5.80
   4   4  -1  306.07    6.00
   4   4  -1  306.77    6.00
  -4  -4  -1  298.37    5.80
   4  -4   1  308.07    5.60
  -4  -4  -1  300.07    5.20
   4   4  -1  311.67    5.50
  -4  -4  -1  306.77    5.50
   4   4  -1  295.27    6.00
   4  -4   1  302.57    6.00
  -4   4   1  305.17    6.00
   4  -4   1  306.57    5.50
  -4   4   1  303.87    6.00
   4  -4   1  296.57    5.80
   4  -4  -1  308.27    5.90
   4   4   1  300.97    5.90
   4   4   1  310.27    6.00
   4   4   1  299.97    5.80
   4  -4  -1  291.87    5.80
   4  -4  -1  310.67    5.60
   4   4   1  301.17    5.40
   4   4   1  303.47    5.40
  -4  -4   1  309.17    5.80
  -4   4  -1  302.97    5.90
  -4  -4   1  305.37    5.50
   4   4   1  303.17    6.00
  -4   4  -1  312.37    6.20
   4  -4  -1  306.47    5.00
   5  -4   1   13.90    1.40
  -5   4   1   16.50    1.40
   5   4  -1   11.20    1.10
   5  -4   1   15.00    1.20
  -5  -4  -1   15.10    1.20
   5   4  -1   16.10    1.40
   5   4  -1   16.30    1.10
  -5   4   1   14.30    1.40
   5  -4   1   16.70    1.10
   5   4  -1   18.10    1.30
   5   4  -1   14.30    1.00
  -5  -4  -1   16.90    1.20
   5  -4   1   17.70    1.10
   5  -4   1   16.00    1.20
   5   4  -1   15.80    1.20
   5   4   1   13.90    1.20
  -5  -4   1   15.70    1.20
   5   4   1   15.20    1.40
  -5  -4   1   18.50    1.10
   5  -4  -1   18.20    0.90
   5  -4  -1   17.50    1.20
   5   4   1   14.90    1.00
   5  -4  -1   17.10    1.30
   5   4   1   15.00    1.10
   5  -4  -1   15.80    1.30
  -5   4  -1   16.90    1.40
   5  -4  -1   16.20    1.30
   5   4   1   15.50    1.20
   5   4   1   15.80    1.40
  -5   4  -1   12.50    1.30
   6   4  -1    9.50    1.20
   6  -4   1    7.90    1.00
  -6   4   1    8.50    1.30
   6   4  -1    9.00    0.80
   6   4  -1    9.60    1.30
   6  -4   1    7.90    1.10
   6  -4   1    8.80    1.20
  -6  -4  -1   10.00    1.10
   6   4  -1   10.90    1.40
  -6  -4  -1    9.60    1.20
  -6   4   1    6.30    1.00
   6   4  -1    9.30    1.20
   6   4  -1    8.30    1.00
   6  -4   1    9.60    1.00
   6  -4   1    8.40    1.20
   6   4   1    8.70    1.00
   6  -4  -1    6.90    1.00
   6   4   1    9.40    1.30
   6  -4  -1    6.80    1.00
   6   4   1    9.40    1.30
   6  -4  -1    8.00    1.10
   6   4   1    8.20    1.00
  -6  -4   1    9.20    1.10
   6  -4  -1   10.20    0.90
  -6   4  -1   10.20    1.30
   6   4   1    9.80    0.90
  -6   4  -1    7.70    1.20
   6  -4  -1    9.20    1.10
   6   4   1    9.00    1.30
   7   4  -1   48.60    2.40
   7   4  -1   50.59    2.70
   7  -4   1   50.49    2.50
   7   4  -1   49.99    2.60
  -7   4   1   49.00    2.80
  -7  -4  -1   48.40    2.40
   7  -4   1   50.19    2.40
   7  -4   1   49.00    2.50
   7  -4   1   51.59    2.20
   7   4  -1   47.80    2.50
  -7  -4  -1   51.49    2.30
   7  -4   1   51.99    2.00
   7   4  -1   49.70    2.20
   7  -4  -1   49.20    2.30
  -7   4  -1   45.60    2.60
   7   4   1   47.60    2.20
  -7   4  -1   47.80    2.60
  -7  -4   1   49.80    2.20
   7   4   1   52.99    1.90
   7  -4  -1   52.19    2.40
   7  -4  -1   47.60    2.30
   7   4   1   46.50    2.50
   7   4   1   51.59    2.30
   7  -4  -1   47.90    2.50
   7   4   1   46.20    2.60
   7   4   1   48.60    2.50
   8  -4   1   23.30    2.10
   8  -4   1   24.90    2.10
   8  -4   1   23.70    1.80
   8  -4   1   20.80    1.50
  -8   4   1   24.50    2.60
   8   4  -1   22.40    1.80
  -8  -4  -1   23.40    1.80
   8   4  -1   22.40    2.00
   8   4  -1   24.40    2.00
   8   4  -1   24.10    2.10
   8   4  -1   23.60    2.40
   8  -4   1   24.90    2.00
   8   4   1   22.70    1.80
   8  -4  -1   24.50    2.00
   8   4   1   25.90    1.90
   8   4   1   20.70    2.10
   8  -4  -1   24.40    1.90
   8   4   1   20.60    2.10
   8  -4  -1   25.20    1.90
   8   4   1   17.20    1.90
   8  -4  -1   21.80    2.10
   8  -4  -1   22.30    1.70
   8  -4  -1   27.30    2.20
  -8   4  -1   19.80    2.20
   9   4  -1   78.29    3.30
   9   4  -1   76.99    3.70
   9  -4   1   71.79    3.50
   9   4  -1   80.39    3.90
   9   4  -1   72.59    3.60
  -9   4   1   78.89    4.10
   9  -4   1   78.09    3.50
   9  -4   1   75.79    3.50
   9   4  -1   73.89    3.40
   9  -4   1   78.49    3.80
   9   4   1   77.59    3.90
   9  -4  -1   77.49    3.40
   9  -4  -1   80.89    3.70
   9  -4  -1   79.69    3.10
   9   4   1   76.09    3.30
   9   4   1   76.59    3.30
   9  -4  -1   77.09    3.30
   9   4   1   76.99    3.70
   9  -4  -1   75.89    3.70
   9   4   1   75.79    3.70
  -9   4  -1   72.99    4.00
  10  -4   1    8.80    1.80
  10   4  -1    8.10    1.60
  10  -4   1    5.30    1.50
  10   4  -1    6.60    1.70
  10   4  -1    8.40    1.50
  10   4  -1    6.60    1.60
  10   4   1    9.80    2.00
  10  -4  -1   11.90    1.90
  10   4   1    9.70    1.70
 -10   4  -1    8.50    2.20
  10  -4  -1    8.90    1.60
  10   4   1    7.70    1.80
  11  -4   1   10.80    2.00
  11   4  -1   12.80    2.90
  11   4  -1   12.30    2.10
  11   4  -1    9.30    1.70
  11  -4  -1   10.60    2.00
  11   4   1   12.30    2.00
  11   4   1    7.50    1.80
   0  -5  -1   98.09    2.30
   0  -5  -1   95.29    2.20
   0  -5   1   95.99    2.30
   0   5  -1  100.19    2.50
   0   5   1   98.99    1.70
   0   5  -1   98.09    2.00
   0   5   1   99.09    1.90
   0  -5   1   99.69    2.50
   0   5  -1   93.59    2.40
   0   5  -1   98.19    1.90
   0   5   1  101.29    2.20
   0  -5  -1  100.49    2.40
   0  -5   1   94.49    2.40
   0  -5  -1   96.69    2.40
   0   5   1   96.19    2.30
   1   5  -1  759.92   12.30
   1   5  -1  789.82   11.40
  -1   5   1  798.62   11.70
  -1  -5  -1  775.32   11.90
   1   5  -1  766.62   12.20
   1  -5   1  775.22   11.90
  -1  -5  -1  764.22   12.20
  -1   5   1  771.42   12.00
   1   5  -1  781.72   11.40
   1  -5   1  793.82   11.50
  -1  -5  -1  808.72   12.10
  -1   5   1  795.62   11.80
   1  -5   1  780.52   12.20
   1  -5   1  794.02   12.00
   1  -5   1  783.22   12.30
   1   5  -1  763.02   11.90
  -1  -5  -1  771.62   12.20
  -1   5  -1  777.22   11.70
   1   5   1  772.52   12.30
   1  -5  -1  790.22   11.30
   1   5   1  757.02   11.80
  -1   5  -1  779.12   11.40
   1  -5  -1  751.32   12.00
  -1  -5   1  777.82   12.40
   1  -5  -1  795.32   12.00
  -1  -5   1  792.32   12.00
  -1   5  -1  781.32   12.30
  -1  -5   1  770.92   12.00
   1  -5  -1  787.62   12.30
   1   5   1  790.02   12.10
   1   5   1  789.72   12.00
   1  -5  -1  775.22   12.00
   2   5  -1  363.16    6.50
   2  -5   1  358.06    6.50
   2  -5   1  348.37    6.10
  -2  -5  -1  353.16    6.40
   2   5  -1  357.66    6.40
  -2   5   1  359.26    6.30
  -2  -5  -1  355.36    6.00
   2   5  -1  352.16    5.60
   2  -5   1  362.76    6.30
  -2   5   1  365.86    6.10
   2  -5   1  363.56    5.90
  -2   5   1  359.46    5.80
   2   5  -1  360.86    6.30
   2  -5   1  348.57    6.10
  -2   5  -1  359.76    5.50
   2   5   1  363.86    6.30
   2   5   1  359.56    5.50
  -2  -5   1  362.46    6.50
   2  -5  -1  360.06    5.70
   2  -5  -1  365.06    6.00
   2   5   1  352.56    6.20
  -2  -5   1  367.26    6.10
  -2  -5   1  349.77    6.10
   2   5   1  356.36    5.40
  -2   5  -1  366.56    6.10
   2  -5  -1  356.66    6.20
   2  -5  -1  354.56    6.30
   2  -5  -1  354.46    6.40
   2   5   1  354.76    6.40
  -2   5  -1  360.46    6.60
   2   5   1  351.66    6.20
   2  -5  -1  360.36    6.30
   3   5  -1  110.59    2.90
   3  -5   1  112.59    2.60
   3  -5   1  114.89    3.10
   3   5  -1  116.89    3.10
  -3   5   1  112.19    2.90
  -3   5   1  114.49    2.90
  -3  -5  -1  113.69    2.90
   3   5  -1  112.79    2.90
   3  -5   1  112.29    2.70
  -3   5   1  116.89    2.20
   3   5  -1  115.89    2.90
  -3  -5  -1  114.49    2.50
   3  -5   1  116.69    2.70
   3   5  -1  115.09    2.40
   3  -5   1  115.89    2.80
  -3  -5   1  115.39    3.00
   3  -5  -1  113.29    2.90
  -3   5  -1  117.59    2.80
  -3  -5   1  111.69    2.70
  -3   5  -1  115.09    3.10
   3  -5  -1  112.99    2.50
   3   5   1  111.19    2.30
   3  -5  -1  115.89    2.40
   3   5   1  121.99    3.00
   3   5   1  115.19    3.00
   3   5   1  120.79    2.80
   3  -5  -1  117.59    2.80
   3   5   1  112.59    2.90
   3  -5  -1  113.39    3.00
   4   5  -1    5.00    0.80
   4   5  -1    8.10    0.80
  -4  -5  -1    5.80    0.70
  -4   5   1    6.40    0.40
  -4   5   1    6.20    0.90
   4   5  -1    5.10    0.80
   4  -5   1    6.40    1.00
   4   5  -1    5.20    0.80
   4  -5   1    5.10    0.70
   4  -5   1    9.30    1.00
  -4   5   1    5.10    0.80
   4   5  -1    5.40    0.90
   4  -5   1    7.50    0.80
  -4  -5  -1    5.90    0.90
   4   5  -1    6.40    0.70
  -4   5  -1    6.60    0.90
   4  -5  -1    6.40    0.80
   4   5   1    6.20    0.80
   4   5   1    6.70    0.80
  -4  -5   1    5.80    0.70
   4  -5  -1    6.40    0.70
   4   5   1    5.80    0.90
   4  -5  -1    6.80    0.90
   4   5   1    7.90    0.70
   4  -5  -1    6.40    0.90
   4   5   1    6.10    0.80
  -4   5  -1    5.40    0.80
  -4  -5   1    8.00    1.00
   4   5   1    6.60    0.90
   5   5  -1   31.50    1.40
  -5  -5  -1   32.30    1.40
   5  -5   1   29.60    1.50
   5  -5   1   33.00    1.60
   5   5  -1   30.50    1.70
  -5   5   1   31.80    1.80
   5  -5   1   32.20    1.90
   5   5  -1   31.10    1.90
   5   5  -1   33.60    1.90
   5   5  -1   30.60    1.80
   5  -5   1   30.00    1.50
  -5  -5  -1   31.10    1.70
  -5   5   1   30.50    1.90
   5  -5   1   31.50    1.70
   5   5  -1   29.80    1.40
  -5  -5   1   33.50    1.50
   5   5   1   31.60    1.80
   5  -5  -1   30.30    1.70
   5  -5  -1   28.70    1.60
   5   5   1   32.60    1.40
   5   5   1   30.30    1.70
   5   5   1   30.90    1.60
   5   5   1   33.80    1.90
   5  -5  -1   32.10    1.60
  -5  -5   1   30.70    1.70
   5  -5  -1   29.20    1.70
   5  -5  -1   33.30    1.60
  -5   5  -1   29.20    1.90
  -5   5  -1   31.40    1.90
   5   5   1   31.30    1.40
   6  -5   1   45.10    2.00
   6   5  -1   41.80    1.90
   6   5  -1   42.00    1.70
   6   5  -1   45.00    2.40
  -6   5   1   42.90    2.30
   6  -5   1   40.90    1.80
  -6   5   1   45.50    2.50
   6  -5   1   37.30    2.10
   6   5  -1   45.10    2.20
   6  -5   1   41.40    2.20
   6   5  -1   41.40    2.20
   6  -5   1   43.10    2.00
   6   5  -1   40.50    2.20
  -6  -5  -1   46.10    2.10
  -6   5  -1   40.00    2.30
   6  -5  -1   44.20    2.20
   6   5   1   42.70    2.30
   6   5   1   39.30    1.70
   6  -5  -1   41.70    2.00
   6  -5  -1   44.00    2.20
   6   5   1   45.10    2.30
   6  -5  -1   44.50    2.00
   6  -5  -1   40.80    2.00
   6   5   1   43.00    2.20
   6   5   1   43.10    2.10
  -6   5  -1   42.60    2.40
   6   5   1   43.00    1.90
  -6  -5   1   45.40    2.10
  -7   5   1   73.19    3.20
   7   5  -1   75.59    2.40
  -7   5   1   76.69    3.50
  -7  -5  -1   75.69    2.90
   7  -5   1   73.49    2.70
   7  -5   1   76.49    2.60
   7   5  -1   71.99    2.70
   7  -5   1   75.19    3.10
   7  -5   1   77.39    3.00
   7   5  -1   74.79    3.10
   7   5  -1   78.09    3.10
   7  -5   1   71.79    3.10
   7   5  -1   73.59    3.20
   7   5  -1   71.09    3.20
   7   5   1   74.29    2.70
   7  -5  -1   77.29    3.00
   7   5   1   77.19    3.20
   7  -5  -1   76.29    3.00
   7   5   1   73.69    2.50
   7   5   1   70.79    2.90
  -7  -5   1   76.19    2.90
   7  -5  -1   73.99    2.90
   7   5   1   74.89    3.30
   7  -5  -1   75.09    2.80
  -7   5  -1   75.39    3.30
   7  -5  -1   66.19    3.00
  -7   5  -1   75.49    3.40
   7   5   1   78.59    3.30
   8   5  -1   24.80    2.40
   8   5  -1   19.20    2.00
   8  -5   1   19.90    1.90
  -8   5   1   27.70    2.60
   8  -5   1   25.90    1.70
   8   5  -1   23.00    1.80
  -8  -5  -1   21.20    1.80
   8  -5   1   26.90    2.20
   8  -5   1   21.40    1.70
   8   5  -1   25.70    2.10
   8   5  -1   23.00    2.20
   8  -5   1   21.30    2.10
   8   5   1   22.50    1.80
   8  -5  -1   23.20    1.80
   8  -5  -1   21.90    1.90
   8  -5  -1   21.60    2.00
   8   5   1   27.20    2.30
   8   5   1   22.00    2.00
   8  -5  -1   24.80    2.00
  -8   5  -1   22.80    2.40
   8  -5  -1   25.80    2.20
  -8   5  -1   23.20    2.30
   8   5   1   27.90    2.40
   8   5   1   20.80    1.80
   8  -5  -1   20.30    2.00
   9   5  -1   10.30    1.60
  -9   5   1   12.80    2.20
   9  -5   1   10.90    1.70
   9  -5   1   12.90    1.80
   9  -5   1   12.60    1.90
   9   5  -1   13.60    1.70
   9  -5   1   10.40    1.70
   9   5  -1   13.40    1.90
   9   5  -1   11.20    1.80
   9   5  -1   10.70    1.70
   9  -5  -1   14.00    1.60
   9   5   1   13.40    1.70
  -9   5  -1    9.70    2.00
   9   5   1   14.60    2.20
   9  -5  -1   13.20    1.80
   9   5   1   16.90    2.10
   9   5   1   11.90    1.60
   9   5   1   16.00    2.20
   9  -5  -1   12.60    1.60
   9  -5  -1   12.00    1.80
   9  -5  -1    8.60    1.60
  10  -5   1   30.40    2.50
  10   5  -1   38.80    2.70
  10   5  -1   31.20    2.50
  10   5  -1   39.40    3.00
  10  -5   1   36.70    2.90
  10   5  -1   41.10    3.00
  10  -5  -1   35.40    2.70
  10   5   1   37.90    2.70
  10   5   1   40.00    3.10
  10   5   1   35.60    3.00
  10  -5  -1   37.70    2.90
 -10   5  -1   37.20    3.30
  11   5  -1   44.60    2.90
  11   5  -1   41.70    3.20
  11  -5   1   46.70    3.20
  11   5   1   41.70    2.90
  11  -5  -1   45.70    3.20
  11   5   1   42.20    3.20
   0  -6   1  870.71   13.60
   0   6  -1  849.12   13.60
   0   6  -1  864.31   12.90
   0   6  -1  874.71   12.80
   0  -6  -1  893.01   13.50
   0   6   1  882.01   13.30
   0  -6  -1  850.01   13.60
   0  -6   1  867.91   13.80
   0  -6  -1  865.81   13.40
   0   6   1  892.71   12.50
   0  -6   1  859.91   13.40
   0   6  -1  863.31   13.70
   0   6   1  864.91   12.80
   0  -6  -1  845.52   13.60
   0   6   1  854.91   13.50
   1   6  -1  540.75    9.30
   1  -6   1  556.24    9.00
   1  -6   1  554.74    9.30
   1   6  -1  565.54    8.20
   1   6  -1  553.74    8.80
   1   6  -1  544.75    9.30
  -1   6   1  557.44    8.80
  -1  -6  -1  551.34    8.90
   1  -6   1  551.64    9.30
   1   6  -1  565.74    8.20
  -1  -6  -1  556.74    9.30
  -1  -6  -1  553.94    9.30
  -1   6   1  573.24    8.60
  -1   6   1  549.54    9.10
  -1  -6   1  532.55    9.40
   1   6   1  532.95    9.00
   1  -6  -1  548.45    9.00
  -1   6  -1  555.74    8.30
  -1   6  -1  555.64    9.40
   1  -6  -1  567.64    8.10
   1  -6  -1  543.95    9.30
  -1   6  -1  561.54    8.60
   1   6   1  547.95    8.80
   1  -6  -1  559.84    9.10
   1   6   1  537.25    9.10
  -1  -6   1  558.44    9.10
   1  -6  -1  551.74    9.10
  -1  -6   1  543.75    9.10
   2  -6   1  408.76    6.50
  -2   6   1  408.86    7.20
   2   6  -1  408.16    7.10
   2   6  -1  409.66    6.30
   2   6  -1  392.66    7.30
   2  -6   1  404.86    7.00
  -2  -6  -1  398.66    6.80
  -2  -6  -1  408.26    7.40
   2  -6   1  395.36    7.40
   2  -6   1  402.16    7.00
   2  -6   1  412.86    7.20
  -2  -6  -1  407.46    7.20
  -2   6   1  405.36    6.90
   2   6  -1  410.56    7.40
  -2   6   1  402.36    6.60
  -2  -6   1  413.36    7.50
   2   6   1  412.16    7.20
  -2   6  -1  417.76    7.50
   2   6   1  411.56    7.30
  -2  -6   1  408.66    7.00
   2  -6  -1  406.46    7.10
  -2   6  -1  404.76    6.80
   2   6   1  402.96    7.00
  -2   6  -1  405.36    6.00
   2  -6  -1  400.96    6.40
   2   6   1  413.56    7.10
   2   6   1  402.96    6.10
   2  -6  -1  410.26    6.90
   2  -6  -1  400.46    7.30
   2  -6  -1  395.26    7.10
  -2  -6   1  391.26    7.00
  -3   6   1  379.96    6.90
   3  -6   1  377.86    7.30
   3  -6   1  387.96    7.00
   3  -6   1  384.86    6.50
   3   6  -1  380.66    6.20
   3   6  -1  381.56    7.20
   3   6  -1  381.76    7.00
  -3   6   1  387.16    7.10
  -3  -6  -1  377.56    6.60
  -3   6   1  389.36    6.20
   3  -6   1  379.26    6.80
   3  -6   1  388.16    6.80
  -3  -6  -1  385.76    7.20
   3   6  -1  384.16    7.30
   3   6   1  382.16    7.10
   3   6   1  390.36    6.90
   3   6   1  370.66    6.10
   3  -6  -1  364.06    6.80
  -3   6  -1  383.96    7.30
   3  -6  -1  370.96    7.10
  -3  -6   1  394.96    7.30
   3  -6  -1  386.56    6.40
   3   6   1  379.06    7.10
  -3  -6   1  389.26    6.70
  -3   6  -1  383.96    6.90
  -3  -6   1  369.26    6.70
   3  -6  -1  385.56    6.50
   3   6   1  373.06    7.00
   3  -6  -1  378.96    7.00
  -3   6  -1  387.46    5.70
   4   6  -1  265.17    5.70
   4  -6   1  256.47    5.70
  -4  -6  -1  260.27    4.90
   4   6  -1  262.57    5.20
   4   6  -1  261.07    5.60
   4  -6   1  265.57    5.50
  -4   6   1  258.47    5.60
  -4   6   1  259.77    4.30
   4   6  -1  259.37    4.80
   4   6  -1  269.67    5.60
   4  -6   1  267.37    5.10
  -4   6   1  258.17    5.50
  -4  -6  -1  267.17    5.60
   4  -6   1  257.77    5.20
   4  -6  -1  259.37    5.50
   4   6   1  252.97    5.60
   4  -6  -1  262.27    5.00
   4   6   1  251.87    4.70
   4   6   1  256.47    5.50
  -4  -6   1  246.38    5.10
  -4  -6   1  264.07    5.70
  -4   6  -1  256.37    5.80
   4   6   1  260.17    5.20
   4  -6  -1  263.27    4.60
   4   6   1  265.77    5.50
  -4   6  -1  256.97    5.40
   4  -6  -1  268.57    5.70
   4  -6  -1  259.57    5.30
   5  -6   1    1.60    0.60
  -5   6   1    1.60    0.90
   5  -6   1    2.90    0.90
  -5  -6  -1    1.70    0.70
   5   6  -1    2.30    0.80
   5   6  -1    0.90    0.50
  -5   6   1    1.90    0.70
   5   6  -1    1.30    0.60
   5   6  -1    2.40    0.90
   5   6  -1    1.30    0.70
   5  -6   1    1.80    0.60
   5   6  -1    1.30    0.70
   5  -6   1    1.20    0.60
  -5  -6  -1    2.40    0.60
   5   6   1    2.40    0.80
   5   6   1    2.30    0.70
   5   6   1    2.30    0.60
  -5   6  -1    1.00    0.80
   5   6   1    2.20    0.80
  -5   6  -1    2.00    0.80
   5  -6  -1    1.70    0.70
   5   6   1    1.00    0.80
   5  -6  -1    2.10    0.80
   5  -6  -1    1.10    0.70
   5  -6  -1    2.30    0.70
  -5  -6   1    1.50    0.60
  -5  -6   1    1.30    0.80
   5   6   1    1.10    0.70
   6  -6   1  200.98    5.20
   6   6  -1  206.58    5.30
   6  -6   1  218.08    5.60
  -6  -6  -1  212.78    5.20
  -6  -6  -1  214.88    4.40
  -6   6   1  219.58    5.50
   6   6  -1  205.98    4.60
   6   6  -1  210.58    5.30
   6   6  -1  205.88    4.60
   6  -6   1  208.58    4.90
   6   6  -1  202.58    5.30
  -6   6   1  201.08    5.50
   6  -6   1  208.38    4.90
   6  -6   1  211.98    4.70
   6   6  -1  217.38    5.60
   6  -6  -1  207.88    5.30
   6  -6  -1  208.08    5.10
   6   6   1  210.68    4.60
   6   6   1  207.48    5.40
   6  -6  -1  209.08    4.90
  -6   6  -1  212.28    5.40
  -6  -6   1  213.68    5.20
   6  -6  -1  207.18    5.30
  -6   6  -1  207.28    5.50
   6   6   1  204.48    5.30
   6  -6  -1  210.18    4.90
   6   6   1  199.88    5.00
   6   6   1  205.98    5.40
  -6  -6   1  206.68    4.60
   6   6   1  211.48    4.60
   7   6  -1   66.49    3.10
   7   6  -1   67.09    3.20
  -7   6   1   64.29    3.20
   7   6  -1   63.59    2.30
   7  -6   1   68.49    2.80
   7   6  -1   63.79    2.50
   7  -6   1   67.99    3.10
   7  -6   1   66.99    3.00
  -7  -6  -1   66.79    2.90
   7  -6   1   68.59    2.50
  -7   6   1   66.99    3.10
   7   6  -1   64.89    3.00
   7  -6   1   63.99    2.60
   7   6  -1   64.09    3.00
   7  -6  -1   65.09    2.80
   7  -6  -1   66.89    3.00
   7  -6  -1   65.49    2.70
  -7  -6   1   65.19    2.80
   7   6   1   67.89    2.80
  -7   6  -1   66.29    3.20
   7  -6  -1   63.59    2.90
   7   6   1   68.19    2.40
  -7   6  -1   67.19    3.30
   7   6   1   65.39    3.10
   7   6   1   67.89    3.20
   7   6   1   66.49    2.50
   7  -6  -1   64.39    2.70
   7   6   1   71.49    3.20
   8  -6   1   14.50    1.80
   8  -6   1   17.30    1.90
   8   6  -1   18.70    2.00
   8   6  -1   20.10    2.10
  -8   6   1   19.20    2.40
   8  -6   1   16.30    2.00
   8   6  -1   20.10    2.00
  -8  -6  -1   20.70    2.00
   8  -6   1   19.10    1.60
   8   6  -1   16.40    1.60
   8  -6   1   19.80    1.70
   8   6  -1   16.70    2.00
   8  -6  -1   17.20    1.90
   8  -6  -1   15.40    1.90
   8  -6  -1   17.70    1.80
  -8  -6   1   18.80    1.80
   8   6   1   18.70    2.20
  -8   6  -1   18.10    2.10
  -8   6  -1   18.40    2.30
   8   6   1   16.90    1.80
   8   6   1   15.90    1.90
   8  -6  -1   16.20    1.80
   8   6   1   17.50    2.10
   8  -6  -1   16.80    1.90
   8   6   1   18.90    1.60
   9   6  -1   18.70    2.10
   9   6  -1   20.70    2.40
  -9   6   1   21.80    2.80
   9   6  -1   18.30    1.90
   9  -6   1   16.40    2.00
   9  -6   1   15.80    2.30
   9  -6   1   18.80    2.20
   9   6  -1   18.70    2.30
   9  -6   1   18.80    2.20
   9   6  -1   19.20    2.20
   9  -6  -1   19.90    2.30
   9   6   1   21.00    2.00
   9  -6  -1   18.00    2.00
   9   6   1   20.30    2.00
   9  -6  -1   21.20    2.00
   9   6   1   16.40    2.10
   9   6   1   21.10    2.30
  -9   6  -1   21.20    2.70
   9  -6  -1   19.00    2.10
   9   6   1   14.90    2.00
  10   6  -1   27.70    2.50
  10   6  -1   35.80    2.50
  10   6  -1   35.20    2.90
  10  -6   1   32.50    2.70
  10   6  -1   35.50    3.00
  10  -6   1   30.90    2.70
  10  -6  -1   27.90    2.80
  10  -6  -1   28.00    2.60
  10   6   1   28.90    2.30
 -10   6  -1   30.60    3.30
  10   6   1   28.90    2.90
  10   6   1   31.50    2.70
   0   7  -1  620.84   10.50
   0  -7  -1  614.04   10.40
   0   7   1  635.54   10.20
   0   7   1  614.94   10.00
   0  -7   1  594.94   10.40
   0   7   1  618.34    9.40
   0  -7   1  623.34   10.40
   0  -7  -1  615.94   10.30
   0   7  -1  605.54    9.30
   0   7  -1  610.14    9.50
   0  -7  -1  612.54   10.10
   0  -7   1  612.04   10.10
  -1   7   1   72.69    2.00
  -1   7   1   76.59    2.30
  -1   7   1   78.19    1.80
   1   7  -1   75.39    1.40
   1  -7   1   74.79    2.40
  -1  -7  -1   78.29    2.20
  -1  -7  -1   77.99    2.40
   1  -7   1   73.39    2.40
  -1  -7  -1   73.79    2.30
   1   7  -1   74.79    2.00
   1   7  -1   75.79    1.50
   1   7  -1   73.49    2.40
   1   7   1   74.89    2.20
   1  -7  -1   70.49    2.40
   1  -7  -1   72.89    2.20
  -1   7  -1   76.19    1.60
   1   7   1   75.09    2.30
   1   7   1   72.39    2.00
   1   7   1   78.59    2.50
  -1  -7   1   77.89    2.30
   1  -7  -1   79.59    2.30
   1  -7  -1   79.89    1.40
  -1  -7   1   73.89    2.30
  -1   7  -1   77.29    2.50
  -1   7  -1   75.49    1.80
  -2   7   1  261.87    4.80
   2  -7   1  252.67    5.20
   2  -7   1  252.97    5.00
   2  -7   1  262.87    4.40
   2   7  -1  261.37    4.10
  -2  -7  -1  252.57    5.40
  -2   7   1  257.67    4.70
   2   7  -1  260.27    4.10
   2   7  -1  248.48    5.30
   2  -7   1  257.77    5.10
  -2  -7  -1  256.37    5.20
   2  -7   1  247.68    5.40
  -2   7   1  261.67    5.30
  -2  -7  -1  248.08    4.90
   2   7  -1  246.78    5.00
   2   7  -1  252.37    5.40
   2  -7  -1  260.97    4.30
   2   7   1  248.98    5.30
   2   7   1  256.27    3.90
  -2  -7   1  261.57    5.10
  -2   7  -1  256.37    4.80
  -2   7  -1  258.67    5.50
   2  -7  -1  253.47    5.40
   2  -7  -1  256.57    5.00
  -2  -7   1  252.27    5.50
   2   7   1  260.77    5.30
   2   7   1  252.77    5.10
   2  -7  -1  245.18    5.10
   2   7   1  255.97    5.00
  -2  -7   1  250.57    5.00
  -2   7  -1  258.57    3.90
   2  -7  -1  254.87    5.10
   3  -7   1   46.60    1.60
  -3   7   1   46.40    2.00
   3  -7   1   49.00    2.20
  -3   7   1   48.00    1.50
   3  -7   1   48.80    1.80
  -3   7   1   48.50    1.90
  -3  -7  -1   46.00    1.70
  -3  -7  -1   46.10    2.00
   3   7  -1   45.20    2.00
   3   7  -1   44.90    1.90
   3  -7   1   48.10    1.90
   3   7  -1   44.60    1.30
   3  -7   1   44.50    1.80
   3   7  -1   45.50    2.10
   3   7   1   44.70    1.20
  -3  -7   1   47.40    2.20
   3  -7  -1   46.50    2.10
   3   7   1   49.90    2.00
  -3  -7   1   46.60    1.80
  -3   7  -1   45.50    2.20
   3   7   1   48.20    2.00
   3  -7  -1   47.10    1.70
   3  -7  -1   43.20    1.90
  -3  -7   1   46.90    1.80
   3  -7  -1   45.80    1.80
   3   7   1   44.40    1.80
   3  -7  -1   44.70    1.50
   3   7   1   45.80    2.00
  -3   7  -1   46.10    1.80
  -4  -7  -1  191.78    4.10
   4  -7   1  191.48    4.30
   4   7  -1  187.88    3.70
   4   7  -1  190.18    4.70
   4   7  -1  192.48    4.60
   4  -7   1  191.48    4.10
  -4   7   1  196.88    3.50
  -4   7   1  196.88    4.70
   4  -7   1  194.88    4.50
   4   7  -1  197.88    4.90
  -4   7   1  191.48    4.60
   4   7  -1  193.68    4.30
   4  -7   1  189.98    4.10
   4  -7   1  192.48    4.90
  -4  -7  -1  187.38    4.70
   4   7   1  186.78    3.70
   4   7   1  196.38    4.70
   4  -7  -1  193.18    3.80
  -4  -7   1  177.48    4.70
   4  -7  -1  189.28    4.40
  -4   7  -1  195.38    4.50
  -4  -7   1  190.98    4.30
   4  -7  -1  190.78    4.60
   4   7   1  188.08    4.30
   4   7   1  189.38    4.60
  -4   7  -1  191.08    4.90
  -4  -7   1  201.28    4.30
   4   7   1  183.58    4.50
   4  -7  -1  187.08    4.00
   4  -7  -1  188.18    4.70
  -5   7   1  294.27    6.60
   5   7  -1  298.87    6.60
   5   7  -1  312.37    6.10
   5   7  -1  297.37    6.80
   5  -7   1  303.67    6.10
   5   7  -1  315.57    6.70
   5  -7   1  298.27    6.40
   5  -7   1  291.97    6.80
  -5   7   1  295.07    6.60
   5  -7   1  301.27    6.10
   5   7  -1  301.37    5.60
  -5  -7  -1  296.77    6.60
  -5  -7  -1  302.67    5.70
   5   7   1  306.47    6.70
   5  -7  -1  306.17    6.30
   5   7   1  296.87    6.50
   5   7   1  306.57    6.70
  -5   7  -1  295.77    6.50
   5   7   1  304.97    6.10
   5   7   1  296.97    5.60
  -5   7  -1  297.87    6.90
   5  -7  -1  298.97    5.90
   5  -7  -1  288.87    6.50
  -5  -7   1  305.17    6.00
  -5  -7   1  298.77    5.90
  -5  -7   1  301.47    6.70
   5  -7  -1  304.77    6.70
   6   7  -1  139.79    4.30
   6  -7   1  140.89    4.40
   6   7  -1  138.89    4.30
  -6   7   1  139.79    4.30
   6   7  -1  139.29    3.70
  -6  -7  -1  140.49    3.40
  -6  -7  -1  131.99    4.10
  -6   7   1  137.59    4.40
   6   7  -1  136.69    4.50
   6   7  -1  138.29    3.50
   6  -7   1  135.89    3.80
   6  -7   1  137.69    4.20
   6  -7   1  138.29    3.90
   6  -7   1  146.69    4.00
   6   7   1  134.39    4.30
   6  -7  -1  144.49    4.00
   6   7   1  134.19    3.40
   6  -7  -1  143.19    3.80
  -6  -7   1  136.19    4.20
   6   7   1  137.09    3.70
  -6  -7   1  136.59    3.60
   6  -7  -1  138.99    4.30
  -6   7  -1  137.99    4.50
   6  -7  -1  132.39    4.00
   6   7   1  135.49    4.10
   6   7   1  133.19    4.20
   6  -7  -1  139.39    4.20
  -6   7  -1  137.99    4.30
   7   7  -1   74.49    3.30
  -7  -7  -1   71.89    3.20
   7  -7   1   71.19    2.90
   7  -7   1   72.19    2.80
   7   7  -1   72.69    3.20
   7   7  -1   71.59    3.20
   7   7  -1   73.79    2.70
   7  -7   1   72.19    3.20
   7  -7   1   69.69    3.30
   7   7  -1   75.09    3.50
   7  -7   1   75.99    2.90
   7   7  -1   73.49    2.60
  -7   7   1   68.59    3.30
   7  -7  -1   73.79    3.30
   7  -7  -1   71.19    3.00
  -7   7  -1   79.69    3.60
   7   7   1   70.89    3.40
   7   7   1   71.69    3.30
   7   7   1   74.69    2.60
   7   7   1   70.99    3.00
   7   7   1   71.69    2.70
  -7  -7   1   73.69    3.20
   7  -7  -1   69.99    2.90
  -7   7  -1   73.89    3.40
   7  -7  -1   69.29    3.20
   7  -7  -1   72.79    2.90
   8   7  -1   31.80    2.10
   8   7  -1   35.50    2.50
   8  -7   1   36.10    2.20
   8  -7   1   38.40    2.40
   8  -7   1   36.80    2.40
   8   7  -1   38.10    2.70
   8   7  -1   38.50    2.90
  -8  -7  -1   36.70    2.50
   8  -7   1   36.20    2.70
   8   7  -1   35.70    2.60
   8  -7   1   40.00    2.60
  -8   7   1   31.20    3.00
   8  -7  -1   37.70    2.60
  -8   7  -1   36.30    3.00
   8   7   1   38.00    2.60
   8   7   1   32.70    2.30
   8  -7  -1   36.80    2.30
   8   7   1   39.70    2.10
   8  -7  -1   35.10    2.20
  -8  -7   1   33.60    2.40
   8  -7  -1   34.60    2.60
  -8   7  -1   32.70    2.70
   8   7   1   39.90    2.90
   8  -7  -1   36.00    2.40
   9   7  -1   37.70    2.70
   9  -7   1   33.50    2.70
   9   7  -1   37.20    2.90
   9   7  -1   32.50    2.80
   9   7  -1   35.40    3.10
   9   7  -1   33.60    2.20
  -9   7   1   38.90    3.30
   9  -7   1   34.50    2.50
   9  -7   1   35.60    2.80
   9   7   1   35.90    2.90
   9  -7  -1   37.30    2.60
  -9   7  -1   40.10    3.30
   9  -7  -1   39.50    2.70
   9   7   1   38.70    2.60
   9  -7  -1   37.30    2.90
   9   7   1   37.30    3.00
   9   7   1   37.50    2.30
   9  -7  -1   39.60    2.40
  10  -7   1    4.10    1.40
  10   7  -1    4.70    1.20
  10   7  -1    4.60    1.70
  10   7  -1    5.10    1.50
  10   7  -1    5.20    1.60
  10  -7   1    1.40    1.30
 -10   7  -1    5.20    1.90
  10   7   1    5.40    1.80
  10  -7  -1    5.90    1.70
  10   7   1    2.80    1.50
  10  -7  -1    4.50    1.40
   0   8   1   -0.10    0.30
   0  -8  -1   -0.10    0.50
   0   8   1   -0.30    0.40
   0  -8  -1    0.20    0.50
   0   8   1   -0.80    0.40
   0  -8  -1   -0.40    0.50
   0  -8   1    0.30    0.50
   0   8  -1   -0.10    0.20
   0   8  -1    0.50    0.60
   0  -8   1    0.00    0.50
   0  -8   1    0.00    0.70
   0   8  -1   -0.30    0.30
   1   8  -1  350.46    5.40
   1   8  -1  346.57    6.20
  -1  -8  -1  356.66    7.00
   1  -8   1  361.56    7.00
   1   8  -1  349.67    6.90
  -1  -8  -1  361.56    6.90
  -1   8   1  366.06    6.40
  -1  -8  -1  345.47    6.50
   1  -8   1  351.96    6.90
   1  -8   1  349.77    6.60
  -1   8   1  359.26    6.80
  -1   8   1  361.66    5.90
   1   8  -1  346.07    6.90
  -1   8  -1  350.46    5.60
  -1  -8   1  354.56    7.10
  -1  -8   1  348.37    6.60
  -1   8  -1  357.46    5.90
  -1   8  -1  350.46    7.00
  -1  -8   1  347.17    6.70
   1  -8  -1  350.76    6.70
   1  -8  -1  346.17    6.60
   1  -8  -1  347.37    7.00
   1   8   1  357.56    6.20
   1   8   1  355.16    6.60
   1   8   1  355.66    6.80
  -2  -8  -1  482.55    8.50
   2   8  -1  490.35    9.10
  -2   8   1  504.45    8.90
   2   8  -1  503.65    7.20
   2  -8   1  499.25    8.90
  -2  -8  -1  489.25    8.90
   2   8  -1  475.15    9.00
   2  -8   1  499.25    8.70
   2  -8   1  486.15    8.70
  -2   8   1  502.75    8.30
   2   8  -1  463.15    8.40
  -2  -8  -1  489.05    9.10
  -2   8   1  494.65    8.20
   2  -8   1  511.75    7.80
   2   8  -1  480.85    7.30
   2  -8   1  480.15    9.10
   2   8   1  489.35    8.70
   2   8   1  485.65    9.00
   2  -8  -1  494.55    8.60
  -2   8  -1  498.65    9.20
   2  -8  -1  484.35    9.10
   2   8   1  487.15    8.80
   2  -8  -1  492.25    8.70
  -2  -8   1  476.35    9.20
  -2  -8   1  484.95    8.70
   2  -8  -1  498.45    7.60
  -2  -8   1  486.35    8.60
  -2   8  -1  492.05    8.20
   2  -8  -1  489.85    8.80
   2   8   1  481.45    8.50
   3   8  -1  470.05    8.60
  -3  -8  -1  482.25    8.80
   3   8  -1  482.75    8.70
  -3   8   1  486.35    8.50
   3  -8   1  484.15    8.70
  -3   8   1  474.45    7.90
   3  -8   1  456.75    9.00
   3  -8   1  485.65    7.90
  -3   8   1  494.25    9.00
   3   8  -1  469.45    7.40
   3   8  -1  464.65    9.00
   3   8  -1  479.75    9.10
  -3  -8  -1  470.85    8.30
   3  -8   1  478.85    8.60
   3   8  -1  517.15    8.10
   3  -8   1  483.25    8.70
  -3  -8  -1  474.05    9.10
   3  -8  -1  484.55    8.40
   3  -8  -1  488.45    7.80
  -3  -8   1  456.75    9.10
  -3  -8   1  473.15    8.50
   3  -8  -1  470.55    8.70
  -3   8  -1  474.85    8.40
   3  -8  -1  482.25    8.90
  -3   8  -1  479.75    9.10
   3  -8  -1  460.85    9.00
   3   8   1  468.15    8.60
  -3  -8   1  467.25    8.50
   3   8   1  473.95    9.00
   3   8   1  488.45    8.90
   3   8   1  475.75    8.70
   4  -8   1 1161.48   19.30
   4  -8   1 1189.08   18.10
  -4   8   1 1191.08   19.10
   4  -8   1 1202.68   18.40
  -4  -8  -1 1179.78   18.20
  -4   8   1 1180.58   18.70
  -4  -8  -1 1132.49   19.20
   4   8  -1 1146.09   17.50
   4   8  -1 1158.28   18.50
  -4   8   1 1197.68   17.50
   4  -8   1 1166.78   18.70
   4   8  -1 1176.98   19.30
   4   8  -1 1157.48   19.10
   4   8  -1 1163.98   18.90
   4  -8   1 1170.08   18.60
  -4  -8  -1 1201.48   18.80
  -4  -8   1 1166.58   18.40
   4   8   1 1179.88   18.90
  -4  -8   1 1152.08   19.30
  -4  -8   1 1177.88   18.40
  -4   8  -1 1189.98   19.40
   4  -8  -1 1201.08   17.90
   4  -8  -1 1156.38   18.70
   4   8   1 1160.68   19.10
   4  -8  -1 1181.38   17.90
   4   8   1 1143.89   17.40
   4   8   1 1156.78   19.00
  -4   8  -1 1160.68   18.60
   4  -8  -1 1154.88   18.90
   4  -8  -1 1161.18   19.20
   4   8   1 1181.48   18.60
  -5  -8  -1   46.40    1.90
   5   8  -1   40.80    2.00
   5   8  -1   41.80    2.50
  -5   8   1   46.90    2.40
   5  -8   1   45.60    2.50
   5  -8   1   43.70    2.00
   5   8  -1   45.10    1.60
  -5  -8  -1   44.70    2.40
   5   8  -1   41.80    2.30
   5  -8   1   38.90    2.10
   5   8  -1   43.00    2.30
  -5   8   1   43.40    2.30
   5  -8   1   43.40    2.10
   5  -8  -1   43.50    1.90
   5   8   1   39.20    2.20
  -5   8  -1   40.90    2.20
   5   8   1   42.40    2.00
   5  -8  -1   47.30    2.20
  -5   8  -1   44.30    2.50
   5  -8  -1   42.60    2.40
   5   8   1   43.50    1.60
  -5  -8   1   38.40    2.00
   5   8   1   44.60    2.40
   5  -8  -1   43.60    2.30
   5   8   1   40.50    2.30
  -5  -8   1   45.70    2.00
  -5  -8   1   43.20    2.50
  -6  -8  -1   75.29    2.50
   6   8  -1   73.29    3.10
   6  -8   1   73.19    3.00
   6   8  -1   69.89    3.30
   6   8  -1   75.49    2.40
   6  -8   1   73.99    2.70
   6   8  -1   70.29    3.10
   6   8  -1   73.19    2.70
   6  -8   1   82.29    3.50
  -6  -8  -1   76.99    3.30
   6  -8   1   76.19    2.80
  -6   8   1   74.29    3.30
  -6  -8   1   74.39    3.30
  -6   8  -1   82.39    3.50
   6  -8  -1   78.69    2.80
   6   8   1   73.09    3.10
   6  -8  -1   72.29    3.20
  -6  -8   1   75.39    2.70
   6   8   1   78.29    3.30
   6  -8  -1   73.59    2.90
  -6  -8   1   77.99    2.60
   6  -8  -1   71.59    3.10
  -6   8  -1   77.39    3.30
   6   8   1   75.59    2.40
   6   8   1   73.59    2.80
   6   8   1   76.19    3.10
   7  -8   1   49.40    2.40
   7   8  -1   57.89    3.20
   7   8  -1   51.99    2.80
   7  -8   1   51.99    2.80
   7   8  -1   52.89    3.00
   7  -8   1   54.89    3.10
  -7  -8  -1   51.49    2.90
   7   8  -1   53.39    2.20
  -7   8   1   48.10    3.00
   7   8  -1   49.30    2.30
   7  -8   1   54.29    2.50
   7  -8   1   49.80    2.50
   7   8   1   50.89    2.40
   7   8   1   47.30    2.90
   7  -8  -1   50.59    2.50
  -7  -8   1   45.30    2.80
  -7   8  -1   48.70    3.00
   7   8   1   53.29    2.80
   7  -8  -1   47.80    2.50
   7  -8  -1   50.39    2.70
   7   8   1   49.90    2.90
   7  -8  -1   46.50    2.70
   7  -8  -1   49.40    2.80
  -7   8  -1   44.00    2.90
   7   8   1   45.10    2.30
  -8  -8  -1    3.60    1.30
   8  -8   1    5.10    1.20
   8   8  -1    1.50    1.10
  -8   8   1    2.80    1.40
   8   8  -1    5.10    1.50
   8   8  -1    0.30    1.20
   8  -8   1    1.20    1.10
   8  -8   1    2.20    1.30
   8  -8   1    2.70    1.10
   8   8  -1    5.40    1.10
  -8  -8   1    2.20    1.20
  -8   8  -1    4.10    1.60
   8  -8  -1    2.90    1.30
   8   8   1    3.30    1.20
   8  -8  -1    3.60    1.20
   8   8   1    3.10    1.00
   8  -8  -1    3.10    1.10
   8   8   1    3.30    1.30
   8   8   1    2.10    1.20
   8  -8  -1    0.80    1.00
   8  -8  -1    3.20    1.10
  -9   8   1   44.40    3.40
   9  -8   1   42.50    2.90
   9   8  -1   39.40    2.80
   9  -8   1   41.30    3.20
   9  -8   1   41.10    2.80
   9   8  -1   39.80    2.90
   9  -8  -1   37.60    2.70
   9  -8  -1   40.00    3.00
   9  -8  -1   41.10    2.60
   9  -8  -1   49.00    4.40
   9   8   1   44.30    2.80
   9   8   1   43.90    3.20
   9  -8  -1   42.30    2.70
  -9   8  -1   44.60    3.40
  10   8  -1   71.69    4.00
  10   8  -1   66.79    3.70
  10  -8   1   64.69    4.00
  10  -8   1   67.29    3.60
  10  -8  -1   69.49    3.50
  10   8   1   70.99    4.10
   0  -9   1  249.38    5.70
   0   9  -1  251.67    5.60
   0   9   1  243.98    5.10
   0  -9  -1  236.78    5.50
   0   9   1  256.47    4.40
   0   9  -1  245.58    4.50
   0  -9   1  249.68    5.30
   0   9  -1  244.08    4.10
   0   9   1  247.58    5.40
   0  -9   1  239.48    5.50
   0  -9  -1  250.77    5.60
   0  -9  -1  245.88    5.20
  -1  -9  -1  104.29    3.40
  -1  -9  -1  104.49    3.00
  -1  -9  -1  103.19    3.20
   1   9  -1  110.99    3.40
  -1   9   1  108.69    3.20
   1  -9   1  101.79    3.30
   1   9  -1  107.29    3.40
   1   9  -1  102.49    2.60
  -1   9   1  106.79    2.40
  -1   9   1  103.49    2.80
   1  -9   1  107.09    3.40
   1  -9   1  103.69    3.00
  -1  -9   1  101.49    3.10
  -1  -9   1  100.19    3.40
   1   9   1  107.29    3.20
  -1  -9   1  105.99    3.10
   1  -9  -1  101.09    3.30
   1   9   1  102.09    2.60
   1  -9  -1  102.79    3.00
   1   9   1   98.19    2.90
   1  -9  -1  105.19    3.20
  -1   9  -1  106.69    3.40
  -1   9  -1  101.49    2.40
  -1   9  -1   99.59    2.10
   2   9  -1  327.57    7.00
  -2  -9  -1  323.97    7.00
   2  -9   1  315.17    6.90
  -2  -9  -1  329.87    6.40
   2   9  -1  318.67    6.20
  -2   9   1  338.27    6.10
   2  -9   1  333.17    6.80
  -2   9   1  334.67    6.00
   2  -9   1  317.87    6.50
   2  -9   1  330.27    6.50
  -2   9   1  332.47    6.80
   2   9  -1  321.27    6.90
  -2  -9  -1  321.47    6.70
  -2   9  -1  333.77    7.00
  -2  -9   1  326.97    6.60
   2   9   1  327.17    6.30
   2   9   1  336.77    6.60
   2  -9  -1  322.77    6.90
  -2  -9   1  338.37    7.20
  -2   9  -1  334.87    6.00
  -2  -9   1  330.77    6.50
   2   9   1  325.67    6.70
   2  -9  -1  318.07    6.60
   2  -9  -1  306.87    6.50
   2   9   1  331.57    7.00
   2  -9  -1  332.07    6.60
  -3  -9  -1  391.76    7.70
   3  -9   1  376.46    7.90
   3   9  -1  384.76    7.90
   3  -9   1  369.66    7.40
  -3  -9  -1  393.16    7.20
   3   9  -1  379.96    7.90
  -3   9   1  390.76    7.70
  -3   9   1  374.56    6.70
   3  -9   1  392.66    6.60
   3   9  -1  391.16    7.40
  -3   9   1  373.06    7.10
   3  -9   1  377.76    7.50
   3   9  -1  376.66    7.40
  -3  -9  -1  382.76    8.00
   3  -9   1  363.36    7.40
  -3   9  -1  371.06    7.10
   3  -9  -1  398.66    6.40
   3   9   1  371.76    7.30
   3  -9  -1  374.56    7.40
   3  -9  -1  365.96    7.80
  -3  -9   1  370.06    8.00
   3   9   1  377.86    7.90
  -3  -9   1  377.96    7.30
  -3  -9   1  387.96    7.40
   3  -9  -1  372.36    7.60
   3   9   1  381.86    7.70
  -3   9  -1  383.66    8.00
   3  -9  -1  379.16    7.20
   3   9   1  375.86    7.40
  -4  -9  -1  161.38    4.70
   4  -9   1  162.68    4.70
  -4  -9  -1  163.58    4.00
  -4   9   1  169.58    3.50
   4   9  -1  162.08    4.60
  -4  -9  -1  162.88    4.40
   4  -9   1  169.88    3.80
  -4   9   1  170.78    4.60
   4   9  -1  167.08    4.30
   4   9  -1  154.08    4.60
   4  -9   1  164.08    4.10
   4   9  -1  163.08    4.40
   4  -9   1  167.38    4.40
  -4   9   1  163.78    4.30
   4  -9   1  165.78    4.30
   4   9   1  161.48    4.50
   4   9   1  156.38    4.20
  -4   9  -1  158.58    4.20
   4   9   1  162.28    4.40
   4  -9  -1  167.08    3.70
  -4   9  -1  168.08    4.80
   4  -9  -1  175.28    5.30
   4  -9  -1  160.78    4.70
  -4  -9   1  159.68    4.80
  -4  -9   1  165.48    4.20
  -4  -9   1  167.08    4.20
   4   9   1  162.58    4.60
   4  -9  -1  159.88    4.40
   4  -9  -1  160.18    4.30
   5   9  -1   17.20    1.60
   5   9  -1   14.50    1.60
   5  -9   1   12.80    1.60
   5   9  -1   16.00    1.70
   5  -9   1   15.20    1.40
   5   9  -1   17.70    1.90
  -5  -9  -1   16.70    1.50
  -5  -9  -1   14.20    1.70
   5  -9   1   14.40    1.50
   5  -9   1   18.70    1.70
  -5   9   1   14.60    1.60
  -5  -9  -1   16.70    1.40
   5  -9  -1   17.10    1.60
  -5   9  -1   14.30    1.50
  -5  -9   1   16.00    1.50
  -5   9  -1   14.60    1.70
   5   9   1   16.90    1.60
  -5  -9   1   16.30    1.40
   5   9   1   15.10    1.60
   5   9   1   20.00    1.90
  -5  -9   1   19.60    2.00
   5  -9  -1   16.90    1.70
   5  -9  -1   16.20    1.30
   5  -9  -1   16.00    1.80
   5   9   1   14.10    1.50
   6   9  -1    3.70    1.20
   6  -9   1    4.60    1.30
  -6  -9  -1    6.10    1.40
   6  -9   1    5.40    1.10
  -6  -9  -1    4.60    1.00
  -6  -9  -1    4.90    0.90
   6   9  -1    2.30    1.00
   6  -9   1    4.40    1.00
   6   9  -1    2.70    1.20
   6  -9   1    4.20    1.10
  -6   9   1    4.70    1.30
   6   9  -1    8.30    1.40
  -6  -9   1    4.40    1.00
   6  -9  -1    4.80    1.10
   6  -9  -1    3.60    1.10
   6   9   1    4.30    1.10
   6   9   1    4.30    1.30
  -6   9  -1    2.80    1.10
   6  -9  -1    5.20    1.30
  -6  -9   1    4.60    1.30
   6  -9  -1    4.20    1.00
   6   9   1    4.40    1.00
  -6   9  -1    5.40    1.30
   6   9   1    5.60    1.20
   7  -9   1   12.40    1.60
   7   9  -1   12.70    1.50
  -7  -9  -1   11.50    1.90
   7  -9   1   13.70    1.60
   7  -9   1   15.30    1.70
   7   9  -1   13.10    1.90
   7   9  -1   12.10    1.80
   7  -9   1   14.20    2.00
  -7   9   1   15.80    2.00
   7  -9   1   15.70    1.90
   7   9  -1   14.30    1.90
  -7  -9  -1   14.60    2.40
   7   9   1   13.10    1.90
  -7  -9   1   11.90    1.80
   7   9   1   16.10    2.10
   7  -9  -1   16.60    2.00
   7  -9  -1   13.10    1.70
   7  -9  -1   11.10    1.60
  -7  -9   1   13.90    1.50
   7  -9  -1   15.30    1.70
   7  -9  -1   12.60    1.50
   7   9   1   13.30    1.70
  -7   9  -1   12.20    1.90
   7   9   1   11.90    1.50
   8   9  -1   10.20    1.90
   8   9  -1    7.90    2.10
   8  -9   1    7.30    1.50
  -8  -9  -1    7.50    1.60
  -8   9   1    4.00    1.50
   8   9  -1    6.20    1.50
   8   9  -1    6.10    1.70
   8  -9   1    7.50    1.70
   8  -9   1    7.00    1.50
   8  -9   1   11.40    1.60
   8  -9  -1    6.70    1.40
   8  -9  -1    5.50    1.40
  -8  -9   1    5.80    1.50
   8   9   1    8.00    1.40
   8   9   1    3.50    1.20
   8  -9  -1    8.10    1.70
   8  -9  -1    6.20    1.40
   8   9   1    8.20    1.70
   8  -9  -1    4.20    1.50
  -8   9  -1    6.50    1.70
   9  -9   1   30.70    2.90
   9   9  -1   38.90    2.90
   9  -9   1   35.10    2.80
   9   9  -1   34.00    3.00
   9  -9   1   39.00    2.70
   9   9   1   36.70    2.70
   9  -9  -1   36.90    2.50
  -9   9  -1   35.20    3.20
   9   9   1   35.50    3.10
   9  -9  -1   34.00    2.50
   9  -9  -1   36.70    3.20
   9  -9  -1   32.70    2.80
   0 -10   1   55.49    2.30
   0  10  -1   57.89    2.60
   0  10   1   60.69    1.80
   0 -10  -1   62.89    2.70
   0  10   1   63.99    2.40
   0 -10  -1   56.49    2.50
   0  10   1   65.39    2.60
   0 -10   1   57.59    2.50
   0 -10   1   58.89    2.70
   0  10  -1   58.69    1.80
   0 -10  -1   59.39    2.40
   1  10  -1  339.47    7.30
   1 -10   1  343.07    7.30
   1  10  -1  340.07    6.30
  -1 -10  -1  345.07    7.20
   1 -10   1  338.27    6.90
   1 -10   1  346.07    7.40
  -1 -10  -1  337.67    7.40
  -1  10   1  348.57    7.10
  -1  10   1  332.97    6.60
   1 -10   1  342.37    6.80
  -1 -10  -1  336.77    6.80
  -1  10  -1  350.06    7.40
  -1 -10   1  348.97    7.50
   1  10   1  347.07    6.30
   1 -10  -1  344.97    7.20
  -1 -10   1  343.57    7.10
   1  10   1  342.47    6.80
   1 -10  -1  328.47    7.30
   1  10   1  346.77    7.10
   1 -10  -1  341.17    6.90
  -1 -10   1  333.47    6.90
  -1  10  -1  348.87    5.90
   2  10  -1   22.50    1.80
   2  10  -1   20.40    1.60
  -2  10   1   20.70    1.30
   2 -10   1   20.70    1.70
   2  10  -1   20.40    1.80
   2 -10   1   20.00    1.80
   2 -10   1   20.80    1.50
  -2 -10  -1   23.60    1.90
  -2 -10  -1   19.10    1.50
  -2  10   1   22.40    1.80
  -2  10   1   21.90    1.30
   2 -10   1   22.10    1.60
   2  10  -1   22.40    1.40
  -2 -10  -1   19.60    1.70
  -2 -10   1   20.90    1.60
  -2 -10   1   25.30    2.00
   2  10   1   19.90    1.40
  -2  10  -1   19.50    1.20
  -2  10  -1   20.00    1.80
   2 -10  -1   23.10    1.80
  -2 -10   1   21.00    1.50
   2  10   1   22.40    1.40
   2 -10  -1   20.90    1.80
   2  10   1   20.60    1.70
   2 -10  -1   22.40    1.60
   2 -10  -1   21.70    1.60
  -3  10   1    9.80    1.10
  -3 -10  -1    7.80    1.10
   3  10  -1    6.50    1.20
  -3 -10  -1    7.80    1.40
   3  10  -1    8.90    1.10
   3  10  -1   12.00    1.60
  -3 -10  -1    9.90    1.20
   3 -10   1   10.30    1.30
   3  10  -1    8.20    1.20
   3 -10   1    7.50    1.10
   3 -10   1   10.30    1.50
  -3  10   1   10.10    1.00
   3 -10   1   10.10    1.30
  -3  10   1    8.70    1.20
  -3 -10   1   14.10    1.80
  -3 -10   1    8.20    1.20
   3 -10  -1    8.20    1.30
   3  10   1   10.20    1.20
   3  10   1   10.90    1.40
   3 -10  -1   12.30    1.40
   3 -10  -1    8.60    1.20
   3 -10  -1    9.50    1.20
   3  10   1    9.40    1.20
  -3  10  -1   11.00    1.50
   3  10   1   10.10    1.40
  -3 -10   1    9.90    1.20
  -3  10  -1    9.70    1.10
  -4 -10  -1   27.00    2.10
   4  10  -1   25.70    2.10
   4 -10   1   30.60    2.10
  -4 -10  -1   27.20    1.70
   4 -10   1   29.60    1.90
  -4  10   1   27.70    1.90
   4  10  -1   26.80    1.80
   4 -10   1   26.20    1.80
   4  10  -1   27.10    2.00
   4  10  -1   27.00    1.80
  -4 -10  -1   29.80    1.90
   4 -10   1   26.40    1.70
   4  10   1   25.70    2.00
   4  10   1   26.50    1.70
  -4  10  -1   25.40    1.80
   4 -10  -1   22.10    2.00
  -4  10  -1   26.90    2.10
  -4  10  -1   26.30    1.40
  -4 -10   1   27.30    1.80
   4 -10  -1   27.20    1.90
  -4 -10   1   24.30    2.10
   4 -10  -1   27.90    1.90
  -4 -10   1   28.80    1.80
   4  10   1   28.30    2.10
   4  10   1   27.30    1.80
   5 -10   1   11.20    1.20
   5 -10   1   11.10    1.40
   5  10  -1   11.80    1.60
   5  10  -1    9.60    1.40
  -5 -10  -1    9.50    1.20
   5 -10   1   10.30    1.40
  -5 -10  -1   12.80    1.50
  -5  10   1   10.60    1.40
  -5 -10  -1    8.50    1.60
   5  10  -1    9.00    1.50
   5  10  -1   10.10    1.60
   5 -10   1    9.90    1.60
  -5 -10   1   13.30    1.50
  -5 -10   1   10.70    1.60
   5  10   1   10.30    1.50
   5  10   1   10.60    1.40
   5  10   1   12.80    1.70
   5 -10  -1    9.20    1.50
   5 -10  -1   10.50    1.40
  -5  10  -1   11.10    1.50
  -5 -10   1   10.70    1.30
  -5  10  -1   10.30    1.60
   5 -10  -1   11.20    1.50
   5  10   1   14.50    1.80
  -6 -10  -1  116.79    3.90
   6 -10   1  109.39    3.80
   6 -10   1  114.89    4.00
  -6  10   1  107.19    4.10
   6 -10   1  120.09    3.60
   6  10  -1  113.09    4.30
   6  10  -1  112.19    4.10
   6  10  -1  111.39    3.70
   6 -10   1  116.39    4.50
   6  10  -1  118.69    4.50
  -6 -10  -1  111.29    3.70
  -6 -10  -1  111.39    4.30
   6  10   1  109.79    4.60
   6  10   1  118.29    4.30
   6 -10  -1  117.09    4.00
   6 -10  -1  115.29    4.10
  -6 -10   1  112.29    3.60
  -6  10  -1  111.09    4.10
  -6 -10   1  104.89    4.30
   6  10   1  117.19    3.80
   6  10   1  115.99    4.30
   6 -10  -1  111.19    4.30
   7 -10   1   70.19    3.40
   7 -10   1   69.99    3.00
  -7 -10  -1   67.29    3.60
   7  10  -1   71.59    3.60
  -7  10   1   68.19    3.60
   7  10  -1   70.69    3.50
   7  10  -1   74.49    3.80
   7  10  -1   71.49    3.10
   7 -10   1   67.59    3.10
   7 -10   1   69.89    3.70
   7 -10   1   68.19    3.10
   7 -10  -1   67.79    3.60
  -7 -10   1   71.49    3.30
   7 -10  -1   72.39    3.30
   7 -10  -1   72.59    3.30
   7  10   1   67.49    3.40
  -7  10  -1   72.09    3.60
   7  10   1   71.99    3.10
  -7 -10   1   63.69    3.60
   7 -10  -1   75.59    3.50
   7  10   1   72.09    3.50
   8  10  -1   72.99    3.20
   8 -10   1   74.29    3.30
   8  10  -1   80.39    4.00
  -8  10   1   72.69    4.00
   8 -10   1   72.09    3.20
   8  10  -1   73.19    3.80
   8 -10   1   72.09    3.90
   8 -10   1   71.39    3.60
   8  10  -1   79.59    4.10
  -8 -10  -1   74.69    3.90
  -8 -10   1   68.59    3.70
   8 -10  -1   74.49    3.70
   8  10   1   72.49    3.80
   8 -10  -1   69.19    3.90
   8 -10  -1   67.79    3.30
  -8  10  -1   76.19    4.00
   8 -10  -1   72.89    3.50
   8  10   1   71.29    3.70
   8  10   1   72.89    3.20
   9  10  -1   45.20    3.20
   9  10  -1   50.79    3.50
  -9 -10  -1   44.80    3.60
   9 -10   1   52.79    3.30
   9 -10   1   41.20    3.30
   9 -10   1   43.20    4.20
   9  10   1   44.20    3.10
   9 -10  -1   49.30    3.40
   9 -10  -1   49.80    3.30
   9  10   1   46.20    3.40
  -9  10  -1   45.80    3.50
   9 -10  -1   47.60    2.90
   0  11   1  233.18    5.30
   0 -11  -1  223.48    5.40
   0 -11  -1  222.38    5.70
   0 -11  -1  231.48    5.80
   0  11   1  233.78    5.60
   0  11  -1  230.98    5.80
   0 -11   1  230.18    5.50
   0  11  -1  222.78    5.20
   0 -11   1  237.08    5.80
   0 -11   1  231.98    5.90
  -1  11   1  128.99    3.90
  -1 -11  -1  126.89    3.70
   1 -11   1  132.29    3.70
   1  11  -1  124.59    3.20
   1 -11   1  132.59    4.10
   1 -11   1  123.29    4.10
   1  11  -1  122.59    3.70
  -1 -11  -1  123.79    4.00
   1 -11   1  127.19    3.80
  -1 -11  -1  127.99    4.20
   1  11  -1  128.49    4.10
  -1  11   1  123.59    3.50
  -1 -11   1  128.99    3.80
   1  11   1  133.79    4.00
  -1  11  -1  129.19    4.10
   1 -11  -1  127.59    4.10
   1 -11  -1  125.49    4.10
   1  11   1  132.59    3.80
  -1 -11   1  125.19    4.20
  -1 -11   1  132.69    4.00
   1 -11  -1  124.29    3.80
   1  11   1  134.59    3.20
  -2  11   1   39.50    1.80
  -2 -11  -1   36.50    2.40
   2  11  -1   39.10    2.40
  -2 -11  -1   37.30    2.20
  -2 -11  -1   37.50    2.00
   2 -11   1   39.70    2.20
   2 -11   1   41.00    2.30
   2 -11   1   41.20    2.10
   2 -11   1   39.70    2.30
   2  11  -1   35.10    2.20
   2  11  -1   41.00    1.90
   2  11  -1   34.30    2.00
   2  11   1   40.20    1.80
   2 -11  -1   36.70    2.20
   2 -11  -1   39.10    2.20
   2 -11  -1   35.70    2.30
  -2 -11   1   40.70    2.10
  -2 -11   1   39.60    2.60
   2  11   1   39.30    2.30
  -2  11  -1   41.10    2.40
  -2  11  -1   38.60    2.50
   2 -11  -1   39.70    2.10
  -2 -11   1   37.30    2.10
   2  11   1   42.90    2.20
  -3  11   1  108.19    3.50
   3 -11   1  104.29    3.60
  -3 -11  -1  105.39    3.30
   3  11  -1  103.49    3.90
   3 -11   1  104.39    3.90
   3 -11   1  103.09    3.50
   3  11  -1  105.59    3.90
   3  11  -1  106.79    3.50
   3  11  -1  102.59    3.30
  -3 -11  -1   96.99    3.80
  -3  11   1  107.59    3.00
   3 -11   1  110.59    3.60
  -3 -11  -1   98.39    3.60
   3 -11  -1  107.69    3.60
  -3  11  -1  107.49    3.10
   3  11   1  103.99    3.50
   3 -11  -1  109.79    4.00
   3  11   1  104.89    3.70
  -3 -11   1  108.89    3.50
  -3 -11   1  112.29    3.60
   3 -11  -1  102.79    3.50
  -3  11  -1  112.09    4.00
   3 -11  -1  113.99    3.70
  -3 -11   1  104.59    4.00
   3  11   1  102.99    3.80
   3  11   1  108.59    3.40
  -3  11  -1  106.49    3.10
   4  11  -1    1.50    0.80
   4 -11   1    1.80    1.10
   4 -11   1    0.90    0.80
  -4  11   1    0.30    0.70
   4 -11   1    1.70    0.90
   4  11  -1    1.70    0.90
   4  11  -1    0.90    0.90
   4 -11   1    1.50    1.20
   4  11  -1    1.40    1.00
  -4 -11  -1    1.10    0.80
  -4 -11  -1    2.00    0.80
  -4 -11  -1    2.00    1.10
   4 -11  -1    0.50    0.90
   4  11   1    2.30    1.00
  -4 -11   1    1.10    0.80
   4  11   1    0.60    0.80
   4 -11  -1    2.20    1.00
  -4 -11   1    1.60    1.10
   4  11   1    1.50    0.80
  -4  11  -1    1.70    1.00
  -4 -11   1    1.50    0.80
  -4  11  -1    3.00    0.90
   4  11   1    2.50    1.20
   4 -11  -1    1.00    0.90
  -4  11  -1    1.10    0.60
  -5 -11  -1   29.50    2.60
   5  11  -1   31.20    2.50
   5 -11   1   29.30    2.10
  -5 -11  -1   30.50    2.10
  -5  11   1   29.40    2.20
   5  11  -1   32.30    2.40
   5 -11   1   37.60    2.30
  -5 -11  -1   30.30    2.00
   5  11  -1   30.10    2.10
   5 -11   1   32.20    2.60
   5  11  -1   32.20    2.20
   5 -11  -1   31.90    2.20
   5  11   1   28.30    2.10
   5  11   1   30.30    2.30
   5  11   1   32.80    2.20
   5 -11  -1   32.40    2.30
  -5  11  -1   31.50    2.10
  -5 -11   1   31.00    2.60
   5 -11  -1   31.90    2.50
  -5 -11   1   30.20    2.00
  -5 -11   1   31.70    2.10
   6 -11   1  253.47    6.50
   6  11  -1  251.77    6.20
   6  11  -1  248.78    6.90
  -6  11   1  241.88    6.50
   6 -11   1  236.88    6.90
  -6 -11  -1  241.88    7.00
  -6 -11  -1  255.87    6.30
   6  11  -1  246.28    7.00
   6  11  -1  253.67    6.70
   6 -11   1  252.37    6.30
   6  11   1  251.37    6.30
   6  11   1  236.08    6.50
   6  11   1  246.08    6.80
   6 -11  -1  240.28    6.50
  -6 -11   1  240.78    7.00
  -6  11  -1  246.28    6.50
  -6 -11   1  251.37    6.00
   6 -11  -1  255.77    6.40
   6 -11  -1  240.58    6.90
  -7 -11  -1  153.78    5.60
   7  11  -1  162.88    5.60
   7 -11   1  152.48    5.20
   7 -11   1  157.78    5.70
   7  11  -1  170.98    5.00
   7  11  -1  162.68    5.50
   7  11  -1  150.58    7.10
   7 -11   1  172.88    5.60
  -7  11   1  165.18    5.60
   7 -11   1  166.58    5.00
   7 -11  -1  163.78    5.30
   7 -11  -1  161.08    5.60
   7  11   1  156.68    5.40
   7  11   1  161.08    4.90
  -7  11  -1  158.08    5.40
   7  11   1  161.98    5.50
  -7 -11   1  161.98    5.70
   7 -11  -1  160.88    5.40
   7 -11  -1  161.88    5.10
   8 -11   1   16.10    2.00
   8  11  -1   19.40    2.00
   8  11  -1   18.00    2.20
   8 -11   1   20.50    2.50
   8 -11   1   17.50    2.10
   8  11  -1   15.50    2.10
  -8 -11  -1   16.20    2.40
   8 -11  -1   18.90    2.40
   8 -11  -1   19.40    2.20
   8  11   1   21.00    2.50
   8  11   1   20.00    2.10
  -8  11  -1   20.20    2.60
   8  11   1   16.70    2.20
   8 -11  -1   19.40    2.10
  -8 -11   1   15.30    2.40
   8 -11  -1   16.80    2.40
  -9 -11  -1   -2.20    1.20
   9  11  -1    1.20    1.30
   9 -11  -1    2.50    1.50
   9  11   1    2.70    1.30
   9  11   1    1.30    1.30
   9 -11  -1   -0.20    1.10
   0 -12  -1    2.90    1.00
   0 -12  -1    2.60    1.10
   0 -12   1    3.80    1.10
   0 -12   1    3.10    1.30
   0  12   1    4.50    1.00
   0  12  -1    5.00    1.10
   0 -12  -1    3.30    1.00
   0  12  -1    2.50    1.00
   0 -12   1    2.50    0.90
  -1 -12  -1  108.29    3.90
   1 -12   1  108.59    3.60
   1 -12   1  110.99    4.00
  -1  12   1  107.39    3.30
   1  12  -1  105.69    3.50
  -1 -12  -1  106.79    3.60
  -1 -12  -1  112.09    4.10
   1  12  -1  113.09    4.00
   1 -12   1  110.59    4.00
   1 -12   1  110.79    3.50
   1 -12  -1  105.59    3.90
   1 -12  -1  111.89    3.70
   1 -12  -1  109.89    3.60
  -1 -12   1  104.69    3.50
  -1  12  -1  110.29    4.00
   1 -12  -1  105.69    3.90
  -1 -12   1  111.59    4.10
  -1  12  -1  111.19    3.50
   1  12   1  106.09    3.50
  -1 -12   1  108.09    3.80
   2 -12   1   52.19    2.60
  -2 -12  -1   53.59    2.70
  -2 -12  -1   51.79    2.50
   2 -12   1   53.69    2.50
  -2  12   1   55.99    2.30
   2  12  -1   54.69    2.20
  -2 -12  -1   49.99    2.80
   2  12  -1   54.39    2.50
   2  12  -1   55.79    3.00
   2 -12   1   52.19    2.80
   2 -12   1   58.99    3.00
  -2 -12   1   55.49    2.70
   2 -12  -1   48.20    2.60
   2 -12  -1   54.49    2.60
   2  12   1   56.29    2.20
   2  12   1   53.19    2.50
  -2  12  -1   51.79    2.30
  -2 -12   1   47.50    2.80
  -2 -12   1   51.69    2.60
  -2  12  -1   59.89    3.00
   2 -12  -1   57.19    3.00
   2 -12  -1   55.59    2.60
   3 -12   1    4.50    1.10
  -3 -12  -1    2.00    1.00
   3 -12   1    3.40    1.20
   3  12  -1    2.30    0.90
  -3  12   1    4.60    0.90
  -3 -12  -1    3.30    1.00
   3 -12   1    3.60    1.00
   3  12  -1    2.70    1.20
   3  12  -1    2.20    1.10
  -3 -12  -1    4.20    1.30
   3  12  -1    3.20    0.90
   3 -12   1    2.00    1.10
  -3 -12   1    2.40    1.30
   3  12   1    5.10    1.10
   3  12   1    3.60    0.90
   3 -12  -1    3.00    1.00
  -3 -12   1    4.70    1.20
  -3 -12   1    4.50    1.10
  -3  12  -1    3.90    0.90
   3 -12  -1    4.60    1.10
   3 -12  -1    3.30    1.00
   3 -12  -1    2.80    1.10
   4  12  -1   48.00    2.80
  -4 -12  -1   48.40    3.10
   4  12  -1   55.49    2.60
   4  12  -1   52.19    3.10
   4  12  -1   50.69    2.60
   4 -12   1   49.80    2.70
  -4 -12  -1   49.30    2.70
  -4 -12  -1   48.10    2.50
   4 -12   1   49.90    2.60
   4 -12   1   45.20    2.80
   4  12   1   52.19    2.90
  -4 -12   1   51.49    2.60
   4  12   1   51.39    2.60
   4 -12  -1   51.19    2.80
   4  12   1   50.89    2.50
   4 -12  -1   48.20    2.60
  -4 -12   1   49.40    2.60
   4 -12  -1   52.39    3.00
  -4 -12   1   53.69    3.30
  -5 -12  -1   56.79    2.90
  -5 -12  -1   65.79    2.90
  -5 -12  -1   59.29    3.50
   5 -12   1   62.99    3.00
   5 -12   1   57.79    3.30
   5  12  -1   57.39    3.50
   5  12  -1   58.49    3.30
   5 -12   1   66.69    3.10
   5  12  -1   61.29    3.10
   5  12  -1   60.19    3.00
  -5  12  -1   59.29    2.90
  -5 -12   1   61.39    3.60
   5  12   1   56.79    2.80
   5  12   1   55.79    3.20
  -5 -12   1   59.29    2.80
   5  12   1   62.19    3.00
   5 -12  -1   56.49    3.10
   5 -12  -1   64.99    3.10
  -5 -12   1   58.69    2.80
   5 -12  -1   54.39    3.30
  -6 -12  -1    2.00    1.00
   6 -12   1    4.00    1.40
   6 -12   1    3.00    1.30
   6  12  -1    1.70    1.20
   6  12  -1    2.70    1.10
   6  12  -1    2.10    1.10
   6 -12   1    2.90    1.20
  -6  12   1    3.80    1.20
  -6 -12  -1    1.00    1.40
   6 -12  -1    2.10    1.10
  -6 -12   1    1.20    1.40
   6  12   1    1.50    1.10
  -6  12  -1    1.80    1.20
  -6 -12   1    1.40    1.00
   6 -12  -1    1.90    1.30
   6 -12  -1   -1.40    1.10
   6  12   1    0.10    1.00
   6  12   1    1.90    1.10
   7 -12   1   11.60    2.00
  -7 -12  -1    6.90    1.90
   7 -12   1   13.20    1.80
   7  12  -1   12.00    1.80
   7 -12   1   14.90    2.00
   7  12  -1   10.70    1.90
   7  12  -1   12.70    1.90
   7 -12  -1   11.40    2.00
   7 -12  -1   10.00    1.80
   7 -12  -1   18.30    2.20
  -7  12  -1   10.50    1.90
   7  12   1   13.10    2.00
   7  12   1   12.40    1.80
  -7 -12   1   11.30    2.20
   7  12   1   11.40    1.90
   7 -12  -1   10.10    1.80
   8  12  -1   17.60    2.00
   8  12  -1   22.30    2.60
   8  12  -1   22.10    2.60
   8 -12   1   18.80    2.10
   8 -12   1   16.00    2.50
  -8 -12  -1   16.30    2.50
   8 -12   1   20.60    2.30
   8 -12  -1   21.20    2.30
   8  12   1   17.60    2.00
   8 -12  -1   21.70    2.50
   8  12   1   24.60    2.80
  -8 -12   1   17.10    2.50
   8  12   1   20.10    2.40
   8 -12  -1   20.10    2.60
  -8  12  -1   22.40    2.70
   0 -13   1  269.17    6.90
   0  13   1  276.97    6.40
   0 -13   1  287.27    7.30
   0 -13  -1  281.67    7.10
   0  13  -1  279.37    6.50
   0 -13  -1  291.77    7.30
   0 -13  -1  275.07    6.60
   0 -13   1  285.57    6.70
  -1 -13  -1    6.70    1.50
   1 -13   1    5.00    1.40
  -1  13   1    6.20    1.10
   1 -13   1    5.50    1.10
   1 -13   1    5.30    1.30
  -1 -13  -1    4.20    1.10
   1  13  -1    6.90    1.30
   1 -13   1    4.80    1.40
  -1 -13  -1    4.70    1.20
  -1 -13   1    6.50    1.20
   1 -13  -1    4.40    1.20
  -1  13  -1    4.00    1.00
  -1 -13   1    5.40    1.20
   1  13   1    4.70    1.10
  -1 -13   1    5.60    1.50
   1 -13  -1    5.00    1.30
   1 -13  -1    6.10    1.50
   1 -13  -1    4.20    1.10
   2  13  -1   14.60    1.70
  -2 -13  -1   13.70    1.80
  -2 -13  -1   10.60    1.50
  -2  13   1   11.60    1.30
  -2 -13  -1   13.40    2.00
   2 -13   1   15.30    1.70
   2 -13   1   12.10    1.70
   2 -13   1   11.70    1.70
   2 -13   1   10.40    1.50
   2 -13  -1   11.90    1.80
  -2 -13   1   12.10    1.90
  -2 -13   1   14.50    1.70
   2 -13  -1   11.40    1.50
  -2  13  -1   16.40    1.60
   2 -13  -1   10.50    1.50
   2  13   1   13.20    1.70
   2 -13  -1   10.70    1.70
  -2 -13   1   12.30    1.60
   3  13  -1  126.09    3.90
  -3 -13  -1  128.09    4.40
   3  13  -1  121.39    4.10
  -3 -13  -1  127.69    4.90
  -3 -13  -1  123.89    4.00
   3 -13   1  121.49    4.20
   3 -13   1  122.79    4.10
  -3  13   1  128.29    3.60
   3 -13   1  133.39    4.80
   3  13  -1  121.29    4.60
   3 -13   1  119.69    4.30
  -3 -13   1  132.09    4.20
   3 -13  -1  126.89    4.30
  -3  13  -1  121.59    3.70
   3  13   1  126.49    4.20
   3 -13  -1  129.79    4.40
  -3 -13   1  122.09    4.80
   3 -13  -1  124.39    4.70
  -3 -13   1  123.89    4.20
   3  13   1  124.99    3.80
  -4 -13  -1    9.50    1.70
   4 -13   1   11.90    1.80
   4  13  -1   11.70    1.60
   4 -13   1   11.80    1.70
   4  13  -1   14.70    1.80
  -4 -13  -1   10.40    1.50
  -4 -13  -1    9.20    1.50
   4 -13   1    8.60    1.40
   4  13  -1   13.30    1.90
   4 -13  -1   11.70    1.90
  -4 -13   1   14.70    1.80
  -4 -13   1   10.90    1.50
  -4 -13   1   10.60    2.00
   4  13   1   12.40    1.50
   4  13   1   12.60    1.60
   4 -13  -1   11.30    1.70
   4 -13  -1   11.40    1.60
  -5 -13  -1   22.00    2.00
   5  13  -1   21.00    2.10
  -5 -13  -1   20.10    2.50
   5  13  -1   22.20    2.40
   5 -13   1   20.50    2.50
   5 -13   1   23.20    2.20
   5  13  -1   24.00    2.20
  -5 -13  -1   22.60    2.20
   5 -13   1   26.40    2.30
   5  13   1   21.30    2.10
   5 -13  -1   22.10    2.30
   5 -13  -1   22.00    2.40
   5  13   1   26.00    2.20
   5 -13  -1   26.60    2.50
  -5 -13   1   20.10    2.50
  -5 -13   1   20.90    2.00
   5  13   1   22.20    2.40
   6  13  -1    1.40    1.10
   6 -13   1    0.90    1.30
   6 -13   1    0.90    1.10
   6  13  -1    1.90    1.10
   6 -13   1    0.50    1.10
   6  13  -1    1.30    1.30
  -6 -13  -1    0.70    1.40
   6 -13  -1   -1.10    1.10
   6  13   1    2.30    1.10
   6 -13  -1   -1.00    1.20
  -6 -13   1   -0.90    1.20
   6  13   1    0.10    1.00
   6  13   1    1.00    1.20
   6 -13  -1   -0.20    1.10
  -6 -13   1    0.50    1.00
   7  13  -1   22.10    2.60
   7 -13   1   23.40    2.70
   7  13  -1   27.30    2.50
   7 -13   1   25.30    2.50
  -7 -13  -1   23.40    2.80
   7  13  -1   20.10    2.40
   7 -13   1   28.10    2.60
   7  13   1   21.20    2.50
  -7 -13   1   22.30    2.90
   7  13   1   25.90    2.70
   7  13   1   24.50    2.30
   7 -13  -1   21.00    2.40
   7 -13  -1   24.70    2.80
   7 -13  -1   22.80    2.40
   0 -14   1  133.09    4.20
   0 -14  -1  135.49    4.90
   0 -14   1  134.59    4.50
   0 -14   1  126.39    4.60
   0  14   1  129.69    4.10
   0 -14   1  125.79    4.90
   0 -14  -1  133.69    4.80
   0 -14  -1  126.59    4.40
   0  14  -1  127.59    4.20
   1 -14   1   44.40    2.50
  -1 -14  -1   46.80    3.10
   1  14  -1   50.69    2.70
   1 -14   1   44.10    2.80
   1 -14   1   51.59    3.10
  -1 -14  -1   46.50    2.70
   1 -14   1   45.70    2.60
  -1  14   1   44.80    2.40
  -1 -14  -1   53.29    3.10
  -1 -14   1   46.50    2.70
   1  14   1   47.90    2.60
   1 -14  -1   51.49    3.00
   1 -14  -1   48.50    2.70
   1 -14  -1   46.40    3.00
  -1  14  -1   45.70    2.50
  -1 -14   1   45.00    3.10
  -1 -14   1   49.20    2.90
   1 -14  -1   44.30    2.60
  -2 -14  -1   37.30    2.50
   2 -14   1   40.90    2.90
  -2  14   1   42.20    2.20
  -2 -14  -1   40.00    3.00
   2 -14   1   38.60    2.80
   2 -14   1   42.50    2.70
   2  14  -1   42.70    2.40
   2 -14   1   44.20    2.50
  -2 -14  -1   40.50    2.70
  -2 -14   1   42.40    2.60
   2  14   1   42.80    2.50
   2 -14  -1   41.40    3.00
   2 -14  -1   44.90    3.00
  -2  14  -1   39.80    2.30
   2 -14  -1   43.90    2.70
  -2 -14   1   37.80    3.00
  -2 -14   1   41.80    2.70
   2 -14  -1   42.10    2.70
   3  14  -1    6.40    1.30
   3 -14   1    5.50    1.30
  -3  14   1    8.20    1.20
  -3 -14  -1    4.00    1.20
   3 -14   1    2.70    1.40
  -3 -14  -1    8.10    1.50
   3 -14   1    4.30    1.30
  -3 -14  -1    3.90    1.40
   3 -14  -1    4.20    1.40
   3  14   1    6.70    1.40
  -3  14  -1    7.20    1.10
  -3 -14   1    7.50    1.50
  -3 -14   1    8.00    1.50
   3 -14  -1    6.30    1.50
  -3 -14   1    8.50    1.90
   3 -14  -1    6.00    1.40
  -4 -14  -1   25.60    2.40
   4  14  -1   20.70    2.50
  -4 -14  -1   24.10    2.70
   4 -14   1   17.90    2.30
   4  14  -1   21.40    2.20
   4 -14   1   27.30    2.50
   4  14  -1   23.10    1.90
   4 -14   1   25.90    2.20
  -4 -14  -1   20.80    2.00
  -4 -14   1   24.70    2.80
   4  14   1   21.20    2.20
  -4 -14   1   21.70    2.20
  -4 -14   1   21.50    2.20
   4 -14  -1   21.00    2.20
   4 -14  -1   21.80    2.30
   4 -14  -1   20.70    2.50
   5 -14   1   24.40    2.50
  -5 -14  -1   17.70    2.10
   5 -14   1   18.00    2.50
   5  14  -1   22.10    2.20
   5  14  -1   19.10    2.30
  -5 -14  -1   23.00    2.80
  -5 -14  -1   19.90    2.00
   5 -14   1   22.40    2.30
   5  14  -1   19.50    2.20
   5  14   1   19.50    2.20
   5 -14  -1   20.80    2.20
   5 -14  -1   15.40    2.30
  -5 -14   1   18.80    2.10
   5 -14  -1   17.90    2.20
  -5 -14   1   20.60    2.80
   5  14   1   19.80    2.10
   6  14  -1    7.10    1.60
   6 -14   1    6.80    1.70
   6  14  -1    7.60    1.80
  -6 -14  -1    6.50    2.00
   6  14  -1    7.70    1.60
   6 -14   1    7.70    1.60
   6 -14   1    5.70    1.80
   6 -14  -1    6.20    1.70
   6 -14  -1    4.10    1.40
   6  14   1    5.40    1.40
   6 -14  -1    7.90    1.80
   6  14   1    4.00    1.40
  -6 -14   1    6.50    1.50
  -6 -14   1    2.90    1.70
   7  14  -1  111.19    4.50
   7  14  -1  120.19    4.90
   7 -14   1  116.69    5.00
   7 -14   1  115.99    4.60
   7  14   1  123.29    4.90
   7  14   1  117.69    4.60
   7 -14  -1  120.09    4.70
   0 -15  -1  280.07    7.70
   0 -15  -1  283.87    7.80
   0 -15   1  279.37    7.90
   0  15   1  279.47    6.80
   0 -15   1  283.97    7.00
   0 -15   1  276.67    7.60
   0 -15  -1  284.87    7.20
   0  15  -1  270.97    6.80
   0 -15   1  290.07    7.30
   1 -15   1  183.28    5.30
  -1 -15  -1  168.08    6.00
  -1  15   1  171.58    5.00
   1 -15   1  169.18    5.90
  -1 -15  -1  164.88    5.60
   1 -15   1  182.28    5.50
   1 -15   1  172.08    5.80
  -1 -15  -1  181.18    5.40
   1  15  -1  168.88    5.10
  -1 -15   1  184.28    5.50
   1  15   1  176.28    5.20
   1 -15  -1  173.78    5.40
  -1  15  -1  178.78    5.10
  -1 -15   1  185.88    6.30
  -1 -15   1  181.28    5.80
   1 -15  -1  171.98    5.70
   1 -15  -1  172.78    5.50
   1 -15  -1  170.68    5.80
  -2 -15  -1   27.60    2.40
  -2  15   1   34.20    2.20
   2 -15   1   37.00    2.70
   2 -15   1   33.90    2.90
  -2 -15  -1   31.60    2.60
   2 -15   1   31.70    2.40
   2  15  -1   35.50    2.50
   2 -15   1   30.60    2.90
  -2 -15  -1   33.00    3.10
   2 -15  -1   30.10    2.80
   2 -15  -1   34.50    2.50
  -2 -15   1   35.50    3.10
  -2 -15   1   28.90    2.50
  -2 -15   1   30.30    2.50
   2 -15  -1   30.60    2.50
   2 -15  -1   32.50    2.70
   2  15   1   30.00    2.40
  -2  15  -1   35.10    2.20
   3 -15   1   24.60    2.20
  -3 -15  -1   22.70    2.40
  -3 -15  -1   26.10    2.90
   3 -15   1   28.60    2.60
  -3 -15  -1   22.80    2.20
   3  15  -1   22.30    2.30
   3 -15   1   18.50    2.40
   3 -15  -1   26.30    2.60
  -3  15  -1   26.10    2.70
   3 -15  -1   23.60    2.60
  -3 -15   1   25.30    2.30
  -3 -15   1   24.70    2.40
   3  15   1   22.20    2.30
   3 -15  -1   27.50    2.50
  -3 -15   1   22.30    2.70
   4 -15   1   19.50    2.50
   4 -15   1   18.10    2.20
  -4 -15  -1   18.70    2.10
  -4 -15  -1   19.90    2.30
   4 -15   1   19.90    2.10
   4  15  -1   18.90    2.10
  -4 -15  -1   14.10    2.30
   4 -15  -1   20.10    2.30
  -4 -15   1   18.20    2.60
   4 -15  -1   23.80    2.70
   4  15   1   17.40    2.10
   4 -15  -1   23.90    2.50
  -4 -15   1   18.20    2.10
   5 -15   1   32.10    2.60
   5  15  -1   28.90    2.70
   5 -15   1   29.90    3.20
  -5 -15  -1   29.70    3.20
   5 -15   1   30.60    2.60
   5  15   1   24.00    2.40
   5 -15  -1   28.00    2.90
  -5 -15   1   26.90    3.10
   5 -15  -1   32.50    3.00
   5 -15  -1   26.30    2.60
  -5 -15   1   29.30    2.50
   6  15  -1   12.70    2.00
   6 -15   1   16.00    2.10
   6 -15   1   14.70    2.20
   6  15  -1   12.90    2.10
   6 -15  -1   14.90    2.20
   6  15   1   14.90    2.10
   6  15   1   14.80    2.10
   0 -16   1  131.79    5.50
   0 -16   1  144.69    5.10
   0 -16   1  135.99    5.20
   0 -16   1  140.39    4.70
   0 -16  -1  131.59    5.30
   0 -16  -1  131.89    4.90
   0  16  -1  139.09    4.70
   0 -16  -1  132.89    4.80
   0  16   1  139.99    4.70
   0 -16  -1  137.89    5.40
  -1 -16  -1   71.19    3.60
   1 -16   1   68.49    3.90
  -1  16   1   69.39    3.20
   1  16  -1   64.39    3.30
  -1 -16  -1   71.69    3.90
   1 -16   1   65.89    3.40
   1 -16   1   71.39    3.30
   1 -16   1   71.19    3.90
  -1 -16  -1   69.39    4.10
   1 -16  -1   69.79    4.00
   1  16   1   65.49    3.30
  -1 -16   1   73.29    3.80
  -1 -16   1   64.59    4.00
  -1 -16   1   71.59    3.60
   1 -16  -1   69.59    3.40
  -1  16  -1   71.99    3.30
   1 -16  -1   69.39    3.60
   1 -16  -1   66.39    3.90
  -2 -16  -1   50.89    3.70
  -2  16   1   50.29    2.70
   2 -16   1   54.89    3.00
   2 -16   1   60.89    3.40
   2  16  -1   53.59    3.10
  -2 -16  -1   51.29    3.40
  -2 -16  -1   54.59    3.10
   2 -16   1   50.69    3.50
   2 -16   1   62.59    3.60
  -2 -16   1   53.79    3.30
   2  16   1   53.39    3.10
  -2 -16   1   52.99    3.30
   2 -16  -1   58.59    3.30
  -2 -16   1   45.50    3.60
   2 -16  -1   56.19    3.30
   2 -16  -1   54.89    3.60
  -2  16  -1   56.19    2.80
   3 -16   1   33.20    2.60
  -3 -16  -1   33.20    3.40
  -3 -16  -1   32.20    2.70
   3 -16   1   35.40    2.80
   3 -16   1   27.10    2.90
   3  16  -1   31.40    2.80
  -3 -16  -1   33.80    2.80
  -3 -16   1   27.30    2.60
  -3 -16   1   27.50    3.00
   3 -16  -1   31.60    2.80
   3 -16  -1   27.10    2.90
   3  16   1   31.50    2.60
   3 -16  -1   36.00    2.70
  -3 -16   1   27.30    2.50
  -4 -16  -1   10.70    2.40
   4  16  -1   17.40    2.10
   4 -16   1   17.00    2.30
   4 -16   1   17.80    2.10
   4 -16   1   16.70    2.50
  -4 -16  -1   13.90    2.10
  -4 -16  -1   17.30    2.10
   4 -16  -1   17.40    2.30
   4 -16  -1   15.80    2.40
   4  16   1   16.50    2.10
   4 -16  -1   18.30    2.40
  -4 -16   1   18.70    2.80
  -4 -16   1   17.70    2.20
   5 -16   1   16.90    2.30
   5  16  -1   17.10    2.30
   5  16   1   13.70    2.00
   5 -16  -1   15.00    2.20
  -5 -16   1   16.50    2.10
   0 -17  -1   83.59    3.90
   0 -17  -1   75.59    4.30
   0 -17  -1   79.19    4.20
   0  17  -1   82.89    3.70
   0 -17   1   76.19    4.10
   0 -17  -1   93.09    4.20
   0 -17   1   77.79    4.40
   0 -17   1   80.79    4.00
   0  17   1   82.99    3.70
   1  17  -1   21.50    2.30
  -1 -17  -1   17.00    2.20
  -1  17   1   19.60    2.10
  -1 -17  -1   12.50    2.10
   1 -17   1   23.10    2.90
   1 -17   1   19.90    2.40
   1 -17   1   15.90    2.40
  -1 -17  -1   11.80    2.30
   1 -17  -1   16.40    2.10
  -1 -17   1   11.70    2.40
  -1  17  -1   14.60    1.90
   1 -17  -1   17.70    2.30
  -1 -17   1   15.80    2.10
   1 -17  -1   14.40    2.40
  -1 -17   1   17.60    2.40
   1  17   1   18.70    2.10
   1 -17  -1   15.80    2.40
  -2 -17  -1   25.60    2.80
  -2 -17  -1   24.40    3.10
   2  17  -1   27.30    2.60
   2 -17   1   27.10    3.40
   2 -17   1   29.50    2.90
  -2 -17  -1   30.40    2.60
  -2  17   1   28.50    3.10
   2 -17  -1   30.80    4.60
  -2  17  -1   24.50    2.20
   2 -17  -1   27.80    2.80
  -2 -17   1   31.10    2.80
  -2 -17   1   24.60    3.40
   2  17   1   25.90    2.60
   2 -17  -1   26.40    2.60
  -2 -17   1   33.30    2.80
   3 -17   1    0.30    1.30
   3  17  -1    0.60    1.20
  -3 -17  -1    4.10    1.60
  -3 -17  -1    2.40    1.40
   3 -17  -1    5.20    1.70
  -3 -17   1    2.90    1.40
   3 -17  -1    4.20    1.50
   3  17   1    3.70    1.30
   0   0  -2  533.75    7.80
   0   0  -2  528.45    7.70
   0   0   2  538.95    7.90
   0   0   2  532.65    7.70
   1   0   2 6502.35   89.19
  -1   0  -2 6031.90   89.59
   1   0  -2 6130.39   88.79
   1   0   2 6081.69   89.29
  -1   0  -2 6166.48   89.79
   1   0  -2 6199.18   87.29
   1   0   2 6317.97   90.49
   1   0   2 6247.38   88.99
  -1   0   2 5911.91   88.69
   1   0  -2 6010.60   89.69
  -1   0   2 6431.16   89.09
   1   0  -2 6096.49   88.99
   1   0   2 6064.69   89.59
   1   0  -2 6241.28   90.09
  -2   0   2    5.40    0.40
   2   0   2    4.60    0.60
   2   0  -2    6.10    0.30
  -2   0  -2    5.40    0.60
   2   0  -2    6.50    0.60
   2   0  -2    7.10    0.60
  -2   0  -2    7.60    0.60
   2   0   2    5.80    0.50
   2   0   2    6.00    0.50
   2   0  -2    5.50    0.50
   2   0  -2    7.60    0.60
   2   0   2    5.70    0.40
   2   0   2    4.90    0.50
   2   0   2    5.10    0.20
   3   0  -2   96.39    2.40
   3   0   2   97.79    2.30
   3   0  -2   99.29    1.90
  -3   0  -2   96.19    2.30
   3   0   2   99.49    2.00
   3   0  -2   97.79    2.30
   3   0  -2   97.39    2.30
  -3   0  -2   94.29    2.50
   3   0  -2   97.79    2.40
   3   0   2   99.89    2.00
   3   0  -2   97.39    2.30
   3   0   2   95.69    2.30
   3   0   2   97.79    2.30
   3   0  -2   96.09    2.30
  -3   0   2  100.99    1.80
   3   0   2  101.29    2.50
  -4   0   2   15.20    0.70
   4   0   2   15.00    1.00
  -4   0   2   17.80    1.30
   4   0  -2   15.40    1.00
   4   0  -2   15.80    1.00
   4   0  -2   17.50    0.80
   4   0   2   17.90    0.90
   4   0  -2   16.60    1.00
   4   0   2   16.00    1.10
   4   0   2   14.50    0.70
   4   0  -2   15.70    0.50
  -4   0  -2   15.80    1.20
  -4   0  -2   15.90    1.00
   4   0   2   17.10    1.10
   4   0  -2   16.90    1.10
   4   0   2   17.70    1.00
  -5   0  -2  149.09    3.20
   5   0  -2  148.49    3.70
   5   0  -2  142.29    3.40
   5   0  -2  147.99    3.50
   5   0   2  137.29    3.40
   5   0  -2  142.89    3.60
   5   0   2  146.09    3.50
   5   0   2  137.39    3.60
  -5   0   2  144.29    2.70
  -5   0   2  147.89    3.90
   5   0   2  147.19    2.80
   5   0   2  144.49    3.60
   5   0  -2  141.89    3.60
   5   0  -2  143.79    3.10
  -5   0  -2  146.59    3.60
   5   0  -2  147.79    2.30
   5   0   2  148.49    3.20
   5   0   2  139.99    3.70
   6   0   2  101.19    3.30
   6   0  -2  101.29    3.20
  -6   0  -2   98.59    3.20
   6   0   2   99.99    3.10
   6   0  -2   94.69    3.10
   6   0   2  102.39    2.20
   6   0  -2  102.19    3.00
   6   0   2   99.99    3.20
  -6   0  -2   97.79    2.60
   6   0  -2  107.29    3.10
  -6   0   2  103.29    2.20
   6   0  -2   96.69    3.10
   6   0   2  102.89    2.80
   6   0   2   98.59    3.00
   7   0  -2  740.83   13.20
   7   0  -2  752.92   12.80
   7   0  -2  746.53   13.10
   7   0  -2  731.43   12.80
   7   0   2  738.43   13.30
  -7   0  -2  722.33   13.20
   7   0   2  756.02   12.50
   7   0  -2  746.33   13.20
   7   0   2  745.93   13.00
   7   0   2  731.23   13.20
  -7   0  -2  758.02   12.00
   7   0   2  769.02   13.10
   8   0  -2   39.10    2.40
   8   0   2   37.10    2.40
   8   0  -2   37.20    2.50
  -8   0  -2   34.90    2.50
   8   0   2   35.30    2.20
   8   0   2   35.00    2.50
   8   0  -2   34.70    2.10
   8   0  -2   38.90    2.30
   8   0   2   37.60    1.90
   8   0  -2   36.50    2.20
   8   0   2   40.10    2.30
   9   0  -2    2.40    1.10
  -9   0  -2    0.60    1.20
   9   0  -2    3.30    1.20
   9   0  -2    2.70    1.10
   9   0  -2    2.40    1.10
   9   0   2    1.60    1.00
   9   0   2    1.60    1.00
   9   0   2    2.20    1.20
   9   0   2    3.20    1.30
   9   0  -2    1.60    0.90
  10   0  -2  134.59    4.60
  10   0   2  134.19    5.50
  10   0   2  135.09    5.10
  10   0  -2  131.49    4.70
  10   0  -2  139.59    5.10
  10   0  -2  133.89    4.70
  10   0   2  136.39    4.90
 -10   0  -2  139.79    5.30
  11   0  -2   11.50    2.00
  11   0   2   10.40    1.90
  11   0  -2   14.90    3.00
  11   0   2   12.20    2.00
  11   0  -2   14.40    2.10
   0  -1   2 3971.30   57.99
   0   1   2 3960.50   57.99
   0   1  -2 4065.99   58.39
   0  -1   2 4019.20   57.99
   0   1  -2 4082.79   57.69
   0  -1   2 3899.51   57.59
   0  -1   2 4065.09   58.19
   0   1  -2 3814.72   57.79
  -1   1   2 5606.64   80.19
   1  -1   2 5687.63   82.39
   1  -1   2 5683.73   81.39
   1   1  -2 5709.43   80.39
   1   1  -2 5622.14   81.79
   1   1  -2 5351.76   81.49
   1  -1   2 5663.73   81.59
   1  -1   2 5646.94   80.09
  -1  -1  -2 5577.74   81.19
  -1  -1  -2 5607.14   81.49
   1  -1   2 5741.33   80.99
  -1  -1  -2 5591.34   79.19
   1   1  -2 5585.44   82.19
  -1   1  -2 5398.96   81.69
   1  -1  -2 5443.36   80.59
   1  -1  -2 5634.74   80.79
  -1   1  -2 5479.45   81.59
   1   1   2 5645.84   81.39
   1  -1  -2 5533.35   81.09
  -1  -1   2 5677.53   81.49
   1   1   2 5600.64   81.39
  -1  -1   2 5634.64   81.99
   1  -1  -2 5608.14   81.09
   1   1   2 5795.62   80.59
   1   1   2 5583.24   81.19
   1   1   2 5690.53   81.39
  -1  -1   2 5567.34   81.69
   1  -1  -2 5581.04   81.29
   1   1   2 5682.93   81.99
   2  -1   2  301.87    5.20
   2   1  -2  304.07    5.20
   2   1  -2  305.67    4.90
  -2  -1  -2  304.57    5.00
   2   1  -2  286.07    5.10
   2  -1   2  298.27    5.00
  -2  -1  -2  300.77    5.20
   2  -1   2  310.27    4.80
   2   1  -2  300.47    5.10
   2  -1   2  312.67    4.60
   2   1  -2  307.07    5.10
   2  -1   2  305.97    4.60
   2  -1   2  308.57    5.00
   2   1   2  309.07    4.80
   2   1   2  304.37    4.90
  -2   1  -2  308.67    5.10
   2  -1  -2  301.97    4.80
   2   1   2  294.17    5.10
  -2   1  -2  307.57    5.30
  -2  -1   2  301.77    5.00
   2  -1  -2  305.27    5.00
   2   1   2  297.37    5.00
   2   1   2  307.37    5.10
   2   1   2  303.07    5.00
   2  -1  -2  305.17    4.90
  -2  -1   2  305.57    4.90
   2  -1  -2  295.57    5.10
   2  -1  -2  303.57    5.00
   2  -1  -2  300.07    5.00
   2  -1  -2  313.27    4.40
  -2  -1   2  316.87    4.50
   3  -1   2  121.89    2.70
   3  -1   2  116.69    2.60
  -3   1   2  123.49    3.00
   3  -1   2  123.49    2.90
   3   1  -2  123.29    2.70
   3  -1   2  128.29    2.40
   3  -1   2  127.59    2.30
   3   1  -2  117.19    2.70
   3   1  -2  121.09    2.70
   3  -1   2  119.89    2.70
  -3  -1  -2  125.29    2.60
   3  -1   2  122.29    2.20
   3   1  -2  119.99    2.80
   3   1  -2  118.59    2.70
   3  -1  -2  122.49    2.70
   3  -1  -2  119.49    2.70
   3   1   2  116.79    2.60
   3  -1  -2  120.19    2.80
   3   1   2  117.59    2.70
  -3  -1   2  125.89    2.40
   3  -1  -2  120.39    2.60
   3   1   2  123.39    2.40
   3   1   2  125.39    2.40
   3   1   2  122.59    2.80
  -3   1  -2  120.39    2.90
   3  -1  -2  120.69    2.50
   3  -1  -2  124.59    2.40
  -3   1  -2  120.69    2.70
   3  -1  -2  118.49    2.70
   4  -1   2  409.06    6.60
   4  -1   2  411.66    6.30
  -4   1   2  393.66    7.40
   4   1  -2  408.26    7.20
  -4  -1  -2  407.16    6.80
   4  -1   2  406.96    6.90
   4   1  -2  403.96    7.00
   4  -1   2  407.46    7.10
   4   1  -2  407.96    7.00
   4   1  -2  392.96    7.10
  -4  -1  -2  404.86    7.00
   4  -1   2  398.06    7.20
   4   1  -2  403.56    7.10
   4  -1   2  399.06    7.00
   4   1   2  407.06    6.70
   4  -1  -2  395.86    7.10
  -4   1  -2  388.76    7.40
   4   1   2  405.96    7.00
  -4  -1   2  415.16    6.50
  -4   1  -2  400.86    7.10
   4   1   2  405.16    7.20
   4  -1  -2  396.76    7.10
   4   1   2  397.76    7.10
   4  -1  -2  406.26    6.80
   4  -1  -2  409.76    6.70
   4  -1  -2  404.86    7.00
   4   1   2  404.36    6.50
   4  -1  -2  401.76    7.20
   5  -1   2   78.99    1.70
   5  -1   2   76.69    2.30
  -5  -1  -2   77.39    2.20
   5  -1   2   77.09    2.50
  -5   1   2   81.69    2.80
   5   1  -2   75.59    1.60
   5  -1   2   79.49    2.10
   5   1  -2   76.59    2.40
   5  -1   2   80.89    2.50
   5   1  -2   74.09    2.30
   5   1  -2   72.39    2.50
   5   1  -2   74.29    2.40
  -5  -1  -2   75.69    2.40
   5   1  -2   72.99    2.40
   5  -1   2   78.09    2.40
  -5   1  -2   78.49    2.80
   5   1   2   78.09    2.60
   5   1   2   74.79    2.40
   5   1   2   76.29    1.90
   5  -1  -2   76.49    2.50
   5  -1  -2   81.59    2.30
   5  -1  -2   76.39    2.10
  -5  -1   2   79.49    1.90
   5   1   2   74.89    2.30
   5   1   2   76.29    2.50
  -5   1  -2   76.39    2.50
   5  -1  -2   78.39    2.50
   5  -1  -2   75.29    2.50
   5   1   2   78.99    2.20
   5  -1  -2   78.19    2.40
   6   1  -2   80.69    2.80
   6   1  -2   78.99    2.80
   6  -1   2   82.39    2.70
   6  -1   2   77.19    2.70
  -6   1   2   77.29    3.10
   6  -1   2   79.99    2.90
   6  -1   2   82.79    2.70
   6  -1   2   81.79    2.40
   6   1  -2   80.39    2.90
  -6  -1  -2   82.09    2.40
   6   1  -2   81.69    2.70
   6  -1   2   82.69    3.00
  -6  -1  -2   73.89    2.70
   6   1  -2   75.99    2.60
  -6   1  -2   77.59    3.00
   6  -1  -2   83.69    2.90
   6   1   2   78.19    2.90
   6   1   2   82.49    2.10
   6   1   2   82.49    2.40
  -6   1  -2   81.79    2.20
   6  -1  -2   79.39    2.50
  -6   1  -2   74.89    2.80
   6   1   2   77.79    2.70
  -6  -1   2   80.49    2.10
   6  -1  -2   81.19    2.80
   6   1   2   80.99    2.70
   6  -1  -2   83.29    2.40
   6   1   2   80.09    2.90
   6  -1  -2   77.59    2.80
  -7  -1  -2  200.78    5.20
   7   1  -2  204.58    5.40
   7   1  -2  205.28    5.10
   7  -1   2  207.48    4.60
   7  -1   2  203.18    5.10
   7   1  -2  201.78    5.10
  -7  -1  -2  209.98    4.50
   7  -1   2  204.08    5.00
   7  -1   2  208.38    5.40
   7  -1   2  199.08    5.20
   7   1  -2  211.28    5.30
   7   1  -2  209.08    5.00
   7   1   2  195.68    5.20
   7   1   2  209.98    4.70
   7  -1  -2  209.38    5.20
   7  -1  -2  211.78    5.30
   7   1   2  204.88    5.00
  -7   1  -2  203.18    5.30
   7  -1  -2  201.28    4.60
  -7   1  -2  212.18    4.30
   7  -1  -2  204.98    5.00
   7   1   2  199.08    5.30
   7  -1  -2  208.78    4.80
   7   1   2  206.08    5.20
   7  -1  -2  200.98    5.20
   8  -1   2   50.39    2.50
   8   1  -2   49.70    2.60
  -8  -1  -2   52.79    2.90
   8  -1   2   51.39    2.70
   8   1  -2   50.69    2.50
   8  -1   2   52.19    2.90
   8   1  -2   55.09    2.60
   8  -1   2   50.99    2.20
   8   1  -2   51.49    2.80
   8  -1   2   53.89    2.70
   8   1  -2   54.39    2.80
   8   1   2   52.59    2.70
   8  -1  -2   51.89    2.60
   8  -1  -2   54.19    2.50
  -8   1  -2   51.09    2.90
   8   1   2   51.89    2.80
   8  -1  -2   48.60    2.70
   8  -1  -2   46.40    2.50
   8   1   2   45.50    2.50
   8   1   2   51.19    2.90
   8   1   2   50.49    2.30
   8  -1  -2   46.30    2.60
   9   1  -2   24.30    2.00
   9  -1   2   30.40    2.70
   9   1  -2   26.20    2.20
   9  -1   2   24.40    2.10
   9   1  -2   25.30    2.20
   9   1  -2   29.10    2.60
   9  -1   2   25.20    2.40
   9   1  -2   27.40    2.20
  -9  -1  -2   27.50    2.60
   9  -1  -2   29.50    2.40
   9   1   2   19.00    2.00
   9   1   2   25.60    2.20
   9  -1  -2   23.40    2.20
   9  -1  -2   29.90    2.10
   9   1   2   24.20    2.30
   9  -1  -2   27.00    2.40
  -9   1  -2   28.10    2.70
   9  -1  -2   24.20    2.10
   9   1   2   27.60    2.30
  10   1  -2   41.90    2.80
  10   1  -2   43.40    2.80
  10  -1   2   35.40    2.90
  10  -1   2   40.20    2.70
 -10  -1  -2   37.30    3.00
  10   1  -2   39.50    2.90
  10  -1   2   39.40    5.00
  10   1  -2   39.90    2.70
  10   1   2   38.50    2.90
  10   1   2   38.20    2.80
  10  -1  -2   44.90    2.90
  10  -1  -2   39.40    2.70
  10   1   2   40.50    3.20
 -10   1  -2   45.30    3.30
  10   1   2   42.50    2.90
  10  -1  -2   43.70    3.00
  11   1  -2   20.20    2.30
  11  -1   2   15.80    2.40
  11   1  -2   19.90    2.30
  11   1  -2   17.50    2.20
  11   1  -2   19.00    2.40
  11  -1   2   20.10    2.50
  11  -1  -2   19.70    2.40
  11  -1  -2   18.80    2.50
  11   1   2   17.80    2.40
 -11   1  -2   18.50    2.70
  11   1   2   22.70    2.60
   0   2   2   30.60    0.90
   0  -2   2   32.30    0.90
   0   2  -2   30.70    0.80
   0  -2  -2   30.80    0.90
   0   2  -2   29.80    0.90
   0   2  -2   31.00    1.00
   0  -2   2   30.70    1.00
   0  -2  -2   30.70    0.70
   0  -2   2   29.10    0.90
   0   2  -2   31.70    1.00
   0  -2   2   31.60    1.10
   1  -2   2 1442.16   20.90
   1   2  -2 1436.16   20.80
   1  -2   2 1434.16   20.60
  -1  -2  -2 1398.06   20.50
   1   2  -2 1442.06   20.90
   1  -2   2 1472.05   20.70
  -1   2   2 1283.97   20.80
   1   2  -2 1452.55   20.60
   1  -2   2 1453.15   20.50
  -1  -2  -2 1450.95   20.50
  -1  -2  -2 1464.45   20.90
   1  -2   2 1474.35   20.90
  -1  -2  -2 1410.06   20.60
   1   2  -2 1400.26   20.90
  -1   2   2 1460.85   20.50
   1  -2   2 1461.55   20.90
   1   2   2 1430.96   20.80
   1  -2  -2 1443.36   20.60
  -1  -2   2 1486.55   20.90
   1  -2  -2 1461.05   20.70
   1   2   2 1408.86   20.70
   1   2   2 1440.96   21.00
  -1  -2   2 1456.55   20.70
   1   2   2 1462.25   20.50
   1  -2  -2 1431.46   20.80
  -1   2  -2 1451.95   21.00
   1  -2  -2 1402.66   20.90
  -1  -2   2 1429.16   20.90
  -1   2  -2 1447.66   20.80
   1   2   2 1419.26   20.60
  -1  -2   2 1422.66   20.80
   1  -2  -2 1404.26   20.50
  -2   2   2 1828.92   25.50
   2  -2   2 1855.11   26.00
   2   2  -2 1809.12   26.20
   2   2  -2 1798.02   26.20
  -2  -2  -2 1757.92   26.00
  -2   2   2 1845.32   26.30
   2  -2   2 1809.62   26.00
   2   2  -2 1856.51   26.30
  -2  -2  -2 1801.32   25.50
   2   2  -2 1786.62   26.00
   2   2  -2 1825.12   25.90
  -2   2   2 1822.62   26.00
   2  -2   2 1772.82   26.30
   2  -2   2 1799.32   26.70
  -2  -2  -2 1809.02   26.20
  -2  -2  -2 1793.02   26.40
   2  -2  -2 1763.42   26.10
   2  -2  -2 1768.02   25.60
   2   2   2 1760.22   26.20
  -2   2  -2 1794.02   26.40
   2  -2  -2 1821.32   25.70
   2   2   2 1740.83   26.00
   2   2   2 1836.02   25.90
   2  -2  -2 1826.42   25.90
  -2  -2   2 1798.12   26.70
   2   2   2 1782.72   26.20
   2   2   2 1809.22   25.90
  -2  -2   2 1758.82   26.00
   2  -2  -2 1826.42   26.00
   2   2   2 1777.02   25.90
  -2   2  -2 1808.02   26.20
   2  -2  -2 1779.02   26.00
   3  -2   2  487.75    7.60
   3   2  -2  477.05    8.10
   3   2  -2  492.35    7.90
   3  -2   2  493.35    8.00
   3  -2   2  490.25    8.30
  -3  -2  -2  494.35    7.30
   3   2  -2  492.15    8.10
  -3   2   2  491.05    8.10
  -3  -2  -2  492.15    8.00
   3   2  -2  484.55    8.10
   3   2  -2  482.85    7.90
   3  -2   2  489.15    7.50
   3  -2   2  478.35    8.00
  -3   2   2  498.25    8.30
  -3  -2  -2  501.15    7.80
  -3   2  -2  494.75    8.10
   3   2   2  486.75    8.20
   3  -2  -2  496.95    7.80
   3   2   2  483.95    8.20
   3  -2  -2  495.25    7.90
   3  -2  -2  485.95    8.10
   3  -2  -2  479.15    8.10
  -3  -2   2  493.75    7.90
   3   2   2  488.65    8.10
  -3  -2   2  507.15    7.90
   3  -2  -2  497.35    8.10
  -3   2  -2  488.45    8.40
   3   2   2  474.55    7.80
   3   2   2  489.45    7.70
   3  -2  -2  508.15    7.60
   3   2   2  493.35    7.80
  -4  -2  -2 1151.68   17.10
   4   2  -2 1065.99   17.30
   4  -2   2 1093.59   17.10
   4   2  -2 1090.69   17.30
   4   2  -2 1128.89   17.30
   4  -2   2 1141.89   17.50
  -4   2   2 1101.49   17.60
   4  -2   2 1113.89   16.50
   4   2  -2 1117.99   17.20
   4  -2   2 1113.19   17.20
  -4   2   2 1117.19   17.30
   4   2  -2 1091.19   17.00
  -4  -2  -2 1119.59   16.90
   4  -2   2 1133.19   16.70
   4   2   2 1125.09   16.90
   4  -2  -2 1108.99   17.30
   4  -2  -2 1123.59   16.90
   4   2   2 1105.49   17.30
   4   2   2 1132.99   17.30
   4  -2  -2 1117.99   17.30
  -4  -2   2 1151.38   16.80
   4  -2  -2 1105.89   16.70
   4  -2  -2 1150.68   17.10
   4   2   2 1126.79   17.00
  -4   2  -2 1107.59   17.60
   4   2   2 1099.39   16.60
  -4   2  -2 1129.59   17.30
   4   2   2 1139.39   17.40
   5   2  -2  633.74   10.60
  -5  -2  -2  638.74   10.70
   5   2  -2  609.64   11.00
   5  -2   2  643.84   10.80
   5   2  -2  639.24   10.90
   5  -2   2  651.23   10.30
   5   2  -2  655.63   10.90
   5  -2   2  644.24   10.50
   5   2  -2  649.54   11.00
   5  -2   2  639.24   10.00
   5  -2   2  648.64   10.90
   5  -2   2  629.24   11.10
  -5  -2  -2  651.23   10.50
   5   2  -2  646.64    9.80
  -5   2   2  642.84   11.30
   5  -2  -2  657.43   10.50
  -5   2  -2  638.04   11.00
   5   2   2  639.64   11.00
   5   2   2  646.74   10.10
   5  -2  -2  637.64   10.60
   5  -2  -2  642.84   10.90
  -5  -2   2  660.03   10.30
  -5   2  -2  634.84   11.30
   5  -2  -2  626.74   10.90
   5   2   2  641.84   11.10
   5   2   2  630.94   11.00
   5  -2  -2  652.63   10.30
   5   2   2  636.84   10.40
   5  -2  -2  630.04   10.90
   5   2   2  631.94   10.60
   6  -2   2  495.45    8.80
   6  -2   2  492.05    8.10
  -6   2   2  492.65    9.70
   6   2  -2  486.95    9.10
   6  -2   2  505.35    9.10
   6   2  -2  495.35    7.80
   6  -2   2  499.25    9.20
   6  -2   2  510.15    8.60
  -6  -2  -2  486.65    8.60
  -6  -2  -2  480.55    9.00
   6  -2   2  489.85    9.30
   6   2  -2  498.45    9.30
   6   2  -2  479.15    9.30
   6   2  -2  487.15    9.10
   6   2  -2  490.95    8.90
  -6  -2   2  500.25    8.30
   6  -2  -2  496.25    8.60
   6  -2  -2  479.25    9.10
   6   2   2  507.75    8.20
   6  -2  -2  489.35    9.20
   6  -2  -2  488.85    9.10
   6  -2  -2  475.65    8.90
  -6   2  -2  507.25    9.40
   6   2   2  489.85    9.20
   6   2   2  493.85    8.90
  -6   2  -2  490.05    9.60
   6   2   2  501.85    9.30
   6  -2  -2  507.85    8.70
   6   2   2  499.25    8.70
   6   2   2  488.35    9.30
   7  -2   2    4.00    0.70
   7   2  -2    3.90    0.90
  -7   2   2    2.00    1.10
   7   2  -2    3.50    0.90
   7  -2   2    5.40    1.00
   7  -2   2    3.20    1.00
   7   2  -2    6.30    1.30
   7  -2   2    4.40    1.00
   7   2  -2    4.00    1.10
  -7  -2  -2    4.40    1.10
   7  -2   2    2.90    1.00
   7  -2   2    3.00    0.70
   7   2  -2    4.60    1.00
  -7  -2  -2    4.60    0.80
   7  -2   2    4.30    1.20
   7  -2  -2    5.00    0.90
   7  -2  -2    3.60    0.90
   7   2   2    3.40    1.00
  -7   2  -2    2.90    1.10
  -7   2  -2    3.60    1.00
   7   2   2    2.90    0.90
   7  -2  -2    4.20    0.90
   7  -2  -2    4.30    1.00
   7   2   2    5.40    1.00
   7   2   2    3.30    1.00
   7  -2  -2    5.30    1.10
   7   2   2    4.90    0.90
   7  -2  -2    3.60    1.00
   8  -2   2   95.99    3.80
   8   2  -2   97.49    3.60
   8  -2   2  103.59    3.20
   8   2  -2  104.39    3.90
   8   2  -2   96.99    3.60
   8  -2   2   95.59    3.60
   8  -2   2   91.89    3.60
   8  -2   2   92.79    3.60
   8   2  -2   94.29    3.40
  -8  -2  -2   98.39    3.70
   8   2  -2   98.49    3.60
   8  -2  -2  103.59    3.60
   8   2   2  101.99    3.80
   8   2   2   95.09    3.40
  -8   2  -2   93.69    3.90
   8   2   2  100.09    3.20
   8  -2  -2   99.79    3.60
   8   2   2   95.49    3.70
   8  -2  -2   98.19    3.20
   8  -2  -2  101.49    3.80
   8  -2  -2   98.59    3.70
   8   2   2  103.59    3.90
   9  -2   2   10.60    1.60
   9   2  -2    7.80    1.50
  -9  -2  -2    8.80    1.70
   9   2  -2    7.70    1.50
   9  -2   2    9.30    1.60
   9   2  -2    7.40    1.30
   9  -2   2   10.10    1.70
   9   2  -2    8.60    1.50
   9   2  -2    8.60    1.60
   9   2   2    7.60    1.60
   9   2   2    8.60    1.50
   9  -2  -2   11.00    1.70
   9  -2  -2    7.70    1.50
  -9   2  -2    8.50    1.80
   9   2   2   10.20    1.60
   9  -2  -2    7.30    1.50
   9  -2  -2    7.00    1.40
   9   2   2    9.60    1.70
  10   2  -2   44.40    2.80
  10   2  -2   35.50    2.70
  10  -2   2   40.50    2.90
  10   2  -2   36.50    2.70
  10   2  -2   34.90    2.70
 -10  -2  -2   39.20    3.00
  10  -2   2   33.80    2.90
  10  -2  -2   39.70    2.70
  10   2   2   40.90    3.00
  10   2   2   38.70    2.80
  10  -2  -2   35.60    2.70
  10  -2  -2   36.10    2.90
  10   2   2   36.70    3.20
  10   2   2   38.20    2.70
 -10   2  -2   41.70    3.30
  11   2  -2    2.10    1.30
  11   2  -2    0.10    1.10
  11  -2   2   -1.80    1.00
  11   2  -2    1.70    1.30
  11  -2   2   -0.60    1.20
  11   2   2    2.10    1.50
  11  -2  -2    0.00    1.00
  11  -2  -2    1.90    1.40
  11   2   2    0.60    1.10
 -11   2  -2    1.40    1.50
   0  -3   2 1083.39   16.40
   0  -3   2 1127.19   16.70
   0   3  -2 1111.69   16.50
   0  -3  -2 1117.99   16.40
   0   3  -2 1113.29   16.70
   0  -3  -2 1131.49   16.20
   0  -3   2 1140.09   16.50
   0   3  -2 1154.88   16.50
   0   3   2 1123.89   16.20
   0  -3   2 1137.99   16.80
   0   3   2 1129.19   16.40
   0   3  -2 1122.69   16.40
   0  -3  -2 1132.59   16.50
  -1   3   2 1880.41   26.30
   1  -3   2 1835.52   26.70
  -1  -3  -2 1889.81   26.40
  -1  -3  -2 1789.02   26.60
   1  -3   2 1852.31   26.30
  -1   3   2 1775.02   26.20
   1  -3   2 1855.71   26.40
   1  -3   2 1879.11   26.30
   1   3  -2 1834.32   26.60
   1   3  -2 1857.21   26.70
   1   3  -2 1799.72   26.70
   1  -3   2 1833.12   26.80
  -1  -3  -2 1854.91   26.50
  -1  -3  -2 1871.41   26.30
   1  -3  -2 1813.72   26.60
   1   3   2 1821.92   26.50
   1   3   2 1855.51   26.40
  -1  -3   2 1833.02   26.50
   1  -3  -2 1837.12   27.10
   1   3   2 1768.52   26.50
  -1  -3   2 1897.61   26.80
  -1  -3   2 1845.52   26.30
  -1   3  -2 1818.22   26.80
   1   3   2 1898.61   26.60
   1  -3  -2 1810.72   26.30
  -1   3  -2 1854.11   26.60
   1   3   2 1803.22   26.50
   1  -3  -2 1863.31   26.20
  -2   3   2  140.39    2.80
  -2  -3  -2  143.09    2.50
  -2   3   2  140.89    3.00
   2   3  -2  137.49    3.00
   2  -3   2  137.49    3.10
   2  -3   2  144.29    2.80
   2  -3   2  136.69    2.60
  -2   3   2  140.89    2.40
   2  -3   2  137.49    2.70
  -2  -3  -2  144.29    2.40
  -2  -3  -2  138.99    2.80
   2  -3   2  139.29    2.90
   2   3  -2  141.69    3.00
  -2  -3  -2  145.79    3.00
   2   3  -2  141.19    2.70
   2   3  -2  141.69    2.80
   2   3  -2  141.79    3.00
   2  -3  -2  142.69    2.40
   2  -3  -2  138.29    2.70
   2  -3  -2  136.19    2.80
  -2   3  -2  140.19    2.90
  -2  -3   2  138.99    2.80
   2  -3  -2  142.89    2.30
  -2  -3   2  142.19    3.00
   2  -3  -2  136.99    2.90
  -2   3  -2  135.49    3.10
  -2  -3   2  144.59    2.50
   2   3   2  134.79    2.70
   2   3   2  135.79    2.80
   2  -3  -2  141.39    2.80
   2   3   2  134.59    2.90
   2   3   2  139.49    2.60
   2   3   2  141.49    2.80
   3  -3   2 1959.80   28.10
  -3  -3  -2 1943.81   28.10
  -3   3   2 1962.30   28.60
   3   3  -2 1990.80   28.80
  -3  -3  -2 1984.80   28.70
  -3   3   2 1973.40   27.50
  -3   3   2 1906.61   28.80
  -3  -3  -2 1951.00   27.80
   3   3  -2 1972.10   28.80
   3   3  -2 1902.41   28.80
   3  -3   2 1981.00   28.50
   3  -3   2 1890.21   28.80
   3  -3   2 1919.61   28.50
   3   3  -2 1939.21   28.50
   3   3  -2 1944.11   28.40
  -3  -3   2 2010.30   28.60
   3  -3  -2 1960.90   28.20
   3  -3  -2 2010.50   28.70
  -3  -3   2 1910.01   28.40
   3   3   2 2010.20   28.40
   3   3   2 1958.80   28.80
   3  -3  -2 1934.51   28.30
   3   3   2 1977.50   28.60
  -3   3  -2 1942.01   29.00
   3   3   2 1921.21   28.30
  -3   3  -2 1925.81   28.70
   3  -3  -2 1962.40   28.70
   3   3   2 1929.71   28.70
   3   3   2 1887.31   28.20
   3  -3  -2 1988.10   28.50
  -4  -3  -2  595.74    9.50
   4  -3   2  588.94    9.70
  -4   3   2  592.04    9.90
   4   3  -2  589.34   10.00
  -4   3   2  594.34   10.20
   4  -3   2  602.84   10.20
   4  -3   2  596.24    9.40
   4   3  -2  580.74    9.80
   4  -3   2  590.24    9.30
   4   3  -2  588.44   10.10
  -4  -3  -2  598.44    8.90
  -4  -3  -2  571.34    9.70
   4  -3   2  594.84    9.80
   4   3  -2  596.54   10.00
   4   3  -2  585.74    9.60
   4   3   2  575.14    9.40
  -4  -3   2  593.24    9.60
   4   3   2  585.24    9.90
   4  -3  -2  602.44    9.70
   4  -3  -2  587.44    9.90
  -4  -3   2  607.54    9.70
   4   3   2  585.34    9.60
   4  -3  -2  585.14    9.60
   4   3   2  584.64   10.00
  -4   3  -2  586.34   10.30
   4  -3  -2  587.84    9.90
   4  -3  -2  588.14    9.10
   4   3   2  583.44    9.50
  -4   3  -2  583.84    9.90
   4   3   2  579.64   10.00
  -5   3   2  348.37    6.80
   5  -3   2  343.77    6.60
   5   3  -2  337.67    6.70
  -5   3   2  331.17    7.00
   5  -3   2  335.37    6.60
  -5  -3  -2  336.57    6.40
   5   3  -2  345.37    6.60
   5   3  -2  351.16    5.90
   5  -3   2  347.77    6.90
   5  -3   2  343.77    6.10
   5  -3   2  341.67    6.00
  -5  -3  -2  349.17    6.40
   5   3  -2  334.77    6.70
   5   3  -2  354.36    6.40
   5   3  -2  338.57    6.80
  -5   3  -2  348.57    6.80
   5   3   2  342.77    6.80
   5  -3  -2  338.87    6.70
   5   3   2  341.37    6.40
   5  -3  -2  348.97    6.00
   5   3   2  348.67    6.40
  -5   3  -2  344.97    7.10
  -5  -3   2  352.16    6.30
   5   3   2  337.87    6.80
   5   3   2  352.96    6.80
   5  -3  -2  337.77    6.40
   5  -3  -2  347.77    6.40
   5  -3  -2  338.97    6.70
   5   3   2  349.07    6.10
  -6   3   2   10.90    1.40
  -6  -3  -2   10.90    1.20
   6   3  -2   14.40    1.50
   6   3  -2   14.10    1.40
   6  -3   2   13.70    1.00
   6  -3   2   13.50    1.10
   6   3  -2   11.70    1.20
   6   3  -2   11.60    1.30
   6  -3   2   12.40    1.40
  -6  -3  -2   15.60    1.20
   6   3  -2   11.80    1.30
   6  -3   2   12.60    1.40
   6   3  -2   12.50    0.90
   6  -3   2   14.70    1.40
  -6   3  -2   11.80    1.40
   6  -3  -2   14.00    1.30
   6  -3  -2   12.40    1.20
   6  -3  -2   13.20    1.40
   6  -3  -2   10.60    1.30
  -6  -3   2   13.20    1.10
   6   3   2   16.90    1.40
   6  -3  -2   11.10    1.20
   6   3   2   11.00    1.30
   6  -3  -2   13.40    1.00
   6   3   2   10.70    1.30
  -6   3  -2   12.20    1.40
   6   3   2   12.90    1.20
   6   3   2   14.30    1.10
   6   3   2   13.60    1.10
   7  -3   2   21.90    1.70
  -7  -3  -2   23.70    1.60
   7  -3   2   23.50    1.30
   7  -3   2   22.00    1.70
   7  -3   2   22.90    1.80
   7   3  -2   24.90    1.70
   7   3  -2   23.10    2.00
   7   3  -2   21.00    1.70
  -7   3   2   27.40    2.20
  -7  -3  -2   25.50    1.80
   7  -3   2   23.00    1.50
   7   3  -2   23.60    1.80
   7   3  -2   24.10    1.90
   7   3   2   21.80    1.50
   7  -3  -2   21.00    1.60
   7   3   2   22.10    1.60
   7  -3  -2   24.60    1.50
   7  -3  -2   22.40    1.70
   7  -3  -2   21.90    1.70
  -7  -3   2   22.10    1.50
   7   3   2   24.10    1.30
  -7   3  -2   22.20    1.90
   7  -3  -2   28.80    1.90
   7  -3  -2   23.40    1.80
   7   3   2   23.40    2.00
   7   3   2   24.10    1.90
  -7   3  -2   25.70    2.10
   7   3   2   22.10    1.80
   8  -3   2  119.09    3.50
  -8  -3  -2  109.49    3.90
   8   3  -2  113.09    4.00
  -8  -3  -2  117.19    3.50
   8  -3   2  111.59    4.20
   8   3  -2  116.99    3.80
   8   3  -2  118.49    4.30
   8  -3   2  107.09    3.90
   8  -3   2  117.79    4.00
   8  -3   2  119.89    4.10
   8   3  -2  114.19    4.00
   8   3  -2  116.69    4.10
   8   3   2  108.29    4.10
   8  -3  -2  118.69    3.90
   8  -3  -2  117.19    4.10
   8   3   2  109.49    3.50
   8   3   2  112.39    3.70
  -8   3  -2  115.69    4.30
   8   3   2  112.69    4.00
   8   3   2  111.99    4.10
   8  -3  -2  108.09    4.00
   8  -3  -2  115.69    3.90
   9   3  -2   59.69    3.00
   9   3  -2   59.29    3.10
   9   3  -2   61.29    3.10
   9  -3   2   64.89    3.20
   9  -3   2   64.39    3.50
   9   3  -2   60.79    3.20
   9   3  -2   58.59    3.40
   9  -3   2   55.29    3.00
  -9  -3  -2   58.19    3.20
   9   3   2   66.39    3.50
   9  -3  -2   56.99    3.20
   9   3   2   60.99    4.00
   9  -3  -2   62.59    3.30
   9  -3  -2   61.89    3.00
   9   3   2   62.29    3.00
   9   3   2   61.99    3.20
   9  -3  -2   60.09    3.00
  -9   3  -2   67.59    3.70
   9   3   2   65.39    3.40
  10  -3   2  123.39    4.70
  10   3  -2  121.39    4.60
  10   3  -2  120.99    4.50
  10  -3   2  120.69    4.80
  10   3  -2  123.09    4.80
  10   3  -2  125.59    4.80
  10  -3  -2  128.29    4.70
  10  -3  -2  124.69    4.90
  10   3   2  120.79    4.50
  10   3   2  128.09    5.10
  10   3   2  125.59    4.90
  10   3   2  126.69    5.50
 -10   3  -2  118.09    5.20
  10  -3  -2  124.69    4.60
  11  -3   2   23.80    2.70
  11  -3   2   19.50    2.60
  11   3  -2   21.30    2.50
  11   3  -2   25.70    2.80
  11   3  -2   27.10    2.80
  11   3  -2   22.70    2.50
  11   3   2   19.40    2.30
  11  -3  -2   26.70    3.60
  11   3   2   23.30    2.60
  11  -3  -2   18.40    2.30
  11   3   2   19.40    3.50
 -11   3  -2   20.20    4.40
   0   4   2  204.18    3.70
   0  -4  -2  206.58    3.80
   0  -4  -2  209.18    3.60
   0  -4   2  209.88    3.80
   0   4  -2  207.88    4.00
   0   4  -2  207.88    3.60
   0   4  -2  205.08    3.70
   0  -4  -2  209.68    3.20
   0  -4   2  203.78    3.70
   0  -4  -2  205.78    3.70
   0   4   2  204.58    3.60
   0   4  -2  202.88    3.80
   0  -4  -2  205.58    3.90
   0  -4   2  202.48    4.00
   1  -4   2  440.56    7.20
  -1  -4  -2  457.55    7.20
   1  -4   2  459.85    7.60
  -1   4   2  460.75    7.10
   1  -4   2  454.25    7.00
   1   4  -2  453.85    7.40
   1  -4   2  462.35    7.10
   1   4  -2  451.25    7.40
   1   4  -2  437.46    7.50
  -1  -4  -2  452.85    7.10
  -1   4   2  456.85    7.00
   1   4   2  455.55    7.20
   1   4   2  431.26    7.20
   1  -4  -2  455.65    7.10
   1   4   2  470.85    7.50
   1   4   2  438.46    7.20
  -1   4  -2  458.05    7.20
   1  -4  -2  456.45    7.30
  -1  -4   2  456.75    7.20
  -1  -4   2  469.35    7.70
  -1  -4   2  445.86    7.30
  -1   4  -2  455.55    7.10
   1  -4  -2  454.25    6.80
   1  -4  -2  457.05    7.10
  -1   4  -2  438.66    7.60
   1  -4  -2  456.65    7.50
   2  -4   2  744.23   11.40
  -2  -4  -2  754.72   10.80
  -2   4   2  757.32   11.70
  -2   4   2  743.73   11.50
   2   4  -2  754.12   11.40
  -2  -4  -2  739.63   11.50
   2   4  -2  748.83   11.70
   2   4  -2  750.42   11.80
  -2   4   2  747.73   11.00
   2   4  -2  723.63   11.30
   2  -4   2  731.03   11.90
   2  -4   2  755.82   11.70
  -2  -4  -2  729.33   11.70
   2   4  -2  756.12   11.90
  -2  -4  -2  743.03   11.20
   2  -4   2  758.32   11.40
   2  -4   2  758.72   11.50
   2   4   2  739.43   11.00
  -2   4  -2  745.53   11.60
   2  -4  -2  743.13   11.70
   2  -4  -2  765.92   10.60
   2   4   2  723.93   11.60
   2   4   2  738.83   11.50
   2   4   2  735.83   11.50
  -2  -4   2  732.03   11.50
  -2  -4   2  781.92   11.90
   2   4   2  747.13   11.60
   2  -4  -2  742.23   11.50
   2  -4  -2  750.82   11.10
   2  -4  -2  745.83   11.20
  -2  -4   2  749.33   11.20
   2  -4  -2  734.93   11.70
  -3   4   2   39.30    1.60
   3   4  -2   38.60    1.70
   3   4  -2   39.30    1.60
   3   4  -2   39.50    1.70
  -3   4   2   41.70    1.00
   3  -4   2   41.60    1.40
   3  -4   2   38.70    1.40
   3   4  -2   39.10    1.40
   3   4  -2   38.30    1.40
   3  -4   2   41.50    1.30
  -3  -4  -2   39.90    1.20
  -3   4   2   40.60    1.50
   3  -4   2   40.90    1.70
  -3  -4  -2   48.90    1.70
  -3  -4  -2   42.20    1.20
   3  -4  -2   42.10    1.00
   3  -4  -2   43.00    1.60
  -3  -4   2   39.50    1.20
   3  -4  -2   41.00    1.40
  -3  -4   2   41.20    1.60
   3   4   2   38.90    1.50
   3  -4  -2   41.00    1.60
   3   4   2   40.40    1.20
   3   4   2   40.60    1.70
   3  -4  -2   40.40    0.90
   3   4   2   37.40    1.50
   3   4   2   41.70    1.40
  -3  -4   2   40.20    1.50
  -3   4  -2   39.90    1.60
   3  -4  -2   41.30    1.60
   3   4   2   40.90    1.50
  -3   4  -2   42.20    1.80
  -4   4   2   24.50    1.50
   4  -4   2   24.50    1.30
   4  -4   2   21.70    1.40
   4   4  -2   23.80    1.40
  -4  -4  -2   24.50    0.90
   4   4  -2   22.80    1.30
  -4   4   2   23.30    1.40
  -4  -4  -2   21.90    1.20
   4  -4   2   22.50    1.10
   4  -4   2   22.40    1.20
   4   4  -2   23.90    1.20
  -4  -4  -2   23.70    1.10
   4   4  -2   21.40    1.40
   4   4  -2   22.50    1.50
   4   4   2   22.50    1.20
   4   4   2   21.00    1.30
   4  -4  -2   21.20    1.20
   4   4   2   24.90    1.40
  -4  -4   2   23.70    1.20
  -4  -4   2   25.60    1.40
   4   4   2   21.80    1.10
   4  -4  -2   23.70    0.80
   4   4   2   21.30    1.10
   4  -4  -2   19.00    1.20
  -4   4  -2   22.70    1.40
   4  -4  -2   22.10    1.30
  -4   4  -2   22.20    1.50
   5  -4   2   33.10    1.60
   5   4  -2   34.50    1.90
   5  -4   2   33.90    1.70
   5   4  -2   32.60    1.70
  -5   4   2   34.80    1.80
   5  -4   2   33.00    1.40
   5   4  -2   36.50    1.60
  -5  -4  -2   34.70    1.70
   5  -4   2   33.80    1.80
   5  -4   2   33.60    1.50
  -5  -4  -2   33.70    1.60
   5   4  -2   34.40    1.40
  -5   4   2   36.80    2.10
   5   4  -2   32.80    1.70
   5   4  -2   35.60    1.80
   5  -4  -2   31.80    1.60
  -5   4  -2   35.90    1.90
   5   4   2   33.20    1.40
   5   4   2   32.50    1.60
   5  -4  -2   33.40    1.70
  -5  -4   2   34.50    1.70
   5  -4  -2   35.80    1.70
   5   4   2   35.30    1.90
   5  -4  -2   33.20    1.80
   5  -4  -2   34.10    1.20
   5   4   2   33.00    1.80
   5   4   2   35.10    1.50
   5   4   2   33.50    1.80
  -5   4  -2   33.70    2.00
   6  -4   2    6.40    1.00
  -6  -4  -2    5.60    0.90
   6   4  -2    7.60    1.00
   6  -4   2    6.70    1.00
   6   4  -2    6.80    1.10
   6   4  -2    6.50    1.10
  -6   4   2    3.70    1.00
   6  -4   2    5.80    0.80
   6  -4   2    6.00    0.80
   6  -4   2    4.90    1.00
   6   4  -2    5.40    0.70
  -6   4   2    6.30    1.00
   6   4  -2    7.20    1.20
  -6  -4  -2    6.20    1.00
   6   4  -2    8.10    1.10
  -6   4  -2    4.70    1.00
   6   4   2    5.30    1.00
   6   4   2    5.40    0.80
   6   4   2    5.50    1.10
   6  -4  -2    5.90    1.00
   6   4   2    5.50    1.00
   6  -4  -2    4.80    1.00
   6  -4  -2    6.60    1.00
  -6  -4   2    4.30    0.90
   6   4   2    5.00    0.80
   6  -4  -2    5.20    1.00
  -6   4  -2    6.50    1.10
   6   4   2    5.40    0.80
   6  -4  -2    5.40    0.70
  -7  -4  -2   84.29    3.10
   7  -4   2   85.09    3.40
   7   4  -2   77.99    3.30
   7   4  -2   77.59    3.10
   7  -4   2   88.59    2.60
   7  -4   2   82.49    2.70
   7  -4   2   80.19    3.00
   7   4  -2   79.29    2.90
  -7  -4  -2   84.49    2.90
  -7   4   2   81.89    3.60
   7  -4   2   81.69    3.20
   7   4  -2   80.69    3.20
   7   4  -2   83.09    3.20
   7   4   2   85.09    3.40
   7   4   2   87.49    2.60
  -7  -4   2   83.09    2.80
   7  -4  -2   80.09    3.20
   7  -4  -2   86.79    3.00
  -7   4  -2   82.69    3.50
   7  -4  -2   86.79    3.20
   7  -4  -2   85.19    3.00
   7   4   2   85.09    2.90
   7  -4  -2   80.19    3.20
  -7   4  -2   82.49    3.40
   7   4   2   83.99    2.90
   7   4   2   85.99    3.30
   7   4   2   80.29    3.30
   8   4  -2   56.29    3.10
   8   4  -2   47.20    2.80
   8   4  -2   50.59    2.70
  -8   4   2   51.49    3.10
   8  -4   2   56.39    2.90
   8  -4   2   52.99    2.80
  -8  -4  -2   54.59    2.50
  -8  -4  -2   49.60    2.70
   8  -4   2   50.49    2.70
   8   4  -2   52.79    2.50
   8   4  -2   48.60    2.70
   8   4   2   56.59    3.00
  -8   4  -2   54.09    3.10
   8  -4  -2   55.09    2.70
   8   4   2   51.29    2.50
  -8   4  -2   55.19    3.10
   8  -4  -2   48.50    2.60
   8   4   2   52.89    2.60
   8   4   2   59.29    3.10
   8  -4  -2   54.79    2.80
   8  -4  -2   49.10    2.50
   8  -4  -2   52.39    2.80
   8   4   2   49.10    2.80
   9  -4   2   60.19    3.30
   9   4  -2   58.79    3.30
   9  -4   2   62.49    3.20
   9   4  -2   64.39    3.60
   9  -4   2   65.09    3.40
   9   4  -2   60.49    3.00
   9   4  -2   65.49    3.30
   9  -4   2   63.99    3.50
   9   4  -2   55.99    3.10
   9  -4  -2   61.49    3.30
   9   4   2   68.69    3.70
   9   4   2   65.99    3.10
   9  -4  -2   59.69    3.30
  -9   4  -2   68.19    3.80
   9   4   2   58.19    3.20
   9  -4  -2   63.99    3.10
   9  -4  -2   67.09    2.90
   9   4   2   68.09    3.00
   9   4   2   64.89    3.50
   9  -4  -2   64.69    3.10
  10   4  -2   20.40    2.40
  10   4  -2   19.00    2.30
  10   4  -2   19.70    2.20
  10  -4   2   20.20    2.40
  10   4  -2   18.30    2.10
  10  -4   2   20.90    2.30
 -10   4  -2   25.70    2.90
  10  -4  -2   19.70    2.40
  10   4   2   26.60    2.50
  10  -4  -2   18.40    2.20
  10   4   2   23.80    2.60
  10  -4  -2   19.30    2.10
  10   4   2   24.70    2.70
  11   4  -2   44.20    3.00
  11   4  -2   41.10    3.10
  11   4  -2   40.60    3.30
  11  -4   2   45.00    3.20
  11   4   2   46.70    3.10
  11  -4  -2   43.10    3.10
  11   4   2   43.60    3.30
   0  -5   2  621.34   10.10
   0   5   2  644.54    9.90
   0   5  -2  646.84    9.70
   0   5  -2  629.44   10.40
   0   5   2  643.74   10.00
   0  -5  -2  634.64   10.30
   0  -5  -2  636.34   10.00
   0   5   2  640.84    9.60
   0  -5   2  644.44   10.50
   0   5  -2  633.34    9.90
   0  -5  -2  639.74   10.10
   0  -5   2  642.84   10.10
   0   5  -2  632.94   10.20
   0  -5  -2  657.43    9.90
  -1  -5  -2  907.71   13.80
   1   5  -2  911.01   14.30
  -1   5   2  898.41   13.60
   1   5  -2  919.31   14.10
   1   5  -2  912.81   13.40
   1  -5   2  910.91   14.20
  -1  -5  -2  905.91   14.10
   1  -5   2  934.51   13.70
  -1   5   2  914.81   13.80
   1   5  -2  904.91   13.90
  -1  -5  -2  927.61   13.70
   1  -5   2  925.01   13.90
   1  -5   2  909.31   14.20
   1   5   2  905.41   13.80
  -1   5  -2  904.41   13.60
   1  -5  -2  908.61   14.10
   1  -5  -2  916.01   13.80
  -1   5  -2  889.91   14.30
  -1  -5   2  911.61   13.90
   1  -5  -2  940.91   13.20
   1  -5  -2  909.41   13.80
  -1   5  -2  927.11   13.80
   1   5   2  909.61   13.80
   1   5   2  929.81   14.20
   1   5   2  893.01   13.90
  -1  -5   2  910.11   13.90
  -1  -5   2  890.11   14.30
   1  -5  -2  901.21   13.90
   2   5  -2   67.29    2.20
  -2  -5  -2   65.79    1.90
  -2  -5  -2   67.59    2.10
   2  -5   2   63.89    1.80
   2  -5   2   65.59    1.80
  -2   5   2   68.79    1.90
   2  -5   2   64.09    1.70
   2   5  -2   68.49    2.10
  -2  -5  -2   61.89    1.70
  -2   5   2   67.99    1.60
   2   5  -2   66.09    1.70
  -2   5   2   64.79    1.90
   2  -5   2   66.49    2.00
   2   5  -2   67.49    2.00
   2   5   2   64.49    1.90
  -2  -5   2   66.59    1.70
  -2  -5   2   63.39    2.10
   2  -5  -2   61.89    1.90
   2  -5  -2   64.39    2.00
   2   5   2   65.59    1.40
   2  -5  -2   62.39    2.00
  -2   5  -2   67.49    1.90
   2  -5  -2   65.79    1.70
   2  -5  -2   65.89    1.90
   2  -5  -2   66.49    1.60
  -2   5  -2   66.29    2.20
   2   5   2   63.09    1.90
  -2  -5   2   63.19    1.90
   2   5   2   64.09    2.00
   3   5  -2  165.08    3.20
   3   5  -2  159.28    3.70
   3   5  -2  160.88    3.70
  -3   5   2  156.88    2.80
   3   5  -2  155.58    3.80
   3   5  -2  163.08    3.50
   3  -5   2  163.28    3.40
  -3   5   2  156.68    3.50
   3  -5   2  158.08    3.50
   3  -5   2  161.98    3.40
  -3   5   2  160.78    3.70
  -3  -5  -2  158.78    3.10
  -3  -5  -2  158.78    3.70
   3  -5   2  161.18    3.50
  -3  -5  -2  158.48    2.90
   3  -5   2  158.78    3.80
   3  -5  -2  156.68    3.20
   3  -5  -2  150.08    3.60
   3   5   2  157.78    3.60
   3  -5  -2  155.58    3.60
   3  -5  -2  165.68    3.70
   3   5   2  159.48    3.60
   3  -5  -2  156.98    3.60
  -3   5  -2  163.08    3.60
  -3  -5   2  160.28    3.50
   3   5   2  158.98    3.60
   3   5   2  155.58    3.00
   3   5   2  162.98    3.50
  -3   5  -2  155.18    3.90
   3  -5  -2  163.68    2.90
  -3  -5   2  157.68    3.80
  -3  -5   2  160.78    3.20
   4  -5   2  228.28    4.60
  -4   5   2  230.68    4.90
   4  -5   2  227.18    4.50
  -4  -5  -2  228.88    4.20
   4   5  -2  229.48    5.00
   4   5  -2  228.98    5.10
   4   5  -2  229.98    5.00
   4  -5   2  229.18    4.80
   4  -5   2  224.08    5.10
  -4   5   2  227.88    5.10
  -4  -5  -2  233.88    5.00
  -4  -5  -2  228.08    4.20
   4   5  -2  229.98    4.80
   4   5  -2  237.48    4.50
  -4   5   2  231.78    3.60
  -4  -5   2  235.58    4.30
   4  -5  -2  225.18    4.90
   4  -5  -2  225.78    4.50
   4   5   2  217.68    4.30
   4   5   2  228.58    4.60
   4  -5  -2  234.18    3.70
   4   5   2  223.08    5.00
  -4   5  -2  227.98    4.90
   4   5   2  223.78    5.00
   4  -5  -2  223.98    4.80
  -4  -5   2  222.58    4.60
  -4  -5   2  224.88    4.90
   4   5   2  230.68    4.80
  -4   5  -2  224.68    5.20
   4   5   2  225.78    4.90
  -5   5   2    4.40    1.10
  -5   5   2    4.00    0.90
   5  -5   2    2.00    0.60
   5   5  -2    3.20    0.70
   5  -5   2    4.90    0.80
  -5  -5  -2    3.50    0.70
   5  -5   2    3.10    0.60
   5  -5   2    3.10    0.90
  -5  -5  -2    3.90    0.60
   5   5  -2    2.60    0.70
   5   5  -2    3.30    0.80
   5  -5   2    2.10    0.60
   5   5  -2    4.80    0.90
  -5  -5  -2    4.00    0.90
   5   5  -2    3.60    0.80
   5   5  -2    2.40    0.80
   5   5   2    3.10    0.60
  -5  -5   2    2.40    0.80
   5   5   2    4.10    0.70
   5  -5  -2    2.70    0.70
  -5   5  -2    3.10    0.90
   5   5   2    3.60    0.80
  -5   5  -2    2.20    0.90
   5  -5  -2    2.20    0.80
   5   5   2    3.90    0.80
   5  -5  -2    2.30    0.70
  -5  -5   2    3.60    0.70
   5  -5  -2    3.10    0.70
   5   5   2    3.20    0.80
   5   5   2    2.30    0.80
   6  -5   2   54.49    2.10
  -6  -5  -2   51.79    2.30
   6   5  -2   51.89    2.40
  -6   5   2   55.39    2.80
   6   5  -2   52.89    2.60
   6   5  -2   45.90    2.30
   6  -5   2   54.49    2.40
   6   5  -2   53.09    2.10
   6  -5   2   52.99    2.20
  -6   5   2   54.69    2.50
  -6  -5  -2   53.99    2.20
   6  -5   2   51.89    2.50
   6   5  -2   54.29    2.50
   6   5  -2   55.39    1.90
   6  -5   2   54.49    2.00
   6  -5  -2   51.89    2.30
   6  -5  -2   51.19    2.40
  -6  -5   2   55.99    2.40
  -6   5  -2   54.29    2.70
   6   5   2   50.59    2.20
   6   5   2   54.99    2.10
   6   5   2   54.29    2.10
   6  -5  -2   51.39    2.10
  -6   5  -2   55.49    2.60
   6  -5  -2   54.69    2.40
   6   5   2   51.19    2.50
   6   5   2   54.89    2.60
   6   5   2   55.39    2.50
  -7  -5  -2    6.70    1.20
  -7  -5  -2    7.20    1.20
   7  -5   2    3.90    1.00
   7   5  -2    5.40    1.20
   7  -5   2    6.20    0.90
   7  -5   2    5.80    0.90
   7   5  -2    7.10    1.10
   7   5  -2    6.60    0.90
  -7   5   2    5.80    1.40
   7   5  -2    5.60    1.20
   7  -5   2    6.60    1.30
   7   5  -2    4.60    1.20
   7   5  -2    5.90    1.30
   7  -5   2    6.90    1.20
   7   5   2    6.10    1.00
   7   5   2    7.50    1.40
  -7  -5   2    6.10    1.10
   7   5   2    4.60    1.00
   7   5   2    4.20    1.10
   7  -5  -2    6.80    1.20
  -7   5  -2    6.50    1.30
   7  -5  -2    7.00    1.20
   7   5   2    7.20    1.10
   7   5   2    5.20    1.10
   7  -5  -2    7.60    1.20
   7  -5  -2    5.40    1.10
  -7   5  -2    5.40    1.30
   8   5  -2  102.19    4.20
   8   5  -2  103.99    4.00
   8   5  -2  107.69    4.00
  -8   5   2  103.19    4.40
  -8  -5  -2  103.69    3.60
   8   5  -2  107.19    4.00
   8  -5   2  109.09    4.00
   8   5  -2  104.59    3.60
   8  -5   2  106.19    4.10
   8  -5   2  107.59    3.90
   8   5   2  107.69    4.20
   8   5   2  105.99    3.60
   8  -5  -2  109.09    3.90
   8   5   2  109.29    4.10
   8   5   2  107.29    4.10
   8  -5  -2  106.59    4.00
  -8   5  -2  100.49    4.20
   8  -5  -2  106.69    3.70
  -8   5  -2  100.09    4.10
   8  -5  -2  105.09    4.00
   8  -5  -2  108.79    3.70
   8  -5  -2  108.89    3.70
   8   5   2  100.99    3.50
   9   5  -2  154.08    5.20
   9  -5   2  149.49    5.10
   9  -5   2  157.78    5.10
   9   5  -2  161.98    5.40
   9   5  -2  155.08    5.50
   9  -5   2  143.89    5.10
   9   5  -2  152.78    5.10
   9   5  -2  151.58    4.70
   9  -5   2  156.28    5.40
   9  -5  -2  152.08    5.20
   9   5   2  142.89    5.20
   9   5   2  148.89    5.20
   9  -5  -2  156.18    4.60
   9  -5  -2  154.28    5.20
   9   5   2  148.59    4.60
   9   5   2  160.48    4.80
   9  -5  -2  151.38    4.90
  -9   5  -2  152.08    5.60
   9   5   2  164.88    5.50
   9  -5  -2  150.68    4.90
  10  -5   2   55.99    3.50
  10   5  -2   46.60    3.10
  10  -5   2   54.99    3.30
  10  -5   2   49.40    3.20
  10   5  -2   57.99    3.40
  10   5  -2   55.79    3.00
  10   5  -2   49.10    3.30
  10  -5  -2   54.09    3.20
  10   5   2   53.19    3.40
  10  -5  -2   56.99    3.50
 -10   5  -2   49.80    3.70
  10   5   2   45.80    2.80
  10  -5  -2   54.09    3.20
  10   5   2   54.39    3.50
  11   5  -2    7.00    1.60
  11   5  -2    8.10    1.90
  11  -5   2    5.50    1.70
  11   5  -2    4.40    1.60
  11   5   2    6.00    1.60
  11   5   2    6.50    1.80
  11  -5  -2   10.30    1.90
   0  -6   2  694.03   11.20
   0   6  -2  690.03   10.80
   0   6   2  710.63   11.00
   0  -6  -2  700.83   11.00
   0  -6  -2  686.43   11.40
   0  -6  -2  698.13   11.20
   0   6   2  703.33   10.60
   0  -6   2  702.43   11.60
   0   6   2  704.63   11.00
   0  -6  -2  708.13   11.00
   0   6  -2  683.63   11.20
   0   6  -2  710.83   10.60
   0  -6   2  706.83   11.20
   0   6  -2  686.43   11.50
   1   6  -2   83.79    2.20
   1  -6   2   81.79    2.20
  -1  -6  -2   84.59    2.40
   1   6  -2   81.69    2.30
  -1  -6  -2   83.09    2.20
  -1   6   2   83.09    2.10
   1  -6   2   82.99    2.40
  -1  -6  -2   79.69    2.10
   1  -6   2   83.09    2.50
   1  -6   2   87.69    2.10
   1   6  -2   83.49    1.80
  -1   6   2   86.29    2.20
  -1  -6  -2   81.59    2.40
   1   6  -2   82.99    2.50
   1  -6  -2   85.39    1.60
   1   6   2   82.09    2.00
  -1  -6   2   83.99    2.60
  -1  -6   2   83.89    2.30
   1  -6  -2   83.99    2.20
   1  -6  -2   85.79    2.50
  -1   6  -2   84.69    2.00
   1   6   2   81.69    2.20
   1  -6  -2   84.69    2.20
  -1  -6   2   87.09    2.30
  -1   6  -2   84.59    1.90
   1   6   2   81.89    2.20
  -1   6  -2   79.79    2.50
   1  -6  -2   82.89    2.30
   2  -6   2 1532.35   23.50
   2   6  -2 1478.55   23.00
  -2  -6  -2 1574.54   22.80
  -2   6   2 1529.75   22.50
   2  -6   2 1557.24   23.30
   2   6  -2 1577.54   22.40
   2  -6   2 1543.35   23.00
   2   6  -2 1522.25   23.50
   2   6  -2 1518.15   23.30
   2  -6   2 1536.85   22.90
  -2   6   2 1554.74   23.00
  -2   6   2 1564.94   22.90
   2  -6   2 1550.14   22.50
  -2  -6  -2 1517.35   23.40
   2  -6  -2 1560.74   22.70
   2   6   2 1567.84   22.00
  -2   6  -2 1544.45   22.90
  -2   6  -2 1547.65   22.30
   2  -6  -2 1502.55   23.20
  -2  -6   2 1562.84   23.60
   2   6   2 1558.94   23.10
  -2  -6   2 1531.95   22.80
   2  -6  -2 1528.25   23.30
   2  -6  -2 1530.25   23.10
   2   6   2 1514.95   23.00
   2   6   2 1510.55   23.10
   2  -6  -2 1530.45   23.00
   2   6   2 1561.94   23.40
   2  -6  -2 1549.24   22.30
  -2   6  -2 1539.15   23.60
  -2  -6   2 1550.64   23.10
   3  -6   2    5.40    0.70
  -3   6   2    6.40    0.90
  -3  -6  -2    5.30    0.80
   3  -6   2    5.20    0.70
   3  -6   2    6.80    1.00
  -3   6   2    5.10    0.70
   3  -6   2    7.30    0.80
  -3   6   2    6.50    0.50
   3  -6   2    5.70    0.80
  -3  -6  -2    5.00    0.60
   3   6  -2    8.20    0.70
   3   6  -2    6.50    0.90
   3   6  -2    5.00    0.80
   3   6  -2    6.00    0.80
   3  -6  -2    6.10    0.60
  -3  -6   2    5.30    0.80
  -3  -6   2    6.00    0.70
  -3   6  -2    5.40    0.90
   3   6   2    5.00    0.70
   3   6   2    5.90    0.50
   3  -6  -2    6.70    0.90
   3   6   2    5.20    0.80
  -3  -6   2    5.80    0.90
  -3   6  -2    5.30    0.70
   3   6   2    5.90    0.80
   3  -6  -2    5.70    0.60
   3  -6  -2    6.30    0.90
   3  -6  -2    5.60    0.90
   3   6   2    6.90    0.90
   4   6  -2  134.49    3.50
   4  -6   2  144.89    3.90
  -4   6   2  136.79    2.50
  -4   6   2  137.49    3.70
   4  -6   2  134.39    3.30
  -4  -6  -2  136.69    3.70
   4  -6   2  143.49    3.40
  -4  -6  -2  138.69    3.00
   4   6  -2  138.59    3.70
   4   6  -2  141.39    3.90
   4  -6   2  138.19    3.50
   4   6  -2  139.79    3.80
  -4   6   2  137.69    3.60
   4   6  -2  138.39    3.10
   4  -6  -2  135.99    3.60
   4  -6  -2  140.89    3.70
  -4  -6   2  137.09    3.10
  -4   6  -2  143.19    4.00
  -4  -6   2  133.99    3.40
   4  -6  -2  138.59    3.60
   4   6   2  135.99    3.70
  -4  -6   2  136.99    3.80
   4   6   2  139.69    3.60
   4  -6  -2  137.39    3.20
   4   6   2  136.39    2.90
   4   6   2  133.99    3.40
   4  -6  -2  141.39    2.60
  -4   6  -2  139.09    3.50
   4   6   2  141.79    3.70
   5   6  -2  417.66    8.50
  -5  -6  -2  432.06    8.30
   5   6  -2  420.66    8.40
   5   6  -2  413.76    7.60
   5   6  -2  427.16    7.50
   5  -6   2  418.36    7.60
  -5   6   2  403.56    8.40
   5  -6   2  429.86    8.10
  -5   6   2  423.56    8.20
   5  -6   2  430.76    8.60
   5   6  -2  420.46    8.30
   5  -6   2  432.36    7.90
  -5  -6  -2  424.16    7.20
   5   6  -2  422.36    8.10
  -5  -6   2  435.46    7.40
   5  -6  -2  439.06    8.30
  -5  -6   2  413.96    8.20
  -5   6  -2  413.76    8.20
   5   6   2  425.46    8.40
   5   6   2  422.86    8.30
  -5  -6   2  427.06    7.80
   5  -6  -2  413.36    8.00
  -5   6  -2  420.86    8.60
   5   6   2  430.66    7.70
   5   6   2  440.66    8.10
   5  -6  -2  408.06    8.20
   5   6   2  412.46    7.40
   5  -6  -2  427.06    7.70
   6  -6   2   61.49    2.30
   6   6  -2   57.89    2.70
  -6   6   2   58.79    2.80
  -6   6   2   57.89    2.60
   6   6  -2   56.09    2.50
   6  -6   2   59.29    2.20
   6   6  -2   54.59    2.60
   6   6  -2   59.79    2.20
   6  -6   2   54.29    2.50
   6  -6   2   58.59    2.40
   6  -6   2   58.89    2.80
  -6  -6  -2   53.89    2.50
   6   6  -2   58.89    2.80
   6   6  -2   59.49    2.20
   6   6   2   54.99    2.10
   6   6   2   63.09    2.30
   6   6   2   60.09    2.70
   6  -6  -2   58.89    2.60
   6  -6  -2   59.99    2.40
   6  -6  -2   59.89    2.60
  -6   6  -2   53.19    2.60
   6  -6  -2   53.89    2.60
  -6  -6   2   56.89    2.30
   6  -6  -2   56.09    2.40
   6   6   2   60.69    2.80
  -6   6  -2   57.99    2.90
  -6  -6   2   58.89    2.60
   6   6   2   60.09    2.70
   6   6   2   52.29    2.30
   7   6  -2   54.09    2.80
   7   6  -2   49.80    2.10
   7  -6   2   49.80    2.80
   7  -6   2   54.69    2.20
   7   6  -2   50.79    2.70
   7  -6   2   52.59    2.60
   7  -6   2   55.59    2.30
   7   6  -2   50.69    2.30
   7   6  -2   49.70    2.90
  -7  -6  -2   50.39    2.60
   7   6  -2   53.19    2.70
  -7   6   2   53.49    3.10
   7  -6   2   53.19    2.50
   7   6   2   50.99    2.80
   7   6   2   54.99    2.30
   7  -6  -2   54.59    2.50
  -7   6  -2   52.09    3.00
  -7   6  -2   51.19    2.80
   7   6   2   51.29    2.80
   7   6   2   52.39    2.80
   7  -6  -2   49.30    2.60
   7   6   2   53.09    2.30
   7  -6  -2   53.59    2.70
  -7  -6   2   53.49    2.60
   7   6   2   57.09    2.50
   7  -6  -2   47.50    2.70
   7  -6  -2   51.99    2.50
   8  -6   2   90.49    3.90
   8  -6   2   92.89    3.80
   8   6  -2   91.39    3.80
   8   6  -2   97.99    3.40
   8   6  -2   94.89    3.80
  -8  -6  -2   94.39    3.60
   8   6  -2   95.89    3.80
   8   6  -2   91.69    4.00
   8  -6   2   95.19    3.70
  -8   6   2   90.59    4.20
   8  -6  -2   82.89    3.70
  -8   6  -2   93.99    4.10
   8   6   2   95.49    3.90
   8   6   2   96.69    4.00
   8   6   2   94.49    3.50
   8   6   2   91.09    3.30
   8   6   2   90.49    3.90
   8  -6  -2   97.09    3.70
   8  -6  -2   95.09    3.50
   8  -6  -2   90.89    3.60
  -8   6  -2   89.99    4.00
   8  -6  -2   97.19    3.50
   8  -6  -2   91.89    3.80
   9   6  -2   44.50    2.90
   9  -6   2   51.49    3.20
   9   6  -2   42.00    3.20
   9   6  -2   47.40    3.00
   9  -6   2   44.50    2.90
   9  -6   2   46.50    2.90
   9   6  -2   48.70    2.60
   9   6  -2   45.20    3.10
   9   6   2   47.20    2.70
  -9   6  -2   42.70    3.30
   9   6   2   45.90    2.60
   9  -6  -2   47.90    2.80
   9   6   2   40.70    3.00
   9  -6  -2   49.30    2.80
  -9   6  -2   44.60    3.30
   9   6   2   45.00    3.10
   9  -6  -2   43.40    3.00
   9   6   2   40.40    3.10
   9  -6  -2   42.30    2.50
  10  -6   2   27.40    2.70
  10  -6   2   30.80    2.80
  10   6  -2   29.90    2.90
  10   6  -2   34.30    2.90
  10   6  -2   33.90    2.50
  10   6  -2   28.20    2.60
  10  -6   2   38.90    2.80
 -10   6  -2   35.70    3.50
  10  -6  -2   33.70    2.90
  10   6   2   35.00    3.00
  10   6   2   34.30    3.20
  10   6   2   33.40    2.40
  10  -6  -2   35.50    2.80
  10  -6  -2   30.90    2.60
   0   7   2  153.28    3.40
   0  -7  -2  152.38    3.70
   0  -7   2  154.38    3.50
   0   7  -2  151.98    3.60
   0  -7  -2  154.68    3.60
   0  -7   2  148.79    3.80
   0  -7  -2  151.48    3.40
   0   7  -2  157.08    3.00
   0  -7  -2  155.78    3.40
   0   7   2  156.78    3.00
   0   7   2  154.18    3.40
   0   7  -2  151.98    3.10
   0  -7   2  144.29    3.50
   0   7  -2  155.88    3.90
   1  -7   2  803.52   13.20
   1  -7   2  821.02   12.60
   1   7  -2  811.12   11.90
  -1  -7  -2  789.52   13.00
   1  -7   2  763.02   12.70
  -1  -7  -2  808.22   13.10
   1  -7   2  809.12   13.10
   1   7  -2  785.52   13.20
  -1   7   2  811.82   12.70
  -1  -7  -2  787.82   12.60
   1   7  -2  800.42   11.90
   1   7  -2  811.52   12.50
  -1   7   2  784.22   12.40
   1   7  -2  784.32   13.00
   1   7   2  799.12   12.40
   1  -7  -2  799.12   13.10
   1  -7  -2  801.12   12.80
  -1  -7   2  807.52   13.40
  -1   7  -2  808.92   13.30
  -1  -7   2  786.72   12.80
   1  -7  -2  813.42   12.70
   1  -7  -2  785.52   12.70
   1   7   2  763.92   12.60
  -1   7  -2  795.52   12.30
  -1  -7   2  789.82   12.80
   1   7   2  800.82   12.70
   1  -7  -2  815.12   11.50
  -1   7  -2  796.12   12.00
   2   7  -2  665.23   11.60
   2   7  -2  688.13   10.40
   2   7  -2  688.43   11.80
   2  -7   2  694.33   11.20
   2  -7   2  682.13   11.60
   2  -7   2  689.63   11.80
  -2   7   2  705.63   11.10
  -2  -7  -2  688.43   11.60
  -2  -7  -2  676.73   11.00
   2   7  -2  718.83   10.50
   2   7  -2  675.13   11.30
   2  -7   2  666.43   11.20
   2  -7   2  706.63   10.70
  -2   7   2  716.93   11.40
  -2  -7  -2  673.23   11.60
  -2   7   2  703.93   10.80
   2  -7  -2  683.23   11.30
  -2   7  -2  694.13   10.40
  -2  -7   2  680.33   11.30
  -2   7  -2  688.23   11.00
   2   7   2  663.93   11.30
   2  -7  -2  711.83   10.40
  -2   7  -2  689.63   11.90
   2  -7  -2  697.23   11.10
  -2  -7   2  686.43   11.20
   2  -7  -2  686.23   11.60
   2   7   2  680.03   11.60
   2   7   2  679.13   11.20
   2  -7  -2  681.03   11.60
   2   7   2  708.23   11.40
  -2  -7   2  695.23   11.90
   3  -7   2 1257.97   19.60
  -3   7   2 1274.17   19.70
   3  -7   2 1293.97   19.10
   3   7  -2 1257.57   19.80
   3  -7   2 1265.17   20.20
   3   7  -2 1299.17   18.80
  -3   7   2 1288.77   18.80
   3  -7   2 1256.67   19.50
  -3  -7  -2 1257.07   20.10
   3  -7   2 1266.77   19.70
   3   7  -2 1256.47   20.00
  -3   7   2 1273.17   19.70
   3   7  -2 1255.17   20.10
  -3  -7  -2 1273.87   19.20
  -3   7  -2 1266.47   19.50
   3   7   2 1256.37   18.50
   3  -7  -2 1261.87   19.10
  -3  -7   2 1284.47   19.40
   3  -7  -2 1252.87   20.00
  -3  -7   2 1264.57   20.30
  -3  -7   2 1281.07   19.60
   3   7   2 1253.07   19.70
   3   7   2 1280.07   19.60
   3   7   2 1283.27   20.00
   3  -7  -2 1255.27   19.90
   3   7   2 1264.57   19.80
  -3   7  -2 1274.27   20.30
   3  -7  -2 1281.27   19.80
   3  -7  -2 1295.47   18.90
  -3   7  -2 1274.47   18.40
   4  -7   2  264.27    5.40
   4  -7   2  262.97    5.60
   4  -7   2  266.67    5.40
   4   7  -2  265.97    5.90
   4   7  -2  268.77    4.90
   4   7  -2  259.67    6.00
   4   7  -2  272.37    5.90
   4  -7   2  271.27    6.10
  -4   7   2  273.77    4.50
  -4   7   2  262.47    5.80
   4  -7   2  272.57    5.30
  -4  -7  -2  264.07    5.00
  -4  -7  -2  257.67    5.90
  -4   7   2  266.27    5.70
  -4   7  -2  262.27    6.10
   4  -7  -2  265.77    4.70
  -4  -7   2  264.47    5.50
   4  -7  -2  263.87    5.60
   4  -7  -2  263.97    5.80
   4  -7  -2  267.67    5.10
   4  -7  -2  259.87    5.80
   4   7   2  265.67    5.80
  -4  -7   2  268.47    5.20
  -4   7  -2  269.27    5.60
   4   7   2  264.47    5.80
   4   7   2  267.57    5.50
   4   7   2  265.97    5.80
   4   7   2  258.97    4.70
  -4  -7   2  268.37    6.10
   5  -7   2  330.37    7.40
  -5  -7  -2  347.77    6.20
   5  -7   2  343.17    6.60
   5   7  -2  336.07    6.60
  -5   7   2  330.37    7.20
  -5   7   2  339.17    7.10
   5   7  -2  338.87    7.20
   5   7  -2  332.77    7.40
   5   7  -2  337.27    7.30
   5  -7   2  342.67    6.70
   5   7  -2  341.27    6.30
  -5  -7  -2  339.37    7.20
   5  -7   2  344.87    7.00
   5   7   2  336.87    6.10
  -5  -7   2  344.17    6.70
   5   7   2  344.67    7.10
   5   7   2  341.77    7.30
   5  -7  -2  323.17    7.10
   5  -7  -2  334.27    6.90
   5   7   2  333.07    6.70
  -5   7  -2  333.87    7.00
  -5   7  -2  330.97    7.50
   5   7   2  342.37    7.20
  -5  -7   2  347.47    6.30
  -5  -7   2  340.57    7.30
   5  -7  -2  334.17    7.20
   5  -7  -2  343.47    6.50
   6  -7   2    4.40    0.90
  -6  -7  -2    3.90    1.10
   6   7  -2    4.10    1.10
   6  -7   2    4.00    1.20
   6  -7   2    4.50    1.00
   6   7  -2    5.10    1.20
   6   7  -2    5.10    1.10
   6  -7   2    4.30    0.90
   6  -7   2    3.90    1.00
   6   7  -2    3.10    1.00
   6   7  -2    4.10    0.90
  -6   7   2    3.90    1.20
   6   7  -2    4.80    0.90
   6  -7  -2    4.70    1.10
  -6  -7   2    3.70    1.10
  -6   7  -2    2.50    1.00
  -6  -7   2    3.90    0.90
   6  -7  -2    3.90    0.90
   6  -7  -2    4.40    1.00
   6  -7  -2    3.20    1.10
   6   7   2    2.40    0.80
  -6   7  -2    4.30    1.10
   6   7   2    3.90    1.00
   6  -7  -2    7.00    1.20
   6   7   2    3.60    0.80
   6   7   2    4.00    1.00
   6   7   2    4.60    1.00
   7   7  -2   75.89    2.70
  -7  -7  -2   75.09    3.20
   7  -7   2   75.59    3.20
   7  -7   2   74.59    2.70
   7   7  -2   72.09    2.70
  -7   7   2   72.49    3.50
   7   7  -2   77.49    3.30
   7   7  -2   71.79    3.20
   7  -7   2   78.89    3.50
   7  -7   2   72.99    3.00
   7  -7   2   73.09    2.80
   7   7  -2   73.49    3.20
   7   7  -2   74.39    3.50
   7  -7  -2   73.99    3.20
   7   7   2   72.69    2.70
   7   7   2   76.59    3.40
   7  -7  -2   75.79    3.00
  -7  -7   2   75.29    3.20
   7  -7  -2   72.89    3.10
  -7   7  -2   74.79    3.60
   7  -7  -2   70.99    2.90
   7   7   2   69.29    2.60
   7  -7  -2   71.79    3.20
  -7   7  -2   72.79    3.40
   7   7   2   73.29    3.10
   7   7   2   70.39    3.20
   8   7  -2   29.50    2.00
   8  -7   2   28.00    2.30
   8   7  -2   30.60    2.40
   8   7  -2   27.10    2.30
   8   7  -2   26.60    2.30
  -8  -7  -2   27.90    2.30
   8  -7   2   27.00    2.20
   8   7  -2   31.90    2.80
   8  -7   2   30.10    2.60
   8   7   2   33.00    2.70
   8  -7  -2   29.80    2.50
   8  -7  -2   29.20    2.30
   8   7   2   28.50    2.20
   8   7   2   29.80    2.20
  -8  -7   2   28.70    2.30
   8   7   2   28.70    1.90
  -8   7  -2   28.90    2.60
   8   7   2   32.90    2.50
   8  -7  -2   32.50    2.30
  -8   7  -2   30.90    2.90
   8  -7  -2   32.20    2.20
   8  -7  -2   27.70    2.20
   9   7  -2   70.79    3.10
   9   7  -2   65.89    3.70
   9  -7   2   68.69    3.40
   9  -7   2   69.19    3.60
   9   7  -2   65.39    3.50
   9   7  -2   64.39    3.50
   9  -7   2   65.19    3.60
   9  -7  -2   68.99    3.20
  -9   7  -2   63.69    3.80
   9  -7  -2   63.49    3.30
   9   7   2   67.59    3.70
   9   7   2   66.99    3.20
   9  -7  -2   68.49    3.40
   9  -7  -2   65.79    3.60
   9   7   2   63.79    3.00
  10  -7   2   35.50    3.00
  10   7  -2   36.40    2.50
  10   7  -2   34.10    3.00
  10   7  -2   34.90    3.00
  10  -7   2   30.90    2.70
  10   7  -2   33.70    2.90
  10  -7   2   38.50    3.00
  10  -7  -2   32.00    3.10
  10  -7  -2   38.90    2.80
 -10   7  -2   34.10    3.50
  10   7   2   39.40    3.20
   0  -8  -2    5.40    0.90
   0  -8   2    3.90    0.80
   0   8  -2    4.40    0.80
   0   8   2    7.00    0.90
   0   8  -2    4.40    0.80
   0  -8  -2    7.40    1.00
   0   8   2    5.10    0.60
   0  -8   2    3.90    0.70
   0  -8  -2    5.20    0.80
   0   8  -2    4.60    0.50
   0   8   2    4.60    0.80
   0   8  -2    6.00    0.70
   0  -8   2    4.40    0.80
   1  -8   2   77.09    2.40
  -1  -8  -2   79.09    2.70
   1   8  -2   78.69    2.60
   1   8  -2   82.99    1.80
   1  -8   2   77.89    2.70
   1   8  -2   80.59    2.80
   1   8  -2   79.99    1.70
  -1  -8  -2   77.79    2.40
   1  -8   2   72.59    2.70
   1  -8   2   78.29    2.30
   1   8  -2   82.09    2.30
  -1   8   2   75.89    2.40
  -1  -8  -2   78.19    2.60
  -1   8   2   81.59    2.30
   1  -8  -2   79.89    2.60
  -1   8  -2   81.59    2.80
  -1   8  -2   77.89    1.90
  -1  -8   2   76.99    2.80
   1   8   2   84.89    2.20
   1   8   2   80.79    2.50
  -1  -8   2   81.49    2.50
  -1  -8   2   80.89    2.50
  -1   8  -2   77.79    2.00
   1  -8  -2   73.19    2.60
   1   8   2   77.99    2.40
   1  -8  -2   77.59    2.50
   2  -8   2  643.04   11.00
  -2  -8  -2  673.63   10.80
  -2   8   2  653.33   10.50
  -2  -8  -2  656.43   11.30
   2   8  -2  660.03    9.80
   2   8  -2  660.23    9.80
  -2   8   2  661.53   10.60
   2   8  -2  648.04   11.40
  -2   8   2  643.54   11.00
   2   8  -2  640.34   10.80
   2  -8   2  650.43   11.50
  -2  -8  -2  643.34   11.40
   2  -8   2  643.84   10.80
   2  -8   2  648.84   11.30
   2   8  -2  644.34   11.50
   2  -8  -2  648.04   11.20
   2  -8  -2  650.43    9.80
  -2  -8   2  629.54   10.90
   2   8   2  657.23   11.00
   2   8   2  660.33   11.40
   2  -8  -2  643.74   11.40
  -2   8  -2  645.64    9.70
  -2   8  -2  641.34   11.50
  -2  -8   2  652.63   10.90
  -2  -8   2  629.94   11.60
   2   8   2  654.13   11.00
  -2   8  -2  649.93   10.50
   2  -8  -2  639.24   11.00
   2  -8  -2  655.43   10.80
   2   8   2  654.33   10.80
   3   8  -2   59.89    2.60
  -3  -8  -2   58.29    2.60
   3   8  -2   58.29    1.60
  -3  -8  -2   58.99    2.00
  -3   8   2   60.39    1.80
   3   8  -2   57.19    2.50
   3  -8   2   59.99    1.90
   3  -8   2   60.09    2.20
   3  -8   2   56.09    2.10
   3  -8   2   57.69    2.60
   3   8  -2   58.39    2.30
  -3   8   2   57.99    2.20
  -3   8   2   59.89    2.30
  -3  -8  -2   58.29    2.30
   3  -8   2   61.89    2.40
   3   8  -2   57.39    1.50
  -3  -8   2   55.29    2.20
   3  -8  -2   60.39    2.30
  -3  -8   2   58.99    2.70
   3  -8  -2   59.59    1.70
  -3  -8   2   59.49    2.10
   3   8   2   60.39    2.50
   3   8   2   59.69    2.30
  -3   8  -2   58.19    2.10
  -3   8  -2   59.99    2.70
   3  -8  -2   61.99    2.40
   3   8   2   55.29    2.30
   3  -8  -2   58.49    2.50
   3   8   2   58.09    2.20
   3  -8  -2   61.69    2.10
  -4  -8  -2  669.03   10.80
   4   8  -2  656.13   10.40
  -4   8   2  664.53   11.60
  -4   8   2  650.03   10.20
   4   8  -2  632.44   11.60
   4   8  -2  660.53   11.30
  -4  -8  -2  641.64   11.90
   4  -8   2  644.64   12.00
   4   8  -2  637.04   11.80
   4  -8   2  660.03   11.30
   4  -8   2  651.23   11.40
   4  -8   2  647.24   11.20
  -4   8   2  660.63   11.50
   4   8  -2  653.53   12.00
   4  -8   2  666.33   10.90
   4  -8  -2  670.93   11.50
   4  -8  -2  650.43   11.70
  -4  -8   2  668.13   11.00
  -4   8  -2  642.44   11.30
   4  -8  -2  658.73   10.60
   4   8   2  645.74   11.70
  -4  -8   2  665.23   12.10
   4   8   2  648.14   11.60
   4  -8  -2  642.24   11.80
   4   8   2  661.83   11.60
   4   8   2  642.34   11.40
  -4   8  -2  641.14   12.10
   4   8   2  660.33   11.40
  -4  -8   2  655.33   11.30
   5   8  -2   21.60    1.20
   5   8  -2   23.70    1.60
   5  -8   2   22.80    1.50
  -5  -8  -2   25.20    1.50
   5   8  -2   20.60    1.70
   5  -8   2   23.20    1.90
  -5  -8  -2   20.40    1.90
   5   8  -2   22.40    2.00
   5   8  -2   22.80    1.80
  -5   8   2   21.50    1.80
   5  -8   2   21.20    1.60
   5  -8   2   22.70    1.60
  -5  -8   2   24.50    1.60
  -5  -8   2   22.10    2.00
   5   8   2   22.70    1.30
   5   8   2   24.50    1.70
   5  -8  -2   25.90    1.50
   5   8   2   27.50    2.00
   5   8   2   19.10    1.60
   5  -8  -2   24.10    1.90
   5   8   2   23.30    1.70
  -5   8  -2   23.00    1.80
  -5  -8   2   23.00    1.40
   5  -8  -2   19.70    1.80
   5  -8  -2   22.00    1.70
  -5   8  -2   18.00    1.80
  -6  -8  -2   43.50    2.60
   6  -8   2   47.60    2.70
   6  -8   2   49.30    2.20
   6  -8   2   45.80    2.40
  -6   8   2   46.80    2.70
   6   8  -2   48.50    2.00
   6   8  -2   48.40    2.60
   6   8  -2   47.00    2.80
   6  -8   2   48.70    2.30
   6   8  -2   45.90    2.60
   6   8  -2   47.10    2.20
   6   8   2   47.60    2.50
  -6  -8   2   48.10    2.30
   6   8   2   49.99    2.50
  -6   8  -2   50.79    3.00
   6  -8  -2   46.30    2.50
   6   8   2   52.39    2.80
   6  -8  -2   48.30    2.50
   6   8   2   46.30    2.20
   6  -8  -2   50.29    2.20
   6   8   2   49.30    2.60
  -6   8  -2   47.90    2.60
  -6  -8   2   40.70    2.60
   6  -8  -2   51.29    2.70
  -7   8   2   47.90    3.00
  -7  -8  -2   58.29    3.00
   7   8  -2   56.69    3.20
   7  -8   2   58.39    2.60
   7   8  -2   55.49    3.00
   7   8  -2   58.19    2.30
   7   8  -2   55.59    3.00
   7  -8   2   54.59    2.80
   7   8  -2   56.59    2.50
   7  -8   2   60.69    2.80
   7  -8   2   60.79    2.60
   7  -8   2   59.09    3.20
  -7  -8   2   58.69    3.10
  -7   8  -2   59.29    3.40
   7  -8  -2   60.09    3.00
  -7   8  -2   56.19    3.10
   7  -8  -2   52.49    2.90
   7   8   2   59.79    3.10
   7   8   2   56.29    2.50
   7  -8  -2   58.69    2.80
   7  -8  -2   60.09    3.00
   7   8   2   57.59    3.00
   7  -8  -2   56.89    2.60
   7   8   2   54.29    2.80
  -8  -8  -2   47.60    3.00
   8   8  -2   51.49    3.10
   8   8  -2   50.79    3.10
   8   8  -2   55.69    2.50
   8  -8   2   55.39    2.90
   8   8  -2   56.49    3.50
   8  -8   2   56.19    2.90
   8  -8   2   48.30    3.20
   8  -8   2   54.99    3.00
  -8   8  -2   53.69    3.30
   8   8   2   55.89    2.90
   8   8   2   54.09    3.20
  -8  -8   2   53.79    3.10
   8  -8  -2   52.89    3.00
   8  -8  -2   55.59    3.10
   8  -8  -2   52.39    3.00
   8  -8  -2   53.89    2.70
   8   8   2   51.29    2.50
   8  -8  -2   52.09    2.80
   9  -8   2    5.30    1.70
   9   8  -2    8.10    1.70
   9   8  -2    9.00    1.90
   9  -8   2    7.20    1.60
   9  -8   2   10.10    1.80
  -9  -8  -2    5.50    1.80
   9  -8  -2    8.60    1.60
   9   8   2    8.30    1.50
  -9   8  -2   12.70    2.30
   9  -8  -2    7.40    1.80
   9  -8  -2   11.50    1.80
   9   8   2    9.50    1.90
   9  -8  -2   10.60    1.70
  10   8  -2   15.80    2.30
  10  -8   2   18.70    2.30
  10   8  -2   14.90    2.20
  10  -8   2   14.90    2.30
  10  -8   2    9.90    2.00
  10  -8  -2   17.90    2.20
  10   8   2   19.00    2.50
   0  -9   2   11.80    1.20
   0  -9  -2   10.00    1.00
   0   9  -2   13.30    1.00
   0  -9   2   15.80    1.60
   0  -9  -2   13.70    1.40
   0   9   2   15.80    1.20
   0  -9   2   11.80    1.30
   0   9  -2   11.80    1.20
   0   9   2   13.40    0.80
   0   9  -2   12.70    0.80
   0   9   2   13.80    1.20
   0  -9  -2   10.00    1.20
  -1   9   2   55.19    2.20
   1  -9   2   52.49    2.10
  -1  -9  -2   49.50    2.30
   1   9  -2   54.29    1.90
   1  -9   2   48.60    2.40
  -1  -9  -2   51.99    2.00
   1   9  -2   55.69    1.40
   1   9  -2   51.79    2.30
  -1  -9  -2   52.79    2.30
   1  -9   2   50.89    2.30
  -1   9   2   50.79    1.90
   1  -9   2   52.09    2.00
   1   9  -2   54.59    2.50
   1  -9  -2   48.60    2.20
   1   9   2   52.69    1.80
  -1  -9   2   50.29    2.50
  -1   9  -2   51.49    1.60
   1   9   2   55.49    2.20
   1  -9  -2   50.79    2.10
  -1   9  -2   50.79    1.50
  -1   9  -2   53.69    2.50
   1   9   2   54.29    2.10
  -1  -9   2   48.70    2.10
   1  -9  -2   51.39    2.20
  -1  -9   2   50.49    2.20
   2  -9   2   63.79    2.60
  -2   9   2   64.19    2.10
  -2   9   2   66.39    2.40
   2   9  -2   62.29    2.50
   2   9  -2   64.69    2.70
   2   9  -2   63.59    2.30
   2  -9   2   60.39    2.20
  -2  -9  -2   62.39    2.50
  -2  -9  -2   60.59    2.20
   2  -9   2   60.29    2.40
   2  -9   2   57.49    2.60
  -2  -9   2   66.79    2.40
  -2  -9   2   64.09    2.40
   2  -9  -2   58.99    2.40
   2   9   2   63.29    2.40
   2   9   2   60.49    2.30
   2  -9  -2   65.59    2.40
   2   9   2   59.29    2.10
   2  -9  -2   63.99    2.40
   2  -9  -2   62.89    2.60
  -2   9  -2   60.49    2.00
  -2   9  -2   63.69    2.70
  -2  -9   2   63.19    2.80
   3  -9   2   25.00    1.60
  -3   9   2   21.30    1.60
  -3   9   2   19.80    1.20
  -3  -9  -2   22.20    1.60
   3   9  -2   22.90    1.90
   3   9  -2   21.80    1.70
  -3  -9  -2   23.00    1.40
   3  -9   2   20.30    1.60
  -3   9   2   21.90    1.50
   3  -9   2   21.80    1.80
   3   9  -2   22.80    1.60
  -3  -9  -2   22.20    1.80
   3  -9   2   20.70    1.20
   3  -9   2   22.30    1.60
  -3  -9   2   19.70    1.50
   3  -9  -2   22.90    1.80
   3   9   2   22.40    1.50
  -3   9  -2   19.80    1.80
   3  -9  -2   22.10    1.70
  -3   9  -2   21.40    1.40
   3   9   2   21.80    1.70
   3   9   2   23.00    1.50
  -3  -9   2   21.20    1.80
   3  -9  -2   19.80    1.40
  -3  -9   2   21.40    1.50
   3   9   2   23.70    1.70
   3  -9  -2   22.40    1.70
  -4  -9  -2  187.18    4.20
   4  -9   2  182.88    4.50
  -4  -9  -2  178.78    5.00
  -4   9   2  179.88    4.70
   4  -9   2  181.58    4.60
   4   9  -2  180.38    4.50
   4   9  -2  176.78    4.90
   4  -9   2  180.98    4.60
   4   9  -2  177.28    5.10
  -4  -9  -2  180.08    4.70
   4   9  -2  178.28    4.70
   4  -9   2  190.68    4.10
   4  -9   2  180.68    5.10
  -4   9   2  192.68    5.00
   4  -9  -2  173.58    4.70
   4   9   2  190.18    4.90
  -4   9  -2  179.88    4.50
   4   9   2  183.98    4.90
  -4  -9   2  186.48    5.20
   4  -9  -2  177.18    5.00
   4  -9  -2  183.38    3.90
   4  -9  -2  178.68    4.70
  -4  -9   2  180.18    4.30
  -4  -9   2  183.08    4.60
  -4   9  -2  191.28    5.30
   4   9   2  181.68    4.70
   4   9   2  170.18    4.50
   5   9  -2   75.39    3.30
   5   9  -2   68.49    3.00
   5  -9   2   69.39    3.20
  -5  -9  -2   70.69    2.50
   5  -9   2   69.89    2.70
   5   9  -2   68.29    3.00
   5  -9   2   71.29    2.80
  -5   9   2   66.19    2.90
   5  -9   2   72.59    2.50
  -5  -9  -2   67.09    3.20
   5   9  -2   69.79    2.80
   5  -9  -2   70.39    3.00
   5   9   2   72.39    2.80
  -5  -9   2   69.39    2.50
  -5   9  -2   72.69    3.30
   5  -9  -2   68.99    2.80
  -5  -9   2   72.59    3.30
   5   9   2   71.09    3.00
   5   9   2   73.39    3.10
  -5   9  -2   71.29    2.90
  -5  -9   2   72.29    2.80
   5   9   2   71.59    3.00
   5  -9  -2   72.79    3.10
   5  -9  -2   68.99    2.40
   6  -9   2   16.00    1.60
  -6  -9  -2   16.20    1.90
   6  -9   2   19.90    1.80
  -6   9   2   14.70    1.80
   6   9  -2   18.10    2.00
   6  -9   2   12.60    1.70
   6   9  -2   16.50    2.10
   6   9  -2   16.40    1.80
   6   9  -2   15.60    1.60
   6  -9   2   17.30    1.80
  -6  -9   2   11.90    1.70
   6   9   2   17.10    1.70
   6  -9  -2   17.70    1.50
  -6   9  -2   14.30    1.70
   6   9   2   15.10    1.70
  -6   9  -2   16.10    2.10
   6   9   2   13.80    1.70
   6  -9  -2   15.40    1.80
   6  -9  -2   16.30    1.80
   6  -9  -2   17.10    1.80
   6   9   2   13.20    1.60
  -6  -9   2   15.90    1.50
   7   9  -2  107.79    4.40
   7   9  -2  103.19    4.10
   7   9  -2  107.49    4.20
   7  -9   2  108.19    3.70
  -7  -9  -2  100.69    4.10
   7   9  -2  103.49    3.50
   7  -9   2   98.49    3.90
   7  -9   2  105.89    3.60
   7  -9   2  100.99    4.30
   7  -9  -2   99.69    4.10
  -7  -9   2  105.99    4.20
   7  -9  -2  104.89    3.80
   7  -9  -2  101.69    4.10
   7   9   2  104.09    3.70
   7   9   2  104.49    4.20
   7  -9  -2   99.89    3.40
  -7  -9   2  100.29    3.50
  -7   9  -2  101.39    4.40
   7  -9  -2  109.69    4.10
   7   9   2  106.29    4.00
  -7   9  -2  100.29    4.10
   8   9  -2   42.20    2.90
   8  -9   2   45.80    2.70
   8   9  -2   39.90    2.90
   8   9  -2   45.90    3.30
   8  -9   2   46.10    2.90
   8  -9   2   47.60    3.30
   8  -9   2   47.10    2.50
  -8  -9  -2   42.80    3.00
   8   9   2   46.00    3.20
   8   9   2   44.00    2.80
   8  -9  -2   44.10    2.50
  -8  -9   2   42.10    3.00
   8  -9  -2   43.50    3.00
  -8   9  -2   53.59    3.40
   8   9   2   41.60    2.50
   8  -9  -2   51.59    3.30
   8  -9  -2   46.50    2.90
   8  -9  -2   43.90    2.80
   9  -9   2    8.30    1.80
   9   9  -2    6.70    1.60
  -9  -9  -2    5.30    1.60
   9   9  -2    4.80    1.60
   9  -9   2    5.90    1.50
   9  -9   2    6.50    1.80
   9  -9  -2    9.10    1.70
   9  -9  -2    5.40    1.50
  -9   9  -2    3.30    1.80
   9  -9  -2    9.00    1.80
   9   9   2    7.30    1.60
   9   9   2    5.90    1.80
   9  -9  -2    8.10    1.50
   0 -10  -2  153.58    4.00
   0  10   2  153.28    3.90
   0 -10   2  142.59    4.00
   0 -10  -2  150.98    4.40
   0 -10   2  159.88    4.60
   0  10  -2  174.48    3.80
   0  10  -2  160.98    4.60
   0  10   2  160.68    4.10
   0 -10  -2  160.58    4.40
   0 -10   2  151.18    4.30
   0  10  -2  155.48    3.40
   1 -10   2  177.58    4.90
  -1 -10  -2  169.88    4.70
  -1  10   2  179.78    4.20
   1  10  -2  177.28    4.80
   1 -10   2  178.58    4.20
   1  10  -2  182.48    4.90
   1 -10   2  169.78    4.70
  -1  10   2  183.68    4.50
   1  10  -2  180.18    4.00
   1 -10   2  176.48    4.50
  -1 -10  -2  176.28    4.30
  -1 -10  -2  172.48    4.70
   1 -10  -2  175.48    4.80
  -1 -10   2  178.38    4.50
  -1  10  -2  173.78    4.90
   1  10   2  183.48    3.90
  -1 -10   2  172.98    4.90
   1 -10  -2  180.88    4.60
  -1 -10   2  174.88    4.50
   1 -10  -2  175.28    4.40
   1  10   2  181.08    4.40
   1  10   2  178.28    4.50
  -1  10  -2  177.78    3.60
   2  10  -2   18.10    1.80
  -2 -10  -2   23.00    2.00
   2 -10   2   20.40    1.50
   2 -10   2   19.40    1.80
   2 -10   2   20.00    1.50
  -2 -10  -2   23.10    1.80
   2  10  -2   17.70    1.60
  -2  10   2   21.50    1.90
  -2  10   2   20.30    1.30
  -2 -10  -2   21.50    1.50
   2 -10   2   19.30    1.70
   2  10  -2   21.30    1.40
  -2 -10   2   23.80    1.90
   2  10   2   23.40    1.40
   2 -10  -2   20.00    1.70
   2 -10  -2   19.80    1.60
  -2  10  -2   20.40    1.90
   2 -10  -2   23.50    1.60
  -2 -10   2   19.40    1.50
   2  10   2   21.60    1.70
   2 -10  -2   21.00    1.80
   2  10   2   19.60    1.50
  -2 -10   2   17.60    1.50
  -2  10  -2   20.00    1.30
  -3 -10  -2   32.40    1.80
   3 -10   2   31.80    1.90
   3 -10   2   31.60    2.10
  -3  10   2   31.50    1.50
   3 -10   2   26.80    1.90
  -3 -10  -2   28.20    2.20
   3  10  -2   31.10    1.80
   3  10  -2   31.60    1.80
   3  10  -2   30.60    2.10
   3  10  -2   34.00    2.30
   3 -10   2   32.90    1.80
  -3 -10  -2   30.50    2.00
  -3 -10   2   32.20    1.90
   3  10   2   31.10    1.90
   3  10   2   30.50    2.10
   3  10   2   32.60    1.80
  -3 -10   2   31.80    2.40
   3 -10  -2   32.10    2.20
   3  10   2   33.80    2.00
   3 -10  -2   31.00    2.00
   3 -10  -2   33.10    1.80
  -3  10  -2   34.40    1.70
   3 -10  -2   29.20    1.90
  -3  10  -2   34.20    2.30
  -3 -10   2   31.00    1.80
   4  10  -2   93.59    3.70
   4  10  -2   88.89    3.50
  -4 -10  -2   97.89    3.00
   4 -10   2   88.59    3.60
   4 -10   2   93.49    3.30
   4  10  -2   90.89    3.20
  -4  10   2   88.69    3.10
   4  10  -2   92.49    3.30
   4 -10   2   97.69    3.30
  -4 -10  -2   91.39    3.60
   4 -10   2   94.99    3.20
  -4 -10  -2   91.19    3.30
   4 -10   2   95.09    3.10
   4  10   2   92.39    3.20
   4  10   2   96.49    3.50
   4 -10  -2   89.89    3.30
  -4 -10   2   90.49    3.00
   4 -10  -2   88.39    3.30
   4  10   2   90.79    3.50
   4  10   2   94.39    3.20
  -4 -10   2   91.09    3.80
  -4  10  -2   94.39    3.10
  -4 -10   2   89.89    3.20
  -4  10  -2   95.19    3.80
   4 -10  -2   86.99    3.50
   5  10  -2   61.09    3.20
   5 -10   2   61.09    2.70
   5  10  -2   57.99    2.70
  -5 -10  -2   56.59    3.00
   5  10  -2   58.09    2.80
   5 -10   2   61.49    3.10
  -5  10   2   58.49    2.80
   5 -10   2   60.39    2.70
   5 -10   2   61.59    2.40
   5  10  -2   61.19    3.10
  -5 -10  -2   57.19    2.40
  -5 -10  -2   62.29    2.80
  -5  10  -2   59.89    2.70
   5 -10  -2   57.99    3.00
   5 -10  -2   60.09    2.90
  -5  10  -2   61.29    3.20
   5  10   2   63.39    2.80
  -5 -10   2   60.89    2.40
  -5 -10   2   53.19    3.00
  -5 -10   2   64.19    2.70
   5  10   2   60.09    2.60
   5 -10  -2   57.19    2.80
   5  10   2   66.89    3.10
   6 -10   2  104.69    3.80
   6 -10   2  108.09    3.70
   6 -10   2  111.39    3.50
  -6 -10  -2  107.99    3.80
   6  10  -2   97.59    3.50
  -6 -10  -2  104.29    4.30
   6  10  -2  106.69    4.30
   6  10  -2  105.19    4.20
   6 -10   2  107.09    4.40
   6  10  -2  101.69    4.00
  -6 -10   2   99.39    4.20
  -6 -10   2  110.29    3.70
  -6  10  -2  109.79    4.00
  -6  10  -2  107.59    4.40
   6 -10  -2  111.19    4.30
   6  10   2  104.29    4.10
   6  10   2  110.59    3.80
   6 -10  -2  113.99    4.20
   6 -10  -2  107.59    3.90
   6  10   2  103.49    4.00
  -7 -10  -2  104.69    3.90
   7  10  -2   98.49    4.40
   7 -10   2   99.49    3.70
   7  10  -2  107.19    4.40
   7  10  -2  107.99    3.70
   7 -10   2  102.19    4.50
   7  10  -2  103.79    4.30
   7 -10   2   98.79    4.00
   7 -10   2  103.19    3.60
  -7 -10  -2  110.39    4.50
   7 -10  -2  104.19    4.00
   7  10   2  104.09    3.80
   7  10   2  100.29    4.10
  -7 -10   2  102.79    3.70
  -7 -10   2  103.79    4.40
   7 -10  -2  103.09    4.20
   7 -10  -2  101.99    4.30
  -7  10  -2  100.49    4.30
   7 -10  -2  106.99    4.10
   7  10   2  102.19    4.20
   8  10  -2   20.00    2.40
   8 -10   2   19.30    2.00
   8 -10   2   20.20    2.30
   8  10  -2   19.90    2.50
   8 -10   2   18.10    2.40
  -8 -10  -2   21.90    2.50
   8 -10   2   27.10    2.10
   8 -10  -2   22.00    2.50
   8  10   2   18.80    2.20
  -8 -10   2   23.30    2.60
   8 -10  -2   22.00    2.20
   8  10   2   24.40    2.60
   8 -10  -2   22.00    2.30
   8  10   2   18.90    2.00
  -8  10  -2   17.00    2.30
   8 -10  -2   20.80    2.30
   9 -10   2    0.70    1.10
   9  10  -2    0.80    1.30
   9  10  -2    2.10    1.40
   9 -10   2    2.20    1.30
  -9 -10  -2    1.90    1.60
   9 -10   2    4.00    1.60
   9  10   2    1.40    1.20
   9 -10  -2    2.00    1.20
   9  10   2    4.40    1.60
   9 -10  -2    2.50    1.40
   9 -10  -2    3.00    1.30
  -9  10  -2    3.30    1.70
   0  11   2   55.29    2.30
   0 -11  -2   53.19    2.60
   0 -11  -2   52.39    2.40
   0 -11   2   51.39    2.40
   0  11  -2   51.29    2.70
   0 -11  -2   52.99    2.60
   0 -11   2   57.39    2.70
   0 -11   2   53.99    2.80
  -1 -11  -2  183.88    4.70
   1  11  -2  184.48    4.20
   1 -11   2  183.88    4.80
  -1 -11  -2  192.08    5.30
   1  11  -2  188.08    5.30
  -1 -11  -2  186.18    5.10
   1 -11   2  182.68    5.10
   1 -11   2  191.68    4.60
  -1  11   2  190.98    4.50
   1 -11   2  191.98    5.30
   1  11   2  191.98    4.10
   1  11   2  190.88    4.70
   1 -11  -2  194.68    5.00
  -1 -11   2  186.18    5.40
  -1 -11   2  187.88    4.90
   1 -11  -2  190.48    5.20
  -1 -11   2  181.58    4.90
   1 -11  -2  182.58    4.70
  -1  11  -2  181.48    5.20
   2 -11   2   30.80    2.20
  -2 -11  -2   31.60    2.10
   2  11  -2   37.30    2.40
   2  11  -2   30.20    2.10
   2 -11   2   31.60    2.20
  -2  11   2   31.20    1.60
  -2 -11  -2   28.80    1.80
  -2 -11  -2   30.80    2.20
   2 -11   2   34.20    1.90
   2  11  -2   30.90    1.70
   2 -11   2   30.70    1.90
   2 -11  -2   28.10    2.20
  -2 -11   2   32.60    2.40
   2 -11  -2   32.60    1.90
   2  11   2   29.90    1.80
  -2 -11   2   31.90    2.00
  -2 -11   2   27.90    1.90
  -2  11  -2   33.70    1.60
   2 -11  -2   32.40    2.00
   2  11   2   30.50    1.60
  -2  11  -2   32.50    2.30
   2 -11  -2   31.60    2.10
  -3 -11  -2   42.90    2.70
  -3  11   2   44.70    1.90
   3 -11   2   48.10    2.30
   3  11  -2   46.00    2.70
  -3 -11  -2   47.40    2.20
   3  11  -2   45.00    2.30
   3  11  -2   48.20    2.30
   3 -11   2   42.60    2.30
   3  11  -2   45.50    2.50
   3 -11   2   42.60    2.40
   3 -11   2   42.80    2.50
  -3 -11  -2   45.40    2.50
  -3  11  -2   47.10    2.10
   3 -11  -2   43.90    2.30
   3  11   2   49.70    2.30
  -3 -11   2   43.60    2.70
   3  11   2   48.80    2.30
   3 -11  -2   44.00    2.60
  -3 -11   2   47.20    2.30
   3 -11  -2   46.40    2.30
  -3  11  -2   50.39    2.80
   3 -11  -2   45.20    2.40
  -3 -11   2   44.70    2.30
   4  11  -2   95.19    3.70
   4  11  -2  101.59    3.50
  -4 -11  -2   97.49    3.20
   4  11  -2   94.39    3.90
  -4 -11  -2   90.19    3.50
   4 -11   2  101.49    3.40
   4 -11   2   98.09    3.50
   4 -11   2   94.29    3.90
   4 -11   2  100.49    3.50
  -4 -11  -2   98.49    4.00
   4  11  -2   92.79    3.40
  -4  11  -2   97.29    4.00
   4  11   2   95.29    3.80
   4 -11  -2   92.99    3.80
   4  11   2   92.59    3.40
   4 -11  -2   95.89    3.60
  -4 -11   2   92.39    4.00
   4  11   2   95.29    3.50
  -4 -11   2   96.19    3.40
  -4  11  -2   99.19    3.30
  -4 -11   2   97.49    3.20
   4 -11  -2   95.89    3.60
   5 -11   2   75.29    3.10
   5  11  -2   73.39    3.10
   5  11  -2   79.69    3.60
   5 -11   2   74.29    3.50
   5  11  -2   77.69    3.70
  -5 -11  -2   76.99    2.90
  -5 -11  -2   75.99    3.20
   5  11  -2   69.59    3.20
   5 -11   2   73.39    3.10
  -5 -11  -2   71.49    3.50
   5  11   2   73.09    3.20
  -5  11  -2   78.89    3.70
   5 -11  -2   70.89    3.40
   5 -11  -2   73.79    3.40
   5 -11  -2   75.79    3.30
   5  11   2   73.49    3.10
   5  11   2   77.19    3.40
  -5 -11   2   69.49    3.60
  -5 -11   2   74.79    3.10
  -5  11  -2   72.69    3.10
   6  11  -2   22.60    2.50
   6 -11   2   22.40    2.10
  -6 -11  -2   18.70    1.90
  -6 -11  -2   19.20    2.30
   6  11  -2   24.30    2.40
   6 -11   2   24.40    2.10
   6  11  -2   22.70    2.00
   6  11  -2   22.10    2.30
   6 -11   2   19.30    2.20
   6  11   2   22.30    2.30
   6 -11  -2   25.90    2.20
   6  11   2   19.60    2.20
   6  11   2   18.60    1.90
  -6 -11   2   22.70    2.00
   6 -11  -2   22.70    2.30
  -6  11  -2   19.60    2.10
   6 -11  -2   17.80    2.20
  -6 -11   2   19.70    2.40
   7 -11   2  107.39    4.20
   7 -11   2  107.39    4.70
   7  11  -2  111.79    4.60
   7  11  -2  107.09    4.80
   7 -11   2  113.59    4.10
  -7 -11  -2  102.29    4.60
   7  11  -2  106.59    3.90
   7  11  -2  111.39    4.60
  -7 -11   2  106.19    4.70
   7 -11  -2  109.29    4.40
   7 -11  -2  105.39    4.10
   7  11   2  113.99    4.60
   7 -11  -2  113.29    4.40
   7  11   2  107.29    4.00
   7  11   2   98.19    4.20
   7 -11  -2  107.39    4.50
  -7  11  -2  106.29    4.50
  -7 -11   2  113.19    4.00
   8  11  -2   18.40    2.40
   8  11  -2   20.10    2.40
   8 -11   2   18.10    2.00
   8  11  -2   21.00    2.10
   8 -11   2   18.00    2.20
   8 -11   2   17.90    2.60
  -8 -11  -2   21.50    2.60
   8 -11  -2   20.80    2.50
   8  11   2   18.40    2.00
  -8  11  -2   20.90    2.60
   8  11   2   16.40    2.20
   8 -11  -2   23.10    2.30
  -8 -11   2   22.00    2.70
   8 -11  -2   19.40    2.40
   8 -11  -2   21.10    2.30
   8  11   2   20.20    2.50
   9  11  -2   33.10    3.10
  -9 -11  -2   25.60    3.30
   9  11   2   34.30    3.10
   9  11   2   34.10    2.80
   9 -11  -2   32.20    2.60
   0 -12  -2   36.10    2.10
   0 -12   2   32.30    2.30
   0 -12   2   35.80    2.30
   0 -12  -2   35.80    2.40
   0  12   2   35.70    2.00
   0 -12   2   36.80    2.20
   0  12  -2   39.00    2.50
   0 -12  -2   33.20    2.30
  -1 -12  -2   14.10    1.70
  -1  12   2   15.70    1.50
   1 -12   2   18.50    1.90
   1  12  -2   15.10    1.70
   1 -12   2   15.30    1.60
   1 -12   2   18.90    1.60
  -1 -12  -2   15.60    1.70
   1 -12   2   21.00    2.10
  -1 -12  -2   17.20    1.60
   1 -12  -2   18.40    1.90
   1  12   2   18.40    1.50
  -1 -12   2   21.40    1.90
   1 -12  -2   17.80    1.90
  -1  12  -2   17.40    1.80
   1 -12  -2   17.40    1.80
  -1 -12   2   16.40    2.00
  -1 -12   2   17.30    1.80
  -2 -12  -2    5.20    1.20
   2  12  -2    5.70    1.40
   2  12  -2    5.70    1.30
   2 -12   2    4.00    1.10
   2 -12   2    4.80    1.00
   2  12  -2    6.20    1.20
   2 -12   2    5.90    1.10
  -2 -12  -2    4.30    1.00
   2  12  -2    7.70    1.10
  -2 -12  -2    7.80    1.60
  -2  12   2    5.50    1.00
   2 -12   2    6.10    1.40
  -2 -12   2    4.70    1.10
   2  12   2    5.20    1.10
   2  12   2    6.20    0.90
  -2 -12   2    5.20    1.20
   2 -12  -2    5.40    1.10
  -2 -12   2    4.20    1.30
   2 -12  -2    6.80    1.30
   2 -12  -2    4.80    1.10
  -2  12  -2    4.20    1.20
   2 -12  -2    5.30    1.20
  -3 -12  -2    3.70    1.40
   3  12  -2    2.90    1.10
   3 -12   2    2.10    0.90
   3  12  -2    3.00    1.10
   3  12  -2    3.70    0.90
  -3 -12  -2    3.40    1.00
   3 -12   2    2.30    1.00
   3  12  -2    2.10    1.20
  -3 -12  -2    1.40    0.90
   3 -12   2    3.10    1.10
  -3  12   2    2.10    0.70
   3 -12   2    2.70    1.20
   3 -12  -2    1.60    1.10
   3 -12  -2    1.00    0.90
  -3 -12   2    3.00    1.30
  -3 -12   2    2.00    1.00
   3 -12  -2    3.50    1.10
   3  12   2    1.40    0.80
  -3  12  -2    2.80    1.20
   3  12   2    2.10    0.80
  -3 -12   2    3.00    1.00
   4  12  -2   69.29    3.40
   4 -12   2   66.09    3.40
  -4 -12  -2   73.69    2.90
   4  12  -2   71.49    3.10
   4  12  -2   67.89    3.50
   4 -12   2   67.89    2.90
   4  12  -2   73.69    3.10
  -4 -12  -2   70.89    3.20
  -4 -12  -2   65.99    3.60
   4 -12   2   71.89    3.10
   4  12   2   73.29    3.10
   4  12   2   78.89    3.10
  -4  12  -2   68.19    2.90
  -4 -12   2   70.49    3.70
  -4 -12   2   72.49    3.10
   4 -12  -2   69.89    3.20
  -4 -12   2   66.49    2.90
   4 -12  -2   66.59    3.30
   4 -12  -2   72.09    3.20
  -5 -12  -2   21.50    1.80
   5  12  -2   21.50    2.40
  -5 -12  -2   22.70    2.20
   5  12  -2   26.90    2.20
  -5 -12  -2   23.00    2.40
   5 -12   2   24.60    2.10
   5  12  -2   26.60    2.10
   5 -12   2   22.00    2.10
   5 -12   2   21.70    2.40
   5  12  -2   20.00    2.30
   5  12   2   22.10    2.40
   5  12   2   21.00    2.10
  -5 -12   2   20.90    2.50
   5 -12  -2   22.90    2.20
   5  12   2   19.80    2.00
  -5  12  -2   24.60    2.10
   5 -12  -2   21.90    2.40
  -5 -12   2   19.80    1.90
   5 -12  -2   25.30    2.30
   6  12  -2  119.69    5.00
   6 -12   2  111.89    4.20
  -6 -12  -2  121.59    4.40
  -6 -12  -2  120.19    5.00
   6  12  -2  118.79    4.80
   6 -12   2  127.69    5.10
   6  12  -2  123.89    4.60
   6 -12   2  119.19    4.30
   6  12  -2  120.49    4.20
   6 -12  -2  118.99    4.80
  -6 -12   2  111.99    4.90
  -6 -12   2  130.19    4.30
   6  12   2  121.89    4.50
   6  12   2  109.19    4.50
   6 -12  -2  128.69    4.50
   6 -12  -2  120.39    4.60
  -6  12  -2  112.89    4.30
   6  12   2  123.39    4.40
   7  12  -2   31.00    2.40
   7 -12   2   28.40    2.30
   7 -12   2   20.20    2.50
   7  12  -2   23.50    2.60
   7  12  -2   26.10    2.70
  -7 -12  -2   24.10    2.80
   7 -12   2   28.20    2.40
   7 -12  -2   27.60    2.80
  -7 -12   2   26.00    2.40
  -7 -12   2   23.80    2.80
  -7  12  -2   26.90    2.70
   7 -12  -2   29.10    2.50
   7  12   2   29.00    2.60
   7  12   2   29.10    2.50
   7  12   2   28.50    2.40
   7 -12  -2   26.50    2.50
   7 -12  -2   27.90    2.70
   8  12  -2   26.90    2.80
   8  12  -2   28.00    3.00
  -8 -12  -2   19.90    2.60
   8  12  -2   23.90    2.30
   8 -12   2   26.10    2.50
   8 -12   2   24.80    2.80
   8 -12   2   26.70    2.70
   8 -12  -2   23.30    2.50
   8  12   2   23.70    2.70
   8 -12  -2   21.10    2.50
   8  12   2   24.80    2.60
   8  12   2   21.60    2.30
  -8 -12   2   22.30    2.80
   8 -12  -2   25.20    2.60
  -8  12  -2   21.90    2.70
   8 -12  -2   32.30    3.10
   0 -13   2   14.40    1.80
   0 -13  -2   11.40    1.50
   0 -13   2   10.90    1.50
   0 -13   2   12.80    1.90
   0 -13  -2   11.80    1.80
   0  13  -2   11.40    1.50
   0  13   2   12.80    1.50
   0 -13  -2   14.10    1.80
   0  13  -2   12.60    1.80
   1  13  -2    3.00    1.20
   1 -13   2    3.20    1.30
   1  13  -2    2.70    1.10
  -1 -13  -2    4.10    1.40
   1 -13   2    5.40    1.00
   1 -13   2    3.70    1.10
   1 -13   2    3.30    1.00
  -1 -13  -2    3.20    1.10
  -1 -13  -2    3.30    1.10
  -1  13   2    3.70    1.00
   1 -13  -2    3.30    1.20
  -1 -13   2    2.40    1.00
   1 -13  -2    2.70    1.10
   1 -13  -2    3.00    1.10
   1 -13  -2    3.60    1.10
   1  13   2    3.00    0.90
  -1 -13   2    3.80    1.40
  -1 -13   2    2.10    1.00
  -1  13  -2    3.30    1.00
  -1  13  -2    3.30    1.30
   2  13  -2   38.50    2.30
   2 -13   2   38.10    2.30
   2  13  -2   37.80    2.80
   2 -13   2   36.40    2.60
  -2 -13  -2   38.90    2.30
  -2 -13  -2   40.00    2.60
   2 -13   2   39.20    2.50
  -2 -13  -2   35.80    2.80
   2 -13   2   40.50    2.80
  -2  13   2   36.30    2.00
  -2 -13   2   36.90    2.40
   2 -13  -2   37.10    2.40
  -2 -13   2   44.40    2.50
   2 -13  -2   37.90    2.40
   2 -13  -2   36.80    2.60
   2 -13  -2   36.00    2.70
  -2 -13   2   39.80    2.80
   2  13   2   36.70    2.20
  -2  13  -2   38.70    2.20
   3  13  -2   23.40    1.80
   3 -13   2   19.10    2.10
  -3 -13  -2   18.70    2.30
   3 -13   2   22.80    1.90
  -3 -13  -2   19.70    2.10
  -3  13   2   23.50    1.60
  -3 -13  -2   21.70    1.90
   3  13  -2   19.20    1.90
   3 -13   2   26.40    2.20
   3  13  -2   24.40    2.50
   3  13  -2   23.60    2.40
   3 -13   2   25.00    2.30
   3  13   2   22.30    1.70
  -3 -13   2   24.00    2.10
  -3 -13   2   23.50    2.60
   3 -13  -2   20.60    2.30
  -3 -13   2   26.60    2.10
  -3  13  -2   23.80    1.70
   3 -13  -2   23.50    2.00
   3 -13  -2   19.20    2.00
   3  13   2   22.30    2.10
  -4 -13  -2    2.70    1.10
   4 -13   2    1.20    1.20
   4 -13   2    3.70    1.10
  -4 -13  -2    3.00    1.00
   4  13  -2    2.80    1.20
   4  13  -2    2.90    1.10
  -4 -13  -2    0.20    1.30
   4 -13   2    1.90    1.10
   4  13  -2    3.20    1.40
   4  13  -2    4.20    1.10
  -4 -13   2    3.40    1.50
   4  13   2    3.90    1.20
  -4 -13   2    1.30    1.10
   4  13   2    3.00    1.00
   4 -13  -2    1.90    1.30
  -4 -13   2    2.20    1.00
   4 -13  -2    2.10    1.20
   4 -13  -2    3.20    1.20
   5 -13   2    8.80    1.50
  -5 -13  -2    7.90    1.90
   5 -13   2    6.60    1.50
   5  13  -2    7.00    1.40
  -5 -13  -2    8.90    1.60
   5 -13   2    8.40    1.80
   5  13  -2    8.50    1.70
   5  13  -2    6.30    1.50
   5 -13  -2    9.70    1.80
  -5 -13   2   10.60    2.00
   5  13   2   10.50    1.60
  -5 -13   2    6.40    1.50
   5 -13  -2   12.90    1.90
   5  13   2    9.70    1.60
   5 -13  -2    7.50    1.70
   6 -13   2   35.90    2.90
   6  13  -2   32.50    2.90
   6 -13   2   38.30    2.60
  -6 -13  -2   34.70    3.30
   6  13  -2   37.50    2.60
   6 -13   2   32.80    2.60
   6  13  -2   29.60    2.60
  -6 -13  -2   31.80    2.60
   6 -13  -2   35.40    2.80
   6 -13  -2   30.40    3.00
   6 -13  -2   33.70    2.70
   6  13   2   31.10    2.70
   6  13   2   35.70    2.60
  -6 -13   2   40.90    2.70
   6  13   2   37.30    2.70
  -6 -13   2   35.90    3.20
   7 -13   2   22.70    2.30
   7  13  -2   24.20    2.80
   7 -13   2   23.90    2.50
   7 -13   2   23.90    2.80
   7  13  -2   24.30    2.60
  -7 -13  -2   20.50    2.70
   7  13  -2   23.80    2.40
  -7 -13   2   19.00    2.80
   7  13   2   20.90    2.30
   7 -13  -2   26.00    2.60
   7  13   2   20.80    2.50
   7  13   2   23.80    2.60
   7 -13  -2   21.90    2.50
   7 -13  -2   27.10    2.80
   7 -13  -2   20.60    2.40
   0 -14   2   22.80    1.90
   0 -14  -2   20.40    2.00
   0 -14  -2   19.30    2.20
   0 -14  -2   16.80    2.10
   0 -14   2   17.80    2.10
   0  14  -2   23.40    1.90
   0 -14   2   22.90    2.60
   0  14   2   22.60    2.10
   0 -14   2   20.20    2.10
   1 -14   2   29.50    2.60
   1  14  -2   38.80    2.40
  -1  14   2   36.90    2.20
  -1 -14  -2   30.90    2.70
   1 -14   2   32.60    2.20
   1 -14   2   37.30    2.70
  -1 -14  -2   33.30    2.60
  -1 -14  -2   31.60    2.30
   1 -14   2   31.20    2.40
   1 -14  -2   32.50    2.60
  -1  14  -2   34.40    2.20
   1  14   2   30.50    2.10
   1 -14  -2   31.30    2.60
  -1 -14   2   25.60    2.60
  -1 -14   2   36.90    2.60
   1 -14  -2   33.90    2.40
   1 -14  -2   31.30    2.30
  -1 -14   2   33.30    2.40
   2 -14   2   62.19    3.10
   2 -14   2   60.99    3.30
   2  14  -2   60.59    3.00
  -2  14   2   62.19    2.70
  -2 -14  -2   60.19    3.50
  -2 -14  -2   59.09    3.20
   2 -14   2   58.19    3.40
   2 -14   2   61.49    2.90
  -2 -14  -2   61.79    3.00
  -2  14  -2   64.19    2.80
  -2 -14   2   59.69    3.10
   2 -14  -2   61.79    3.50
   2 -14  -2   66.69    3.20
  -2 -14   2   61.99    3.10
   2 -14  -2   55.09    3.00
   2 -14  -2   64.69    3.30
   2  14   2   67.59    3.10
  -2 -14   2   56.29    3.40
  -3 -14  -2   23.40    2.10
   3 -14   2   22.10    2.00
   3 -14   2   23.10    2.30
   3 -14   2   26.00    2.70
   3 -14   2   25.10    2.40
   3  14  -2   20.20    2.10
  -3 -14  -2   23.10    2.40
  -3 -14  -2   20.20    2.50
   3 -14  -2   21.10    2.40
   3  14   2   22.00    2.10
  -3 -14   2   25.80    2.30
  -3 -14   2   28.30    3.00
   3 -14  -2   25.80    2.40
   3 -14  -2   19.50    2.10
  -3  14  -2   24.20    1.80
  -3 -14   2   23.00    2.10
   4  14  -2   77.59    3.30
  -4 -14  -2   75.09    3.20
   4 -14   2   78.59    4.10
  -4 -14  -2   74.29    4.10
   4 -14   2   70.69    3.40
   4  14  -2   73.59    3.50
   4  14  -2   75.79    3.80
  -4 -14  -2   75.39    3.60
   4 -14   2   72.29    3.30
  -4 -14   2   76.99    3.50
   4  14   2   72.69    3.40
  -4 -14   2   70.89    4.10
   4 -14  -2   71.79    3.60
   4 -14  -2   72.59    3.90
   4 -14  -2   73.89    3.60
   5 -14   2   14.80    2.30
   5 -14   2   17.10    2.00
  -5 -14  -2   15.50    2.00
   5  14  -2   15.30    1.90
  -5 -14  -2   16.00    2.50
   5 -14   2   22.20    2.20
   5  14  -2   21.30    2.20
   5  14  -2   16.10    2.20
   5 -14  -2   17.40    2.40
   5 -14  -2   16.60    2.20
   5  14   2   18.80    2.10
  -5 -14   2   15.30    2.00
   5  14   2   18.60    2.10
   5 -14  -2   17.60    2.20
  -5 -14   2   17.90    2.60
   6  14  -2   14.70    2.30
   6  14  -2   18.90    2.20
  -6 -14  -2   14.70    2.40
   6 -14   2   15.60    2.00
   6  14  -2   14.90    2.00
   6 -14   2   15.20    2.00
   6 -14   2   15.50    2.30
   6  14   2   15.50    2.10
  -6 -14   2   17.50    2.10
   6 -14  -2   17.50    2.30
  -6 -14   2   15.60    2.50
   6  14   2   17.40    2.20
   6 -14  -2   16.50    2.20
   6 -14  -2   16.80    2.40
   7 -14   2    5.00    1.50
   7 -14   2    3.50    1.50
   7  14  -2    5.30    1.60
   7  14  -2    6.00    1.50
   7 -14  -2    7.70    1.70
   7  14   2    3.90    1.40
   7  14   2    4.80    1.60
   0  15  -2   -0.10    1.00
   0  15   2   -0.60    0.80
   0 -15   2    2.60    1.20
   0 -15   2    0.40    1.00
   0 -15   2    0.70    1.30
   0 -15  -2   -0.20    1.00
   0 -15  -2    0.70    1.20
   0 -15   2   -0.10    0.80
   0 -15  -2   -0.60    1.30
   1 -15   2   36.60    3.00
  -1  15   2   40.90    2.40
   1  15  -2   40.10    2.60
   1 -15   2   44.00    3.00
  -1 -15  -2   40.00    3.00
   1 -15   2   40.20    2.50
   1 -15   2   42.80    2.70
  -1 -15  -2   41.70    2.70
  -1 -15  -2   33.10    3.00
  -1 -15   2   41.70    2.80
  -1  15  -2   44.30    2.60
  -1 -15   2   39.70    2.80
   1 -15  -2   38.50    2.80
   1 -15  -2   39.90    3.00
  -1 -15   2   39.20    3.00
   1 -15  -2   43.20    3.00
   1  15   2   42.50    2.70
   1 -15  -2   40.80    2.80
  -2 -15  -2   19.80    2.10
  -2 -15  -2   21.70    2.60
  -2  15   2   18.00    1.80
   2 -15   2   21.40    2.10
   2  15  -2   20.50    2.10
   2 -15   2   17.50    2.20
  -2 -15  -2   18.30    2.30
   2 -15   2   15.30    2.20
   2 -15   2   18.80    2.40
   2 -15  -2   20.30    2.20
  -2  15  -2   18.60    1.90
  -2 -15   2   22.00    2.30
   2 -15  -2   17.40    2.20
   2  15   2   16.80    1.90
  -2 -15   2   21.00    2.60
   2 -15  -2   18.10    2.10
  -2 -15   2   20.30    2.20
  -3 -15  -2   68.89    3.30
   3  15  -2   66.99    3.40
  -3 -15  -2   69.39    4.10
   3 -15   2   70.29    3.50
   3 -15   2   64.89    3.90
   3 -15   2   70.09    3.20
  -3 -15  -2   69.79    3.60
  -3  15  -2   68.29    2.90
   3  15   2   65.99    3.30
  -3 -15   2   69.49    3.50
   3 -15  -2   69.99    3.50
  -3 -15   2   68.59    4.00
  -3 -15   2   69.59    3.50
   3 -15  -2   74.19    3.60
   3 -15  -2   70.19    3.90
  -4 -15  -2   54.59    2.90
   4  15  -2   50.89    3.00
  -4 -15  -2   54.59    3.80
  -4 -15  -2   51.19    3.20
   4 -15   2   48.80    3.50
   4 -15   2   50.89    3.10
   4 -15   2   55.59    3.10
  -4 -15   2   56.09    3.20
  -4 -15   2   47.90    3.70
   4  15   2   56.09    3.20
   4 -15  -2   45.40    3.40
   4 -15  -2   51.79    3.20
   4 -15  -2   50.99    3.30
   5 -15   2   59.09    3.90
  -5 -15  -2   63.49    3.50
   5  15  -2   63.49    3.50
   5 -15   2   69.99    3.60
   5  15  -2   70.59    4.10
  -5 -15  -2   60.89    4.10
  -5 -15   2   66.89    3.50
   5 -15  -2   69.59    3.80
   5 -15  -2   69.19    3.70
   5 -15  -2   66.39    4.00
   5  15   2   66.49    3.50
  -5 -15   2   67.59    4.30
   6 -15   2   66.29    3.60
   6  15  -2   64.49    3.60
   6  15  -2   77.49    3.80
   6  15   2   71.59    3.80
  -6 -15   2   71.59    3.60
   6 -15  -2   71.39    3.90
   0  16  -2  187.48    5.70
   0 -16  -2  196.68    6.50
   0 -16  -2  207.68    6.10
   0 -16   2  197.28    6.40
   0  16   2  201.28    5.70
   0 -16   2  203.88    6.90
   0 -16  -2  201.28    6.10
   0 -16  -2  201.78    6.60
   0 -16   2  197.88    6.10
  -1 -16  -2   13.80    2.30
   1 -16   2   19.40    2.30
   1  16  -2   15.80    2.00
  -1  16   2   17.90    2.00
  -1 -16  -2   19.30    2.20
   1 -16   2   15.20    2.20
  -1 -16  -2   19.60    2.50
   1 -16   2   15.50    2.40
   1 -16  -2   19.20    2.20
  -1 -16   2   18.70    2.60
   1 -16  -2   21.60    2.60
   1 -16  -2   14.90    2.10
   1 -16  -2   22.30    2.60
  -1 -16   2   15.00    2.00
  -1 -16   2   16.10    2.10
  -1  16  -2   18.60    2.00
   1  16   2   16.50    2.00
  -2 -16  -2   98.09    4.00
  -2 -16  -2   96.99    4.40
   2  16  -2   96.29    4.00
  -2 -16  -2   96.59    4.80
   2 -16   2  108.09    4.40
   2 -16   2   96.09    4.60
  -2  16   2   98.19    3.70
   2 -16   2   97.39    4.60
  -2 -16   2   96.69    4.20
  -2 -16   2   89.79    4.80
   2  16   2   99.79    4.10
  -2  16  -2  100.79    3.80
  -2 -16   2   91.49    4.20
   2 -16  -2  105.29    4.40
   2 -16  -2   91.79    4.50
   2 -16  -2   99.79    4.20
  -3 -16  -2   10.20    1.90
  -3 -16  -2    6.20    2.10
  -3 -16  -2    8.60    1.70
   3  16  -2    6.70    1.70
   3 -16   2    6.70    1.60
   3 -16   2    7.30    1.90
   3  16   2    9.10    1.70
  -3 -16   2    5.20    1.50
   3 -16  -2    5.70    1.60
   3 -16  -2    8.00    1.70
   3 -16  -2    5.10    1.60
  -3 -16   2    6.80    2.00
  -4 -16  -2    3.20    1.40
   4 -16   2    2.10    1.80
   4 -16   2    3.80    1.40
  -4 -16  -2    3.10    2.00
  -4 -16  -2    1.50    1.70
   4  16  -2    2.70    1.30
   4 -16  -2    2.40    1.30
  -4 -16   2    0.70    1.90
   4 -16  -2    2.10    1.50
   4  16   2   -0.60    0.90
  -4 -16   2    2.70    1.40
   4 -16  -2    3.00    1.80
   0  17   2   21.70    2.20
   0  17  -2   18.90    2.10
   0 -17   2   22.60    2.90
   0 -17   2   17.10    2.40
   0 -17   2   15.10    2.20
   0 -17  -2   19.40    2.60
   0 -17  -2   18.30    2.30
   0 -17  -2   16.80    2.60
   0 -17  -2   20.90    2.40
   1 -17   2  105.39    4.50
   1 -17   2  106.19    5.00
  -1 -17  -2  101.79    4.80
   1  17  -2  101.49    4.20
  -1 -17  -2   98.29    4.30
   1 -17   2   99.89    4.80
  -1 -17  -2   90.29    4.80
  -1  17   2   96.09    3.90
  -1  17  -2  106.29    4.10
   1  17   2   97.99    4.10
   1 -17  -2  110.39    4.60
  -1 -17   2  106.39    4.70
  -1 -17   2  105.59    5.10
   1 -17  -2  107.59    4.60
   1 -17  -2   95.99    4.90
  -1 -17   2  103.79    4.50
   2 -17   2   96.09    6.50
   2  17  -2   96.59    4.10
  -2 -17  -2   86.39    5.40
  -2 -17  -2   86.09    4.00
  -2 -17  -2   83.69    4.30
   2 -17   2   84.69    4.20
   2  17   2   88.09    4.00
  -2 -17   2   91.09    4.20
  -2  17  -2   94.69    3.80
  -2 -17   2   91.79    4.30
   2 -17  -2   90.89    4.20
   2 -17  -2  100.99    4.50
   3  17  -2   36.90    2.90
   3 -17   2   39.80    3.10
  -3 -17  -2   36.90    2.80
   3 -17  -2   38.70    3.10
  -3 -17   2   35.50    2.90
   3  17   2   39.70    2.90
   0   0   3   -1.40    0.20
   0   0   3   -1.00    0.30
   0   0  -3   -1.60    0.20
   1   0   3 1867.21   26.90
   1   0  -3 1856.41   26.90
   1   0   3 1794.92   26.80
   1   0   3 1925.91   27.90
  -1   0  -3 1802.12   26.80
   1   0  -3 1870.81   27.30
  -1   0  -3 1840.22   26.90
   1   0   3 1927.61   26.80
   1   0  -3 1896.71   26.60
  -1   0   3 1925.61   26.60
  -1   0  -3 1952.50   26.70
   1   0  -3 1835.52   27.10
  -2   0  -3 9217.18  133.09
  -2   0  -3 8816.12  132.49
   2   0  -3 8999.60  131.89
   2   0  -3 8881.51  131.79
   2   0   3 9270.77  131.09
   2   0  -3 9365.06  128.49
   2   0  -3 8786.92  132.49
   2   0  -3 8532.25  131.49
  -2   0  -3 9999.00  129.49
   2   0   3 9262.37  134.39
   2   0   3 9004.00  132.79
   2   0   3 8967.30  131.79
  -2   0   3 9419.86  130.79
   2   0  -3 8742.12  132.29
   3   0   3  661.43   10.60
   3   0  -3  627.54   10.40
   3   0  -3  668.93    9.60
   3   0   3  669.03   10.00
   3   0   3  648.24   10.30
   3   0   3  664.93    9.70
  -3   0  -3  639.84   10.60
   3   0  -3  660.53   10.40
   3   0   3  667.93    9.30
  -3   0   3  668.33    9.70
   3   0  -3  645.74   10.30
   3   0  -3  660.43   10.40
   3   0   3  651.73   10.30
   3   0  -3  652.33   10.20
  -3   0  -3  647.44   10.30
   3   0  -3  625.44   10.20
  -4   0  -3   39.50    1.60
  -4   0   3   39.90    1.10
   4   0  -3   39.60    1.10
   4   0   3   40.30    1.20
   4   0   3   38.20    1.50
   4   0   3   42.20    1.60
   4   0  -3   39.50    1.60
  -4   0  -3   38.80    1.80
   4   0   3   40.00    1.60
   4   0  -3   39.60    1.60
   4   0  -3   40.50    1.50
   4   0   3   38.90    1.70
   4   0   3   40.30    0.90
   4   0   3   40.90    1.30
   4   0  -3   40.20    1.60
   5   0   3  275.07    5.50
   5   0  -3  270.07    4.80
  -5   0  -3  260.27    5.50
  -5   0   3  280.17    4.50
   5   0   3  282.57    4.80
   5   0   3  268.47    5.50
   5   0   3  268.57    5.60
   5   0  -3  272.27    4.20
   5   0  -3  274.57    5.50
   5   0  -3  265.47    5.50
  -5   0  -3  268.27    5.90
   5   0  -3  269.47    5.40
   5   0   3  280.27    4.90
   5   0  -3  269.57    5.70
   5   0   3  283.57    5.80
   5   0  -3  278.37    5.40
   6   0   3   44.30    2.10
   6   0  -3   45.40    2.20
   6   0  -3   42.90    2.10
   6   0   3   42.90    2.20
  -6   0  -3   46.40    2.20
  -6   0  -3   47.10    1.80
   6   0   3   44.70    1.50
   6   0  -3   42.60    2.00
   6   0  -3   43.10    1.90
   6   0   3   39.60    2.10
   6   0   3   44.40    1.70
   6   0  -3   43.60    2.10
   6   0   3   43.30    2.10
   7   0  -3    4.90    1.00
   7   0   3    3.70    1.00
   7   0   3    5.20    1.10
   7   0   3    4.00    1.00
   7   0  -3    6.10    1.10
   7   0   3    7.10    0.90
   7   0  -3    6.70    1.20
   7   0  -3    5.90    1.10
   7   0   3    5.00    1.10
  -7   0  -3    5.80    0.80
   7   0  -3    5.70    1.00
  -7   0  -3    2.30    1.00
   8   0  -3  106.59    3.60
   8   0  -3  110.39    4.00
   8   0   3  108.79    4.00
   8   0   3  113.19    3.90
  -8   0  -3  109.39    4.00
   8   0  -3  114.09    3.70
   8   0   3  110.79    4.10
   8   0  -3  103.59    3.80
   8   0  -3  111.79    3.90
   8   0   3  116.39    3.90
  -9   0  -3   47.60    3.10
   9   0   3   48.40    2.80
   9   0  -3   49.80    2.70
   9   0  -3   46.80    2.90
   9   0  -3   48.50    2.80
   9   0   3   52.99    3.10
   9   0  -3   45.00    2.60
   9   0  -3   47.60    2.90
   9   0   3   46.90    3.10
  10   0   3   65.89    3.90
  10   0  -3   64.59    3.20
  10   0  -3   60.89    3.40
  10   0   3   58.59    3.50
  10   0  -3   64.59    3.20
  10   0  -3   62.69    3.40
 -10   0  -3   53.59    3.60
  10   0   3   65.99    3.50
  11   0   3    8.40    2.00
  11   0  -3    8.50    1.80
  11   0  -3   10.40    2.00
  11   0  -3    7.90    1.70
  11   0   3   11.20    2.00
 -11   0  -3    9.80    2.10
   0   1  -3 8972.80  129.89
   0  -1   3 9342.57  129.19
   0   1  -3 8917.41  127.99
   0   1   3 8612.24  128.69
   0  -1   3 9064.79  128.89
   0  -1   3 8943.11  128.59
   0   1  -3 8741.93  129.09
   0  -1   3 9124.49  131.09
  -1  -1  -3 3298.57   48.00
   1  -1   3 3364.26   46.80
   1  -1   3 3209.18   47.70
   1   1  -3 3371.56   49.90
   1   1  -3 3338.47   47.30
  -1  -1  -3 3318.77   48.40
   1  -1   3 3192.98   48.20
   1   1  -3 3368.36   47.80
   1  -1   3 3329.77   48.10
   1  -1   3 3321.57   47.10
   1  -1   3 3398.26   48.10
   1  -1   3 3245.58   47.70
   1   1  -3 3357.06   49.60
   1   1  -3 3289.37   48.50
  -1   1   3 3345.87   47.20
   1  -1  -3 3302.77   48.90
   1   1   3 3222.18   47.90
  -1  -1   3 3287.67   48.20
  -1   1  -3 3280.37   48.30
   1  -1  -3 3297.57   48.60
   1   1   3 3353.96   48.00
   1  -1  -3 3351.56   47.80
  -1  -1   3 3239.98   47.70
  -1   1  -3 3240.98   48.80
  -1   1  -3 3358.76   46.80
  -1  -1   3 3247.68   48.00
   1   1   3 3266.77   48.10
   2   1  -3  751.42   11.30
  -2  -1  -3  776.22   11.50
   2   1  -3  756.62   11.70
   2  -1   3  752.82   10.90
   2  -1   3  760.02   11.40
   2   1  -3  752.92   11.70
   2   1  -3  742.83   11.50
  -2  -1  -3  748.73   11.60
   2  -1   3  748.13   11.50
   2  -1   3  782.22   10.80
   2  -1   3  760.52   11.90
   2   1  -3  755.02   11.80
   2  -1   3  768.92   11.40
   2  -1  -3  741.43   11.50
  -2  -1   3  762.22   11.50
   2   1   3  750.52   11.40
   2  -1  -3  756.02   11.30
   2   1   3  764.22   11.60
   2  -1  -3  756.42   11.50
  -2   1  -3  754.12   11.80
  -2   1  -3  759.62   11.70
   2  -1  -3  747.03   11.70
   2   1   3  807.52   11.10
   2   1   3  755.92   11.50
   2  -1  -3  756.62   11.40
   2  -1  -3  776.42   11.10
   3   1  -3  108.99    2.60
   3   1  -3  108.89    2.40
   3   1  -3  107.99    2.60
  -3  -1  -3  113.29    2.50
   3  -1   3  107.29    2.50
   3  -1   3  111.19    2.00
   3  -1   3  109.99    1.90
   3   1  -3  110.89    2.70
   3  -1   3  109.69    2.50
   3  -1   3  109.69    2.30
   3  -1   3  111.29    2.80
  -3  -1  -3  110.59    2.70
  -3   1  -3  110.09    2.80
   3   1   3  110.39    2.50
   3   1   3  114.89    2.70
   3   1   3  112.59    2.40
   3   1   3  113.99    2.20
   3  -1  -3  109.59    2.50
   3  -1  -3  112.29    2.60
   3  -1  -3  110.79    2.50
   3  -1  -3  113.09    2.20
  -3  -1   3  114.79    2.30
   3  -1  -3  111.89    2.50
   3  -1  -3  112.19    1.80
   3   1   3  112.39    2.60
  -3   1  -3  106.29    2.60
  -3  -1   3  120.99    1.80
   3  -1  -3  107.09    2.70
   3   1   3  111.89    2.70
   4  -1   3  296.77    4.60
   4  -1   3  294.67    4.90
   4  -1   3  283.17    5.50
  -4  -1  -3  297.97    5.40
   4   1  -3  282.27    5.60
   4   1  -3  280.37    5.50
   4   1  -3  294.57    5.60
   4  -1   3  296.47    4.90
   4   1  -3  293.47    5.50
   4   1  -3  282.87    5.40
   4  -1   3  294.57    5.50
   4  -1  -3  294.57    5.00
   4  -1  -3  294.17    5.50
  -4   1  -3  290.97    5.90
   4   1   3  287.17    5.60
   4  -1  -3  301.07    5.30
   4   1   3  296.27    5.60
   4  -1  -3  284.87    5.50
   4   1   3  295.67    5.50
   4   1   3  301.17    5.00
   4  -1  -3  289.67    5.50
  -4   1  -3  292.47    5.60
   4   1   3  288.87    5.60
  -4  -1   3  290.47    5.00
   4   1   3  299.57    5.10
   4  -1  -3  290.37    5.70
   5  -1   3  245.68    5.40
   5  -1   3  247.38    4.20
   5   1  -3  246.78    5.10
   5   1  -3  243.08    5.30
   5   1  -3  249.78    5.20
  -5  -1  -3  252.27    5.10
  -5  -1  -3  257.07    5.00
   5  -1   3  252.67    4.40
   5  -1   3  260.97    4.60
   5   1  -3  243.38    5.30
   5  -1   3  262.07    5.30
   5   1  -3  251.87    4.10
   5  -1   3  245.38    5.20
   5   1  -3  248.18    5.20
  -5   1  -3  246.18    5.60
   5   1   3  245.98    5.30
   5   1   3  251.37    5.10
   5  -1  -3  256.57    4.60
   5  -1  -3  239.68    5.20
   5  -1  -3  246.88    5.30
  -5   1  -3  242.08    5.20
   5  -1  -3  257.57    5.20
   5   1   3  250.17    4.60
   5   1   3  245.18    4.60
   5  -1  -3  250.97    5.20
  -5  -1   3  249.68    4.50
   5  -1  -3  244.98    4.90
   5   1   3  250.87    5.30
   5   1   3  256.07    5.30
  -6  -1  -3  313.27    6.40
   6  -1   3  305.27    6.40
   6   1  -3  321.17    6.70
   6  -1   3  316.97    5.30
   6   1  -3  312.17    6.40
   6   1  -3  313.77    6.60
   6  -1   3  316.87    5.30
   6  -1   3  310.87    5.70
  -6  -1  -3  316.27    6.10
   6  -1   3  313.67    6.70
   6  -1   3  318.77    6.60
   6   1  -3  288.77    6.20
   6   1  -3  303.47    6.40
   6   1   3  320.87    5.60
   6   1   3  313.67    6.70
   6   1   3  309.67    6.40
   6  -1  -3  305.37    6.60
   6   1   3  317.67    5.80
  -6  -1   3  314.17    5.40
   6   1   3  319.57    6.70
   6  -1  -3  309.87    6.10
   6  -1  -3  318.17    6.50
   6  -1  -3  318.47    5.70
  -6   1  -3  307.57    6.90
   6  -1  -3  308.27    6.50
   6  -1  -3  308.67    6.30
   6   1   3  312.87    6.60
  -6   1  -3  310.57    6.50
   7  -1   3  121.59    3.90
   7   1  -3  119.49    3.80
   7  -1   3  114.89    3.70
   7  -1   3  130.49    3.20
   7   1  -3  125.39    4.00
   7   1  -3  126.39    3.70
   7  -1   3  127.59    4.10
  -7  -1  -3  128.09    3.40
  -7  -1  -3  118.39    3.80
   7   1  -3  123.09    3.80
   7   1  -3  122.59    3.70
  -7   1  -3  124.99    4.00
  -7   1  -3  125.19    3.20
   7   1   3  125.59    3.90
   7  -1  -3  123.89    3.70
   7  -1  -3  122.49    3.50
   7  -1  -3  122.59    3.90
   7   1   3  122.79    3.20
   7   1   3  133.49    4.10
   7  -1  -3  126.09    3.90
   7   1   3  120.69    3.70
   7  -1  -3  129.29    3.90
   7   1   3  125.29    3.90
   8  -1   3   16.70    1.80
   8  -1   3   18.30    1.90
   8   1  -3   13.60    1.60
  -8  -1  -3   11.40    1.60
   8   1  -3   17.00    1.70
   8   1  -3   12.50    1.60
   8   1  -3   12.00    1.60
   8   1  -3   12.60    1.60
   8  -1   3   16.00    1.90
   8  -1  -3   14.90    1.80
   8  -1  -3   14.90    1.60
   8  -1  -3   14.60    1.70
   8   1   3   16.50    1.90
   8   1   3   12.30    1.70
   8  -1  -3   15.80    1.70
   8   1   3   14.50    1.90
   8   1   3   12.20    1.60
  -8   1  -3   14.30    1.80
   8  -1  -3   13.70    1.50
   8   1   3   13.90    1.70
  -9  -1  -3   10.40    1.80
   9  -1   3    9.20    1.50
   9   1  -3    9.60    1.60
   9   1  -3   11.80    1.70
   9  -1   3    9.00    1.60
   9   1  -3   10.60    1.60
   9   1  -3    7.50    1.40
   9  -1   3   10.00    1.70
   9   1  -3    8.90    1.60
  -9   1  -3    7.80    1.80
   9  -1  -3   10.70    1.60
   9  -1  -3   12.00    1.60
   9  -1  -3    9.60    1.60
   9   1   3    8.80    1.70
   9  -1  -3    7.90    1.50
   9   1   3    9.80    1.70
   9   1   3    9.10    1.50
   9  -1  -3    9.50    1.50
   9   1   3    8.50    1.60
 -10  -1  -3    3.80    1.60
  10  -1   3    3.80    1.40
  10  -1   3    2.20    1.30
  10   1  -3    2.70    1.40
  10   1  -3    4.10    1.40
  10   1  -3    4.70    1.30
  10   1  -3    3.40    1.20
  10  -1   3    2.80    2.20
  10   1   3    4.20    1.50
  10  -1  -3    5.20    1.50
  10   1   3    3.50    1.50
 -10   1  -3    4.40    1.60
  10   1   3    3.80    1.40
  10  -1  -3    0.80    1.30
  10  -1  -3    1.10    1.20
  11   1  -3   60.49    3.70
  11   1  -3   60.99    3.50
  11   1  -3   61.89    3.60
  11  -1   3   57.09    3.70
 -11  -1  -3   56.39    3.80
  11   1  -3   57.69    3.30
  11  -1   3   55.69    3.50
  11   1   3   62.39    3.50
  11  -1  -3   58.99    3.60
  11  -1  -3   60.09    3.50
  11   1   3   58.29    3.80
  11  -1  -3   60.29    3.40
 -11   1  -3   63.99    4.10
   0  -2   3  202.98    3.40
   0   2  -3  198.88    3.70
   0  -2   3  199.58    3.40
   0   2  -3  201.68    3.60
   0   2   3  202.28    3.50
   0   2  -3  204.18    3.40
   0  -2  -3  201.08    3.00
   0  -2   3  208.98    3.80
   0   2  -3  197.18    3.60
   0  -2   3  199.98    3.60
   1   2  -3  155.98    2.60
   1  -2   3  159.68    3.10
  -1  -2  -3  159.68    2.60
   1  -2   3  179.78    3.30
   1  -2   3  157.28    2.80
   1   2  -3  152.78    3.20
   1  -2   3  160.08    2.90
   1   2  -3  154.78    3.00
   1  -2   3  165.48    2.70
   1   2  -3  152.78    3.00
  -1  -2  -3  160.28    2.80
  -1   2   3  162.08    2.80
   1   2   3  160.88    3.00
   1   2   3  162.48    2.80
  -1   2  -3  160.48    2.60
  -1  -2   3  156.18    2.60
   1  -2  -3  167.68    2.60
  -1   2  -3  163.18    3.10
   1   2   3  159.08    2.70
  -1  -2   3  154.68    3.10
   1  -2  -3  164.68    2.90
  -1  -2   3  160.08    3.00
  -1   2  -3  155.68    3.20
   2  -2   3  529.75    7.80
   2  -2   3  521.35    8.50
   2   2  -3  513.95    8.50
   2   2  -3  515.55    8.30
   2   2  -3  514.95    7.90
   2  -2   3  524.65    8.00
   2  -2   3  514.65    8.20
  -2  -2  -3  518.85    7.50
  -2  -2  -3  522.45    8.00
   2   2  -3  509.55    8.30
  -2   2   3  524.85    7.70
   2   2   3  496.15    8.00
  -2  -2   3  506.55    8.20
   2  -2  -3  518.25    8.20
   2  -2  -3  531.75    8.00
   2  -2  -3  519.85    8.00
   2   2   3  513.75    8.30
  -2  -2   3  505.95    8.30
  -2   2  -3  520.35    8.40
   2   2   3  494.25    8.30
   2  -2  -3  520.15    8.00
   2   2   3  528.45    8.10
   2   2   3  537.65    8.00
   2  -2  -3  518.35    8.20
  -2  -2   3  492.15    7.40
  -2   2  -3  512.75    8.50
   2   2   3  531.05    8.20
  -3  -2  -3  433.26    7.10
   3   2  -3  434.66    7.40
   3  -2   3  428.86    7.30
   3   2  -3  436.06    7.50
   3   2  -3  435.36    7.60
   3  -2   3  439.76    7.40
   3  -2   3  451.95    6.70
   3  -2   3  436.06    7.70
   3   2  -3  439.36    7.60
   3  -2   3  435.96    6.80
   3   2  -3  450.35    7.20
   3  -2  -3  440.06    7.60
  -3   2  -3  430.76    7.50
   3  -2  -3  436.06    7.40
   3   2   3  448.66    7.60
  -3  -2   3  452.85    6.40
   3   2   3  438.96    7.20
  -3  -2   3  442.46    7.30
   3  -2  -3  438.66    7.10
  -3  -2   3  437.26    7.30
   3   2   3  432.46    7.20
   3  -2  -3  448.96    7.40
  -3   2  -3  445.46    7.80
   3  -2  -3  450.95    7.40
   3   2   3  431.36    7.50
   3   2   3  440.96    7.40
   3   2   3  443.66    7.00
   3  -2  -3  451.05    7.10
   4   2  -3   81.79    2.40
  -4  -2  -3   81.29    2.20
   4   2  -3   79.69    2.50
   4   2  -3   79.59    2.40
   4  -2   3   77.89    2.50
   4   2  -3   78.49    2.30
   4  -2   3   82.49    2.30
   4  -2   3   83.39    1.90
   4  -2   3   79.29    1.80
  -4  -2  -3   76.29    2.30
   4   2  -3   80.19    2.30
   4  -2   3   75.59    2.20
   4  -2  -3   75.89    2.40
   4   2   3   78.79    2.10
   4  -2  -3   80.69    2.00
   4   2   3   76.89    2.20
   4  -2  -3   82.09    2.10
  -4  -2   3   78.99    2.10
  -4   2  -3   80.49    2.60
   4  -2  -3   79.59    2.30
   4   2   3   80.29    2.00
   4   2   3   82.79    2.50
   4  -2  -3   78.19    2.30
   4   2   3   79.89    2.40
   4  -2  -3   82.09    2.30
   4   2   3   81.39    2.40
  -4   2  -3   81.69    2.40
   5  -2   3  111.99    3.10
   5   2  -3  117.89    3.30
   5  -2   3  113.59    3.10
   5  -2   3  116.39    2.60
   5   2  -3  114.29    3.30
   5   2  -3  116.59    3.10
  -5  -2  -3  112.29    3.00
   5  -2   3  114.59    2.40
   5   2  -3  115.19    3.10
  -5  -2  -3  116.69    3.00
   5   2  -3  114.19    3.20
   5  -2   3  109.99    3.40
   5   2   3  111.89    2.70
  -5  -2   3  117.99    2.80
   5  -2  -3  113.09    3.10
   5  -2  -3  114.39    2.80
   5  -2  -3  116.79    2.80
   5   2   3  112.79    3.20
   5  -2  -3  110.39    3.20
   5  -2  -3  111.79    3.00
  -5   2  -3  108.09    3.10
   5   2   3  110.19    2.70
   5   2   3  115.59    3.20
  -5   2  -3  111.69    3.50
   5  -2  -3  110.39    3.20
   5   2   3  115.99    3.30
   5   2   3  110.79    3.00
   6   2  -3   86.49    3.00
   6  -2   3   85.99    2.90
   6   2  -3   84.49    2.00
  -6  -2  -3   85.29    2.80
   6   2  -3   88.29    2.80
   6   2  -3   87.49    2.90
   6  -2   3   85.19    2.10
   6  -2   3   83.19    3.00
   6  -2   3   85.59    2.40
   6  -2   3   83.49    2.80
   6   2  -3   84.99    3.00
  -6  -2  -3   83.19    2.70
   6   2  -3   87.09    3.10
   6   2   3   83.39    3.00
   6  -2  -3   79.99    2.70
   6  -2  -3   87.59    2.50
   6   2   3   85.39    2.30
   6   2   3   89.09    3.10
   6  -2  -3   83.69    2.60
   6   2   3   86.89    2.50
  -6   2  -3   82.99    3.00
   6  -2  -3   87.59    3.00
  -6   2  -3   81.09    3.20
   6  -2  -3   85.09    2.90
  -6  -2   3   85.59    2.40
   6   2   3   87.29    2.80
   6   2   3   86.09    3.00
   6  -2  -3   85.49    2.90
   7   2  -3   66.79    2.70
   7  -2   3   67.99    2.20
   7   2  -3   68.99    2.90
   7  -2   3   61.09    2.70
   7   2  -3   69.29    2.80
   7   2  -3   67.29    2.80
  -7  -2  -3   69.29    2.80
  -7  -2  -3   67.39    2.40
   7  -2   3   66.99    2.90
   7  -2   3   65.69    2.70
   7   2  -3   63.39    2.90
   7  -2  -3   67.49    2.80
   7   2   3   69.09    2.70
   7  -2  -3   66.99    2.60
  -7   2  -3   67.89    3.00
   7  -2  -3   70.29    2.50
  -7   2  -3   67.49    3.10
   7   2   3   70.09    3.00
   7  -2  -3   65.89    2.80
   7  -2  -3   66.09    2.80
   7   2   3   68.79    2.90
   7  -2  -3   68.99    2.70
   7   2   3   68.49    2.90
  -7   2  -3   68.69    2.20
   7   2   3   67.49    2.40
   7   2   3   66.59    2.30
   8  -2   3   26.40    2.10
  -8  -2  -3   26.80    1.70
   8   2  -3   26.70    2.10
   8  -2   3   28.10    2.10
  -8  -2  -3   27.50    2.20
   8   2  -3   25.90    2.00
   8   2  -3   25.30    2.10
   8  -2   3   30.20    2.40
   8   2  -3   28.20    2.10
   8   2  -3   25.70    2.30
  -8   2  -3   23.60    2.10
   8  -2  -3   25.00    1.90
   8  -2  -3   26.60    2.20
   8  -2  -3   26.90    2.10
   8   2   3   28.50    2.20
   8  -2  -3   28.40    1.80
   8   2   3   28.50    2.20
   8   2   3   27.60    2.00
   8   2   3   28.80    1.70
   8   2   3   28.90    2.30
   8  -2  -3   29.30    2.20
   9   2  -3   28.10    2.50
   9  -2   3   27.50    2.30
   9  -2   3   26.00    2.20
   9   2  -3   23.10    2.30
  -9  -2  -3   27.60    2.50
   9  -2   3   32.60    2.70
   9   2  -3   29.30    2.10
   9   2  -3   22.60    2.20
   9   2  -3   28.70    2.30
   9  -2  -3   29.00    2.40
   9   2   3   28.20    2.50
   9   2   3   30.90    2.70
   9  -2  -3   29.10    2.40
   9  -2  -3   27.60    2.20
   9   2   3   30.20    2.30
  -9   2  -3   29.30    2.70
   9  -2  -3   28.90    2.30
   9   2   3   26.10    2.30
 -10  -2  -3   43.10    3.10
  10   2  -3   43.50    3.00
  10  -2   3   38.10    2.80
  10   2  -3   42.40    2.90
  10   2  -3   39.90    2.80
  10   2  -3   43.20    2.80
  10  -2   3   40.40    2.90
  10  -2  -3   39.50    2.60
  10   2   3   39.00    3.10
  10  -2  -3   37.90    2.90
 -10   2  -3   39.90    3.20
  10   2   3   40.20    2.80
  10   2   3   39.60    3.00
  10  -2  -3   42.00    2.80
  11  -2   3    4.00    1.60
  11   2  -3    3.40    1.40
  11   2  -3    5.50    1.70
  11  -2   3    5.30    1.70
  11   2  -3    5.60    1.60
  11   2  -3    4.40    1.50
 -11   2  -3    7.40    2.00
  11  -2  -3    8.00    1.70
  11  -2  -3    4.10    1.70
  11   2   3    3.50    1.30
  11  -2  -3    5.40    1.60
  11   2   3    4.20    1.90
   0  -3  -3  789.02   11.80
   0  -3   3  784.02   12.30
   0   3  -3  789.42   11.80
   0  -3  -3  787.82   11.90
   0   3  -3  790.82   11.90
   0   3   3  774.12   11.80
   0  -3   3  805.92   11.90
   0   3  -3  786.22   12.10
   0  -3  -3  802.72   11.40
   0   3   3  796.42   11.40
   0  -3   3  780.42   11.80
   0   3  -3  777.92   12.10
  -1  -3  -3  132.89    2.30
  -1  -3  -3  134.79    2.40
  -1  -3  -3  134.29    2.40
   1  -3   3  135.09    3.00
   1   3  -3  134.89    2.70
  -1  -3  -3  132.29    2.80
  -1   3   3  113.99    2.20
   1   3  -3  134.99    2.90
   1  -3   3  130.09    2.50
   1   3  -3  130.69    2.90
   1  -3   3  135.99    2.80
   1  -3   3  138.89    2.40
  -1   3   3  131.19    2.50
   1  -3  -3  129.59    2.30
  -1  -3   3  130.59    2.70
  -1   3  -3  134.39    2.50
   1   3   3  131.99    2.70
   1  -3  -3  134.49    2.70
   1  -3  -3  137.89    2.50
  -1  -3   3  131.99    2.90
  -1   3  -3  132.39    2.70
  -1  -3   3  129.79    2.40
   1  -3  -3  146.09    2.60
  -1   3  -3  130.39    2.90
   1   3   3  134.39    2.40
   2   3  -3  778.22   12.20
  -2  -3  -3  785.42   11.80
  -2   3   3  785.52   11.40
   2   3  -3  768.92   12.10
  -2  -3  -3  787.82   11.30
   2  -3   3  775.02   11.60
  -2  -3  -3  785.42   11.50
  -2   3   3  783.92   11.60
   2  -3   3  763.22   11.80
   2  -3   3  767.22   12.20
   2   3  -3  746.93   11.90
   2  -3   3  793.32   11.70
  -2  -3  -3  760.52   12.10
   2   3  -3  778.52   11.60
   2   3  -3  751.42   12.10
  -2  -3   3  786.72   11.30
   2  -3  -3  772.42   11.30
   2   3   3  760.82   11.70
   2   3   3  809.12   11.80
   2  -3  -3  784.42   11.80
   2  -3  -3  781.32   11.90
  -2   3  -3  790.42   12.10
   2   3   3  762.32   11.60
   2   3   3  770.42   12.10
  -2  -3   3  758.52   11.90
   2  -3  -3  786.42   11.70
   2  -3  -3  772.32   12.00
  -2   3  -3  777.02   12.30
   2  -3  -3  785.42   11.50
  -2  -3   3  765.22   12.10
   2   3   3  739.03   11.80
  -3   3   3  563.94    8.90
   3   3  -3  554.44    9.30
   3  -3   3  547.15    8.50
   3   3  -3  551.14    8.80
   3  -3   3  550.34    9.00
   3   3  -3  544.75    9.20
   3   3  -3  549.25    9.00
  -3  -3  -3  559.54    9.20
   3  -3   3  554.24    9.40
   3   3  -3  555.14    9.30
  -3  -3  -3  561.24    8.20
  -3  -3  -3  549.25    8.60
  -3   3   3  562.64    8.10
   3  -3   3  560.24    8.90
   3   3   3  542.85    8.80
   3  -3  -3  558.04    8.50
   3   3   3  546.85    9.00
   3   3   3  530.05    9.20
  -3  -3   3  558.84    8.20
   3   3   3  532.15    9.20
   3  -3  -3  551.14    8.80
   3  -3  -3  548.55    8.90
  -3  -3   3  562.24    9.00
  -3   3  -3  553.04    9.20
   3  -3  -3  549.35    9.00
  -3  -3   3  566.14    9.10
   3  -3  -3  541.95    9.10
  -3   3  -3  544.05    9.50
   3   3   3  554.14    8.90
   3   3   3  570.54    8.80
   4   3  -3  506.75    8.90
   4  -3   3  522.05    8.00
   4   3  -3  499.85    8.50
   4  -3   3  500.95    8.60
  -4  -3  -3  500.85    8.70
   4   3  -3  498.25    8.50
   4   3  -3  499.95    8.90
   4  -3   3  491.35    9.00
  -4   3   3  507.45    8.70
  -4  -3  -3  511.65    8.30
   4  -3   3  504.85    8.00
   4   3  -3  513.25    8.90
   4  -3   3  498.45    8.60
   4  -3  -3  515.55    8.40
  -4  -3   3  529.75    8.60
   4   3   3  497.95    8.90
   4   3   3  502.55    8.40
   4  -3  -3  490.85    8.70
   4  -3  -3  515.05    8.00
   4  -3  -3  493.55    8.80
   4   3   3  499.35    8.70
   4   3   3  501.45    8.30
   4   3   3  513.95    8.30
  -4   3  -3  511.55    9.20
  -4   3  -3  505.15    8.80
   4   3   3  500.85    8.90
   4  -3  -3  505.35    8.50
  -4  -3   3  499.85    8.50
   5   3  -3   69.49    2.50
   5   3  -3   73.19    2.40
   5  -3   3   70.39    2.40
   5   3  -3   69.19    2.50
   5  -3   3   72.99    1.90
  -5  -3  -3   67.19    2.20
  -5  -3  -3   70.59    2.40
   5   3  -3   70.59    2.30
   5  -3   3   76.39    2.00
   5  -3   3   71.79    2.40
   5  -3   3   70.79    2.70
   5   3  -3   72.59    2.60
   5   3   3   74.59    2.60
  -5  -3   3   74.69    2.30
  -5   3  -3   69.99    2.50
   5   3   3   67.49    2.50
   5  -3  -3   66.49    2.30
   5  -3  -3   72.29    2.20
   5  -3  -3   69.39    2.50
   5  -3  -3   73.99    2.00
   5   3   3   70.29    2.10
  -5   3  -3   68.99    2.70
   5   3   3   67.19    2.10
   5  -3  -3   69.29    2.50
   5   3   3   68.19    2.20
   5   3   3   72.09    2.60
   6  -3   3   63.19    2.00
   6   3  -3   66.89    2.50
  -6  -3  -3   65.99    2.40
   6  -3   3   62.49    2.50
   6   3  -3   64.49    2.60
   6   3  -3   61.69    2.70
   6  -3   3   63.19    2.50
   6   3  -3   61.49    2.60
   6   3  -3   62.09    2.40
  -6  -3  -3   63.19    2.30
   6  -3   3   65.59    2.80
   6  -3   3   61.69    1.80
   6   3  -3   60.79    1.80
   6  -3  -3   60.29    2.30
   6   3   3   64.99    2.10
   6  -3  -3   63.79    2.20
   6  -3  -3   62.39    2.10
   6  -3  -3   60.99    2.50
  -6   3  -3   64.09    2.90
   6  -3  -3   59.69    2.50
  -6  -3   3   61.59    2.20
   6   3   3   63.79    2.70
   6   3   3   61.69    2.20
   6   3   3   66.89    2.40
   6   3   3   67.49    2.70
  -6   3  -3   60.09    2.50
   6  -3  -3   62.39    2.60
   6   3   3   62.59    2.60
   7   3  -3   56.29    2.40
   7  -3   3   58.79    2.10
   7  -3   3   55.69    2.70
   7  -3   3   54.09    2.50
   7   3  -3   53.79    2.80
  -7  -3  -3   59.59    2.40
   7  -3   3   59.79    2.70
   7   3  -3   57.19    2.70
  -7  -3  -3   60.19    2.60
   7   3  -3   56.99    2.70
   7   3  -3   57.19    2.60
   7   3   3   59.89    2.80
  -7   3  -3   57.19    3.00
   7   3   3   59.89    2.80
   7  -3  -3   58.69    2.70
   7  -3  -3   57.79    2.20
   7   3   3   57.59    2.20
   7   3   3   56.79    2.80
   7   3   3   57.69    2.50
   7  -3  -3   57.39    2.30
   7   3   3   56.69    2.00
   7  -3  -3   53.29    2.60
   7  -3  -3   57.89    2.50
  -7   3  -3   50.39    2.70
   7  -3  -3   54.69    2.60
   8   3  -3   25.70    2.30
  -8  -3  -3   23.60    2.20
   8   3  -3   30.80    2.20
   8  -3   3   27.90    2.30
   8   3  -3   28.20    2.10
   8  -3   3   31.00    2.50
   8  -3   3   28.00    2.20
   8   3  -3   25.90    2.00
  -8  -3  -3   29.00    1.80
   8   3  -3   24.40    2.10
   8  -3   3   24.80    2.00
   8   3   3   26.40    2.00
  -8   3  -3   25.20    2.20
  -8   3  -3   28.80    2.50
   8  -3  -3   26.90    2.20
   8  -3  -3   26.90    2.10
   8  -3  -3   23.10    2.00
   8  -3  -3   23.30    1.90
   8   3   3   29.90    2.40
   8   3   3   24.70    2.20
   8   3   3   26.10    2.10
   8   3   3   28.10    1.80
  -9  -3  -3   56.99    3.20
   9   3  -3   60.09    3.20
   9   3  -3   60.99    3.20
   9  -3   3   61.49    3.40
   9   3  -3   65.29    3.50
   9  -3   3   63.39    3.20
   9  -3   3   52.89    3.00
   9   3  -3   55.49    2.90
   9   3  -3   59.39    3.20
   9  -3  -3   57.29    3.20
   9  -3  -3   57.29    3.00
  -9   3  -3   58.99    3.50
   9  -3  -3   59.39    3.20
   9   3   3   63.39    3.10
   9   3   3   59.49    3.40
   9  -3  -3   58.59    3.00
   9   3   3   55.49    3.30
   9   3   3   52.09    3.00
  10   3  -3   30.10    2.50
  10  -3   3   32.10    2.70
 -10  -3  -3   36.30    2.90
  10   3  -3   33.60    2.70
  10   3  -3   32.60    2.80
  10  -3   3   34.50    2.70
  10   3  -3   32.70    2.70
  10   3   3   26.10    2.70
  10  -3  -3   32.50    2.60
  10  -3  -3   29.30    2.80
  10   3   3   31.70    2.50
 -10   3  -3   27.10    3.00
  10   3   3   31.80    2.90
  10  -3  -3   28.70    2.50
  10   3   3   30.60    2.80
  11   3  -3    8.30    1.70
  11   3  -3    7.70    1.80
  11   3  -3    7.40    1.80
  11   3  -3    7.80    1.70
  11  -3   3   10.60    2.00
  11  -3  -3    7.40    1.80
  11   3   3    7.40    1.60
  11  -3  -3    9.20    1.80
   0   4  -3  133.39    2.90
   0   4  -3  141.69    3.10
   0  -4  -3  139.49    2.70
   0  -4   3  135.19    2.80
   0  -4   3  136.49    3.10
   0   4  -3  135.09    2.80
   0  -4  -3  138.89    2.50
   0  -4   3  138.99    2.90
   0   4  -3  137.39    2.70
   0  -4  -3  133.69    2.80
   0   4   3  131.99    2.70
   1   4  -3  254.57    4.80
  -1   4   3  252.77    4.30
  -1  -4  -3  257.77    4.30
   1   4  -3  252.67    4.60
  -1  -4  -3  251.67    4.70
   1  -4   3  255.57    4.90
   1   4  -3  246.78    4.70
   1  -4   3  255.17    4.80
  -1  -4  -3  256.77    4.00
   1  -4   3  262.17    4.20
   1  -4   3  251.97    4.50
  -1  -4  -3  250.27    4.30
   1  -4  -3  253.77    4.20
   1   4   3  252.07    4.50
  -1   4  -3  255.67    4.40
  -1   4  -3  254.27    4.60
  -1   4  -3  252.97    4.60
  -1  -4   3  249.78    4.60
   1  -4  -3  255.67    4.70
  -1  -4   3  255.07    4.90
   1  -4  -3  255.77    4.20
  -1  -4   3  256.37    4.40
  -1   4  -3  251.27    4.90
   1   4   3  242.48    4.30
   1   4   3  252.57    4.50
   1  -4  -3  252.87    4.40
  -2   4   3  101.49    2.20
   2   4  -3   99.49    2.50
  -2  -4  -3  101.09    2.00
  -2   4   3  101.09    2.00
   2  -4   3  104.39    2.30
   2   4  -3  100.39    2.60
   2  -4   3   98.99    2.60
   2  -4   3  100.19    2.20
   2   4  -3  104.69    2.70
   2  -4   3   99.99    2.20
   2  -4   3   99.49    2.60
  -2  -4  -3   99.89    2.30
  -2  -4  -3  103.09    2.60
   2   4  -3  102.29    2.40
  -2  -4  -3  100.49    1.90
   2   4  -3  101.39    2.20
  -2  -4   3  103.49    2.70
   2  -4  -3  101.89    2.00
  -2   4  -3   99.59    2.50
   2   4   3   98.89    2.30
   2  -4  -3   98.49    2.50
   2   4   3   99.09    2.50
   2  -4  -3   99.39    2.20
   2   4   3   98.69    2.40
  -2  -4   3  103.39    2.10
   2  -4  -3   97.69    2.40
   2   4   3  103.19    2.10
  -2   4  -3   98.69    2.70
   2  -4  -3  103.09    2.00
   2  -4  -3  103.29    2.20
   2   4   3  106.39    2.50
   3  -4   3  214.48    4.00
   3  -4   3  214.68    4.70
   3   4  -3  207.58    4.50
  -3   4   3  214.78    3.50
  -3  -4  -3  208.78    3.80
   3   4  -3  213.18    4.20
   3   4  -3  215.58    4.10
  -3  -4  -3  217.38    4.50
  -3  -4  -3  208.58    3.60
   3   4  -3  213.28    4.50
   3   4  -3  209.78    4.50
   3  -4   3  219.38    4.20
   3  -4   3  219.38    4.20
  -3   4   3  220.88    4.20
   3  -4  -3  218.48    4.20
   3   4   3  218.88    4.30
  -3  -4   3  218.58    4.50
  -3  -4   3  212.48    4.30
  -3  -4   3  213.68    3.60
   3  -4  -3  214.98    4.30
   3  -4  -3  219.28    3.60
   3  -4  -3  214.78    4.10
   3  -4  -3  212.48    4.40
  -3   4  -3  209.88    4.70
  -3   4  -3  212.48    4.40
   3  -4  -3  216.88    3.40
   3   4   3  212.48    4.50
   3   4   3  221.88    4.20
   3   4   3  216.28    4.20
   3   4   3  217.48    4.00
   4  -4   3  106.39    3.20
   4   4  -3  104.59    3.00
   4   4  -3  104.19    2.70
   4   4  -3  105.29    2.70
   4  -4   3  104.69    2.40
  -4  -4  -3  103.79    2.10
  -4   4   3  110.29    2.80
   4   4  -3   99.89    3.00
   4   4  -3  101.09    3.00
   4  -4   3   99.19    2.70
  -4  -4  -3  108.59    2.50
  -4  -4  -3  104.59    2.90
   4  -4   3  103.89    2.80
   4   4   3   99.69    2.80
   4   4   3   98.39    2.90
   4   4   3  102.69    2.50
  -4  -4   3   99.89    2.70
   4  -4  -3  104.29    2.20
  -4   4  -3  106.59    2.90
   4  -4  -3  101.19    2.60
   4  -4  -3  100.19    2.90
   4   4   3  106.69    3.10
  -4  -4   3  107.49    2.90
   4  -4  -3  105.69    2.70
  -4   4  -3  104.49    3.20
   4   4   3  106.79    2.70
  -4  -4   3  109.09    2.10
   4   4   3  103.89    2.60
   5   4  -3  123.29    3.20
  -5   4   3  118.99    3.30
   5  -4   3  118.99    2.80
   5   4  -3  121.79    3.30
   5  -4   3  120.39    2.80
   5   4  -3  116.69    3.50
   5  -4   3  120.69    3.60
   5   4  -3  119.09    3.60
  -5  -4  -3  122.19    3.30
   5   4  -3  117.59    3.50
   5  -4   3  120.79    3.30
  -5  -4  -3  119.89    3.00
   5  -4   3  116.79    3.20
  -5  -4   3  118.59    3.20
  -5   4  -3  116.29    3.70
   5  -4  -3  122.69    3.20
   5  -4  -3  121.19    3.20
   5   4   3  121.49    3.00
   5   4   3  116.59    3.50
   5  -4  -3  110.59    3.30
   5   4   3  119.79    3.60
  -5   4  -3  118.49    3.40
   5   4   3  114.59    3.00
   5   4   3  123.79    3.50
   5   4   3  118.79    3.00
   5  -4  -3  121.59    2.60
   5  -4  -3  116.09    3.40
   6   4  -3   30.10    1.40
   6  -4   3   27.30    1.70
   6  -4   3   25.90    1.30
   6   4  -3   27.40    1.70
   6   4  -3   26.20    1.80
   6   4  -3   27.10    1.80
   6  -4   3   26.50    1.70
  -6  -4  -3   29.50    1.70
   6  -4   3   28.50    1.40
  -6  -4  -3   25.70    1.60
   6  -4   3   25.50    1.90
   6   4  -3   26.30    1.90
   6   4  -3   24.70    1.60
  -6  -4   3   26.10    1.60
   6  -4  -3   25.00    1.20
   6   4   3   26.00    1.50
   6   4   3   26.40    1.50
   6   4   3   22.90    1.80
   6  -4  -3   26.40    1.60
  -6   4  -3   26.70    2.10
   6  -4  -3   27.70    1.80
  -6   4  -3   23.50    1.70
   6   4   3   26.40    1.80
   6  -4  -3   26.90    1.60
   6   4   3   29.40    1.90
   6   4   3   26.60    1.50
   6  -4  -3   24.20    1.80
   7  -4   3   73.79    3.00
   7  -4   3   71.19    2.90
  -7  -4  -3   72.89    2.70
   7   4  -3   70.59    2.70
   7   4  -3   72.49    3.10
   7  -4   3   76.69    2.50
   7   4  -3   71.39    3.00
  -7  -4  -3   69.19    2.80
   7  -4   3   73.59    3.20
   7   4  -3   74.59    3.00
   7   4  -3   73.09    3.20
  -7  -4   3   69.69    2.60
   7   4   3   72.49    2.40
   7   4   3   72.49    3.10
   7  -4  -3   68.59    2.60
   7   4   3   68.49    2.60
   7  -4  -3   63.99    2.80
   7   4   3   72.69    2.70
  -7   4  -3   71.49    3.40
   7  -4  -3   67.69    2.80
   7   4   3   69.89    3.10
  -7   4  -3   65.89    3.10
   7  -4  -3   70.79    3.00
   7   4   3   67.29    3.00
   7  -4  -3   69.99    2.90
   8   4  -3  149.79    4.40
   8   4  -3  148.19    4.70
   8   4  -3  148.29    5.00
  -8  -4  -3  155.48    4.40
   8  -4   3  151.98    4.70
   8   4  -3  144.69    4.70
   8  -4   3  140.79    4.60
  -8  -4  -3  149.69    4.60
   8  -4   3  148.29    4.90
   8   4  -3  147.59    4.70
   8  -4  -3  144.09    4.70
   8   4   3  144.09    4.80
  -8   4  -3  147.79    5.10
   8  -4  -3  140.89    4.40
   8   4   3  153.38    4.40
   8   4   3  149.88    4.90
   8  -4  -3  142.29    4.60
   8   4   3  154.28    4.90
   8   4   3  147.59    4.10
   8  -4  -3  148.59    4.70
  -8   4  -3  142.79    4.90
   9   4  -3  140.59    4.50
  -9  -4  -3  141.99    4.80
   9  -4   3  138.59    5.10
   9  -4   3  148.39    4.90
   9   4  -3  144.69    5.00
   9  -4   3  137.89    4.90
   9  -4   3  151.18    5.30
   9   4  -3  149.19    5.30
   9   4  -3  149.49    5.00
   9   4  -3  138.79    4.90
   9   4   3  139.69    5.00
   9   4   3  141.89    5.10
   9   4   3  139.79    5.00
   9  -4  -3  134.69    4.80
  -9   4  -3  130.99    5.00
   9   4   3  142.59    4.60
   9  -4  -3  136.59    4.60
   9  -4  -3  142.89    4.80
   9  -4  -3  145.49    4.90
  10   4  -3   44.80    3.00
  10  -4   3   45.40    3.00
  10   4  -3   46.00    2.90
  10   4  -3   42.70    3.10
  10   4  -3   47.60    3.20
  10  -4   3   47.40    3.10
  10  -4  -3   46.30    3.00
 -10   4  -3   49.20    3.60
  10   4   3   43.50    2.80
  10  -4  -3   46.60    3.20
  10  -4  -3   49.10    2.70
  10   4   3   40.70    3.10
  10  -4  -3   43.70    2.90
  10   4   3   42.20    3.00
  11  -4   3    8.90    1.90
  11   4  -3   10.20    2.00
  11   4  -3    7.40    1.70
  11   4  -3    8.60    1.80
  11  -4  -3   11.10    1.90
  11   4   3    7.50    1.70
   0  -5  -3   20.10    1.10
   0   5  -3   18.80    1.00
   0  -5   3   20.00    1.30
   0   5  -3   18.50    0.90
   0  -5   3   20.20    1.00
   0  -5  -3   18.30    0.90
   0   5  -3   22.30    1.10
   0   5   3   18.90    0.80
   0  -5   3   19.80    1.00
   0  -5  -3   17.80    0.80
   0  -5  -3   18.90    1.00
   1   5  -3  366.96    6.60
  -1   5   3  361.16    6.00
   1  -5   3  363.26    6.70
  -1  -5  -3  361.56    6.40
  -1  -5  -3  356.76    6.00
   1   5  -3  362.16    6.40
   1   5  -3  348.77    6.30
  -1  -5  -3  358.16    6.00
   1  -5   3  354.06    6.20
   1   5  -3  363.26    6.00
  -1   5   3  370.26    5.90
   1  -5   3  365.66    6.50
  -1  -5  -3  360.66    5.30
   1  -5   3  369.26    5.90
   1  -5  -3  358.56    5.90
  -1  -5   3  364.46    6.10
   1  -5  -3  366.06    6.30
   1  -5  -3  360.16    5.70
  -1  -5   3  379.06    6.80
  -1  -5   3  358.66    6.30
  -1   5  -3  353.16    6.60
  -1   5  -3  359.36    6.10
   1   5   3  362.66    6.00
   1  -5  -3  361.56    6.40
  -1   5  -3  363.96    6.20
   1  -5  -3  363.96    6.10
   1   5   3  344.57    6.10
   1   5   3  349.17    6.20
   2  -5   3  285.27    5.70
  -2   5   3  298.57    5.20
  -2  -5  -3  299.67    4.50
  -2  -5  -3  297.67    5.20
   2  -5   3  288.77    5.60
   2  -5   3  290.87    5.10
  -2  -5  -3  292.07    5.60
   2   5  -3  289.17    5.60
   2   5  -3  288.27    5.10
   2   5  -3  292.07    5.70
  -2   5   3  292.67    4.90
   2   5  -3  299.87    5.60
   2  -5   3  288.97    5.10
  -2  -5  -3  299.17    5.00
   2  -5   3  291.27    5.20
   2   5   3  288.77    4.70
   2   5   3  301.17    5.50
   2  -5  -3  288.67    5.40
  -2  -5   3  297.97    5.80
   2   5   3  294.37    5.40
   2  -5  -3  289.17    5.20
   2   5   3  285.47    5.20
  -2   5  -3  289.47    5.80
   2  -5  -3  293.87    5.60
   2   5   3  285.47    5.30
  -2   5  -3  299.67    5.40
   2  -5  -3  295.07    4.90
   2  -5  -3  290.77    4.90
   2  -5  -3  295.27    4.50
   2  -5  -3  289.87    5.50
  -2  -5   3  292.07    5.00
   3   5  -3   63.49    1.90
   3   5  -3   64.09    2.20
   3   5  -3   65.89    1.90
   3  -5   3   65.69    2.00
   3  -5   3   65.79    1.90
   3  -5   3   61.99    1.90
  -3   5   3   65.39    1.50
   3  -5   3   61.79    2.10
  -3  -5  -3   69.29    2.30
  -3   5   3   67.49    2.00
  -3  -5  -3   65.69    1.60
   3  -5   3   67.69    2.40
  -3  -5  -3   65.49    1.50
   3   5  -3   62.19    2.30
   3   5   3   64.99    1.70
  -3   5  -3   68.39    2.50
   3  -5  -3   64.39    2.00
  -3  -5   3   68.49    1.70
   3  -5  -3   64.99    1.80
   3   5   3   64.09    2.10
  -3  -5   3   66.59    2.30
  -3  -5   3   64.49    2.10
   3   5   3   63.79    2.00
   3  -5  -3   65.09    2.10
   3  -5  -3   66.19    1.50
   3   5   3   59.69    2.00
   3   5   3   63.49    2.00
  -3   5  -3   62.59    2.10
   3  -5  -3   64.69    1.30
   4  -5   3   97.89    2.70
   4  -5   3   95.49    2.70
   4   5  -3   91.89    3.00
   4  -5   3   92.29    3.00
  -4   5   3   97.59    1.80
  -4  -5  -3   96.59    2.10
   4   5  -3   90.39    2.90
  -4  -5  -3   96.19    2.90
   4  -5   3   95.19    2.40
   4   5  -3   94.29    2.50
   4   5  -3   93.19    2.90
  -4   5   3   99.29    2.80
  -4  -5  -3   96.79    2.30
   4   5  -3   95.99    2.70
  -4  -5   3   96.59    2.10
  -4   5  -3   96.49    3.20
   4   5   3   92.39    2.90
   4  -5  -3   95.39    2.50
   4   5   3   96.09    2.70
  -4   5  -3   94.49    2.80
   4  -5  -3   96.09    2.90
   4   5   3   91.69    2.60
   4  -5  -3   97.59    2.80
   4   5   3   97.89    2.80
   4  -5  -3   94.89    1.90
  -4  -5   3   98.19    2.70
   4   5   3   92.79    2.40
  -4  -5   3   97.39    3.00
   5   5  -3  220.48    4.70
  -5   5   3  217.48    5.00
   5   5  -3  217.38    5.20
   5  -5   3  224.78    5.00
  -5  -5  -3  226.68    4.50
   5  -5   3  218.78    4.90
   5   5  -3  218.28    5.20
   5   5  -3  221.58    4.90
  -5  -5  -3  220.48    5.10
   5  -5   3  220.58    4.40
  -5   5   3  216.18    5.40
   5  -5   3  219.98    4.40
   5   5  -3  219.08    5.30
  -5  -5  -3  219.58    4.00
   5  -5   3  222.68    5.50
  -5   5  -3  212.18    5.10
   5   5   3  214.38    4.50
   5  -5  -3  219.48    5.20
  -5  -5   3  221.38    4.80
  -5  -5   3  221.78    5.10
   5  -5  -3  225.58    4.70
   5   5   3  219.98    4.80
   5  -5  -3  203.88    5.10
  -5   5  -3  224.48    5.60
   5  -5  -3  224.68    5.00
   5   5   3  219.08    5.10
  -5  -5   3  225.48    4.00
   5   5   3  221.98    5.30
   5   5   3  215.68    5.30
   5   5   3  225.28    4.70
   6   5  -3  135.29    3.60
   6   5  -3  136.49    4.10
   6   5  -3  137.59    3.30
   6  -5   3  135.89    3.30
   6  -5   3  132.69    3.80
   6  -5   3  137.39    3.90
   6   5  -3  130.69    4.10
   6  -5   3  135.59    3.20
  -6  -5  -3  128.79    3.50
   6  -5   3  135.29    4.30
   6   5  -3  135.79    3.90
  -6   5   3  129.39    3.90
   6   5  -3  125.39    4.00
  -6  -5  -3  131.89    3.80
   6   5   3  126.49    3.50
   6  -5  -3  132.09    3.60
   6   5   3  131.39    4.10
   6  -5  -3  131.29    4.00
   6   5   3  135.99    3.50
   6  -5  -3  129.49    4.00
   6   5   3  135.19    4.00
   6   5   3  135.99    4.10
   6   5   3  131.59    3.60
  -6  -5   3  131.29    3.80
  -6   5  -3  134.19    4.10
   6  -5  -3  136.59    3.80
  -6   5  -3  135.49    4.40
   7  -5   3   50.29    2.50
   7   5  -3   45.90    2.60
   7  -5   3   45.80    2.40
  -7  -5  -3   45.20    2.30
   7   5  -3   43.80    2.20
   7  -5   3   46.70    1.90
   7   5  -3   44.50    2.70
   7   5  -3   47.40    2.60
  -7  -5  -3   45.90    2.40
   7   5  -3   49.40    2.50
   7  -5   3   44.70    2.70
   7  -5  -3   44.50    2.30
   7   5   3   46.10    2.60
   7  -5  -3   43.70    2.50
   7   5   3   45.10    2.20
   7   5   3   47.40    2.10
   7  -5  -3   45.20    2.40
   7   5   3   49.20    2.60
  -7  -5   3   45.40    2.30
   7   5   3   46.30    2.20
   7   5   3   46.20    2.60
   7  -5  -3   49.10    2.40
  -7   5  -3   44.70    2.70
   7  -5  -3   45.30    2.40
  -7   5  -3   46.40    2.90
   8   5  -3   22.30    2.00
   8  -5   3   21.70    2.10
   8   5  -3   19.90    2.10
   8   5  -3   22.80    2.20
   8   5  -3   23.60    2.10
   8  -5   3   25.60    2.30
   8   5  -3   24.00    1.90
   8  -5   3   20.30    2.00
  -8  -5  -3   22.20    1.90
  -8   5  -3   22.90    2.40
   8   5   3   22.50    2.30
   8  -5  -3   19.90    1.90
   8  -5  -3   22.10    2.20
   8   5   3   25.50    1.90
   8   5   3   21.40    2.20
   8  -5  -3   24.70    2.10
  -8   5  -3   21.20    2.20
   8   5   3   24.30    1.80
   8  -5  -3   22.30    2.10
   8   5   3   25.50    2.30
   9  -5   3   36.30    2.90
   9   5  -3   42.70    2.90
   9  -5   3   39.50    2.80
   9   5  -3   37.60    2.50
   9   5  -3   45.20    3.20
   9   5  -3   39.10    2.80
   9   5  -3   39.10    2.70
   9  -5   3   42.10    2.80
   9   5   3   50.29    3.20
  -9   5  -3   41.00    3.20
   9  -5  -3   43.00    2.90
   9   5   3   43.30    2.90
   9  -5  -3   38.30    2.40
   9  -5  -3   39.00    2.70
   9   5   3   44.50    2.60
   9   5   3   46.00    3.30
  -9   5  -3   37.90    3.10
   9  -5  -3   36.00    2.50
   9  -5  -3   40.30    2.90
  10   5  -3    0.80    1.00
  10   5  -3    0.80    1.20
  10  -5   3    2.80    1.30
  10  -5   3    1.30    1.20
  10  -5   3    6.90    1.70
  10   5  -3    2.70    1.40
  10   5  -3    1.70    1.20
  10  -5  -3    1.30    1.10
  10   5   3    1.70    1.30
 -10   5  -3    0.40    1.40
  10  -5  -3    1.70    1.20
  10   5   3    3.40    1.10
  10  -5  -3    1.80    1.30
  10   5   3    1.30    1.30
  10  -5  -3    0.90    1.10
   0   6  -3  310.67    5.60
   0   6   3  311.37    5.40
   0  -6  -3  305.27    5.50
   0   6   3  309.87    5.60
   0  -6   3  314.97    5.70
   0   6  -3  304.57    5.70
   0  -6   3  312.17    5.80
   0   6  -3  309.07    5.40
   0  -6   3  308.27    6.10
   0  -6  -3  303.87    5.90
   0   6  -3  299.77    6.00
   0  -6  -3  313.67    4.60
   0  -6  -3  314.87    5.40
   0  -6  -3  317.17    5.70
  -1   6   3   77.49    2.00
   1  -6   3   76.69    2.50
   1   6  -3   77.19    2.30
   1  -6   3   76.59    2.20
  -1  -6  -3   78.79    2.00
   1   6  -3   79.59    2.30
  -1  -6  -3   78.09    2.40
  -1   6   3   80.49    2.00
   1   6  -3   77.29    2.50
   1  -6   3   75.19    1.90
   1   6  -3   77.89    1.90
  -1  -6  -3   78.59    2.00
   1  -6   3   76.49    2.40
   1   6   3   79.09    2.10
   1  -6  -3   75.69    2.00
   1  -6  -3   80.69    2.20
   1  -6  -3   79.19    2.10
  -1  -6   3   79.29    2.20
   1  -6  -3   80.89    1.60
   1  -6  -3   77.69    2.40
  -1   6  -3   77.19    2.10
   1   6   3   77.69    2.20
   1   6   3   79.19    2.10
  -1   6  -3   76.59    2.10
  -1  -6   3   77.39    2.20
  -1  -6   3   81.19    2.60
  -1   6  -3   77.49    2.50
   2  -6   3  178.58    3.60
   2   6  -3  179.98    4.30
   2  -6   3  182.58    4.30
  -2  -6  -3  186.88    3.80
  -2  -6  -3  176.28    4.10
   2  -6   3  177.58    3.80
   2   6  -3  180.28    3.60
   2  -6   3  186.58    3.70
   2   6  -3  180.88    4.10
  -2  -6  -3  184.78    3.60
   2   6  -3  182.08    4.10
  -2   6   3  182.88    3.50
   2  -6   3  182.48    4.20
  -2   6   3  184.68    3.70
   2  -6  -3  184.18    3.60
   2   6   3  180.58    3.90
  -2   6  -3  175.88    4.30
   2  -6  -3  186.08    4.00
  -2  -6   3  179.28    3.90
  -2   6  -3  182.88    3.90
  -2  -6   3  185.98    3.70
   2   6   3  179.68    3.90
   2  -6  -3  178.08    4.10
   2  -6  -3  191.68    3.30
   2   6   3  186.28    3.80
   2   6   3  181.28    4.10
  -2  -6   3  176.88    4.30
   2  -6  -3  179.98    4.10
   2  -6  -3  183.38    3.70
  -2   6  -3  183.18    3.60
   3  -6   3  112.19    2.80
  -3   6   3  120.29    2.40
   3   6  -3  119.69    2.80
  -3  -6  -3  121.79    2.20
   3  -6   3  121.99    3.20
   3   6  -3  117.69    3.30
  -3  -6  -3  121.19    3.30
   3   6  -3  118.39    3.40
   3  -6   3  122.29    3.50
  -3  -6  -3  116.49    2.60
  -3   6   3  117.39    2.90
   3   6  -3  115.79    3.20
   3  -6   3  120.49    2.90
   3  -6   3  113.59    2.90
   3   6   3  118.39    2.50
  -3   6  -3  118.99    3.10
   3  -6  -3  121.39    3.00
   3  -6  -3  115.19    3.20
   3   6   3  115.49    3.00
   3   6   3  115.89    3.10
   3  -6  -3  117.69    2.50
  -3   6  -3  120.89    3.50
   3  -6  -3  116.09    2.60
   3   6   3  120.19    3.00
   3  -6  -3  118.29    3.20
  -3  -6   3  118.19    3.10
  -3  -6   3  115.89    3.40
   3   6   3  123.99    3.20
   3  -6  -3  120.99    3.20
  -3  -6   3  122.39    2.70
   4  -6   3  140.19    3.40
   4   6  -3  134.69    3.80
   4  -6   3  135.69    3.90
  -4   6   3  134.29    2.50
  -4   6   3  134.99    3.40
   4   6  -3  130.19    3.80
   4   6  -3  132.49    3.40
   4  -6   3  133.79    3.20
  -4  -6  -3  135.79    2.90
   4   6  -3  128.29    3.60
   4  -6   3  132.39    3.30
   4   6  -3  136.09    3.20
  -4  -6  -3  138.39    2.80
  -4  -6  -3  130.19    3.70
   4   6   3  133.09    3.40
   4  -6  -3  129.29    3.50
  -4   6  -3  132.49    3.50
  -4  -6   3  131.19    3.40
   4   6   3  136.09    3.00
   4   6   3  132.09    3.50
  -4  -6   3  135.29    2.90
   4  -6  -3  131.19    3.10
   4   6   3  130.29    3.70
   4  -6  -3  139.59    3.60
  -4   6  -3  127.39    3.90
  -4  -6   3  130.69    3.70
   4   6   3  139.69    3.60
   4  -6  -3  128.09    3.60
   5   6  -3   40.90    2.20
  -5  -6  -3   42.60    1.50
   5  -6   3   46.40    2.00
   5   6  -3   44.40    2.40
  -5   6   3   43.00    2.10
  -5  -6  -3   46.60    1.70
   5   6  -3   43.80    2.30
  -5  -6  -3   46.30    2.20
   5   6  -3   45.60    1.90
   5  -6   3   36.80    2.30
   5  -6   3   43.50    2.00
   5  -6   3   43.30    1.80
   5   6  -3   45.80    2.10
   5   6   3   41.80    1.90
   5  -6  -3   43.60    2.10
   5   6   3   41.40    1.90
  -5  -6   3   43.90    1.50
   5  -6  -3   41.20    2.10
   5   6   3   45.60    2.20
  -5   6  -3   45.40    2.50
  -5   6  -3   44.00    2.20
   5   6   3   46.20    2.20
   5   6   3   43.50    1.70
   5  -6  -3   42.80    2.10
  -5  -6   3   44.30    2.20
  -5  -6   3   41.40    1.90
   5  -6  -3   46.30    1.90
   6   6  -3   59.29    2.70
   6   6  -3   63.69    2.20
   6   6  -3   59.59    2.30
   6  -6   3   56.79    2.90
   6  -6   3   61.39    2.20
   6  -6   3   55.19    2.10
  -6  -6  -3   61.89    2.70
   6   6  -3   60.09    2.80
   6   6  -3   60.19    2.60
   6  -6   3   61.89    2.60
   6   6  -3   56.39    2.80
   6  -6   3   61.69    2.50
   6   6   3   62.29    2.80
   6  -6  -3   58.09    2.60
   6   6   3   56.49    2.40
   6  -6  -3   62.39    2.40
  -6   6  -3   65.59    2.80
   6   6   3   57.59    2.20
  -6   6  -3   61.19    3.00
   6   6   3   60.89    2.40
  -6  -6   3   56.79    2.60
   6  -6  -3   61.99    2.70
   6  -6  -3   59.59    2.50
   6   6   3   59.49    2.70
   6  -6  -3   62.29    2.60
   7   6  -3   91.39    3.00
   7   6  -3   81.49    3.40
   7  -6   3   88.99    3.30
   7   6  -3   95.49    3.80
   7  -6   3   94.19    2.80
   7  -6   3   81.99    3.30
   7  -6   3   86.59    3.60
  -7  -6  -3   86.69    3.30
   7   6  -3   89.39    3.40
   7   6  -3   85.89    2.70
   7   6  -3   84.89    3.50
  -7  -6   3   90.69    3.30
   7   6   3   84.09    2.90
   7   6   3   88.79    3.60
   7  -6  -3   91.29    3.30
   7   6   3   89.69    3.20
   7  -6  -3   86.19    3.50
   7   6   3   89.69    3.60
   7   6   3   91.49    3.00
   7   6   3   88.59    3.70
  -7   6  -3   92.59    4.00
   7  -6  -3   89.19    3.10
  -7   6  -3   87.09    3.60
   7  -6  -3   90.19    3.50
   7  -6  -3   93.09    3.40
   8  -6   3   44.40    2.70
   8   6  -3   44.40    2.40
   8  -6   3   46.10    3.00
   8   6  -3   42.70    3.00
   8   6  -3   45.30    2.80
   8   6  -3   45.50    2.70
   8   6  -3   43.10    2.70
  -8  -6  -3   45.90    2.60
   8  -6   3   43.50    2.60
   8  -6  -3   43.80    2.70
   8   6   3   38.70    2.30
  -8   6  -3   40.80    3.00
   8  -6  -3   44.20    2.70
   8   6   3   39.00    2.80
   8   6   3   41.90    2.70
   8  -6  -3   44.00    2.60
   8  -6  -3   45.40    2.80
  -8   6  -3   42.50    3.10
   8   6   3   48.10    2.90
   8   6   3   40.80    2.20
   8  -6  -3   45.90    2.50
   9  -6   3   87.39    3.80
   9  -6   3   87.29    4.20
   9  -6   3   94.79    4.00
   9   6  -3   94.89    4.10
   9   6  -3   98.49    4.30
   9   6  -3   99.39    3.70
   9   6  -3   96.79    5.60
   9   6  -3  100.49    4.20
   9  -6  -3   96.59    3.70
   9   6   3   99.09    3.70
   9  -6  -3   83.39    4.00
  -9   6  -3   90.49    4.50
   9   6   3   98.29    4.30
   9  -6  -3   95.19    3.80
   9  -6  -3   98.29    4.00
   9   6   3   96.19    4.30
  -9   6  -3   96.59    4.50
  10   6  -3    4.30    1.60
  10  -6   3    2.50    1.30
  10   6  -3    2.70    1.50
  10  -6   3    6.70    1.70
  10   6  -3    3.30    1.40
  10   6  -3    1.60    1.00
  10  -6   3    4.80    1.50
 -10   6  -3    1.10    1.60
  10  -6  -3    2.70    1.40
  10  -6  -3    3.20    1.40
  10   6   3    4.40    1.30
  10   6   3    3.40    1.50
  10   6   3   -0.80    1.30
  10  -6  -3    4.30    1.40
  10  -6  -3    2.10    1.20
   0  -7   3  164.68    3.70
   0  -7  -3  163.88    3.90
   0   7  -3  155.18    3.70
   0   7  -3  164.58    4.10
   0   7  -3  165.68    3.30
   0  -7  -3  164.28    3.60
   0  -7  -3  165.98    3.80
   0  -7  -3  165.98    3.50
   0  -7   3  164.78    4.20
   0   7   3  163.18    3.60
   0   7  -3  163.48    3.50
   0  -7   3  167.58    3.90
   0   7   3  168.48    3.50
  -1  -7  -3   23.20    1.20
   1   7  -3   25.30    1.40
   1  -7   3   28.00    1.40
   1   7  -3   26.60    1.10
  -1  -7  -3   23.10    1.40
   1  -7   3   25.00    1.50
   1  -7   3   27.20    1.20
   1   7  -3   24.60    1.40
   1  -7   3   25.80    1.60
  -1  -7  -3   26.20    1.50
   1   7  -3   24.30    1.60
  -1   7   3   24.10    1.20
  -1   7   3   25.50    1.20
  -1  -7  -3   24.00    1.20
   1  -7  -3   25.40    1.50
   1  -7  -3   24.20    1.20
  -1   7  -3   26.30    1.20
   1  -7  -3   26.50    0.70
   1  -7  -3   29.80    1.40
  -1  -7   3   26.00    1.30
   1  -7  -3   26.70    1.30
   1   7   3   26.50    1.30
   1   7   3   27.30    1.20
  -1   7  -3   26.60    1.60
   1   7   3   27.30    1.30
  -1  -7   3   28.40    1.40
  -1  -7   3   29.20    1.70
  -1   7  -3   25.20    1.20
   2   7  -3  558.84    9.80
  -2   7   3  575.84    9.30
   2  -7   3  560.14   10.00
   2   7  -3  553.94   10.00
  -2  -7  -3  552.34    9.10
  -2  -7  -3  564.14    9.90
   2  -7   3  560.04    9.20
   2   7  -3  545.95    9.50
   2  -7   3  557.34    9.90
  -2   7   3  553.14    9.00
   2   7  -3  552.34    8.90
   2   7  -3  560.54    8.80
   2  -7   3  554.24    9.50
   2   7   3  555.04    9.50
  -2  -7   3  547.55   10.10
  -2  -7   3  556.14    9.30
   2  -7  -3  567.64    9.30
  -2   7  -3  576.04   10.20
  -2   7  -3  550.74    8.90
   2  -7  -3  555.54    9.20
   2  -7  -3  555.94    9.80
   2  -7  -3  559.14    9.60
   2   7   3  559.74    9.40
  -2   7  -3  563.44    9.30
  -2  -7   3  553.94    9.50
   2  -7  -3  562.84    8.60
   2  -7  -3  564.14    9.80
   2   7   3  538.05    9.40
  -3  -7  -3   13.60    1.00
   3   7  -3   14.30    1.00
   3  -7   3   10.70    1.20
   3  -7   3   14.50    1.40
   3   7  -3   12.20    1.40
  -3   7   3   14.20    0.90
   3  -7   3   15.40    1.10
  -3  -7  -3   17.00    1.50
   3  -7   3   17.00    1.20
  -3   7   3   16.50    1.20
   3   7  -3   18.00    1.40
   3   7  -3   15.30    1.30
   3  -7   3   15.80    1.20
  -3   7  -3   15.50    1.20
  -3   7  -3   17.40    1.00
  -3  -7   3   15.60    1.30
   3  -7  -3   15.10    1.30
   3   7   3   17.20    1.30
   3   7   3   13.50    1.20
   3   7   3   15.20    0.80
  -3  -7   3   17.60    1.10
   3  -7  -3   14.40    0.90
  -3   7  -3   10.80    1.20
   3   7   3   14.20    1.10
   3  -7  -3   15.30    1.10
   3   7   3   16.50    1.30
  -3  -7   3   15.30    1.60
   3  -7  -3   14.50    1.30
   3  -7  -3   16.60    1.30
   4  -7   3  168.08    4.10
   4   7  -3  165.78    4.40
   4   7  -3  166.38    4.60
   4   7  -3  168.08    3.60
  -4   7   3  164.78    3.10
  -4   7   3  169.48    4.10
  -4  -7  -3  168.08    4.50
  -4  -7  -3  166.68    3.50
   4   7  -3  167.58    4.30
   4  -7   3  168.98    4.60
   4  -7   3  167.78    3.90
   4  -7   3  168.88    3.90
   4  -7  -3  172.08    3.70
   4   7   3  164.68    4.30
  -4  -7   3  168.58    3.60
  -4   7  -3  172.98    4.20
   4  -7  -3  167.38    4.20
   4   7   3  161.48    3.40
   4   7   3  164.78    4.20
  -4  -7   3  172.18    4.60
  -4  -7   3  164.78    4.10
  -4   7  -3  172.58    4.80
   4  -7  -3  162.28    4.30
   4   7   3  173.78    4.10
   4  -7  -3  166.98    4.30
   4   7   3  162.88    4.20
   5   7  -3   19.50    1.80
   5   7  -3   23.20    1.40
   5  -7   3   23.10    1.50
   5   7  -3   23.00    1.80
   5  -7   3   23.70    1.60
  -5  -7  -3   23.80    1.90
   5   7  -3   22.20    1.90
  -5  -7  -3   22.80    1.30
   5  -7   3   23.30    1.80
   5  -7   3   26.50    1.60
   5   7   3   21.90    1.60
   5   7   3   23.70    1.80
   5   7   3   22.00    1.20
  -5   7  -3   28.30    2.10
   5  -7  -3   25.00    1.90
   5  -7  -3   24.40    1.80
  -5  -7   3   21.40    1.80
  -5  -7   3   26.20    1.30
   5  -7  -3   23.50    1.80
  -5  -7   3   23.80    1.60
   5   7   3   26.20    1.80
  -5   7  -3   26.50    1.80
   5  -7  -3   23.60    1.40
   5   7   3   22.50    1.60
   6   7  -3   39.60    1.90
   6   7  -3   43.60    2.50
   6   7  -3   40.40    2.40
   6   7  -3   42.60    1.90
   6  -7   3   43.30    1.90
   6  -7   3   44.30    1.90
   6   7  -3   40.30    2.20
   6  -7   3   40.80    2.10
   6  -7   3   40.80    2.20
  -6  -7  -3   40.20    2.30
   6  -7   3   44.30    2.60
   6   7  -3   37.90    2.50
   6  -7  -3   43.70    2.40
   6  -7  -3   39.50    2.30
   6   7   3   40.90    2.40
  -6  -7   3   41.30    2.40
   6   7   3   42.20    2.40
   6  -7  -3   40.70    2.30
  -6   7  -3   41.50    2.40
  -6  -7   3   41.70    2.10
   6   7   3   38.20    2.10
   6   7   3   40.00    1.80
   6   7   3   41.40    2.10
   6  -7  -3   38.30    2.00
  -6   7  -3   43.90    2.70
   6  -7  -3   41.70    2.40
   7  -7   3   28.60    2.10
   7  -7   3   26.40    2.00
   7   7  -3   24.70    2.00
  -7  -7  -3   29.00    2.20
   7   7  -3   26.30    1.70
   7   7  -3   26.30    2.40
   7   7  -3   27.70    2.30
   7   7  -3   32.20    1.80
   7  -7   3   26.20    1.70
   7   7  -3   25.20    2.10
   7  -7   3   31.10    2.40
   7   7   3   24.50    1.80
   7  -7  -3   23.00    2.10
   7  -7  -3   23.60    2.00
  -7   7  -3   29.10    2.60
   7  -7  -3   28.20    2.10
   7   7   3   24.50    2.10
   7  -7  -3   30.40    2.10
  -7   7  -3   25.40    2.20
  -7  -7   3   25.50    2.20
   7   7   3   27.40    1.80
   7   7   3   27.70    2.20
   7  -7  -3   24.30    1.90
   7   7   3   29.00    1.70
   8   7  -3   88.79    3.70
  -8  -7  -3   82.39    3.60
   8   7  -3   86.79    4.10
   8   7  -3   80.59    3.10
   8   7  -3   82.99    3.80
   8  -7   3   83.39    3.60
   8   7  -3   87.79    3.90
   8  -7   3   87.99    4.10
   8  -7   3   85.79    3.50
   8   7   3   87.19    3.90
   8  -7  -3   80.69    3.70
   8   7   3   83.59    3.10
   8  -7  -3   76.29    3.50
   8  -7  -3   78.69    3.30
   8   7   3   82.39    3.10
  -8   7  -3   85.99    4.20
  -8   7  -3   84.49    4.00
   8   7   3   78.19    3.30
   8  -7  -3   84.59    3.60
   8  -7  -3   82.09    3.40
  -9  -7  -3   66.09    3.40
   9  -7   3   67.09    3.40
   9  -7   3   67.59    3.70
   9  -7   3   63.49    3.40
   9   7  -3   66.69    3.00
   9   7  -3   70.69    3.60
   9   7  -3   72.29    3.80
   9   7  -3   66.09    3.60
  -9   7  -3   62.59    3.80
  -9   7  -3   67.09    4.00
   9  -7  -3   67.79    3.30
   9  -7  -3   68.99    3.30
   9  -7  -3   69.59    3.70
   9   7   3   71.49    3.70
   9  -7  -3   66.19    3.50
   9   7   3   61.79    2.90
  10   7  -3   29.40    2.70
  10   7  -3   31.40    3.00
  10  -7   3   31.10    2.70
  10  -7   3   31.60    3.00
  10   7  -3   32.40    3.00
  10  -7   3   32.10    2.90
  10   7  -3   32.30    2.40
  10  -7  -3   27.80    2.70
  10  -7  -3   37.20    2.70
 -10   7  -3   30.50    3.40
  10   7   3   32.70    3.00
  10  -7  -3   32.80    3.00
  10  -7  -3   31.00    2.80
   0  -8  -3   21.50    1.40
   0  -8   3   21.20    1.30
   0   8  -3   20.60    1.20
   0   8  -3   21.00    1.00
   0   8   3   20.10    1.20
   0   8  -3   21.70    1.40
   0  -8  -3   18.70    1.40
   0  -8   3   21.80    1.40
   0  -8  -3   22.70    1.20
   0   8  -3   21.00    1.60
   0  -8  -3   20.10    1.30
   0  -8   3   21.30    1.60
   0   8   3   22.60    1.20
   1  -8   3  185.88    4.70
  -1  -8  -3  181.88    4.40
   1  -8   3  181.08    4.50
   1   8  -3  181.18    4.40
   1  -8   3  184.08    4.20
  -1  -8  -3  182.08    4.50
  -1   8   3  183.98    4.00
  -1   8   3  180.28    3.90
   1   8  -3  182.38    4.60
   1   8  -3  184.58    3.50
  -1  -8  -3  184.78    4.00
   1   8  -3  183.18    4.00
   1  -8   3  183.78    3.80
   1  -8  -3  186.58    4.20
   1  -8  -3  178.18    4.40
   1   8   3  178.68    4.00
   1   8   3  181.88    3.80
  -1  -8   3  181.58    4.20
  -1  -8   3  178.08    4.20
  -1  -8   3  179.58    4.70
  -1   8  -3  181.48    3.70
   1  -8  -3  177.18    4.10
   1   8   3  186.58    4.20
  -1   8  -3  179.28    4.60
  -1   8  -3  185.68    3.80
  -2  -8  -3  708.53   12.50
   2   8  -3  728.83   12.80
   2  -8   3  740.83   11.90
   2   8  -3  735.63   11.30
   2  -8   3  740.13   12.70
   2  -8   3  733.03   12.70
  -2  -8  -3  744.13   11.90
   2  -8   3  742.73   12.20
   2   8  -3  731.53   11.30
   2   8  -3  747.43   12.20
  -2   8   3  744.43   11.70
  -2  -8  -3  719.93   12.50
  -2   8   3  738.23   12.00
   2   8  -3  716.53   12.50
  -2  -8   3  720.53   12.90
   2  -8  -3  728.83   12.20
  -2   8  -3  728.03   12.80
   2  -8  -3  754.42   11.00
   2  -8  -3  735.63   11.90
   2   8   3  706.73   12.20
  -2  -8   3  719.93   12.20
  -2   8  -3  730.93   11.90
   2   8   3  734.53   12.00
   2  -8  -3  707.23   12.50
   2   8   3  728.13   12.10
  -2   8  -3  728.63   11.30
  -2  -8   3  744.03   12.10
   2  -8  -3  735.83   12.60
   3  -8   3  694.93   11.50
   3   8  -3  681.13   12.30
   3   8  -3  692.93   10.80
  -3  -8  -3  675.53   12.10
   3  -8   3  674.73   12.30
  -3   8   3  703.83   11.60
  -3  -8  -3  693.53   11.20
   3  -8   3  679.53   11.60
  -3   8   3  689.13   10.90
   3  -8   3  685.63   12.00
   3   8  -3  680.13   11.80
   3   8  -3  696.73   12.20
   3   8  -3  688.33   10.70
   3  -8   3  703.83   11.10
   3   8   3  682.73   11.80
   3   8   3  700.53   11.80
   3  -8  -3  667.93   11.80
  -3  -8   3  697.13   12.50
   3   8   3  702.03   11.80
   3   8   3  683.53   12.10
   3  -8  -3  698.03   11.20
  -3   8  -3  696.23   12.50
   3  -8  -3  681.63   12.10
  -3   8  -3  689.33   11.50
   3  -8  -3  692.93   10.70
  -3  -8   3  676.93   11.70
   3  -8  -3  665.53   12.00
  -3  -8   3  692.83   11.40
   4   8  -3   20.00    1.20
  -4  -8  -3   21.90    1.30
   4   8  -3   20.50    1.90
   4  -8   3   19.00    1.90
  -4  -8  -3   19.10    1.80
  -4   8   3   19.50    1.40
   4   8  -3   19.10    1.60
   4   8  -3   18.80    1.70
   4  -8   3   20.30    1.50
   4  -8   3   21.70    1.60
   4  -8   3   20.40    1.30
   4  -8   3   21.30    1.50
  -4   8  -3   18.70    1.50
   4  -8  -3   20.20    1.60
   4   8   3   19.20    1.60
   4  -8  -3   20.40    1.70
   4  -8  -3   18.40    1.20
  -4  -8   3   18.80    1.50
   4   8   3   18.10    1.60
  -4   8  -3   21.20    1.90
   4   8   3   18.60    1.60
   4   8   3   16.10    1.30
   4  -8  -3   18.70    1.50
  -4  -8   3   18.20    1.70
  -4  -8   3   20.70    1.30
   5  -8   3  151.38    4.00
   5   8  -3  153.68    4.70
   5  -8   3  161.28    4.00
   5   8  -3  158.48    3.60
  -5  -8  -3  151.88    3.50
   5  -8   3  152.58    4.20
   5   8  -3  155.78    4.60
  -5  -8  -3  145.69    4.40
   5   8  -3  153.88    4.10
   5   8  -3  156.38    4.50
   5  -8   3  152.28    4.70
   5  -8  -3  159.08    3.80
  -5   8  -3  149.09    4.80
   5   8   3  150.68    4.30
  -5  -8   3  155.68    4.10
   5  -8  -3  151.28    4.30
   5   8   3  152.88    4.10
  -5  -8   3  156.68    4.70
   5  -8  -3  148.39    4.40
  -5   8  -3  154.98    4.40
   5  -8  -3  157.18    4.50
   5   8   3  155.18    4.40
   5   8   3  149.79    4.40
   6   8  -3    3.30    0.80
   6  -8   3    5.00    1.00
   6   8  -3    2.90    1.10
  -6  -8  -3    2.70    1.10
   6  -8   3    1.00    0.90
   6   8  -3    4.20    1.10
   6   8  -3    2.70    1.10
   6  -8   3    3.20    1.00
   6   8  -3    3.40    1.00
   6  -8   3    2.40    0.90
   6  -8  -3    2.70    1.10
  -6  -8   3    2.80    1.10
   6  -8  -3    3.00    1.10
  -6  -8   3    3.30    1.00
   6  -8  -3    4.80    1.20
   6   8   3    2.40    1.10
   6   8   3    3.90    1.10
   6  -8  -3    2.20    1.00
  -6   8  -3    3.00    1.20
   6   8   3    1.40    0.90
  -6   8  -3    4.30    1.30
   6   8   3    5.10    1.10
   6  -8  -3    2.60    0.80
   7  -8   3    6.30    1.10
   7   8  -3    4.40    1.20
   7   8  -3    7.10    1.10
   7  -8   3    5.70    1.20
   7   8  -3    5.50    1.60
   7   8  -3    6.80    1.10
   7   8  -3    5.70    1.30
   7  -8   3    5.70    1.20
   7  -8   3    5.40    1.40
  -7  -8  -3    6.20    1.40
  -7  -8   3    5.90    1.40
  -7   8  -3    6.60    1.50
   7   8   3    5.70    1.40
  -7   8  -3    6.60    1.50
   7  -8  -3    3.70    1.30
   7   8   3    6.80    1.30
   7  -8  -3    6.70    1.30
   7  -8  -3    6.60    1.40
   7   8   3    6.20    1.20
   7  -8  -3    8.40    1.30
   7  -8  -3    6.40    1.30
   8  -8   3  166.48    5.80
   8   8  -3  164.08    5.50
   8   8  -3  171.08    4.60
  -8  -8  -3  172.88    5.50
   8   8  -3  171.68    5.70
   8  -8   3  169.98    5.30
   8   8  -3  172.48    5.90
   8  -8   3  172.08    5.10
   8  -8  -3  176.88    5.00
   8  -8  -3  173.98    5.50
   8   8   3  174.78    5.80
   8  -8  -3  172.78    5.20
   8  -8  -3  170.08    5.60
   8   8   3  167.38    4.80
  -8   8  -3  172.78    6.00
  -8  -8   3  173.58    6.00
  -8   8  -3  162.28    5.60
   8  -8  -3  179.08    5.80
   8   8   3  167.88    5.10
   9   8  -3   52.99    3.30
  -9  -8  -3   53.59    3.20
   9  -8   3   51.59    3.40
   9  -8   3   51.69    3.20
   9   8  -3   52.89    3.50
   9  -8   3   46.60    3.00
   9  -8  -3   53.59    3.40
  -9   8  -3   52.09    3.70
   9  -8  -3   54.69    3.00
   9  -8  -3   47.70    2.90
   9   8   3   51.09    3.50
   9  -8  -3   51.19    3.10
  10   8  -3   19.40    2.80
  10  -8   3   18.60    2.30
  10  -8   3   22.50    2.70
  10   8  -3   22.00    2.60
  10  -8   3   18.10    3.20
  10  -8  -3   19.20    2.40
  10  -8  -3   22.00    2.30
  10   8   3   20.10    2.60
  10  -8  -3   20.60    2.30
   0   9  -3  894.31   14.60
   0  -9  -3  842.92   14.70
   0   9   3  870.41   14.10
   0   9  -3  856.51   13.60
   0  -9  -3  867.11   14.20
   0  -9  -3  864.01   14.40
   0   9  -3  859.61   14.90
   0  -9   3  844.72   14.30
   0  -9   3  872.41   14.60
   0  -9   3  907.81   15.20
   0   9  -3  887.11   13.40
   0   9   3  878.61   14.00
  -1  -9  -3  347.17    7.20
   1   9  -3  350.36    6.50
  -1  -9  -3  343.37    6.60
  -1  -9  -3  344.87    7.10
   1   9  -3  347.67    5.90
   1  -9   3  341.97    7.20
   1   9  -3  347.97    7.40
  -1   9   3  347.07    6.50
   1  -9   3  336.47    6.80
   1  -9   3  349.77    6.40
  -1   9   3  357.96    6.70
   1   9  -3  351.06    7.20
   1  -9   3  350.46    7.40
   1   9  -3  356.36    6.50
   1   9   3  351.66    6.80
  -1  -9   3  342.17    7.50
  -1   9  -3  344.87    7.40
   1  -9  -3  350.06    6.80
   1  -9  -3  341.37    7.20
   1   9   3  343.57    6.70
   1   9   3  350.06    6.30
  -1   9  -3  343.07    6.20
  -1  -9   3  343.77    6.90
  -1   9  -3  349.27    6.00
  -1  -9   3  339.17    6.90
   1  -9  -3  354.66    6.90
   2   9  -3  110.89    3.50
   2   9  -3  109.29    3.70
  -2  -9  -3  116.89    3.10
   2   9  -3  112.79    3.20
  -2   9   3  120.49    3.00
   2   9  -3  119.39    2.50
  -2  -9  -3  114.29    3.60
  -2   9   3  121.89    3.30
  -2  -9  -3  111.09    3.50
   2  -9   3  115.59    3.70
   2  -9   3  113.19    3.10
   2  -9   3  113.09    3.30
   2  -9   3  110.59    3.60
   2  -9  -3  113.99    3.20
   2  -9  -3  109.79    3.50
   2  -9  -3  109.99    3.60
   2  -9  -3  115.39    3.40
  -2  -9   3  114.49    3.40
   2   9   3  118.59    3.30
  -2   9  -3  114.49    3.00
  -2  -9   3  116.69    3.90
   2   9   3  113.49    3.10
   2   9   3  113.79    3.30
  -2   9  -3  113.39    3.80
  -2  -9   3  113.79    3.20
  -3  -9  -3   26.80    1.90
   3   9  -3   28.90    2.10
   3  -9   3   28.20    1.90
  -3   9   3   27.30    1.30
  -3  -9  -3   28.50    1.60
   3   9  -3   27.00    1.80
  -3  -9  -3   27.30    2.00
   3  -9   3   29.50    1.70
   3  -9   3   28.10    1.60
   3   9  -3   28.40    1.80
   3  -9   3   25.60    2.00
  -3  -9   3   28.50    1.60
   3  -9  -3   31.00    1.80
   3   9   3   26.90    1.60
   3  -9  -3   28.20    1.60
   3  -9  -3   27.50    1.90
   3   9   3   27.90    1.90
   3   9   3   26.50    1.70
  -3  -9   3   26.90    1.70
   3  -9  -3   23.40    1.70
  -3   9  -3   27.10    1.60
  -3   9  -3   25.50    2.00
   3   9   3   28.10    1.70
  -3  -9   3   26.20    2.10
  -4  -9  -3   29.70    2.20
  -4  -9  -3   34.70    1.70
   4   9  -3   33.40    2.10
   4  -9   3   32.60    1.60
   4  -9   3   32.60    1.80
   4  -9   3   30.30    1.90
   4  -9   3   30.90    2.20
   4   9  -3   31.70    2.10
   4  -9   3   28.80    1.80
   4   9  -3   33.70    2.30
  -4  -9   3   33.00    1.60
  -4   9  -3   30.70    2.30
   4  -9  -3   33.20    2.10
   4   9   3   29.30    1.90
   4  -9  -3   30.30    1.90
   4  -9  -3   30.20    2.00
   4  -9  -3   33.10    1.50
  -4  -9   3   33.60    1.90
  -4  -9   3   30.70    2.30
   4   9   3   32.60    1.80
   4   9   3   27.00    1.90
  -4   9  -3   33.70    1.90
   4   9   3   30.60    2.00
   5  -9   3  227.68    5.30
   5  -9   3  229.28    5.20
  -5  -9  -3  243.68    5.40
   5  -9   3  237.88    5.60
   5   9  -3  228.38    6.20
   5   9  -3  221.88    6.00
   5   9  -3  230.18    5.50
   5   9  -3  230.68    5.90
   5  -9   3  232.08    6.30
  -5  -9  -3  223.38    6.00
   5   9   3  224.48    5.80
  -5   9  -3  228.48    5.60
   5   9   3  230.98    5.60
  -5  -9   3  226.88    6.20
  -5   9  -3  232.18    6.30
   5  -9  -3  233.88    5.70
   5  -9  -3  222.68    5.80
   5   9   3  222.48    5.80
  -5  -9   3  226.98    5.50
   5  -9  -3  236.18    5.00
   5  -9  -3  223.88    5.90
   6  -9   3   69.59    2.70
   6   9  -3   64.29    2.70
   6  -9   3   69.49    3.00
  -6  -9  -3   69.29    3.30
   6   9  -3   71.79    3.30
   6   9  -3   65.09    3.10
   6  -9   3   71.29    2.80
   6   9  -3   62.59    3.40
   6  -9   3   69.29    3.50
   6  -9  -3   67.59    3.20
  -6  -9   3   64.59    3.30
   6  -9  -3   68.09    3.00
   6   9   3   67.39    3.20
  -6  -9   3   70.29    2.90
   6   9   3   68.09    3.00
  -6   9  -3   65.89    3.10
   6  -9  -3   69.59    2.60
   6   9   3   70.39    2.90
   6  -9  -3   69.59    3.20
  -6   9  -3   64.49    3.40
   7  -9   3   25.00    1.90
  -7  -9  -3   27.10    2.50
   7   9  -3   30.40    2.00
   7   9  -3   27.40    2.60
   7  -9   3   27.10    2.50
   7  -9   3   27.70    2.00
   7   9  -3   29.10    2.40
   7  -9   3   26.00    2.10
   7   9  -3   28.80    2.40
   7  -9  -3   25.80    2.30
   7   9   3   25.30    2.10
   7  -9  -3   25.80    2.00
   7  -9  -3   27.60    2.30
  -7   9  -3   23.90    2.40
   7  -9  -3   30.00    2.30
   7  -9  -3   32.00    2.30
   7   9   3   27.40    2.30
  -7   9  -3   29.40    2.70
  -7  -9   3   26.10    2.40
  -7  -9   3   25.50    2.00
   7   9   3   25.50    2.20
  -8  -9  -3   33.00    2.80
   8  -9   3   41.40    2.70
   8   9  -3   40.50    3.00
   8   9  -3   43.50    3.20
   8  -9   3   38.80    2.50
   8   9  -3   41.40    2.90
   8  -9   3   32.30    2.90
   8  -9  -3   42.20    2.50
   8  -9  -3   42.70    2.80
   8   9   3   39.00    2.90
  -8   9  -3   37.10    3.00
   8  -9  -3   39.10    2.90
   8   9   3   39.70    2.50
  -8  -9   3   41.80    3.00
   8   9   3   39.40    2.70
   8  -9  -3   39.60    2.90
   8  -9  -3   39.30    2.70
   9  -9   3   28.20    3.00
   9   9  -3   26.20    2.70
   9  -9   3   31.50    2.70
   9   9  -3   27.30    2.90
   9  -9   3   30.90    2.50
  -9  -9  -3   29.90    2.90
   9  -9  -3   29.70    2.90
   9   9   3   31.60    3.10
  -9   9  -3   27.90    3.00
   9  -9  -3   28.60    2.60
   9  -9  -3   32.30    2.70
   9  -9  -3   33.80    2.50
   0 -10   3   46.10    2.60
   0 -10  -3   47.50    2.40
   0  10  -3   51.69    1.60
   0 -10  -3   47.10    2.10
   0  10  -3   49.70    2.60
   0 -10   3   51.79    2.40
   0 -10  -3   52.79    2.50
   0  10  -3   51.09    1.80
   0  10   3   51.39    2.10
   0 -10   3   48.50    2.20
   1 -10   3   52.69    2.30
   1 -10   3   52.69    2.50
   1  10  -3   54.89    2.70
  -1 -10  -3   54.19    2.60
   1  10  -3   53.99    2.10
  -1 -10  -3   52.09    2.50
   1 -10   3   58.79    2.70
  -1  10   3   53.49    2.10
   1  10  -3   52.99    2.50
   1 -10   3   54.99    2.00
  -1 -10  -3   49.80    2.20
  -1 -10   3   54.69    2.40
  -1 -10   3   50.39    2.60
  -1  10  -3   55.09    2.70
  -1  10  -3   53.99    1.80
   1  10   3   53.49    2.30
   1 -10  -3   52.69    2.40
   1 -10  -3   53.49    2.50
  -1 -10   3   53.69    2.40
   1 -10  -3   53.59    2.30
  -2 -10  -3  353.86    7.70
   2  10  -3  354.26    7.00
   2 -10   3  369.26    7.80
   2  10  -3  368.56    8.00
   2 -10   3  371.76    7.00
  -2 -10  -3  345.97    7.60
  -2  10   3  365.06    6.80
   2 -10   3  356.76    7.80
  -2 -10  -3  357.06    7.00
   2  10  -3  351.16    7.70
   2 -10   3  361.36    7.30
  -2 -10   3  359.46    8.10
  -2  10  -3  356.46    6.70
   2  10   3  365.76    6.90
  -2 -10   3  364.86    7.40
   2 -10  -3  349.07    7.50
   2 -10  -3  348.37    7.30
  -2  10  -3  367.86    8.00
   2  10   3  345.97    7.20
   2 -10  -3  361.06    7.80
   2 -10  -3  352.26    7.10
  -2 -10   3  357.76    7.20
   3 -10   3  112.69    3.70
   3  10  -3  113.39    4.00
   3  10  -3  108.19    3.50
  -3  10   3  110.59    2.90
   3 -10   3  108.39    3.90
   3  10  -3  107.89    3.70
   3 -10   3  106.19    3.40
  -3 -10  -3  105.19    3.10
   3 -10   3  101.99    3.20
  -3 -10  -3  109.89    3.80
  -3 -10  -3  104.09    3.60
   3 -10  -3  111.69    3.60
   3 -10  -3  102.89    3.70
   3  10   3  106.59    3.50
  -3  10  -3  109.99    3.20
   3 -10  -3  112.99    3.30
  -3 -10   3  109.99    4.00
   3  10   3  113.19    3.40
  -3 -10   3  106.89    3.50
  -3  10  -3  106.99    4.00
   3 -10  -3  111.39    3.70
  -3 -10   3  115.19    3.40
   4 -10   3   27.30    1.80
  -4 -10  -3   28.80    1.70
   4  10  -3   30.40    2.00
  -4 -10  -3   30.00    2.10
   4 -10   3   30.20    1.60
   4 -10   3   27.40    2.20
   4 -10   3   30.60    1.90
  -4 -10  -3   29.70    2.30
   4  10  -3   31.60    2.40
   4 -10   3   33.60    2.10
   4  10  -3   27.40    2.10
  -4 -10   3   29.90    1.70
  -4  10  -3   26.70    2.30
   4  10   3   30.40    2.10
  -4  10  -3   28.00    1.90
   4  10   3   26.50    1.90
  -4 -10   3   27.50    2.20
   4 -10  -3   32.20    2.20
  -4 -10   3   31.50    2.00
   4  10   3   27.60    1.90
   4 -10  -3   27.00    2.20
   4 -10  -3   30.60    2.10
  -5 -10  -3   44.50    2.50
   5  10  -3   42.40    2.40
   5  10  -3   38.30    2.70
  -5 -10  -3   41.70    2.80
   5 -10   3   41.40    2.00
   5 -10   3   43.40    2.30
   5 -10   3   45.50    2.90
   5  10  -3   43.10    2.50
   5  10  -3   40.00    2.60
   5 -10   3   44.90    2.30
   5 -10  -3   43.70    2.70
   5  10   3   45.60    2.50
  -5 -10   3   44.50    2.90
  -5  10  -3   41.90    2.40
   5  10   3   42.50    2.50
   5 -10  -3   42.00    2.50
   5 -10  -3   40.20    2.50
  -5 -10   3   44.70    2.40
   5  10   3   42.20    2.40
  -5  10  -3   42.20    2.90
   6  10  -3   18.80    1.90
   6  10  -3   13.30    1.80
   6 -10   3   18.10    1.80
   6  10  -3   12.20    1.70
  -6 -10  -3   15.40    2.10
   6 -10   3   16.90    1.80
  -6 -10  -3   14.40    1.70
   6  10  -3   15.80    1.90
   6 -10   3   15.00    1.90
   6 -10   3   16.00    1.60
  -6  10  -3   17.50    2.00
   6 -10  -3   17.20    2.00
   6  10   3   19.50    2.20
   6  10   3   15.20    1.70
   6  10   3   13.90    1.80
   6 -10  -3   18.40    2.00
  -6 -10   3   16.00    1.70
   6 -10  -3   14.50    1.90
  -6 -10   3   18.60    2.20
  -6  10  -3   19.70    2.30
   7  10  -3   19.20    2.30
   7  10  -3   16.40    2.10
   7 -10   3   17.50    2.30
   7 -10   3   19.50    2.00
   7 -10   3   18.40    1.90
   7 -10   3   21.00    2.00
  -7 -10  -3   20.00    2.30
   7  10  -3   17.80    2.10
   7  10  -3   18.90    1.80
  -7  10  -3   17.30    2.20
  -7 -10   3   20.10    2.00
   7 -10  -3   18.20    2.10
   7 -10  -3   19.60    2.20
   7 -10  -3   22.50    2.30
   7 -10  -3   19.40    2.20
   7  10   3   17.00    1.90
  -7 -10   3   19.60    2.30
   7  10   3   18.90    2.20
   7  10   3   17.70    2.00
   8  10  -3    4.30    1.40
  -8 -10  -3    4.00    1.50
   8 -10   3    1.70    1.10
   8 -10   3    3.00    1.20
   8 -10   3    2.70    1.40
   8  10  -3    2.60    1.40
  -8  10  -3    5.10    1.70
   8 -10  -3    1.90    1.30
   8  10   3    5.60    1.60
   8  10   3    4.00    1.30
  -8 -10   3    4.20    1.60
   8  10   3    3.90    1.30
   8 -10  -3    0.80    1.20
   8 -10  -3    1.60    1.40
   8 -10  -3    2.90    1.30
   9  10  -3   35.80    3.00
   9  10  -3   33.70    3.10
   9 -10   3   33.40    3.30
   9 -10   3   37.70    2.80
   9 -10   3   40.30    2.90
  -9 -10  -3   41.80    3.20
  -9  10  -3   38.50    3.40
   9 -10  -3   32.90    2.90
   9 -10  -3   36.40    2.70
   9 -10  -3   36.40    4.60
   9  10   3   39.00    3.10
   0 -11  -3  174.98    4.90
   0  11  -3  180.68    5.20
   0 -11   3  173.28    4.80
   0  11  -3  181.48    4.10
   0 -11  -3  170.58    4.90
   0 -11   3  163.08    5.10
   0 -11  -3  174.98    4.50
   0  11   3  174.28    4.40
   0 -11   3  179.88    4.70
  -1 -11  -3    5.00    1.20
  -1 -11  -3    3.80    0.90
   1 -11   3    5.00    0.90
   1  11  -3    3.50    1.10
  -1 -11  -3    3.60    1.00
   1  11  -3    6.20    1.30
   1 -11   3    5.60    1.10
   1 -11   3    4.30    1.00
   1  11  -3    4.70    0.90
   1 -11   3    4.00    1.10
  -1  11   3    5.00    0.90
   1  11   3    4.90    0.90
   1 -11  -3    4.60    1.10
   1 -11  -3    4.20    1.10
  -1 -11   3    5.90    1.20
  -1  11  -3    6.00    1.30
  -1 -11   3    4.60    1.40
  -1 -11   3    5.90    1.10
   1 -11  -3    4.50    1.10
   2  11  -3    3.40    0.90
  -2 -11  -3    1.80    0.90
   2  11  -3    1.00    1.00
   2 -11   3    4.70    1.10
   2 -11   3    2.20    0.80
  -2 -11  -3    1.50    0.90
  -2 -11  -3    3.50    1.10
   2 -11   3    2.10    1.00
   2  11  -3    2.40    1.00
   2 -11   3    2.70    1.10
  -2  11   3    1.60    0.70
   2 -11  -3    1.80    0.90
  -2  11  -3    3.20    0.70
  -2 -11   3    3.20    1.20
   2 -11  -3    2.20    1.00
   2 -11  -3    3.70    1.10
  -2 -11   3    3.20    1.00
   2 -11  -3    1.30    0.90
   2  11   3    3.60    0.80
  -2  11  -3    1.00    0.90
   2  11   3    2.60    0.80
  -2 -11   3    3.10    0.90
   3 -11   3   26.50    1.80
   3  11  -3   29.50    2.10
   3  11  -3   27.30    2.40
   3 -11   3   30.60    2.20
   3 -11   3   25.50    2.20
  -3 -11  -3   28.40    1.80
   3 -11   3   28.30    1.90
  -3 -11  -3   29.00    2.20
   3  11  -3   28.30    2.00
  -3  11   3   27.40    1.50
  -3 -11  -3   28.10    2.10
   3  11   3   27.90    1.90
  -3 -11   3   29.10    1.80
   3 -11  -3   30.40    2.80
  -3  11  -3   25.00    2.30
   3 -11  -3   30.10    2.10
  -3 -11   3   25.40    2.20
   3 -11  -3   31.20    2.10
   3 -11  -3   25.70    2.20
  -3 -11   3   31.40    2.10
  -3  11  -3   29.10    1.70
   3  11   3   26.10    1.70
   4  11  -3  209.18    5.50
   4  11  -3  211.58    6.10
   4 -11   3  209.58    6.10
   4  11  -3  207.28    5.50
   4 -11   3  209.88    5.30
  -4 -11  -3  202.98    6.00
   4 -11   3  222.38    5.70
  -4 -11  -3  213.68    5.80
  -4 -11  -3  209.38    4.90
   4  11  -3  211.08    5.90
   4 -11   3  212.78    5.40
  -4  11  -3  218.88    6.30
  -4 -11   3  199.78    6.10
   4  11   3  213.98    5.50
   4 -11  -3  209.98    5.90
  -4  11  -3  211.08    5.20
  -4 -11   3  208.38    5.50
   4 -11  -3  202.58    5.60
  -4 -11   3  210.98    5.10
   4 -11  -3  214.68    5.60
   4  11   3  223.88    5.60
   5 -11   3   26.40    2.00
   5  11  -3   24.60    2.40
   5  11  -3   24.50    1.90
   5 -11   3   27.00    2.00
   5  11  -3   27.90    2.20
  -5 -11  -3   27.20    2.50
  -5 -11  -3   28.20    2.20
   5  11  -3   28.60    2.30
   5 -11   3   29.20    2.40
  -5  11  -3   24.30    2.10
  -5  11  -3   29.60    2.60
  -5 -11   3   28.30    2.60
   5  11   3   29.50    2.20
   5 -11  -3   24.90    2.20
   5  11   3   27.10    2.10
   5 -11  -3   26.50    2.40
  -5 -11   3   27.00    2.10
   5 -11  -3   30.20    2.30
   5  11   3   26.00    2.20
   6  11  -3    6.90    1.60
  -6 -11  -3    9.10    1.90
   6 -11   3    7.00    1.70
  -6 -11  -3   10.70    1.60
   6 -11   3    9.60    1.50
   6  11  -3    8.90    1.70
   6 -11   3    8.40    1.40
   6  11  -3    7.90    1.60
   6  11  -3    8.10    1.50
   6  11   3    6.50    1.40
   6 -11  -3    5.50    1.50
  -6 -11   3    8.90    1.50
  -6  11  -3    7.40    1.50
   6 -11  -3    7.50    1.50
   6 -11  -3    9.00    1.70
   6  11   3    9.20    1.60
  -6 -11   3    9.20    1.90
   6  11   3    6.20    1.40
   7 -11   3   22.20    2.10
   7  11  -3   18.20    2.40
   7 -11   3   16.10    2.00
   7  11  -3   18.80    1.90
   7  11  -3   20.00    2.30
  -7 -11  -3   18.10    2.40
  -7 -11  -3   21.00    2.20
   7  11  -3   20.50    2.30
   7 -11   3   15.30    2.20
   7 -11  -3   21.00    2.40
  -7 -11   3   21.40    2.60
   7 -11  -3   18.60    2.20
   7 -11  -3   24.70    2.50
  -7  11  -3   21.90    2.40
   7 -11  -3   17.70    2.10
  -7 -11   3   21.60    2.10
   7  11   3   20.30    2.40
   7  11   3   19.60    2.10
   7  11   3   20.30    2.20
  -8 -11  -3   16.70    2.30
   8 -11   3   18.00    2.50
   8  11  -3   19.00    2.40
   8  11  -3   20.90    2.50
   8 -11   3   25.20    2.50
   8  11   3   18.00    2.40
   8 -11  -3   20.00    2.40
  -8 -11   3   20.90    2.60
   8 -11  -3   22.30    2.40
   8  11   3   12.10    1.80
  -8  11  -3   16.50    2.30
   8 -11  -3   18.00    2.20
   8  11   3   19.20    2.30
   8 -11  -3   20.60    2.40
   0 -12  -3   99.49    3.80
   0 -12   3  100.09    3.70
   0  12   3  110.69    3.50
   0 -12   3  107.39    3.20
   0  12  -3  103.69    4.00
   0 -12  -3  106.29    3.60
   0 -12   3  102.39    3.60
   0 -12  -3  105.89    3.90
   0 -12   3  103.49    4.10
   1  12  -3  128.59    4.50
  -1 -12  -3  133.99    4.50
   1 -12   3  127.59    4.40
  -1 -12  -3  126.99    4.30
  -1 -12  -3  125.09    3.90
  -1  12   3  127.09    3.70
   1 -12   3  130.29    4.10
   1 -12   3  136.69    4.60
   1  12  -3  125.49    3.50
   1 -12   3  134.49    3.70
   1 -12  -3  132.29    4.50
  -1 -12   3  125.29    4.00
   1 -12  -3  123.19    3.90
  -1 -12   3  135.29    4.70
  -1  12  -3  135.29    4.60
  -1 -12   3  128.29    4.20
   1 -12  -3  132.79    4.20
   1  12   3  131.19    4.00
   2  12  -3   41.30    2.80
   2 -12   3   41.90    2.70
  -2  12   3   45.00    2.10
  -2 -12  -3   36.50    2.60
   2  12  -3   42.70    2.10
   2  12  -3   43.00    2.70
   2 -12   3   43.60    2.20
   2 -12   3   47.90    2.50
   2 -12   3   43.20    2.70
  -2 -12  -3   43.00    2.20
  -2 -12  -3   41.90    2.60
  -2 -12   3   41.40    2.90
   2  12   3   45.10    2.40
   2  12   3   44.30    2.20
   2 -12  -3   41.80    2.40
  -2 -12   3   41.80    2.30
   2 -12  -3   39.80    2.60
  -2 -12   3   43.50    2.40
   2 -12  -3   41.20    2.40
   2 -12  -3   39.10    2.40
  -2  12  -3   42.80    2.80
  -3 -12  -3   48.40    3.00
   3  12  -3   45.90    2.50
   3 -12   3   49.40    2.80
   3 -12   3   50.49    2.40
   3  12  -3   46.40    2.80
   3  12  -3   52.19    2.50
   3  12  -3   47.90    3.00
  -3 -12  -3   46.40    2.30
   3 -12   3   49.60    2.50
   3 -12   3   42.50    2.80
  -3 -12  -3   44.90    2.70
  -3  12   3   49.99    2.10
  -3 -12   3   49.99    2.60
   3 -12  -3   47.40    2.90
   3 -12  -3   48.80    2.60
   3 -12  -3   51.09    2.60
   3  12   3   46.90    2.30
  -3  12  -3   48.90    3.10
  -3 -12   3   46.30    3.00
  -3 -12   3   44.50    2.40
   3  12   3   50.89    2.60
  -4 -12  -3    6.20    1.20
   4  12  -3    5.90    1.30
  -4 -12  -3    5.70    1.30
   4 -12   3    4.80    1.20
   4 -12   3    6.40    1.60
   4 -12   3    3.00    1.00
  -4 -12  -3    5.50    1.40
   4  12  -3    8.20    1.60
   4 -12   3    5.70    1.30
   4  12  -3    4.70    1.30
   4  12  -3    5.80    1.30
  -4 -12   3    5.60    1.50
   4  12   3    4.10    1.10
  -4  12  -3    4.10    1.30
   4 -12  -3    5.70    1.40
  -4 -12   3    4.30    1.20
   4  12   3    5.20    1.10
   4 -12  -3    6.30    1.40
  -4  12  -3    7.20    1.30
   4 -12  -3    5.70    1.50
  -5 -12  -3   22.50    2.60
   5  12  -3   26.30    2.20
   5  12  -3   24.00    2.20
   5 -12   3   26.80    2.70
   5  12  -3   23.90    2.50
   5 -12   3   24.10    2.00
   5 -12   3   24.30    2.10
   5  12  -3   21.20    2.10
  -5 -12  -3   30.20    2.40
   5 -12  -3   25.60    2.30
   5  12   3   23.50    2.10
  -5 -12   3   23.70    2.60
   5 -12  -3   24.80    2.30
   5 -12  -3   24.50    2.50
   5  12   3   28.60    2.30
  -5  12  -3   22.40    2.10
  -5 -12   3   25.20    2.30
   6 -12   3   30.80    3.00
  -6 -12  -3   28.80    2.40
   6  12  -3   30.40    2.40
   6  12  -3   30.40    2.90
   6  12  -3   29.90    2.70
   6 -12   3   28.00    2.20
   6  12  -3   31.50    2.60
  -6 -12  -3   31.00    3.00
   6 -12   3   29.20    2.40
   6  12   3   35.00    2.50
   6  12   3   24.50    2.50
   6 -12  -3   25.50    2.60
   6  12   3   31.80    2.50
  -6 -12   3   31.60    3.10
  -6 -12   3   30.80    2.40
   6 -12  -3   31.10    2.50
  -6  12  -3   24.80    2.30
   6 -12  -3   33.30    2.60
   7  12  -3   54.89    3.50
   7 -12   3   58.89    3.80
   7 -12   3   59.89    3.00
  -7 -12  -3   54.19    3.60
   7  12  -3   62.89    3.20
   7 -12   3   61.39    3.30
   7  12  -3   64.89    3.50
   7 -12  -3   59.99    3.30
   7  12   3   63.39    3.60
   7  12   3   58.29    3.30
  -7 -12   3   49.90    3.60
   7  12   3   62.59    3.20
   7 -12  -3   68.19    3.80
  -7 -12   3   58.69    3.10
   7 -12  -3   60.09    3.50
  -7  12  -3   55.49    3.40
   7 -12  -3   58.89    3.40
   8 -12   3    8.80    1.70
   8  12  -3   12.90    2.70
   8  12  -3   14.20    2.30
   8 -12   3    9.40    2.90
  -8 -12  -3    9.10    2.10
   8  12   3   12.00    2.10
   8  12   3   13.10    1.90
  -8 -12   3    8.90    2.00
   8 -12  -3    9.10    1.80
  -8  12  -3   15.10    2.30
   8 -12  -3   14.00    2.20
   8 -12  -3    9.80    1.90
   8  12   3   12.20    2.00
   0 -13  -3   84.29    3.30
   0 -13   3   85.89    3.90
   0 -13  -3   88.19    3.70
   0 -13   3   87.69    3.10
   0 -13   3   85.19    3.60
   0  13   3   82.29    3.20
   0 -13   3   93.89    3.60
   0 -13  -3   87.29    3.80
   0  13  -3   89.39    3.90
   1 -13   3  118.39    4.60
  -1 -13  -3  117.49    4.50
  -1 -13  -3  124.19    4.50
  -1 -13  -3  121.39    4.00
   1 -13   3  124.29    3.80
  -1  13   3  123.99    3.80
   1 -13   3  124.99    4.20
   1  13  -3  131.59    4.80
   1 -13   3  127.89    4.50
  -1 -13   3  120.69    4.10
  -1 -13   3  124.29    4.30
  -1 -13   3  120.39    4.70
   1 -13  -3  120.49    4.10
   1  13   3  118.59    3.90
   1 -13  -3  121.39    4.50
  -1  13  -3  126.09    4.70
   1 -13  -3  122.39    4.20
   1 -13  -3  123.49    4.30
   2 -13   3  118.59    3.70
  -2 -13  -3  105.79    4.30
   2 -13   3  115.79    4.40
  -2 -13  -3  103.89    4.10
  -2 -13  -3  106.79    3.70
   2 -13   3  106.79    3.90
   2  13  -3  111.49    4.50
  -2  13   3  112.09    3.50
   2  13  -3  105.69    3.80
   2  13  -3  111.89    4.60
   2 -13   3  102.19    4.20
  -2 -13   3  105.49    4.50
  -2 -13   3  114.59    4.00
   2  13   3  109.79    3.90
  -2  13  -3  109.29    4.40
  -2 -13   3  102.99    3.80
   2 -13  -3  112.19    4.00
   2 -13  -3  114.59    4.10
   2 -13  -3  108.79    4.30
   2 -13  -3  100.69    3.90
   3  13  -3    2.30    1.30
   3 -13   3    2.30    1.10
  -3 -13  -3    1.50    1.00
  -3  13   3    1.30    0.70
   3 -13   3    0.40    1.10
   3  13  -3    1.00    0.90
   3  13  -3   -0.30    0.90
   3  13  -3    3.40    1.00
   3 -13   3    1.00    0.90
  -3 -13  -3    1.00    1.00
   3 -13   3    1.70    1.20
  -3 -13  -3    0.80    1.40
   3 -13  -3    1.10    1.00
   3 -13  -3    1.80    1.10
  -3  13  -3    1.00    1.30
   3 -13  -3    1.30    1.20
  -3 -13   3    1.00    1.30
  -3 -13   3    1.40    1.10
   3  13   3    2.50    1.10
  -3 -13   3    1.70    1.00
  -4 -13  -3   34.10    2.50
   4  13  -3   35.70    2.50
  -4 -13  -3   33.00    2.20
   4  13  -3   35.70    3.00
   4  13  -3   37.60    2.30
   4 -13   3   31.40    2.80
  -4 -13  -3   32.90    2.90
   4 -13   3   34.50    2.30
   4  13  -3   28.50    2.60
   4 -13   3   38.20    2.50
  -4 -13   3   34.70    3.00
   4 -13  -3   33.10    2.70
   4  13   3   34.20    2.30
   4 -13  -3   33.80    2.50
   4  13   3   29.50    2.30
   4 -13  -3   34.50    2.60
  -4 -13   3   34.60    2.50
   5  13  -3   49.10    2.90
   5 -13   3   50.59    2.80
   5 -13   3   49.00    2.70
   5  13  -3   46.70    3.40
   5  13  -3   48.30    3.20
   5  13  -3   52.19    2.90
  -5 -13  -3   48.20    3.00
   5 -13   3   44.60    3.20
  -5 -13  -3   43.90    3.40
   5 -13  -3   50.99    3.10
   5  13   3   46.10    2.90
   5 -13  -3   45.10    3.10
  -5 -13   3   49.99    3.00
  -5 -13   3   48.00    3.30
   5  13   3   45.80    2.70
   5 -13  -3   44.40    2.90
  -6 -13  -3   83.89    3.80
   6 -13   3   86.49    3.70
   6  13  -3   83.69    4.20
   6  13  -3   85.39    3.90
   6 -13   3   81.09    3.60
   6 -13   3   75.39    4.20
   6  13  -3   89.69    3.70
  -6 -13  -3   83.09    4.50
  -6 -13   3   79.79    4.30
   6  13   3   81.49    3.80
   6  13   3   82.29    3.70
   6 -13  -3   86.29    4.00
  -6 -13   3   86.29    3.70
   6 -13  -3   79.19    4.10
   6 -13  -3   82.39    3.90
  -7 -13  -3   36.10    3.40
   7 -13   3   33.30    2.60
   7 -13   3   30.10    3.10
   7  13  -3   35.70    3.10
   7  13  -3   43.50    3.10
   7 -13   3   40.80    2.70
   7  13  -3   37.00    2.70
  -7 -13   3   31.30    3.20
   7 -13  -3   40.90    3.20
   7  13   3   38.70    3.00
   7  13   3   40.20    2.90
   7 -13  -3   37.00    2.90
  -7 -13   3   37.50    2.80
   7 -13  -3   36.70    2.90
   7 -13  -3   40.90    3.10
   0 -14   3   29.10    2.30
   0 -14  -3   27.50    2.50
   0  14  -3   28.90    2.20
   0  14   3   31.80    2.10
   0 -14   3   27.70    2.40
   0  14  -3   29.50    4.10
   0 -14   3   28.10    2.60
   0 -14  -3   29.80    2.70
   0 -14  -3   28.90    2.30
   1  14  -3   33.80    2.90
  -1 -14  -3   31.60    2.30
   1 -14   3   31.90    2.60
  -1 -14  -3   28.40    2.60
   1 -14   3   32.10    2.40
   1 -14   3   29.00    2.70
  -1 -14  -3   30.50    2.50
  -1  14   3   32.90    2.10
   1  14  -3   29.70    2.20
   1  14   3   29.90    2.20
   1 -14  -3   31.10    2.60
  -1 -14   3   32.80    2.40
  -1  14  -3   30.80    2.20
   1 -14  -3   31.60    2.40
   1 -14  -3   32.20    2.60
  -1 -14   3   29.60    2.90
  -1 -14   3   34.10    2.50
   1 -14  -3   33.30    2.50
   2 -14   3   41.10    2.90
  -2 -14  -3   36.50    2.40
  -2 -14  -3   38.80    2.70
  -2  14   3   37.30    2.20
   2  14  -3   36.10    3.20
   2  14  -3   39.90    2.60
   2 -14   3   37.60    2.60
   2 -14   3   35.20    2.80
  -2 -14  -3   34.70    2.90
   2 -14   3   42.90    3.20
   2 -14  -3   34.00    2.40
  -2 -14   3   35.40    2.50
   2  14   3   36.60    2.40
   2 -14  -3   38.30    2.60
  -2 -14   3   36.20    2.60
   2 -14  -3   37.40    2.90
  -2  14  -3   32.10    2.20
   2 -14  -3   37.30    4.30
  -2 -14   3   38.60    3.10
   3 -14   3   12.60    1.80
   3 -14   3   16.50    2.10
  -3 -14  -3   14.30    1.70
  -3 -14  -3   13.30    1.90
   3 -14   3   15.20    2.10
  -3 -14  -3   12.70    2.00
   3  14  -3   12.10    1.90
   3 -14   3   14.60    2.10
   3  14  -3   12.10    1.70
  -3  14  -3   12.30    1.50
   3 -14  -3   12.50    1.70
   3  14   3   12.30    1.80
   3 -14  -3   15.80    2.10
  -3 -14   3   12.50    2.10
  -3 -14   3   14.90    1.90
  -3 -14   3   11.90    1.80
   3 -14  -3   12.50    1.80
   4  14  -3    6.40    1.30
  -4 -14  -3    5.40    1.30
   4  14  -3    5.40    1.50
   4 -14   3    4.40    1.70
   4  14  -3    5.90    1.50
   4 -14   3    6.90    1.60
  -4 -14  -3    6.30    1.50
  -4 -14  -3    4.40    1.70
   4  14   3    7.20    1.50
   4 -14  -3    3.60    1.40
   4 -14  -3    6.90    1.60
   4 -14  -3    5.10    1.50
  -4 -14   3    4.60    1.60
  -4 -14   3    3.80    1.30
   5 -14   3    5.70    1.50
   5  14  -3    4.70    1.40
   5 -14   3    5.60    1.60
  -5 -14  -3    4.50    1.40
  -5 -14  -3    3.30    1.50
   5  14  -3    5.20    1.40
   5  14  -3    4.40    1.30
  -5 -14   3    1.80    1.60
   5 -14  -3    4.60    1.60
   5 -14  -3    3.80    1.50
   5  14   3    5.20    1.30
   5  14   3    4.90    1.40
   5 -14  -3    2.80    1.30
  -5 -14   3    5.00    1.40
   6  14  -3    0.60    1.10
   6  14  -3    2.80    1.30
  -6 -14  -3    0.90    1.60
   6 -14   3    1.90    1.10
   6 -14   3    0.80    1.50
  -6 -14  -3    3.60    1.30
   6  14  -3    0.40    1.40
  -6 -14   3    3.60    1.40
   6 -14  -3    3.10    1.40
  -6 -14   3    1.30    1.50
   6  14   3    1.70    1.30
   6 -14  -3    1.60    1.30
   6 -14  -3    1.80    1.60
   6  14   3   -0.50    1.00
   0  15  -3   85.09    3.60
   0 -15  -3   86.49    3.70
   0 -15   3   83.29    3.80
   0  15   3   81.59    3.40
   0 -15  -3   79.29    4.00
   0 -15   3   86.79    4.00
   0 -15  -3   77.89    4.00
   0 -15   3   82.49    4.20
  -1 -15  -3  113.49    4.80
   1 -15   3  101.29    4.50
  -1 -15  -3  110.39    4.10
  -1 -15  -3  101.19    4.50
  -1  15   3  102.39    3.80
   1 -15   3  104.59    4.70
   1 -15   3  106.39    4.30
   1  15  -3  105.69    4.10
   1 -15  -3  112.29    4.30
  -1  15  -3  104.89    3.90
   1 -15  -3  116.59    4.80
   1 -15  -3  109.79    4.50
  -1 -15   3  104.69    4.20
   1 -15  -3  115.19    4.40
  -1 -15   3  111.29    4.40
  -1 -15   3  103.49    4.80
   1  15   3  109.29    4.10
   2 -15   3   48.00    3.00
  -2 -15  -3   48.90    3.20
   2 -15   3   43.70    3.10
  -2 -15  -3   48.10    2.80
   2 -15   3   50.19    3.30
  -2  15   3   49.50    2.60
  -2 -15  -3   41.40    3.10
   2  15  -3   48.10    2.90
   2 -15  -3   48.20    3.10
  -2  15  -3   50.19    2.70
   2 -15  -3   51.79    3.10
  -2 -15   3   45.80    3.40
   2 -15  -3   43.80    3.20
  -2 -15   3   50.09    2.90
   2  15   3   41.80    2.70
  -2 -15   3   44.20    2.90
   3 -15   3    3.90    1.40
  -3 -15  -3    3.40    1.40
  -3 -15  -3    5.70    1.80
   3  15  -3    2.30    1.20
   3 -15   3    3.30    1.50
  -3 -15  -3    4.70    1.30
  -3  15  -3    2.80    1.00
   3  15   3    2.40    1.20
   3 -15  -3    5.50    1.50
   3 -15  -3    6.80    1.80
   3 -15  -3    2.80    1.30
  -3 -15   3    5.10    1.40
  -3 -15   3    3.60    1.70
  -4 -15  -3   -0.20    1.10
   4  15  -3    1.30    1.20
   4 -15   3    1.90    1.20
   4  15  -3    0.30    1.00
   4 -15   3    0.20    1.10
  -4 -15  -3   -2.30    1.00
   4  15   3    1.60    1.20
   4 -15  -3    0.80    1.20
   4 -15  -3    1.30    1.40
  -4 -15   3    0.00    1.10
   4 -15  -3    1.40    1.40
  -4 -15   3    0.50    1.40
   5  15  -3   93.79    4.40
   5 -15   3   96.89    4.20
  -5 -15  -3   96.89    4.30
   5 -15   3   94.99    4.80
   5  15  -3  100.19    4.20
  -5 -15  -3   99.69    4.90
   5  15  -3   97.19    4.70
  -5 -15   3   90.79    5.00
  -5 -15   3  100.09    4.20
   5  15   3   92.09    4.20
   5 -15  -3   92.09    4.30
   5 -15  -3   93.69    4.60
   5 -15  -3  110.89    4.60
   0 -16  -3   25.00    2.50
   0 -16   3   22.70    2.40
   0 -16   3   23.80    2.60
   0 -16   3   23.40    2.90
   0  16  -3   20.90    2.20
   0 -16  -3   20.90    2.50
   0 -16  -3   25.80    2.70
   0  16   3   18.80    2.00
   0 -16  -3   22.50    2.30
   1 -16   3  158.58    5.70
   1  16  -3  154.88    5.20
  -1 -16  -3  153.48    5.80
  -1 -16  -3  151.48    5.10
  -1  16   3  158.18    4.90
   1 -16   3  152.18    5.30
   1 -16   3  155.68    5.90
  -1 -16  -3  158.08    5.80
   1 -16  -3  157.18    5.60
   1  16   3  142.29    4.90
   1 -16  -3  156.18    5.30
   1 -16  -3  152.38    5.30
   1 -16  -3  158.48    5.90
  -1 -16   3  151.48    5.40
  -1 -16   3  158.78    6.20
  -1 -16   3  159.68    5.40
  -1  16  -3  150.88    4.90
  -2 -16  -3    5.90    1.50
   2 -16   3   10.00    1.90
   2 -16   3    8.40    2.00
  -2  16   3    7.40    1.40
  -2 -16  -3    6.50    2.00
   2  16  -3    5.60    1.50
   2 -16   3    7.30    1.90
  -2 -16  -3    8.80    1.90
  -2 -16   3    6.20    1.50
   2 -16  -3    5.50    1.70
   2 -16  -3    7.90    1.90
  -2 -16   3    6.10    1.80
   2 -16  -3    6.50    1.60
  -2 -16   3    5.90    1.60
  -2  16  -3    7.50    1.40
   2  16   3    9.40    1.60
  -3 -16  -3   45.40    3.70
  -3 -16  -3   46.00    2.90
   3 -16   3   42.40    3.00
  -3 -16  -3   41.60    3.10
   3  16  -3   41.60    2.80
   3 -16   3   49.80    3.50
  -3 -16   3   40.70    3.00
   3 -16  -3   41.80    3.40
   3 -16  -3   44.10    3.10
   3  16   3   47.10    2.90
   3 -16  -3   40.40    3.10
  -3 -16   3   40.00    3.90
  -4 -16  -3    7.30    1.80
   4 -16   3    6.20    1.60
   4  16  -3    7.50    1.70
  -4 -16   3   10.50    1.80
   4  16   3    5.90    1.60
   4 -16  -3    7.00    1.80
   4 -16  -3    8.20    1.80
   0 -17   3    0.40    1.50
   0 -17   3    0.20    1.20
   0 -17  -3    2.00    1.30
   0 -17  -3   -0.10    1.30
   0  17  -3    1.30    1.10
   0 -17  -3    2.40    1.30
   0 -17   3    1.30    1.30
   0 -17  -3   -4.90    1.30
   0  17   3   -0.10    1.00
   1 -17   3   -2.30    1.20
  -1 -17  -3    3.50    1.50
   1 -17   3    0.20    1.30
  -1  17   3    2.80    1.20
   1  17  -3    2.30    1.20
   1 -17   3    1.70    1.30
  -1 -17  -3    2.70    1.60
  -1 -17  -3    0.70    1.30
  -1 -17   3    1.50    1.60
   1 -17  -3    0.30    1.30
  -1 -17   3    2.40    1.30
   1 -17  -3    0.30    1.10
  -1 -17   3    4.80    1.60
   1 -17  -3    2.10    2.10
   1  17   3    2.40    1.20
  -1  17  -3    1.40    1.10
  -2 -17  -3   20.60    2.30
   2  17  -3   30.10    2.80
   2 -17   3   25.50    2.70
   2 -17   3   22.00    3.80
   2 -17  -3   30.80    2.90
   2  17   3   30.50    2.60
  -2 -17   3   23.80    2.50
   2 -17  -3   27.70    2.90
  -2  17  -3   27.10    2.20
   0   0   4 1780.62   25.00
   0   0   4 1727.83   25.40
   0   0  -4 1744.33   25.10
   0   0  -4 1780.72   25.10
  -1   0  -4  628.54    9.90
   1   0  -4  640.04    9.50
   1   0   4  631.44    9.80
   1   0  -4  632.24    9.80
  -1   0  -4  628.24    9.70
  -1   0  -4  644.14    9.20
  -1   0   4  647.34    9.40
   1   0   4  686.13   10.00
   1   0  -4  617.84   10.10
   1   0  -4  653.93    9.50
   2   0   4 3957.80   55.89
   2   0  -4 3833.92   57.29
  -2   0  -4 3838.02   55.19
  -2   0  -4 3782.82   57.09
   2   0  -4 3838.12   56.89
   2   0   4 3966.10   56.09
   2   0   4 3684.43   54.99
   2   0  -4 3907.41   56.99
   2   0  -4 3825.22   56.79
   2   0  -4 4137.29   55.19
   2   0  -4 3753.82   56.59
   3   0   4   20.50    0.60
  -3   0  -4   18.90    1.20
   3   0  -4   20.50    1.00
  -3   0   4   20.00    0.80
   3   0   4   24.00    1.10
   3   0   4   20.40    1.00
   3   0  -4   21.60    1.20
   3   0  -4   19.80    1.00
   3   0  -4   21.20    1.20
   3   0   4   20.90    1.10
   3   0  -4   20.60    0.50
   4   0  -4  462.65    8.00
   4   0  -4  463.65    8.10
   4   0   4  456.25    8.00
   4   0   4  456.65    8.00
  -4   0   4  478.95    7.20
   4   0  -4  456.35    6.90
   4   0  -4  461.95    8.00
  -4   0  -4  456.25    8.00
   4   0   4  463.95    7.10
   4   0   4  467.45    7.60
  -4   0  -4  460.85    8.40
   4   0  -4  458.85    7.90
   4   0  -4  451.25    8.20
   5   0   4  527.45    8.50
   5   0  -4  522.65    9.10
   5   0   4  516.15    9.30
   5   0  -4  521.15    9.10
  -5   0  -4  513.05    9.60
   5   0   4  532.05    9.20
   5   0  -4  512.55    9.40
  -5   0  -4  509.55    9.10
   5   0  -4  504.25    9.10
   5   0   4  527.35    8.20
   5   0  -4  516.25    9.10
  -5   0   4  539.95    8.00
   6   0  -4   84.89    3.00
   6   0   4   93.59    3.10
   6   0   4   87.69    2.40
   6   0  -4   90.49    2.90
   6   0  -4   87.89    3.00
  -6   0  -4   86.69    3.00
   6   0  -4   89.29    3.00
   6   0   4   90.79    3.00
   6   0  -4   90.39    2.90
   6   0   4   89.89    2.30
   6   0   4   92.59    3.20
   7   0   4    4.10    1.00
   7   0   4    4.70    1.10
   7   0  -4    4.60    1.00
  -7   0  -4    2.70    1.00
   7   0  -4    5.10    1.10
   7   0  -4    4.50    1.10
   7   0   4    6.30    1.30
  -7   0  -4    3.80    0.80
   7   0  -4    4.40    1.00
   7   0  -4    3.90    1.10
   8   0   4    7.30    1.30
   8   0  -4    9.20    1.50
   8   0   4    8.70    1.40
  -8   0  -4    5.30    1.30
   8   0   4    7.10    1.40
   8   0  -4    8.50    1.30
   8   0  -4    7.40    1.30
   8   0  -4    7.40    1.30
   8   0  -4    7.70    1.20
   9   0  -4   10.80    1.70
   9   0  -4   10.00    1.70
   9   0   4    9.60    1.70
   9   0  -4   11.30    1.80
   9   0   4   12.90    2.00
  -9   0  -4    9.00    1.80
   9   0   4   10.10    1.70
   9   0  -4   10.80    1.60
   9   0  -4   10.40    1.50
  10   0   4   15.90    2.40
 -10   0  -4   19.90    2.40
  10   0  -4   17.40    2.20
  10   0   4   16.10    2.20
  10   0  -4   20.20    2.10
  10   0  -4   17.40    2.10
  10   0   4   17.00    2.20
  10   0  -4   22.30    2.30
  11   0  -4   11.50    2.00
  11   0   4   15.10    2.70
  11   0   4   13.10    2.20
  11   0  -4    9.90    2.00
  11   0  -4   14.80    2.20
 -11   0  -4    8.80    2.20
   0  -1   4 1039.10   15.00
   0   1   4 1011.10   15.10
   0   1  -4 1042.50   14.50
   0  -1   4 1038.00   15.00
   0  -1  -4 1014.50   14.50
   0   1  -4 1014.50   14.80
   0   1  -4 1010.80   15.00
   0   1  -4 1001.40   15.20
   0  -1   4 1017.20   15.00
  -1  -1  -4 1965.20   27.50
   1  -1   4 1892.11   27.70
   1  -1   4 1973.90   28.00
   1   1  -4 1894.21   28.20
   1  -1   4 1937.41   27.50
   1   1  -4 1918.71   27.80
   1   1  -4 1897.41   27.70
  -1  -1  -4 1897.91   27.70
   1  -1   4 1892.31   27.70
   1   1  -4 1895.21   27.60
  -1   1   4 1934.81   27.60
   1  -1  -4 1915.31   27.80
  -1   1  -4 1919.91   27.90
  -1   1  -4 1902.01   27.30
  -1   1  -4 1903.81   27.80
   1   1   4 1928.01   27.80
   1  -1  -4 1941.01   27.60
  -1  -1   4 1901.01   27.70
  -1  -1   4 1982.50   28.00
   1   1   4 1957.70   27.40
   1  -1  -4 1909.01   27.90
   2  -1   4  364.86    5.50
   2  -1   4  375.16    6.20
   2   1  -4  368.66    6.50
   2  -1   4  371.66    6.50
   2   1  -4  361.96    6.30
   2   1  -4  359.96    6.30
  -2  -1  -4  355.76    6.10
   2   1  -4  369.26    5.80
   2  -1   4  367.96    6.00
   2  -1   4  376.46    6.00
  -2  -1  -4  365.26    6.10
   2   1  -4  364.86    6.10
   2  -1  -4  367.46    6.30
  -2  -1   4  378.06    6.10
   2   1   4  378.36    6.20
   2  -1  -4  372.46    5.70
   2   1   4  359.06    6.10
   2   1   4  362.46    6.10
   2  -1  -4  367.86    6.30
   2  -1  -4  363.46    6.00
  -2   1  -4  363.86    6.30
   2  -1  -4  366.66    5.80
  -2   1  -4  364.36    6.30
   2  -1  -4  365.56    5.90
   2  -1  -4  357.86    6.30
   3   1  -4   43.10    1.50
  -3  -1  -4   44.20    1.70
   3   1  -4   40.60    1.60
   3  -1   4   46.30    0.90
   3  -1   4   43.40    1.50
   3  -1   4   42.60    1.40
   3  -1   4   42.70    1.70
  -3  -1  -4   44.40    1.50
   3   1  -4   47.30    1.80
   3  -1   4   44.40    0.90
   3   1  -4   43.20    1.40
   3  -1  -4   44.30    1.50
  -3  -1   4   44.10    1.40
   3  -1  -4   46.30    1.40
   3   1   4   45.90    1.60
   3  -1  -4   45.60    1.10
   3   1   4   43.40    1.50
   3  -1  -4   44.70    1.60
   3   1   4   44.30    1.40
   3  -1  -4   45.30    1.70
  -3   1  -4   44.30    1.60
  -3   1  -4   45.20    1.80
   3  -1  -4   43.50    1.50
   3  -1  -4   41.70    1.60
   3   1   4   43.30    1.50
   3   1   4   46.90    1.10
   4  -1   4  524.25    9.10
   4  -1   4  547.25    9.10
   4   1  -4  542.05    9.10
   4   1  -4  540.25    8.90
   4  -1   4  545.55    8.10
   4   1  -4  520.75    9.30
   4   1  -4  543.75    9.20
  -4  -1  -4  535.25    9.00
   4  -1   4  547.85    8.60
  -4  -1  -4  522.45    9.40
   4  -1   4  543.05    7.90
   4  -1   4  522.05    9.40
   4   1  -4  513.85    9.00
   4  -1  -4  533.45    8.90
   4   1   4  550.84    9.20
  -4   1  -4  526.25    9.20
   4  -1  -4  522.75    9.00
  -4   1  -4  519.65    9.40
  -4  -1   4  546.65    8.50
   4  -1  -4  530.95    8.90
   4   1   4  537.75    9.00
   4  -1  -4  530.35    9.00
   4   1   4  545.75    8.30
   4   1   4  538.65    9.10
   4   1   4  542.75    8.70
   4  -1  -4  544.45    8.30
   4  -1  -4  527.65    9.30
   5  -1   4  454.55    8.40
   5   1  -4  457.25    8.30
   5   1  -4  460.05    8.50
   5   1  -4  467.55    8.60
   5  -1   4  460.25    8.80
   5   1  -4  462.45    8.30
   5   1  -4  467.65    8.40
   5  -1   4  447.06    8.30
  -5  -1  -4  466.05    8.30
   5  -1   4  482.65    7.40
   5  -1   4  468.55    7.60
   5  -1   4  460.35    7.00
   5   1   4  471.65    8.50
   5  -1  -4  470.55    8.10
   5  -1  -4  452.05    8.30
   5  -1  -4  478.65    7.50
  -5   1  -4  447.16    8.40
   5   1   4  471.85    7.80
   5  -1  -4  465.45    8.30
   5   1   4  450.35    8.50
   5  -1  -4  463.05    8.60
   5   1   4  450.25    8.30
   5   1   4  461.95    8.50
   5  -1  -4  463.65    8.40
  -5  -1   4  462.85    7.50
   5   1   4  470.85    7.50
  -5   1  -4  444.76    8.80
   6  -1   4  278.77    5.00
  -6  -1  -4  276.27    5.60
   6   1  -4  268.57    5.90
   6   1  -4  267.37    5.80
   6  -1   4  278.57    6.00
   6  -1   4  272.37    5.00
   6   1  -4  268.27    6.00
   6   1  -4  269.27    6.10
   6   1  -4  277.07    5.90
   6  -1   4  263.77    5.90
  -6  -1  -4  268.07    5.80
   6   1   4  270.27    6.10
   6  -1  -4  268.47    5.90
   6   1   4  267.07    5.10
   6   1   4  261.37    5.80
  -6   1  -4  269.57    6.00
   6  -1  -4  268.67    6.10
   6   1   4  259.87    6.00
  -6   1  -4  267.47    6.40
   6  -1  -4  275.07    5.70
   6  -1  -4  268.17    5.90
   6   1   4  272.97    6.10
   6   1   4  274.57    5.20
   6  -1  -4  298.67    5.60
   6  -1  -4  265.07    5.80
   7  -1   4  123.39    4.10
   7   1  -4  123.69    3.80
  -7  -1  -4  121.39    3.40
   7   1  -4  123.99    3.70
   7  -1   4  121.79    3.90
   7   1  -4  120.79    3.80
   7   1  -4  124.89    4.00
   7   1  -4  118.09    3.90
   7  -1   4  124.89    3.90
  -7  -1  -4  123.99    3.90
  -7   1  -4  120.79    3.90
   7   1   4  126.49    3.80
   7   1   4  128.89    3.20
   7  -1  -4  122.79    3.80
   7  -1  -4  130.69    4.00
   7   1   4  129.09    4.10
   7  -1  -4  127.09    3.90
   7   1   4  121.79    3.90
   7  -1  -4  125.99    4.00
   7  -1  -4  129.79    3.60
  -7   1  -4  125.99    3.40
   8   1  -4   28.30    2.10
   8   1  -4   24.80    2.00
  -8  -1  -4   32.60    1.80
   8  -1   4   25.50    2.00
   8  -1   4   28.30    2.40
   8   1  -4   28.50    2.10
   8  -1   4   27.50    2.20
  -8  -1  -4   30.70    2.30
   8   1  -4   28.40    2.20
   8   1  -4   26.20    2.20
   8  -1  -4   32.00    2.10
   8  -1  -4   30.40    2.20
  -8   1  -4   26.40    2.30
   8   1   4   30.90    2.10
   8   1   4   29.80    2.20
   8  -1  -4   26.60    2.10
   8  -1  -4   30.30    2.20
   8   1   4   26.60    2.40
   8  -1  -4   27.90    2.20
   9  -1   4  162.58    5.30
   9   1  -4  167.08    5.00
   9   1  -4  158.28    4.90
   9   1  -4  170.48    5.40
  -9  -1  -4  160.48    5.30
   9   1  -4  161.28    5.20
   9  -1   4  162.08    5.20
   9   1  -4  164.08    5.30
   9  -1   4  166.08    5.50
   9  -1  -4  162.28    5.20
   9  -1  -4  162.38    5.20
  -9   1  -4  157.78    5.30
   9   1   4  155.78    5.30
   9  -1  -4  155.28    4.90
   9  -1  -4  170.08    4.80
   9   1   4  168.78    5.50
   9  -1  -4  159.88    5.20
   9   1   4  164.58    5.10
 -10  -1  -4   23.40    2.60
  10   1  -4   21.00    2.30
  10  -1   4   18.10    2.20
  10   1  -4   23.20    2.40
  10  -1   4   21.40    2.40
  10   1  -4   23.00    2.30
  10   1  -4   20.10    2.40
  10   1   4   26.40    2.70
  10   1   4   23.20    2.60
 -10   1  -4   24.70    2.70
  10  -1  -4   21.70    2.30
  10  -1  -4   22.10    2.30
  10   1   4   18.80    2.20
  10  -1  -4   24.20    2.40
  11   1  -4   28.00    2.70
 -11  -1  -4   28.40    3.00
  11   1  -4   26.20    2.70
  11  -1   4   28.80    4.10
  11   1  -4   27.60    2.90
  11  -1   4   27.60    2.90
 -11   1  -4   24.40    3.00
  11   1   4   26.60    2.80
  11  -1  -4   30.90    2.90
  11  -1  -4   26.00    2.60
  11  -1  -4   25.30    2.90
   0  -2   4  122.09    2.80
   0  -2   4  128.69    2.50
   0   2  -4  123.99    2.60
   0  -2   4  128.29    2.50
   0   2  -4  129.39    2.40
   0   2  -4  122.59    2.60
   1  -2   4  551.84    8.80
   1   2  -4  544.25    8.60
  -1  -2  -4  544.15    8.50
   1  -2   4  563.84    8.10
  -1   2   4  556.84    8.50
   1  -2   4  545.25    8.30
   1   2  -4  538.15    8.00
   1   2  -4  551.54    8.70
   1   2  -4  529.65    9.00
  -1   2  -4  564.44    8.10
  -1  -2   4  570.54    8.20
  -1  -2   4  548.55    8.60
  -1   2  -4  548.95    8.80
   1   2   4  575.74    8.30
   1  -2  -4  542.85    8.00
   1  -2  -4  552.44    8.00
  -1  -2   4  549.95    8.90
  -1   2  -4  559.64    8.90
   1   2   4  548.35    8.70
   2  -2   4  440.66    6.80
   2   2  -4  450.75    7.40
   2  -2   4  443.36    7.30
   2   2  -4  433.26    7.40
   2  -2   4  446.16    7.00
  -2  -2  -4  437.86    7.10
   2  -2   4  439.26    7.60
  -2   2   4  442.56    6.90
  -2  -2  -4  444.86    6.40
   2   2  -4  449.36    6.90
   2  -2   4  485.65    6.60
   2   2  -4  421.56    7.60
   2   2   4  436.56    7.20
   2  -2  -4  445.56    6.90
  -2  -2   4  444.16    7.30
   2  -2  -4  442.96    7.30
   2  -2  -4  446.96    7.30
   2   2   4  430.56    7.00
  -2  -2   4  440.46    7.40
  -2   2  -4  442.56    7.60
   2  -2  -4  443.06    7.00
   2   2   4  441.26    7.10
   2  -2  -4  441.66    6.80
  -2   2  -4  447.46    7.50
   2  -2  -4  441.86    7.40
   3  -2   4   92.89    1.80
   3   2  -4   90.69    2.40
   3   2  -4   92.99    2.20
   3   2  -4   91.69    2.50
   3  -2   4   88.69    2.30
   3  -2   4   93.99    2.30
   3  -2   4   88.99    2.60
  -3  -2  -4   93.19    2.20
   3   2  -4   88.29    2.60
   3  -2   4   96.79    1.70
   3   2   4   89.99    2.30
   3  -2  -4   89.19    2.30
  -3  -2   4   90.79    2.30
   3   2   4   88.19    2.40
   3  -2  -4   92.39    2.30
   3  -2  -4   92.69    2.00
   3   2   4   85.79    2.20
   3   2   4   91.59    2.30
   3  -2  -4   89.19    2.10
   3  -2  -4   87.49    2.50
  -3   2  -4   91.39    2.50
  -3   2  -4   92.59    2.70
   3  -2  -4   91.19    2.40
   3   2   4   95.39    2.00
   3  -2  -4   93.29    2.30
   4   2  -4  230.48    4.70
   4  -2   4  230.48    4.60
   4  -2   4  224.38    5.00
   4   2  -4  226.48    4.90
   4   2  -4  225.38    4.80
   4  -2   4  225.68    3.80
   4  -2   4  237.68    3.90
  -4  -2  -4  226.68    4.50
   4  -2   4  237.38    4.80
   4   2  -4  224.08    4.50
   4   2  -4  233.48    4.90
   4  -2  -4  232.28    4.70
   4  -2  -4  234.98    4.20
   4   2   4  228.38    4.60
  -4  -2   4  231.68    4.40
   4  -2  -4  223.28    4.90
   4   2   4  225.48    4.90
   4   2   4  225.28    4.90
  -4   2  -4  226.68    4.80
   4   2   4  223.48    4.70
   4   2   4  227.88    4.10
   4  -2  -4  224.18    4.50
   4   2   4  239.68    4.50
   4  -2  -4  227.28    4.70
   4  -2  -4  232.88    4.70
  -4   2  -4  221.48    5.00
   4  -2  -4  238.18    4.50
   5   2  -4  401.66    7.70
   5  -2   4  404.46    7.60
   5  -2   4  419.26    6.60
  -5  -2  -4  407.26    7.50
   5   2  -4  392.16    7.60
   5   2  -4  392.26    7.40
  -5  -2  -4  403.86    7.40
   5  -2   4  406.26    6.40
   5   2  -4  413.76    7.50
   5  -2   4  405.76    7.60
   5   2  -4  400.46    7.80
   5   2   4  415.06    7.90
   5   2   4  404.46    7.10
  -5   2  -4  403.46    7.70
  -5   2  -4  398.06    8.10
   5   2   4  428.76    6.90
   5  -2  -4  405.76    7.50
   5   2   4  402.86    7.50
   5  -2  -4  404.76    7.50
   5  -2  -4  409.86    7.80
   5   2   4  416.16    7.80
   5   2   4  402.86    7.70
   5  -2  -4  408.96    7.20
   5  -2  -4  418.46    6.90
  -5  -2   4  395.66    7.00
   5  -2  -4  396.36    7.60
   6  -2   4 1037.90   17.00
   6  -2   4 1038.60   17.40
   6   2  -4 1056.29   16.90
   6  -2   4 1067.09   15.70
  -6  -2  -4 1042.50   16.70
   6   2  -4 1030.30   16.70
  -6  -2  -4 1048.00   16.70
   6   2  -4 1008.30   16.90
   6   2  -4 1035.40   17.10
   6   2  -4 1024.00   17.20
   6  -2   4 1019.40   16.90
   6  -2  -4 1046.40   16.30
   6  -2  -4  991.30   17.10
  -6   2  -4 1009.20   17.50
   6  -2  -4 1022.70   16.70
   6  -2  -4 1029.20   16.80
   6  -2  -4 1016.70   16.90
  -6  -2   4 1042.40   15.90
   6   2   4 1023.30   16.70
   6   2   4 1043.00   16.10
   6   2   4 1042.80   17.10
   6   2   4 1018.70   17.10
  -6   2  -4 1017.70   17.00
   6   2   4 1051.39   16.00
   6   2   4 1024.60   17.20
   6  -2  -4 1083.19   16.00
   7  -2   4  137.09    4.10
   7   2  -4  137.79    4.00
   7   2  -4  138.19    4.10
   7   2  -4  141.29    4.40
   7   2  -4  134.29    4.10
   7  -2   4  139.09    4.20
  -7  -2  -4  141.79    4.10
  -7  -2  -4  140.59    3.80
   7  -2   4  137.89    4.40
   7   2  -4  143.49    4.40
  -7   2  -4  133.59    4.20
   7   2   4  141.29    3.40
  -7   2  -4  142.79    4.60
   7  -2  -4  137.69    4.30
   7   2   4  139.79    4.30
   7   2   4  136.29    4.30
   7   2   4  137.69    4.00
   7  -2  -4  142.69    3.70
   7  -2  -4  140.29    4.10
   7   2   4  141.69    4.30
   7  -2  -4  136.99    4.00
   7   2   4  139.09    3.40
   7  -2  -4  143.99    4.30
   8  -2   4   92.89    3.90
   8   2  -4   86.39    3.30
  -8  -2  -4   96.09    3.70
   8   2  -4   93.49    3.60
  -8  -2  -4   98.09    3.20
   8  -2   4   90.89    3.60
   8   2  -4   96.79    3.80
   8   2  -4   91.49    3.60
   8  -2   4   97.39    3.70
   8   2  -4   93.59    3.70
   8   2   4   96.19    3.80
   8  -2  -4   88.79    3.40
  -8   2  -4   89.59    3.80
   8  -2  -4   98.09    3.70
   8  -2  -4  104.99    3.30
   8   2   4   94.69    3.50
   8   2   4   97.49    3.80
   8   2   4   97.09    3.90
   8  -2  -4   92.19    3.60
   8  -2  -4   97.49    3.70
  -9  -2  -4   31.80    2.60
   9   2  -4   33.40    2.50
   9   2  -4   33.60    2.70
   9   2  -4   37.30    2.50
   9   2  -4   31.50    2.50
   9  -2   4   35.40    2.80
   9  -2   4   32.70    2.50
   9   2  -4   32.50    2.50
   9  -2   4   30.60    2.40
   9  -2  -4   31.90    2.40
   9  -2  -4   38.40    2.60
   9  -2  -4   34.00    2.50
   9  -2  -4   34.20    2.50
  -9   2  -4   40.40    3.00
   9   2   4   35.60    2.80
   9   2   4   33.70    2.30
   9   2   4   32.60    2.60
  10  -2   4    9.80    1.80
  10   2  -4   12.90    1.90
 -10  -2  -4    7.00    1.80
  10   2  -4    9.50    1.80
  10   2  -4   10.50    1.80
  10   2  -4   14.60    2.10
  10  -2   4   10.40    1.80
  10   2   4    9.10    1.80
  10   2   4   11.50    1.80
  10  -2  -4    9.80    1.80
  10  -2  -4   12.40    1.90
 -10   2  -4    6.50    1.90
  10  -2  -4   10.40    1.80
  10   2   4   13.00    3.30
  11   2  -4   22.40    2.50
  11  -2   4   22.10    2.60
  11   2  -4   16.60    2.30
  11   2  -4   19.20    2.30
 -11  -2  -4   15.60    2.70
  11   2  -4   17.30    2.40
  11  -2  -4   22.20    2.50
  11   2   4   18.30    2.30
  11  -2  -4   19.80    2.40
   0   3  -4   11.10    0.90
   0  -3   4   16.10    0.80
   0   3  -4   11.80    0.90
   0  -3  -4   13.50    0.40
   0   3  -4   11.20    0.80
   0   3   4   10.90    0.70
   0  -3   4   11.70    0.90
   0  -3   4   12.40    0.70
   0  -3   4   13.50    0.30
   0   3  -4   12.50    0.70
   1  -3   4  128.99    3.10
   1  -3   4  129.39    2.20
   1  -3   4  127.19    2.50
   1  -3   4  129.19    2.90
   1   3  -4  127.59    2.90
  -1  -3  -4  128.69    2.40
   1   3  -4  128.39    2.70
  -1  -3  -4  127.69    2.30
  -1  -3  -4  131.99    2.50
   1   3  -4  125.39    3.00
  -1   3   4  127.19    2.50
   1  -3  -4  127.89    2.10
  -1   3  -4  125.39    2.90
  -1   3  -4  132.69    2.40
   1  -3  -4  125.99    2.70
  -1  -3   4  125.99    2.70
  -1  -3   4  127.09    3.00
  -1  -3   4  127.69    2.40
  -1   3  -4  128.59    2.80
   2  -3   4 1571.74   23.60
   2  -3   4 1640.14   23.30
  -2  -3  -4 1619.14   22.90
   2   3  -4 1617.14   23.90
   2  -3   4 1602.04   24.10
  -2   3   4 1613.44   23.20
   2  -3   4 1587.64   23.30
   2   3  -4 1612.24   24.10
   2   3  -4 1576.14   23.90
  -2  -3  -4 1616.84   23.30
   2   3  -4 1641.94   23.20
  -2  -3   4 1588.34   23.70
  -2   3  -4 1608.04   24.10
   2   3   4 1614.54   23.70
   2  -3  -4 1618.74   23.50
   2  -3  -4 1591.44   23.80
   2  -3  -4 1649.93   23.10
   2   3   4 1616.54   23.40
   2  -3  -4 1587.34   23.20
   2  -3  -4 1613.54   23.60
   2  -3  -4 1599.04   23.50
   2   3   4 1602.64   23.40
  -2  -3   4 1608.14   24.00
  -2   3  -4 1599.04   23.90
  -2  -3   4 1592.04   23.00
  -3  -3  -4  653.53   10.10
  -3  -3  -4  637.54   10.60
   3  -3   4  652.03    9.80
  -3  -3  -4  653.23    9.30
   3  -3   4  638.44   10.90
   3  -3   4  641.64   10.20
   3   3  -4  641.04   10.10
   3   3  -4  613.64   10.40
   3   3  -4  620.44   10.60
  -3   3   4  658.33    9.60
   3   3  -4  622.04   10.70
   3   3  -4  644.14   10.70
   3  -3   4  654.53   10.50
   3  -3  -4  641.94   10.50
   3   3   4  644.04   10.30
   3   3   4  642.14   10.70
   3  -3  -4  658.93   10.40
   3   3   4  656.13   10.70
   3  -3  -4  656.23   10.00
   3   3   4  655.23   10.10
  -3   3  -4  653.23   10.60
   3  -3  -4  636.14   10.20
  -3  -3   4  639.74   10.50
   3   3   4  634.54   10.30
   3  -3  -4  654.13   10.10
   3  -3  -4  649.93    9.30
   3   3   4  644.04   10.20
  -3   3  -4  637.84   10.90
  -3  -3   4  644.84   10.40
   4   3  -4  127.39    3.40
  -4  -3  -4  132.99    3.00
  -4  -3  -4  136.09    3.40
   4  -3   4  132.19    3.20
   4  -3   4  128.69    3.60
   4  -3   4  135.29    3.30
   4   3  -4  132.19    3.10
   4  -3   4  131.69    2.60
   4   3  -4  132.69    3.50
   4  -3   4  135.69    2.60
   4   3  -4  128.19    3.20
   4   3  -4  137.49    3.50
   4   3   4  128.29    3.20
   4   3   4  137.89    3.50
   4  -3  -4  136.99    3.00
   4   3   4  133.39    3.10
   4  -3  -4  131.49    3.20
   4  -3  -4  133.69    3.20
   4  -3  -4  126.59    3.40
  -4  -3   4  135.79    3.20
   4  -3  -4  130.49    3.10
  -4   3  -4  128.49    3.40
   4  -3  -4  136.79    2.90
   4   3   4  132.69    3.10
   4   3   4  136.79    3.50
  -4   3  -4  129.79    3.70
   4  -3  -4  127.09    3.30
   4   3   4  133.59    2.90
   5  -3   4  218.98    4.90
  -5  -3  -4  222.38    4.60
   5  -3   4  227.58    4.10
   5  -3   4  220.88    4.00
   5  -3   4  213.78    5.30
   5  -3   4  225.88    4.90
  -5  -3  -4  220.98    4.90
   5   3  -4  214.18    4.70
   5   3  -4  220.48    5.10
   5   3  -4  217.48    5.10
   5   3  -4  215.08    4.70
   5   3  -4  212.18    5.00
  -5   3  -4  213.38    5.00
   5   3   4  217.58    4.30
   5   3   4  220.58    5.00
   5  -3  -4  221.98    4.30
   5   3   4  215.48    4.70
   5  -3  -4  209.88    4.90
   5   3   4  217.78    5.10
   5   3   4  230.28    5.20
   5  -3  -4  221.38    4.70
   5  -3  -4  225.98    4.50
   5   3   4  223.68    4.50
  -5  -3   4  218.38    4.60
   5  -3  -4  212.08    5.00
   5  -3  -4  215.58    4.70
  -5   3  -4  218.68    5.40
   6   3  -4   46.90    2.30
   6   3  -4   48.50    2.10
   6  -3   4   51.19    2.30
   6   3  -4   48.30    2.40
   6  -3   4   51.79    2.60
  -6  -3  -4   49.00    2.20
  -6  -3  -4   54.69    2.20
   6  -3   4   53.39    1.80
   6   3  -4   53.39    1.70
   6   3  -4   51.69    2.20
   6  -3   4   51.99    1.70
   6   3  -4   50.59    2.40
   6  -3   4   52.59    2.30
   6  -3  -4   52.49    2.00
   6  -3  -4   51.09    1.90
   6   3   4   50.89    2.40
   6   3   4   52.39    2.50
   6  -3  -4   49.20    2.20
   6   3   4   51.09    1.90
   6   3   4   52.49    2.40
   6   3   4   49.00    1.80
   6   3   4   52.69    2.10
   6  -3  -4   51.69    2.30
   6  -3  -4   46.70    2.30
   6  -3  -4   49.50    2.20
  -6   3  -4   52.19    2.70
  -6   3  -4   51.39    2.40
  -6  -3   4   50.99    2.00
   7   3  -4   51.99    2.80
   7  -3   4   52.59    2.50
   7   3  -4   57.99    2.80
   7  -3   4   55.39    2.90
  -7  -3  -4   59.79    2.50
  -7  -3  -4   56.09    2.50
   7   3  -4   59.09    2.60
   7  -3   4   55.19    2.60
   7   3  -4   54.79    2.50
   7   3  -4   53.39    2.70
   7   3   4   60.29    2.80
   7   3   4   55.39    2.80
   7   3   4   55.79    2.50
   7   3   4   59.19    2.20
   7  -3  -4   60.59    2.60
   7  -3  -4   55.59    2.70
   7  -3  -4   52.89    2.50
   7   3   4   54.99    2.80
   7  -3  -4   59.79    2.70
  -7   3  -4   58.19    2.80
   7   3   4   55.59    2.20
  -7   3  -4   58.69    3.00
   7  -3  -4   57.29    2.20
   8   3  -4   18.80    1.90
  -8  -3  -4   19.40    2.00
   8   3  -4   19.60    2.00
   8   3  -4   21.20    2.10
   8  -3   4   18.90    2.00
   8   3  -4   22.40    2.00
   8  -3   4   18.20    2.10
  -8  -3  -4   24.00    1.80
   8  -3   4   20.40    2.00
   8   3  -4   15.90    1.80
   8  -3   4   21.60    2.30
   8  -3  -4   21.80    2.00
   8  -3  -4   17.70    1.80
   8   3   4   20.80    1.80
   8   3   4   20.90    2.20
   8  -3  -4   21.90    1.80
   8  -3  -4   19.80    2.00
  -8   3  -4   17.60    2.00
  -8   3  -4   16.70    2.00
   8   3   4   22.90    2.30
   8   3   4   21.30    2.20
   9   3  -4   40.60    2.60
   9  -3   4   42.60    2.80
  -9  -3  -4   46.50    2.90
   9  -3   4   42.50    2.80
   9   3  -4   42.80    2.80
   9   3  -4   43.80    2.60
   9   3  -4   47.60    3.00
   9  -3   4   45.30    3.10
   9   3  -4   46.00    3.10
   9  -3  -4   40.00    2.80
   9  -3  -4   41.80    2.60
   9   3   4   42.40    3.00
   9   3   4   48.50    3.20
   9  -3  -4   42.10    2.80
   9   3   4   43.90    2.70
  -9   3  -4   50.09    3.30
   9  -3  -4   47.50    2.90
  10   3  -4   15.50    2.20
 -10  -3  -4    7.80    1.80
  10   3  -4    9.50    1.80
  10  -3   4   10.50    1.90
  10   3  -4   15.00    2.00
  10  -3   4    9.60    1.80
  10   3  -4   10.80    1.80
 -10   3  -4   14.00    2.40
  10  -3  -4   11.00    1.80
  10  -3  -4    6.60    1.70
  10   3   4   10.00    1.70
  10  -3  -4   10.60    1.80
  10   3   4   10.90    2.00
  11   3  -4   25.80    3.90
  11  -3   4   20.20    2.40
  11   3  -4   23.00    2.50
  11   3  -4   23.60    2.60
  11   3  -4   23.60    2.70
  11  -3  -4   26.90    2.80
  11  -3  -4   26.50    2.80
  11   3   4   23.40    2.60
   0   4  -4  416.36    6.70
   0  -4   4  411.26    7.30
   0   4   4  418.46    6.20
   0  -4   4  408.06    6.80
   0   4   4  414.56    6.80
   0  -4  -4  408.26    6.70
   0  -4   4  418.06    6.10
   0   4  -4  410.56    6.80
   0  -4  -4  404.76    6.20
   0   4  -4  407.96    7.20
   0  -4   4  400.26    6.80
   0   4  -4  391.56    7.10
   0  -4  -4  416.96    6.90
  -1   4   4   59.39    1.20
  -1  -4  -4   56.09    1.30
  -1  -4  -4   54.39    1.40
   1  -4   4   56.19    1.60
   1   4  -4   59.39    1.70
   1  -4   4   57.39    2.00
  -1   4   4   56.09    1.50
  -1  -4  -4   56.19    1.40
   1  -4   4   59.49    1.30
   1  -4   4   60.79    1.80
   1   4  -4   55.99    1.90
   1   4  -4   57.89    1.90
  -1  -4  -4   58.09    1.80
   1   4   4   49.20    1.30
  -1   4  -4   58.89    2.00
  -1  -4   4   58.29    1.50
  -1   4  -4   57.39    1.50
   1  -4  -4   58.59    1.60
   1   4   4   56.49    1.70
   1  -4  -4   57.69    1.60
  -1  -4   4   54.59    2.00
  -1  -4   4   55.69    1.70
  -1   4  -4   57.89    1.70
   1  -4  -4   55.69    1.70
   1  -4  -4   57.09    1.30
  -2  -4  -4  607.14   10.10
   2   4  -4  609.94   10.10
   2   4  -4  612.54    9.30
  -2  -4  -4  608.94    9.10
   2  -4   4  606.84    9.50
   2  -4   4  599.04   10.20
   2  -4   4  618.84    9.40
  -2  -4  -4  619.24    9.20
   2   4  -4  598.14    9.90
   2  -4   4  603.94   10.10
   2  -4   4  620.74    9.70
   2   4  -4  601.84   10.10
  -2   4   4  602.64    9.30
  -2  -4  -4  609.54    9.50
  -2   4  -4  603.04    9.90
   2  -4  -4  608.54    9.20
  -2  -4   4  597.64    9.80
   2  -4  -4  592.84    9.30
  -2   4  -4  590.94   10.20
   2   4   4  604.84    9.30
   2  -4  -4  587.34    9.90
   2  -4  -4  609.44    9.60
   2  -4  -4  622.04    9.40
   2   4   4  608.14    9.80
  -2  -4   4  599.04    9.10
   2  -4  -4  599.74    9.70
   2   4   4  595.14    9.40
  -2  -4   4  614.24   10.20
   3  -4   4   46.10    1.70
   3   4  -4   49.20    1.80
  -3   4   4   52.19    1.30
   3   4  -4   49.80    1.90
   3  -4   4   55.19    2.10
   3   4  -4   49.90    1.60
   3   4  -4   52.19    2.00
  -3  -4  -4   50.89    1.90
   3   4  -4   46.40    1.90
   3  -4   4   53.19    1.50
  -3  -4  -4   51.89    1.20
   3  -4   4   53.39    1.60
  -3   4   4   50.99    1.60
  -3  -4  -4   52.79    1.50
  -3   4  -4   53.59    2.20
   3  -4  -4   51.49    1.70
   3   4   4   52.79    1.70
   3   4   4   48.50    1.70
   3   4   4   50.59    1.70
  -3  -4   4   49.90    1.20
  -3   4  -4   54.89    1.90
   3   4   4   53.59    1.90
   3  -4  -4   53.59    1.20
   3  -4  -4   53.09    1.50
  -3  -4   4   49.10    1.70
  -3  -4   4   51.39    2.00
   3  -4  -4   54.69    1.90
   3  -4  -4   50.59    1.70
   3   4   4   52.39    1.60
   3  -4  -4   52.69    1.70
   4   4  -4  102.69    2.70
   4  -4   4   99.99    2.80
  -4  -4  -4  105.99    2.50
   4  -4   4  107.69    2.40
   4  -4   4  105.19    2.80
  -4  -4  -4  108.89    3.10
   4   4  -4   99.49    2.80
   4  -4   4  106.59    3.30
  -4  -4  -4  111.69    2.00
   4   4  -4  105.69    3.10
   4  -4   4  110.69    2.30
   4   4  -4  100.59    3.10
   4   4  -4  106.69    3.20
  -4   4   4  106.19    1.90
   4   4   4  109.79    3.20
  -4  -4   4  106.79    1.90
   4  -4  -4  108.29    2.90
   4  -4  -4  105.39    2.80
   4  -4  -4  105.69    3.10
   4   4   4  101.89    2.60
   4   4   4  109.69    2.90
   4  -4  -4  108.79    2.80
  -4   4  -4  108.39    3.40
  -4   4  -4  107.09    3.10
   4   4   4  107.79    2.70
   4  -4  -4  105.99    3.00
   4  -4  -4  108.29    2.40
  -4  -4   4  106.19    3.00
   4   4   4  105.29    2.80
  -4  -4   4  100.89    2.80
   4   4   4  107.59    3.10
   5   4  -4   67.49    2.30
   5  -4   4   72.79    2.00
   5   4  -4   67.69    2.40
  -5  -4  -4   67.79    2.50
   5   4  -4   67.29    2.60
   5   4  -4   67.59    2.60
   5  -4   4   73.19    2.50
   5  -4   4   68.79    2.80
  -5  -4  -4   68.79    2.20
   5   4  -4   69.29    2.70
   5  -4   4   70.69    2.40
   5  -4   4   72.19    1.90
   5   4   4   75.39    2.30
   5   4   4   66.89    2.20
  -5  -4   4   70.49    2.40
   5   4   4   65.19    2.60
   5  -4  -4   69.99    2.60
   5   4   4   69.79    2.60
   5  -4  -4   70.99    2.60
  -5   4  -4   68.89    2.60
  -5   4  -4   68.69    2.90
   5  -4  -4   70.49    2.30
   5  -4  -4   70.19    2.40
   5   4   4   66.59    2.20
   5  -4  -4   69.39    1.90
   5   4   4   66.29    2.70
  -6  -4  -4   98.39    3.00
   6  -4   4   96.39    3.50
   6   4  -4  101.49    3.50
   6   4  -4   99.29    3.20
   6   4  -4   95.79    3.40
   6  -4   4   97.79    2.50
   6   4  -4  105.39    2.70
   6  -4   4  104.09    2.60
  -6  -4  -4   99.49    3.20
   6   4  -4  101.79    3.50
   6  -4   4   92.99    3.10
   6   4  -4   94.69    3.10
   6  -4   4   96.09    3.20
   6   4   4   97.09    2.90
   6   4   4  101.49    3.40
   6  -4  -4   95.89    3.30
   6   4   4   99.19    2.80
   6  -4  -4   95.39    3.00
   6   4   4   97.49    3.40
  -6   4  -4  101.09    3.70
  -6   4  -4  102.89    3.40
   6  -4  -4   99.69    3.10
  -6  -4   4  102.49    3.10
   6  -4  -4  100.09    2.60
   6   4   4   99.69    3.50
   6  -4  -4  101.59    3.00
   6  -4  -4   95.29    3.30
   6   4   4   92.09    2.90
   7   4  -4   78.89    3.30
  -7  -4  -4   80.39    3.00
   7   4  -4   83.69    3.30
   7  -4   4   82.09    3.10
   7   4  -4   82.49    3.50
   7  -4   4   75.99    3.40
  -7  -4  -4   78.59    3.00
   7  -4   4   80.49    3.10
   7   4  -4   80.29    3.00
   7   4  -4   82.09    3.10
   7  -4  -4   83.49    3.30
   7   4   4   73.39    3.20
   7   4   4   82.79    3.30
   7   4   4   77.89    3.40
   7   4   4   82.59    2.70
   7   4   4   80.89    2.90
   7  -4  -4   81.89    3.30
  -7   4  -4   79.29    3.60
   7  -4  -4   80.59    3.10
   7  -4  -4   82.79    3.10
   7   4   4   86.19    2.80
  -7   4  -4   80.89    3.40
   8   4  -4   26.20    2.00
   8  -4   4   27.40    2.40
   8   4  -4   24.50    2.10
   8  -4   4   29.20    2.10
   8   4  -4   26.00    2.20
   8   4  -4   25.70    2.10
  -8  -4  -4   24.00    2.20
   8   4  -4   28.00    2.40
  -8  -4  -4   24.60    1.90
   8  -4   4   23.80    2.10
   8   4   4   26.40    2.50
   8  -4  -4   24.60    2.10
   8   4   4   28.70    2.40
   8   4   4   21.80    1.80
   8  -4  -4   26.80    2.10
  -8   4  -4   26.20    2.40
  -8   4  -4   30.20    2.60
   8   4   4   29.00    2.40
   8  -4  -4   23.60    2.10
   8  -4  -4   29.00    2.20
   9   4  -4   89.39    3.60
   9  -4   4   89.89    4.20
   9  -4   4   76.39    3.50
   9   4  -4   85.59    4.00
   9   4  -4   77.09    3.70
   9   4  -4   83.49    3.70
   9   4  -4   85.39    3.90
   9  -4   4   76.19    3.60
   9  -4   4   87.69    4.10
   9  -4  -4   80.39    3.70
   9  -4  -4   84.59    3.80
   9   4   4   80.99    3.90
   9  -4  -4   84.59    3.80
   9  -4  -4   79.09    3.50
   9   4   4   81.09    3.90
   9   4   4   85.69    3.50
  -9   4  -4   81.69    4.00
  10   4  -4   49.00    3.20
  10   4  -4   52.69    3.30
  10  -4   4   52.59    3.30
  10   4  -4   54.09    3.00
  10  -4   4   54.99    3.30
  10   4  -4   47.50    3.20
  10   4   4   54.89    3.50
 -10   4  -4   51.39    3.70
  10   4   4   50.29    3.00
  10  -4  -4   53.89    3.10
  10  -4  -4   51.39    3.30
  10  -4  -4   55.19    3.40
  11   4  -4   19.30    2.20
  11   4  -4   18.20    2.40
  11  -4   4   15.30    2.20
  11  -4  -4   20.10    2.70
  11  -4  -4   18.40    2.40
  11   4   4   19.60    2.30
   0  -5   4  305.27    4.80
   0   5  -4  302.37    5.40
   0  -5   4  301.97    5.50
   0  -5  -4  306.87    5.50
   0  -5  -4  302.47    5.30
   0   5  -4  312.57    5.90
   0  -5   4  299.27    5.50
   0   5  -4  306.17    5.70
   0   5   4  295.57    5.40
   0   5  -4  296.97    5.40
   0  -5  -4  308.97    5.00
   0  -5   4  302.37    6.00
   1  -5   4   74.99    2.40
   1  -5   4   76.39    2.20
   1   5  -4   74.29    2.30
   1  -5   4   76.89    1.70
   1   5  -4   77.89    2.00
   1   5  -4   77.39    2.20
  -1  -5  -4   74.99    2.20
   1  -5   4   75.39    2.00
  -1  -5  -4   75.69    1.90
  -1  -5  -4   78.79    1.80
  -1  -5  -4   76.79    1.60
  -1   5   4   64.29    1.60
   1   5  -4   76.79    2.40
  -1   5   4   76.89    2.00
   1  -5  -4   76.29    2.20
  -1  -5   4   79.59    2.00
  -1  -5   4   76.59    2.50
  -1   5  -4   77.59    2.10
  -1   5  -4   73.99    2.20
   1  -5  -4   78.99    1.80
  -1   5  -4   75.49    2.00
   1   5   4   74.69    2.10
  -1   5  -4   75.99    2.40
   1   5   4   74.59    1.80
   1  -5  -4   72.49    2.00
   1  -5  -4   74.29    1.70
   1  -5  -4   79.29    2.10
  -1  -5   4   77.99    2.20
  -2  -5  -4   90.89    2.20
   2  -5   4   83.69    2.60
   2  -5   4   84.69    2.20
  -2   5   4   88.19    2.00
   2  -5   4   88.09    2.00
   2  -5   4   81.69    2.60
  -2  -5  -4   84.29    2.50
  -2   5   4   83.49    2.00
  -2  -5  -4   85.89    1.70
   2   5  -4   84.39    2.30
   2  -5   4   85.69    2.20
  -2  -5  -4   87.59    2.00
   2   5  -4   88.29    2.70
   2   5  -4   79.29    2.40
   2  -5  -4   83.39    2.00
  -2  -5   4   85.99    2.70
   2   5   4   87.29    2.40
  -2   5  -4   89.19    2.80
   2  -5  -4   86.49    1.90
   2  -5  -4   87.99    2.10
   2   5   4   86.09    2.10
  -2  -5   4   88.99    2.00
   2   5   4   83.79    2.30
   2  -5  -4   82.39    2.50
  -2   5  -4   86.29    2.40
   2  -5  -4   86.39    2.40
   2  -5  -4   85.99    2.00
  -3  -5  -4   54.69    1.40
  -3  -5  -4   54.09    2.10
  -3  -5  -4   52.49    1.40
   3  -5   4   55.29    1.70
  -3   5   4   54.49    1.70
   3   5  -4   54.79    2.10
   3   5  -4   54.39    1.90
   3   5  -4   54.39    1.70
   3  -5   4   53.69    1.70
   3  -5   4   52.29    1.80
   3   5  -4   55.99    2.20
  -3   5   4   55.89    1.40
   3  -5   4   54.29    2.20
  -3   5  -4   53.79    2.00
   3  -5  -4   54.39    1.40
   3  -5  -4   53.29    1.70
  -3  -5   4   55.09    1.90
   3   5   4   56.19    2.10
   3  -5  -4   53.49    1.30
   3  -5  -4   54.59    1.90
  -3  -5   4   55.29    2.10
   3   5   4   53.39    1.60
   3   5   4   53.29    1.80
   3   5   4   53.19    1.90
  -3   5  -4   54.89    2.30
   3  -5  -4   55.39    1.80
   3  -5  -4   52.89    2.00
  -3  -5   4   56.39    1.40
  -4  -5  -4   33.00    1.30
  -4  -5  -4   31.80    1.10
   4   5  -4   32.20    1.50
   4  -5   4   33.30    1.50
   4  -5   4   30.30    1.80
   4  -5   4   32.50    1.30
  -4   5   4   33.30    1.50
   4  -5   4   34.30    1.60
  -4   5   4   33.50    1.00
   4   5  -4   29.20    1.70
   4   5  -4   34.70    1.90
   4   5  -4   34.80    1.60
  -4  -5   4   33.40    1.00
   4  -5  -4   34.50    1.10
   4  -5  -4   33.40    1.60
   4  -5  -4   31.40    1.60
   4   5   4   33.00    1.60
   4   5   4   32.40    1.40
  -4   5  -4   34.60    1.70
  -4   5  -4   33.70    2.00
   4  -5  -4   31.80    1.70
   4   5   4   31.90    1.70
   4   5   4   36.10    1.60
  -4  -5   4   33.70    1.80
  -4  -5   4   32.00    1.60
   4   5   4   31.80    1.60
  -5   5   4  482.45    8.70
   5   5  -4  471.95    9.30
   5   5  -4  459.45    9.10
   5  -5   4  479.35    8.80
   5   5  -4  473.25    8.60
   5  -5   4  494.45    8.20
  -5  -5  -4  478.45    9.00
   5   5  -4  476.55    9.20
   5  -5   4  491.25    8.80
   5  -5   4  502.55    8.10
   5  -5   4  475.05    9.40
  -5  -5  -4  488.15    8.20
   5   5  -4  485.35    8.70
   5  -5  -4  496.25    8.70
   5  -5  -4  466.05    8.50
  -5   5  -4  471.85    9.50
  -5   5  -4  480.85    9.10
   5   5   4  493.35    8.60
   5  -5  -4  467.45    9.10
   5   5   4  456.85    8.30
   5   5   4  483.55    8.60
  -5  -5   4  487.15    9.00
   5   5   4  477.05    9.20
   5  -5  -4  477.25    9.10
   5   5   4  490.05    8.90
  -5  -5   4  482.65    8.80
   6   5  -4   61.49    2.80
   6  -5   4   61.09    2.50
   6   5  -4   61.09    2.10
   6   5  -4   64.49    2.50
   6  -5   4   56.39    2.80
   6   5  -4   61.19    2.80
   6   5  -4   60.19    2.90
   6  -5   4   66.99    2.90
   6  -5   4   62.39    2.50
  -6  -5  -4   60.49    2.50
  -6  -5  -4   65.39    2.40
   6  -5   4   67.39    2.10
   6   5  -4   62.09    2.50
   6   5   4   63.29    2.40
   6  -5  -4   59.79    2.70
   6  -5  -4   60.79    2.40
   6   5   4   61.19    2.30
   6   5   4   62.29    2.80
  -6  -5   4   60.89    2.50
  -6   5  -4   62.09    3.10
   6   5   4   53.89    2.70
   6   5   4   60.39    2.30
   6  -5  -4   64.59    2.50
  -6   5  -4   58.59    2.70
   6  -5  -4   65.29    2.70
   6   5   4   69.39    2.80
   7   5  -4   98.69    3.70
   7   5  -4   94.59    3.60
   7  -5   4   97.69    3.80
   7  -5   4   98.19    3.50
  -7  -5  -4   98.59    3.20
   7   5  -4  100.49    3.50
   7  -5   4   90.99    3.40
   7   5  -4   98.39    3.90
   7   5  -4   94.39    3.20
  -7  -5  -4   97.99    3.50
   7  -5  -4  100.19    3.70
   7   5   4   98.09    3.10
   7   5   4   96.79    3.80
  -7   5  -4   93.79    4.00
   7  -5  -4   99.39    3.70
   7   5   4   94.39    3.20
  -7  -5   4   96.39    3.30
   7   5   4   99.29    3.70
  -7   5  -4   93.49    3.60
   7  -5  -4   98.89    3.30
   7   5   4   94.39    3.00
   7  -5  -4   94.89    3.40
   7   5   4   95.89    3.80
   7  -5  -4   95.59    3.30
   8   5  -4   10.10    1.50
  -8  -5  -4    7.90    1.40
   8   5  -4    9.10    1.40
   8  -5   4    8.10    1.40
   8  -5   4    8.90    1.40
   8  -5   4    7.10    1.50
   8   5  -4   11.10    1.70
   8   5  -4   10.00    1.60
   8   5  -4   10.50    1.70
   8   5   4    9.60    1.40
   8   5   4   10.30    1.80
   8  -5  -4    7.40    1.30
  -8   5  -4   11.80    2.00
   8  -5  -4    9.70    1.50
   8  -5  -4   11.20    1.60
   8   5   4    8.50    1.60
   8  -5  -4    9.40    1.50
  -8   5  -4    6.50    1.60
   8   5   4    7.40    1.60
   9  -5   4   74.99    3.60
   9   5  -4   70.49    3.50
   9  -5   4   78.59    3.60
   9   5  -4   76.29    3.80
   9  -5   4   75.39    3.80
   9   5  -4   78.09    3.40
   9   5  -4   82.39    3.90
   9   5  -4   70.19    4.60
   9   5   4   80.59    4.00
   9  -5  -4   73.09    3.60
  -9   5  -4   68.59    3.90
   9   5   4   78.59    3.90
   9   5   4   76.39    3.30
   9  -5  -4   80.79    3.50
   9  -5  -4   75.49    3.70
  -9   5  -4   78.29    4.20
  10   5  -4    0.50    1.20
  10   5  -4    0.80    1.30
  10  -5   4   -0.60    1.00
  10  -5   4    2.50    1.30
  10   5  -4    2.80    1.40
  10   5  -4    2.80    1.10
  10   5   4   -0.50    0.90
  10  -5  -4    1.00    1.20
  10  -5  -4    0.70    1.10
 -10   5  -4    1.80    1.50
  10  -5  -4    2.50    1.20
  10  -5  -4    1.40    1.20
  10   5   4   -2.40    1.20
   0  -6   4  278.17    5.30
   0  -6  -4  282.37    4.80
   0   6  -4  270.87    5.20
   0   6  -4  268.17    5.30
   0   6   4  274.47    5.20
   0  -6  -4  285.67    4.50
   0   6   4  275.57    4.80
   0  -6  -4  279.27    5.60
   0   6  -4  277.67    5.10
   0  -6  -4  281.57    5.30
   0  -6   4  270.67    5.20
   0  -6   4  276.27    5.80
   0   6  -4  275.87    5.70
   0  -6  -4  275.77    5.10
  -1  -6  -4  860.81   13.00
   1   6  -4  852.41   13.60
  -1  -6  -4  848.72   12.30
   1   6  -4  836.92   13.50
   1  -6   4  855.71   14.10
   1  -6   4  848.72   13.40
  -1  -6  -4  844.62   13.60
  -1   6   4  816.42   12.80
  -1  -6  -4  849.91   13.10
   1  -6   4  860.21   13.70
   1   6  -4  861.81   14.00
  -1   6   4  838.22   13.10
   1   6  -4  846.32   13.10
   1  -6   4  855.01   12.80
  -1   6  -4  838.82   14.00
   1   6   4  847.62   12.90
  -1  -6   4  846.82   14.10
   1  -6  -4  876.31   12.60
   1   6   4  863.41   13.40
   1  -6  -4  835.42   13.40
  -1   6  -4  860.41   13.40
  -1  -6   4  837.42   13.50
   1  -6  -4  851.91   12.90
  -1   6  -4  842.62   13.40
   1  -6  -4  865.21   13.20
   1  -6  -4  830.92   13.60
  -1  -6   4  844.52   13.20
   2   6  -4   33.20    1.80
  -2   6   4   34.60    1.30
   2   6  -4   33.90    1.60
   2   6  -4   30.90    1.60
  -2  -6  -4   33.80    0.80
   2  -6   4   34.00    1.70
   2  -6   4   34.10    1.70
  -2  -6  -4   34.20    1.30
   2   6  -4   33.10    1.40
   2  -6   4   34.60    1.30
  -2  -6  -4   35.00    1.40
  -2  -6  -4   34.30    1.60
  -2   6   4   34.10    1.30
   2  -6   4   34.80    1.50
   2  -6  -4   31.50    1.50
  -2   6  -4   34.30    1.40
   2  -6  -4   35.40    1.30
  -2  -6   4   35.50    1.30
   2  -6  -4   35.00    1.20
  -2  -6   4   34.50    1.80
   2   6   4   33.30    1.50
  -2   6  -4   32.60    1.80
   2  -6  -4   33.60    1.30
   2   6   4   33.80    1.40
   2  -6  -4   34.40    1.60
   2  -6  -4   35.10    1.70
  -2   6  -4   33.80    1.50
  -2  -6   4   31.90    1.50
   2   6   4   34.30    1.50
   2  -6  -4   34.60    1.00
   3   6  -4   16.20    1.40
  -3   6   4   17.20    1.00
  -3  -6  -4   16.80    0.90
   3   6  -4   19.10    1.50
   3  -6   4   17.70    1.10
   3  -6   4   15.60    1.30
   3  -6   4   17.50    1.10
  -3  -6  -4   17.10    0.70
   3  -6   4   20.70    1.50
  -3   6   4   17.20    0.90
   3   6  -4   18.40    1.20
   3   6  -4   16.00    1.30
   3  -6   4   17.30    1.10
  -3  -6  -4   14.30    1.30
   3  -6  -4   17.30    0.90
   3   6   4   14.70    1.20
   3  -6  -4   15.50    1.20
   3  -6  -4   18.50    1.10
   3  -6  -4   15.70    1.10
  -3   6  -4   17.30    1.30
   3   6   4   16.70    1.20
   3   6   4   17.10    1.20
  -3   6  -4   17.20    1.60
  -3  -6   4   17.80    0.90
  -3  -6   4   16.20    1.50
   3   6   4   17.00    1.10
  -3  -6   4   17.40    1.20
   3  -6  -4   17.50    1.30
   3  -6  -4   17.40    1.30
   3   6   4   16.50    0.90
   4  -6   4   58.79    2.10
  -4  -6  -4   60.29    2.40
   4  -6   4   58.29    2.00
  -4  -6  -4   63.49    1.70
   4   6  -4   61.79    2.10
   4   6  -4   64.89    2.60
   4   6  -4   61.99    2.50
  -4   6   4   62.89    2.10
   4  -6   4   61.49    2.60
  -4  -6  -4   63.09    1.70
   4  -6   4   61.09    2.20
  -4   6   4   61.29    1.50
   4   6  -4   61.29    2.60
   4   6  -4   58.29    2.10
   4  -6  -4   64.69    2.10
  -4  -6   4   65.29    2.60
  -4   6  -4   59.79    2.70
  -4  -6   4   61.29    2.20
   4   6   4   60.99    1.80
   4   6   4   63.09    2.50
   4  -6  -4   62.19    2.40
   4   6   4   61.39    2.20
   4   6   4   57.39    2.20
   4   6   4   61.09    2.20
   4  -6  -4   59.79    2.40
  -4   6  -4   58.19    2.30
  -4  -6   4   60.39    1.70
   5   6  -4   42.20    1.90
   5   6  -4   41.10    2.30
   5  -6   4   43.80    2.00
   5   6  -4   46.30    2.30
  -5  -6  -4   43.00    1.70
   5  -6   4   42.20    2.00
  -5  -6  -4   40.50    2.20
   5  -6   4   38.50    1.70
   5   6  -4   40.40    1.90
   5   6  -4   44.20    2.30
   5  -6   4   40.40    2.40
   5   6   4   41.10    2.00
   5   6   4   43.60    1.70
   5   6   4   42.70    2.30
  -5   6  -4   41.90    2.50
   5  -6  -4   44.30    2.20
  -5   6  -4   40.90    2.10
   5  -6  -4   43.30    2.10
   5  -6  -4   42.40    1.90
  -5  -6   4   44.00    2.30
   5   6   4   42.50    2.10
   5   6   4   46.40    2.00
  -5  -6   4   42.80    2.00
  -6  -6  -4   72.49    3.00
   6   6  -4   72.89    3.10
   6   6  -4   70.49    2.80
   6   6  -4   69.09    3.20
   6  -6   4   73.49    2.40
   6  -6   4   66.99    2.70
   6  -6   4   73.09    2.80
   6  -6   4   63.09    3.10
   6   6  -4   71.39    2.60
   6   6  -4   69.19    3.10
   6   6  -4   70.19    2.40
   6   6   4   69.29    2.40
   6   6   4   72.79    2.60
   6   6   4   71.99    2.90
   6  -6  -4   75.19    2.80
   6  -6  -4   70.99    2.60
   6  -6  -4   77.59    3.10
  -6   6  -4   64.79    2.90
   6  -6  -4   68.89    3.00
  -6   6  -4   72.89    3.40
   6   6   4   71.99    3.10
   6   6   4   72.59    2.60
  -6  -6   4   68.79    2.90
   7  -6   4    1.70    1.00
   7   6  -4    0.10    0.80
   7  -6   4    1.10    0.90
   7   6  -4    0.90    0.60
   7   6  -4   -0.30    0.80
   7   6  -4    0.90    1.00
  -7  -6  -4    0.90    0.90
   7   6  -4    1.30    0.80
   7  -6   4    1.00    0.80
   7   6  -4    0.80    0.90
   7   6   4   -0.10    0.80
   7   6   4    0.60    0.70
   7   6   4    0.60    0.80
   7  -6  -4   -0.40    0.70
   7  -6  -4    0.20    0.80
   7  -6  -4   -0.20    0.90
   7  -6  -4    1.10    0.80
  -7   6  -4   -1.90    0.90
   7   6   4   -0.30    0.60
  -7   6  -4    0.00    0.90
   7   6   4    1.20    0.90
  -7  -6   4    0.50    0.80
   7  -6  -4    0.10    0.70
   8   6  -4    3.90    1.10
   8   6  -4    4.90    1.40
   8  -6   4    3.50    1.10
   8   6  -4    3.10    1.20
   8   6  -4    4.10    1.30
  -8  -6  -4    4.00    1.20
   8  -6   4    3.80    1.30
   8   6  -4    3.40    1.40
   8  -6   4    2.70    1.00
   8  -6  -4    2.00    1.10
   8  -6  -4    3.70    1.10
   8   6   4    2.90    1.00
   8   6   4    2.70    0.90
   8  -6  -4    1.70    1.10
   8  -6  -4    1.10    0.90
  -8   6  -4    1.50    1.30
   8   6   4    3.00    1.30
  -8   6  -4    2.70    1.30
   8  -6  -4    5.60    1.40
   9  -6   4   58.19    3.50
   9   6  -4   55.49    3.30
   9   6  -4   60.09    3.40
   9  -6   4   55.49    3.20
   9   6  -4   54.39    2.90
   9  -6   4   56.49    3.20
   9   6  -4   58.19    3.40
  -9  -6  -4   56.69    3.00
   9  -6  -4   54.39    3.10
  -9   6  -4   54.39    3.60
  -9   6  -4   51.39    3.50
   9  -6  -4   60.69    3.10
   9  -6  -4   55.49    3.30
   9   6   4   53.79    2.80
   9  -6  -4   52.79    3.30
   9   6   4   49.30    3.30
  10   6  -4    8.40    1.70
  10  -6   4    7.50    1.70
  10   6  -4    9.70    1.70
  10  -6   4   11.50    2.10
  10  -6   4    5.90    1.60
  10   6  -4    9.20    1.90
  10   6  -4    7.10    1.70
  10  -6  -4   11.20    1.90
  10  -6  -4    8.30    1.90
 -10   6  -4    9.30    2.20
  10  -6  -4    7.40    1.60
  10  -6  -4    8.30    1.80
  10   6   4    8.50    1.60
   0  -7  -4    0.90    0.50
   0  -7  -4    0.50    0.50
   0   7   4    0.50    0.40
   0  -7  -4    0.80    0.60
   0   7  -4    0.90    0.50
   0   7  -4    0.80    0.70
   0  -7   4    1.30    0.70
   0  -7   4    0.40    0.50
   0  -7  -4    0.10    0.20
   0   7  -4    0.80    0.60
   0   7   4    0.50    0.40
   0  -7   4    0.70    0.50
   0  -7  -4    0.70    0.40
   0   7  -4    0.40    0.40
   1   7  -4   71.29    2.60
   1  -7   4   71.09    2.50
   1  -7   4   71.19    2.70
   1   7  -4   66.59    2.30
  -1  -7  -4   70.79    2.00
   1  -7   4   72.49    1.90
   1   7  -4   69.39    2.30
  -1   7   4   72.39    1.90
  -1  -7  -4   68.99    2.40
   1  -7   4   71.69    2.30
  -1   7   4   72.19    2.10
   1   7  -4   69.29    2.00
  -1  -7  -4   67.59    2.00
  -1  -7  -4   66.49    2.40
  -1   7  -4   71.39    2.20
   1  -7  -4   71.59    2.20
   1  -7  -4   72.19    2.30
  -1  -7   4   76.89    2.80
  -1   7  -4   67.69    2.60
   1   7   4   74.39    2.00
  -1   7  -4   69.99    2.20
   1  -7  -4   69.09    1.50
   1  -7  -4   74.79    2.00
  -1  -7   4   72.19    2.20
   1  -7  -4   70.69    2.40
   2  -7   4  857.31   13.80
  -2  -7  -4  847.82   14.20
   2   7  -4  845.52   14.10
   2   7  -4  863.71   14.10
  -2   7   4  855.01   13.30
  -2  -7  -4  848.82   13.40
   2  -7   4  853.91   14.30
   2   7  -4  867.11   13.40
  -2  -7  -4  876.81   13.70
   2   7  -4  854.61   13.30
  -2   7   4  871.31   13.40
   2  -7   4  886.41   13.40
   2   7  -4  840.32   14.40
   2  -7   4  852.01   14.40
  -2  -7   4  860.91   14.60
   2   7   4  864.91   13.60
   2  -7  -4  870.71   13.50
  -2   7  -4  875.81   13.50
  -2   7  -4  850.91   14.50
   2  -7  -4  869.01   14.00
   2  -7  -4  837.52   14.10
   2   7   4  868.21   13.80
   2  -7  -4  847.42   14.20
  -2   7  -4  847.72   13.70
  -2  -7   4  873.91   13.60
   2  -7  -4  877.11   12.90
   2   7   4  850.21   13.90
  -2  -7   4  854.21   13.90
   2  -7  -4  853.31   13.40
  -3  -7  -4  678.93   11.80
  -3  -7  -4  678.53   10.60
   3   7  -4  670.83   11.90
   3   7  -4  662.83   11.70
   3  -7   4  680.13   11.00
   3  -7   4  663.43   11.90
  -3   7   4  658.83   10.50
   3  -7   4  679.83   11.00
  -3   7   4  688.73   11.00
   3   7  -4  662.23   10.80
   3   7  -4  670.83   11.60
   3  -7   4  657.93   11.70
   3  -7   4  670.63   11.10
  -3  -7   4  675.73   10.70
   3  -7  -4  654.43   11.50
   3   7   4  663.63   11.10
   3  -7  -4  687.13   10.60
   3  -7  -4  650.83   11.60
  -3  -7   4  661.03   11.40
   3   7   4  658.53   11.40
  -3   7  -4  655.93   10.80
  -3  -7   4  674.23   12.10
  -3   7  -4  663.13   11.30
   3   7   4  672.53   11.50
   3  -7  -4  681.53   10.60
  -3   7  -4  665.33   12.10
   3   7   4  666.73   11.40
   3  -7  -4  679.83   11.50
   4   7  -4  472.45    8.10
   4   7  -4  459.75    9.10
  -4   7   4  468.85    7.70
   4   7  -4  450.65    8.90
   4  -7   4  463.65    9.30
   4  -7   4  465.15    8.40
   4   7  -4  456.65    9.20
  -4  -7  -4  466.75    7.70
   4  -7   4  467.05    8.30
   4  -7   4  482.05    8.40
  -4  -7  -4  467.05    9.10
  -4   7  -4  460.55    8.70
  -4   7  -4  471.55    9.40
   4  -7  -4  463.95    8.90
   4   7   4  458.15    7.70
  -4  -7   4  464.65    8.60
   4  -7  -4  466.45    8.80
  -4  -7   4  444.36    9.10
   4   7   4  477.85    8.80
   4   7   4  471.15    8.60
   4   7   4  464.05    8.90
   4  -7  -4  463.65    8.80
   4   7   4  473.35    8.60
   4  -7  -4  472.75    8.00
  -4  -7   4  469.65    7.80
   5   7  -4  142.89    4.40
   5  -7   4  144.29    3.90
   5   7  -4  150.18    4.40
   5  -7   4  151.08    3.90
   5   7  -4  154.58    3.70
   5  -7   4  147.19    3.70
   5  -7   4  145.19    4.60
  -5  -7  -4  150.28    4.40
   5   7  -4  144.89    4.50
   5  -7  -4  140.19    4.10
  -5  -7   4  136.69    3.90
   5  -7  -4  152.28    3.70
   5   7   4  153.38    4.20
   5   7   4  141.29    3.40
   5   7   4  149.59    4.40
  -5   7  -4  139.49    4.10
  -5  -7   4  145.99    4.40
   5  -7  -4  146.19    4.10
  -5   7  -4  145.09    4.60
   5   7   4  143.19    4.00
   5  -7  -4  143.29    4.20
   5   7   4  140.19    3.90
  -6  -7  -4    4.30    1.20
   6   7  -4    5.60    1.00
   6   7  -4    4.90    1.20
   6   7  -4    6.30    1.10
   6   7  -4    6.70    1.30
   6  -7   4    6.70    1.10
   6  -7   4    5.40    1.00
   6   7  -4    6.50    1.40
   6   7  -4    5.20    1.10
   6  -7   4    7.50    1.00
   6  -7   4    6.00    1.30
  -6  -7   4    4.60    1.10
  -6   7  -4    6.80    1.50
   6  -7  -4    6.20    1.20
   6   7   4    5.00    1.00
   6  -7  -4    5.10    1.20
   6   7   4    6.50    1.30
  -6   7  -4    6.40    1.30
   6   7   4    6.80    1.40
   6  -7  -4    6.80    1.10
  -6  -7   4    8.10    1.40
   6   7   4    7.30    1.20
   6  -7  -4    4.60    1.10
   6  -7  -4    6.30    1.20
   6   7   4    7.80    1.00
   7   7  -4   20.50    1.60
   7   7  -4   16.70    1.90
  -7  -7  -4   17.90    1.90
   7   7  -4   21.30    2.20
   7  -7   4   16.80    1.80
   7  -7   4   16.20    1.80
   7   7  -4   18.20    2.00
   7   7  -4   19.70    1.60
   7   7  -4   20.30    1.90
   7  -7   4   21.70    2.30
   7   7   4   17.30    2.00
  -7   7  -4   17.50    2.10
   7  -7  -4   16.40    1.80
   7   7   4   14.40    1.60
   7  -7  -4   20.20    1.90
  -7   7  -4   16.80    1.90
   7   7   4   18.10    1.60
   7  -7  -4   18.40    1.90
   7   7   4   18.40    1.40
   7  -7  -4   20.40    1.70
   7  -7  -4   19.30    1.90
  -7  -7   4   19.00    1.90
   8  -7   4   84.69    3.60
  -8  -7  -4   84.59    3.70
   8  -7   4   84.49    4.00
   8   7  -4   86.89    3.60
   8   7  -4   84.79    3.20
   8   7  -4   76.89    3.70
   8  -7   4   85.59    3.60
   8   7  -4   86.59    3.80
   8   7  -4   84.69    4.10
   8   7   4   80.99    3.80
   8  -7  -4   85.69    3.80
   8  -7  -4   87.19    3.60
  -8   7  -4   83.09    4.20
   8  -7  -4   82.29    3.40
  -8   7  -4   90.49    4.10
   8  -7  -4   80.29    3.40
   8  -7  -4   84.49    3.80
   8   7   4   81.79    3.00
   8   7   4   81.99    3.20
   9   7  -4    9.90    1.90
  -9  -7  -4   11.00    1.80
   9  -7   4   10.00    1.70
   9  -7   4    6.80    1.60
   9   7  -4    8.60    1.80
   9  -7   4   10.70    2.00
   9   7  -4   10.70    1.60
   9   7  -4    7.70    1.80
  -9   7  -4    8.50    2.00
   9   7   4    7.30    1.80
   9  -7  -4    9.20    1.80
   9  -7  -4    8.60    1.60
   9  -7  -4    8.00    1.60
   9  -7  -4    8.40    1.70
  10  -7   4    4.60    1.60
  10   7  -4    3.00    1.50
  10  -7   4    5.60    1.50
  10  -7   4    1.90    1.60
  10   7  -4    1.80    1.60
  10   7  -4    7.20    1.80
  10   7  -4    6.60    1.40
  10  -7  -4    4.00    1.40
  10  -7  -4    3.90    1.40
  10  -7  -4    6.00    2.60
  10  -7  -4    1.00    1.30
   0  -8   4  104.39    3.50
   0   8   4  105.89    2.80
   0   8  -4  104.29    3.40
   0   8  -4  105.79    3.00
   0   8  -4  107.79    2.70
   0  -8  -4  103.59    3.20
   0   8  -4  104.79    2.90
   0  -8  -4  104.89    2.90
   0  -8  -4  106.29    3.10
   0  -8   4  100.09    2.90
   0  -8   4  107.29    3.10
   0   8   4  102.49    2.60
   1  -8   4  353.26    7.10
   1  -8   4  352.56    6.80
   1  -8   4  353.46    7.40
  -1   8   4  345.97    6.50
   1  -8   4  361.96    6.30
   1   8  -4  352.56    6.70
   1   8  -4  357.36    7.00
  -1  -8  -4  353.86    7.20
  -1   8   4  367.66    6.40
  -1  -8  -4  346.87    7.00
  -1  -8  -4  342.47    6.50
   1   8  -4  361.16    7.40
   1   8  -4  356.56    6.30
  -1  -8   4  374.06    6.90
   1   8   4  373.16    6.90
  -1   8  -4  358.76    6.50
   1  -8  -4  359.76    7.20
   1  -8  -4  348.77    6.70
  -1  -8   4  363.56    7.00
  -1   8  -4  352.96    6.50
  -1  -8   4  362.06    7.60
   1   8   4  353.76    6.40
   1  -8  -4  353.86    6.80
  -1   8  -4  357.16    7.40
   2   8  -4   19.30    1.10
   2  -8   4   19.80    1.60
  -2   8   4   17.90    1.10
  -2   8   4   19.60    1.20
   2   8  -4   20.40    1.50
   2   8  -4   23.40    1.20
   2  -8   4   19.10    1.30
  -2  -8  -4   15.80    1.40
   2   8  -4   19.70    1.50
   2  -8   4   19.00    1.50
  -2  -8  -4   20.20    1.30
   2   8  -4   17.60    1.60
   2  -8   4   18.10    1.10
   2   8   4   18.10    1.30
  -2  -8   4   20.40    1.70
   2  -8  -4   16.20    1.50
   2   8   4   19.60    1.40
   2  -8  -4   20.00    0.90
  -2   8  -4   18.30    1.20
  -2  -8   4   17.80    1.30
   2  -8  -4   18.10    1.30
  -2   8  -4   18.10    1.30
  -2  -8   4   17.30    1.40
  -2   8  -4   18.90    1.70
   2  -8  -4   17.10    1.30
   2  -8  -4   17.00    1.40
   2   8   4   18.60    1.30
   3   8  -4  380.96    6.70
   3   8  -4  378.86    7.70
   3  -8   4  374.16    7.90
  -3  -8  -4  379.76    6.70
   3   8  -4  378.96    6.60
   3   8  -4  378.56    7.90
  -3  -8  -4  368.56    7.70
   3  -8   4  359.86    7.10
   3   8  -4  364.26    7.40
  -3   8   4  389.56    6.60
   3  -8   4  377.36    7.70
   3  -8   4  376.46    7.00
  -3   8  -4  383.86    8.10
   3  -8  -4  367.56    7.60
   3   8   4  383.36    7.40
  -3  -8   4  389.06    6.90
  -3  -8   4  377.26    8.00
  -3   8  -4  385.46    7.30
   3  -8  -4  390.06    6.50
   3   8   4  376.26    7.20
   3  -8  -4  369.66    7.40
  -3  -8   4  381.96    7.50
   3  -8  -4  368.86    7.60
  -3   8  -4  376.76    6.60
   3  -8  -4  383.86    6.70
   3   8   4  384.96    7.40
   4   8  -4  186.08    5.00
   4   8  -4  190.88    4.90
   4  -8   4  196.28    4.50
   4  -8   4  185.08    5.20
   4  -8   4  198.48    4.40
   4   8  -4  197.58    4.10
  -4  -8  -4  186.98    5.00
   4   8  -4  191.38    5.30
   4  -8   4  185.98    4.50
  -4  -8  -4  190.18    4.00
   4  -8  -4  187.68    4.80
  -4   8  -4  192.88    5.40
   4   8   4  192.18    4.70
   4  -8  -4  186.68    4.90
   4   8   4  186.58    4.80
  -4  -8   4  190.98    4.10
  -4  -8   4  190.18    4.70
  -4  -8   4  189.48    5.30
   4  -8  -4  193.18    4.10
  -4   8  -4  186.68    4.70
   4   8   4  190.08    4.70
   4  -8  -4  196.08    5.00
   4   8   4  195.38    4.90
   5  -8   4   89.29    3.60
   5   8  -4   90.49    2.70
   5   8  -4   90.49    3.50
   5  -8   4   93.59    3.10
   5   8  -4   93.79    3.50
  -5  -8  -4   88.79    3.50
   5  -8   4   92.49    2.90
   5  -8   4   90.99    3.00
   5   8  -4   89.39    3.60
   5  -8  -4   92.49    3.30
  -5  -8   4   90.99    3.60
   5   8   4   83.69    3.10
   5  -8  -4   85.79    3.30
  -5  -8   4   90.99    3.20
   5   8   4   87.59    3.40
   5  -8  -4   91.69    2.80
  -5   8  -4   94.99    3.30
   5  -8  -4   85.79    3.20
  -5   8  -4   83.99    3.70
   5   8   4   96.59    3.20
   6  -8   4  306.27    7.70
   6   8  -4  314.67    7.50
   6   8  -4  315.67    7.50
   6  -8   4  315.67    6.80
   6  -8   4  313.87    6.50
   6   8  -4  301.97    6.50
   6   8  -4  308.57    6.30
   6   8  -4  318.27    7.70
  -6  -8  -4  311.87    7.40
   6  -8   4  306.17    6.90
   6   8   4  308.57    6.80
   6  -8  -4  308.17    6.40
  -6   8  -4  307.47    7.20
   6  -8  -4  309.47    7.40
   6   8   4  309.97    7.40
   6  -8  -4  291.87    7.20
   6  -8  -4  318.37    7.20
  -6  -8   4  306.47    6.80
  -6   8  -4  311.27    7.90
   6  -8  -4  320.07    7.20
  -6  -8   4  310.37    7.50
   6   8   4  308.57    7.00
   7  -8   4    5.00    1.20
  -7  -8  -4    3.70    1.30
   7  -8   4    5.90    1.30
   7   8  -4    4.70    1.40
   7   8  -4    6.20    1.50
   7  -8   4    2.90    1.30
   7   8  -4    4.30    1.00
   7  -8   4    6.70    1.80
   7   8  -4    4.80    1.40
   7   8  -4    5.80    1.00
   7  -8  -4    4.00    1.30
   7   8   4    3.90    1.10
   7   8   4    6.10    1.20
  -7   8  -4    5.30    1.40
   7  -8  -4    4.40    1.30
   7  -8  -4    5.90    1.20
   7  -8  -4    5.90    1.40
  -7   8  -4    5.60    1.50
  -7  -8   4    5.20    1.30
   7   8   4    8.70    1.60
   7  -8  -4    3.90    1.30
   8   8  -4   41.60    2.30
  -8  -8  -4   40.70    2.80
   8   8  -4   41.00    3.20
   8   8  -4   37.40    2.80
   8  -8   4   47.80    2.80
   8   8  -4   44.00    3.00
   8  -8   4   37.60    2.50
   8  -8   4   38.70    3.00
  -8   8  -4   44.50    3.30
   8   8   4   40.90    2.50
   8  -8  -4   44.80    2.80
   8  -8  -4   39.80    2.60
  -8   8  -4   43.30    3.20
   8  -8  -4   41.40    2.50
   8  -8  -4   37.90    2.90
   8  -8  -4   42.20    2.90
   8   8   4   45.20    3.20
  -9  -8  -4  198.88    6.30
   9   8  -4  215.28    5.90
   9  -8   4  209.78    6.10
   9   8  -4  208.38    6.70
   9  -8   4  204.88    6.20
   9   8  -4  197.28    6.50
   9  -8   4  210.78    6.90
  -9   8  -4  211.98    6.90
   9   8   4  210.28    6.80
   9  -8  -4  209.88    5.90
   9  -8  -4  204.58    6.50
   9  -8  -4  209.68    6.50
   9  -8  -4  220.48    6.20
  10  -8   4   10.40    2.00
  10   8  -4   10.10    2.10
  10  -8  -4   10.60    1.80
  10  -8  -4   10.40    1.80
  10  -8  -4    5.80    1.90
   0   9  -4  279.37    6.00
   0   9  -4  274.47    6.40
   0   9  -4  283.77    5.50
   0  -9   4  276.67    5.90
   0  -9  -4  275.67    6.20
   0   9   4  269.37    5.60
   0   9  -4  277.07    5.30
   0  -9  -4  270.07    5.90
   0  -9   4  277.97    6.50
   0  -9  -4  276.97    5.70
   0  -9   4  270.57    6.00
   1   9  -4  286.57    5.80
   1  -9   4  284.67    5.40
   1   9  -4  283.77    6.20
   1  -9   4  285.37    6.30
   1   9  -4  277.87    6.50
   1  -9   4  277.07    6.50
  -1   9   4  282.67    5.60
  -1  -9  -4  276.97    6.20
  -1  -9  -4  278.07    5.70
  -1  -9  -4  273.37    6.30
   1  -9   4  282.87    6.00
   1   9  -4  289.17    5.20
  -1  -9   4  273.57    6.60
   1   9   4  285.07    5.90
  -1   9  -4  278.47    5.50
  -1   9  -4  270.67    6.50
  -1  -9   4  295.87    6.00
  -1  -9   4  285.17    6.00
   1  -9  -4  275.37    6.20
  -1   9  -4  277.47    5.40
   1  -9  -4  280.37    5.90
   1  -9  -4  268.77    5.80
  -2   9   4  589.64    9.80
   2   9  -4  561.14   10.20
   2  -9   4  572.04   10.90
   2   9  -4  589.64    9.40
  -2  -9  -4  591.04    9.90
  -2  -9  -4  557.84   10.70
   2   9  -4  574.44   11.00
  -2  -9  -4  569.14   10.70
   2  -9   4  561.04   10.20
   2   9  -4  584.94    9.40
   2   9  -4  570.94   10.60
   2  -9   4  594.34    9.80
   2  -9   4  561.04   10.80
   2   9   4  580.34   10.00
  -2   9  -4  574.54    9.90
   2  -9  -4  578.84   10.70
  -2  -9   4  571.74   10.40
   2  -9  -4  575.44   10.70
   2   9   4  575.74   10.30
  -2  -9   4  563.04   11.10
  -2  -9   4  584.04   10.10
  -2   9  -4  583.94    9.40
   2  -9  -4  585.44   10.00
  -2   9  -4  565.84   11.00
   2  -9  -4  589.14   10.40
  -3  -9  -4   44.20    2.40
   3  -9   4   36.90    2.20
   3  -9   4   41.80    2.00
  -3   9   4   40.00    1.60
  -3  -9  -4   37.40    2.20
   3   9  -4   40.20    1.60
   3   9  -4   41.60    2.50
   3   9  -4   40.00    2.20
   3   9  -4   40.70    1.60
   3   9  -4   39.80    2.20
   3  -9   4   39.30    1.80
  -3  -9  -4   38.20    1.70
   3  -9   4   41.00    2.40
  -3  -9   4   41.20    2.10
   3   9   4   36.50    1.90
   3  -9  -4   42.50    2.30
   3  -9  -4   41.20    2.20
  -3  -9   4   38.70    2.40
  -3  -9   4   41.30    1.80
   3  -9  -4   40.70    1.80
  -3   9  -4   37.50    2.40
   3   9   4   40.00    2.00
   3  -9  -4   41.10    2.20
  -3   9  -4   40.50    2.00
   4   9  -4   39.80    2.30
  -4  -9  -4   37.50    2.30
   4   9  -4   43.50    2.60
   4  -9   4   45.60    2.10
  -4  -9  -4   42.20    1.80
   4   9  -4   41.30    1.70
   4   9  -4   45.80    2.30
   4  -9   4   45.00    2.50
   4  -9   4   46.40    2.40
   4  -9   4   42.50    1.90
   4  -9   4   41.70    2.00
   4  -9  -4   41.30    1.90
  -4  -9   4   41.90    1.80
  -4  -9   4   39.60    2.10
  -4   9  -4   43.80    2.20
   4  -9  -4   44.00    2.40
   4   9   4   39.40    2.20
  -4  -9   4   43.10    2.60
   4  -9  -4   46.40    2.40
   4  -9  -4   43.30    2.40
   4   9   4   38.50    2.20
  -4   9  -4   38.10    2.60
   4   9   4   43.70    2.20
   5   9  -4   82.89    3.40
   5   9  -4   77.29    3.30
   5  -9   4   80.69    2.90
   5  -9   4   79.29    2.90
   5  -9   4   75.89    3.40
   5   9  -4   75.39    3.50
   5  -9   4   77.69    2.80
   5   9  -4   82.29    2.50
  -5  -9  -4   76.19    3.30
  -5  -9   4   76.89    3.50
   5   9   4   80.69    3.10
   5  -9  -4   73.79    3.20
   5   9   4   77.89    3.10
  -5   9  -4   82.59    3.70
  -5   9  -4   79.79    3.20
   5   9   4   76.69    3.20
   5  -9  -4   76.29    3.30
   5  -9  -4   78.79    3.20
   5  -9  -4   83.09    2.60
  -5  -9   4   78.69    3.00
   6  -9   4   18.40    2.20
   6  -9   4   14.50    1.50
   6  -9   4   19.00    1.70
   6  -9   4   16.40    1.70
   6   9  -4   15.40    1.90
   6   9  -4   16.40    2.00
  -6  -9  -4   16.00    2.00
   6   9  -4   14.60    1.60
   6   9  -4   19.40    2.20
   6   9   4   15.90    1.70
   6  -9  -4   17.60    1.90
  -6   9  -4   16.50    2.10
   6  -9  -4   13.70    1.80
   6   9   4   21.50    1.90
   6  -9  -4   13.90    1.80
   6  -9  -4   17.70    1.60
  -6   9  -4   15.20    1.90
  -6  -9   4   15.80    1.70
  -6  -9   4   16.90    2.10
   6   9   4   19.20    2.10
   7  -9   4   62.19    3.50
   7  -9   4   54.49    2.80
   7   9  -4   52.19    2.50
   7   9  -4   50.19    3.10
   7   9  -4   52.89    3.30
   7  -9   4   56.29    2.60
  -7  -9  -4   50.79    3.10
   7  -9   4   55.99    2.70
   7   9  -4   54.69    3.20
   7  -9  -4   50.69    2.50
   7  -9  -4   55.89    3.10
   7   9   4   48.70    2.70
  -7   9  -4   52.49    3.50
  -7   9  -4   52.89    3.10
   7  -9  -4   49.40    3.00
   7  -9  -4   51.29    2.90
   7   9   4   48.50    2.70
   7   9   4   55.99    3.20
  -7  -9   4   56.59    3.20
   7  -9  -4   52.69    2.90
   8  -9   4   20.50    2.20
   8   9  -4   23.60    2.50
  -8  -9  -4   21.90    2.40
   8   9  -4   17.90    2.20
   8  -9   4   23.30    2.20
   8  -9   4   18.70    2.40
  -8   9  -4   23.00    2.60
   8  -9  -4   22.30    2.50
   8  -9  -4   23.70    2.40
   8   9   4   25.20    2.10
   8   9   4   21.90    2.60
  -8   9  -4   18.60    2.40
   8  -9  -4   25.00    2.20
   8  -9  -4   27.60    2.50
   9  -9   4   41.50    3.40
   9   9  -4   39.70    3.10
   9   9  -4   42.50    3.20
   9  -9   4   45.00    2.90
  -9  -9  -4   48.00    3.30
   9  -9   4   44.80    3.00
   9  -9  -4   56.89    3.50
   9   9   4   49.99    3.50
   9  -9  -4   46.80    3.20
   9  -9  -4   42.60    2.90
   9  -9  -4   48.20    2.90
  -9   9  -4   46.40    3.50
   0 -10   4   83.49    3.40
   0 -10  -4   80.49    2.80
   0 -10  -4   82.59    3.20
   0  10  -4   87.59    2.40
   0 -10  -4   84.49    3.10
   0 -10   4   84.19    2.50
   0 -10   4   84.19    3.10
   0  10  -4   86.99    2.60
   0  10   4   86.39    2.80
   0  10  -4   84.99    3.40
   0 -10   4   89.69    3.10
   1  10  -4  170.38    5.00
  -1 -10  -4  162.38    4.60
   1 -10   4  169.38    3.90
   1  10  -4  172.38    3.70
   1 -10   4  163.28    4.60
   1 -10   4  171.28    4.40
  -1 -10  -4  164.48    4.70
  -1  10   4  171.68    4.10
   1  10  -4  165.58    4.10
   1 -10   4  166.58    4.90
  -1 -10  -4  169.88    4.20
   1  10  -4  172.48    4.60
   1 -10  -4  166.38    4.40
   1  10   4  169.58    4.30
   1 -10  -4  164.68    4.30
  -1  10  -4  170.68    5.00
  -1  10  -4  165.88    3.70
   1 -10  -4  164.98    4.70
  -1 -10   4  167.38    4.40
  -1 -10   4  162.98    4.40
  -1  10  -4  164.98    3.80
  -1 -10   4  163.58    5.00
  -2 -10  -4  172.38    4.90
  -2 -10  -4  174.08    4.90
  -2  10   4  185.18    4.20
   2  10  -4  176.68    4.90
   2 -10   4  177.18    5.00
   2 -10   4  184.78    4.20
   2  10  -4  180.68    5.20
   2 -10   4  175.68    5.00
   2  10  -4  171.58    4.40
  -2 -10  -4  174.38    4.20
   2 -10   4  180.98    4.60
   2  10   4  183.88    4.60
  -2 -10   4  175.88    4.70
   2 -10  -4  176.38    4.80
  -2  10  -4  175.88    5.20
  -2 -10   4  178.18    5.30
   2 -10  -4  184.18    5.00
  -2 -10   4  176.48    4.50
  -2  10  -4  179.68    4.20
   2 -10  -4  174.88    4.40
   2 -10  -4  172.58    4.60
   3 -10   4   88.79    3.50
   3 -10   4   90.99    3.40
  -3 -10  -4   84.49    3.50
   3 -10   4   86.49    3.00
   3  10  -4   86.39    3.60
   3 -10   4   89.79    2.80
  -3 -10  -4   84.59    3.30
  -3  10   4   87.79    2.60
  -3 -10  -4   87.99    2.80
   3  10  -4   82.29    3.00
   3  10  -4   84.59    3.30
   3  10   4   93.29    3.20
  -3 -10   4   83.69    3.60
  -3 -10   4   84.39    2.80
  -3  10  -4   92.79    3.70
  -3  10  -4   87.59    2.90
   3  10   4   85.69    3.00
  -3 -10   4   90.39    3.20
   3 -10  -4   92.49    3.30
   3 -10  -4   83.69    3.30
   3 -10  -4   91.29    3.30
   3 -10  -4   89.09    3.40
   4 -10   4  178.38    4.50
   4  10  -4  184.18    5.50
  -4 -10  -4  188.98    5.40
   4  10  -4  179.48    5.20
  -4 -10  -4  179.08    4.20
   4 -10   4  180.48    5.10
   4 -10   4  173.48    5.30
   4 -10   4  184.58    4.70
  -4 -10  -4  169.98    5.00
   4  10  -4  173.48    5.00
  -4  10  -4  187.18    5.60
   4 -10  -4  175.58    5.10
   4  10   4  177.88    4.80
   4 -10  -4  178.98    5.00
   4 -10  -4  179.68    5.20
  -4 -10   4  180.78    4.90
   4  10   4  171.78    4.80
  -4  10  -4  182.68    4.70
  -4 -10   4  176.28    5.50
   5  10  -4  119.59    3.90
   5 -10   4  126.69    3.80
   5  10  -4  121.09    4.40
   5 -10   4  117.29    4.50
   5  10  -4  122.29    4.60
   5 -10   4  125.29    3.60
  -5 -10  -4  119.29    4.40
   5  10  -4  124.69    4.30
   5 -10   4  118.69    3.80
   5  10   4  120.29    4.10
  -5  10  -4  118.39    4.60
   5 -10  -4  120.09    4.10
   5 -10  -4  118.29    4.30
  -5  10  -4  118.49    4.00
   5 -10  -4  118.69    4.30
   5  10   4  116.89    4.10
  -5 -10   4  126.29    4.60
  -5 -10   4  121.39    4.00
   5  10   4  122.49    4.00
   6  10  -4   41.20    2.80
   6 -10   4   44.00    2.30
   6  10  -4   40.90    2.40
   6 -10   4   47.30    2.50
   6  10  -4   41.40    3.10
  -6 -10  -4   43.80    2.90
   6 -10   4   40.30    3.00
   6  10  -4   46.00    2.90
   6 -10   4   45.20    2.40
   6  10   4   43.10    2.60
   6  10   4   43.60    2.60
   6 -10  -4   50.19    2.80
  -6 -10   4   42.50    2.90
   6  10   4   38.50    2.70
  -6  10  -4   43.50    2.70
  -6 -10   4   47.90    2.60
  -6  10  -4   40.20    3.00
   6 -10  -4   46.50    2.80
   6 -10  -4   41.80    2.80
   7 -10   4   25.10    2.20
   7  10  -4   26.40    2.40
   7 -10   4   19.20    2.40
   7  10  -4   24.80    2.50
   7  10  -4   24.40    2.50
  -7 -10  -4   22.60    2.50
   7 -10   4   25.30    2.00
   7 -10   4   25.90    2.00
   7  10  -4   26.20    2.00
   7 -10  -4   23.60    2.40
   7  10   4   22.40    2.10
   7  10   4   26.00    2.10
  -7 -10   4   25.60    2.70
   7  10   4   25.40    2.50
  -7  10  -4   24.60    2.70
   7 -10  -4   27.00    2.60
   7 -10  -4   25.40    2.40
   7 -10  -4   26.20    2.20
  -7  10  -4   23.20    2.40
  -7 -10   4   24.70    2.20
   8 -10   4   18.90    2.20
   8 -10   4   17.50    2.00
   8 -10   4   16.10    2.30
   8  10  -4   21.60    2.50
   8  10  -4   16.30    2.20
  -8 -10  -4   18.60    2.40
  -8  10  -4   20.30    2.60
   8 -10  -4   22.80    2.40
   8 -10  -4   22.10    2.40
   8  10   4   18.40    2.00
   8  10   4   16.20    2.30
  -8 -10   4   12.50    2.80
   8 -10  -4   21.80    2.50
  -9 -10  -4    5.80    1.70
   9  10  -4    8.20    1.90
   9 -10   4    8.40    1.70
   9 -10   4    9.80    1.70
   9 -10   4   13.10    3.40
   9  10   4    7.70    1.80
   9 -10  -4    7.20    1.70
   9 -10  -4    7.60    1.80
   0  11   4   82.79    2.90
   0 -11   4   78.59    2.50
   0 -11   4   77.49    3.00
   0 -11   4   76.59    3.40
   0  11  -4   80.99    3.50
   0  11  -4   79.99    2.50
   0 -11  -4   78.09    3.20
   0 -11  -4   78.99    2.90
   0 -11   4   76.29    3.10
   0 -11  -4   79.29    3.20
  -1 -11  -4    3.90    1.10
   1 -11   4    4.20    1.00
  -1  11   4    4.30    0.90
   1  11  -4    4.90    1.20
   1  11  -4    3.90    0.90
  -1 -11  -4    1.70    1.00
   1 -11   4    3.60    1.20
  -1 -11  -4    4.20    1.00
   1 -11   4    6.00    1.20
   1 -11   4    5.30    0.90
   1  11  -4    3.40    1.00
  -1  11  -4    4.50    1.30
  -1 -11   4    4.00    1.30
   1 -11  -4    5.10    1.20
  -1 -11   4    4.70    1.10
   1 -11  -4    4.10    1.10
   1 -11  -4    3.30    0.90
   1  11   4    6.50    1.10
  -1  11  -4    4.40    0.70
  -1 -11   4    3.90    1.00
  -2 -11  -4   98.39    3.10
  -2 -11  -4   93.19    3.70
  -2  11   4   97.59    3.00
   2 -11   4   97.29    3.00
   2 -11   4  100.99    3.80
  -2 -11  -4  100.69    3.70
   2  11  -4   98.39    3.20
   2 -11   4   88.09    3.50
   2  11  -4   96.99    3.90
   2 -11   4   91.89    3.30
   2  11  -4   92.49    3.60
  -2 -11   4   95.69    3.40
   2 -11  -4   96.49    3.60
  -2 -11   4  101.59    4.00
  -2 -11   4   98.79    3.30
   2  11   4  103.69    3.40
   2 -11  -4   95.09    3.30
   2 -11  -4   95.69    3.60
   2 -11  -4   92.19    3.40
  -2  11  -4   96.39    2.90
  -2  11  -4   92.99    3.90
   3  11  -4   59.39    2.70
  -3 -11  -4   59.39    3.00
   3 -11   4   55.89    2.60
   3  11  -4   62.29    3.00
  -3 -11  -4   56.39    3.00
   3  11  -4   61.39    3.20
   3 -11   4   55.99    3.00
   3 -11   4   67.49    3.10
   3 -11   4   57.29    2.40
  -3 -11  -4   58.99    2.40
  -3  11   4   62.49    2.30
   3 -11  -4   62.89    3.00
  -3 -11   4   63.49    3.30
  -3  11  -4   60.29    3.20
   3  11   4   59.29    2.70
  -3 -11   4   59.89    2.80
   3 -11  -4   58.79    3.00
  -3  11  -4   62.29    2.50
  -3 -11   4   61.59    2.60
   3  11   4   60.29    2.50
   3 -11  -4   57.19    2.80
   4  11  -4   93.69    3.60
  -4 -11  -4   95.79    3.00
   4 -11   4   92.99    3.60
  -4 -11  -4   95.89    3.80
   4 -11   4   89.39    3.90
   4 -11   4   91.59    3.20
   4 -11   4   89.69    3.30
   4  11  -4   93.79    3.90
   4  11  -4   96.39    4.10
  -4 -11  -4   95.39    3.90
   4 -11  -4  100.29    3.80
  -4 -11   4   93.09    4.10
  -4 -11   4   96.69    3.60
  -4  11  -4   94.39    3.30
   4 -11  -4   91.19    3.80
   4  11   4   94.59    3.50
   4 -11  -4   89.89    3.50
   4  11   4   87.19    3.50
  -4  11  -4   97.39    4.20
   5  11  -4   48.50    3.20
   5  11  -4   52.49    2.70
   5 -11   4   51.49    3.10
  -5 -11  -4   50.69    2.90
   5 -11   4   49.90    2.50
   5 -11   4   49.30    2.50
   5  11  -4   49.70    2.90
   5  11  -4   50.99    3.00
  -5 -11  -4   47.80    3.00
  -5 -11   4   45.50    2.60
   5  11   4   49.30    2.60
  -5  11  -4   51.09    3.30
  -5  11  -4   51.29    2.80
   5 -11  -4   56.49    3.10
   5  11   4   49.00    2.80
   5 -11  -4   48.50    2.70
   5 -11  -4   51.19    3.00
  -5 -11   4   50.19    3.20
  -6 -11  -4   25.60    2.30
   6 -11   4   20.50    2.40
  -6 -11  -4   27.90    2.80
   6 -11   4   27.00    2.10
   6 -11   4   26.20    2.00
   6  11  -4   25.20    2.60
   6  11  -4   26.50    2.40
   6  11  -4   27.80    2.30
   6  11  -4   24.80    2.50
   6  11   4   24.30    2.20
  -6  11  -4   22.40    2.30
  -6 -11   4   24.90    2.20
  -6  11  -4   27.00    2.70
  -6 -11   4   24.40    2.60
   6  11   4   24.10    2.40
   6 -11  -4   25.60    2.50
   6 -11  -4   23.50    2.40
   6 -11  -4   28.90    2.60
   7 -11   4   31.80    3.00
   7 -11   4   34.00    2.50
   7  11  -4   34.20    2.70
   7  11  -4   34.30    2.40
   7 -11   4   32.70    2.30
  -7 -11  -4   33.90    3.00
  -7 -11  -4   37.90    2.60
   7  11  -4   32.40    2.70
   7 -11  -4   30.00    2.70
   7 -11  -4   31.40    2.60
   7  11   4   32.40    2.70
  -7  11  -4   36.10    2.90
   7 -11  -4   34.00    2.80
  -7 -11   4   34.60    3.00
   7 -11  -4   29.40    2.80
   7  11   4   34.00    2.50
  -7 -11   4   36.00    2.60
   7  11   4   37.40    2.60
  -8 -11  -4  147.79    5.70
   8  11  -4  149.29    5.70
   8 -11   4  158.18    5.30
   8  11  -4  156.48    5.80
   8 -11   4  157.58    6.10
   8 -11  -4  157.88    5.60
   8  11   4  154.68    5.70
   8 -11  -4  151.58    5.60
   8 -11  -4  160.08    5.40
  -8 -11   4  146.59    5.70
   8  11   4  156.28    5.10
  -8  11  -4  153.58    5.70
   0 -12  -4   23.40    2.00
   0 -12   4   24.30    1.60
   0 -12  -4   24.90    1.90
   0 -12   4   21.50    1.90
   0 -12  -4   26.10    2.20
   0 -12   4   25.10    2.30
   0  12  -4   21.30    2.10
   0 -12   4   23.50    2.00
   0  12   4   25.10    1.80
   1 -12   4   39.60    2.30
   1 -12   4   39.20    2.50
  -1  12   4   40.00    2.10
  -1 -12  -4   40.10    2.20
   1  12  -4   43.60    2.00
  -1 -12  -4   38.90    2.60
  -1 -12  -4   42.50    2.60
   1 -12   4   45.20    2.00
   1 -12   4   44.00    2.80
   1  12  -4   43.40    2.80
  -1 -12   4   42.70    2.40
  -1  12  -4   43.80    2.80
   1 -12  -4   40.20    2.40
   1  12   4   42.10    2.30
  -1 -12   4   45.30    2.90
   1 -12  -4   44.50    2.50
   1 -12  -4   41.50    2.60
  -1 -12   4   42.40    2.40
   2  12  -4    6.20    1.30
   2  12  -4    4.40    1.40
   2  12  -4    5.20    1.10
  -2 -12  -4    3.90    1.30
   2 -12   4    6.00    1.20
  -2  12   4    5.80    1.00
   2 -12   4    3.90    1.30
  -2 -12  -4    6.10    1.40
   2 -12   4    3.00    1.20
   2 -12   4    4.50    0.90
  -2 -12  -4    3.20    1.00
  -2 -12   4    6.00    1.30
   2 -12  -4    6.50    1.30
   2 -12  -4    5.30    1.20
  -2  12  -4    3.60    1.30
  -2 -12   4    5.80    1.10
   2  12   4    5.10    1.20
  -2 -12   4    5.60    1.40
   2 -12  -4    5.70    1.30
   2 -12  -4    5.20    1.20
   3  12  -4   47.30    2.50
   3 -12   4   48.40    2.90
   3  12  -4   41.40    2.70
   3 -12   4   46.00    2.80
   3 -12   4   45.50    2.20
  -3 -12  -4   50.59    2.90
  -3 -12  -4   47.50    2.30
   3 -12   4   45.90    2.50
  -3  12   4   48.60    2.10
  -3 -12  -4   51.59    3.00
   3  12  -4   52.29    3.20
  -3 -12   4   48.60    2.70
   3 -12  -4   43.80    2.60
   3  12   4   51.79    2.70
  -3  12  -4   47.90    2.40
   3 -12  -4   46.80    2.90
   3 -12  -4   49.30    2.80
  -3  12  -4   48.80    3.10
  -3 -12   4   46.90    2.40
  -3 -12   4   47.50    3.20
   4 -12   4   60.29    3.30
  -4 -12  -4   58.69    2.80
  -4 -12  -4   56.99    3.10
   4  12  -4   59.99    3.00
   4 -12   4   57.69    2.60
   4  12  -4   59.19    3.50
   4 -12   4   53.39    2.80
   4 -12   4   57.19    3.00
   4  12  -4   57.29    3.20
   4  12  -4   57.39    2.90
  -4 -12  -4   54.59    3.10
  -4  12  -4   56.39    2.70
  -4  12  -4   57.29    3.50
   4 -12  -4   58.09    3.00
   4 -12  -4   53.79    3.10
  -4 -12   4   64.69    3.10
   4 -12  -4   61.29    3.10
   4  12   4   56.79    2.90
   4  12   4   55.19    2.70
  -4 -12   4   60.09    3.50
   5  12  -4   52.29    3.50
   5  12  -4   52.19    2.90
   5 -12   4   49.90    2.70
  -5 -12  -4   54.09    3.00
   5  12  -4   48.10    3.10
   5 -12   4   47.00    3.30
   5  12  -4   55.29    2.90
   5 -12   4   52.69    2.70
  -5 -12  -4   50.39    3.30
   5 -12  -4   49.70    3.10
   5  12   4   52.69    2.90
  -5 -12   4   50.29    3.40
   5  12   4   51.39    2.80
  -5 -12   4   54.69    2.90
   5 -12  -4   49.90    3.00
   5 -12  -4   45.20    3.00
  -5  12  -4   56.49    3.50
  -5  12  -4   51.49    2.80
  -6 -12  -4   42.60    3.10
  -6 -12  -4   50.49    3.10
   6 -12   4   47.50    3.40
   6 -12   4   45.10    2.60
   6  12  -4   51.99    3.30
   6  12  -4   52.79    3.10
   6 -12   4   53.39    2.80
   6  12  -4   50.09    3.50
   6  12  -4   54.39    2.90
   6  12   4   49.40    3.00
  -6 -12   4   50.79    3.50
   6 -12  -4   52.99    3.20
  -6 -12   4   50.69    3.00
   6 -12  -4   52.49    3.30
   6 -12  -4   53.89    3.30
  -6  12  -4   43.70    2.80
   6  12   4   49.40    2.90
   7 -12   4   60.89    4.00
   7 -12   4   65.29    3.10
  -7 -12  -4   60.89    3.90
   7  12  -4   62.39    3.80
   7  12  -4   58.99    3.10
  -7 -12  -4   65.79    3.50
   7 -12   4   61.69    3.90
   7  12  -4   71.39    3.80
  -7 -12   4   58.79    3.90
   7  12   4   66.29    3.60
   7 -12  -4   68.59    3.60
  -7  12  -4   61.99    3.60
   7 -12  -4   51.09    3.40
  -7 -12   4   70.19    3.40
   7 -12  -4   61.59    3.60
   7 -12  -4   61.69    3.60
   7  12   4   62.19    3.30
   8  12  -4    3.60    1.50
   8 -12  -4    6.20    1.90
   8  12   4    2.00    1.20
  -8 -12   4    1.90    1.60
   8  12   4    3.00    1.50
  -8  12  -4    2.70    1.70
   8 -12  -4    2.70    1.50
   0 -13   4    9.50    1.60
   0 -13  -4    8.40    1.40
   0 -13   4    7.60    1.30
   0  13   4   10.60    1.40
   0 -13  -4    9.50    1.60
   0 -13  -4   11.00    1.70
   0  13  -4    6.20    1.40
   0 -13   4   10.20    1.90
  -1 -13  -4   73.09    3.60
   1 -13   4   74.59    3.30
  -1 -13  -4   75.29    3.50
   1  13  -4   75.49    3.80
  -1 -13  -4   71.59    3.10
  -1  13   4   77.59    3.00
   1 -13   4   77.19    3.50
   1 -13   4   75.99    3.80
  -1 -13   4   78.19    3.40
   1 -13  -4   72.99    3.60
   1  13   4   71.29    3.00
  -1 -13   4   77.99    3.30
  -1  13  -4   70.69    3.70
   1 -13  -4   72.89    3.30
  -1 -13   4   75.39    3.80
   1 -13  -4   76.79    3.20
  -2 -13  -4  207.18    6.20
  -2  13   4  223.38    5.40
   2 -13   4  217.68    6.30
   2 -13   4  224.48    6.40
  -2 -13  -4  207.08    5.40
   2 -13   4  222.68    5.90
  -2 -13  -4  215.58    6.20
   2  13  -4  212.98    6.50
   2  13  -4  213.28    6.20
   2  13  -4  213.38    5.30
   2 -13  -4  212.88    5.80
  -2 -13   4  226.68    5.90
  -2 -13   4  221.18    5.90
   2 -13  -4  217.18    6.30
   2 -13  -4  218.08    6.10
  -2  13  -4  210.78    6.40
   2 -13  -4  213.08    5.80
  -2 -13   4  207.58    6.60
   2  13   4  208.28    5.70
   3 -13   4   78.19    3.80
   3  13  -4   82.09    3.30
   3 -13   4   77.09    3.30
   3 -13   4   81.39    3.80
  -3 -13  -4   71.69    3.60
   3  13  -4   73.49    3.90
   3  13  -4   74.89    3.60
  -3 -13  -4   78.89    3.90
  -3 -13  -4   78.89    3.10
   3 -13  -4   75.29    3.40
  -3 -13   4   82.29    3.40
   3  13   4   83.19    3.50
   3 -13  -4   74.99    3.50
   3 -13  -4   76.19    3.80
  -3 -13   4   79.59    4.10
  -3 -13   4   79.49    3.50
  -3  13  -4   79.39    4.00
   4  13  -4   11.40    2.00
  -4 -13  -4    9.10    1.70
   4  13  -4    7.60    1.50
  -4 -13  -4   10.80    2.00
   4 -13   4    7.60    1.50
   4 -13   4    7.50    1.60
   4  13  -4   10.80    1.60
   4  13  -4    9.10    1.80
  -4 -13   4    6.90    1.80
   4 -13  -4    8.60    1.70
   4 -13  -4    6.30    1.50
  -4 -13   4   11.10    1.70
   4  13   4    6.80    1.50
  -4  13  -4    8.80    2.10
   4 -13  -4    4.80    1.30
   5  13  -4   37.40    2.70
   5  13  -4   44.00    2.80
   5  13  -4   45.20    3.10
   5  13  -4   38.90    3.20
   5 -13   4   40.20    2.60
  -5 -13  -4   36.60    3.10
   5 -13   4   37.00    3.10
  -5 -13  -4   35.30    2.70
  -5 -13   4   39.30    2.70
   5  13   4   34.40    2.50
   5  13   4   37.20    2.70
   5 -13  -4   41.20    2.90
   5 -13  -4   39.10    3.00
  -5 -13   4   39.20    3.20
   5 -13  -4   38.50    2.90
   6  13  -4    4.80    1.60
  -6 -13  -4    5.60    1.80
  -6 -13  -4    6.40    1.50
   6 -13   4    4.20    1.60
   6  13  -4    4.30    1.40
   6  13  -4    6.40    1.60
   6 -13   4    6.40    1.50
  -6 -13   4    7.30    1.60
   6 -13  -4    5.90    1.70
   6  13   4    7.70    1.60
   6  13   4    4.40    1.30
   6 -13  -4    8.00    1.70
  -6 -13   4    4.00    1.80
   6 -13  -4    5.40    1.60
   7 -13   4    1.60    1.20
   7  13  -4    1.50    1.20
   7  13  -4    4.00    2.20
   7  13  -4    1.60    1.30
  -7 -13  -4    0.20    1.40
   7 -13   4    3.30    1.90
  -7 -13  -4    2.90    1.80
   7 -13  -4    3.20    1.60
  -7 -13   4    3.20    1.40
   7 -13  -4    2.00    1.40
   7 -13  -4    0.60    1.50
  -7 -13   4   -0.30    1.40
   7 -13  -4    1.00    1.50
   7  13   4    1.80    1.30
   0  14  -4   50.09    3.40
   0  14   4   47.20    2.60
   0 -14   4   50.59    2.90
   0 -14   4   45.50    3.20
   0 -14  -4   51.39    3.20
   0 -14   4   49.90    3.00
   0 -14  -4   53.09    2.90
   0 -14  -4   49.70    3.10
   1 -14   4   21.30    2.30
  -1 -14  -4   21.50    2.40
  -1  14   4   23.50    1.90
   1 -14   4   23.80    2.30
  -1 -14  -4   21.20    2.40
   1 -14   4   21.90    2.50
   1  14  -4   23.90    2.50
  -1 -14  -4   20.20    2.00
  -1 -14   4   19.10    2.50
  -1  14  -4   32.80    3.00
   1  14   4   17.60    1.80
   1 -14  -4   24.30    2.30
   1 -14  -4   18.60    2.10
  -1 -14   4   20.60    2.10
   1 -14  -4   18.10    2.10
   1 -14  -4   23.00    2.50
  -1 -14   4   24.60    2.20
  -2 -14  -4   57.39    3.30
   2 -14   4   57.79    3.10
   2  14  -4   59.39    3.60
   2 -14   4   56.99    3.40
   2 -14   4   62.99    3.50
  -2 -14  -4   64.39    3.00
  -2 -14  -4   60.69    3.40
   2  14  -4   57.09    3.10
  -2  14   4   64.59    2.80
   2 -14  -4   55.59    3.10
  -2  14  -4   56.49    4.80
  -2 -14   4   58.89    3.00
   2 -14  -4   58.29    3.20
   2 -14  -4   54.99    3.40
  -2 -14   4   57.59    3.70
   2  14   4   52.99    2.80
  -2 -14   4   60.89    3.20
   3 -14   4   77.89    3.60
  -3 -14  -4   82.69    4.20
  -3 -14  -4   83.39    3.90
   3 -14   4   78.19    4.10
  -3 -14  -4   86.89    3.40
   3  14  -4   83.29    4.30
   3  14  -4   85.49    3.60
   3 -14   4   84.09    4.00
   3  14  -4   81.09    4.00
   3  14   4   80.79    3.60
  -3 -14   4   87.39    4.50
  -3 -14   4   92.19    3.90
   3 -14  -4   86.79    3.70
   3 -14  -4   81.79    3.80
   3 -14  -4   86.29    4.10
  -4 -14  -4   31.70    2.70
  -4 -14  -4   35.50    3.20
   4 -14   4   32.80    2.50
   4  14  -4   32.50    2.40
   4  14  -4   28.80    2.20
   4  14  -4   36.00    2.70
   4 -14   4   33.00    3.20
   4  14  -4   37.10    3.30
   4 -14  -4   32.30    2.70
   4 -14  -4   36.50    2.80
  -4 -14   4   37.50    3.30
   4 -14  -4   27.50    2.80
   4  14   4   38.10    2.70
  -4 -14   4   32.40    2.60
  -5 -14  -4   69.99    4.20
   5  14  -4   65.29    3.90
   5 -14   4   65.39    3.40
   5  14  -4   64.99    3.40
   5  14  -4   65.29    3.50
   5 -14   4   60.39    3.80
  -5 -14  -4   69.69    3.80
   5 -14  -4   71.19    3.70
   5 -14  -4   71.29    3.80
  -5 -14   4   68.29    3.50
   5  14   4   69.19    3.50
  -5 -14   4   70.79    4.20
   5 -14  -4   63.79    3.80
  -6 -14  -4   22.20    2.40
  -6 -14  -4   21.20    2.90
   6  14  -4   27.20    2.60
   6 -14   4   22.10    2.80
   6  14  -4   25.80    2.80
   6 -14   4   24.70    2.50
   6  14  -4   20.60    2.40
   6 -14  -4   25.40    2.70
  -6 -14   4   23.30    3.00
   6 -14  -4   24.50    2.90
   6  14   4   18.90    2.30
   6 -14  -4   20.50    2.40
  -6 -14   4   23.50    2.50
   0 -15  -4    5.80    1.60
   0 -15  -4    4.10    1.40
   0  15  -4    2.50    1.30
   0 -15   4    3.70    1.40
   0 -15   4    3.00    1.40
   0  15   4    4.70    1.20
   0 -15   4    2.50    1.20
   0 -15  -4    2.50    1.40
   1 -15   4   21.80    2.20
   1  15  -4   24.00    2.40
   1 -15   4   22.00    2.40
  -1 -15  -4   22.10    2.20
  -1 -15  -4   19.00    2.40
  -1  15   4   21.20    2.00
   1 -15   4   22.30    2.70
  -1 -15  -4   21.20    2.50
   1  15   4   22.80    2.30
  -1 -15   4   24.10    2.40
   1 -15  -4   22.30    2.50
   1 -15  -4   27.70    2.40
   1 -15  -4   24.50    2.60
  -1 -15   4   21.90    2.40
   1 -15  -4   24.80    2.40
  -1 -15   4   21.10    2.70
   2 -15   4   23.30    2.60
   2 -15   4   24.50    2.40
  -2 -15  -4   19.60    2.30
  -2 -15  -4   22.60    2.70
   2  15  -4   18.50    2.10
  -2  15   4   23.80    2.10
  -2 -15  -4   18.50    2.00
   2 -15   4   23.60    2.70
  -2 -15   4   25.90    2.90
   2 -15  -4   27.00    2.50
   2  15   4   28.00    2.50
   2 -15  -4   25.80    2.50
   2 -15  -4   23.40    2.60
  -2 -15   4   24.80    2.50
  -2 -15   4   23.40    2.30
  -2  15  -4   26.40    2.40
   3 -15   4   49.80    3.00
   3 -15   4   46.60    3.30
  -3 -15  -4   45.80    3.10
   3  15  -4   49.40    3.00
   3 -15   4   54.09    3.40
  -3 -15  -4   50.89    2.80
  -3 -15  -4   46.10    3.50
   3  15   4   52.09    3.10
  -3  15  -4   51.69    2.80
   3 -15  -4   52.29    3.20
   3 -15  -4   49.10    3.20
  -3 -15   4   47.60    3.60
  -3 -15   4   45.70    3.00
   3 -15  -4   49.99    3.40
  -4 -15  -4    1.10    1.20
   4  15  -4    3.30    1.40
  -4 -15  -4    0.70    1.30
   4 -15   4   -0.10    1.10
   4  15  -4    0.60    1.20
   4 -15   4    0.20    1.20
   4 -15  -4    0.30    1.40
   4  15   4    1.00    1.20
   4 -15  -4   -0.40    1.20
  -4 -15   4    0.30    1.20
   4 -15  -4   -1.50    1.20
  -4 -15   4    2.10    1.60
   5 -15   4    5.30    2.30
  -5 -15  -4    3.80    2.50
   5  15  -4    5.20    1.90
  -5 -15  -4    5.20    1.60
   5  15  -4    4.00    1.50
   5 -15   4    3.20    1.40
   5  15  -4    7.40    1.50
  -5 -15   4    3.90    1.50
   5 -15  -4    6.40    1.80
   5 -15  -4    2.20    1.30
  -5 -15   4    1.70    1.70
   5  15   4    4.00    1.40
   5 -15  -4    7.90    2.00
   0 -16  -4   95.69    4.00
   0  16  -4   83.79    3.80
   0 -16  -4   88.49    4.40
   0 -16  -4   82.89    4.00
   0 -16  -4   76.59    4.30
   0 -16   4   83.59    4.20
   0  16   4   82.99    3.70
   0 -16   4   86.29    4.60
   0 -16   4   85.09    4.00
  -1 -16  -4  140.69    4.80
   1 -16   4  126.69    4.90
  -1 -16  -4  133.09    5.40
  -1  16   4  131.29    4.50
  -1 -16  -4  130.09    5.30
   1  16  -4  132.59    4.80
   1 -16   4  131.99    5.20
   1 -16   4  128.59    5.50
   1 -16  -4  131.49    5.00
   1 -16  -4  120.59    4.70
  -1 -16   4  130.99    4.90
  -1  16  -4  128.99    4.60
  -1 -16   4  133.49    5.00
   1 -16  -4  131.39    5.40
  -1 -16   4  127.09    5.60
   1  16   4  134.69    4.80
   2 -16   4    4.00    1.80
   2 -16   4    6.20    1.70
   2 -16   4    6.60    1.70
  -2 -16  -4    3.90    1.40
   2  16  -4    4.00    1.40
  -2 -16  -4    3.10    1.40
  -2 -16  -4    5.10    1.80
   2 -16  -4    3.70    1.60
   2 -16  -4    6.50    1.60
  -2 -16   4    3.70    1.70
   2 -16  -4    6.20    1.60
   2  16   4    4.60    1.40
  -2  16  -4    2.30    1.20
  -2 -16   4    2.70    1.40
   3  16  -4   35.70    2.90
  -3 -16  -4   36.80    3.30
   3 -16   4   40.30    3.30
  -3 -16  -4   36.10    3.10
   3 -16   4   34.40    2.80
   3 -16  -4   38.80    3.00
   3 -16  -4   34.00    3.20
  -3 -16   4   39.50    3.00
  -3 -16   4   33.90    3.40
   3 -16  -4   39.80    3.10
   3  16   4   36.70    2.70
   4  16  -4   30.50    2.80
  -4 -16  -4   30.90    3.30
   4 -16   4   30.30    2.90
   4 -16  -4   27.90    2.90
   4  16   4   29.40    2.70
  -4 -16   4   24.20    2.50
   0 -17   4    1.00    1.30
   0  17   4    0.40    1.10
   0 -17  -4    0.80    1.20
   0  17  -4    0.20    1.10
   0 -17   4    3.20    1.80
   0 -17   4   -0.80    1.10
   0 -17  -4    0.90    1.30
   0 -17  -4    4.10    1.80
   1  17  -4   37.60    2.90
  -1 -17  -4   36.80    2.80
   1 -17   4   41.90    3.10
   1 -17   4   47.30    3.70
  -1 -17  -4   31.70    3.40
  -1  17   4   39.50    2.60
   1 -17   4   35.30    3.10
  -1 -17   4   38.40    3.00
  -1  17  -4   38.10    2.70
   1  17   4   32.20    2.60
   1 -17  -4   36.00    4.20
  -1 -17   4   37.20    3.00
   1 -17  -4   35.50    2.90
   2  17  -4   21.50    2.40
   2 -17   4   24.40    2.90
   2 -17   4   26.90    2.80
  -2 -17  -4   32.90    2.60
  -2  17  -4   26.10    2.40
   2  17   4   23.70    2.50
   2 -17  -4   31.50    2.90
  -2 -17   4   27.60    2.80
   0   0   5    0.20    0.20
   0   0  -5    0.10    0.20
   0   0  -5    0.10    0.20
   0   0   5    0.20    0.30
   1   0  -5  974.70   15.00
   1   0  -5  954.50   14.50
   1   0   5  961.90   14.60
   1   0  -5  960.70   14.10
  -1   0  -5  974.00   13.90
   1   0  -5  966.40   14.20
  -1   0  -5  975.20   14.70
  -1   0  -5  966.40   14.40
   2   0   5  109.29    2.40
   2   0   5   88.69    2.20
   2   0  -5   92.59    2.10
   2   0  -5   95.39    1.70
  -2   0  -5   95.39    2.40
  -2   0  -5   90.59    2.30
   2   0  -5   92.19    2.60
   2   0  -5   93.29    2.00
   2   0   5   90.79    2.10
   2   0  -5   92.89    2.40
   3   0  -5 1602.34   24.20
   3   0  -5 1628.14   24.30
   3   0   5 1637.34   23.90
  -3   0  -5 1614.64   24.10
  -3   0  -5 1618.34   24.20
   3   0  -5 1632.24   24.30
   3   0  -5 1602.14   23.70
   3   0  -5 1577.54   23.70
   3   0   5 1631.74   23.80
   3   0   5 1572.34   24.00
   4   0  -5  191.08    4.00
   4   0   5  199.78    3.10
   4   0   5  182.38    4.10
   4   0   5  199.08    3.90
   4   0  -5  189.28    4.10
  -4   0  -5  190.78    4.20
   4   0  -5  191.88    4.30
   4   0  -5  188.78    4.40
  -4   0  -5  187.18    4.40
   4   0   5  191.08    4.20
   4   0  -5  191.98    4.30
   5   0   5 1319.77   20.90
   5   0   5 1357.26   21.00
   5   0   5 1367.76   20.30
   5   0  -5 1332.87   20.90
  -5   0  -5 1320.67   20.90
  -5   0  -5 1348.17   21.40
   5   0  -5 1321.57   20.90
   5   0   5 1379.86   19.60
   5   0  -5 1325.87   21.20
   5   0  -5 1359.16   20.90
   5   0  -5 1353.36   20.80
   6   0  -5  235.78    5.30
   6   0  -5  228.48    5.40
   6   0   5  234.88    5.40
   6   0  -5  236.88    5.30
   6   0  -5  226.98    5.60
  -6   0  -5  222.18    5.30
   6   0   5  229.58    5.50
  -6   0  -5  240.68    5.90
   6   0   5  230.78    5.50
   6   0   5  236.88    4.70
   6   0  -5  233.38    5.40
   7   0  -5   23.40    1.80
  -7   0  -5   23.90    1.60
   7   0  -5   22.90    1.70
   7   0  -5   20.00    1.80
   7   0  -5   22.60    1.80
   7   0   5   22.20    1.70
   7   0   5   22.40    1.80
  -7   0  -5   23.20    1.90
   7   0   5   24.00    2.00
   7   0  -5   24.60    2.00
  -8   0  -5    9.70    1.20
   8   0   5   11.60    1.60
   8   0   5    9.30    1.60
   8   0   5   10.40    1.50
   8   0  -5   12.00    1.60
   8   0  -5    5.70    1.30
   8   0  -5    9.30    1.60
   8   0  -5   11.30    1.60
  -8   0  -5   10.10    1.60
   8   0  -5   10.30    1.50
   9   0  -5   17.80    2.10
   9   0   5   17.80    2.00
   9   0   5   20.50    2.30
  -9   0  -5   18.60    2.20
   9   0  -5   19.10    2.10
   9   0  -5   20.80    2.10
   9   0  -5   19.40    2.10
   9   0  -5   19.60    2.00
   9   0   5   21.10    2.40
  10   0  -5   -0.90    1.10
  10   0   5   -0.60    1.00
  10   0   5   -0.20    0.90
  10   0  -5    0.10    1.20
  10   0  -5    1.30    1.10
  10   0  -5    1.60    1.20
 -10   0  -5   -0.50    1.30
  11   0  -5   38.10    3.30
  11   0   5   36.60    3.00
  11   0  -5   42.40    3.10
 -11   0  -5   48.90    5.00
   0   1  -5   38.50    1.10
   0  -1  -5   40.30    0.90
   0   1  -5   38.90    1.20
   0   1  -5   38.50    1.40
   0  -1   5   38.70    1.20
   0   1   5   40.40    0.80
   1   1  -5 1956.70   28.80
   1  -1   5 1971.70   28.90
  -1  -1  -5 1998.60   28.50
   1  -1   5 2068.79   29.10
   1   1  -5 1978.80   29.30
  -1   1   5 2002.60   28.70
   1   1  -5 1972.10   28.70
  -1  -1  -5 1969.70   28.90
   1  -1   5 2004.10   28.40
   1   1  -5 1999.30   28.40
   1  -1  -5 2001.50   28.60
   1   1   5 2009.90   28.90
  -1   1  -5 1962.40   28.20
   1  -1  -5 1993.90   28.90
  -1   1  -5 1931.91   29.00
  -1   1  -5 1963.50   28.80
   1  -1  -5 1985.20   28.40
   2  -1   5  957.90   14.20
   2  -1   5  941.81   14.40
   2  -1   5  960.00   14.50
   2  -1   5  960.90   14.90
   2   1  -5  947.01   14.30
   2  -1   5  961.80   13.70
  -2  -1  -5  939.31   14.50
   2   1  -5  956.10   14.00
  -2  -1  -5  968.40   14.40
   2   1  -5  941.91   14.60
   2  -1  -5  956.00   14.00
   2   1   5  924.31   14.40
  -2   1  -5  919.21   14.60
   2   1   5  939.51   14.50
  -2   1  -5  952.70   14.70
   2  -1  -5  945.71   14.70
   2  -1  -5  950.70   14.30
   2  -1  -5  922.41   14.70
   2  -1  -5  963.90   13.90
  -2  -1   5  967.60   14.50
   2  -1  -5  946.41   14.60
   2   1   5  948.61   14.40
  -3  -1  -5  993.70   15.30
  -3  -1  -5  981.50   15.40
   3  -1   5  986.40   15.80
   3  -1   5 1009.00   15.10
   3   1  -5  970.40   15.20
   3   1  -5  975.60   15.50
   3   1  -5 1005.30   14.90
   3   1  -5  979.40   15.50
   3  -1   5  997.00   15.10
   3  -1   5  993.80   14.10
   3   1  -5  985.00   15.60
   3  -1   5  987.50   15.30
   3  -1  -5  973.60   15.10
   3  -1  -5  989.20   15.50
   3  -1  -5  979.50   14.90
   3  -1  -5 1020.40   14.40
  -3   1  -5  995.20   15.60
   3  -1  -5  972.10   15.50
   3  -1  -5  989.00   15.40
   3  -1  -5  982.80   15.00
   3   1   5  997.10   15.20
   3   1   5  985.70   15.30
   3   1   5  976.20   15.20
  -3  -1   5 1013.10   15.10
  -3   1  -5  986.60   15.50
   4   1  -5  459.15    8.40
   4  -1   5  467.45    8.70
   4   1  -5  461.55    8.10
   4  -1   5  466.25    7.80
   4  -1   5  489.45    6.80
  -4  -1  -5  456.55    8.40
  -4  -1  -5  464.45    8.10
   4  -1   5  455.25    6.70
   4   1  -5  472.05    8.40
   4  -1   5  459.15    8.10
   4  -1   5  452.65    8.20
   4   1  -5  462.95    7.90
   4   1  -5  452.75    8.30
   4  -1  -5  466.55    8.10
   4   1   5  464.85    8.20
   4  -1  -5  470.05    8.10
  -4   1  -5  461.25    8.30
   4   1   5  460.45    8.10
   4  -1  -5  456.55    7.90
   4   1   5  495.25    7.20
   4  -1  -5  475.75    7.20
   4   1   5  468.55    7.90
   4  -1  -5  463.75    8.30
   4   1   5  469.25    8.20
   4  -1  -5  447.46    8.40
   4  -1  -5  449.76    8.00
  -4  -1   5  477.35    7.70
  -4   1  -5  460.15    8.50
   5   1  -5  178.38    4.50
   5  -1   5  189.88    4.40
  -5  -1  -5  187.68    4.30
   5   1  -5  191.58    4.50
   5  -1   5  190.18    3.90
   5   1  -5  186.38    4.40
   5   1  -5  184.68    4.40
   5  -1   5  191.68    3.30
   5  -1   5  192.78    4.80
   5  -1   5  183.38    4.40
   5   1  -5  186.28    4.20
   5   1   5  185.18    4.50
   5   1   5  182.48    4.40
  -5   1  -5  177.08    4.40
   5   1   5  195.18    3.50
   5  -1  -5  195.08    4.30
   5  -1  -5  180.38    4.30
  -5  -1   5  188.48    3.70
   5  -1  -5  190.28    3.40
   5  -1  -5  183.98    4.20
   5   1   5  190.28    4.00
  -5   1  -5  182.98    4.70
   5  -1  -5  189.88    4.40
   5  -1  -5  180.58    4.60
   5   1   5  180.78    4.30
   6   1  -5  196.78    5.10
   6   1  -5  197.18    4.80
  -6  -1  -5  207.28    4.80
  -6  -1  -5  203.08    4.80
   6   1  -5  194.18    4.80
   6   1  -5  203.28    5.00
   6  -1   5  208.38    4.20
   6  -1   5  201.28    4.90
   6  -1   5  204.78    5.00
   6   1  -5  199.28    4.90
   6   1   5  204.68    5.00
   6   1   5  203.98    4.90
  -6   1  -5  203.38    5.40
   6   1   5  202.88    4.30
   6   1   5  210.78    4.00
   6   1   5  201.28    5.00
   6  -1  -5  198.38    4.60
  -6   1  -5  197.28    4.90
   6  -1  -5  198.78    5.10
   6  -1  -5  199.48    4.90
   6  -1  -5  197.08    4.80
   6  -1  -5  191.38    4.80
   7  -1   5   21.20    1.80
   7   1  -5   17.50    1.70
   7  -1   5   21.40    2.00
  -7  -1  -5   19.20    1.80
   7   1  -5   14.60    1.60
   7   1  -5   19.10    1.70
   7   1  -5   20.50    1.80
  -7  -1  -5   18.10    1.50
   7  -1   5   16.60    1.70
   7   1  -5   13.50    1.50
  -7   1  -5   14.30    1.70
   7   1   5   18.20    1.70
   7  -1  -5   18.80    1.60
  -7   1  -5   18.20    1.80
   7  -1  -5   15.50    1.60
   7   1   5   18.70    1.80
   7  -1  -5   15.90    1.80
   7   1   5   19.40    1.40
   7  -1  -5   17.00    1.60
   7   1   5   17.90    1.80
   7  -1  -5   16.40    1.60
   8   1  -5   86.69    3.70
   8  -1   5   92.99    3.70
   8  -1   5   94.19    3.60
   8   1  -5   94.09    3.70
  -8  -1  -5   86.29    3.50
   8   1  -5   93.59    3.50
  -8  -1  -5   91.29    3.20
   8   1  -5   87.39    3.50
   8   1  -5   88.39    3.40
   8  -1   5   89.69    3.70
   8   1   5   84.59    3.60
   8  -1  -5   90.49    3.60
   8   1   5   89.59    3.40
  -8   1  -5   92.59    3.80
   8   1   5   90.79    3.80
   8  -1  -5   92.19    3.60
   8  -1  -5   91.79    3.70
   8  -1  -5   89.59    3.50
   8  -1  -5   89.09    3.20
   9   1  -5    8.50    1.60
   9  -1   5   10.60    1.70
   9   1  -5   14.50    1.90
   9  -1   5   11.40    1.80
   9  -1   5   10.00    1.70
   9   1  -5   11.20    1.70
   9   1  -5   10.50    1.60
   9   1  -5    8.80    1.60
  -9  -1  -5    9.70    1.80
   9  -1  -5    9.00    1.60
   9   1   5   11.60    1.80
   9  -1  -5   10.20    1.60
   9   1   5   12.50    2.00
   9  -1  -5   13.20    1.80
   9   1   5    9.80    1.60
   9  -1  -5   11.40    1.60
   9  -1  -5   10.20    1.80
  -9   1  -5   11.60    2.00
  10  -1   5   11.50    2.00
  10   1  -5   14.60    2.10
  10   1  -5   15.20    2.10
  10   1  -5   15.90    2.10
 -10  -1  -5   14.30    2.20
  10   1  -5   14.60    1.90
  10  -1   5   10.60    1.80
  10  -1  -5   12.40    2.00
  10  -1  -5   13.50    2.00
  10   1   5   13.00    1.90
  10  -1  -5   14.10    2.00
  10   1   5   13.00    2.00
 -10   1  -5   16.80    2.30
  11   1  -5   11.60    2.70
  11  -1   5   10.30    2.00
  11   1  -5   11.10    1.90
  11   1  -5   10.20    2.30
 -11  -1  -5    8.30    2.10
  11   1   5   11.90    2.00
  11  -1  -5   10.90    2.00
  11  -1  -5    9.10    2.00
   0   2  -5 2172.18   31.90
   0  -2   5 2179.48   31.70
   0   2  -5 2163.18   31.50
   0  -2   5 2242.58   32.40
   0  -2   5 2267.77   31.80
   0   2  -5 2187.18   32.00
   0   2   5 2190.18   31.80
   1  -2   5  338.57    5.10
  -1  -2  -5  331.07    5.60
  -1   2   5  334.57    5.60
   1   2  -5  336.07    5.80
   1   2  -5  332.07    6.20
   1  -2   5  336.27    5.90
   1   2  -5  339.27    4.90
   1   2  -5  331.97    5.70
   1  -2   5  330.27    5.40
   1   2   5  325.27    5.10
  -1  -2   5  335.17    5.70
  -1   2  -5  332.87    5.90
  -1  -2   5  339.97    6.10
  -1   2  -5  329.47    5.90
  -1   2  -5  336.57    5.10
   1   2   5  332.07    5.80
  -1  -2   5  344.37    5.30
   2  -2   5  193.98    3.90
  -2   2   5  192.38    3.50
  -2  -2  -5  195.68    3.00
   2   2  -5  197.28    3.90
   2   2  -5  192.98    3.90
   2   2  -5  198.08    3.30
   2  -2   5  190.98    3.30
   2  -2   5  201.58    3.50
   2   2  -5  194.98    4.30
  -2  -2  -5  191.98    3.80
   2  -2   5  193.98    4.20
   2   2   5  191.58    3.50
   2  -2  -5  196.88    4.00
   2  -2  -5  194.98    3.50
   2  -2  -5  195.98    3.30
   2  -2  -5  197.38    3.80
  -2   2  -5  195.68    4.10
   2   2   5  198.78    3.90
   2  -2  -5  192.48    4.00
  -2  -2   5  196.78    4.00
  -2   2  -5  192.68    4.00
   2  -2  -5  194.68    4.00
   2  -2  -5  192.68    3.40
  -2  -2   5  192.58    3.90
   3   2  -5  357.96    6.90
   3   2  -5  357.26    6.70
   3  -2   5  371.96    7.00
   3  -2   5  379.86    6.60
  -3  -2  -5  367.16    6.40
   3   2  -5  365.76    6.80
   3   2  -5  372.76    6.60
   3  -2   5  366.26    5.70
   3   2  -5  364.26    6.10
   3  -2   5  381.76    6.30
   3  -2  -5  366.86    6.00
  -3  -2   5  370.66    6.50
   3  -2  -5  370.56    6.50
   3   2   5  360.16    6.40
   3  -2  -5  373.46    6.30
   3  -2  -5  363.36    6.10
   3  -2  -5  351.66    6.50
  -3   2  -5  369.36    6.90
  -3   2  -5  365.56    6.80
   3   2   5  363.16    6.40
   3  -2  -5  366.26    6.70
   3   2   5  377.36    6.70
   3  -2  -5  358.06    6.80
   3   2   5  372.06    6.40
   4   2  -5  181.48    4.20
   4  -2   5  187.68    4.20
   4   2  -5  188.78    3.90
   4  -2   5  184.38    4.50
   4  -2   5  179.58    3.10
   4   2  -5  184.48    4.20
  -4  -2  -5  191.38    4.00
   4   2  -5  183.38    4.40
   4  -2   5  191.78    3.00
   4  -2   5  186.28    4.00
   4  -2  -5  191.48    4.00
   4   2   5  184.38    4.10
   4   2   5  185.28    4.10
  -4   2  -5  186.08    4.50
   4  -2  -5  184.28    4.10
   4   2   5  193.08    3.50
  -4   2  -5  181.38    4.30
   4   2   5  184.98    4.00
   4   2   5  185.88    4.30
   4  -2  -5  187.28    4.40
   4  -2  -5  193.48    3.60
  -4  -2   5  189.68    4.00
   4  -2  -5  188.98    4.00
   4  -2  -5  189.88    4.20
   4  -2  -5  190.68    3.90
   5  -2   5  382.76    7.20
  -5  -2  -5  384.96    7.40
   5   2  -5  380.86    7.40
   5  -2   5  382.86    7.30
   5   2  -5  376.26    7.30
   5  -2   5  376.66    7.80
   5  -2   5  385.96    6.00
   5   2  -5  373.16    7.50
   5   2  -5  380.36    7.50
   5   2  -5  392.56    7.10
  -5  -2  -5  379.26    7.10
   5  -2  -5  382.76    6.40
   5   2   5  379.96    6.40
  -5   2  -5  369.66    7.40
   5  -2  -5  375.56    7.60
   5  -2  -5  376.96    7.30
  -5  -2   5  375.36    6.70
   5   2   5  378.86    7.50
   5   2   5  388.56    7.30
   5  -2  -5  376.26    7.20
   5   2   5  369.66    7.10
   5   2   5  373.16    6.90
   5  -2  -5  392.86    7.00
  -5   2  -5  368.76    7.70
   5  -2  -5  364.26    7.00
  -6  -2  -5    0.10    0.70
  -6  -2  -5    1.90    0.70
   6   2  -5    1.30    0.80
   6   2  -5   -0.10    0.70
   6  -2   5    0.60    0.60
   6   2  -5    0.50    0.80
   6  -2   5    1.80    1.00
   6   2  -5    1.40    0.90
   6   2  -5    1.00    0.80
   6  -2   5    1.30    0.70
   6  -2  -5    2.40    0.80
  -6   2  -5    1.00    0.70
  -6  -2   5    1.50    0.60
  -6   2  -5    0.80    0.90
   6   2   5    2.40    0.70
   6   2   5    1.60    0.40
   6  -2  -5    1.20    0.60
   6  -2  -5    1.00    0.80
   6   2   5    1.20    0.70
   6   2   5    0.90    0.80
   6  -2  -5    1.40    0.80
   6  -2  -5    3.00    1.00
   6   2   5    1.10    0.80
   7   2  -5  149.69    4.70
   7   2  -5  159.18    4.70
   7   2  -5  160.98    4.50
   7  -2   5  149.59    4.50
   7   2  -5  153.98    4.30
   7  -2   5  156.18    4.90
   7   2  -5  160.18    4.60
   7  -2   5  161.28    4.50
  -7  -2  -5  164.28    4.40
  -7  -2  -5  160.18    4.30
   7  -2  -5  159.88    4.60
  -7   2  -5  154.08    4.60
   7  -2  -5  159.78    4.40
   7   2   5  159.78    4.60
   7   2   5  160.48    4.40
   7  -2  -5  158.08    4.10
   7  -2  -5  149.69    4.30
   7   2   5  158.18    4.70
   7   2   5  166.28    3.90
  -7   2  -5  161.78    5.00
   7  -2  -5  155.98    4.70
   8   2  -5   32.80    2.20
   8   2  -5   31.20    2.20
   8   2  -5   27.90    2.30
   8  -2   5   30.00    2.60
  -8  -2  -5   37.90    2.40
   8   2  -5   29.50    2.20
  -8  -2  -5   35.00    2.10
   8  -2   5   32.00    2.20
   8   2  -5   30.30    2.40
   8  -2   5   27.90    2.20
   8   2   5   33.00    2.40
   8  -2  -5   34.00    2.30
   8  -2  -5   35.40    2.00
   8  -2  -5   28.40    2.30
   8   2   5   33.40    2.60
   8   2   5   32.90    2.20
   8  -2  -5   34.80    2.30
   8  -2  -5   29.20    2.10
  -8   2  -5   35.30    2.50
  -9  -2  -5    5.20    1.50
   9  -2   5    3.00    1.20
   9   2  -5    2.60    1.30
   9   2  -5    4.70    1.20
   9  -2   5    2.20    1.10
   9   2  -5    0.80    1.00
   9   2  -5    3.90    1.30
   9   2  -5    2.70    1.30
   9  -2   5    1.70    1.10
   9   2   5    2.50    1.20
   9  -2  -5    1.30    1.10
   9  -2  -5    3.80    1.30
  -9   2  -5    4.00    1.50
   9  -2  -5    2.10    1.10
   9  -2  -5    3.20    1.30
   9   2   5    1.70    1.20
   9   2   5    3.20    2.00
  10   2  -5   22.30    2.40
  10  -2   5   21.40    2.40
  10  -2   5   23.20    2.60
 -10  -2  -5   25.80    2.70
  10   2  -5   23.20    2.40
  10   2  -5   24.00    2.50
  10   2  -5   25.70    2.50
  10  -2  -5   22.30    2.30
  10  -2  -5   25.80    2.60
  10   2   5   26.50    2.60
 -10   2  -5   26.10    2.80
  10   2   5   27.80    2.90
  10  -2  -5   24.00    2.50
  11  -2   5    4.30    1.60
  11   2  -5    4.50    1.50
  11   2  -5    7.50    1.70
  11   2   5    4.50    1.60
  11  -2  -5    5.70    2.30
  11  -2  -5    4.20    1.60
   0   3  -5   48.10    1.70
   0  -3   5   47.30    1.50
   0   3  -5   47.60    1.60
   0  -3   5   50.19    1.90
   0   3  -5   49.90    1.40
   0   3  -5   47.70    1.80
   0  -3   5   47.70    1.50
   1  -3   5   40.60    1.20
  -1   3   5   39.80    1.30
   1   3  -5   39.80    1.50
  -1  -3  -5   39.10    1.10
   1   3  -5   39.10    1.40
   1  -3   5   39.30    1.50
   1   3  -5   38.60    1.70
  -1  -3  -5   40.30    1.30
   1  -3   5   42.00    0.90
  -1  -3   5   38.20    1.60
  -1   3  -5   41.10    1.10
   1   3   5   40.10    1.00
  -1  -3   5   40.10    1.20
  -1  -3   5   44.00    1.50
   1   3   5   38.80    1.40
  -1   3  -5   38.60    1.60
   2  -3   5  533.55    8.40
   2  -3   5  540.65    9.30
   2   3  -5  541.95    8.20
   2   3  -5  538.05    9.10
  -2  -3  -5  544.05    8.70
  -2  -3  -5  560.24    8.10
  -2   3   5  540.75    8.50
   2   3  -5  543.75    9.10
   2   3  -5  538.25    9.40
   2  -3   5  560.14    8.40
  -2  -3   5  539.65    9.30
   2  -3  -5  542.55    9.00
   2  -3  -5  551.44    8.30
  -2   3  -5  546.85    9.20
   2  -3  -5  553.24    8.70
   2   3   5  550.14    9.00
   2  -3  -5  543.75    8.90
   2   3   5  547.85    8.50
  -2  -3   5  540.75    9.00
  -2  -3   5  545.35    8.00
  -2   3  -5  548.45    9.30
   2  -3  -5  533.35    9.00
   2  -3  -5  551.04    8.20
   3  -3   5  297.17    5.00
   3   3  -5  308.37    5.20
   3   3  -5  296.37    6.00
   3  -3   5  296.97    6.10
   3  -3   5  313.07    4.60
  -3  -3  -5  307.47    4.40
   3  -3   5  298.17    5.70
   3   3  -5  303.57    5.90
   3   3  -5  306.17    5.90
  -3   3   5  302.27    5.00
   3   3  -5  290.87    5.80
  -3  -3  -5  308.17    5.40
   3  -3   5  303.27    5.30
   3   3   5  297.37    5.60
  -3  -3   5  299.07    5.70
   3  -3  -5  302.27    5.30
   3   3   5  293.97    5.40
   3  -3  -5  300.77    5.70
   3  -3  -5  304.27    5.70
  -3   3  -5  297.17    6.10
   3  -3  -5  308.37    4.80
   3   3   5  298.67    5.40
  -3  -3   5  309.47    5.80
   3  -3  -5  292.67    5.90
   3  -3  -5  304.57    5.20
   3  -3  -5  309.67    5.30
   3  -3  -5  306.17    5.50
  -3   3  -5  303.07    5.90
   4   3  -5   76.39    2.70
   4   3  -5   78.19    2.60
   4  -3   5   79.89    1.60
   4  -3   5   76.69    1.80
   4   3  -5   79.39    2.20
   4  -3   5   75.89    2.30
   4   3  -5   78.29    2.60
  -4  -3  -5   76.09    2.20
   4  -3   5   76.49    2.50
  -4  -3  -5   77.29    2.60
  -4  -3   5   78.49    2.40
   4  -3  -5   78.99    2.30
   4   3   5   79.49    2.00
   4   3   5   75.89    2.30
   4   3   5   77.99    2.40
   4   3   5   77.99    2.30
   4  -3  -5   79.49    2.20
   4  -3  -5   77.89    2.50
   4  -3  -5   73.29    2.40
   4   3   5   80.19    2.60
  -4   3  -5   76.29    2.60
  -4   3  -5   77.29    2.80
   4  -3  -5   76.19    2.60
   4  -3  -5   76.59    2.20
   4  -3  -5   80.29    2.10
   5   3  -5   87.99    2.70
   5   3  -5   93.69    3.10
   5  -3   5   93.49    2.80
   5  -3   5   91.69    2.00
  -5  -3  -5   88.99    2.90
   5   3  -5   93.79    3.20
   5  -3   5   98.29    2.00
  -5  -3  -5   95.09    2.70
   5  -3   5   93.19    3.30
   5   3  -5   93.59    3.00
   5   3  -5   88.39    3.10
   5  -3   5   92.79    2.90
   5  -3  -5   89.69    3.10
  -5  -3   5   89.89    2.70
   5  -3  -5   90.59    2.70
  -5   3  -5   91.29    3.00
   5  -3  -5   92.49    2.90
   5  -3  -5   90.19    2.90
   5   3   5   91.29    2.70
   5   3   5   93.89    2.80
   5   3   5   90.19    3.10
   5  -3  -5   94.49    2.50
   5   3   5   92.99    2.40
   5   3   5   94.99    2.90
  -5   3  -5   94.89    3.40
   5  -3  -5   92.89    2.60
   6  -3   5    6.20    1.10
  -6  -3  -5    7.20    1.00
   6  -3   5    7.20    1.30
   6   3  -5    5.90    1.10
   6   3  -5    5.00    1.00
   6   3  -5    7.50    1.10
   6   3  -5    6.90    1.30
   6   3  -5    5.40    1.00
   6  -3   5    7.30    1.10
  -6  -3  -5    7.70    1.10
   6   3   5    7.00    1.20
   6  -3  -5    8.80    1.10
   6  -3  -5    5.80    1.00
  -6  -3   5    6.60    0.90
  -6   3  -5    8.80    1.40
   6   3   5    7.60    1.00
   6  -3  -5    6.30    0.90
  -6   3  -5    6.50    1.10
   6  -3  -5    5.90    1.10
   6  -3  -5    7.50    1.20
   6   3   5    7.20    0.90
   6   3   5    7.50    1.10
   6   3   5    7.90    0.80
   7   3  -5    0.80    0.80
   7  -3   5    1.80    0.90
   7  -3   5    0.70    0.80
   7   3  -5    0.50    0.90
   7   3  -5    1.80    1.00
   7   3  -5    1.30    0.80
   7   3  -5    1.10    1.00
   7  -3   5    1.20    1.00
  -7  -3  -5    1.20    0.80
  -7  -3  -5    0.70    0.90
  -7   3  -5   -0.90    0.90
  -7   3  -5    1.10    1.00
   7  -3  -5   -1.10    0.70
   7  -3  -5    0.70    0.80
   7   3   5    1.20    0.80
   7   3   5    0.60    0.90
   7   3   5    0.50    0.70
   7  -3  -5    1.90    1.00
   7   3   5    0.10    0.90
   7  -3  -5    1.30    0.70
   8  -3   5  161.18    4.90
   8  -3   5  158.08    4.90
   8   3  -5  161.18    5.20
   8   3  -5  162.88    5.20
  -8  -3  -5  156.58    4.50
  -8  -3  -5  162.58    4.80
   8   3  -5  167.68    4.80
   8   3  -5  156.38    4.90
   8   3  -5  165.58    4.90
  -8   3  -5  160.38    5.50
   8   3   5  173.68    5.30
  -8   3  -5  151.48    5.00
   8  -3  -5  162.38    5.00
   8   3   5  161.38    5.20
   8  -3  -5  160.48    4.70
   8  -3  -5  155.28    5.00
   8   3   5  152.98    4.60
   8  -3  -5  163.18    4.80
   9  -3   5   40.40    3.00
   9   3  -5   38.10    2.70
   9   3  -5   39.80    2.80
   9   3  -5   35.20    2.80
   9   3  -5   39.20    2.70
   9  -3   5   31.80    2.50
  -9  -3  -5   34.50    2.70
   9   3  -5   38.10    2.60
   9  -3   5   37.70    2.70
   9   3   5   38.30    2.50
   9   3   5   34.60    2.80
   9  -3  -5   42.30    2.80
   9  -3  -5   40.20    2.70
   9  -3  -5   36.30    2.60
   9  -3  -5   37.70    2.70
  -9   3  -5   36.20    3.00
  10   3  -5    7.50    1.70
  10   3  -5    5.60    1.50
  10  -3   5    4.70    1.60
  10   3  -5    3.00    1.50
  10  -3   5    4.90    1.50
  10   3  -5    3.10    1.30
  10   3   5    6.90    1.70
  10  -3  -5    8.20    1.60
 -10   3  -5    6.70    1.90
  10  -3  -5    6.50    1.50
  10   3   5    2.90    1.20
  10  -3  -5    6.40    1.60
  11   3  -5    0.10    1.20
  11   3  -5    1.50    1.20
  11  -3   5   -0.30    1.10
  11  -3  -5    2.30    1.30
  11   3   5    0.40    1.20
   0  -4  -5  298.67    5.40
   0  -4   5  288.77    5.20
   0  -4   5  287.57    5.70
   0   4  -5  287.67    5.30
   0   4  -5  288.67    5.60
   0   4  -5  287.87    5.00
   0   4   5  289.87    5.20
   0   4  -5  283.97    5.50
   0  -4  -5  287.57    4.40
   0  -4   5  288.27    5.20
  -1  -4  -5  191.28    3.20
   1  -4   5  182.68    3.60
   1   4  -5  185.98    4.10
   1   4  -5  186.98    3.80
   1  -4   5  193.28    4.00
   1   4  -5  188.08    4.20
  -1  -4  -5  191.88    4.00
   1  -4   5  187.58    4.30
  -1   4   5  187.18    3.60
  -1  -4  -5  188.68    3.40
   1  -4   5  196.38    3.10
   1   4  -5  182.68    3.80
  -1  -4  -5  189.88    3.50
  -1  -4   5  185.68    3.80
  -1   4  -5  190.98    3.50
  -1   4  -5  185.58    3.90
   1  -4  -5  186.68    3.90
   1   4   5  181.68    3.80
   1  -4  -5  182.38    3.60
   1  -4  -5  189.88    3.00
  -1  -4   5  178.88    3.50
  -1   4  -5  185.48    4.10
   1   4   5  186.38    3.20
  -1  -4   5  191.48    4.30
   2   4  -5  326.97    6.40
  -2   4   5  327.67    5.60
  -2  -4  -5  333.67    5.60
  -2  -4  -5  325.37    5.30
   2  -4   5  326.07    5.60
   2   4  -5  334.67    6.20
   2   4  -5  336.87    6.30
   2  -4   5  336.67    5.40
   2  -4   5  326.17    6.30
  -2  -4  -5  336.97    6.30
   2   4   5  329.47    6.00
  -2  -4   5  327.37    5.30
  -2   4  -5  332.37    6.20
  -2   4  -5  323.97    6.40
   2   4   5  333.97    5.60
  -2  -4   5  337.67    6.10
   2  -4  -5  335.77    5.50
   2  -4  -5  335.97    5.90
   2  -4  -5  326.17    5.70
   2  -4  -5  322.77    6.10
  -2  -4   5  339.37    6.40
   2  -4  -5  318.87    5.30
   2  -4  -5  330.67    5.90
  -3  -4  -5   13.50    0.80
   3  -4   5   15.60    0.90
   3   4  -5   15.40    1.20
   3   4  -5   13.70    1.10
   3  -4   5   15.60    1.00
  -3  -4  -5   15.40    1.20
  -3  -4  -5   13.90    0.60
   3  -4   5   14.10    1.20
   3   4  -5   15.90    1.20
   3   4  -5   15.60    1.40
   3   4  -5   16.70    0.90
  -3   4   5   16.40    0.80
   3  -4   5   18.60    0.90
  -3  -4   5   15.60    1.20
   3  -4  -5   15.10    1.00
  -3  -4   5   13.40    0.50
   3   4   5   15.00    1.00
  -3  -4   5   14.30    1.10
   3  -4  -5   16.20    1.10
  -3   4  -5   14.20    1.30
   3   4   5   13.40    1.00
   3   4   5   15.40    0.90
   3  -4  -5   14.60    0.60
   3  -4  -5   15.00    1.10
   3  -4  -5   15.20    1.00
   3  -4  -5   15.10    0.90
  -3   4  -5   14.80    1.10
   4  -4   5   46.10    1.40
   4   4  -5   44.10    2.20
   4  -4   5   45.10    1.80
   4  -4   5   48.30    1.30
  -4  -4  -5   45.80    1.60
   4   4  -5   45.10    2.00
   4   4  -5   45.30    1.70
  -4  -4  -5   44.90    2.10
   4   4  -5   45.10    2.10
   4   4  -5   41.60    2.00
  -4   4   5   46.90    1.20
   4  -4   5   46.30    1.70
   4  -4   5   46.50    2.20
   4  -4  -5   42.60    1.90
  -4   4  -5   42.60    2.20
   4  -4  -5   46.30    1.90
   4  -4  -5   46.90    2.10
  -4  -4   5   45.90    1.90
   4   4   5   45.30    1.80
  -4  -4   5   47.80    2.00
  -4   4  -5   43.20    2.00
   4   4   5   44.20    1.70
   4  -4  -5   48.50    1.60
   4   4   5   48.20    1.70
   4   4   5   46.30    1.80
   4  -4  -5   47.00    1.70
   5  -4   5    7.90    1.10
   5  -4   5   10.10    0.80
   5   4  -5    7.60    1.10
   5  -4   5    8.20    0.70
   5   4  -5    7.30    1.10
  -5  -4  -5    8.70    1.00
   5   4  -5    5.30    1.00
   5   4  -5    8.30    1.00
   5  -4   5    7.60    1.20
  -5  -4  -5    7.90    1.10
   5   4  -5    8.40    1.20
   5  -4   5    9.50    1.10
   5   4   5    7.80    1.20
  -5  -4   5    9.10    1.10
   5   4   5    8.00    1.00
   5   4   5    8.10    1.00
   5  -4  -5    7.60    0.90
   5  -4  -5    8.30    1.20
   5   4   5    8.80    1.00
  -5   4  -5    8.00    1.10
   5  -4  -5    9.40    1.20
   5  -4  -5   10.80    1.20
   5   4   5    8.60    0.90
   5  -4  -5    8.90    1.00
   5   4   5    9.20    1.30
  -5   4  -5    8.80    1.30
   5  -4  -5    9.70    0.90
  -6  -4  -5   74.69    2.60
   6   4  -5   65.59    2.90
   6   4  -5   76.99    2.70
  -6  -4  -5   79.39    2.90
   6   4  -5   72.09    3.00
   6  -4   5   81.59    3.00
   6   4  -5   77.19    2.80
   6  -4   5   74.89    2.70
   6   4  -5   71.19    3.10
   6  -4   5   73.69    3.20
  -6  -4   5   74.69    2.60
   6  -4  -5   74.49    2.70
  -6   4  -5   83.89    3.10
   6  -4  -5   76.09    3.00
   6  -4  -5   71.79    2.70
   6   4   5   72.89    3.00
   6   4   5   75.49    2.90
   6  -4  -5   75.69    3.10
  -6   4  -5   75.39    3.30
   6   4   5   70.19    3.00
   6   4   5   75.29    2.60
   6  -4  -5   77.49    2.50
   6  -4  -5   76.89    2.40
   6   4   5   73.79    2.40
   6   4   5   76.99    2.70
   7   4  -5   21.10    1.80
   7  -4   5   22.90    1.80
   7   4  -5   25.90    2.10
  -7  -4  -5   23.30    1.90
   7  -4   5   18.10    2.00
   7   4  -5   24.20    2.20
   7  -4   5   21.90    1.90
   7   4  -5   21.10    1.70
  -7  -4  -5   22.60    1.90
   7   4  -5   20.90    1.90
   7  -4  -5   21.70    1.90
   7  -4  -5   23.70    1.90
   7   4   5   22.10    2.10
   7  -4  -5   23.10    1.80
   7   4   5   24.00    2.00
  -7   4  -5   25.50    2.30
   7   4   5   22.70    1.60
  -7   4  -5   19.60    2.00
   7   4   5   26.10    1.80
   7  -4  -5   22.90    1.90
   8   4  -5   79.59    3.20
   8   4  -5   76.69    3.50
   8   4  -5   76.29    3.30
   8   4  -5   75.39    3.50
   8  -4   5   77.19    3.40
   8   4  -5   70.19    3.50
   8  -4   5   64.79    3.50
  -8  -4  -5   71.69    3.10
   8  -4   5   71.29    3.20
  -8  -4  -5   73.59    3.20
  -8   4  -5   71.29    3.70
  -8   4  -5   71.39    3.50
   8  -4  -5   75.59    3.40
   8  -4  -5   73.49    3.40
   8  -4  -5   79.19    3.30
   8   4   5   73.69    3.60
   8  -4  -5   74.69    3.20
   8   4   5   71.49    3.00
   9  -4   5   -0.80    1.10
   9   4  -5    0.30    1.10
   9  -4   5   -0.90    0.90
   9   4  -5    1.70    1.20
   9   4  -5    1.80    1.20
   9  -4   5   -0.20    1.00
   9   4  -5   -0.40    1.10
   9   4   5    1.50    1.30
   9   4   5   -0.40    0.80
   9  -4  -5   -0.50    1.00
  -9   4  -5   -2.30    1.30
   9  -4  -5   -0.40    1.20
   9  -4  -5    0.90    1.10
   9  -4  -5   -0.20    1.10
  -9   4  -5    1.40    1.30
  10   4  -5   36.90    3.00
  10   4  -5   35.60    2.60
  10  -4   5   37.60    2.90
  10   4  -5   31.10    2.80
  10  -4   5   31.50    2.70
  10   4  -5   32.10    2.80
  10   4   5   32.00    2.90
  10  -4  -5   38.60    2.80
  10  -4  -5   34.50    2.80
 -10   4  -5   35.50    3.30
  10   4   5   34.20    2.60
  10  -4  -5   35.40    2.80
   0   5  -5    0.30    0.50
   0   5   5    1.30    0.20
   0   5  -5    0.20    0.40
   0  -5   5    0.40    0.40
   0  -5   5    0.60    0.40
   0   5  -5    0.90    0.60
   0  -5  -5    1.50    0.30
   0  -5   5    0.80    0.20
   0   5   5    0.40    0.40
   0  -5   5    1.20    0.60
   0  -5  -5    1.50    0.50
   0  -5  -5    0.80    0.50
   0   5  -5    0.40    0.40
   1   5  -5   40.40    1.80
  -1  -5  -5   40.90    1.70
   1   5  -5   42.70    1.60
  -1  -5  -5   44.80    1.40
  -1   5   5   44.30    1.50
  -1   5   5   43.70    1.00
   1   5  -5   41.80    1.60
  -1  -5  -5   40.90    1.20
   1  -5   5   43.90    1.70
   1  -5   5   43.90    1.10
   1  -5   5   42.90    1.50
   1  -5   5   42.60    1.90
  -1  -5  -5   42.70    1.20
   1   5  -5   42.20    1.80
   1  -5  -5   42.10    1.40
  -1  -5   5   43.40    1.40
   1  -5  -5   41.50    1.70
  -1   5  -5   42.50    1.90
   1  -5  -5   41.40    1.50
  -1  -5   5   44.00    1.90
  -1   5  -5   42.20    1.40
   1   5   5   42.90    1.60
  -1  -5   5   43.30    1.60
  -1   5  -5   43.40    1.70
   1  -5  -5   44.10    1.10
  -1   5  -5   45.80    1.70
  -2  -5  -5  580.54    8.80
  -2  -5  -5  562.64    8.90
   2   5  -5  586.54   10.00
  -2  -5  -5  573.44    9.10
   2  -5   5  574.74   10.20
   2  -5   5  566.84    9.30
   2  -5   5  589.44    9.00
   2   5  -5  572.84   10.00
  -2  -5  -5  571.14    9.90
  -2   5   5  567.24    9.10
  -2   5   5  589.84    8.70
   2  -5   5  574.44   10.00
   2   5  -5  581.04    9.80
   2  -5  -5  571.84    9.60
   2  -5  -5  577.24    9.10
   2  -5  -5  566.54    9.00
  -2   5  -5  556.84   10.10
  -2  -5   5  560.14    9.60
   2  -5  -5  583.24    9.30
   2  -5  -5  571.84    9.80
  -2  -5   5  574.84   10.10
   2   5   5  562.64    9.10
   2  -5  -5  565.14    8.90
   2   5   5  559.54    9.60
  -2  -5   5  572.04    8.90
  -2   5  -5  569.24    9.70
  -3  -5  -5  107.59    2.40
   3   5  -5  106.79    2.90
   3   5  -5  108.29    3.20
  -3   5   5  112.09    2.40
   3   5  -5  109.59    3.20
   3  -5   5  113.89    2.90
  -3  -5  -5  105.99    3.10
   3   5  -5  110.59    3.20
  -3  -5  -5  111.39    2.20
   3  -5   5  108.69    2.60
   3   5  -5  110.19    2.50
  -3   5   5  113.49    2.50
   3  -5   5  117.19    2.70
   3  -5   5  111.29    3.40
   3  -5  -5  111.99    2.90
   3  -5  -5  110.19    2.80
   3   5   5  112.39    2.70
   3  -5  -5  110.49    2.60
   3  -5  -5  113.39    2.30
   3  -5  -5  110.29    2.40
  -3   5  -5  106.19    3.10
  -3   5  -5  111.59    3.50
   3   5   5  108.39    2.90
  -3  -5   5  108.69    2.20
  -3  -5   5  115.19    3.10
   3  -5  -5  108.19    3.10
   3   5   5  108.99    2.50
  -3  -5   5  108.79    3.30
   4  -5   5   96.19    3.20
  -4  -5  -5   95.09    2.30
   4   5  -5   88.49    2.80
   4   5  -5   92.69    3.10
   4   5  -5   85.39    3.10
   4   5  -5   92.39    3.00
   4   5  -5   95.09    2.50
   4  -5   5   94.79    2.80
   4  -5   5   92.19    2.40
  -4   5   5   94.29    2.00
   4  -5   5   94.09    2.60
  -4  -5  -5   92.09    3.00
  -4   5  -5   96.89    3.00
   4  -5  -5   96.09    2.70
   4  -5  -5   90.79    2.60
   4  -5  -5   96.39    2.20
  -4  -5   5   90.39    2.80
   4   5   5   96.79    2.80
   4   5   5   91.79    2.80
   4   5   5   95.49    2.50
  -4   5  -5   92.39    3.30
   4   5   5   92.99    3.00
  -4  -5   5   96.29    3.10
   4   5   5   92.19    2.60
   4  -5  -5   91.19    2.90
   5  -5   5   14.80    1.40
   5  -5   5   15.40    1.30
   5   5  -5   17.10    1.70
  -5  -5  -5   16.60    1.40
   5   5  -5   14.80    1.30
   5   5  -5   15.90    1.60
   5   5  -5   15.80    1.50
   5   5  -5   14.30    1.50
  -5  -5  -5   15.90    1.20
   5  -5   5   15.50    1.00
   5  -5   5   13.50    1.50
   5  -5  -5   18.60    1.40
   5  -5  -5   15.80    1.40
  -5  -5   5   14.30    1.40
   5  -5  -5   16.60    1.40
  -5   5  -5   17.10    1.80
  -5   5  -5   15.20    1.50
   5   5   5   14.90    1.30
   5   5   5   17.00    1.20
   5   5   5   17.20    1.60
  -5  -5   5   13.90    1.40
   5   5   5   15.50    1.20
   5  -5  -5   12.40    1.30
   5   5   5   16.00    1.40
  -6  -5  -5  149.49    4.30
   6   5  -5  146.19    4.00
   6   5  -5  150.68    4.60
   6   5  -5  143.99    4.40
   6  -5   5  153.08    4.20
   6  -5   5  148.09    4.70
   6  -5   5  150.78    4.20
  -6  -5  -5  157.38    3.80
   6   5  -5  151.88    4.10
   6   5  -5  150.18    4.60
   6   5   5  154.18    4.00
   6  -5  -5  146.09    4.50
   6   5   5  156.98    4.40
   6   5   5  151.18    3.90
   6  -5  -5  158.38    4.00
   6  -5  -5  151.98    4.00
  -6   5  -5  148.89    4.40
  -6  -5   5  151.38    4.20
   6  -5  -5  142.99    4.30
   6   5   5  159.08    4.70
   6   5   5  152.58    3.80
  -6   5  -5  143.59    4.80
   6  -5  -5  154.88    4.10
   7   5  -5   -0.10    1.00
  -7  -5  -5    0.70    1.00
   7   5  -5   -0.10    0.90
   7  -5   5    0.30    0.80
   7  -5   5    0.90    0.80
  -7  -5  -5    1.70    0.90
   7   5  -5    1.20    0.90
   7   5  -5    0.10    0.90
   7   5  -5   -0.40    0.70
   7  -5   5    0.80    1.00
   7  -5  -5   -1.50    0.80
   7   5   5   -0.80    0.90
   7   5   5    0.00    0.70
   7   5   5   -0.10    0.80
   7  -5  -5   -0.10    0.80
  -7   5  -5    2.00    1.20
   7  -5  -5    1.50    1.00
   7   5   5    0.10    0.80
   7  -5  -5    0.40    0.70
  -7   5  -5    0.80    1.00
   8   5  -5    4.40    1.30
   8   5  -5    4.40    1.20
   8  -5   5    4.70    1.30
   8  -5   5    2.70    1.10
   8   5  -5    2.50    1.20
  -8  -5  -5    5.20    1.20
   8   5  -5    2.80    1.30
   8   5  -5    2.60    1.10
   8  -5   5    4.50    1.30
   8  -5  -5    3.10    1.20
   8  -5  -5    5.90    1.20
  -8   5  -5    4.70    1.40
   8  -5  -5    3.60    1.20
   8  -5  -5    4.30    1.20
  -8   5  -5    6.60    1.70
   8   5   5    4.00    1.10
   8   5   5    3.00    1.60
   8   5   5    5.90    1.50
   9  -5   5   22.60    2.40
   9   5  -5   19.70    2.20
   9   5  -5   18.60    2.20
   9  -5   5   18.80    2.10
  -9  -5  -5   23.40    2.20
   9   5  -5   19.10    2.00
   9   5  -5   25.10    2.50
   9  -5   5   20.20    2.50
   9   5   5   19.00    2.50
   9  -5  -5   22.20    2.40
  -9   5  -5   24.00    2.70
   9  -5  -5   26.50    2.40
  -9   5  -5   23.60    2.70
   9   5   5   21.90    2.20
   9  -5  -5   28.00    2.50
  10   5  -5   29.40    2.80
  10  -5   5   23.80    2.50
  10   5  -5   27.80    2.80
  10   5  -5   24.10    2.40
  10   5  -5   25.90    2.80
  10  -5   5   28.60    2.80
 -10   5  -5   27.80    3.10
  10  -5  -5   24.90    2.60
  10   5   5   26.50    2.50
  10  -5  -5   25.80    2.50
  10  -5  -5   26.30    2.50
  10   5   5   32.30    3.20
   0  -6  -5  115.99    2.80
   0   6  -5  108.89    3.30
   0  -6   5  120.99    2.20
   0   6  -5  115.09    2.90
   0   6  -5  111.69    2.80
   0   6   5  109.99    2.80
   0   6   5  118.29    2.30
   0   6  -5  111.59    3.10
   0  -6  -5  118.29    3.20
   0  -6  -5  115.49    2.30
   0  -6   5  114.89    2.90
   0  -6   5  118.09    2.90
   0  -6  -5  113.39    2.90
   0  -6   5  119.09    3.50
   1   6  -5  344.67    6.30
   1   6  -5  349.17    7.00
   1  -6   5  344.17    7.10
  -1  -6  -5  356.56    5.90
  -1  -6  -5  351.76    6.10
   1  -6   5  352.36    6.70
   1   6  -5  348.97    6.50
   1  -6   5  366.76    5.70
  -1   6   5  360.86    5.60
   1   6  -5  344.07    6.80
  -1  -6  -5  345.37    6.70
  -1   6   5  355.76    6.30
  -1  -6  -5  358.66    5.60
   1  -6   5  347.67    6.40
   1  -6  -5  358.16    5.90
   1  -6  -5  352.66    6.70
  -1  -6   5  351.66    6.30
  -1  -6   5  346.27    7.10
  -1   6  -5  353.26    6.50
  -1  -6   5  358.06    6.60
  -1   6  -5  350.86    6.30
  -1   6  -5  355.46    7.10
  -1   6  -5  363.46    6.70
   1  -6  -5  355.16    6.50
   1  -6  -5  359.86    5.80
   1  -6  -5  356.06    6.30
   1   6   5  353.96    6.50
  -2   6   5  342.67    6.10
   2  -6   5  353.66    7.20
  -2  -6  -5  358.56    6.20
  -2  -6  -5  352.86    6.00
   2  -6   5  359.16    6.40
  -2   6   5  357.76    5.80
   2  -6   5  364.76    6.00
   2   6  -5  355.46    7.10
  -2  -6  -5  361.16    5.60
   2   6  -5  352.16    6.80
   2  -6   5  358.46    7.00
   2   6  -5  353.36    7.00
  -2  -6  -5  343.07    6.90
   2  -6  -5  354.66    6.70
   2  -6  -5  353.36    6.70
   2   6   5  357.76    6.10
  -2  -6   5  348.27    6.10
  -2  -6   5  351.46    6.70
   2  -6  -5  360.16    6.10
   2  -6  -5  356.66    6.00
  -2   6  -5  354.66    6.70
  -2   6  -5  344.17    7.20
  -2   6  -5  356.96    6.60
   2  -6  -5  362.56    6.20
   2  -6  -5  349.77    6.80
  -2  -6   5  358.26    7.30
   2  -6  -5  359.16    5.90
   2   6   5  344.57    6.60
   3   6  -5  222.18    5.20
   3  -6   5  216.38    5.20
   3  -6   5  223.28    4.60
   3   6  -5  219.98    5.10
   3  -6   5  225.18    4.40
   3   6  -5  213.38    5.00
  -3   6   5  221.68    4.20
  -3  -6  -5  218.68    3.80
  -3   6   5  221.88    4.10
  -3  -6  -5  216.68    4.00
   3  -6   5  218.98    4.50
   3   6  -5  214.98    4.60
  -3  -6  -5  223.28    5.10
   3  -6  -5  219.38    4.80
   3   6   5  224.68    4.50
  -3   6  -5  224.08    4.90
  -3   6  -5  218.18    5.40
   3  -6  -5  221.98    4.40
   3  -6  -5  221.08    3.90
   3  -6  -5  224.38    4.00
  -3  -6   5  220.58    5.30
  -3  -6   5  211.78    4.80
   3  -6  -5  218.58    5.00
   3   6   5  219.18    4.80
  -3  -6   5  223.48    4.00
  -4  -6  -5  154.48    3.10
   4   6  -5  140.99    4.10
   4  -6   5  155.98    3.60
   4  -6   5  149.99    4.30
   4   6  -5  151.48    4.30
   4   6  -5  152.38    4.20
  -4  -6  -5  145.39    4.10
  -4   6   5  147.99    2.90
   4  -6   5  153.78    3.80
   4   6  -5  141.39    3.70
   4  -6   5  154.78    3.50
   4   6   5  149.99    3.30
  -4   6  -5  154.28    4.10
   4  -6  -5  154.88    3.90
  -4  -6   5  156.68    4.30
   4  -6  -5  147.89    3.50
  -4   6  -5  149.39    4.40
  -4  -6   5  150.18    3.90
   4  -6  -5  146.19    4.00
   4   6   5  147.49    4.10
   4   6   5  146.29    3.80
   4   6   5  152.88    3.80
   4   6   5  151.08    3.70
   5  -6   5  393.36    7.60
   5  -6   5  401.96    8.60
   5   6  -5  398.96    8.40
   5  -6   5  403.16    7.20
   5   6  -5  408.16    7.60
   5   6  -5  399.86    8.30
   5   6  -5  398.76    7.60
   5   6  -5  393.46    8.20
  -5  -6  -5  389.56    8.10
  -5  -6  -5  445.76    9.00
   5  -6   5  395.26    7.80
  -5  -6   5  399.36    7.90
   5   6   5  410.96    8.40
  -5  -6   5  399.66    8.20
   5  -6  -5  404.16    8.20
   5  -6  -5  389.56    8.20
   5  -6  -5  407.66    7.80
   5  -6  -5  406.26    7.60
   5   6   5  403.06    7.60
  -5   6  -5  395.76    8.10
   5   6   5  398.26    7.80
   5   6   5  390.16    7.20
  -5   6  -5  400.16    8.70
   5   6   5  404.36    7.90
   6   6  -5   19.60    1.80
   6  -6   5   21.20    1.60
   6   6  -5   22.70    2.10
   6  -6   5   26.10    1.80
   6  -6   5   23.00    2.20
   6  -6   5   23.70    1.40
   6   6  -5   24.10    1.70
   6   6  -5   24.10    1.70
   6   6  -5   21.20    2.00
  -6  -6  -5   22.10    1.80
   6  -6  -5   20.80    1.60
   6   6   5   20.60    1.40
   6   6   5   24.20    1.50
   6  -6  -5   22.20    1.70
  -6  -6   5   21.70    1.90
   6   6   5   23.90    2.00
   6   6   5   21.60    1.70
   6  -6  -5   23.60    1.90
  -6   6  -5   22.80    2.00
  -6   6  -5   19.40    2.00
   6  -6  -5   24.20    1.90
   6  -6  -5   23.50    1.70
   7   6  -5    1.30    0.90
   7   6  -5   -1.10    0.80
   7   6  -5   -1.30    0.80
  -7  -6  -5   -0.60    0.80
   7  -6   5   -0.40    0.70
   7   6  -5   -0.20    0.80
   7  -6   5   -0.70    0.80
   7  -6   5   -0.60    0.90
   7   6  -5    0.30    1.10
  -7   6  -5   -0.50    0.90
   7   6   5    0.30    0.60
   7  -6  -5   -0.30    0.80
  -7   6  -5    0.00    1.00
   7  -6  -5    0.10    0.70
   7   6   5   -0.20    0.80
   7   6   5   -1.50    0.60
   7   6   5    0.10    0.60
  -7  -6   5    0.50    0.80
   7  -6  -5   -0.50    0.90
   7  -6  -5    0.00    0.90
   8  -6   5   11.70    1.70
   8   6  -5    8.20    1.70
   8   6  -5    8.20    1.50
   8  -6   5    8.70    1.70
  -8  -6  -5   10.50    1.60
   8   6  -5    8.50    1.70
   8  -6   5    8.70    1.50
   8   6  -5   10.70    1.60
   8   6  -5    9.60    1.50
   8   6   5   10.50    1.40
   8  -6  -5    7.50    1.50
  -8   6  -5    8.40    1.80
  -8   6  -5    8.00    1.60
   8  -6  -5   10.00    1.60
   8  -6  -5   11.40    1.80
   8  -6  -5    9.50    1.40
   8   6   5    7.00    1.30
   9   6  -5    5.40    1.40
   9   6  -5    2.50    1.30
   9  -6   5    4.30    1.30
  -9  -6  -5    5.20    1.40
   9  -6   5    1.70    1.10
   9   6  -5    4.80    1.20
   9   6  -5    5.00    1.50
   9  -6   5    3.70    1.50
   9  -6  -5    4.80    1.30
   9  -6  -5    1.50    1.30
   9  -6  -5    2.50    1.20
  -9   6  -5    3.20    1.70
   9  -6  -5    2.10    1.20
   9   6   5    2.10    1.00
  10   6  -5   87.99    3.80
  10   6  -5   85.89    4.20
  10   6  -5   88.69    4.50
  10  -6   5   90.99    4.20
  10   6  -5   92.39    4.40
  10  -6   5   86.69    4.10
  10  -6  -5   82.79    4.10
  10  -6  -5   81.69    3.80
 -10   6  -5   80.79    5.00
  10  -6  -5   87.69    3.90
  10  -6  -5   89.39    4.30
  10   6   5   81.49    3.60
   0  -7  -5  168.48    3.80
   0  -7   5  166.38    4.50
   0  -7   5  182.58    4.10
   0  -7  -5  174.18    3.20
   0   7  -5  172.98    4.40
   0   7  -5  171.18    3.80
   0   7  -5  172.28    3.90
   0  -7  -5  168.78    4.20
   0  -7   5  178.78    4.10
   0   7  -5  179.08    4.10
   0  -7  -5  173.38    3.40
   0  -7   5  176.88    3.20
   0   7   5  171.48    3.90
   0  -7  -5  175.28    4.00
  -1  -7  -5   63.89    1.90
   1   7  -5   65.19    2.10
   1   7  -5   63.89    2.30
  -1   7   5   68.99    1.70
  -1  -7  -5   64.09    2.00
  -1  -7  -5   62.59    2.30
  -1  -7  -5   65.59    1.40
  -1   7   5   68.49    2.10
   1  -7   5   71.69    1.80
   1   7  -5   64.39    2.40
   1  -7   5   64.99    2.60
   1  -7   5   69.69    2.50
   1  -7   5   65.89    2.20
   1   7  -5   65.59    2.60
   1   7   5   63.99    2.20
   1  -7  -5   66.39    2.20
  -1  -7   5   68.79    2.20
  -1   7  -5   69.09    2.70
  -1   7  -5   68.09    2.20
   1  -7  -5   65.59    1.80
   1  -7  -5   63.69    2.40
   1  -7  -5   65.79    1.70
   1   7   5   67.49    1.80
  -1  -7   5   67.79    2.70
  -1  -7   5   67.89    2.30
   1  -7  -5   64.79    2.10
  -1   7  -5   66.19    2.30
  -2  -7  -5   11.10    0.90
   2  -7   5   13.20    1.40
   2  -7   5   13.20    1.30
  -2  -7  -5   13.50    1.40
   2   7  -5   11.40    1.20
   2   7  -5   10.50    1.20
  -2   7   5   12.30    1.00
   2   7  -5   11.60    1.20
   2   7  -5   12.20    1.10
   2  -7   5   14.90    1.10
   2   7  -5   14.00    1.10
   2  -7   5   13.90    0.90
  -2  -7   5   11.80    1.10
  -2   7  -5   10.40    1.10
   2  -7  -5   12.80    0.90
   2   7   5   11.90    1.10
  -2   7  -5   13.60    1.20
   2  -7  -5   13.50    1.30
  -2   7  -5   15.60    1.60
  -2  -7   5   15.50    1.70
   2  -7  -5   12.40    0.90
  -2  -7   5   14.30    1.00
   2  -7  -5   12.70    1.30
   2  -7  -5   11.60    1.10
   2   7   5   14.60    1.00
   2  -7  -5   12.40    1.00
   3  -7   5  327.07    7.10
   3  -7   5  337.97    6.10
   3   7  -5  340.97    7.00
  -3   7   5  335.47    5.90
   3   7  -5  336.67    6.90
   3  -7   5  331.77    6.30
   3   7  -5  337.97    6.30
  -3  -7  -5  325.97    6.90
  -3  -7  -5  328.77    5.80
   3   7  -5  336.07    7.20
   3  -7   5  323.47    7.00
  -3  -7   5  328.37    6.70
   3  -7  -5  335.17    6.80
   3  -7  -5  335.67    5.90
   3   7   5  337.77    6.30
  -3  -7   5  328.77    7.20
   3   7   5  332.77    6.60
  -3  -7   5  336.27    5.90
  -3   7  -5  333.97    6.30
   3  -7  -5  336.07    6.90
  -3   7  -5  326.07    7.30
   3  -7  -5  331.77    5.80
   3  -7  -5  339.17    6.80
  -3   7  -5  329.57    6.70
  -4  -7  -5  144.19    4.20
   4   7  -5  152.08    4.40
   4  -7   5  155.28    3.70
   4  -7   5  150.48    3.60
   4   7  -5  147.69    4.20
   4   7  -5  151.08    3.70
   4  -7   5  150.08    4.50
   4  -7   5  153.88    3.80
   4   7  -5  146.09    4.30
  -4   7  -5  156.28    4.70
  -4   7  -5  146.69    4.10
   4   7   5  146.29    3.90
   4   7   5  150.38    3.30
   4  -7  -5  153.58    4.10
  -4  -7   5  141.59    3.90
   4  -7  -5  150.18    4.20
   4   7   5  147.39    3.90
   4  -7  -5  151.08    4.20
   4  -7  -5  154.18    3.60
  -4  -7   5  156.68    4.50
   4   7   5  145.09    4.20
   5  -7   5  158.18    3.90
  -5  -7  -5  165.58    4.70
   5   7  -5  164.28    4.00
   5   7  -5  157.78    4.60
   5  -7   5  159.38    4.90
   5   7  -5  156.18    4.80
   5   7  -5  157.18    4.70
   5  -7   5  159.98    4.10
   5  -7   5  155.98    4.20
  -5  -7   5  159.48    4.70
  -5   7  -5  163.58    4.50
   5  -7  -5  163.78    4.00
   5   7   5  166.58    4.30
  -5   7  -5  160.28    5.00
   5   7   5  163.18    4.70
  -5  -7   5  162.88    4.40
   5   7   5  157.18    3.70
   5  -7  -5  164.38    4.60
   5  -7  -5  162.78    4.40
   5   7   5  158.68    4.20
   5  -7  -5  163.88    4.50
   6  -7   5   32.80    1.90
   6  -7   5   33.10    2.10
   6  -7   5   38.40    1.80
   6   7  -5   34.10    2.20
   6   7  -5   31.00    2.00
   6   7  -5   33.70    2.50
   6   7  -5   31.60    2.40
   6   7  -5   34.20    2.10
   6  -7   5   31.10    2.40
  -6  -7  -5   27.90    2.10
   6  -7  -5   32.80    2.10
   6   7   5   31.10    1.70
  -6   7  -5   33.40    2.20
  -6  -7   5   28.60    2.00
  -6  -7   5   30.30    2.20
   6   7   5   34.90    2.30
   6  -7  -5   32.40    2.30
   6  -7  -5   31.80    2.10
   6  -7  -5   33.60    2.00
   6  -7  -5   29.20    2.20
   6   7   5   34.00    2.00
   6   7   5   29.80    1.90
  -6   7  -5   31.70    2.60
  -7  -7  -5   27.50    2.20
   7   7  -5   29.60    2.00
   7   7  -5   27.20    2.30
   7   7  -5   27.20    1.80
   7   7  -5   26.90    2.10
   7  -7   5   28.20    2.50
   7   7  -5   28.70    2.50
   7   7  -5   28.80    2.50
   7  -7   5   26.10    2.10
   7  -7   5   27.40    2.00
   7   7   5   30.50    1.90
   7  -7  -5   26.50    2.00
   7  -7  -5   22.50    2.20
   7  -7  -5   26.40    2.10
  -7   7  -5   29.00    2.40
   7   7   5   26.50    1.70
  -7  -7   5   28.00    2.20
   7   7   5   23.10    2.00
   7   7   5   28.10    2.40
  -7   7  -5   29.30    2.70
   7  -7  -5   24.60    2.20
   7  -7  -5   25.60    1.90
  -8  -7  -5   75.29    3.60
   8   7  -5   75.49    3.10
   8  -7   5   72.39    3.90
   8   7  -5   78.49    3.50
   8  -7   5   78.09    3.40
   8   7  -5   74.69    3.70
   8  -7   5   80.29    3.50
   8   7  -5   79.09    3.80
   8   7  -5   72.19    3.90
   8   7   5   75.39    3.10
   8  -7  -5   74.09    3.60
  -8   7  -5   77.19    4.10
   8   7   5   74.29    3.00
   8  -7  -5   78.39    3.50
   8  -7  -5   76.59    3.30
   8  -7  -5   81.29    3.80
   8  -7  -5   80.09    3.30
  -8   7  -5   73.89    3.90
   9  -7   5   65.69    3.50
   9   7  -5   68.59    3.70
   9   7  -5   66.69    3.70
   9  -7   5   62.19    3.40
   9   7  -5   59.49    3.00
  -9  -7  -5   65.69    3.40
   9  -7   5   62.09    3.80
   9   7  -5   57.59    4.00
   9  -7  -5   64.59    3.30
  -9   7  -5   68.79    4.00
   9  -7  -5   66.59    3.50
   9  -7  -5   61.79    3.40
   9  -7  -5   62.89    3.60
  10   7  -5   32.10    2.80
  10  -7   5   28.90    2.80
  10  -7   5   28.50    2.80
  10  -7   5   29.40    3.50
  10   7  -5   34.30    2.40
  10  -7  -5   28.30    2.70
  10  -7  -5   31.70    2.90
  10  -7  -5   29.80    2.70
   0   8  -5  100.29    3.00
   0   8  -5  104.79    2.80
   0  -8  -5  101.09    3.00
   0  -8  -5   99.59    2.80
   0  -8   5  101.09    3.50
   0  -8  -5   99.69    3.30
   0  -8   5  102.19    3.00
   0  -8   5  108.79    2.40
   0  -8   5  106.79    3.10
   0   8   5  102.89    2.90
   0   8  -5  103.09    3.00
   0   8  -5  102.29    3.50
  -1  -8  -5  167.28    4.20
  -1   8   5  166.58    3.80
   1   8  -5  152.88    4.00
   1   8  -5  159.88    4.10
  -1  -8  -5  154.58    4.30
   1  -8   5  157.88    3.90
   1  -8   5  157.98    4.20
   1  -8   5  166.18    3.30
  -1  -8  -5  160.18    3.70
   1  -8   5  158.58    4.50
   1   8  -5  161.88    3.60
   1   8  -5  158.38    4.40
   1  -8  -5  158.98    3.90
  -1   8  -5  163.18    3.80
  -1  -8   5  162.48    4.10
  -1  -8   5  161.28    4.60
  -1   8  -5  162.38    3.90
   1   8   5  152.68    3.90
  -1   8  -5  166.48    4.60
  -1  -8   5  161.78    3.90
   1  -8  -5  163.88    4.30
   1  -8  -5  156.08    3.90
  -2  -8  -5   25.20    1.70
   2   8  -5   24.60    1.90
   2  -8   5   26.40    1.80
   2  -8   5   25.50    1.80
   2  -8   5   26.00    1.30
   2   8  -5   25.60    1.40
   2   8  -5   25.60    1.40
  -2   8   5   23.70    1.30
   2  -8   5   25.20    1.50
   2   8  -5   24.50    1.70
   2   8  -5   22.70    1.60
  -2  -8  -5   24.70    1.40
  -2  -8   5   27.50    1.60
  -2   8  -5   27.70    2.00
  -2  -8   5   27.30    1.40
   2  -8  -5   26.90    1.10
   2  -8  -5   24.40    1.70
   2   8   5   24.20    1.50
   2  -8  -5   24.50    1.40
  -2   8  -5   26.30    1.60
   2  -8  -5   24.40    1.60
  -2   8  -5   24.10    1.50
  -2  -8   5   27.30    2.00
   2  -8  -5   25.10    1.70
   3   8  -5   42.30    1.80
  -3  -8  -5   43.50    2.30
   3   8  -5   43.90    1.70
   3  -8   5   42.30    2.40
   3   8  -5   41.60    2.30
   3  -8   5   39.40    1.90
   3  -8   5   42.00    1.70
   3   8  -5   47.80    2.30
   3   8  -5   40.90    2.40
   3  -8   5   43.20    2.30
  -3  -8  -5   42.10    1.70
  -3   8   5   44.30    1.60
   3  -8  -5   45.20    1.60
   3  -8  -5   43.10    2.20
   3  -8  -5   45.60    1.70
  -3   8  -5   43.30    1.80
  -3  -8   5   44.20    1.70
  -3   8  -5   40.70    2.40
   3   8   5   44.30    2.10
   3  -8  -5   42.50    2.10
  -3  -8   5   46.10    2.20
  -3  -8   5   42.00    2.50
   3  -8  -5   44.90    2.20
  -3   8  -5   42.20    2.10
   4   8  -5   24.00    1.60
   4  -8   5   25.10    1.60
   4  -8   5   26.00    1.90
   4   8  -5   24.10    1.90
   4  -8   5   23.00    1.50
  -4  -8  -5   21.90    1.80
   4   8  -5   22.30    2.00
   4   8  -5   21.70    1.70
   4  -8   5   24.60    1.40
  -4   8  -5   22.70    1.70
  -4   8  -5   23.10    2.10
   4  -8  -5   24.00    1.40
  -4  -8   5   25.30    1.70
  -4  -8   5   24.40    2.00
   4  -8  -5   26.20    1.90
   4   8   5   22.40    1.70
   4  -8  -5   24.70    1.80
   4   8   5   24.20    1.70
   4  -8  -5   19.20    1.70
   5  -8   5   97.39    3.20
   5  -8   5  103.39    3.10
   5   8  -5  104.09    3.70
   5   8  -5  105.49    3.10
  -5  -8  -5  100.99    3.70
   5   8  -5   98.89    3.90
   5  -8   5  102.19    3.20
   5  -8   5   98.89    3.90
   5   8  -5  103.59    3.80
   5  -8  -5  103.59    3.00
   5   8   5   98.29    3.30
   5  -8  -5  102.09    3.60
   5  -8  -5   99.69    3.50
  -5  -8   5  104.09    3.90
   5   8   5  100.29    3.40
  -5  -8   5   99.09    3.40
  -5   8  -5  100.19    4.00
   5  -8  -5  101.39    3.70
   5   8   5  100.89    3.70
  -5   8  -5   98.99    3.50
   6   8  -5   23.40    1.80
   6  -8   5   27.90    2.40
   6  -8   5   26.20    1.90
   6  -8   5   26.40    1.90
  -6  -8  -5   25.60    2.20
   6   8  -5   28.80    2.40
   6  -8   5   28.90    1.70
   6   8  -5   24.60    2.20
   6   8  -5   23.80    2.10
   6  -8  -5   23.80    2.10
  -6  -8   5   24.20    2.20
   6  -8  -5   24.80    2.10
  -6   8  -5   27.90    2.20
   6   8   5   29.40    2.30
   6  -8  -5   21.20    2.00
  -6   8  -5   27.40    2.50
   6   8   5   25.90    2.00
   6  -8  -5   24.80    2.10
   6   8   5   25.40    1.90
   6  -8  -5   27.20    1.80
  -6  -8   5   21.70    1.90
   7   8  -5   17.30    2.10
   7  -8   5   17.30    2.30
   7  -8   5   19.50    2.00
   7  -8   5   17.50    1.90
  -7  -8  -5   19.90    2.20
   7   8  -5   18.60    1.70
   7   8  -5   17.60    2.00
   7   8  -5   17.60    2.20
   7   8  -5   20.30    1.80
   7  -8  -5   19.50    2.10
   7  -8  -5   23.30    3.10
   7  -8  -5   19.20    2.10
   7   8   5   18.60    1.70
   7  -8  -5   17.50    2.00
   7   8   5   17.60    1.80
   7   8   5   16.10    2.00
   7  -8  -5   18.70    1.80
  -7  -8   5   19.10    2.10
  -7   8  -5   17.30    2.10
  -7   8  -5   18.50    2.30
   8   8  -5   24.20    2.00
   8  -8   5   27.10    2.30
  -8  -8  -5   18.50    2.20
   8  -8   5   28.20    2.30
   8  -8   5   23.70    2.60
   8   8  -5   30.50    2.60
   8   8  -5   20.30    2.30
  -8   8  -5   22.20    2.50
   8  -8  -5   21.00    2.20
   8  -8  -5   24.90    2.10
   8  -8  -5   27.20    2.50
  -8   8  -5   23.20    2.60
   8   8   5   21.60    2.10
   8  -8  -5   28.50    2.70
   9   8  -5   51.89    3.40
   9  -8   5   54.49    3.70
   9  -8   5   55.39    3.20
  -9  -8  -5   54.99    3.40
   9  -8   5   52.19    3.20
   9   8  -5   60.49    3.70
   9   8  -5   59.09    2.90
   9  -8  -5   50.09    3.30
   9  -8  -5   57.89    3.20
  -9   8  -5   48.70    3.60
   9  -8  -5   57.79    3.10
   9  -8  -5   55.99    3.50
   0  -9   5    1.20    0.70
   0  -9   5    0.90    0.80
   0   9  -5    2.50    0.90
   0   9   5    1.10    0.60
   0   9  -5    0.90    0.60
   0  -9  -5    0.60    0.70
   0   9  -5    0.90    0.90
   0  -9   5    0.70    0.70
   0   9  -5    0.30    0.70
   0  -9  -5    0.00    0.60
   0  -9  -5    0.50    0.70
   0  -9   5    0.80    0.40
   1  -9   5  250.67    6.20
  -1  -9  -5  248.38    5.20
  -1  -9  -5  248.68    5.70
   1   9  -5  250.37    4.90
  -1  -9  -5  236.38    5.80
   1  -9   5  237.78    5.40
   1   9  -5  248.38    6.10
   1  -9   5  254.67    4.80
   1   9  -5  248.88    5.60
  -1   9   5  246.48    5.20
   1   9  -5  251.47    5.40
   1  -9   5  249.78    5.80
  -1  -9   5  242.68    5.50
  -1  -9   5  253.37    5.50
  -1   9  -5  244.58    6.10
   1   9   5  238.58    5.40
  -1  -9   5  248.68    6.30
  -1   9  -5  234.48    5.10
  -1   9  -5  247.78    5.20
   1  -9  -5  230.78    5.70
   1  -9  -5  240.98    5.40
   1  -9  -5  240.08    5.30
   2  -9   5  107.09    3.70
   2   9  -5  105.39    3.40
  -2   9   5  112.69    3.00
  -2  -9  -5  112.89    3.70
   2   9  -5  108.69    3.80
   2  -9   5  114.49    2.90
  -2  -9  -5  114.89    3.70
   2  -9   5  110.99    3.30
   2  -9   5  110.79    3.70
   2   9  -5  114.29    2.90
  -2  -9  -5  110.79    3.00
   2   9  -5  115.69    3.60
   2   9  -5  115.49    2.90
   2  -9  -5  106.69    3.60
   2   9   5  109.99    3.40
  -2   9  -5  111.49    3.20
  -2  -9   5  111.39    3.20
  -2   9  -5  114.79    4.00
   2  -9  -5  115.49    3.50
   2  -9  -5  112.79    3.20
  -2   9  -5  112.99    3.00
  -2  -9   5  108.29    3.90
   2  -9  -5  116.29    3.70
  -3  -9  -5  242.08    6.00
   3  -9   5  242.28    5.00
   3  -9   5  243.28    6.10
   3   9  -5  239.68    4.90
  -3   9   5  244.88    4.90
   3   9  -5  241.58    5.70
   3   9  -5  247.88    6.00
   3  -9   5  238.58    6.10
   3   9  -5  245.68    6.20
   3   9  -5  248.28    5.00
  -3  -9  -5  239.18    5.00
   3  -9   5  233.68    5.40
   3  -9  -5  234.98    5.80
  -3   9  -5  243.28    6.30
   3   9   5  248.88    5.70
  -3  -9   5  237.18    5.60
   3  -9  -5  240.78    5.70
  -3  -9   5  243.08    6.40
   3  -9  -5  245.38    5.80
   3  -9  -5  244.18    5.90
  -3  -9   5  241.48    5.10
  -3   9  -5  242.78    5.50
   4   9  -5   34.30    2.20
   4  -9   5   34.30    1.90
   4   9  -5   33.20    2.30
  -4  -9  -5   32.00    2.30
   4   9  -5   34.70    1.80
   4  -9   5   31.60    2.30
   4  -9   5   32.90    1.70
   4   9  -5   31.70    2.40
  -4   9  -5   29.30    1.90
  -4  -9   5   31.50    2.40
   4  -9  -5   27.40    2.00
  -4   9  -5   32.60    2.50
   4   9   5   30.50    2.00
   4   9   5   29.80    1.90
  -4  -9   5   31.10    2.10
   4  -9  -5   32.10    2.20
   4  -9  -5   30.10    2.10
   5  -9   5   30.30    1.80
   5   9  -5   26.70    2.30
  -5  -9  -5   28.10    2.30
   5   9  -5   30.90    2.30
   5  -9   5   27.60    2.30
   5   9  -5   27.10    2.40
   5  -9   5   31.80    1.90
   5   9  -5   30.60    1.70
   5  -9   5   29.00    1.80
  -5  -9   5   27.50    2.40
   5  -9  -5   26.70    2.00
   5   9   5   30.20    2.10
   5  -9  -5   33.70    1.70
  -5  -9   5   26.00    2.00
   5   9   5   28.40    2.10
   5  -9  -5   27.20    2.10
  -5   9  -5   28.10    2.50
   5  -9  -5   27.20    2.20
  -5   9  -5   26.10    2.00
   6   9  -5   52.29    3.00
   6  -9   5   51.59    2.60
   6   9  -5   52.39    2.60
   6   9  -5   51.19    3.10
   6  -9   5   50.39    2.30
   6   9  -5   55.19    2.40
   6  -9   5   52.29    2.50
   6  -9   5   48.80    3.10
  -6  -9  -5   51.89    3.00
   6   9  -5   46.80    2.90
   6   9   5   51.19    2.70
  -6  -9   5   50.29    2.70
   6   9   5   50.49    2.90
   6  -9  -5   48.20    2.80
   6  -9  -5   51.29    2.90
  -6   9  -5   49.99    3.30
   6   9   5   50.99    2.60
   6  -9  -5   50.59    2.80
   6  -9  -5   53.49    2.90
  -6   9  -5   54.29    2.90
  -6  -9   5   49.90    3.00
   6  -9  -5   52.69    2.30
  -7  -9  -5   14.30    2.00
   7   9  -5   14.50    2.00
   7  -9   5   12.90    1.70
   7   9  -5   10.70    1.50
   7   9  -5   11.90    1.90
   7   9  -5   10.80    1.80
   7  -9   5   11.90    2.00
   7  -9   5   12.90    1.70
   7  -9  -5   13.20    1.80
   7   9   5   14.20    2.00
  -7  -9   5   14.60    2.00
   7  -9  -5   10.10    1.70
   7  -9  -5   11.30    1.60
   7   9   5   11.10    1.60
  -7   9  -5   13.10    2.00
   7   9   5   12.70    1.70
  -7   9  -5   17.10    2.40
   7  -9  -5   12.30    1.50
   7  -9  -5   14.60    2.00
   8  -9   5  132.49    5.50
   8   9  -5  138.29    5.20
   8   9  -5  135.79    5.20
  -8  -9  -5  129.39    5.00
   8  -9   5  132.19    4.70
   8  -9   5  132.49    4.60
   8  -9  -5  136.29    5.10
  -8   9  -5  125.49    5.00
   8  -9  -5  126.89    4.70
   8  -9  -5  136.39    4.40
   8   9   5  131.79    4.50
   8  -9  -5  133.69    5.00
   9   9  -5    3.40    1.40
  -9  -9  -5    7.50    1.80
   9  -9   5    7.20    1.90
   9  -9   5    7.00    1.60
   9   9  -5    3.80    1.60
   9  -9   5    3.90    1.40
   9  -9  -5    5.10    1.50
   9  -9  -5    7.20    1.70
   9  -9  -5    6.70    1.70
   9  -9  -5    4.90    1.60
  -9   9  -5    6.10    1.80
   0 -10   5  195.58    4.90
   0 -10  -5  188.38    5.10
   0 -10   5  189.08    4.90
   0  10  -5  191.48    4.90
   0 -10   5  196.88    4.10
   0 -10  -5  188.88    4.90
   0  10  -5  194.58    4.30
   0 -10   5  193.58    5.60
   0  10   5  195.38    4.70
   0 -10  -5  196.78    4.70
   0  10  -5  190.68    5.40
   0  10  -5  196.28    4.50
   1  10  -5   68.99    3.20
  -1 -10  -5   66.89    2.50
   1 -10   5   69.99    3.00
  -1 -10  -5   68.79    2.90
  -1 -10  -5   70.79    2.90
   1  10  -5   73.89    2.30
   1 -10   5   70.89    2.80
   1 -10   5   72.59    3.30
   1  10  -5   70.09    2.90
   1 -10   5   70.09    2.20
   1  10  -5   72.19    2.70
  -1  10   5   74.19    2.60
  -1  10  -5   71.99    2.50
   1 -10  -5   72.69    2.70
  -1 -10   5   74.59    3.40
   1 -10  -5   70.19    2.70
   1 -10  -5   72.89    3.10
  -1  10  -5   73.09    3.30
   1  10   5   72.59    2.70
  -1 -10   5   71.59    2.80
  -1 -10   5   69.79    2.80
  -1  10  -5   72.69    2.40
   2 -10   5   81.19    3.30
  -2 -10  -5   76.29    3.20
   2  10  -5   75.29    3.10
   2  10  -5   83.99    3.60
   2 -10   5   81.29    2.50
  -2  10   5   82.59    2.60
  -2 -10  -5   75.99    3.20
   2  10  -5   82.19    3.00
  -2 -10  -5   81.49    2.70
   2 -10   5   75.19    3.30
   2 -10   5   76.19    2.80
   2  10   5   77.19    3.00
  -2 -10   5   81.29    3.60
  -2 -10   5   81.59    3.10
  -2  10  -5   78.39    3.40
   2 -10  -5   77.19    3.20
   2 -10  -5   76.69    3.00
   2 -10  -5   74.89    3.20
   2 -10  -5   80.29    2.80
  -2  10  -5   77.89    2.70
  -2 -10   5   77.69    2.80
  -3  10   5   97.89    2.80
  -3 -10  -5   92.29    3.60
   3  10  -5   97.69    3.90
   3 -10   5   96.99    3.20
  -3 -10  -5   97.79    2.90
   3 -10   5   99.29    3.80
   3  10  -5   91.99    3.40
   3 -10   5   94.19    3.70
  -3 -10  -5   98.19    3.70
   3  10  -5   97.59    3.60
   3 -10   5   95.79    2.90
  -3 -10   5   98.29    3.00
   3 -10  -5   97.79    3.60
   3  10   5   92.99    3.30
  -3  10  -5   97.79    3.20
   3 -10  -5   88.19    3.50
  -3  10  -5   86.79    3.80
  -3 -10   5   99.99    4.10
  -3 -10   5   87.79    3.30
   3 -10  -5   95.19    3.40
   4 -10   5   83.59    3.70
   4  10  -5   79.99    3.40
   4 -10   5   86.89    3.10
   4 -10   5   84.79    2.90
   4  10  -5   86.09    3.50
  -4 -10  -5   88.69    3.70
   4  10  -5   84.79    3.80
  -4 -10   5   89.49    3.40
   4 -10  -5   83.09    3.50
  -4 -10   5   83.99    3.80
   4 -10  -5   91.49    3.50
   4  10   5   89.79    3.30
  -4  10  -5   88.49    3.20
  -4  10  -5   88.39    3.90
   4 -10  -5   86.99    3.50
  -5 -10  -5  182.08    5.60
   5  10  -5  179.78    5.60
   5 -10   5  189.68    4.80
   5  10  -5  179.58    5.40
   5  10  -5  188.48    5.80
   5 -10   5  175.18    5.70
   5 -10   5  183.98    4.80
  -5  10  -5  179.08    5.90
   5 -10  -5  173.18    5.20
   5 -10  -5  183.08    5.40
  -5 -10   5  184.68    5.90
  -5 -10   5  186.28    5.20
   5 -10  -5  188.28    5.40
   5  10   5  172.58    5.00
  -5  10  -5  181.78    5.10
   5  10   5  183.48    5.30
   6  10  -5  151.78    5.40
   6 -10   5  143.29    5.40
   6 -10   5  147.69    4.30
  -6 -10  -5  146.29    5.20
   6 -10   5  153.98    4.40
   6 -10   5  145.89    4.50
   6  10  -5  155.18    5.20
   6  10  -5  150.88    4.50
   6  10  -5  146.69    5.00
  -6 -10   5  140.89    4.60
  -6 -10   5  140.39    5.20
   6  10   5  155.48    4.80
   6 -10  -5  147.59    4.90
   6  10   5  153.88    5.10
  -6  10  -5  147.39    4.80
   6 -10  -5  147.89    4.90
   6 -10  -5  142.79    4.90
  -6  10  -5  151.08    5.60
   7 -10   5   85.49    3.50
   7  10  -5   85.99    4.10
   7  10  -5   86.09    3.40
   7 -10   5   87.79    4.30
  -7 -10  -5   92.59    4.20
   7  10  -5   87.09    4.10
   7 -10   5   83.09    3.50
   7  10  -5   78.79    5.00
  -7  10  -5   80.19    4.30
   7 -10  -5   85.09    3.80
   7  10   5   84.49    3.60
  -7 -10   5   88.49    3.70
  -7 -10   5   85.99    4.20
  -7  10  -5   86.59    4.00
   7 -10  -5   87.79    4.00
   7 -10  -5   83.79    3.80
   7 -10  -5   84.59    4.00
  -8 -10  -5    6.30    1.70
   8 -10   5    6.40    1.40
   8  10  -5    6.80    1.80
   8  10  -5    4.50    1.60
   8 -10   5    6.30    1.80
   8 -10   5    7.80    1.50
   8 -10  -5    8.90    1.80
  -8  10  -5    4.10    1.60
   8 -10  -5    5.40    1.40
   8  10   5    6.40    1.50
   8 -10  -5    7.40    1.60
   9 -10   5   49.00    3.00
  -9 -10  -5   49.80    4.30
   9  10  -5   58.99    3.80
   9 -10  -5   56.19    3.50
   0  11  -5   11.00    1.60
   0  11  -5   11.10    1.20
   0 -11   5    9.80    1.30
   0 -11   5   14.70    1.60
   0  11   5   12.70    1.50
   0 -11  -5   12.90    1.50
   0 -11   5   10.90    1.60
   0 -11  -5   13.00    1.60
   0 -11  -5   10.70    1.50
   1 -11   5   39.70    2.60
  -1  11   5   41.60    2.10
   1 -11   5   41.60    2.40
   1  11  -5   41.20    2.70
  -1 -11  -5   40.30    2.10
   1 -11   5   41.60    2.30
   1  11  -5   39.90    2.30
  -1 -11  -5   36.20    2.30
   1  11  -5   42.50    2.10
  -1 -11  -5   39.10    2.40
   1 -11  -5   38.70    2.20
  -1 -11   5   39.80    2.70
   1 -11  -5   40.60    2.30
  -1 -11   5   43.20    2.30
  -1 -11   5   44.40    2.30
  -1  11  -5   39.40    2.70
  -1  11  -5   41.30    1.80
   1  11   5   40.30    2.20
   1 -11  -5   36.40    2.30
   2  11  -5   14.50    1.80
   2 -11   5   20.90    2.10
   2  11  -5   20.10    1.90
  -2  11   5   20.90    1.50
  -2 -11  -5   17.80    1.60
   2 -11   5   20.60    1.70
  -2 -11  -5   19.30    2.00
  -2 -11  -5   20.90    2.00
   2 -11   5   17.00    2.00
   2 -11   5   20.20    2.10
   2  11  -5   20.10    1.70
   2  11   5   19.60    1.80
  -2 -11   5   21.80    1.70
   2 -11  -5   21.80    1.90
  -2 -11   5   18.00    1.80
   2 -11  -5   20.40    2.00
   2 -11  -5   21.00    1.80
  -2  11  -5   16.50    1.80
  -2 -11   5   19.40    2.20
  -2  11  -5   22.00    1.60
   2 -11  -5   15.80    1.70
  -3  11   5   10.00    1.10
  -3 -11  -5   10.30    1.20
   3 -11   5   10.00    1.70
  -3 -11  -5   10.10    1.60
  -3 -11  -5    9.30    1.50
   3  11  -5   10.60    1.60
   3 -11   5   10.20    1.40
   3 -11   5    8.20    1.10
   3 -11   5   10.10    1.50
   3  11  -5    7.30    1.40
   3  11  -5    8.20    1.60
  -3 -11   5   11.00    1.30
   3  11   5   10.90    1.50
   3 -11  -5    5.60    1.20
  -3 -11   5   11.00    1.70
  -3  11  -5   10.40    1.30
  -3 -11   5   11.00    1.60
   3 -11  -5    8.30    1.50
   3 -11  -5    8.00    1.40
  -3  11  -5   12.20    1.90
   4  11  -5   92.09    3.70
   4 -11   5   93.29    3.40
   4  11  -5   89.69    3.80
   4  11  -5   94.09    4.20
   4 -11   5   96.99    3.80
  -4 -11  -5   91.69    3.90
   4 -11   5   91.39    4.00
  -4 -11  -5   87.49    3.70
   4 -11   5   94.69    3.20
   4  11   5   94.89    3.60
  -4  11  -5   86.69    4.00
   4 -11  -5   92.39    3.70
   4 -11  -5   81.69    3.60
  -4  11  -5   95.99    3.40
  -4 -11   5   87.89    4.10
   4 -11  -5   86.49    3.70
  -4 -11   5   89.19    3.60
   5  11  -5   80.89    3.60
   5  11  -5   93.09    4.30
   5 -11   5   85.49    4.10
   5 -11   5   87.69    3.30
  -5 -11  -5   85.49    3.70
   5 -11   5   88.59    3.30
   5  11  -5   80.19    3.70
  -5 -11  -5   87.59    4.00
   5 -11  -5   84.79    3.80
   5 -11  -5   88.79    3.60
  -5 -11   5   89.19    4.20
   5 -11  -5   86.19    3.80
   5  11   5   86.69    3.60
  -5 -11   5   86.59    3.60
  -5  11  -5   82.19    3.40
  -5  11  -5   83.99    4.10
  -6 -11  -5   95.09    4.00
   6  11  -5  105.19    4.70
   6  11  -5   95.49    3.80
   6 -11   5  102.99    5.10
   6  11  -5   94.89    4.10
   6 -11   5   98.49    4.60
   6  11  -5   97.09    4.20
   6 -11   5   98.09    3.60
  -6 -11  -5   98.29    4.40
   6 -11  -5   96.19    4.10
   6  11   5   97.09    3.90
  -6 -11   5  102.79    3.90
  -6 -11   5   92.79    4.40
   6 -11  -5   94.79    4.10
   6 -11  -5   87.79    4.10
  -6  11  -5   89.09    3.80
  -6  11  -5  100.69    4.70
   7  11  -5   11.00    2.00
   7  11  -5    7.50    1.50
  -7 -11  -5   10.00    1.80
   7 -11   5    9.50    2.00
   7  11  -5    9.00    1.80
  -7 -11  -5    8.40    1.80
   7 -11  -5    5.40    1.50
   7  11   5   11.20    1.80
  -7  11  -5    9.10    1.80
   7 -11  -5   10.70    1.90
  -7 -11   5    7.60    1.60
  -7 -11   5    8.00    1.80
   7 -11  -5    8.60    1.80
   7 -11  -5    8.20    1.70
   8 -11   5    9.20    2.10
   8  11  -5   13.00    2.20
   8  11  -5    7.60    2.00
  -8 -11  -5    7.70    1.90
  -8 -11  -5    9.90    1.70
   8 -11  -5    8.10    1.80
   8 -11  -5    7.90    1.80
   8 -11  -5   10.20    2.00
   8  11   5    9.80    1.70
  -8  11  -5   11.50    2.20
   0 -12  -5  154.08    5.00
   0 -12  -5  157.68    4.80
   0 -12   5  155.38    4.80
   0 -12   5  160.88    5.30
   0  12   5  158.08    4.50
   0 -12   5  159.48    4.70
   0  12  -5  158.88    5.30
   0 -12  -5  155.88    4.50
  -1 -12  -5   14.00    1.80
   1  12  -5   12.80    1.70
   1 -12   5   14.30    1.80
  -1 -12  -5   15.00    1.90
   1  12  -5   15.60    1.50
   1  12  -5   17.20    2.10
  -1  12   5   15.30    1.60
   1 -12   5   16.60    1.80
   1 -12   5   14.90    2.00
  -1 -12  -5   15.00    1.60
   1 -12  -5   14.20    1.70
  -1 -12   5   15.70    1.80
  -1 -12   5   14.00    1.90
   1 -12  -5   14.90    1.90
   1  12   5   11.00    1.40
   1 -12  -5   10.80    1.50
  -1  12  -5   11.30    1.80
  -1 -12   5   19.70    1.80
  -2 -12  -5   14.80    1.90
  -2  12   5   16.60    1.50
   2  12  -5   17.60    1.70
  -2 -12  -5   12.10    1.80
   2  12  -5   16.50    2.10
  -2 -12  -5   13.10    1.50
   2 -12   5   17.60    1.90
   2 -12   5   15.80    2.00
   2 -12   5   15.80    2.00
   2  12  -5   14.70    1.80
   2 -12  -5   17.30    1.90
  -2 -12   5   19.90    2.30
   2  12   5   15.50    1.70
   2 -12  -5   19.70    1.90
  -2 -12   5   15.00    1.70
  -2  12  -5   18.00    2.10
   2 -12  -5   15.80    1.80
   2 -12  -5   13.90    1.80
  -2 -12   5   18.10    1.70
  -3  12   5   91.39    3.00
   3 -12   5   84.09    3.90
  -3 -12  -5   80.69    3.70
   3  12  -5   87.69    3.40
  -3 -12  -5   91.49    3.10
   3 -12   5   89.69    3.50
   3  12  -5   92.29    3.90
   3  12  -5   87.99    4.20
  -3 -12  -5   88.49    4.00
   3 -12   5   89.49    3.90
  -3  12  -5   91.59    4.20
   3 -12  -5   85.49    3.60
  -3  12  -5   88.59    3.10
  -3 -12   5   94.09    3.70
   3 -12  -5   93.99    3.90
   3  12   5   81.59    3.40
  -3 -12   5   85.69    4.10
   3 -12  -5   86.39    3.70
  -4 -12  -5   28.90    2.70
   4 -12   5   32.90    2.80
   4  12  -5   33.30    2.40
   4  12  -5   29.30    2.50
   4 -12   5   33.90    2.30
   4 -12   5   35.50    2.60
   4  12  -5   35.30    3.00
  -4 -12  -5   29.10    2.40
   4 -12  -5   29.90    2.50
  -4 -12   5   36.50    2.50
  -4  12  -5   33.10    2.90
   4 -12  -5   32.80    2.50
  -4 -12   5   32.90    2.90
  -4  12  -5   30.50    2.20
   4  12   5   31.80    2.30
   4 -12  -5   30.70    2.50
  -5 -12  -5   33.00    2.90
   5 -12   5   36.10    2.90
  -5 -12  -5   36.10    2.70
   5  12  -5   37.20    3.10
   5  12  -5   32.90    2.70
   5  12  -5   36.60    2.70
   5 -12   5   34.50    2.40
   5  12  -5   33.90    2.50
  -5 -12   5   33.00    3.00
  -5 -12   5   34.80    2.60
   5 -12  -5   37.00    2.80
   5  12   5   34.70    2.50
  -5  12  -5   31.90    2.90
  -5  12  -5   34.00    2.40
   5 -12  -5   33.90    2.50
   5 -12  -5   33.20    2.70
   6 -12   5   34.90    2.30
  -6 -12  -5   36.70    2.70
   6  12  -5   32.40    2.50
   6 -12   5   32.40    3.00
   6  12  -5   32.70    2.80
   6  12  -5   42.80    3.00
  -6 -12  -5   37.20    3.10
   6 -12  -5   34.10    2.80
  -6  12  -5   39.00    2.80
   6 -12  -5   39.70    3.00
   6  12   5   36.80    2.60
  -6 -12   5   32.20    3.00
   6 -12  -5   30.90    2.70
  -6 -12   5   37.10    2.60
  -6  12  -5   34.20    3.20
   7  12  -5   18.40    2.00
  -7 -12  -5   22.10    2.40
  -7 -12  -5   20.40    2.60
   7  12  -5   24.60    2.60
   7  12  -5   23.40    2.60
   7 -12   5   19.60    2.80
   7  12   5   21.20    2.30
   7 -12  -5   19.10    2.40
  -7 -12   5   25.20    2.50
   7 -12  -5   25.70    2.60
  -7 -12   5   21.80    2.70
  -7  12  -5   18.90    2.40
   7 -12  -5   24.80    2.60
   7 -12  -5   26.60    2.80
   8  12  -5   14.80    2.30
   0 -13   5    5.10    1.30
   0 -13   5    3.50    1.40
   0  13  -5    4.60    1.30
   0 -13   5    5.40    1.30
   0  13   5    3.90    1.00
   0 -13  -5    3.00    1.20
   0 -13  -5    3.10    1.20
   0 -13  -5    3.70    1.10
  -1 -13  -5   19.10    2.20
   1 -13   5   21.70    2.50
  -1  13   5   20.70    1.70
   1  13  -5   20.60    2.40
   1 -13   5   19.90    2.10
  -1 -13  -5   15.30    1.90
  -1 -13  -5   19.00    1.80
   1 -13   5   16.80    1.90
   1 -13  -5   15.10    2.00
  -1 -13   5   19.30    2.10
   1  13   5   17.30    1.80
  -1 -13   5   17.00    1.90
   1 -13  -5   20.30    2.10
  -1  13  -5   19.50    2.40
  -1 -13   5   14.50    2.20
   1 -13  -5   17.20    1.80
  -2  13   5    5.10    1.10
  -2 -13  -5    6.50    1.50
   2 -13   5    5.20    1.50
   2  13  -5    6.00    1.20
   2  13  -5    3.80    1.30
  -2 -13  -5    7.10    1.30
   2  13  -5    3.20    1.40
   2 -13   5    4.40    1.30
   2 -13   5    5.60    1.30
  -2 -13  -5    3.90    1.40
   2 -13  -5    0.30    1.20
  -2 -13   5    4.30    1.10
   2 -13  -5    4.00    1.30
   2 -13  -5    5.30    1.30
  -2 -13   5    5.00    1.30
  -2  13  -5    3.80    1.30
  -2 -13   5    5.30    1.60
   2  13   5    4.00    1.20
   3 -13   5    8.70    1.50
   3 -13   5    7.10    1.70
  -3 -13  -5    6.00    1.50
   3  13  -5   10.40    1.80
   3 -13   5    8.00    1.70
  -3 -13  -5    8.10    1.70
  -3 -13  -5    7.90    1.30
   3  13  -5    9.80    1.50
   3  13  -5    5.80    1.50
   3  13   5    8.50    1.50
  -3 -13   5    6.80    1.40
   3 -13  -5    8.10    1.60
  -3  13  -5    8.20    1.60
  -3 -13   5    6.40    1.70
   3 -13  -5    6.20    1.40
   3 -13  -5   10.60    1.70
  -4 -13  -5    3.00    1.50
   4 -13   5    1.60    1.10
   4  13  -5    4.30    1.60
   4 -13   5    1.40    1.10
   4 -13   5    0.40    1.20
  -4 -13  -5   -0.50    1.00
   4  13  -5    2.80    1.20
   4  13  -5   -0.30    0.90
   4  13  -5    0.30    1.10
   4 -13  -5   -0.50    1.10
   4  13   5    1.10    1.00
  -4 -13   5    1.20    1.30
   4 -13  -5    0.90    1.10
  -4  13  -5   -0.50    1.10
   4 -13  -5   -0.70    1.00
  -4 -13   5    0.60    1.10
   5  13  -5    1.30    1.10
   5  13  -5    1.40    1.10
   5  13  -5    1.10    1.20
   5  13  -5   -1.50    1.80
   5 -13   5    1.60    1.00
  -5 -13  -5    1.20    1.10
  -5 -13  -5    0.10    1.30
   5 -13   5    0.00    1.20
  -5 -13   5   -0.30    1.20
   5 -13  -5   -1.00    1.10
   5 -13  -5    1.10    1.30
   5  13   5    0.80    1.10
   5 -13  -5   -1.50    0.90
  -5 -13   5    0.40    1.10
   6  13  -5    2.30    1.20
   6 -13   5   -1.40    0.80
  -6 -13  -5   -0.80    1.00
  -6 -13  -5   -2.00    1.30
   6  13  -5    2.90    1.40
   6  13  -5    0.90    1.10
   6 -13   5   -1.60    1.20
   6 -13  -5    1.60    1.30
  -6 -13   5    0.60    1.40
   6 -13  -5    0.50    1.20
   6  13   5    0.00    1.10
  -6 -13   5    2.80    1.40
   6 -13  -5   -0.30    1.20
   7  13  -5   22.40    2.30
   7  13  -5   29.80    3.00
  -7 -13  -5   25.40    2.60
  -7  13  -5   29.40    3.90
   7 -13  -5   19.90    2.40
   7  13   5   24.00    2.50
  -7 -13   5   23.10    2.90
  -7 -13   5   23.40    2.40
   7 -13  -5   23.80    2.80
   0  14   5   83.99    3.40
   0 -14  -5   76.49    3.70
   0 -14   5   77.59    3.60
   0  14  -5   83.69    4.20
   0 -14  -5   74.69    3.80
   0 -14   5   80.59    4.20
   0 -14  -5   82.99    3.50
   0 -14   5   80.29    3.60
   1 -14   5   42.00    3.10
  -1 -14  -5   35.40    2.90
   1  14  -5   40.60    3.20
   1 -14   5   35.00    2.70
   1 -14   5   35.40    2.60
  -1 -14  -5   34.20    2.80
  -1 -14  -5   37.20    2.40
  -1  14   5   42.10    2.40
   1 -14  -5   34.90    2.80
  -1 -14   5   41.80    2.70
   1 -14  -5   36.50    2.70
  -1  14  -5   43.10    3.30
  -1 -14   5   39.60    2.60
   1 -14  -5   37.40    2.60
   1  14   5   36.90    2.50
   1 -14  -5   34.10    2.50
  -1 -14   5   36.40    3.00
   2 -14   5    3.90    1.50
   2 -14   5    4.80    1.30
   2  14  -5    5.80    1.60
  -2 -14  -5    7.30    1.70
  -2 -14  -5    6.90    1.40
  -2 -14  -5    3.80    1.40
   2 -14   5    6.30    1.60
  -2  14   5    4.90    1.10
   2 -14  -5    6.90    1.50
  -2 -14   5    5.60    1.30
  -2  14  -5    4.50    1.50
   2 -14  -5    7.50    1.60
  -2 -14   5    4.50    1.60
   2 -14  -5    5.20    1.50
  -2 -14   5    6.60    1.60
   2  14   5    5.20    1.30
   3 -14   5   43.80    3.10
   3  14  -5   41.30    3.30
  -3 -14  -5   41.60    2.90
   3 -14   5   41.80    2.70
   3  14  -5   44.70    3.10
  -3 -14  -5   43.80    3.20
  -3 -14  -5   39.70    3.20
   3  14  -5   46.80    3.00
   3 -14   5   35.80    2.90
   3 -14  -5   38.10    2.80
   3 -14  -5   39.20    3.00
  -3 -14   5   40.70    2.80
  -3 -14   5   38.60    3.30
   3 -14  -5   43.50    2.90
  -3  14  -5   41.30    3.50
   3  14   5   41.50    2.70
  -4 -14  -5   10.20    2.10
   4 -14   5    6.90    1.50
   4  14  -5   14.70    1.90
  -4 -14  -5    9.30    1.80
   4  14  -5    8.90    1.80
   4  14  -5   11.90    2.10
   4 -14   5    8.60    1.90
   4 -14  -5    8.50    1.80
  -4 -14   5    9.60    1.80
   4 -14  -5    8.40    1.80
  -4 -14   5    8.20    2.00
   4 -14  -5    9.30    1.60
   4  14   5    6.90    1.50
   5 -14   5   88.99    4.40
   5  14  -5   85.99    3.90
   5  14  -5   88.09    4.00
  -5 -14  -5   82.49    4.10
   5 -14   5   81.49    3.70
   5  14  -5   81.89    4.20
  -5 -14  -5   84.69    4.40
  -5 -14   5   76.39    4.50
  -5 -14   5   90.59    4.00
   5 -14  -5   81.89    4.30
   5 -14  -5   82.29    4.10
   5  14   5   89.29    4.00
   5 -14  -5   88.19    4.10
   6  14  -5   58.09    3.50
  -6 -14  -5   62.99    3.60
   6 -14   5   57.79    3.10
   6  14  -5   58.39    3.30
  -6 -14   5   59.29    4.20
  -6 -14   5   57.99    3.40
   6 -14  -5   61.39    3.70
   6  14   5   69.69    3.60
   6 -14  -5   67.79    4.00
   0  15   5   34.70    2.40
   0 -15   5   37.10    3.20
   0 -15   5   36.10    2.80
   0 -15   5   41.80    2.90
   0 -15  -5   38.20    2.70
   0 -15  -5   31.60    2.90
   0 -15  -5   32.80    2.90
   0  15  -5   43.70    5.60
  -1 -15  -5   34.60    2.90
   1 -15   5   36.10    2.70
  -1  15   5   35.40    2.30
  -1 -15  -5   36.40    2.70
   1  15  -5   35.80    3.40
  -1 -15  -5   35.80    3.10
   1 -15   5   35.90    3.10
   1 -15   5   31.60    2.80
   1 -15  -5   35.60    2.60
  -1 -15   5   32.40    2.60
   1 -15  -5   37.00    2.70
   1 -15  -5   33.10    2.80
  -1 -15   5   32.10    2.70
   1 -15  -5   37.40    4.00
   1  15   5   31.10    2.40
  -1 -15   5   35.40    3.20
   2 -15   5  156.78    5.70
  -2 -15  -5  144.59    5.60
  -2  15   5  149.19    4.60
   2 -15   5  155.18    5.20
   2  15  -5  158.88    6.40
   2  15  -5  149.59    5.10
   2 -15   5  157.08    5.80
  -2 -15  -5  151.88    4.80
  -2 -15  -5  147.69    5.50
  -2 -15   5  148.99    6.00
  -2 -15   5  150.58    5.20
   2 -15  -5  151.38    5.20
   2  15   5  148.49    5.00
   2 -15  -5  155.58    5.70
   2 -15  -5  142.89    5.20
   3  15  -5   46.90    3.00
   3 -15   5   44.00    2.90
  -3 -15  -5   51.89    3.40
   3 -15   5   47.70    3.50
  -3 -15  -5   45.90    3.50
   3 -15   5   46.30    3.30
   3 -15  -5   50.09    3.20
  -3 -15   5   45.00    3.60
  -3 -15   5   48.80    3.20
   3 -15  -5   46.70    3.40
   3 -15  -5   45.80    3.10
   3  15   5   43.30    2.80
   4  15  -5  114.29    5.00
  -4 -15  -5  115.79    5.30
   4 -15   5  120.39    5.30
   4 -15   5  114.59    4.50
  -4 -15  -5  121.19    5.00
   4  15  -5  118.49    4.60
  -4 -15   5  113.19    4.70
  -4 -15   5  104.19    5.30
   4 -15  -5  120.29    5.10
   4 -15  -5  124.09    4.90
   4 -15  -5  123.49    4.90
   4  15   5  117.69    4.60
   5  15  -5    8.90    1.80
  -5 -15  -5    7.50    1.70
   5  15  -5   11.30    1.80
   5 -15   5    6.00    1.50
   5  15   5    5.40    1.50
  -5 -15   5    4.20    1.40
   5 -15  -5    9.30    2.00
   5 -15  -5    8.20    2.60
   0 -16  -5   33.20    3.00
   0 -16  -5   35.50    2.70
   0 -16   5   29.70    3.30
   0 -16   5   23.80    2.50
   0  16   5   36.10    2.50
   0 -16  -5   31.50    2.70
   0  16  -5   32.30    2.90
   0 -16   5   32.20    2.90
   0 -16  -5   30.20    3.10
  -1 -16  -5   37.50    2.70
   1 -16   5   33.10    3.30
   1 -16   5   35.70    3.00
  -1 -16  -5   36.70    3.20
   1 -16   5   40.00    3.00
   1  16  -5   36.70    2.80
  -1 -16  -5   39.60    3.30
  -1  16   5   36.80    2.50
  -1  16  -5   29.00    2.60
   1 -16  -5   40.70    3.20
   1  16   5   36.10    2.60
  -1 -16   5   38.30    2.80
  -1 -16   5   39.60    3.00
  -1 -16   5   35.00    3.50
   1 -16  -5   34.80    2.80
   1 -16  -5   39.70    3.00
   2  16  -5   83.39    4.00
  -2 -16  -5   90.79    4.70
  -2 -16  -5   89.39    3.80
  -2 -16  -5   89.89    4.50
   2 -16   5   92.29    4.20
   2 -16   5   90.99    4.80
   2 -16   5   89.69    4.50
   2 -16  -5   92.29    4.30
   2  16   5   84.99    3.90
   2 -16  -5   93.49    4.30
   2 -16  -5   87.09    4.60
  -2  16  -5   90.89    3.80
  -2 -16   5   89.19    4.90
  -2 -16   5   97.29    4.30
   3  16  -5   69.19    3.70
   3 -16   5   64.49    4.00
  -3 -16  -5   75.79    4.10
  -3 -16  -5   67.19    4.40
   3 -16   5   71.09    3.70
   3 -16  -5   72.69    4.80
   3  16   5   75.49    3.80
  -3 -16   5   69.69    3.80
   3 -16  -5   66.09    4.00
  -3  16  -5   82.99    5.20
   3 -16  -5   78.49    4.00
   4 -16   5   17.40    2.20
   4  16  -5   14.30    2.10
  -4 -16   5   20.60    2.50
   4  16   5   17.90    2.30
   4 -16  -5   20.40    2.50
   0  17  -5    1.00    1.20
   0  17   5    4.50    1.30
   0 -17   5    3.30    1.50
   0 -17   5    2.60    1.50
   0 -17  -5    1.10    1.30
  -1 -17  -5   11.10    1.90
   1 -17   5   17.30    2.30
   1 -17   5   19.30    3.80
  -1  17   5   12.80    1.80
   1  17  -5   13.20    2.00
   1  17   5   15.70    2.10
   1 -17  -5   12.70    2.10
  -1 -17   5   12.00    2.10
  -1  17  -5   13.10    2.00
   0   0  -6 1321.27   19.30
   0   0  -6 1351.86   19.40
   0   0   6 1309.77   19.80
   1   0  -6 2402.06   34.80
  -1   0  -6 2443.66   34.70
   1   0  -6 2458.45   35.30
   1   0  -6 2477.65   34.70
  -1   0  -6 2461.05   35.10
  -1   0  -6 2381.56   35.50
   1   0   6 2439.36   35.40
   2   0   6  362.66    6.10
  -2   0  -6  363.26    6.50
   2   0  -6  364.96    6.50
   2   0  -6  365.96    6.80
  -2   0  -6  359.86    6.30
   2   0   6  367.86    6.40
   2   0  -6  360.26    6.00
   2   0  -6  362.86    5.90
   3   0  -6  666.53   10.60
   3   0   6  680.73   10.90
   3   0  -6  675.33   11.30
  -3   0  -6  674.23   11.10
   3   0  -6  675.83   10.60
   3   0  -6  665.93   11.20
   3   0   6  664.73   11.00
   3   0   6  675.73   10.80
  -3   0  -6  677.93   11.10
   3   0  -6  655.13   11.20
  -4   0  -6    1.40    0.60
   4   0  -6    0.20    0.60
   4   0  -6   -0.30    0.40
   4   0  -6    1.20    0.50
  -4   0  -6    0.60    0.60
   4   0  -6    0.40    0.50
   4   0   6    1.00    0.60
   4   0   6    0.50    0.50
   4   0  -6    0.30    0.60
   4   0   6    0.40    0.50
   4   0  -6    0.10    0.70
   5   0   6  286.57    6.00
   5   0  -6  286.87    6.10
   5   0  -6  285.17    6.00
  -5   0  -6  288.87    6.00
   5   0   6  283.27    6.00
  -5   0  -6  283.67    6.30
   5   0  -6  288.37    5.90
   5   0  -6  277.77    6.20
   5   0   6  291.97    5.60
   5   0  -6  275.67    5.70
  -6   0  -6    9.20    1.30
   6   0   6   13.80    1.50
   6   0  -6    9.00    1.20
   6   0  -6   10.70    1.20
   6   0  -6    9.30    1.10
   6   0  -6    9.90    1.30
  -6   0  -6   11.60    1.50
   6   0   6   12.30    1.50
   6   0   6   15.40    1.20
   6   0   6   11.40    1.40
   6   0  -6   10.30    1.40
  -7   0  -6   40.80    2.40
   7   0   6   40.50    2.30
   7   0  -6   39.70    2.20
   7   0  -6   39.40    2.30
   7   0   6   40.50    2.10
   7   0  -6   40.00    2.30
   7   0   6   43.00    2.50
   7   0   6   38.00    2.30
   7   0  -6   38.10    2.40
   7   0  -6   39.30    2.30
   8   0  -6  256.37    6.40
   8   0   6  260.47    6.60
   8   0  -6  260.77    6.50
   8   0  -6  260.57    6.30
   8   0  -6  242.18    6.60
   8   0  -6  258.27    6.40
  -8   0  -6  261.27    6.00
   8   0   6  260.17    6.70
   8   0   6  257.57    6.70
  -8   0  -6  256.87    6.60
   9   0   6    6.10    1.50
   9   0   6    9.50    1.70
   9   0  -6    5.60    1.50
   9   0  -6    7.40    1.50
   9   0  -6    9.20    1.60
   9   0  -6    7.80    1.60
   9   0  -6    7.40    1.40
  -9   0  -6    6.00    1.60
 -10   0  -6   44.50    3.20
  10   0  -6   36.70    2.80
  10   0  -6   45.70    3.20
  10   0  -6   46.20    2.90
  10   0   6   40.90    3.00
  10   0   6   39.40    3.00
   0   1  -6  948.41   14.50
   0   1   6  999.40   13.80
   0  -1   6  948.61   14.40
   0   1  -6  956.70   14.90
   0   1  -6  972.50   14.30
   0   1   6  971.50   14.80
   0  -1  -6  964.40   14.40
   0  -1  -6  959.80   14.00
   1  -1   6  194.08    3.90
  -1  -1  -6  193.78    3.50
   1   1  -6  191.38    3.70
  -1   1   6  197.28    3.80
   1   1  -6  192.18    3.70
   1   1  -6  197.98    3.20
   1  -1   6  195.58    3.40
  -1  -1  -6  192.88    3.90
   1  -1  -6  196.98    3.60
   1  -1  -6  194.58    3.80
  -1   1  -6  196.38    3.80
   1  -1  -6  195.38    3.20
  -1   1  -6  195.78    4.00
  -1   1  -6  198.78    3.10
  -2  -1  -6 1322.27   20.30
   2   1  -6 1352.06   20.00
   2   1  -6 1356.96   19.60
   2   1  -6 1305.37   20.30
   2  -1   6 1388.66   19.80
   2  -1   6 1312.17   20.20
   2  -1   6 1358.56   20.70
   2  -1   6 1356.66   19.40
   2   1  -6 1350.76   20.80
  -2  -1  -6 1340.77   20.10
   2  -1  -6 1386.56   19.60
  -2   1  -6 1360.26   20.40
   2  -1  -6 1361.06   19.60
   2  -1  -6 1339.97   20.60
  -2   1  -6 1319.97   20.40
   2  -1  -6 1356.36   20.40
   2  -1  -6 1334.07   19.90
   2   1   6 1355.76   20.30
   3  -1   6  952.40   15.10
   3   1  -6  943.21   15.20
   3  -1   6  973.70   13.80
   3   1  -6  955.90   14.50
   3  -1   6  954.50   14.90
   3  -1   6  980.70   14.80
   3   1  -6  973.80   15.50
   3  -1   6  969.10   15.60
   3   1  -6  949.31   14.90
  -3  -1  -6  957.20   15.10
  -3  -1  -6  944.51   15.10
   3   1  -6  945.21   15.40
  -3   1  -6  959.20   15.30
   3  -1  -6  961.40   15.30
   3   1   6  985.80   15.00
   3  -1  -6  969.80   14.60
   3   1   6  951.10   15.00
   3  -1  -6  948.61   15.30
  -3  -1   6  957.30   14.90
   3  -1  -6  964.50   15.30
  -3   1  -6  961.70   15.30
   3  -1  -6  960.10   14.80
   3  -1  -6  983.00   14.10
   3  -1  -6  945.61   14.60
   3   1   6  971.80   15.00
   4   1  -6  237.28    5.30
   4   1  -6  249.08    5.10
  -4  -1  -6  254.57    5.40
   4  -1   6  257.37    5.00
   4   1  -6  245.78    5.40
   4   1  -6  246.28    5.40
   4   1  -6  255.97    4.90
  -4  -1  -6  254.97    5.20
   4  -1   6  252.87    5.10
   4  -1   6  245.68    5.70
   4  -1   6  253.47    5.30
   4  -1  -6  257.07    5.40
  -4   1  -6  243.48    5.50
   4   1   6  264.57    5.10
   4  -1  -6  259.07    4.10
   4   1   6  260.37    5.30
   4  -1  -6  257.27    5.10
   4  -1  -6  244.48    5.40
   4  -1  -6  251.17    5.30
  -4  -1   6  264.97    4.90
   4   1   6  254.67    5.10
  -4   1  -6  250.77    5.40
   4   1   6  257.97    5.20
   4  -1  -6  252.37    5.00
   4  -1  -6  253.57    4.90
  -5  -1  -6  290.77    6.30
   5   1  -6  288.77    5.80
   5  -1   6  286.17    5.50
   5  -1   6  287.37    5.90
   5   1  -6  288.77    6.20
  -5  -1  -6  281.97    5.90
   5   1  -6  287.67    6.00
   5  -1   6  284.17    6.00
   5   1  -6  282.27    6.30
   5   1  -6  278.17    6.10
   5   1   6  290.17    6.00
  -5   1  -6  289.17    6.10
   5   1   6  295.17    5.70
   5   1   6  280.77    5.90
   5  -1  -6  290.17    5.90
  -5   1  -6  282.47    6.40
   5  -1  -6  291.97    6.30
  -5  -1   6  295.97    5.30
   5  -1  -6  289.87    5.90
   5   1   6  279.67    6.00
   5  -1  -6  278.47    6.00
   5  -1  -6  292.77    5.80
  -6  -1  -6  195.78    4.90
   6   1  -6  202.78    4.80
   6   1  -6  210.38    5.10
   6   1  -6  197.58    4.90
   6  -1   6  205.08    5.00
   6   1  -6  202.38    5.30
   6   1  -6  200.68    5.00
   6  -1   6  200.78    5.00
  -6   1  -6  200.18    5.10
   6  -1  -6  213.18    5.00
   6  -1  -6  190.08    4.90
   6   1   6  206.98    4.50
   6   1   6  207.58    5.00
  -6   1  -6  199.48    5.40
   6   1   6  207.68    5.10
   6  -1  -6  210.88    4.90
   6  -1  -6  198.18    4.80
   6   1   6  194.98    5.00
   6  -1  -6  198.18    5.20
   7   1  -6   48.30    2.40
   7   1  -6   46.50    2.50
  -7  -1  -6   43.90    2.40
   7   1  -6   49.00    2.60
  -7  -1  -6   44.40    2.20
   7   1  -6   48.30    2.50
   7  -1   6   44.30    2.40
   7  -1   6   49.20    2.70
   7   1  -6   45.00    2.50
   7  -1   6   49.50    2.50
   7  -1  -6   48.20    2.40
   7  -1  -6   50.39    2.50
   7   1   6   45.10    2.40
   7  -1  -6   46.80    2.60
   7  -1  -6   43.30    2.30
   7   1   6   45.40    2.50
   7   1   6   50.79    2.10
  -7   1  -6   44.90    2.50
  -7   1  -6   50.49    2.90
   7   1   6   49.40    2.50
   7  -1  -6   49.00    2.40
   8  -1   6    6.50    1.40
   8   1  -6    6.00    1.40
   8   1  -6    7.10    1.40
   8  -1   6    5.80    1.30
   8   1  -6    6.40    1.40
   8   1  -6    4.30    1.30
   8  -1   6    7.70    1.50
  -8  -1  -6    9.20    1.30
   8   1  -6    6.90    1.30
  -8  -1  -6    7.50    1.50
  -8   1  -6    8.80    1.60
   8  -1  -6    5.40    1.20
  -8   1  -6    8.80    1.40
   8  -1  -6    4.30    1.20
   8   1   6    5.60    1.30
   8  -1  -6    6.00    1.40
   8   1   6    3.20    1.30
   8  -1  -6    8.40    1.50
   8   1   6    6.30    1.40
   8  -1  -6    4.80    1.20
   9   1  -6   63.29    3.20
   9   1  -6   67.09    3.30
   9   1  -6   60.59    3.40
   9   1  -6   63.39    3.50
   9   1  -6   66.69    3.30
   9  -1   6   66.59    3.60
   9  -1   6   65.19    3.40
  -9  -1  -6   64.49    3.40
   9  -1   6   62.69    3.20
   9   1   6   65.99    3.50
   9  -1  -6   73.19    3.20
   9  -1  -6   62.99    3.20
   9  -1  -6   64.69    3.30
   9   1   6   67.99    3.40
   9  -1  -6   68.49    3.40
   9  -1  -6   62.19    3.40
  -9   1  -6   72.89    3.70
  10   1  -6    5.50    1.50
  10   1  -6    4.80    1.60
  10   1  -6    4.60    1.40
  10  -1   6    1.30    1.20
 -10  -1  -6    5.00    1.70
  10  -1   6    3.00    1.30
  10   1  -6    2.80    1.30
  10  -1  -6    5.50    1.50
  10   1   6    4.90    1.40
  10   1   6    5.70    1.60
 -10   1  -6    3.50    1.70
  10  -1  -6    3.50    1.40
  10  -1  -6    2.80    1.50
   0   2  -6    1.60    0.30
   0   2  -6    0.90    0.40
   0  -2   6    3.30    0.50
   0   2  -6    0.50    0.40
   0   2   6    1.10    0.40
   1   2  -6  641.04   10.20
   1  -2   6  652.23   10.60
  -1   2   6  656.13   10.30
   1  -2   6  643.94   10.00
  -1  -2  -6  645.84   10.30
  -1  -2  -6  662.63    9.80
   1   2  -6  648.44   10.40
  -1   2  -6  667.73    9.60
  -1   2  -6  638.94   10.50
   1   2   6  650.83   10.50
   1   2   6  652.33    9.50
  -1  -2   6  645.84   10.30
  -1   2  -6  642.04   10.60
  -1  -2   6  664.03   10.80
   2   2  -6   77.49    2.20
   2   2  -6   81.39    2.20
  -2   2   6   81.69    2.00
   2  -2   6   82.09    1.90
   2  -2   6   79.59    2.50
  -2  -2  -6   80.19    2.20
  -2  -2  -6   78.49    2.00
   2  -2   6   80.59    1.80
  -2  -2  -6   80.39    1.50
   2   2  -6   82.39    2.70
   2   2  -6   80.59    1.70
   2  -2  -6   77.89    2.30
  -2   2  -6   79.79    2.40
   2  -2  -6   81.99    2.00
  -2   2  -6   78.89    2.40
   2  -2  -6   81.69    1.70
  -2  -2   6   77.69    2.40
   2  -2  -6   80.09    1.70
   2   2   6   82.59    2.30
   2   2   6   79.09    1.80
   2  -2  -6   87.69    2.50
   2  -2  -6   75.59    2.10
  -2  -2   6   77.49    2.20
   3  -2   6   75.79    1.60
   3   2  -6   77.79    2.30
  -3  -2  -6   76.99    2.30
   3  -2   6   74.79    2.00
   3   2  -6   75.99    2.60
   3   2  -6   73.49    2.50
   3  -2   6   76.09    2.30
   3   2  -6   76.69    2.40
   3   2  -6   76.99    1.90
   3  -2   6   76.79    2.60
  -3  -2   6   75.99    2.30
   3  -2  -6   77.79    2.50
  -3   2  -6   78.99    2.50
   3  -2  -6   73.09    2.40
   3  -2  -6   78.19    1.90
  -3   2  -6   78.29    2.60
   3   2   6   77.19    2.10
   3  -2  -6   77.79    1.90
   3  -2  -6   77.49    2.00
   3  -2  -6   79.79    2.40
   3  -2  -6   76.49    2.20
   3   2   6   79.19    2.20
   3   2   6   75.19    2.30
   4  -2   6  751.32   12.10
   4   2  -6  750.92   11.80
   4  -2   6  748.83   12.40
   4   2  -6  732.33   12.60
   4  -2   6  725.33   10.90
   4  -2   6  742.93   12.90
   4   2  -6  744.43   12.40
   4   2  -6  741.23   12.50
   4   2  -6  755.92   12.70
  -4  -2  -6  735.53   12.10
   4  -2  -6  760.82   12.20
   4  -2  -6  741.03   12.20
  -4   2  -6  736.13   12.80
   4  -2  -6  776.82   11.40
   4   2   6  762.22   12.10
   4   2   6  737.33   12.10
   4  -2  -6  744.33   12.70
  -4  -2   6  765.12   12.10
   4  -2  -6  730.43   11.80
   4   2   6  743.93   12.40
  -4   2  -6  719.73   12.50
   4   2   6  739.63   12.20
   4  -2  -6  738.03   12.80
   4  -2  -6  738.93   12.40
   5  -2   6  128.79    4.00
   5  -2   6  113.19    3.40
   5   2  -6  119.19    3.60
   5   2  -6  129.49    3.60
   5   2  -6  117.99    3.20
   5  -2   6  124.39    3.40
   5   2  -6  117.89    3.60
  -5  -2  -6  123.99    3.30
   5  -2  -6  125.29    3.30
   5  -2  -6  120.39    3.20
   5  -2  -6  126.49    3.50
   5  -2  -6  125.99    3.80
   5   2   6  130.59    2.70
   5   2   6  119.99    3.50
  -5   2  -6  122.89    3.90
  -5   2  -6  122.49    3.60
   5   2   6  121.49    3.40
  -5  -2   6  129.29    3.10
   5   2   6  127.69    3.50
   5  -2  -6  126.39    3.60
   5   2   6  126.79    3.30
  -6  -2  -6    4.60    1.00
  -6  -2  -6    3.60    0.90
   6   2  -6    4.50    1.00
   6   2  -6    2.80    0.90
   6   2  -6    3.40    1.10
   6  -2   6    2.80    0.90
   6  -2   6    4.40    1.10
   6  -2   6    3.30    0.80
   6   2  -6    3.50    0.90
   6   2  -6    3.50    1.10
  -6   2  -6    3.20    1.00
   6  -2  -6    3.50    1.00
   6  -2  -6    5.50    1.00
   6   2   6    5.60    1.00
  -6   2  -6    3.40    1.10
   6   2   6    3.00    0.80
   6  -2  -6    3.50    1.10
   6  -2  -6    4.40    0.90
   6  -2  -6    4.30    0.90
   6   2   6    5.30    1.10
   6   2   6    5.60    1.00
   7   2  -6   33.50    2.00
   7   2  -6   33.70    2.30
   7   2  -6   36.10    2.30
   7   2  -6   36.70    2.40
  -7  -2  -6   40.80    2.30
   7  -2   6   38.40    2.30
  -7  -2  -6   37.50    2.10
   7  -2   6   39.20    2.20
   7   2  -6   31.80    2.30
   7   2   6   39.90    2.00
   7  -2  -6   39.90    2.30
   7   2   6   34.30    2.30
  -7   2  -6   39.00    2.70
   7   2   6   37.70    2.40
   7  -2  -6   40.10    2.30
   7   2   6   37.20    2.20
   7  -2  -6   33.70    2.10
  -7   2  -6   36.00    2.30
   7  -2  -6   37.30    2.40
   7  -2  -6   40.40    2.10
   8   2  -6   77.29    3.60
   8   2  -6   71.19    3.40
  -8  -2  -6   73.09    3.00
   8   2  -6   78.19    3.20
   8  -2   6   76.09    3.30
   8  -2   6   74.49    3.30
  -8  -2  -6   80.59    3.40
   8  -2   6   75.69    3.60
   8   2  -6   75.19    3.40
   8   2  -6   72.39    3.20
   8  -2  -6   78.49    3.40
   8  -2  -6   79.89    3.00
   8  -2  -6   73.79    3.30
   8  -2  -6   81.39    3.50
  -8   2  -6   75.09    3.40
   8   2   6   80.29    3.30
   8   2   6   72.89    3.40
   8  -2  -6   79.69    3.30
  -8   2  -6   78.49    3.80
   9  -2   6   88.09    3.90
   9   2  -6   87.09    3.80
   9   2  -6   83.39    3.90
   9  -2   6   89.39    3.80
   9   2  -6   86.79    3.60
  -9  -2  -6   91.09    4.00
   9  -2   6   89.09    4.10
   9   2  -6   88.69    3.70
   9  -2  -6   83.69    4.00
   9  -2  -6   84.39    3.70
  -9   2  -6   82.19    4.00
   9   2   6   81.19    3.90
   9  -2  -6   84.29    3.80
   9   2   6   86.39    3.70
   9  -2  -6   82.69    3.70
  10   2  -6   31.50    2.80
  10   2  -6   28.30    2.50
 -10  -2  -6   32.10    3.10
  10  -2   6   26.00    2.60
  10   2  -6   26.60    2.50
  10  -2   6   30.60    2.70
  10   2  -6   28.80    2.60
  10  -2  -6   34.30    2.80
  10  -2  -6   29.80    2.70
 -10   2  -6   28.70    3.00
  10  -2  -6   32.10    2.70
  10   2   6   29.90    2.60
  10   2   6   30.70    2.80
   0   3  -6   46.60    1.40
   0  -3   6   44.40    1.90
   0   3  -6   48.40    1.70
   0  -3   6   47.70    1.50
   0   3  -6   49.10    1.70
   0  -3   6   48.10    1.60
   0   3   6   48.10    1.60
   1   3  -6  264.07    4.90
   1   3  -6  269.07    5.20
   1  -3   6  267.37    5.20
   1   3  -6  273.27    5.60
  -1   3   6  269.47    4.90
   1  -3   6  255.07    4.70
  -1  -3  -6  270.17    4.90
   1  -3   6  278.67    4.10
  -1  -3   6  269.67    5.50
  -1   3  -6  265.97    5.30
   1   3   6  268.37    5.10
   1   3   6  264.87    4.10
  -1   3  -6  274.57    4.40
  -1   3  -6  263.77    5.20
  -1  -3   6  263.57    5.00
  -1  -3   6  271.27    4.60
   2  -3   6   17.50    1.20
   2   3  -6   18.20    1.20
  -2  -3  -6   18.80    0.70
   2  -3   6   17.90    0.80
   2   3  -6   18.40    0.70
  -2   3   6   18.20    0.90
  -2  -3  -6   17.20    1.00
   2   3  -6   18.50    1.10
   2  -3   6   17.30    0.80
   2   3  -6   19.30    1.50
   2  -3  -6   18.00    1.00
   2  -3  -6   20.90    1.30
  -2   3  -6   19.60    1.30
  -2  -3   6   18.80    1.10
   2  -3  -6   18.10    1.10
   2   3   6   19.70    0.80
   2   3   6   18.90    1.10
  -2   3  -6   17.30    1.20
   2  -3  -6   18.60    1.20
   2  -3  -6   18.70    0.70
  -2  -3   6   17.90    1.20
   2  -3  -6   19.80    0.70
   3  -3   6  463.35    8.60
   3   3  -6  472.05    7.50
   3   3  -6  458.45    8.40
   3  -3   6  447.26    8.10
   3   3  -6  464.85    8.40
  -3   3   6  473.65    7.50
  -3  -3  -6  463.95    7.90
   3   3  -6  469.75    8.70
   3  -3   6  469.35    7.70
   3   3  -6  469.95    8.30
   3  -3   6  453.55    7.30
   3   3   6  472.55    7.80
   3  -3  -6  459.05    8.10
   3  -3  -6  476.05    8.10
   3   3   6  474.75    8.20
  -3  -3   6  456.95    8.20
  -3   3  -6  463.95    8.60
   3  -3  -6  475.25    7.70
   3  -3  -6  467.05    8.20
  -3   3  -6  446.86    8.40
   3  -3  -6  457.35    7.50
   3  -3  -6  467.05    7.40
   3   3   6  458.65    7.90
  -3  -3   6  466.45    8.30
   3  -3  -6  460.25    8.40
   4   3  -6   87.19    2.90
   4   3  -6   90.29    2.90
   4  -3   6   82.29    3.00
   4  -3   6   89.19    2.70
   4   3  -6   90.59    2.40
   4   3  -6   91.19    3.00
   4   3  -6   86.09    2.80
   4  -3   6   85.89    2.50
   4  -3   6   84.59    1.90
  -4  -3  -6   87.49    2.50
  -4   3  -6   84.99    2.80
   4  -3  -6   87.99    2.50
   4  -3  -6   84.39    2.70
   4  -3  -6   83.59    2.80
   4  -3  -6   85.19    2.30
   4  -3  -6   93.19    2.30
   4   3   6   86.89    2.60
   4   3   6   89.39    2.60
   4  -3  -6   80.29    2.60
  -4   3  -6   92.79    3.10
  -4  -3   6   83.69    2.60
   4   3   6   87.09    2.50
   5   3  -6    7.70    0.90
   5   3  -6    6.90    1.10
   5  -3   6    3.80    1.00
   5   3  -6    6.00    1.00
   5  -3   6    5.90    0.90
   5  -3   6    4.40    0.90
   5   3  -6    5.10    1.10
   5   3  -6    5.40    1.00
  -5  -3  -6    5.10    0.90
  -5  -3  -6    5.50    0.90
   5   3   6    6.00    0.70
   5  -3  -6    5.30    0.70
   5  -3  -6    4.70    1.00
   5   3   6    7.40    1.00
   5   3   6    4.10    1.00
   5  -3  -6    5.70    0.90
  -5   3  -6    8.40    1.20
  -5  -3   6    4.70    0.80
  -5   3  -6    5.40    1.10
   5  -3  -6    4.80    0.90
   5   3   6    5.40    0.90
   5  -3  -6    5.30    0.80
   5   3   6    5.50    0.90
   5  -3  -6    4.20    0.90
   6   3  -6   13.10    1.60
   6  -3   6   11.70    1.50
   6   3  -6   14.00    1.40
   6  -3   6   12.70    1.40
   6   3  -6   12.50    1.40
  -6  -3  -6   15.90    1.40
  -6  -3  -6   12.10    1.40
   6   3  -6   11.40    1.50
   6   3  -6   11.70    1.40
   6  -3   6   12.80    1.50
   6   3   6   12.90    1.50
   6  -3  -6   13.70    1.50
   6  -3  -6   14.20    1.30
  -6   3  -6   13.10    1.50
   6   3   6   13.20    1.30
   6  -3  -6   16.90    1.40
   6   3   6   15.30    1.50
   6  -3  -6   14.60    1.60
   6  -3  -6   11.30    1.40
  -6  -3   6   14.10    1.20
  -6   3  -6   10.00    1.50
   6   3   6   12.90    1.50
   7  -3   6  164.28    4.70
   7   3  -6  167.58    4.90
  -7  -3  -6  163.38    4.50
  -7  -3  -6  167.98    4.70
   7  -3   6  156.38    5.10
   7  -3   6  167.38    4.80
   7   3  -6  166.38    4.90
   7   3  -6  174.78    4.70
   7   3  -6  169.38    4.60
   7   3  -6  159.08    5.00
   7  -3  -6  158.08    4.70
   7  -3  -6  158.38    4.50
   7   3   6  174.18    5.00
   7   3   6  161.78    4.50
   7  -3  -6  167.28    5.10
   7  -3  -6  164.98    4.50
  -7   3  -6  170.48    5.40
   7   3   6  164.78    4.20
  -7   3  -6  170.28    5.00
   7   3   6  165.98    5.00
   7  -3  -6  170.38    4.20
   8   3  -6  108.69    4.20
   8  -3   6  123.29    4.30
   8   3  -6  112.89    4.30
   8   3  -6  121.69    4.10
  -8  -3  -6  117.89    3.90
   8   3  -6  112.19    4.00
  -8  -3  -6  119.89    4.10
   8  -3   6  113.69    4.10
   8   3  -6  115.89    4.30
  -8   3  -6  123.49    4.80
   8  -3  -6  115.29    4.00
   8   3   6  120.19    4.40
   8   3   6  116.29    4.00
   8  -3  -6  117.29    4.20
  -8   3  -6  113.59    4.40
   8  -3  -6  115.59    4.30
   8  -3  -6  118.79    4.00
   9   3  -6    1.50    1.20
  -9  -3  -6    1.20    1.30
   9  -3   6    2.50    1.20
   9   3  -6    0.00    1.10
   9   3  -6    2.60    1.30
   9   3  -6    1.20    1.10
   9  -3   6    1.00    1.10
   9  -3   6    1.70    1.20
  -9   3  -6    1.80    1.40
   9   3   6    2.20    1.10
   9   3   6   -0.10    1.10
   9  -3  -6    1.90    1.10
   9  -3  -6    1.50    1.00
   9  -3  -6    0.80    1.10
  10   3  -6    3.50    1.50
  10  -3   6    4.10    1.40
  10   3  -6    3.60    1.40
  10   3  -6    3.40    1.40
  10   3  -6    4.30    1.40
  10  -3   6    5.80    1.60
 -10   3  -6    6.60    1.90
  10  -3  -6    3.50    1.30
  10  -3  -6    3.60    1.30
  10   3   6    2.40    1.30
  10   3   6    2.30    1.50
  10  -3  -6    5.10    1.50
   0   4   6   16.40    1.00
   0   4  -6   17.70    1.40
   0   4  -6   16.50    1.20
   0  -4   6   17.90    1.00
   0  -4   6   18.00    1.00
   0  -4   6   16.90    1.30
   0   4  -6   16.50    0.90
   0   4  -6   17.90    1.20
   1   4  -6  324.57    5.80
  -1   4   6  324.57    5.70
   1   4  -6  324.57    6.00
   1   4  -6  311.67    6.40
  -1  -4  -6  317.67    5.60
   1  -4   6  302.57    6.40
   1  -4   6  320.07    6.10
   1  -4   6  330.67    4.90
  -1  -4  -6  317.07    5.40
   1  -4   6  317.97    5.60
   1   4  -6  324.07    6.20
  -1  -4   6  317.37    5.90
  -1  -4   6  330.87    6.50
  -1   4  -6  321.17    6.10
  -1   4  -6  330.67    5.40
   1   4   6  321.47    5.90
   1   4   6  325.37    4.90
  -1  -4   6  327.77    5.50
  -1   4  -6  318.07    6.20
   2   4  -6  167.48    3.90
   2  -4   6  163.98    3.30
   2   4  -6  170.18    3.80
   2  -4   6  167.98    3.00
  -2   4   6  161.08    3.40
  -2  -4  -6  164.88    3.40
   2  -4   6  165.48    4.00
  -2  -4  -6  163.48    3.00
   2   4  -6  160.78    4.10
   2  -4  -6  166.48    2.80
  -2   4  -6  160.68    3.90
   2  -4  -6  169.08    2.90
  -2  -4   6  167.18    3.80
  -2   4  -6  167.98    4.10
   2   4   6  165.68    3.70
   2  -4  -6  166.58    3.30
   2  -4  -6  160.38    3.70
   2  -4  -6  164.28    3.60
   2  -4  -6  165.38    3.70
   2  -4  -6  166.38    3.60
   2   4   6  163.28    3.10
  -2  -4   6  165.08    4.10
  -2  -4   6  168.88    3.00
   3   4  -6  136.59    2.80
   3   4  -6  136.79    3.80
   3   4  -6  131.99    3.60
  -3  -4  -6  139.19    3.10
   3   4  -6  137.79    3.60
  -3  -4  -6  141.09    2.40
  -3   4   6  138.59    2.90
   3  -4   6  133.69    2.80
   3  -4   6  131.89    2.90
   3  -4   6  136.49    3.40
   3  -4   6  129.29    3.70
  -3  -4  -6  134.59    3.70
  -3  -4   6  138.89    3.50
   3  -4  -6  134.39    3.40
   3   4   6  141.39    3.10
   3  -4  -6  136.19    3.20
  -3  -4   6  134.19    3.60
   3   4   6  141.39    3.40
   3  -4  -6  141.09    2.70
  -3   4  -6  136.19    3.60
  -3   4  -6  127.69    3.70
   3  -4  -6  134.39    2.80
   3  -4  -6  139.59    3.20
   3  -4  -6  138.09    2.90
   3  -4  -6  136.29    3.40
   4   4  -6  502.25    9.50
   4  -4   6  504.55    8.60
  -4  -4  -6  512.85    8.60
   4  -4   6  500.75    9.70
   4  -4   6  502.65    8.10
   4  -4   6  493.65    9.00
   4   4  -6  503.65    9.40
   4   4  -6  503.55    8.50
  -4  -4  -6  492.75    9.30
   4   4  -6  506.35    9.40
   4   4  -6  511.65    9.20
   4  -4  -6  506.65    9.00
  -4  -4   6  512.05    9.20
   4  -4  -6  511.95    9.50
   4  -4  -6  515.65    8.60
   4   4   6  520.65    9.00
  -4   4  -6  502.75    9.30
   4  -4  -6  518.35    8.60
  -4  -4   6  510.85    9.30
   4  -4  -6  518.65    8.50
  -4   4  -6  496.35    9.70
   4   4   6  519.95    8.90
   4   4   6  503.55    8.70
   4  -4  -6  508.75    9.20
   5  -4   6  173.38    4.20
  -5  -4  -6  177.08    4.60
   5  -4   6  167.58    4.30
  -5  -4  -6  175.68    4.00
   5  -4   6  170.88    4.90
   5  -4   6  179.48    3.70
   5   4  -6  173.98    4.70
   5   4  -6  162.78    4.60
   5   4  -6  172.68    4.40
   5   4  -6  176.08    4.70
   5   4  -6  173.58    4.00
   5   4   6  180.28    4.30
   5  -4  -6  183.68    3.90
   5  -4  -6  165.18    4.60
   5   4   6  185.58    3.90
   5  -4  -6  184.88    4.40
   5   4   6  166.58    4.10
  -5   4  -6  179.78    5.00
   5   4   6  175.58    4.20
   5  -4  -6  173.58    4.00
  -5   4  -6  171.58    4.60
  -5  -4   6  172.88    4.30
   5  -4  -6  169.38    4.40
   5  -4  -6  179.38    3.90
   6   4  -6   67.89    3.00
   6   4  -6   71.79    2.80
   6  -4   6   64.59    3.00
  -6  -4  -6   65.89    2.80
   6  -4   6   70.99    2.70
   6   4  -6   68.39    2.50
   6   4  -6   68.99    3.00
   6  -4   6   67.89    2.70
   6   4  -6   65.59    2.90
  -6  -4  -6   71.29    2.50
   6   4   6   72.69    3.00
   6  -4  -6   69.39    2.50
   6  -4  -6   64.49    2.70
   6   4   6   69.89    2.60
   6  -4  -6   68.09    2.80
   6  -4  -6   66.59    3.00
   6   4   6   67.89    2.80
  -6  -4   6   70.29    2.60
  -6   4  -6   65.49    2.80
   6   4   6   72.19    2.60
  -6   4  -6   73.19    3.30
   7  -4   6    2.10    1.00
   7   4  -6    0.00    1.00
   7   4  -6    2.10    1.10
   7   4  -6    1.10    0.90
  -7  -4  -6    2.50    1.00
  -7  -4  -6    3.10    1.00
   7  -4   6    1.10    0.80
   7  -4   6    2.30    1.20
   7   4  -6    3.70    1.10
   7   4  -6    1.90    0.90
   7  -4  -6    1.50    0.80
   7   4   6   -0.30    0.90
   7  -4  -6    2.10    1.00
   7   4   6    2.40    0.90
   7  -4  -6    1.90    1.00
  -7   4  -6    1.60    1.20
  -7   4  -6    1.70    1.10
   7   4   6    0.90    0.80
   7  -4  -6    2.60    1.10
   8  -4   6   47.10    3.10
  -8  -4  -6   53.89    2.80
  -8  -4  -6   51.59    2.80
   8   4  -6   49.80    2.80
   8   4  -6   47.20    3.00
   8   4  -6   50.59    3.00
   8  -4   6   51.69    2.80
   8   4  -6   50.29    3.10
   8  -4   6   50.39    2.80
   8   4  -6   50.09    2.70
   8  -4  -6   48.70    2.90
   8   4   6   48.00    2.60
   8  -4  -6   52.79    3.00
  -8   4  -6   49.70    3.20
   8  -4  -6   50.89    2.60
  -8   4  -6   50.99    3.10
   8  -4  -6   49.20    2.70
   8   4   6   49.50    3.00
   9   4  -6   28.80    2.20
   9   4  -6   26.60    2.40
  -9  -4  -6   32.20    2.40
   9  -4   6   32.10    2.50
   9  -4   6   31.00    2.50
   9   4  -6   29.10    2.60
   9  -4   6   34.30    2.90
   9   4  -6   35.20    2.70
   9  -4  -6   33.50    2.50
   9   4   6   31.60    2.40
   9   4   6   31.30    2.70
   9  -4  -6   31.40    2.70
  -9   4  -6   31.90    2.90
   9  -4  -6   31.50    2.50
  10   4  -6   49.40    3.30
  10   4  -6   44.40    3.10
  10   4  -6   43.40    2.90
  10   4  -6   44.40    3.20
  10  -4   6   40.90    3.00
  10  -4   6   48.10    3.20
  10   4   6   44.60    3.30
  10  -4  -6   42.50    2.90
  10   4   6   44.20    3.00
 -10   4  -6   47.10    3.60
  10  -4  -6   41.20    3.10
  10  -4  -6   41.40    3.10
   0  -5  -6    1.90    0.30
   0  -5  -6    1.10    0.50
   0   5  -6    1.20    0.40
   0   5  -6    1.20    0.60
   0   5   6   -0.20    0.40
   0  -5   6    0.40    0.60
   0   5  -6   -0.20    0.50
   0   5  -6    0.60    0.50
   0  -5  -6    1.10    0.50
   0  -5   6    1.10    0.50
   0  -5   6    1.20    0.50
  -1   5   6  106.79    2.60
  -1  -5  -6  104.09    2.10
   1   5  -6  108.09    3.20
  -1  -5  -6  103.09    2.40
   1  -5   6  101.59    2.60
   1  -5   6  106.69    1.90
   1   5  -6  105.79    2.80
   1  -5   6  103.49    2.90
   1   5  -6  102.79    2.70
   1   5  -6  101.89    3.00
  -1  -5  -6  102.59    2.30
  -1  -5  -6  104.59    2.90
   1  -5   6  104.79    3.20
   1   5   6   98.79    2.70
  -1   5  -6  102.59    3.00
   1  -5  -6  105.59    2.60
  -1  -5   6  103.29    3.20
  -1   5  -6  103.79    2.40
  -1  -5   6  100.09    2.80
  -1   5  -6  107.59    2.90
  -1   5  -6  102.29    3.10
  -1  -5   6   99.09    2.40
   1   5   6  104.09    2.00
   1  -5  -6  106.89    2.90
   1  -5  -6  105.49    1.80
   2  -5   6  223.58    3.90
   2   5  -6  218.88    4.70
  -2  -5  -6  217.18    4.90
   2  -5   6  213.28    4.30
  -2  -5  -6  222.08    3.90
   2  -5   6  212.48    4.90
  -2  -5  -6  221.38    4.10
  -2   5   6  220.78    4.20
   2   5  -6  226.78    5.00
   2   5   6  218.08    4.70
  -2  -5   6  216.08    3.90
  -2   5  -6  217.68    4.80
   2  -5  -6  219.48    4.60
   2  -5  -6  222.28    4.30
  -2   5  -6  211.38    5.00
  -2  -5   6  216.28    4.60
   2   5   6  214.68    4.00
  -2  -5   6  218.98    5.10
   2  -5  -6  216.08    3.70
   2  -5  -6  216.98    4.70
   2  -5  -6  216.68    4.40
   2  -5  -6  216.98    4.20
   3   5  -6  107.89    3.30
  -3  -5  -6  104.49    2.40
   3  -5   6  102.69    2.50
   3  -5   6  105.99    2.50
  -3   5   6  105.59    2.50
   3   5  -6  104.39    3.10
   3   5  -6  100.79    3.40
  -3  -5  -6   94.79    3.10
  -3  -5  -6  107.39    2.10
   3   5  -6  103.79    3.10
   3  -5  -6  106.19    2.30
   3  -5  -6  104.19    2.80
   3  -5  -6  109.09    2.90
   3   5   6  104.89    3.00
   3  -5  -6  102.99    2.60
  -3  -5   6  103.99    3.30
  -3  -5   6  103.69    2.00
  -3  -5   6   98.69    2.90
   3  -5  -6  105.99    3.10
  -3   5  -6  105.19    3.40
  -3   5  -6  108.79    3.20
   3   5   6  104.59    2.60
  -4   5   6  120.89    2.50
   4   5  -6  120.29    3.60
   4   5  -6  119.59    3.40
   4   5  -6  117.59    3.70
  -4  -5  -6  119.79    2.80
   4  -5   6  121.39    3.00
  -4  -5  -6  117.69    3.60
   4  -5   6  120.99    2.80
   4   5  -6  120.59    2.90
   4   5  -6  117.29    3.60
   4  -5   6  120.79    3.80
   4  -5   6  118.39    3.30
   4   5   6  122.49    3.20
   4  -5  -6  121.29    3.20
   4  -5  -6  114.09    3.20
   4  -5  -6  120.79    3.70
   4  -5  -6  120.59    3.50
  -4   5  -6  117.29    3.50
  -4  -5   6  124.59    3.50
  -4  -5   6  122.39    3.60
   4  -5  -6  117.69    2.90
   4   5   6  120.89    3.00
   4  -5  -6  119.39    2.80
   4   5   6  123.19    3.40
  -4   5  -6  120.29    3.90
   5   5  -6   34.70    2.20
   5   5  -6   41.50    2.30
   5  -5   6   41.30    1.90
   5   5  -6   39.50    2.20
   5   5  -6   39.20    2.10
   5  -5   6   41.60    2.10
  -5  -5  -6   40.50    2.20
   5   5  -6   39.70    1.80
  -5  -5  -6   42.60    1.70
   5  -5   6   40.50    1.50
   5  -5   6   38.80    2.30
   5   5   6   45.60    2.10
  -5   5  -6   40.30    2.20
  -5  -5   6   42.70    2.10
   5   5   6   40.00    1.80
  -5   5  -6   41.60    2.50
   5  -5  -6   41.50    2.20
   5   5   6   41.70    1.70
   5  -5  -6   43.80    1.90
   5  -5  -6   39.00    2.20
   5  -5  -6   41.10    1.80
   5  -5  -6   39.20    2.00
   5   5   6   36.70    1.90
   6   5  -6   42.60    2.40
   6  -5   6   42.10    2.60
   6   5  -6   43.10    2.00
   6  -5   6   41.60    2.10
   6   5  -6   42.30    2.60
   6   5  -6   40.40    2.50
  -6  -5  -6   38.80    2.30
   6  -5   6   43.30    2.30
  -6  -5  -6   42.10    2.00
   6   5  -6   43.00    2.30
   6   5   6   41.80    2.10
   6   5   6   43.40    1.90
  -6   5  -6   45.80    2.50
   6  -5  -6   44.60    2.20
  -6  -5   6   41.00    2.20
  -6   5  -6   40.60    2.70
   6  -5  -6   46.30    2.10
   6   5   6   39.50    2.00
   6  -5  -6   43.80    2.40
   6  -5  -6   43.90    2.40
  -7  -5  -6   97.39    3.60
   7   5  -6   98.79    3.50
   7   5  -6   84.99    3.70
   7  -5   6   96.89    3.60
   7  -5   6   89.59    3.40
   7   5  -6   96.59    3.90
   7   5  -6   91.09    3.80
   7   5  -6   97.39    3.40
   7  -5   6   89.29    3.90
   7  -5  -6   95.99    3.80
   7  -5  -6   90.99    3.60
   7  -5  -6   92.09    3.20
  -7   5  -6   92.69    4.10
   7  -5  -6   92.89    3.40
  -7   5  -6   98.89    3.90
   7   5   6   96.59    3.30
   7   5   6   87.59    3.10
   8   5  -6  105.09    3.80
   8  -5   6  104.99    4.10
   8  -5   6  114.29    4.00
   8   5  -6  103.29    4.30
   8   5  -6  103.19    3.80
   8   5  -6  110.89    4.40
   8  -5   6  110.09    4.60
  -8  -5  -6  109.49    4.00
   8   5  -6  114.19    4.50
   8  -5  -6  110.69    4.30
   8  -5  -6  109.79    4.00
  -8   5  -6  104.69    4.70
   8  -5  -6  105.49    4.10
   8   5   6  106.79    3.70
  -8   5  -6   99.29    4.10
   8   5   6  109.39    3.60
   8  -5  -6  105.59    3.80
   9   5  -6   33.30    2.50
   9  -5   6   30.70    2.90
   9  -5   6   35.80    2.70
   9   5  -6   34.40    2.50
   9   5  -6   29.10    2.70
  -9  -5  -6   33.70    2.50
   9  -5   6   28.80    2.50
   9   5  -6   32.90    2.80
  -9   5  -6   26.20    2.90
   9  -5  -6   29.00    2.60
   9  -5  -6   34.70    2.60
   9   5   6   31.70    2.30
   9  -5  -6   28.10    2.50
  10   5  -6   42.30    3.20
  10  -5   6   37.70    3.00
  10  -5   6   45.00    3.20
  10   5  -6   43.90    2.90
  10   5  -6   36.80    3.10
 -10   5  -6   37.60    3.50
  10   5   6   38.20    2.70
  10  -5  -6   40.80    2.90
  10  -5  -6   41.20    3.00
  10  -5  -6   41.80    3.20
   0  -6  -6   21.20    1.30
   0  -6   6   23.60    1.30
   0   6   6   22.40    1.30
   0  -6   6   20.50    1.50
   0   6  -6   23.50    1.40
   0   6  -6   22.50    1.20
   0   6  -6   20.10    1.50
   0  -6  -6   24.60    1.30
   0  -6  -6   22.70    0.80
   0  -6   6   23.80    0.70
   0  -6   6   25.10    1.40
   0   6  -6   24.60    1.60
  -1   6   6   56.59    1.90
   1   6  -6   58.19    2.40
  -1  -6  -6   56.29    1.60
   1   6  -6   57.69    2.00
  -1  -6  -6   55.59    2.10
   1  -6   6   58.59    2.00
   1   6  -6   56.79    2.00
   1  -6   6   59.59    1.40
   1   6  -6   60.39    2.40
  -1  -6  -6   55.99    1.80
   1  -6   6   53.29    2.40
  -1  -6  -6   56.79    1.50
   1  -6   6   59.49    2.20
   1  -6  -6   56.99    1.80
  -1  -6   6   57.39    2.10
   1  -6  -6   58.39    1.90
   1   6   6   55.49    2.00
  -1   6  -6   56.99    1.80
   1  -6  -6   57.39    1.30
   1   6   6   57.19    1.40
   1  -6  -6   55.59    2.20
  -1   6  -6   57.39    2.40
   1  -6  -6   55.89    2.00
  -1  -6   6   57.79    1.90
  -1   6  -6   54.69    2.10
  -1   6  -6   55.99    2.20
   2  -6   6  132.19    2.70
   2   6  -6  128.49    3.30
  -2  -6  -6  129.69    2.80
   2   6  -6  131.39    3.50
  -2  -6  -6  131.59    2.70
  -2  -6  -6  127.39    3.50
  -2   6   6  127.79    3.00
   2  -6   6  126.09    3.80
   2   6  -6  131.29    3.80
   2  -6   6  128.69    3.10
   2   6  -6  125.39    3.70
   2  -6   6  127.29    3.60
  -2  -6   6  134.69    3.50
   2  -6  -6  131.29    2.60
  -2  -6   6  130.49    3.90
   2  -6  -6  122.09    3.40
   2   6   6  125.49    3.30
   2   6   6  129.19    2.80
   2  -6  -6  127.69    2.90
  -2   6  -6  129.99    3.80
  -2   6  -6  129.89    3.50
   2  -6  -6  128.59    3.40
  -2   6  -6  130.09    3.50
   2  -6  -6  132.39    3.00
   2  -6  -6  131.89    3.00
  -2  -6   6  125.59    2.80
  -3  -6  -6   70.19    1.80
   3   6  -6   66.59    2.70
   3   6  -6   67.79    2.50
   3   6  -6   70.69    2.90
   3  -6   6   69.59    2.10
  -3  -6  -6   71.99    1.80
  -3   6   6   70.19    2.00
   3   6  -6   65.69    2.50
   3  -6   6   71.69    2.00
   3  -6   6   66.29    2.70
  -3   6  -6   71.59    2.90
   3  -6  -6   69.59    1.90
   3  -6  -6   70.49    2.50
   3   6   6   68.79    2.50
  -3  -6   6   66.29    1.70
   3  -6  -6   71.89    2.00
   3   6   6   69.09    2.10
  -3  -6   6   68.39    2.50
   3  -6  -6   70.29    2.50
   3  -6  -6   72.49    2.30
  -3   6  -6   67.89    2.50
  -3  -6   6   68.39    2.70
  -4   6   6  405.96    6.90
   4   6  -6  400.76    8.30
  -4  -6  -6  410.26    8.20
  -4  -6  -6  413.56    6.90
   4  -6   6  397.36    8.50
   4   6  -6  393.06    7.70
   4  -6   6  411.76    7.70
   4   6  -6  413.86    8.30
   4  -6   6  407.96    7.30
   4   6  -6  398.96    8.20
   4  -6   6  401.16    7.20
   4   6   6  399.26    7.80
   4  -6  -6  414.26    7.70
   4  -6  -6  403.26    8.00
  -4   6  -6  400.16    8.00
  -4  -6   6  401.06    7.90
  -4  -6   6  410.76    8.30
  -4   6  -6  395.66    8.50
   4  -6  -6  407.56    7.40
   5   6  -6    0.70    0.60
   5   6  -6    0.70    0.70
   5  -6   6    0.30    0.60
   5  -6   6    0.20    0.50
   5   6  -6    2.10    1.20
  -5  -6  -6    0.20    0.70
   5  -6   6   -0.10    0.90
   5   6  -6    0.90    0.90
   5  -6   6   -0.10    0.50
   5   6  -6   -0.70    0.80
  -5   6  -6    0.40    0.80
   5  -6  -6    0.20    0.70
  -5  -6   6   -0.40    0.60
   5   6   6   -0.40    0.50
   5   6   6    0.20    0.70
   5  -6  -6   -0.40    0.50
  -5  -6   6    0.10    0.70
   5  -6  -6    0.50    0.80
   5  -6  -6    1.50    0.80
   5  -6  -6    0.80    0.70
  -5   6  -6   -0.10    0.80
   6   6  -6    5.90    1.30
   6  -6   6    7.30    1.30
   6   6  -6    9.30    1.20
  -6  -6  -6    6.10    1.20
   6  -6   6    5.00    1.00
   6   6  -6    8.30    1.30
   6   6  -6    8.30    1.50
   6  -6   6    7.00    1.50
   6   6  -6    6.30    1.40
   6   6   6    7.70    1.10
   6  -6  -6    8.00    1.20
   6   6   6    6.40    1.20
   6  -6  -6    6.50    1.00
  -6   6  -6    8.20    1.50
   6  -6  -6    7.70    1.30
  -6   6  -6    7.30    1.50
  -6  -6   6    6.00    1.20
   6   6   6    7.90    1.00
   6  -6  -6    7.20    1.30
   6  -6  -6    7.60    1.20
   7   6  -6   68.19    3.50
   7   6  -6   73.09    3.50
   7   6  -6   72.29    3.40
   7  -6   6   73.59    3.00
   7   6  -6   69.59    3.00
  -7  -6  -6   71.39    3.20
   7  -6   6   73.19    3.20
   7   6  -6   67.99    2.90
   7  -6   6   64.89    3.50
  -7   6  -6   70.69    3.40
  -7   6  -6   77.19    3.80
   7  -6  -6   77.49    3.10
   7   6   6   73.39    2.90
   7  -6  -6   77.19    3.00
   7  -6  -6   75.49    3.40
   7   6   6   69.29    2.70
   7  -6  -6   73.09    3.40
   8   6  -6    8.90    1.50
   8  -6   6    8.00    1.70
   8   6  -6   10.00    1.60
   8  -6   6   11.60    1.70
   8   6  -6   11.50    1.80
   8  -6   6   12.80    1.70
   8   6  -6   12.30    2.00
   8   6  -6   13.00    2.00
  -8  -6  -6   10.00    1.70
   8  -6  -6   12.60    1.70
  -8   6  -6    9.90    1.80
  -8   6  -6   12.10    2.00
   8  -6  -6    9.60    1.40
   8  -6  -6   12.50    1.90
   8   6   6    9.70    1.40
   8  -6  -6    8.60    1.50
   8   6   6   11.10    1.50
   9   6  -6   36.80    2.60
   9  -6   6   35.00    2.70
   9   6  -6   31.90    2.80
   9  -6   6   34.30    3.10
   9  -6   6   37.40    2.70
  -9  -6  -6   40.90    2.80
   9   6  -6   32.90    2.70
   9   6   6   36.20    2.30
   9  -6  -6   37.80    2.60
   9  -6  -6   38.80    2.90
  -9   6  -6   36.00    3.10
   9  -6  -6   35.20    2.80
  10  -6   6   60.19    3.60
  10  -6   6   65.29    3.70
  10   6  -6   60.49    3.80
  10   6  -6   61.69    3.30
  10  -6  -6   60.29    3.40
  10  -6  -6   60.69    3.50
  10   6   6   52.59    3.30
  10  -6  -6   59.19    3.80
   0  -7   6  552.04    8.10
   0   7  -6  549.05    9.30
   0  -7   6  526.05    9.30
   0   7  -6  536.85    9.30
   0  -7   6  528.15   10.20
   0  -7  -6  529.15    9.10
   0  -7   6  531.55    9.40
   0  -7  -6  535.45    9.40
   0  -7  -6  518.05    9.70
   0   7  -6  542.05   10.00
   0   7   6  532.95    9.30
   0   7  -6  533.55    9.60
   1   7  -6  155.68    4.20
  -1  -7  -6  157.68    3.50
  -1   7   6  159.48    3.70
   1  -7   6  160.18    3.80
   1   7  -6  164.58    4.40
   1   7  -6  155.38    3.70
   1  -7   6  156.78    4.50
   1  -7   6  157.78    4.10
   1   7  -6  156.38    3.90
   1  -7   6  163.28    3.00
  -1  -7  -6  160.98    3.00
  -1  -7  -6  156.98    4.00
  -1   7  -6  156.38    3.60
  -1  -7   6  158.78    3.90
   1  -7  -6  162.38    3.80
  -1   7  -6  159.08    4.00
  -1  -7   6  160.68    3.70
   1   7   6  153.28    3.80
   1  -7  -6  160.58    3.80
  -1   7  -6  158.08    3.90
  -1  -7   6  154.98    4.50
  -1   7  -6  158.58    4.40
   1  -7  -6  157.88    4.10
   1  -7  -6  155.58    3.20
   2   7  -6   92.19    2.70
  -2  -7  -6   88.99    3.00
   2   7  -6   92.89    3.00
   2   7  -6   93.59    3.20
   2  -7   6   95.49    3.40
   2  -7   6   92.59    2.20
   2  -7   6   91.99    3.10
   2   7  -6   89.29    3.20
  -2  -7  -6   92.29    2.40
  -2   7   6   89.19    2.50
   2  -7   6   93.49    2.70
  -2   7  -6   95.79    3.40
   2  -7  -6   85.39    2.90
   2  -7  -6   94.59    2.30
   2  -7  -6   91.39    2.90
  -2  -7   6   88.99    3.30
   2  -7  -6   92.39    2.50
   2  -7  -6   90.39    2.40
  -2   7  -6   91.09    2.90
   2   7   6   93.59    2.90
  -2   7  -6   87.99    2.90
  -2  -7   6   90.99    2.90
   2  -7  -6   88.29    2.90
  -2  -7   6   92.09    2.50
  -3  -7  -6  131.39    2.90
   3  -7   6  130.19    3.30
   3   7  -6  129.99    4.00
  -3  -7  -6  128.89    3.90
   3   7  -6  126.39    3.50
  -3   7   6  132.29    3.00
   3   7  -6  133.39    4.00
   3   7  -6  126.19    3.70
   3  -7   6  132.29    3.00
   3  -7   6  122.69    4.00
   3  -7  -6  124.79    3.70
  -3   7  -6  127.29    4.20
   3  -7  -6  128.99    3.10
  -3  -7   6  127.99    3.70
   3  -7  -6  130.19    2.90
  -3  -7   6  126.19    4.10
   3  -7  -6  132.49    3.70
   3  -7  -6  132.09    3.70
   3   7   6  123.39    3.60
  -3   7  -6  129.99    3.50
  -3  -7   6  124.69    2.80
  -3   7  -6  132.19    3.70
   4   7  -6   50.09    2.40
  -4  -7  -6   49.90    2.40
   4  -7   6   53.99    2.00
   4  -7   6   55.39    2.80
   4  -7   6   53.29    2.20
   4   7  -6   51.39    2.20
   4   7  -6   55.59    2.60
   4   7  -6   51.99    2.70
   4  -7   6   54.49    2.00
  -4   7  -6   47.70    2.70
  -4  -7   6   49.90    2.40
   4   7   6   55.69    2.30
   4  -7  -6   50.29    2.40
   4  -7  -6   52.79    2.10
  -4  -7   6   53.29    2.70
  -4   7  -6   52.19    2.40
   4  -7  -6   56.59    2.40
   5   7  -6    1.30    1.10
  -5  -7  -6    0.80    0.80
   5   7  -6    1.00    0.90
   5   7  -6   -0.20    0.80
   5  -7   6    0.50    0.60
   5   7  -6    0.60    0.80
   5  -7   6    1.60    0.60
   5  -7   6    0.50    0.80
   5  -7   6   -0.70    0.60
   5  -7  -6    0.70    0.80
  -5   7  -6    0.90    0.90
   5  -7  -6   -0.30    0.80
  -5  -7   6    0.90    0.90
   5  -7  -6    0.40    0.80
   5   7   6    0.10    0.60
   5  -7  -6    1.80    0.80
  -5   7  -6    1.80    0.90
   5   7   6    2.30    0.80
  -5  -7   6    0.80    0.70
   6  -7   6   68.49    3.40
   6   7  -6   64.79    3.10
   6   7  -6   71.09    3.40
  -6  -7  -6   62.99    3.00
   6  -7   6   68.49    2.70
   6   7  -6   64.29    3.30
   6  -7   6   66.49    2.80
   6   7  -6   73.39    2.80
   6  -7  -6   65.19    3.10
   6   7   6   66.89    2.40
   6  -7  -6   71.99    2.90
   6  -7  -6   64.19    3.00
  -6   7  -6   59.89    2.90
   6   7   6   68.79    2.70
   6   7   6   68.79    2.90
  -6   7  -6   63.89    3.50
  -6  -7   6   68.09    3.10
   6  -7  -6   66.29    2.60
   6  -7  -6   67.09    2.70
   7   7  -6   60.99    3.40
   7   7  -6   55.09    3.10
   7   7  -6   62.29    3.30
   7  -7   6   64.59    3.00
   7  -7   6   64.29    2.90
   7  -7   6   59.69    3.30
   7   7  -6   62.69    2.80
   7   7  -6   63.99    3.80
  -7  -7  -6   63.99    3.20
  -7  -7   6   63.19    3.10
   7  -7  -6   61.69    3.10
   7  -7  -6   58.59    2.70
   7   7   6   59.29    2.50
   7  -7  -6   58.49    2.70
  -7   7  -6   64.69    3.30
   7  -7  -6   59.89    3.20
   7   7   6   62.49    2.80
  -7   7  -6   62.29    3.60
   7  -7  -6   61.19    3.10
   8   7  -6   42.00    2.50
   8   7  -6   37.20    2.90
   8  -7   6   40.60    2.70
   8  -7   6   36.90    3.00
   8   7  -6   36.70    2.90
  -8  -7  -6   36.20    2.70
   8  -7   6   38.50    2.50
   8  -7  -6   38.40    2.40
   8  -7  -6   38.60    2.70
   8   7   6   37.30    2.50
   8  -7  -6   38.20    2.70
   8  -7  -6   41.40    2.50
  -8   7  -6   41.40    3.40
  -8   7  -6   39.10    3.00
   8  -7  -6   37.60    2.80
   9  -7   6   14.40    2.10
   9  -7   6   15.40    2.10
   9  -7   6   13.80    2.30
  -9  -7  -6   20.00    2.30
   9   7  -6   16.40    1.90
   9   7  -6   18.80    2.50
   9   7  -6   19.30    2.50
   9  -7  -6   21.20    2.20
   9  -7  -6   14.20    2.20
   9  -7  -6   16.70    2.10
   9  -7  -6   15.90    2.10
  -9   7  -6   15.00    2.30
  10   7  -6   45.90    2.80
  10  -7   6   37.40    3.40
  10  -7   6   42.60    3.10
  10   7  -6   47.90    3.50
  10  -7  -6   51.59    3.10
   0  -8   6    5.10    0.90
   0   8  -6    3.80    0.80
   0  -8  -6    3.70    1.00
   0   8  -6    2.70    0.70
   0   8  -6    4.00    1.00
   0  -8   6    4.70    0.90
   0  -8   6    5.70    1.20
   0   8  -6    3.00    0.90
   0  -8  -6    4.60    0.90
   0   8   6    3.00    0.80
   0  -8  -6    4.40    0.90
   0  -8   6    5.00    0.50
  -1  -8  -6  874.91   13.80
  -1  -8  -6  841.22   14.50
   1  -8   6  859.71   14.60
   1  -8   6  876.31   14.30
  -1   8   6  882.01   14.10
   1   8  -6  881.01   14.40
   1  -8   6  851.11   15.20
   1   8  -6  851.31   14.50
  -1  -8  -6  849.72   14.80
   1   8  -6  878.91   15.10
   1   8  -6  872.51   14.00
   1  -8   6  892.41   13.10
  -1  -8   6  873.61   14.40
   1  -8  -6  869.31   14.10
   1  -8  -6  856.51   14.60
   1   8   6  837.22   14.20
   1  -8  -6  879.11   14.20
  -1   8  -6  864.11   14.20
  -1   8  -6  864.61   15.10
  -1   8  -6  857.41   14.30
  -1  -8   6  845.22   15.30
  -1  -8   6  875.41   14.10
   2  -8   6  313.87    5.50
  -2  -8  -6  292.57    6.60
   2   8  -6  309.87    7.00
  -2  -8  -6  318.87    5.80
   2   8  -6  298.57    6.50
   2  -8   6  304.47    6.80
   2  -8   6  304.47    6.20
  -2   8   6  310.37    6.00
   2   8  -6  317.97    6.20
   2  -8   6  303.07    7.10
   2   8  -6  307.47    6.70
   2   8  -6  320.97    6.10
  -2  -8   6  315.57    6.60
  -2   8  -6  312.37    7.10
   2  -8  -6  301.37    6.70
  -2   8  -6  301.17    6.30
   2  -8  -6  297.37    6.30
   2  -8  -6  307.67    6.60
   2   8   6  303.57    6.40
  -2  -8   6  312.47    7.30
  -2  -8   6  305.67    5.90
   2  -8  -6  313.37    5.50
  -2   8  -6  308.57    6.30
   2  -8  -6  305.37    5.90
   3   8  -6   86.49    2.60
   3  -8   6   84.39    3.30
   3   8  -6   88.29    2.80
  -3  -8  -6   82.49    3.20
   3  -8   6   79.19    3.20
  -3   8   6   85.99    2.40
   3   8  -6   84.19    3.10
   3  -8   6   85.99    2.40
  -3  -8  -6   83.79    2.30
   3   8  -6   84.19    3.40
   3  -8   6   82.59    2.70
  -3   8  -6   78.29    2.90
   3  -8  -6   83.09    3.00
  -3   8  -6   85.49    3.50
   3  -8  -6   82.29    3.10
   3  -8  -6   89.49    2.40
   3  -8  -6   83.39    3.10
  -3  -8   6   85.79    3.00
  -3   8  -6   86.49    2.80
   3  -8  -6   81.79    3.00
  -3  -8   6   86.89    3.50
  -3  -8   6   83.79    2.40
   3   8   6   79.19    2.80
   4  -8   6   29.70    2.10
  -4  -8  -6   27.60    2.00
   4   8  -6   30.00    1.80
   4   8  -6   30.40    2.30
   4  -8   6   28.80    1.50
   4   8  -6   29.60    2.10
   4   8  -6   28.90    2.20
   4  -8   6   29.50    1.70
   4  -8  -6   33.20    2.00
  -4   8  -6   28.90    2.30
  -4  -8   6   28.90    2.10
  -4  -8   6   28.30    1.90
  -4   8  -6   34.20    2.10
   4  -8  -6   30.20    1.60
   4   8   6   30.10    1.90
   4  -8  -6   29.40    1.90
   4  -8  -6   27.10    2.00
   5  -8   6   36.60    1.90
   5   8  -6   33.30    2.30
   5  -8   6   35.00    2.00
   5   8  -6   34.90    2.00
   5   8  -6   38.40    2.40
  -5  -8  -6   31.50    2.30
   5   8  -6   35.00    2.50
   5  -8   6   33.80    2.50
   5  -8   6   34.60    1.80
   5   8   6   28.90    2.00
  -5   8  -6   33.60    2.20
   5  -8  -6   30.60    2.20
  -5   8  -6   30.00    2.60
   5  -8  -6   33.60    2.10
   5  -8  -6   35.10    2.20
   5  -8  -6   37.40    1.90
  -5  -8   6   34.00    2.40
  -5  -8   6   28.30    2.00
   6  -8   6  127.89    3.90
   6  -8   6  124.89    4.70
  -6  -8  -6  118.89    4.40
   6  -8   6  122.29    4.00
   6   8  -6  121.49    4.40
   6   8  -6  123.39    4.50
   6   8  -6  128.89    4.70
   6   8  -6  124.99    3.70
   6  -8  -6  125.29    3.70
   6  -8  -6  123.09    4.50
   6  -8  -6  121.09    4.20
  -6   8  -6  132.69    4.90
   6   8   6  126.89    4.10
   6  -8  -6  126.79    4.40
  -6   8  -6  118.49    4.20
  -6  -8   6  127.29    4.50
  -6  -8   6  121.89    4.10
   6  -8  -6  126.99    4.10
   7  -8   6   28.20    2.10
   7  -8   6   34.10    2.30
   7  -8   6   29.90    2.80
   7   8  -6   28.00    2.50
  -7  -8  -6   30.60    2.50
   7   8  -6   31.70    2.10
   7   8  -6   32.00    2.70
   7   8  -6   28.70    2.00
   7   8  -6   28.70    2.50
  -7  -8   6   26.10    2.50
  -7   8  -6   25.00    2.60
  -7   8  -6   27.00    2.50
   7  -8  -6   33.00    2.50
   7  -8  -6   30.80    2.20
   7  -8  -6   31.50    2.60
   7  -8  -6   31.80    2.50
   7  -8  -6   28.40    2.00
   7   8   6   31.60    2.30
   8  -8   6   68.49    3.20
   8  -8   6   62.39    3.90
   8   8  -6   68.99    3.80
   8  -8   6   64.69    3.30
  -8  -8  -6   66.79    3.60
   8   8  -6   65.39    3.70
   8   8  -6   70.29    3.00
   8  -8  -6   65.19    3.50
   8  -8  -6   69.09    3.60
   8   8   6   68.99    3.20
  -8   8  -6   67.69    3.80
   8  -8  -6   62.29    3.50
   8  -8  -6   72.59    3.20
   9   8  -6    4.70    1.70
   9  -8   6    4.50    1.40
   9  -8   6    6.90    1.50
   9   8  -6    5.40    1.30
   9  -8   6    7.40    1.70
   9   8  -6    6.00    1.80
  -9  -8  -6    3.20    1.30
  -9   8  -6    5.50    1.90
   9  -8  -6    7.40    1.50
   9  -8  -6    6.90    1.70
   9  -8  -6    9.80    1.80
   9  -8  -6    3.70    1.50
   0   9  -6  106.49    3.10
   0  -9   6  107.19    3.30
   0  -9   6  100.79    3.90
   0   9  -6  106.79    3.40
   0   9  -6  103.79    3.30
   0  -9   6  105.99    3.40
   0  -9  -6  107.09    3.10
   0  -9  -6  106.79    3.50
   0   9  -6  107.29    3.80
   0   9   6  109.79    3.30
   0  -9  -6  108.19    3.40
   1  -9   6  208.78    5.30
  -1  -9  -6  216.88    5.30
   1   9  -6  226.28    5.80
   1   9  -6  223.78    5.30
   1  -9   6  224.78    5.90
  -1  -9  -6  215.78    4.80
  -1   9   6  217.98    4.90
   1   9  -6  218.68    4.80
   1  -9   6  225.38    5.20
   1   9  -6  211.68    5.20
  -1  -9  -6  210.38    5.50
   1   9   6  213.08    5.10
  -1  -9   6  213.08    5.90
  -1   9  -6  221.88    5.80
   1  -9  -6  213.38    5.50
  -1  -9   6  221.48    5.30
  -1  -9   6  225.88    5.10
  -1   9  -6  223.48    5.10
  -1   9  -6  216.88    5.00
   1  -9  -6  224.88    5.10
   1  -9  -6  222.48    5.10
   2  -9   6  166.38    5.00
   2   9  -6  172.28    4.70
   2   9  -6  181.18    5.20
   2  -9   6  180.48    3.90
   2  -9   6  176.28    4.50
  -2  -9  -6  170.08    4.90
   2  -9   6  173.98    4.90
  -2  -9  -6  178.78    4.80
   2   9  -6  181.48    4.20
   2   9  -6  180.58    4.10
   2   9  -6  180.48    4.80
  -2   9   6  182.08    4.20
  -2  -9  -6  177.48    4.10
  -2   9  -6  178.88    5.20
   2  -9  -6  172.28    4.50
  -2  -9   6  178.68    4.70
  -2  -9   6  180.58    4.20
   2  -9  -6  181.28    4.90
  -2  -9   6  171.38    5.30
  -2   9  -6  172.38    4.30
   2   9   6  182.78    4.70
   2  -9  -6  182.18    4.30
  -2   9  -6  177.48    4.40
   2  -9  -6  177.68    4.90
   3  -9   6  199.68    5.60
  -3   9   6  198.88    4.40
   3   9  -6  202.18    5.60
   3  -9   6  203.98    4.40
   3   9  -6  194.48    5.30
   3   9  -6  210.88    4.60
   3  -9   6  201.78    4.90
   3  -9   6  207.38    5.60
   3   9  -6  202.38    5.30
   3   9  -6  204.58    4.60
  -3  -9  -6  216.98    4.40
  -3  -9  -6  196.48    5.40
  -3  -9   6  202.88    5.80
   3  -9  -6  202.08    5.30
   3   9   6  207.98    5.20
  -3   9  -6  197.08    5.70
   3  -9  -6  203.98    5.30
   3  -9  -6  200.68    5.20
  -3   9  -6  204.78    5.00
  -3  -9   6  203.18    5.20
   4  -9   6  112.39    3.10
   4   9  -6  107.39    3.10
  -4  -9  -6  104.29    3.90
   4   9  -6  110.59    3.20
   4   9  -6  109.79    4.20
   4   9  -6  102.39    3.80
   4  -9   6  108.89    3.30
   4  -9   6  105.89    4.10
   4   9  -6  106.39    3.80
   4   9   6  107.19    3.60
  -4  -9   6  101.29    3.60
  -4  -9   6  102.79    4.10
   4  -9  -6  110.49    3.80
  -4   9  -6  109.39    4.30
   4  -9  -6  102.29    3.70
  -4   9  -6  107.79    3.60
   4  -9  -6  102.79    3.80
   5   9  -6  170.38    5.40
   5   9  -6  164.68    5.10
   5   9  -6  167.68    4.20
  -5  -9  -6  155.88    5.10
   5  -9   6  167.28    4.30
   5  -9   6  164.18    4.30
   5  -9   6  160.28    5.30
   5   9  -6  157.88    5.00
  -5  -9   6  166.18    4.80
  -5   9  -6  164.38    5.50
  -5  -9   6  165.18    5.30
  -5   9  -6  155.88    4.70
   5  -9  -6  159.58    4.80
   5  -9  -6  165.78    5.10
   5  -9  -6  167.78    4.90
   5   9   6  151.58    4.60
   6  -9   6    7.30    1.80
   6   9  -6    4.50    1.40
   6   9  -6    5.50    1.20
   6   9  -6    3.80    1.30
  -6  -9  -6    5.40    1.30
   6  -9   6    5.20    1.10
   6   9  -6    5.30    1.50
   6  -9   6    6.70    1.30
   6  -9   6    5.90    1.60
  -6  -9   6    3.90    1.20
   6  -9  -6    3.90    1.30
  -6  -9   6    4.60    1.40
   6  -9  -6    3.90    1.30
   6  -9  -6    5.50    1.10
   6   9   6    2.40    1.10
  -6   9  -6    3.30    1.40
  -6   9  -6    6.40    1.40
   6  -9  -6    4.10    1.20
   6  -9  -6    5.80    1.40
   7   9  -6   59.79    3.50
   7  -9   6   58.49    2.90
   7  -9   6   60.09    3.00
   7  -9   6   57.19    3.60
   7   9  -6   56.29    3.50
   7   9  -6   58.69    3.30
  -7  -9  -6   52.79    3.10
   7   9  -6   57.69    2.70
  -7   9  -6   59.59    3.80
   7   9   6   61.19    3.10
  -7   9  -6   66.79    3.50
  -7  -9   6   51.19    3.20
   7  -9  -6   58.49    3.40
   7  -9  -6   57.39    2.70
   7  -9  -6   61.79    3.30
   7  -9  -6   57.19    3.30
   7  -9  -6   60.29    2.80
   8  -9   6   80.79    3.60
   8  -9   6   79.69    4.30
  -8  -9  -6   80.09    4.00
   8   9  -6   89.29    4.30
   8   9  -6   77.69    4.00
   8  -9  -6   83.09    3.90
   8  -9  -6   83.99    4.10
   8   9   6   77.69    3.60
   8  -9  -6   70.49    3.70
   8  -9  -6   84.19    5.20
  -8   9  -6   74.09    4.00
   9  -9   6   45.40    3.00
   9   9  -6   48.30    3.30
  -9  -9  -6   42.60    3.20
   9  -9  -6   41.60    3.10
   9  -9  -6   44.50    3.50
   0  10  -6   80.49    2.90
   0 -10  -6   77.29    2.80
   0  10   6   78.19    2.80
   0  10  -6   82.79    3.50
   0 -10   6   80.89    3.10
   0 -10  -6   81.49    3.10
   0 -10   6   79.99    3.00
   0 -10   6   79.79    3.60
   0 -10  -6   78.69    3.20
   0  10  -6   80.99    2.60
   0  10  -6   77.59    2.90
  -1 -10  -6  133.79    3.60
   1  10  -6  133.39    4.50
   1  10  -6  131.29    4.00
   1  10  -6  136.69    3.50
  -1 -10  -6  138.49    4.20
   1  10  -6  134.39    3.90
   1 -10   6  135.29    4.00
   1 -10   6  127.79    4.50
  -1 -10  -6  137.69    4.40
   1 -10   6  135.59    4.20
  -1  10   6  132.89    3.70
   1 -10  -6  132.09    4.20
  -1  10  -6  137.29    3.70
  -1  10  -6  129.89    3.60
  -1  10  -6  126.89    4.50
   1  10   6  136.09    4.00
  -1 -10   6  132.49    4.00
   1 -10  -6  134.19    3.90
  -1 -10   6  135.89    4.70
   1 -10  -6  137.39    3.90
  -1 -10   6  137.09    3.90
  -2 -10  -6  222.48    5.00
  -2 -10  -6  220.48    5.90
   2 -10   6  226.28    6.10
   2  10  -6  228.18    5.70
   2  10  -6  228.08    5.60
  -2  10   6  224.38    5.00
   2 -10   6  221.98    5.90
   2 -10   6  222.98    5.40
   2  10  -6  222.58    6.10
  -2 -10  -6  218.98    5.80
   2  10  -6  232.28    4.90
   2 -10  -6  219.88    5.80
   2 -10  -6  226.78    5.20
  -2  10  -6  231.18    6.30
   2  10   6  227.98    5.60
   2 -10  -6  230.38    5.60
  -2 -10   6  228.78    5.70
  -2 -10   6  227.18    6.40
  -2  10  -6  227.08    5.30
   2 -10  -6  221.78    5.80
  -2 -10   6  223.18    5.20
   3  10  -6  138.59    4.50
   3  10  -6  142.29    4.40
   3 -10   6  140.49    4.10
  -3 -10  -6  138.39    4.60
  -3  10   6  144.99    3.60
   3 -10   6  141.59    4.70
  -3 -10  -6  143.09    3.60
   3 -10   6  141.49    4.70
  -3 -10  -6  140.39    4.60
   3  10  -6  139.79    4.80
   3 -10  -6  142.69    4.50
  -3  10  -6  139.69    4.90
   3  10   6  144.79    4.30
  -3 -10   6  139.29    4.30
   3 -10  -6  140.89    4.30
   3 -10  -6  133.39    4.40
  -3 -10   6  141.09    5.00
  -3  10  -6  142.89    4.10
   4 -10   6  130.69    3.90
   4 -10   6  129.49    4.70
   4  10  -6  132.59    4.80
  -4 -10  -6  124.89    4.40
   4  10  -6  126.89    4.30
   4  10  -6  123.29    4.40
   4 -10  -6  128.69    4.40
  -4  10  -6  132.09    4.90
  -4  10  -6  128.69    4.10
  -4 -10   6  131.09    4.20
   4 -10  -6  124.79    4.30
   4 -10  -6  129.19    4.30
   4  10   6  124.39    4.10
  -4 -10   6  130.39    4.80
   5  10  -6   20.40    2.20
   5  10  -6   21.80    2.30
   5 -10   6   23.90    2.50
   5  10  -6   28.30    2.40
  -5 -10  -6   24.00    2.20
   5 -10   6   21.30    1.80
   5 -10  -6   22.80    2.20
  -5  10  -6   23.60    2.10
   5 -10  -6   21.20    2.10
   5 -10  -6   21.20    2.10
  -5  10  -6   21.00    2.40
   5  10   6   25.80    2.10
  -5 -10   6   23.00    2.40
  -5 -10   6   23.10    2.00
   6 -10   6   57.09    2.80
  -6 -10  -6   54.49    3.30
   6 -10   6   53.89    3.50
   6  10  -6   55.29    3.50
   6  10  -6   58.59    3.30
   6  10  -6   47.10    3.10
   6 -10  -6   57.59    3.20
  -6  10  -6   54.29    3.10
   6 -10  -6   52.69    3.10
  -6 -10   6   54.59    3.30
   6 -10  -6   55.99    3.20
   6 -10  -6   50.79    3.00
  -6  10  -6   61.79    3.80
  -6 -10   6   57.89    3.00
   6  10   6   50.09    2.90
   7  10  -6    9.40    1.80
   7 -10   6   12.80    1.70
   7  10  -6    6.90    1.70
   7  10  -6    7.30    1.40
  -7 -10  -6    9.00    1.90
   7 -10   6    6.90    1.80
  -7  10  -6    7.40    1.70
   7  10   6    6.30    1.40
   7 -10  -6    6.40    1.70
  -7 -10   6    7.80    1.80
   7 -10  -6    8.30    1.80
   7 -10  -6    7.90    1.70
  -7  10  -6   11.50    2.70
   8 -10   6   45.90    2.90
  -8 -10  -6   49.99    3.40
   8 -10   6   53.49    3.80
   8  10  -6   46.40    3.30
   8  10  -6   48.00    3.30
  -8  10  -6   51.89    3.50
   8 -10  -6   46.30    3.10
   8 -10  -6   49.80    3.30
   8  10   6   44.70    2.90
   8 -10  -6   47.40    3.20
   0  11  -6   12.10    1.20
   0  11  -6   12.20    1.70
   0 -11   6   10.80    1.40
   0 -11  -6   11.80    1.40
   0 -11   6   12.40    1.50
   0  11  -6   13.00    1.40
   0  11   6   11.30    1.30
   0 -11  -6   10.80    1.50
   0 -11  -6    9.20    1.50
   0 -11   6   13.50    2.00
  -1 -11  -6   35.10    2.00
  -1  11   6   41.70    2.10
   1 -11   6   40.50    2.50
   1  11  -6   39.20    2.30
   1 -11   6   43.10    2.30
   1  11  -6   42.50    2.80
  -1 -11  -6   39.20    2.50
  -1 -11  -6   41.80    2.50
   1 -11   6   44.50    2.80
   1  11  -6   41.20    2.30
   1  11   6   43.20    2.30
   1 -11  -6   38.10    2.50
  -1 -11   6   38.00    2.80
  -1  11  -6   37.70    2.70
  -1 -11   6   41.60    2.40
   1 -11  -6   39.60    2.20
  -1 -11   6   39.70    2.30
   1 -11  -6   40.00    2.30
  -1  11  -6   37.80    1.90
  -2 -11  -6  189.68    5.50
   2  11  -6  194.78    5.90
   2 -11   6  198.68    5.20
   2  11  -6  194.78    5.20
   2  11  -6  195.48    5.50
  -2 -11  -6  194.28    5.70
  -2  11   6  201.68    4.80
   2 -11   6  201.38    5.90
   2 -11   6  203.28    5.70
  -2 -11  -6  204.98    4.80
  -2  11  -6  199.18    6.00
   2  11   6  194.48    5.20
   2 -11  -6  192.88    5.20
  -2 -11   6  198.48    6.10
   2 -11  -6  193.48    5.50
  -2 -11   6  193.88    5.30
   2 -11  -6  208.28    5.10
   2 -11  -6  195.38    5.60
  -2  11  -6  203.08    4.90
  -2 -11   6  198.98    5.00
   3 -11   6    1.20    0.90
  -3 -11  -6    0.70    0.80
  -3  11   6    0.60    0.60
   3 -11   6    3.00    1.20
   3  11  -6    0.30    0.90
  -3 -11  -6    0.20    1.10
   3  11  -6    0.20    1.10
   3 -11   6   -0.90    0.70
   3  11  -6   -0.30    0.90
  -3 -11  -6    1.30    1.00
  -3 -11   6    1.20    1.00
   3  11   6    0.70    0.90
  -3 -11   6    0.80    1.00
   3 -11  -6   -0.80    0.90
   3 -11  -6    0.60    0.90
  -3  11  -6    0.80    1.10
  -3  11  -6    1.80    0.80
   3 -11  -6   -0.40    1.00
  -4 -11  -6   43.90    2.90
   4  11  -6   48.60    3.20
   4 -11   6   53.49    2.60
   4  11  -6   46.80    2.70
  -4 -11  -6   49.00    2.90
   4 -11   6   49.10    3.00
   4  11  -6   45.60    2.80
   4 -11  -6   46.20    2.80
  -4 -11   6   50.49    2.80
  -4  11  -6   45.00    3.10
   4 -11  -6   45.00    2.80
  -4  11  -6   50.99    2.60
  -4 -11   6   45.60    3.10
   4  11   6   49.40    2.60
   4 -11  -6   43.00    2.70
   5  11  -6   78.19    4.00
   5  11  -6   78.49    3.70
  -5 -11  -6   79.79    3.90
   5  11  -6   75.49    3.60
   5 -11   6   74.79    3.80
  -5 -11  -6   70.39    3.50
   5 -11   6   79.19    3.20
  -5 -11   6   84.09    4.10
   5 -11  -6   76.59    3.70
  -5  11  -6   75.99    3.40
   5 -11  -6   79.99    3.60
  -5  11  -6   73.79    4.00
   5 -11  -6   81.69    3.70
   5  11   6   74.79    3.40
  -5 -11   6   74.29    3.40
   6  11  -6    3.30    2.30
   6 -11   6    1.60    0.90
  -6 -11  -6    1.10    1.40
   6  11  -6    0.70    1.10
   6 -11   6   -0.20    1.20
   6  11  -6    0.40    1.00
   6  11  -6    3.00    1.40
  -6 -11   6    0.40    1.10
  -6 -11   6    0.30    1.20
   6 -11  -6    2.40    1.40
   6  11   6    1.80    1.10
   6 -11  -6    2.50    1.30
  -6  11  -6    2.80    1.50
   6 -11  -6    0.80    1.20
  -6  11  -6    2.40    1.20
   7  11  -6   57.39    3.60
   7 -11   6   51.99    3.60
   7  11  -6   50.09    2.90
  -7 -11  -6   49.70    3.40
   7  11  -6   56.99    3.50
  -7 -11   6   50.99    3.40
   7 -11  -6   51.49    3.30
   7  11   6   48.90    3.00
   7 -11  -6   53.49    3.30
   7 -11  -6   47.70    3.20
  -7 -11   6   47.20    3.00
  -7  11  -6   49.60    3.30
   8  11  -6    8.60    2.00
  -8 -11  -6    7.00    2.30
   8 -11  -6    6.30    1.70
   8  11   6    7.70    1.60
  -8  11  -6    6.00    1.90
   8 -11  -6    8.90    2.30
   0 -12   6   35.10    2.30
   0 -12   6   29.50    2.50
   0  12   6   30.40    2.00
   0  12  -6   36.40    2.80
   0 -12  -6   33.60    2.30
   0 -12  -6   32.60    2.40
   0 -12  -6   36.30    2.20
   0 -12   6   33.50    2.30
  -1 -12  -6    9.40    1.50
   1  12  -6    8.20    1.60
  -1  12   6    7.70    1.20
   1 -12   6    9.50    1.50
   1 -12   6    8.40    1.60
  -1 -12  -6    9.00    1.60
  -1 -12  -6    7.30    1.30
   1  12  -6    8.30    1.40
   1  12  -6    9.80    1.40
   1 -12   6    8.80    1.70
   1 -12  -6    9.50    1.60
  -1 -12   6    7.80    1.60
  -1 -12   6   10.90    1.60
  -1  12  -6   10.10    1.80
  -1 -12   6    9.80    1.40
   1 -12  -6    8.50    1.40
   1  12   6    9.20    1.40
   1 -12  -6    9.70    1.50
  -2 -12  -6  130.59    4.70
  -2  12   6  149.19    4.10
  -2 -12  -6  131.69    4.70
   2 -12   6  140.29    5.10
  -2 -12  -6  143.69    4.10
   2 -12   6  150.58    4.50
   2  12  -6  136.89    4.20
   2  12  -6  140.39    5.10
   2  12  -6  139.99    4.70
   2 -12   6  133.69    4.70
   2  12   6  137.39    4.40
   2 -12  -6  143.69    4.80
  -2 -12   6  137.89    4.20
   2 -12  -6  134.39    4.30
  -2  12  -6  148.99    5.30
   2 -12  -6  132.99    4.80
  -2 -12   6  137.59    5.20
  -2 -12   6  138.09    4.60
   3  12  -6   20.90    2.20
  -3 -12  -6   20.10    2.30
   3 -12   6   22.10    2.30
   3  12  -6   20.40    2.10
  -3 -12  -6   19.50    2.20
   3 -12   6   18.10    1.90
   3 -12   6   25.60    2.30
   3  12  -6   22.50    2.40
  -3 -12   6   20.10    2.40
   3 -12  -6   17.10    1.90
   3 -12  -6   19.30    2.10
  -3 -12   6   19.70    2.10
   3  12   6   21.00    2.10
  -3  12  -6   21.00    2.40
  -3  12  -6   20.50    1.80
   3 -12  -6   19.40    2.10
   4  12  -6   20.40    2.50
   4  12  -6   17.30    2.00
  -4 -12  -6   16.20    2.20
  -4 -12  -6   17.60    2.10
   4 -12   6   15.00    1.80
   4  12  -6   19.70    2.20
   4 -12   6   16.80    2.20
  -4 -12   6   14.00    2.20
   4 -12  -6   13.80    2.00
   4 -12  -6   16.20    2.20
  -4  12  -6   18.10    1.90
   4 -12  -6   16.60    2.00
  -4 -12   6   16.20    2.10
   4  12   6   16.30    1.90
  -4  12  -6   12.00    1.90
  -5 -12  -6   16.00    2.30
   5 -12   6   11.60    2.10
   5  12  -6   13.80    2.00
   5  12  -6   12.60    2.00
   5 -12   6   12.00    1.60
   5  12  -6   16.50    2.40
  -5 -12  -6   13.40    2.00
   5  12   6   13.30    1.80
  -5  12  -6   15.50    1.90
   5 -12  -6   13.20    2.00
   5 -12  -6   15.00    2.10
  -5  12  -6   11.20    2.10
  -5 -12   6   11.10    2.10
  -5 -12   6   11.00    1.70
   5 -12  -6   12.70    2.00
   6  12  -6   61.99    3.60
  -6 -12  -6   60.09    3.50
   6  12  -6   61.09    3.20
   6 -12   6   59.69    3.00
   6  12  -6   68.39    3.80
   6 -12   6   59.39    3.70
  -6 -12  -6   60.09    3.80
   6 -12  -6   61.49    3.50
  -6 -12   6   64.99    3.40
  -6  12  -6   65.59    3.50
   6 -12  -6   59.09    3.50
   6  12   6   65.29    3.40
   6 -12  -6   61.19    3.50
  -6 -12   6   60.29    3.80
   7  12  -6   19.60    2.10
   7 -12   6   16.90    2.60
  -7 -12  -6   20.70    2.40
   7  12  -6   17.50    2.40
   7  12  -6   19.40    2.50
  -7 -12  -6   16.60    2.50
  -7  12  -6   16.90    2.30
   7 -12  -6   19.60    2.40
   7  12   6   19.20    2.30
  -7 -12   6   19.40    2.30
   7 -12  -6   18.50    2.50
  -7 -12   6   17.70    2.60
   7 -12  -6   16.10    2.30
   0  13  -6  105.49    4.60
   0 -13   6  104.19    4.00
   0 -13   6  104.89    4.00
   0 -13  -6   99.49    4.00
   0 -13  -6   99.79    4.20
   0 -13   6   97.59    4.40
   0 -13  -6  109.29    3.80
   0  13   6  110.59    3.80
  -1 -13  -6   46.60    3.00
   1  13  -6   51.69    3.30
  -1 -13  -6   45.70    2.50
   1 -13   6   47.40    2.70
  -1  13   6   49.80    2.50
   1 -13   6   46.90    2.90
  -1 -13  -6   43.40    2.90
   1 -13   6   49.40    3.20
  -1 -13   6   48.90    3.40
   1 -13  -6   49.50    3.10
   1 -13  -6   41.10    2.80
  -1 -13   6   48.30    2.70
   1 -13  -6   49.00    2.70
  -1  13  -6   44.90    3.20
   1  13   6   45.50    2.60
  -1 -13   6   45.40    2.80
   2 -13   6   52.49    2.70
  -2 -13  -6   49.30    2.60
   2  13  -6   49.80    2.60
   2  13  -6   48.00    2.90
  -2 -13  -6   45.20    3.00
   2 -13   6   56.79    3.40
   2  13  -6   47.30    3.30
  -2 -13  -6   49.20    3.10
  -2  13   6   50.59    2.40
   2 -13   6   48.40    3.00
   2  13   6   48.00    2.80
   2 -13  -6   48.90    3.00
  -2 -13   6   49.99    3.40
   2 -13  -6   52.59    2.90
  -2 -13   6   52.29    3.00
  -2  13  -6   53.39    3.50
   2 -13  -6   51.89    3.20
   3  13  -6   50.59    3.10
  -3 -13  -6   54.79    3.20
   3 -13   6   52.69    3.30
   3  13  -6   59.19    3.70
   3 -13   6   58.59    3.50
   3 -13   6   59.79    3.00
  -3 -13  -6   58.89    3.50
   3  13  -6   55.99    2.90
  -3 -13   6   58.79    3.20
   3 -13  -6   60.39    3.20
   3 -13  -6   56.79    3.10
  -3 -13   6   56.79    3.70
  -3  13  -6   61.59    3.80
   3  13   6   55.69    2.90
   3 -13  -6   55.29    3.30
   4 -13   6   35.60    2.40
   4 -13   6   35.60    2.90
  -4 -13  -6   35.40    2.70
  -4 -13  -6   36.60    3.00
   4  13  -6   37.60    2.80
   4  13  -6   36.20    3.30
   4  13  -6   40.60    2.70
  -4 -13   6   36.00    2.60
   4 -13  -6   34.10    2.70
  -4 -13   6   36.80    3.20
   4 -13  -6   37.90    2.80
  -4  13  -6   35.80    3.20
   4 -13  -6   38.00    2.90
   4  13   6   33.90    2.50
   5  13  -6   31.90    2.60
   5  13  -6   35.20    2.90
   5  13  -6   35.60    2.80
   5 -13   6   31.80    2.90
  -5 -13  -6   37.50    3.10
  -5 -13  -6   31.30    2.70
   5 -13   6   33.70    2.40
  -5 -13   6   38.80    2.80
   5 -13  -6   33.10    2.80
   5  13   6   37.80    2.70
   5 -13  -6   33.70    2.80
  -5 -13   6   30.60    3.20
   5 -13  -6   37.00    2.90
   6  13  -6   18.50    2.40
   6 -13   6   16.50    2.00
   6 -13   6   16.80    2.50
  -6 -13  -6   14.90    2.10
  -6 -13  -6   20.30    2.70
   6  13  -6   18.50    2.40
   6  13  -6   17.90    2.20
   6 -13  -6   17.90    2.20
  -6 -13   6   19.40    2.70
   6 -13  -6   17.20    2.40
   6  13   6   14.20    2.10
  -6  13  -6   20.20    3.10
  -6 -13   6   16.70    2.20
   6 -13  -6   17.50    2.20
   7  13  -6    1.80    1.20
   7  13  -6    4.30    1.60
   7 -13  -6   -0.40    1.30
  -7 -13   6   -2.50    1.20
   7  13   6    3.60    1.50
   0 -14   6    2.00    1.20
   0 -14  -6    1.20    1.20
   0 -14   6    0.20    0.90
   0  14   6    0.60    0.90
   0 -14   6    2.10    1.50
   0 -14  -6   -0.30    1.00
   0 -14  -6    2.60    1.30
   0  14  -6    1.20    1.40
  -1 -14  -6  183.98    6.10
  -1 -14  -6  184.18    6.00
   1 -14   6  189.38    5.70
  -1 -14  -6  193.78    5.40
   1 -14   6  192.58    6.00
  -1  14   6  190.88    5.30
   1  14  -6  187.58    6.40
   1 -14   6  187.38    6.40
   1  14   6  187.48    5.50
   1 -14  -6  181.28    6.10
  -1 -14   6  197.08    5.80
  -1 -14   6  181.78    6.60
   1 -14  -6  188.38    5.50
   1 -14  -6  181.78    5.90
  -1  14  -6  189.88    6.50
  -1 -14   6  184.08    5.60
   1 -14  -6  184.18    5.70
   2 -14   6   40.00    3.10
  -2 -14  -6   41.60    3.00
   2  14  -6   41.90    3.40
  -2 -14  -6   43.30    2.60
   2 -14   6   44.40    2.80
  -2  14   6   38.90    2.30
   2 -14   6   38.20    2.90
  -2 -14  -6   39.00    3.00
  -2 -14   6   38.50    2.80
   2 -14  -6   42.20    3.10
   2 -14  -6   43.20    2.90
  -2 -14   6   39.10    3.30
   2 -14  -6   39.10    2.70
  -2  14  -6   40.50    3.20
   2  14   6   38.00    2.60
   3  14  -6   13.20    1.80
   3  14  -6   10.10    1.80
  -3 -14  -6   11.10    1.90
   3 -14   6   14.10    2.10
   3 -14   6   14.00    2.20
   3  14  -6    9.70    2.70
  -3 -14  -6   10.10    2.10
   3 -14   6   12.90    1.80
   3 -14  -6   13.70    2.00
   3 -14  -6   11.20    2.00
   3 -14  -6   11.10    1.80
  -3 -14   6   10.70    1.80
  -3  14  -6    9.00    1.90
  -3 -14   6   12.30    2.30
   3  14   6   11.10    1.70
   4  14  -6   29.40    2.40
   4 -14   6   24.80    2.40
  -4 -14  -6   29.20    2.80
  -4 -14  -6   22.90    2.60
   4 -14   6   31.40    3.10
   4  14  -6   22.90    2.50
   4  14  -6   22.20    2.60
  -4 -14   6   24.80    3.00
   4 -14  -6   23.90    2.40
   4  14   6   25.30    2.50
   4 -14  -6   25.60    2.70
   4 -14  -6   25.10    2.60
  -4 -14   6   24.00    2.40
  -5 -14  -6   51.99    3.80
   5  14  -6   50.99    3.50
   5  14  -6   56.09    3.30
   5  14  -6   52.79    3.20
  -5 -14  -6   49.10    3.40
   5 -14   6   43.60    3.40
   5 -14   6   55.89    3.10
  -5 -14   6   56.89    3.90
   5  14   6   53.09    3.20
   5 -14  -6   49.10    3.50
   5 -14  -6   51.59    3.50
  -5 -14   6   55.19    3.30
   5 -14  -6   54.49    3.40
   6  14  -6   53.59    3.30
   6 -14   6   65.69    4.90
   6  14  -6   56.39    3.40
   6 -14  -6   57.29    3.60
   6  14   6   51.59    3.40
  -6 -14   6   49.90    3.30
   6 -14  -6   55.89    4.50
   0 -15  -6   27.60    2.80
   0 -15  -6   30.40    3.00
   0 -15   6   30.20    2.60
   0 -15  -6   32.50    2.60
   0  15  -6   36.90    5.00
   0  15   6   30.70    2.40
   0 -15   6   31.90    3.20
   0 -15   6   29.60    2.60
  -1  15   6   22.10    2.10
   1 -15   6   30.50    2.70
  -1 -15  -6   24.60    2.70
  -1 -15  -6   22.70    2.50
   1 -15   6   26.70    3.00
   1 -15   6   25.50    2.50
  -1 -15  -6   27.50    2.30
   1 -15  -6   26.00    2.60
  -1 -15   6   28.60    3.20
   1  15   6   29.00    2.40
  -1 -15   6   29.90    2.60
   1 -15  -6   25.00    2.60
   1 -15  -6   25.90    2.50
   2 -15   6    7.20    1.70
   2 -15   6    6.20    1.90
   2 -15   6    7.60    1.70
  -2 -15  -6   10.60    1.90
  -2  15   6    5.70    1.90
  -2 -15  -6    9.80    2.10
  -2 -15  -6    7.40    1.50
   2 -15  -6    5.90    1.60
  -2 -15   6    8.90    1.80
   2 -15  -6    9.80    2.00
  -2 -15   6    5.00    1.70
   2  15   6    4.90    1.40
   2 -15  -6    9.90    1.80
   3  15  -6   16.70    2.20
  -3 -15  -6   12.20    2.00
   3 -15   6   16.50    2.40
   3  15  -6   21.10    2.60
   3 -15   6   14.40    2.30
  -3 -15  -6   13.30    2.30
   3 -15   6   16.50    2.10
   3 -15  -6   17.80    2.30
  -3 -15   6   12.30    2.30
   3 -15  -6   17.70    2.40
   3 -15  -6   15.90    2.20
  -3 -15   6   14.90    2.10
   3  15   6   13.20    2.00
   4  15  -6   66.29    3.60
   4  15  -6   61.59    3.80
   4 -15   6   59.49    3.80
  -4 -15  -6   62.19    3.80
   4 -15   6   61.59    3.40
  -4 -15  -6   59.89    4.00
  -4 -15   6   58.79    4.20
   4 -15  -6   64.69    3.90
  -4 -15   6   59.09    3.60
   4  15   6   64.49    3.50
   4 -15  -6   55.69    3.50
   4 -15  -6   57.69    3.60
   5  15  -6   35.80    2.80
   5 -15   6   29.70    2.60
   5  15  -6   24.20    2.60
  -5 -15   6   31.90    2.80
   5  15   6   30.70    2.80
   5 -15  -6   32.30    3.00
   0  16   6   29.80    2.40
   0 -16  -6   29.80    3.10
   0 -16  -6   26.80    2.70
   0 -16   6   28.50    2.80
   0 -16  -6   34.50    2.80
   0 -16   6   25.70    3.00
   0 -16   6   24.60    2.50
   0 -16  -6   28.40    3.00
   1 -16   6    4.40    1.60
   1 -16   6    1.80    1.40
  -1 -16  -6    3.40    1.40
   1 -16   6    3.60    1.60
  -1 -16  -6    5.00    1.70
  -1 -16  -6   -0.30    1.50
  -1  16   6    1.10    1.00
  -1 -16   6    2.20    1.70
  -1 -16   6    2.70    1.40
   1 -16  -6    2.50    1.60
   1 -16  -6    4.00    1.40
   1 -16  -6    0.60    1.20
   1  16   6    3.70    1.30
   2 -16   6    8.20    1.80
   2 -16   6    9.60    1.90
  -2 -16  -6    6.80    1.90
   2 -16   6    8.10    2.10
   2  16  -6    4.80    1.50
  -2 -16  -6    4.90    1.90
  -2 -16   6    6.70    1.80
  -2 -16   6    7.20    2.40
   2 -16  -6    8.90    2.10
   2  16   6    7.90    1.60
   2 -16  -6   10.50    2.00
   2 -16  -6    8.90    1.90
   3 -16   6   54.69    6.00
   3 -16   6   53.89    3.30
   3  16  -6   48.80    3.30
   3 -16  -6   52.09    3.40
   3  16   6   53.89    3.30
  -3 -16   6   46.20    3.30
   0   0   7    1.50    0.60
   0   0  -7    0.30    0.30
   0   0  -7   -0.30    0.40
   0   0  -7    0.30    0.30
   1   0  -7  305.57    5.40
  -1   0  -7  300.27    5.70
  -1   0  -7  302.97    5.20
  -1   0  -7  297.07    4.70
   1   0   7  292.47    5.60
   1   0  -7  289.77    5.00
   1   0  -7  295.67    4.90
   2   0  -7  318.77    5.30
  -2   0  -7  314.77    5.80
   2   0  -7  320.37    6.40
   2   0   7  311.57    5.90
   2   0  -7  314.27    5.90
  -2   0  -7  312.77    6.00
   2   0  -7  314.87    5.40
   3   0  -7   27.80    1.30
   3   0   7   29.20    1.50
   3   0  -7   27.70    1.50
  -3   0  -7   29.00    1.50
  -3   0  -7   28.90    1.60
   3   0  -7   29.50    1.70
   3   0  -7   29.60    1.80
   3   0  -7   29.50    1.20
   3   0   7   29.10    1.40
   4   0  -7  991.60   16.60
  -4   0  -7  999.90   16.60
   4   0  -7 1025.90   16.70
  -4   0  -7 1027.10   16.60
   4   0   7 1026.60   16.50
   4   0  -7 1047.30   16.00
   4   0  -7 1028.60   16.80
   4   0   7 1034.90   16.30
   4   0   7 1063.59   16.30
   4   0  -7 1031.10   16.10
   5   0   7  119.39    3.20
   5   0  -7  115.69    3.60
   5   0   7  113.29    3.40
   5   0  -7  117.49    3.60
   5   0  -7  111.89    3.20
   5   0   7  115.19    3.40
  -5   0  -7  116.39    3.70
   5   0  -7  115.89    3.20
   5   0  -7  111.49    3.50
  -5   0  -7  116.59    3.50
   6   0  -7   46.60    2.20
   6   0   7   48.80    2.30
  -6   0  -7   43.20    2.30
   6   0  -7   47.90    2.40
   6   0  -7   50.59    2.30
   6   0  -7   44.10    2.30
   6   0   7   51.29    2.50
   6   0   7   48.00    2.10
   6   0  -7   48.00    2.50
   6   0   7   48.70    2.30
  -6   0  -7   51.49    2.70
   7   0  -7   25.40    2.20
   7   0   7   29.10    2.00
  -7   0  -7   26.50    2.10
   7   0  -7   25.00    1.90
   7   0  -7   25.20    2.00
   7   0   7   27.00    2.10
   7   0   7   24.20    1.70
   7   0  -7   27.00    1.90
   7   0   7   25.70    1.90
   7   0  -7   26.00    2.10
   8   0  -7   30.70    2.20
  -8   0  -7   25.70    2.30
   8   0  -7   31.60    2.50
  -8   0  -7   31.10    2.10
   8   0  -7   28.10    2.20
   8   0  -7   31.60    2.30
   8   0   7   27.00    2.20
   8   0   7   32.40    2.40
   8   0  -7   28.70    2.40
   9   0   7    0.10    1.10
   9   0  -7    3.10    1.30
  -9   0  -7    4.40    1.50
   9   0   7    1.40    1.10
   9   0  -7    4.50    1.30
   9   0  -7    4.80    1.40
   9   0  -7    3.10    1.40
 -10   0  -7    8.10    1.90
  10   0   7   11.50    2.00
  10   0  -7    9.40    1.80
  10   0  -7    9.50    1.80
  10   0  -7    5.90    1.70
  10   0   7    9.70    1.90
   0   1  -7  682.73   10.70
   0  -1  -7  697.83   10.70
   0   1   7  685.73   11.00
   0  -1  -7  685.13   10.20
   0   1  -7  676.23   11.20
   0   1  -7  687.73   10.50
   1   1  -7  212.38    4.10
   1   1  -7  207.58    4.80
   1   1  -7  218.88    4.20
   1   1  -7  221.18    3.50
  -1  -1  -7  218.68    4.40
  -1   1   7  218.18    4.30
  -1  -1  -7  212.38    3.90
  -1  -1  -7  224.48    3.80
  -1   1  -7  219.88    3.60
   1  -1  -7  212.28    4.20
  -1   1  -7  219.88    4.30
   1   1   7  219.38    4.50
   1  -1  -7  221.08    4.00
  -1   1  -7  212.78    4.50
   1  -1  -7  214.78    3.60
   2   1  -7  548.75    9.70
   2   1  -7  541.55    8.30
   2   1  -7  544.25    8.80
   2  -1   7  524.85    9.00
  -2  -1  -7  529.35    9.10
   2   1  -7  536.55    9.10
  -2  -1  -7  533.95    8.80
   2   1   7  541.65    9.10
   2  -1  -7  534.35    9.50
   2  -1  -7  530.55    9.10
   2  -1  -7  541.45    8.30
  -2   1  -7  548.65    9.10
   2  -1  -7  534.35    8.60
  -2   1  -7  534.75    9.30
  -3  -1  -7   23.70    1.40
   3  -1   7   23.60    1.40
  -3  -1  -7   24.80    1.40
   3  -1   7   25.60    1.20
   3   1  -7   23.40    1.60
   3   1  -7   24.20    1.10
   3   1  -7   22.30    1.40
   3   1  -7   22.60    1.20
   3  -1  -7   25.20    1.20
   3  -1  -7   22.10    1.50
   3   1   7   23.90    1.40
   3  -1  -7   23.20    1.40
   3  -1  -7   24.50    0.90
   3  -1  -7   25.50    1.10
   3  -1  -7   23.40    1.10
  -3   1  -7   21.40    1.40
  -3   1  -7   26.40    1.50
   3  -1  -7   22.50    1.60
   4  -1   7  413.76    7.30
  -4  -1  -7  405.36    7.50
   4   1  -7  380.26    7.70
   4   1  -7  397.26    7.80
  -4  -1  -7  399.36    7.60
   4   1  -7  401.26    7.00
   4  -1   7  401.86    7.60
   4   1  -7  405.16    7.40
   4   1  -7  388.36    7.70
   4  -1   7  388.86    7.20
   4   1   7  410.56    7.30
   4   1   7  409.36    7.40
   4  -1  -7  396.96    7.60
   4  -1  -7  402.56    7.70
   4  -1  -7  397.96    7.20
   4   1   7  398.66    7.50
  -4   1  -7  400.56    7.80
   4  -1  -7  388.76    7.80
   4  -1  -7  399.26    7.00
   4   1   7  399.06    7.50
  -4   1  -7  389.76    7.60
   5   1  -7  274.37    6.10
   5   1  -7  273.17    5.80
   5  -1   7  269.17    5.70
   5   1  -7  280.37    6.10
   5  -1   7  275.27    6.00
  -5  -1  -7  280.17    6.20
   5   1  -7  271.37    5.50
  -5  -1  -7  272.87    5.80
   5   1  -7  270.67    6.20
   5  -1   7  274.27    5.50
   5  -1  -7  259.27    5.90
  -5   1  -7  258.67    5.90
   5   1   7  277.17    5.80
   5   1   7  278.57    5.60
   5   1   7  269.47    5.90
   5  -1  -7  269.57    6.20
  -5   1  -7  262.77    6.20
   5  -1  -7  268.27    5.50
   5  -1  -7  264.67    5.70
   5  -1  -7  285.47    6.00
   5   1   7  261.67    5.90
  -6  -1  -7   50.89    2.40
   6   1  -7   52.29    2.40
   6   1  -7   54.39    2.60
   6  -1   7   53.49    2.40
   6   1  -7   49.30    2.50
   6   1  -7   51.19    2.20
   6   1  -7   55.99    2.70
   6  -1   7   55.19    2.50
   6  -1  -7   48.60    2.30
   6   1   7   57.49    2.30
   6   1   7   53.09    2.50
   6   1   7   52.39    2.40
   6   1   7   52.39    2.40
   6  -1  -7   52.89    2.60
  -6   1  -7   48.60    2.60
   6  -1  -7   52.59    2.40
  -6   1  -7   50.39    2.50
   6  -1  -7   52.69    2.60
   6  -1  -7   50.39    2.30
   7   1  -7   35.10    2.30
   7  -1   7   30.00    2.10
   7  -1   7   34.30    2.40
   7  -1   7   34.10    2.20
  -7  -1  -7   32.50    2.10
  -7  -1  -7   34.70    2.20
   7   1  -7   31.40    2.20
   7   1  -7   31.20    2.20
   7   1  -7   36.90    2.10
   7   1  -7   30.00    2.30
  -7   1  -7   31.90    2.50
   7  -1  -7   29.90    2.30
   7  -1  -7   29.30    2.00
   7   1   7   37.40    2.50
   7   1   7   34.50    1.90
   7  -1  -7   33.60    2.10
   7   1   7   32.10    2.10
   7   1   7   31.30    2.20
   7  -1  -7   32.40    2.20
  -7   1  -7   30.10    2.10
   7  -1  -7   32.60    2.30
   8   1  -7   10.30    1.70
   8   1  -7   11.30    1.70
   8  -1   7   12.60    1.70
  -8  -1  -7   15.00    1.90
  -8  -1  -7   11.00    1.50
   8   1  -7   10.80    1.60
   8   1  -7   10.20    1.70
   8   1  -7   11.30    1.70
   8  -1   7   12.60    1.80
   8  -1   7    9.10    1.60
   8  -1  -7   12.10    1.80
   8   1   7   11.90    1.80
   8  -1  -7    8.20    1.50
  -8   1  -7   11.70    1.50
   8  -1  -7   12.00    1.60
   8  -1  -7   10.90    1.50
   8   1   7    7.90    1.50
  -8   1  -7    9.90    1.70
   8  -1  -7    8.50    1.60
   9  -1   7   48.20    3.00
   9   1  -7   51.09    2.90
   9   1  -7   48.60    3.00
  -9  -1  -7   48.20    3.10
   9  -1   7   51.79    3.10
   9   1  -7   46.20    3.00
   9   1  -7   49.40    3.10
   9  -1  -7   54.89    3.30
  -9   1  -7   46.40    3.10
   9   1   7   42.10    2.90
   9  -1  -7   52.69    3.10
   9   1   7   52.19    2.90
   9  -1  -7   56.29    3.10
  10   1  -7   95.69    4.20
  10   1  -7  100.89    4.20
  10  -1   7   92.89    4.30
 -10  -1  -7   96.79    4.50
  10  -1   7   93.19    4.30
  10   1  -7   93.69    4.20
  10   1  -7   89.59    4.30
 -10   1  -7   94.59    4.50
  10   1   7   89.09    4.30
  10  -1  -7   90.99    4.20
  10  -1  -7   85.29    3.90
  10  -1  -7   97.79    4.50
  10   1   7   98.99    4.30
   0   2  -7  711.43   11.80
   0   2  -7  712.23   11.50
   0   2   7  704.83   11.50
   0   2  -7  723.23   11.00
   0  -2   7  718.53   11.30
   0  -2   7  757.92   11.50
  -1  -2  -7  172.78    3.10
   1   2  -7  175.88    3.60
   1   2  -7  170.88    3.70
   1   2  -7  163.78    4.20
   1  -2   7  178.48    3.90
   1  -2   7  175.38    3.40
  -1   2   7  172.38    3.70
  -1  -2  -7  173.68    3.70
   1  -2  -7  171.48    3.70
  -1  -2   7  165.98    3.60
  -1   2  -7  174.28    3.80
   1   2   7  173.48    3.80
  -1   2  -7  187.08    3.00
   1   2   7  175.28    2.80
  -1   2  -7  170.58    3.90
   2   2  -7  198.78    3.40
  -2  -2  -7  206.48    3.90
   2  -2   7  199.28    3.60
   2  -2   7  201.38    4.60
  -2   2   7  203.68    4.00
   2  -2   7  209.38    3.70
   2   2  -7  202.08    4.30
   2   2  -7  194.18    4.80
  -2  -2  -7  200.08    4.20
   2   2  -7  204.88    4.20
   2   2   7  204.38    3.70
  -2   2  -7  202.28    4.50
  -2  -2   7  203.48    4.50
   2  -2  -7  199.28    4.00
   2  -2  -7  208.78    3.90
   2  -2  -7  202.98    4.40
   2  -2  -7  201.48    3.50
   2   2   7  205.38    4.40
  -2   2  -7  199.88    4.40
   2  -2  -7  204.78    3.40
   2  -2  -7  205.78    4.60
  -3  -2  -7   73.39    2.20
  -3  -2  -7   73.79    2.30
   3   2  -7   74.79    2.50
   3  -2   7   76.29    2.10
   3  -2   7   67.69    2.60
   3   2  -7   73.89    1.80
   3  -2   7   72.59    1.60
   3   2  -7   73.49    2.80
   3   2  -7   72.49    2.60
   3   2  -7   73.39    2.30
   3  -2  -7   72.49    1.80
   3  -2  -7   72.39    2.20
  -3  -2   7   77.29    2.40
   3  -2  -7   72.69    2.50
   3  -2  -7   75.79    2.60
  -3   2  -7   79.19    2.60
   3  -2  -7   73.99    1.90
   3   2   7   69.99    2.00
  -3   2  -7   67.79    2.50
   3  -2  -7   70.29    2.50
   3  -2  -7   75.39    1.90
   3   2   7   77.19    2.40
   4   2  -7  265.17    5.90
   4   2  -7  275.07    6.10
   4   2  -7  270.57    5.90
  -4  -2  -7  264.17    5.50
   4   2  -7  272.27    5.10
   4   2  -7  277.87    5.70
   4  -2   7  268.37    6.20
   4  -2   7  271.67    5.70
   4  -2   7  279.47    5.40
   4  -2  -7  267.37    5.80
   4  -2  -7  291.27    4.80
   4  -2  -7  281.37    5.20
   4   2   7  279.87    5.40
  -4  -2   7  269.27    5.50
   4  -2  -7  269.97    5.50
  -4   2  -7  271.47    5.90
  -4   2  -7  284.77    6.10
   4   2   7  277.37    5.60
   4   2   7  275.97    5.60
   4  -2  -7  271.27    5.70
   4  -2  -7  267.87    6.00
   5   2  -7    7.10    1.30
   5  -2   7    7.30    1.20
   5   2  -7    5.70    1.10
   5   2  -7    8.00    1.00
  -5  -2  -7    9.50    1.20
   5   2  -7    8.50    1.10
   5   2  -7    6.80    1.20
   5  -2   7    7.00    1.10
   5  -2   7    8.70    1.10
   5  -2  -7    9.70    1.20
   5  -2  -7    6.70    1.00
   5   2   7    8.10    1.10
   5   2   7    8.60    1.10
   5   2   7    8.50    1.10
   5  -2  -7    6.50    1.20
  -5  -2   7    9.70    1.00
   5  -2  -7    6.70    1.20
  -5   2  -7    7.10    1.10
  -5   2  -7    7.40    1.10
   5  -2  -7    7.30    0.90
   5   2   7    8.30    1.10
  -6  -2  -7   59.39    2.70
   6   2  -7   61.99    2.80
  -6  -2  -7   62.99    2.60
   6  -2   7   63.39    2.70
   6   2  -7   63.59    2.70
   6   2  -7   63.19    2.80
   6   2  -7   61.89    2.80
   6   2  -7   65.69    2.50
   6  -2   7   60.69    2.50
   6  -2  -7   65.29    2.50
  -6   2  -7   59.39    2.70
  -6   2  -7   64.69    3.00
   6  -2  -7   62.09    2.90
   6   2   7   70.19    2.80
   6   2   7   64.79    2.50
   6   2   7   59.09    2.70
   6  -2  -7   64.39    2.80
   6  -2  -7   65.29    2.60
   6   2   7   62.79    2.60
   6  -2  -7   61.99    2.60
  -7  -2  -7  158.28    4.50
   7   2  -7  154.48    4.30
   7   2  -7  152.68    4.70
  -7  -2  -7  150.68    4.50
   7  -2   7  151.68    4.50
   7   2  -7  151.28    4.90
   7  -2   7  150.78    4.60
   7   2  -7  155.98    4.70
   7   2  -7  149.99    4.50
  -7   2  -7  151.58    5.10
   7  -2  -7  152.68    4.40
   7  -2  -7  147.99    4.40
   7   2   7  152.18    4.70
   7  -2  -7  150.48    4.20
   7  -2  -7  155.78    4.60
   7  -2  -7  160.18    4.90
   7   2   7  151.68    4.10
   7   2   7  152.88    4.50
  -7   2  -7  159.18    4.80
   8  -2   7   38.60    2.80
  -8  -2  -7   37.00    2.30
   8   2  -7   36.10    2.30
  -8  -2  -7   33.40    2.40
   8   2  -7   32.00    2.60
   8   2  -7   32.90    2.50
   8  -2   7   32.10    2.30
   8   2  -7   41.90    2.70
   8   2  -7   28.60    2.40
   8  -2   7   34.10    2.50
   8  -2  -7   35.60    2.60
   8  -2  -7   36.70    2.30
   8  -2  -7   32.30    2.50
   8   2   7   31.30    2.30
   8  -2  -7   33.80    2.40
  -8   2  -7   32.40    2.60
   8  -2  -7   29.70    3.30
   8   2   7   32.00    2.40
  -8   2  -7   35.50    2.80
   9   2  -7   99.59    4.10
   9   2  -7   95.89    4.30
   9  -2   7   89.19    3.90
   9  -2   7   92.09    4.00
  -9  -2  -7   99.29    4.20
   9   2  -7  104.69    4.10
   9   2  -7   98.29    4.10
  -9   2  -7   93.39    4.30
   9   2   7   97.59    4.00
   9  -2  -7   99.39    4.00
   9   2   7   91.39    4.20
   9  -2  -7   96.89    4.00
   9  -2  -7   95.99    4.30
  10   2  -7   20.00    2.40
  10   2  -7   16.90    2.30
 -10  -2  -7   16.00    2.40
  10  -2   7   21.60    2.50
  10   2  -7   21.30    2.40
  10   2  -7   19.50    2.30
  10  -2   7   21.60    2.50
  10  -2  -7   18.00    2.20
  10  -2  -7   18.60    2.30
  10  -2  -7   18.70    2.40
 -10   2  -7   18.20    2.50
  10   2   7   19.30    2.40
  10   2   7   13.40    2.20
   0   3   7   13.60    1.00
   0   3  -7   13.40    1.10
   0  -3   7   15.40    1.00
   0  -3   7   15.10    1.00
   0   3  -7   16.00    1.20
   0   3  -7   15.00    0.80
   0   3  -7   14.60    1.40
   1  -3   7   96.29    2.70
   1  -3   7   93.99    2.30
   1   3  -7   97.29    2.50
  -1   3   7   98.69    2.50
  -1  -3  -7   94.99    2.50
   1   3  -7  100.69    2.70
  -1  -3   7   96.19    2.60
  -1   3  -7   96.69    2.00
  -1  -3   7   98.89    2.30
   1   3   7   96.89    2.70
  -1   3  -7   96.49    2.80
  -1   3  -7   96.09    2.80
  -2  -3  -7  208.68    3.50
   2   3  -7  208.48    5.00
   2  -3   7  215.48    3.70
  -2  -3  -7  204.38    4.20
  -2   3   7  204.08    4.10
   2   3  -7  203.08    4.40
   2   3  -7  204.68    4.40
   2  -3   7  207.38    4.70
   2   3  -7  204.28    3.30
   2  -3   7  201.48    3.80
   2  -3  -7  202.48    4.50
   2  -3  -7  210.18    4.10
  -2  -3   7  204.88    4.40
   2  -3  -7  205.48    4.30
  -2   3  -7  206.38    4.70
   2  -3  -7  200.48    3.40
   2  -3  -7  211.38    4.60
   2  -3  -7  205.68    3.30
   2  -3  -7  208.88    4.50
  -2   3  -7  215.58    4.70
  -2  -3   7  204.98    4.70
   2   3   7  203.78    4.40
   3   3  -7   88.69    2.00
  -3   3   7   86.19    2.20
   3   3  -7   87.69    2.70
   3  -3   7   81.99    2.00
   3  -3   7   89.19    3.00
   3   3  -7   86.09    3.10
   3  -3   7   86.59    2.20
  -3  -3  -7   84.99    2.50
   3   3  -7   83.79    2.70
   3   3  -7   84.09    2.90
   3  -3  -7   84.79    2.70
   3  -3  -7   88.79    2.80
   3  -3  -7   90.99    2.00
   3  -3  -7   88.49    2.60
   3  -3  -7   89.49    2.30
   3   3   7   90.09    2.30
   3  -3  -7   89.19    2.70
   3  -3  -7   87.69    2.10
  -3  -3   7   82.29    2.70
  -3   3  -7   88.09    2.90
  -3   3  -7   84.09    2.80
   3   3   7   91.19    2.70
   4  -3   7   73.59    1.70
   4   3  -7   68.69    2.60
   4  -3   7   70.89    2.20
   4   3  -7   77.99    2.70
   4  -3   7   78.79    3.00
  -4  -3  -7   73.39    2.30
   4  -3   7   71.89    2.60
   4   3  -7   71.19    2.90
   4   3  -7   71.69    2.10
   4   3  -7   71.39    2.70
   4  -3  -7   75.09    2.10
   4  -3  -7   71.59    2.70
   4  -3  -7   75.19    2.50
   4  -3  -7   70.09    2.60
  -4  -3   7   73.19    2.50
   4   3   7   69.39    2.50
   4  -3  -7   72.89    2.00
   4  -3  -7   75.29    2.50
  -4   3  -7   72.19    2.90
   4   3   7   72.29    2.30
  -4   3  -7   72.39    2.70
   4   3   7   72.19    2.40
  -5  -3  -7  327.77    7.20
   5   3  -7  338.17    6.40
   5  -3   7  335.77    7.60
   5   3  -7  333.27    7.30
  -5  -3  -7  344.17    6.70
   5   3  -7  334.27    7.30
   5  -3   7  331.87    6.60
   5   3  -7  334.67    7.00
   5   3  -7  341.77    7.10
   5  -3   7  335.87    7.00
  -5  -3   7  341.97    6.70
   5   3   7  345.77    6.80
   5  -3  -7  343.07    6.90
  -5   3  -7  332.07    7.50
   5  -3  -7  342.07    6.40
  -5   3  -7  331.07    7.10
   5  -3  -7  339.37    7.00
   5  -3  -7  321.47    7.20
   5  -3  -7  337.87    6.60
   5   3   7  333.77    6.70
   5   3   7  347.07    6.80
  -6  -3  -7   62.69    2.80
   6  -3   7   63.39    2.50
   6   3  -7   55.59    2.80
   6   3  -7   61.09    3.00
   6   3  -7   64.99    2.80
   6   3  -7   63.99    2.80
  -6  -3  -7   62.59    2.50
   6  -3   7   63.09    3.10
   6  -3   7   63.09    2.80
   6   3  -7   66.29    2.50
  -6   3  -7   60.89    2.80
   6  -3  -7   63.49    2.70
   6   3   7   62.29    2.80
  -6   3  -7   64.29    3.10
   6   3   7   60.79    2.50
   6  -3  -7   62.99    2.90
   6  -3  -7   61.89    2.40
   6  -3  -7   64.39    2.40
   6   3   7   61.09    2.50
   6  -3  -7   65.89    2.70
   7   3  -7   12.70    1.60
  -7  -3  -7   13.10    1.50
   7  -3   7   17.50    2.10
   7   3  -7   17.80    1.90
   7   3  -7   13.00    1.70
  -7  -3  -7   15.10    1.60
   7   3  -7   17.90    1.70
   7  -3   7   15.00    1.60
   7  -3   7   15.30    1.80
   7   3  -7   12.20    1.60
   7  -3  -7   15.50    2.30
  -7   3  -7   12.40    1.70
   7  -3  -7   14.50    1.50
  -7   3  -7    9.90    1.60
   7   3   7   12.40    1.50
   7   3   7   13.20    1.40
   7  -3  -7   19.10    1.90
   7  -3  -7   14.70    1.80
   7   3   7   16.90    1.90
   7  -3  -7   15.20    1.80
  -8  -3  -7   11.60    1.70
  -8  -3  -7   13.00    1.70
   8   3  -7   11.20    1.70
   8   3  -7   10.00    1.80
   8   3  -7   12.10    1.60
   8  -3   7    9.30    1.50
   8   3  -7   10.30    1.70
   8   3  -7   13.40    1.80
   8  -3   7   13.00    1.80
   8  -3  -7   11.30    1.70
   8  -3  -7   12.00    1.50
   8  -3  -7   11.90    1.80
  -8   3  -7   10.10    1.70
   8   3   7   10.50    1.70
   8   3   7   10.50    1.50
   8  -3  -7   14.00    1.80
  -8   3  -7   12.20    1.90
   9   3  -7   18.60    2.20
   9  -3   7   22.90    2.30
   9   3  -7   16.90    2.30
  -9  -3  -7   16.80    2.10
   9   3  -7   18.50    2.20
   9  -3   7   16.90    2.20
  -9  -3  -7   18.30    2.10
   9   3  -7   17.40    2.00
   9   3   7   16.90    2.20
   9  -3  -7   14.20    2.10
   9  -3  -7   18.70    2.10
  -9   3  -7   16.00    2.20
   9  -3  -7   16.80    2.00
   9   3   7   17.60    2.10
  10   3  -7   23.10    2.50
  10   3  -7   25.70    2.70
  10  -3   7   18.70    2.40
  10   3  -7   24.00    2.60
  10  -3   7   20.10    2.40
 -10   3  -7   21.30    2.70
  10   3   7   19.50    2.20
  10  -3  -7   24.30    2.70
  10  -3  -7   20.40    2.50
  10   3   7   22.90    2.70
  10  -3  -7   26.20    2.70
   0  -4   7  293.97    6.40
   0  -4   7  311.97    5.70
   0   4  -7  309.67    6.10
   0  -4   7  308.27    5.70
   0   4   7  305.97    5.80
   0   4  -7  299.57    6.40
   0   4  -7  315.17    5.50
   0   4  -7  305.37    6.00
   1   4  -7  193.08    4.30
  -1  -4  -7  196.28    4.00
   1   4  -7  197.18    4.40
   1  -4   7  195.28    3.90
   1  -4   7  194.18    4.30
  -1  -4  -7  200.18    3.70
   1   4  -7  189.78    4.70
   1   4  -7  197.58    4.10
  -1   4   7  193.58    4.10
  -1   4  -7  190.88    4.40
  -1  -4   7  197.28    4.20
  -1   4  -7  203.98    3.60
  -1  -4   7  203.58    3.90
  -1  -4   7  188.68    4.70
  -1   4  -7  197.98    4.50
   1   4   7  191.48    4.30
   2  -4   7    2.00    0.70
   2  -4   7    1.20    0.40
   2   4  -7    1.90    0.60
   2  -4   7    1.70    0.30
   2   4  -7    1.20    0.80
  -2  -4  -7    1.90    0.50
  -2   4   7    1.90    0.50
   2   4  -7    0.90    0.50
  -2  -4  -7    1.70    0.40
   2  -4  -7    1.00    0.50
   2  -4  -7    1.50    0.20
   2  -4  -7    1.40    0.60
   2   4   7    1.60    0.30
  -2  -4   7    2.20    0.40
  -2  -4   7    0.60    0.50
  -2  -4   7    0.90    0.60
  -2   4  -7    1.20    0.70
   2  -4  -7    2.20    0.30
   2  -4  -7    2.70    0.70
   2   4   7    1.60    0.60
  -2   4  -7    1.60    0.70
   2  -4  -7    1.60    0.60
   3   4  -7   10.80    1.20
  -3  -4  -7   10.10    1.00
  -3   4   7   10.60    0.90
   3   4  -7    9.40    0.70
   3  -4   7   10.30    0.80
   3   4  -7    8.30    1.20
   3   4  -7   10.20    1.20
   3  -4   7   10.80    1.30
   3   4  -7    8.90    1.10
   3  -4  -7    8.70    1.10
  -3   4  -7   10.20    1.30
   3  -4  -7   13.40    0.80
  -3   4  -7   10.90    1.20
  -3  -4   7    8.70    1.00
   3  -4  -7   10.50    1.10
  -3  -4   7    8.90    1.10
   3   4   7   10.10    1.10
   3   4   7   10.80    0.90
   3  -4  -7   11.10    1.20
   3  -4  -7    8.60    1.00
   3  -4  -7   10.40    1.00
   4  -4   7   10.20    1.00
   4  -4   7    8.60    0.70
  -4  -4  -7    8.10    1.20
   4   4  -7    6.30    1.00
   4   4  -7    6.60    1.00
   4  -4   7    8.70    1.30
   4   4  -7    9.30    1.30
   4  -4   7   10.40    1.20
   4   4  -7    9.30    0.80
   4   4  -7    5.40    1.00
  -4  -4  -7    7.80    0.90
   4  -4  -7    8.20    1.20
   4  -4  -7    8.50    1.10
   4   4   7    7.80    0.90
   4  -4  -7    7.70    0.70
  -4   4  -7    7.60    1.20
  -4  -4   7    8.00    1.10
   4  -4  -7    7.60    0.90
   4  -4  -7    9.10    1.20
   4   4   7    8.20    1.00
   4  -4  -7    8.30    1.10
  -4   4  -7    8.20    1.20
   5   4  -7   47.50    2.40
   5   4  -7   47.60    2.40
   5  -4   7   51.19    2.00
   5   4  -7   49.30    2.40
   5   4  -7   49.40    2.60
  -5  -4  -7   46.70    2.00
   5   4  -7   49.20    1.90
  -5  -4  -7   52.19    2.50
   5  -4   7   45.20    2.20
   5  -4  -7   49.10    2.60
   5  -4  -7   47.30    1.90
   5  -4  -7   51.29    2.30
   5  -4  -7   46.80    2.40
  -5   4  -7   48.10    2.70
   5  -4  -7   50.99    2.00
   5   4   7   47.20    2.20
   5   4   7   45.40    2.00
  -5  -4   7   50.09    2.20
  -5   4  -7   46.50    2.40
   5  -4  -7   48.40    2.30
  -6  -4  -7    8.10    1.30
   6   4  -7    5.40    1.20
   6   4  -7    6.20    1.30
   6  -4   7    9.00    1.30
   6   4  -7    9.30    1.40
  -6  -4  -7    8.40    1.10
   6   4  -7    8.70    1.10
   6   4  -7    8.40    1.60
   6  -4   7    8.20    1.50
   6  -4   7    9.40    1.20
  -6  -4   7    9.00    1.20
   6  -4  -7    6.20    1.20
   6   4   7   10.00    1.30
   6  -4  -7    9.30    1.10
   6   4   7    9.90    1.20
   6  -4  -7    5.30    1.10
  -6   4  -7    6.00    1.30
   6  -4  -7    9.30    1.40
  -6   4  -7    7.90    1.40
   7   4  -7   81.79    3.60
   7   4  -7   92.49    3.50
   7  -4   7   81.59    3.20
   7  -4   7   80.09    3.40
  -7  -4  -7   80.59    3.00
   7   4  -7   85.69    3.10
   7   4  -7   77.19    3.50
   7  -4   7   78.99    3.80
   7   4  -7   83.59    3.60
  -7  -4  -7   88.69    3.50
   7   4   7   73.29    3.00
   7  -4  -7   85.49    3.10
   7   4   7   85.19    3.10
   7  -4  -7   84.49    3.40
   7  -4  -7   81.59    3.50
  -7   4  -7   80.39    3.50
  -7   4  -7   79.59    3.80
   7  -4  -7   75.69    3.20
   8   4  -7    4.90    1.50
   8   4  -7    3.10    1.30
   8  -4   7    2.00    1.30
   8   4  -7    4.30    1.10
   8   4  -7    5.30    1.40
   8  -4   7    5.30    1.30
   8  -4   7    3.50    1.10
   8   4  -7    2.70    1.20
  -8  -4  -7    5.50    1.30
   8   4   7    4.70    1.20
   8  -4  -7    6.20    1.40
   8  -4  -7    4.40    1.10
   8   4   7    4.20    1.30
   8   4   7    4.80    1.80
  -8   4  -7    6.10    1.60
  -8   4  -7    3.90    1.40
   8  -4  -7    5.20    1.30
   8  -4  -7    3.70    1.20
   9  -4   7   35.10    2.70
   9  -4   7   37.00    2.60
   9   4  -7   37.80    2.70
   9   4  -7   36.00    2.90
   9  -4   7   40.40    3.40
   9   4  -7   43.40    3.00
  -9  -4  -7   39.30    2.70
   9  -4  -7   40.70    2.80
   9  -4  -7   37.30    2.90
  -9   4  -7   40.80    3.20
   9   4   7   38.30    2.60
   9  -4  -7   37.10    2.70
  10   4  -7   73.39    4.00
  10   4  -7   72.09    3.90
  10  -4   7   65.49    3.60
  10  -4   7   68.29    3.60
  10   4  -7   70.79    3.60
  10  -4  -7   72.39    3.70
  10   4   7   71.29    3.60
 -10   4  -7   66.19    4.60
  10  -4  -7   70.89    4.00
  10  -4  -7   68.09    3.90
   0  -5   7  121.89    3.00
   0   5  -7  118.59    2.80
   0   5  -7  118.19    3.50
   0  -5   7  113.89    3.00
   0  -5  -7  120.69    2.90
   0  -5   7  120.39    3.70
   0   5  -7  115.49    3.40
   0   5   7  116.99    3.00
   0  -5  -7  115.69    3.10
   0   5  -7  115.99    3.10
  -1  -5  -7   38.40    1.80
   1  -5   7   38.10    2.00
   1   5  -7   41.50    2.20
   1   5  -7   40.20    1.90
   1   5  -7   42.80    1.80
  -1  -5  -7   41.30    1.50
   1  -5   7   39.80    1.80
  -1   5   7   40.80    1.60
   1   5  -7   38.90    1.60
  -1  -5  -7   40.60    1.40
   1  -5   7   38.30    1.50
  -1   5  -7   42.20    2.00
  -1  -5   7   41.70    1.80
  -1  -5   7   39.20    1.50
  -1   5  -7   40.10    1.80
   1  -5  -7   39.00    1.60
  -1   5  -7   39.50    2.00
   1  -5  -7   39.10    1.70
   1   5   7   40.70    1.80
  -1  -5   7   38.60    2.00
  -1   5  -7   41.30    1.40
   2   5  -7   38.20    2.20
  -2  -5  -7   38.10    1.40
   2   5  -7   36.70    1.90
   2   5  -7   38.20    1.80
   2  -5   7   34.80    1.90
  -2  -5  -7   36.40    1.80
  -2   5   7   35.10    1.50
  -2  -5  -7   40.40    1.30
   2  -5   7   38.10    1.10
   2  -5   7   36.80    1.50
  -2   5  -7   37.60    2.00
   2  -5  -7   35.70    1.70
  -2  -5   7   37.20    1.20
   2  -5  -7   38.00    0.90
   2   5   7   38.90    1.20
   2  -5  -7   36.70    0.90
   2  -5  -7   35.20    1.40
   2  -5  -7   35.90    1.70
  -2  -5   7   36.10    2.00
  -2   5  -7   36.50    1.90
   2   5   7   36.30    1.70
   2  -5  -7   39.20    1.70
   2  -5  -7   36.90    1.70
  -2  -5   7   36.50    1.70
   3  -5   7  164.88    4.50
  -3   5   7  166.88    3.50
   3   5  -7  172.68    4.30
   3  -5   7  168.68    3.60
   3  -5   7  170.68    3.40
   3   5  -7  167.98    4.40
   3   5  -7  166.88    4.60
   3   5  -7  164.08    4.30
  -3  -5  -7  169.38    4.40
  -3  -5  -7  168.08    3.60
   3  -5  -7  166.08    3.20
  -3  -5   7  172.98    4.50
  -3   5  -7  168.08    4.30
  -3   5  -7  164.88    4.60
  -3  -5   7  161.08    4.10
   3  -5  -7  172.68    3.80
   3  -5  -7  171.78    4.00
   3   5   7  163.88    4.10
   3  -5  -7  168.08    4.20
   3  -5  -7  171.78    3.40
   3  -5  -7  169.18    3.90
   4   5  -7  176.18    3.70
  -4   5   7  172.48    3.50
   4   5  -7  174.48    4.60
   4   5  -7  177.78    4.70
   4  -5   7  167.38    4.80
   4  -5   7  177.88    3.90
   4  -5   7  169.98    3.60
  -4  -5  -7  167.68    3.80
   4  -5   7  176.48    4.40
  -4  -5  -7  175.48    4.70
   4   5  -7  181.98    4.60
   4  -5  -7  181.98    4.10
   4   5   7  175.48    4.40
  -4   5  -7  175.58    4.60
   4  -5  -7  183.38    3.90
  -4  -5   7  175.48    4.50
   4  -5  -7  170.68    4.70
  -4  -5   7  175.58    4.60
   4  -5  -7  170.58    3.60
   4  -5  -7  180.88    4.50
  -4   5  -7  174.88    4.90
   4  -5  -7  174.48    4.30
   5  -5   7   25.90    1.80
   5   5  -7   25.20    1.90
   5  -5   7   27.50    1.60
  -5  -5  -7   23.90    1.80
  -5  -5  -7   27.30    1.50
   5   5  -7   27.10    2.10
   5   5  -7   29.40    2.00
   5   5  -7   26.80    1.50
   5   5  -7   26.90    2.00
   5  -5   7   26.00    2.10
   5  -5  -7   26.80    2.00
   5  -5  -7   28.50    1.80
   5  -5  -7   26.80    1.60
  -5   5  -7   28.60    2.00
  -5   5  -7   25.80    2.20
   5   5   7   28.00    1.80
   5  -5  -7   26.80    1.80
   5   5   7   24.60    1.50
   5  -5  -7   27.40    1.40
  -5  -5   7   31.10    2.00
   6   5  -7  103.79    3.90
   6   5  -7  108.19    3.30
   6   5  -7  104.19    3.80
  -6  -5  -7  111.19    3.20
   6   5  -7  106.09    3.90
   6  -5   7  110.49    3.40
   6   5  -7  109.49    3.70
   6  -5   7  114.59    4.30
  -6  -5  -7  112.29    3.90
   6  -5   7  113.09    3.70
  -6  -5   7  109.39    3.60
   6  -5  -7  111.59    3.30
   6   5   7  109.39    3.50
   6  -5  -7  114.39    3.80
   6  -5  -7  107.69    3.50
  -6   5  -7  108.09    4.20
   6  -5  -7  110.89    4.00
   6   5   7  109.09    3.30
  -6   5  -7  108.19    3.80
   7   5  -7   20.00    2.10
   7   5  -7   17.00    2.00
   7   5  -7   20.10    1.90
   7  -5   7   22.70    2.20
   7  -5   7   17.10    2.10
   7  -5   7   19.20    1.80
   7   5  -7   23.80    2.20
   7   5  -7   21.50    1.90
  -7  -5  -7   22.80    2.10
   7  -5  -7   20.60    1.70
   7  -5  -7   19.50    1.90
   7  -5  -7   21.60    2.00
  -7   5  -7   23.90    2.40
   7  -5  -7   21.60    2.20
   7   5   7   20.10    1.70
  -7   5  -7   21.10    2.30
   7   5   7   18.20    1.80
   8  -5   7    6.20    1.30
   8  -5   7    4.20    1.20
  -8  -5  -7   10.90    1.70
   8   5  -7   10.10    1.80
   8   5  -7   10.50    1.80
   8   5  -7    8.50    1.60
   8  -5   7    5.40    1.70
   8   5  -7    5.70    1.60
   8   5   7    8.30    1.40
  -8   5  -7    8.10    1.70
   8   5   7   11.10    1.60
   8  -5  -7    6.00    1.50
   8  -5  -7    7.50    1.30
  -8   5  -7    5.90    1.70
   8  -5  -7    8.10    1.50
   8  -5  -7    9.40    1.60
   9   5  -7   26.80    2.70
   9  -5   7   26.50    2.60
  -9  -5  -7   25.10    2.40
   9   5  -7   29.70    2.70
   9  -5   7   27.20    2.30
   9   5  -7   30.00    2.50
   9  -5  -7   29.90    2.70
   9  -5  -7   19.50    2.30
  -9   5  -7   27.20    2.90
   9  -5  -7   24.80    2.40
   9   5   7   28.30    2.20
  10   5  -7   53.39    3.20
  10  -5   7   54.69    3.40
  10  -5   7   56.19    3.50
  10   5  -7   52.39    3.50
  10  -5  -7   54.49    4.80
  10  -5  -7   58.29    3.30
  10  -5  -7   57.29    4.50
  10   5   7   49.70    3.10
   0   6  -7  338.77    6.60
   0  -6  -7  332.87    6.50
   0  -6  -7  339.77    6.20
   0  -6   7  348.17    6.50
   0  -6   7  336.37    7.30
   0   6  -7  338.77    7.00
   0  -6   7  339.47    6.50
   0   6  -7  325.67    6.90
   0   6  -7  335.37    6.20
   0   6   7  331.67    6.40
   0  -6  -7  343.77    5.20
   1  -6   7   31.90    2.00
  -1  -6  -7   33.40    1.70
  -1  -6  -7   30.90    1.40
   1   6  -7   34.90    1.70
  -1   6   7   32.80    1.50
  -1  -6  -7   37.60    1.40
   1  -6   7   33.90    1.70
   1   6  -7   34.20    2.10
   1   6  -7   37.00    1.70
   1  -6   7   35.40    1.60
   1   6  -7   34.30    2.00
   1  -6  -7   32.90    1.70
  -1   6  -7   34.10    2.00
  -1  -6   7   34.80    1.50
  -1   6  -7   36.20    2.00
  -1  -6   7   34.10    1.70
   1  -6  -7   36.70    1.60
  -1   6  -7   33.20    1.70
  -1  -6   7   38.70    2.20
   1   6   7   33.70    1.70
   1  -6  -7   34.20    1.60
   1  -6  -7   34.90    1.70
  -1   6  -7   36.60    1.50
  -2  -6  -7  465.85    7.60
   2   6  -7  456.45    8.40
  -2  -6  -7  470.25    7.70
   2  -6   7  476.15    7.30
   2   6  -7  471.35    8.60
   2  -6   7  454.45    8.10
   2   6  -7  469.45    9.00
   2   6  -7  457.15    9.00
  -2   6   7  467.05    8.10
  -2  -6  -7  461.15    8.80
   2  -6   7  461.85    8.90
  -2   6  -7  458.15    8.70
   2  -6  -7  460.05    7.90
  -2  -6   7  464.85    7.70
   2  -6  -7  448.46    8.60
   2  -6  -7  473.15    8.10
  -2   6  -7  463.45    8.80
   2  -6  -7  473.95    8.10
  -2  -6   7  460.85    8.50
  -2   6  -7  471.45    9.10
  -2  -6   7  468.65    9.20
   2  -6  -7  456.65    8.50
   2   6   7  459.75    8.50
  -3  -6  -7   94.09    3.20
   3  -6   7   94.99    2.30
  -3  -6  -7   90.29    2.30
   3   6  -7   94.09    3.30
  -3   6   7   93.19    2.50
   3  -6   7   89.99    3.30
   3   6  -7   94.59    3.50
   3  -6   7   94.79    2.60
   3   6  -7   92.99    3.10
   3   6  -7   92.29    3.10
  -3   6  -7   87.59    3.40
  -3  -6   7   89.79    3.00
  -3  -6   7   83.69    3.20
   3  -6  -7   95.09    2.60
   3  -6  -7   94.69    2.90
  -3   6  -7   91.39    3.10
   3  -6  -7   91.19    2.30
   3   6   7   90.39    2.90
   3  -6  -7   92.89    2.70
   3  -6  -7   87.59    3.00
  -4  -6  -7  165.28    4.70
   4   6  -7  175.78    4.70
  -4  -6  -7  180.88    4.00
   4   6  -7  174.78    4.50
   4   6  -7  172.18    4.90
   4  -6   7  174.58    3.80
   4  -6   7  170.58    3.90
   4  -6   7  180.48    5.10
   4   6  -7  170.68    4.80
   4  -6  -7  182.08    4.30
  -4  -6   7  178.28    4.90
  -4   6  -7  167.58    4.60
   4  -6  -7  179.68    4.20
  -4   6  -7  171.88    5.10
  -4  -6   7  179.88    4.60
   4   6   7  174.48    4.50
   4  -6  -7  179.58    3.70
   4  -6  -7  175.28    4.60
   5   6  -7   30.90    2.20
   5  -6   7   35.30    2.40
   5   6  -7   34.50    2.20
   5   6  -7   32.70    2.20
  -5  -6  -7   28.80    2.00
   5  -6   7   34.40    1.70
   5   6  -7   32.10    2.40
   5  -6   7   34.10    2.00
   5  -6  -7   32.00    1.60
  -5  -6   7   35.10    2.20
  -5   6  -7   33.10    2.50
   5  -6  -7   28.50    1.80
   5  -6  -7   30.80    1.90
   5   6   7   29.40    1.80
   5  -6  -7   31.40    2.10
   5  -6  -7   28.60    1.90
  -5   6  -7   29.70    2.00
  -5  -6   7   33.60    2.10
   6   6  -7    2.90    1.10
   6   6  -7    3.00    1.00
   6   6  -7    2.10    1.20
   6   6  -7    2.70    1.10
  -6  -6  -7    2.10    0.90
   6  -6   7    2.60    1.00
   6  -6   7    2.70    0.80
   6  -6   7    2.60    1.20
   6   6   7    3.20    0.80
   6  -6  -7    2.50    0.70
   6  -6  -7    2.50    1.10
   6  -6  -7    1.70    0.90
   6  -6  -7    4.10    1.10
  -6   6  -7    1.60    1.00
  -6  -6   7    1.60    1.00
   6   6   7    2.40    1.00
  -6   6  -7    1.70    1.20
   7   6  -7   83.99    3.80
   7  -6   7   84.69    4.00
   7   6  -7   84.79    3.80
   7  -6   7   87.59    3.30
   7   6  -7   84.59    3.90
  -7  -6  -7   83.59    3.60
   7  -6   7   87.29    3.50
   7   6  -7   81.69    3.30
  -7   6  -7   82.49    3.60
   7  -6  -7   83.99    3.30
   7  -6  -7   85.39    3.60
   7   6   7   85.99    3.30
   7  -6  -7   87.69    3.20
   7  -6  -7   84.19    3.80
  -7   6  -7   91.39    4.20
   7   6   7   86.79    3.10
   8  -6   7   21.50    2.60
   8   6  -7   19.40    2.30
  -8  -6  -7   27.80    2.50
   8   6  -7   22.60    2.50
   8  -6   7   22.20    2.00
   8   6  -7   25.70    2.30
   8  -6   7   22.20    2.30
  -8   6  -7   22.10    2.50
   8   6   7   20.50    1.80
   8  -6  -7   24.40    2.40
   8  -6  -7   20.40    2.30
   8  -6  -7   26.90    2.40
  -8   6  -7   22.40    2.50
   8   6   7   21.80    2.00
   8  -6  -7   24.30    2.00
   9  -6   7   15.00    2.00
   9  -6   7   16.10    2.10
   9  -6   7   14.90    2.40
   9   6  -7   17.10    2.40
   9   6  -7   14.00    2.30
  -9  -6  -7   15.80    2.00
   9   6  -7   15.10    2.00
   9  -6  -7   18.10    2.20
  -9   6  -7   16.10    2.40
   9  -6  -7    9.70    1.80
   9  -6  -7   14.90    1.90
   9   6   7   17.00    1.90
  10  -6   7    2.30    1.40
  10  -6   7    2.50    1.40
  10   6  -7    3.20    1.30
  10   6  -7    5.50    1.60
  10  -6  -7    6.00    1.50
  10  -6  -7    0.40    1.30
   0  -7   7    3.90    0.90
   0   7  -7    3.00    1.00
   0  -7   7    3.50    1.00
   0   7   7    3.90    0.80
   0  -7  -7    5.30    0.80
   0  -7   7    3.10    0.70
   0   7  -7    1.70    0.60
   0  -7  -7    3.70    0.90
   0   7  -7    3.90    0.80
   0   7  -7    3.50    1.00
   0  -7  -7    3.00    0.90
   1   7  -7  356.76    7.60
  -1   7   7  352.26    6.80
   1  -7   7  351.06    7.10
  -1  -7  -7  359.56    7.20
   1   7  -7  355.96    6.90
  -1  -7  -7  357.36    6.10
  -1  -7  -7  356.86    6.50
   1   7  -7  363.56    6.90
   1  -7   7  352.76    6.80
   1  -7   7  367.76    7.90
   1   7  -7  357.96    7.50
  -1   7  -7  351.46    7.30
   1  -7  -7  364.56    6.40
   1  -7  -7  350.76    6.90
  -1  -7   7  356.96    7.80
   1   7   7  358.86    7.00
  -1  -7   7  358.56    6.70
  -1   7  -7  360.56    7.60
   1  -7  -7  352.26    6.80
  -1  -7   7  353.86    7.00
  -1   7  -7  367.26    7.10
  -1   7  -7  355.26    6.60
   1  -7  -7  361.26    7.30
   2  -7   7   70.59    2.40
  -2  -7  -7   73.59    2.80
   2  -7   7   69.49    2.80
   2  -7   7   67.79    3.00
   2   7  -7   75.79    3.10
  -2  -7  -7   71.69    2.10
   2   7  -7   71.29    2.90
  -2   7   7   70.59    2.30
   2   7  -7   70.89    2.60
   2   7  -7   72.09    2.50
  -2  -7   7   71.09    2.70
  -2   7  -7   73.39    2.70
   2  -7  -7   73.39    2.60
  -2   7  -7   71.69    2.70
   2  -7  -7   72.59    2.30
   2  -7  -7   72.79    2.20
   2  -7  -7   70.79    2.60
  -2  -7   7   73.09    3.10
   2  -7  -7   70.89    2.20
   2  -7  -7   71.09    2.70
   2   7   7   69.59    2.60
  -2  -7   7   71.79    2.10
  -2   7  -7   72.49    3.10
   3  -7   7  282.97    5.20
   3  -7   7  281.37    5.70
   3   7  -7  275.97    6.10
   3  -7   7  279.87    6.60
  -3  -7  -7  271.07    6.40
  -3   7   7  287.67    5.50
   3   7  -7  274.57    6.60
   3   7  -7  282.57    6.60
   3   7  -7  284.17    6.30
  -3   7  -7  284.47    6.20
  -3  -7   7  273.07    6.10
   3   7   7  279.67    6.20
  -3  -7   7  290.87    6.90
   3  -7  -7  288.67    6.40
   3  -7  -7  291.47    5.60
   3  -7  -7  282.57    6.10
  -3   7  -7  279.97    6.30
   3  -7  -7  288.97    5.90
  -3   7  -7  286.57    6.90
   4   7  -7   97.09    3.20
   4   7  -7   95.29    3.60
   4  -7   7   96.99    2.70
   4  -7   7   95.19    2.80
   4   7  -7   95.59    3.60
  -4  -7  -7   91.09    3.40
   4   7  -7   91.19    3.40
   4  -7   7   94.19    3.70
   4  -7  -7   88.89    3.20
   4  -7  -7   94.69    3.10
  -4  -7   7   91.29    3.60
  -4   7  -7   90.79    3.70
   4   7   7   99.99    3.30
  -4   7  -7   93.69    3.30
  -4  -7   7   99.79    3.40
   4  -7  -7   92.99    2.80
   5   7  -7   56.89    2.80
  -5  -7  -7   58.99    2.90
   5  -7   7   63.49    2.40
   5  -7   7   60.69    2.20
   5   7  -7   60.49    3.00
   5  -7   7   60.59    3.10
   5   7  -7   61.89    2.70
   5  -7   7   63.59    2.70
   5   7  -7   61.49    3.10
  -5  -7   7   60.89    2.80
   5  -7  -7   61.09    2.80
  -5   7  -7   58.69    3.20
   5  -7  -7   60.59    2.60
   5   7   7   58.99    2.60
   5  -7  -7   60.49    2.20
  -5  -7   7   59.49    2.90
  -5   7  -7   62.49    2.90
   5  -7  -7   56.99    2.40
   5  -7  -7   62.19    3.00
  -6  -7  -7   59.49    3.00
   6   7  -7   55.49    3.10
   6   7  -7   54.69    3.00
   6   7  -7   60.29    2.80
   6  -7   7   54.29    3.20
   6   7  -7   55.99    3.10
   6  -7   7   56.39    2.50
   6  -7   7   57.49    2.80
   6   7   7   57.89    2.30
   6  -7  -7   57.89    2.90
  -6  -7   7   54.59    2.90
  -6   7  -7   57.99    3.40
   6   7   7   57.99    2.80
   6  -7  -7   55.39    2.30
   6  -7  -7   57.59    2.60
  -6   7  -7   59.89    3.10
   6  -7  -7   59.19    3.00
   7   7  -7   48.80    2.70
  -7  -7  -7   44.70    2.90
   7   7  -7   47.10    3.00
   7   7  -7   46.30    3.10
   7  -7   7   46.90    3.30
   7   7  -7   40.80    2.80
   7  -7   7   49.70    2.60
   7  -7   7   47.30    2.70
   7  -7  -7   48.70    2.90
  -7   7  -7   51.19    3.40
   7  -7  -7   49.70    3.10
   7   7   7   48.90    2.60
   7  -7  -7   47.40    2.60
  -7   7  -7   46.30    3.00
   7  -7  -7   46.80    2.30
   7   7   7   45.00    2.50
   8  -7   7   23.90    2.70
   8  -7   7   27.10    2.40
   8  -7   7   26.60    2.20
   8   7  -7   31.00    2.90
   8   7  -7   28.80    2.60
  -8  -7  -7   27.90    2.50
   8   7  -7   24.80    2.30
   8  -7  -7   26.10    2.20
   8  -7  -7   22.60    2.50
   8  -7  -7   22.10    2.30
   8  -7  -7   26.80    2.50
  -8   7  -7   24.20    2.70
   8   7   7   22.00    2.10
   8  -7  -7   30.20    3.50
   9  -7   7   26.20    2.60
   9   7  -7   24.40    2.70
   9  -7   7   22.40    2.70
  -9  -7  -7   30.30    2.70
   9   7  -7   27.00    2.40
   9   7  -7   25.70    2.80
   9  -7  -7   32.00    2.50
   9  -7  -7   22.00    2.50
   9  -7  -7   27.90    2.70
   9  -7  -7   26.30    2.80
  -9   7  -7   26.60    2.90
   0   8  -7    7.00    1.30
   0  -8   7    7.20    1.00
   0   8  -7    7.60    1.00
   0  -8  -7    8.70    1.10
   0  -8   7    7.20    1.10
   0  -8   7    7.50    1.30
   0   8  -7    6.70    1.00
   0   8  -7    6.70    1.20
   0  -8  -7    6.20    1.10
   0  -8  -7    6.00    1.00
   0   8   7    5.20    1.00
   1  -8   7  456.05    8.50
   1   8  -7  454.45    9.30
  -1  -8  -7  455.65    8.80
  -1  -8  -7  457.45    8.10
  -1   8   7  446.86    8.30
   1  -8   7  453.85    9.50
   1   8  -7  470.95    8.70
   1  -8   7  452.95    8.80
   1   8  -7  461.55    9.00
   1   8  -7  459.55    8.40
   1  -8  -7  455.55    8.90
  -1   8  -7  464.75    8.80
  -1   8  -7  447.76    8.60
  -1  -8   7  463.75    8.70
   1  -8  -7  453.55    8.40
   1   8   7  462.85    8.70
  -1  -8   7  454.95    8.30
  -1  -8   7  442.86    9.50
   1  -8  -7  461.55    8.50
  -1   8  -7  456.75    9.40
   2  -8   7   21.20    1.50
  -2   8   7   23.60    1.40
   2  -8   7   22.10    1.80
   2   8  -7   23.40    1.70
  -2  -8  -7   25.20    1.90
   2   8  -7   23.00    2.00
   2   8  -7   24.30    2.00
  -2  -8  -7   26.00    1.40
   2   8  -7   25.60    1.60
   2  -8   7   26.80    2.10
   2  -8  -7   22.60    1.70
   2  -8  -7   22.60    1.30
   2  -8  -7   23.40    1.80
  -2   8  -7   25.20    1.80
  -2   8  -7   25.00    1.70
   2  -8  -7   25.30    1.80
   2  -8  -7   25.40    1.50
  -2  -8   7   24.40    1.30
  -2  -8   7   24.00    1.70
  -2  -8   7   23.10    2.00
  -2   8  -7   25.00    2.10
   2   8   7   24.70    1.70
  -3   8   7  161.18    3.70
   3  -8   7  157.28    4.80
  -3  -8  -7  158.38    4.60
   3  -8   7  165.68    4.10
   3   8  -7  161.18    4.90
   3   8  -7  159.68    4.20
   3   8  -7  161.68    4.10
   3   8  -7  158.48    4.50
   3   8  -7  161.18    4.70
  -3   8  -7  163.98    4.30
  -3   8  -7  164.98    5.10
   3  -8  -7  156.78    4.50
  -3   8  -7  149.69    4.30
   3   8   7  157.98    4.40
  -3  -8   7  163.28    5.00
  -3  -8   7  160.58    4.50
   3  -8  -7  164.78    3.70
   3  -8  -7  168.78    4.50
   3  -8  -7  159.28    4.40
   4   8  -7   46.40    2.20
   4   8  -7   48.60    2.60
   4   8  -7   45.70    2.70
   4  -8   7   45.50    2.00
  -4  -8  -7   46.80    2.50
   4   8  -7   44.00    2.70
   4  -8   7   43.40    2.70
  -4  -8   7   43.30    2.30
  -4   8  -7   43.70    2.40
  -4   8  -7   40.10    2.70
   4  -8  -7   47.40    2.00
  -4   8  -7   44.30    2.20
   4   8   7   38.40    2.30
   4  -8  -7   42.30    2.30
   4  -8  -7   44.80    2.40
   4  -8  -7   42.00    2.40
  -4  -8   7   48.40    2.80
   5  -8   7    2.30    0.80
   5   8  -7    2.10    1.00
   5   8  -7    3.40    1.20
   5  -8   7    2.10    1.10
   5   8  -7    1.50    1.00
   5  -8   7    3.90    1.30
   5   8  -7    3.40    1.40
  -5  -8  -7    1.90    1.20
   5  -8  -7    2.80    1.10
   5  -8  -7    0.60    1.00
  -5  -8   7    1.70    1.00
  -5  -8   7    3.40    1.10
   5   8   7    0.70    0.90
   5  -8  -7    4.00    0.90
  -5   8  -7    1.90    1.10
  -5   8  -7    3.80    1.10
   5  -8  -7    3.60    1.10
   6  -8   7   21.60    2.30
   6   8  -7   28.90    2.50
  -6  -8  -7   27.30    2.30
   6   8  -7   28.00    2.10
   6  -8   7   27.70    2.10
   6   8  -7   27.40    2.40
   6   8  -7   26.30    2.20
   6  -8   7   29.50    3.20
  -6   8  -7   26.30    2.60
   6   8   7   27.70    2.20
   6  -8  -7   30.60    2.00
   6  -8  -7   23.20    2.20
  -6   8  -7   31.70    2.40
   6  -8  -7   24.80    2.20
   6  -8  -7   26.80    1.70
   6  -8  -7   26.40    2.30
  -6  -8   7   22.00    2.20
   7   8  -7  225.88    6.70
   7  -8   7  232.38    6.10
   7  -8   7  223.78    7.00
  -7  -8  -7  228.28    6.60
   7   8  -7  241.68    5.90
   7   8  -7  231.38    6.90
   7   8  -7  231.08    6.80
   7   8   7  235.68    6.10
   7  -8  -7  225.18    6.40
   7  -8  -7  226.68    5.60
   7  -8  -7  220.38    6.50
  -7  -8   7  244.28    7.90
   7  -8  -7  214.78    6.50
  -7   8  -7  224.98    7.10
   7  -8  -7  236.18    5.80
  -7   8  -7  225.78    6.50
   8  -8   7   11.70    1.80
   8   8  -7   11.30    1.90
  -8  -8  -7   11.90    1.90
   8   8  -7   13.70    2.20
   8  -8   7    8.50    2.00
   8   8  -7   12.80    1.70
   8  -8  -7   12.00    1.90
  -8   8  -7   10.30    2.10
   8   8   7   10.70    1.70
   8  -8  -7    8.60    1.70
   8  -8  -7   13.50    2.00
   8  -8  -7   14.50    1.90
  -9  -8  -7    4.50    1.60
   9  -8   7    7.80    2.00
   9   8  -7    4.70    2.20
   9   8  -7    7.80    1.50
   9  -8   7    3.60    1.40
   9   8  -7    6.10    1.80
   9  -8  -7    7.70    1.70
  -9   8  -7    5.20    3.00
   9  -8  -7    4.90    1.70
   9  -8  -7    7.40    1.80
   9  -8  -7    8.10    1.50
   0   9  -7  114.99    3.40
   0   9  -7  114.59    4.10
   0  -9   7  113.59    3.50
   0   9  -7  114.49    3.60
   0  -9   7  113.79    4.20
   0   9  -7  117.79    3.50
   0  -9  -7  115.59    3.30
   0  -9  -7  109.79    3.50
   0  -9  -7  113.79    3.80
   0   9   7  111.59    3.40
   0  -9   7  112.59    3.50
  -1  -9  -7  113.69    3.90
   1   9  -7  118.19    3.30
   1   9  -7  111.69    3.50
   1   9  -7  106.79    3.60
   1  -9   7  109.69    3.70
  -1  -9  -7  108.09    3.10
   1   9  -7  117.49    4.10
   1  -9   7  110.99    4.10
  -1  -9  -7  114.39    3.70
   1  -9   7  114.89    3.50
  -1   9   7  114.49    3.30
   1  -9  -7  122.49    3.90
   1  -9  -7  115.79    3.50
  -1   9  -7  109.09    4.10
  -1   9  -7  111.29    3.40
   1  -9  -7  110.69    3.40
  -1  -9   7  110.59    4.10
   1   9   7  109.19    3.50
  -1  -9   7  121.09    3.40
  -1   9  -7  116.19    3.60
  -1  -9   7  111.99    3.60
  -2  -9  -7  215.98    4.60
  -2  -9  -7  205.08    5.50
   2   9  -7  216.68    4.90
   2  -9   7  212.78    5.10
  -2   9   7  211.08    4.80
   2  -9   7  211.58    5.60
   2   9  -7  207.18    5.80
   2   9  -7  214.48    5.40
   2   9  -7  210.18    4.90
   2   9  -7  216.58    5.50
   2  -9   7  204.78    5.80
  -2  -9   7  205.08    6.00
   2  -9  -7  206.88    5.40
   2  -9  -7  209.78    4.80
  -2   9  -7  217.68    5.20
   2  -9  -7  215.88    5.30
  -2  -9   7  210.68    4.70
   2  -9  -7  217.48    5.50
  -2  -9   7  212.88    5.30
  -2   9  -7  216.18    6.00
   2   9   7  214.18    5.30
  -2   9  -7  219.58    5.20
   3  -9   7   79.69    3.40
   3   9  -7   79.59    2.90
   3   9  -7   85.09    3.60
  -3  -9  -7   81.69    3.40
   3   9  -7   80.19    3.40
  -3   9   7   83.09    2.60
   3   9  -7   86.59    3.30
   3   9  -7   80.79    2.80
   3  -9   7   81.89    2.90
   3  -9  -7   81.89    3.30
   3   9   7   82.49    3.10
   3  -9  -7   82.19    3.20
  -3  -9   7   89.59    3.80
  -3   9  -7   83.79    3.00
  -3  -9   7   86.49    3.30
  -3   9  -7   80.69    3.10
  -3   9  -7   86.19    3.80
   3  -9  -7   87.19    3.30
   4  -9   7  102.69    4.10
  -4  -9  -7  109.29    4.10
   4   9  -7  110.09    3.40
   4   9  -7  110.69    4.00
   4   9  -7  107.29    3.30
   4  -9   7  108.89    3.40
   4   9  -7  107.69    4.20
   4   9  -7  107.49    3.90
  -4  -9   7  109.79    4.30
  -4   9  -7  111.29    4.40
  -4   9  -7  105.49    3.70
   4  -9  -7  116.19    3.90
   4  -9  -7  103.89    3.90
  -4  -9   7  106.49    3.70
   4  -9  -7  113.09    3.90
   4   9   7  110.99    3.80
   5   9  -7   39.10    2.20
  -5  -9  -7   37.70    2.70
   5  -9   7   37.50    2.80
   5  -9   7   37.40    2.00
   5   9  -7   42.00    2.80
   5   9  -7   40.80    2.90
   5   9  -7   34.00    2.50
   5  -9  -7   40.00    2.50
   5  -9  -7   36.70    2.50
   5  -9  -7   37.50    2.50
  -5   9  -7   38.60    3.00
  -5  -9   7   40.20    2.50
  -5  -9   7   43.90    2.90
  -5   9  -7   39.90    2.50
   5   9   7   38.60    2.30
  -6  -9  -7   58.49    3.30
   6   9  -7   59.49    3.50
   6  -9   7   54.69    3.40
   6   9  -7   61.39    2.80
   6   9  -7   55.59    3.20
   6   9  -7   57.59    3.30
  -6  -9   7   59.69    3.10
   6  -9  -7   58.49    2.50
  -6   9  -7   56.19    3.60
  -6   9  -7   61.79    3.20
   6  -9  -7   58.49    3.20
   6  -9  -7   62.69    3.10
   6  -9  -7   59.99    3.30
   6   9   7   64.09    3.10
  -6  -9   7   56.19    3.30
   7  -9   7   74.59    3.40
   7   9  -7   78.09    3.60
   7   9  -7   71.29    3.10
   7   9  -7   69.49    3.80
   7   9  -7   68.09    3.70
  -7  -9  -7   67.49    3.70
   7  -9   7   79.79    4.20
  -7   9  -7   73.69    3.70
   7  -9  -7   72.79    3.50
  -7  -9   7   67.79    3.70
  -7   9  -7   79.69    5.30
   7  -9  -7   80.19    3.10
   7  -9  -7   71.99    3.70
   7  -9  -7   77.09    3.90
   7   9   7   71.89    3.40
  -8  -9  -7    2.30    1.40
   8  -9   7    1.00    1.30
   8  -9   7    1.60    1.20
   8   9  -7    3.10    1.60
   8   9  -7    0.50    1.20
  -8   9  -7    1.00    1.40
   8  -9  -7    3.40    1.50
   8  -9  -7    2.70    1.40
   8  -9  -7    2.00    1.30
   8   9   7    1.00    1.20
   9   9  -7    3.90    1.50
   9  -9   7    1.20    1.20
   9  -9  -7    2.50    1.40
   0 -10   7  107.89    3.60
   0 -10  -7  104.19    3.30
   0 -10   7  101.39    4.10
   0 -10  -7  104.99    3.60
   0  10   7  109.69    3.50
   0 -10   7  108.99    3.60
   0  10  -7  105.79    3.50
   0  10  -7  103.29    4.00
   0  10  -7  103.99    3.50
   0 -10  -7  105.59    3.80
   0  10  -7  101.79    3.20
   1  10  -7   14.70    1.80
  -1 -10  -7   15.10    1.70
  -1 -10  -7   15.00    1.40
   1  10  -7   15.60    1.60
   1  10  -7   15.00    1.40
   1 -10   7   17.70    1.60
  -1  10   7   16.80    1.50
   1  10  -7   16.30    1.80
   1 -10   7   12.00    1.70
  -1 -10  -7   16.90    1.80
   1 -10   7   14.50    1.70
   1  10   7   18.70    1.70
  -1 -10   7   13.40    1.80
  -1 -10   7   13.40    1.40
  -1 -10   7   15.70    1.70
   1 -10  -7   14.80    1.70
  -1  10  -7   17.00    1.50
  -1  10  -7   16.20    1.60
   1 -10  -7   15.50    1.50
  -1  10  -7   16.50    2.00
   1 -10  -7   13.80    1.50
   2  10  -7   79.79    3.20
  -2  10   7   79.39    2.70
  -2 -10  -7   79.19    2.70
  -2 -10  -7   73.79    3.30
   2  10  -7   77.79    3.30
   2 -10   7   81.49    3.70
   2 -10   7   84.29    3.00
   2  10  -7   78.79    3.60
   2  10  -7   77.59    2.70
   2  10  -7   79.79    3.10
  -2 -10  -7   73.19    3.20
   2 -10   7   78.89    3.40
   2 -10  -7   75.59    3.00
   2  10   7   77.59    3.10
  -2 -10   7   79.99    3.80
  -2  10  -7   74.69    3.60
   2 -10  -7   88.99    3.40
  -2 -10   7   77.19    2.70
  -2 -10   7   75.59    3.10
  -2  10  -7   77.69    2.90
   2 -10  -7   75.59    2.80
  -2  10  -7   79.89    3.40
   2 -10  -7   78.79    3.20
   3  10  -7  122.79    4.60
   3  10  -7  118.29    4.10
  -3 -10  -7  122.99    4.30
   3  10  -7  119.39    4.10
   3 -10   7  119.59    4.40
   3 -10   7  117.29    3.70
  -3  10   7  115.89    3.30
   3 -10   7  120.59    4.30
  -3 -10  -7  112.69    4.20
  -3  10  -7  111.59    4.50
   3 -10  -7  117.99    4.00
   3 -10  -7  119.69    4.10
  -3  10  -7  115.19    3.80
  -3 -10   7  119.79    4.70
   3 -10  -7  120.29    4.10
   3  10   7  116.99    3.90
  -3 -10   7  114.19    4.00
   4  10  -7  191.58    5.70
   4 -10   7  201.18    6.10
  -4 -10  -7  199.68    5.80
   4  10  -7  205.78    6.10
   4 -10   7  201.38    5.10
   4  10  -7  198.68    5.70
   4  10   7  196.38    5.50
   4 -10  -7  207.28    5.70
  -4  10  -7  191.58    6.20
  -4 -10   7  201.88    5.60
   4 -10  -7  205.88    5.80
  -4  10  -7  195.68    5.40
   4 -10  -7  202.28    5.60
  -4 -10   7  200.38    6.20
   5 -10   7    7.60    1.30
   5  10  -7    6.20    1.60
   5 -10   7    3.90    1.50
   5  10  -7    7.30    1.50
   5  10  -7    5.90    1.60
  -5 -10  -7    7.00    1.60
  -5 -10   7    7.70    1.60
   5 -10  -7    6.00    1.50
  -5 -10   7    7.50    1.70
  -5  10  -7    7.80    1.80
  -5  10  -7    9.30    1.50
   5  10   7    5.10    1.30
   5 -10  -7    7.90    1.50
   5 -10  -7    5.10    1.20
  -6 -10  -7   11.20    2.00
   6  10  -7   10.40    1.70
   6  10  -7   13.50    2.10
   6 -10   7   10.90    2.00
   6  10  -7   15.10    2.30
   6 -10  -7   13.90    2.00
   6 -10  -7   11.60    1.90
   6 -10  -7   12.60    2.00
  -6 -10   7   13.90    2.10
  -6  10  -7   16.40    2.10
  -6  10  -7   13.50    2.20
  -6 -10   7   16.00    1.90
   6 -10  -7   13.20    2.00
   6  10   7   12.00    1.70
   7 -10   7   15.80    2.40
  -7 -10  -7   20.60    2.50
   7  10  -7   18.90    2.30
   7  10  -7   21.70    2.60
   7  10  -7   18.40    2.00
   7 -10  -7   17.70    2.30
   7  10   7   19.10    2.20
   7 -10  -7   21.20    2.30
  -7 -10   7   22.70    2.50
   7 -10  -7   19.70    2.30
  -7  10  -7   21.10    2.40
  -8 -10  -7    5.40    1.70
   8  10  -7    5.80    1.70
   8 -10   7    3.40    1.80
   8  10  -7    5.00    1.80
   8 -10  -7    3.70    1.50
  -8  10  -7   10.10    2.10
   8  10   7    6.90    1.60
   8 -10  -7    7.50    1.80
   8 -10  -7    5.10    1.60
   0 -11   7    3.60    1.30
   0 -11  -7    3.50    1.00
   0  11  -7    3.20    1.20
   0 -11   7    3.70    1.00
   0  11   7    2.30    0.90
   0 -11   7    2.10    0.90
   0  11  -7    4.30    1.20
   0 -11  -7    4.00    1.20
   0 -11  -7    1.20    1.00
   0  11  -7    4.10    0.90
   1  11  -7    0.20    0.90
  -1  11   7    1.60    0.80
  -1 -11  -7    0.00    0.70
  -1 -11  -7    0.20    0.90
   1  11  -7    0.50    1.00
  -1 -11  -7    1.30    0.90
   1  11  -7    1.70    1.10
   1 -11   7    0.90    1.00
   1 -11   7    2.20    1.00
   1 -11   7    0.00    0.70
   1 -11  -7    0.60    0.90
  -1 -11   7    1.50    1.10
   1 -11  -7    0.20    0.90
  -1  11  -7    1.10    0.80
  -1  11  -7    2.70    1.20
  -1 -11   7    2.80    1.00
  -1 -11   7    0.90    0.80
   1  11   7    1.10    0.80
   1 -11  -7    0.50    0.90
  -2 -11  -7   27.90    2.30
   2 -11   7   27.10    2.20
  -2 -11  -7   24.70    1.70
  -2  11   7   28.20    1.80
   2  11  -7   27.50    2.20
   2 -11   7   23.30    1.90
   2  11  -7   22.50    2.20
   2  11  -7   25.80    2.10
   2 -11   7   24.90    2.30
  -2 -11  -7   27.60    2.20
   2 -11  -7   25.70    2.10
  -2 -11   7   24.10    2.60
  -2  11  -7   25.90    1.90
   2 -11  -7   23.00    2.10
   2 -11  -7   25.90    2.20
  -2 -11   7   25.20    2.10
   2  11   7   20.50    1.90
  -2  11  -7   18.60    2.10
   3  11  -7   11.00    1.90
   3 -11   7   15.50    1.70
   3 -11   7   14.60    2.10
   3  11  -7   11.60    1.70
   3  11  -7   13.90    1.80
  -3 -11  -7   14.90    1.90
  -3 -11  -7   14.90    1.90
  -3  11   7   13.10    1.50
   3 -11   7   16.30    2.00
   3 -11  -7   14.10    1.80
   3  11   7   11.70    1.60
   3 -11  -7   14.30    1.80
  -3 -11   7   12.20    1.90
  -3 -11   7   16.70    1.90
  -3  11  -7   14.60    1.60
   3 -11  -7   15.30    1.90
  -3  11  -7   15.30    2.20
  -4 -11  -7   20.50    2.20
   4  11  -7   16.30    1.90
  -4 -11  -7   20.30    2.20
   4  11  -7   26.20    2.50
   4 -11   7   22.60    2.40
   4 -11   7   22.00    1.80
   4  11  -7   19.60    2.30
  -4 -11   7   18.40    1.90
   4  11   7   23.10    2.20
   4 -11  -7   21.10    2.10
   4 -11  -7   21.60    2.10
  -4  11  -7   18.20    1.90
  -4  11  -7   22.30    2.50
   4 -11  -7   21.60    2.30
  -4 -11   7   18.80    2.40
   5 -11   7  122.59    5.10
   5  11  -7  136.19    5.30
   5  11  -7  130.59    4.90
  -5 -11  -7  126.39    4.90
   5  11  -7  130.69    4.80
   5 -11   7  139.69    4.20
   5 -11  -7  141.59    4.80
   5  11   7  130.49    4.60
   5 -11  -7  141.19    5.00
  -5 -11   7  132.59    4.70
  -5  11  -7  137.49    5.40
  -5  11  -7  130.89    4.50
  -5 -11   7  124.89    5.10
   5 -11  -7  127.39    4.70
  -6 -11  -7    4.10    1.50
   6  11  -7    2.70    1.40
   6  11  -7    3.30    1.50
   6 -11   7    2.20    1.40
  -6  11  -7    3.10    1.40
   6 -11  -7    4.40    1.50
   6  11   7    3.20    1.30
  -6 -11   7    2.80    1.50
  -6 -11   7    2.60    1.30
   6 -11  -7    3.30    1.40
   6 -11  -7    2.00    1.40
   6 -11  -7    1.50    1.30
   7  11  -7   17.60    2.00
   7  11  -7   21.30    2.50
  -7 -11  -7   20.50    2.50
   7  11  -7   21.40    2.50
   7 -11   7   19.20    2.80
   7 -11  -7   16.00    2.20
  -7  11  -7   16.50    2.30
   7 -11  -7   19.90    2.50
   7 -11  -7   21.30    2.50
  -7 -11   7   20.80    2.60
   7  11   7   22.40    2.40
   8  11  -7   13.10    2.30
   8  11   7   10.70    1.80
   8 -11  -7   15.10    2.20
   0 -12  -7   -0.30    0.90
   0  12  -7    0.30    1.00
   0 -12   7    0.80    1.20
   0 -12  -7    0.50    1.00
   0 -12   7    0.60    0.80
   0  12   7   -0.30    0.70
   0 -12  -7   -0.60    0.80
   0 -12   7   -1.50    0.70
   1  12  -7   58.19    3.40
   1  12  -7   47.90    2.60
   1 -12   7   45.70    3.10
   1 -12   7   50.29    2.70
   1  12  -7   48.50    2.70
   1 -12   7   46.40    2.80
  -1 -12  -7   48.10    2.90
  -1  12   7   49.90    2.50
  -1 -12  -7   49.00    2.40
  -1 -12  -7   50.29    3.00
  -1 -12   7   47.60    2.60
   1 -12  -7   47.70    2.80
  -1  12  -7   49.80    3.30
  -1 -12   7   50.19    3.30
   1 -12  -7   49.00    2.70
  -1 -12   7   51.19    2.80
   1 -12  -7   51.49    2.70
   1  12   7   52.89    2.70
   2  12  -7    3.10    1.30
   2  12  -7    4.70    1.30
  -2 -12  -7    4.30    1.40
   2 -12   7    2.40    1.30
  -2  12   7    3.70    1.00
  -2 -12  -7    4.20    1.10
   2  12  -7    3.20    1.20
   2 -12   7    3.60    1.30
   2 -12   7    3.90    1.10
  -2 -12  -7    5.00    1.40
  -2 -12   7    4.00    1.30
   2 -12  -7    3.50    1.20
  -2  12  -7    2.20    1.30
  -2 -12   7    3.50    1.50
   2 -12  -7    3.60    1.10
   2  12   7    4.00    1.20
  -2  12  -7    4.60    1.00
   2 -12  -7    2.40    1.20
   3  12  -7   68.79    3.30
  -3 -12  -7   63.79    3.40
   3 -12   7   61.79    3.50
   3 -12   7   72.79    3.20
  -3 -12  -7   63.49    3.40
   3  12  -7   63.49    3.30
   3 -12   7   65.19    3.50
   3  12  -7   69.89    3.80
   3 -12  -7   68.59    3.30
  -3 -12   7   62.79    3.20
   3 -12  -7   64.69    3.40
  -3  12  -7   66.29    2.90
   3  12   7   72.49    3.30
   3 -12  -7   73.69    3.60
  -3 -12   7   66.49    3.80
  -3  12  -7   63.99    3.80
   4  12  -7   93.19    4.50
  -4 -12  -7   97.89    4.30
   4  12  -7   95.09    4.20
   4 -12   7   98.09    4.50
  -4 -12  -7   92.79    4.10
   4 -12   7  104.49    3.80
   4  12  -7  100.69    4.10
  -4  12  -7  102.09    3.80
   4 -12  -7   96.39    4.20
  -4  12  -7   93.39    4.60
   4  12   7   97.99    4.00
   4 -12  -7  104.99    4.10
  -4 -12   7   99.79    4.10
  -4 -12   7   99.89    4.70
   4 -12  -7   89.89    4.10
  -5 -12  -7   50.09    3.40
  -5 -12  -7   50.39    3.20
   5  12  -7   53.39    3.30
   5  12  -7   55.19    3.30
   5 -12   7   50.99    3.50
   5 -12   7   51.39    2.70
   5  12   7   54.39    3.10
  -5  12  -7   51.59    5.30
   5 -12  -7   47.20    3.10
  -5  12  -7   44.30    2.80
  -5 -12   7   50.19    3.10
  -5 -12   7   49.30    3.50
   5 -12  -7   53.79    3.20
   5 -12  -7   48.70    3.00
  -6 -12  -7   -0.30    1.00
  -6 -12  -7    0.70    1.20
   6  12  -7    4.00    1.50
   6  12  -7    1.00    1.20
   6 -12   7    2.10    1.30
   6  12  -7    4.40    1.60
   6  12   7    2.40    1.30
  -6  12  -7    3.30    1.40
  -6 -12   7    3.10    1.60
   6 -12  -7    2.90    1.40
   6 -12  -7    3.60    1.50
  -6 -12   7    1.60    1.20
   6 -12  -7    3.30    1.50
   6 -12  -7    3.00    1.50
   7  12  -7   37.20    2.70
   7  12  -7   39.40    3.20
  -7 -12  -7   36.20    3.00
   7 -12  -7   42.20    3.20
  -7  12  -7   43.10    3.30
  -7 -12   7   36.60    3.20
   7  12   7   37.50    2.90
   0  13  -7   24.20    2.70
   0 -13  -7   25.50    2.50
   0 -13   7   22.60    2.70
   0 -13  -7   23.60    2.10
   0 -13   7   25.60    2.40
   0 -13  -7   23.40    2.40
   0 -13   7   21.80    2.10
   0  13   7   19.70    2.00
   1 -13   7    0.10    0.90
  -1 -13  -7   -0.90    0.80
  -1 -13  -7    0.00    1.00
   1 -13   7   -0.90    1.00
   1  13  -7   -0.40    1.00
  -1  13   7    0.60    0.90
  -1 -13  -7    0.80    1.00
   1 -13   7    0.90    0.90
  -1 -13   7    0.30    0.80
   1 -13  -7    0.40    1.10
   1  13   7   -0.60    0.70
   1 -13  -7    0.10    1.00
   1 -13  -7    1.10    1.00
   1 -13  -7    0.90    1.10
  -1 -13   7    1.30    1.00
  -1  13  -7   -0.20    1.10
  -1 -13   7    1.10    1.30
  -2 -13  -7   71.99    3.70
  -2  13   7   76.99    3.10
   2  13  -7   73.69    3.30
   2 -13   7   76.89    3.40
  -2 -13  -7   72.89    3.00
   2  13  -7   73.49    4.00
   2 -13   7   73.29    4.00
   2 -13   7   67.99    3.60
  -2 -13  -7   81.69    3.90
   2  13  -7   74.09    3.60
   2  13   7   72.99    3.30
   2 -13  -7   64.39    3.50
   2 -13  -7   75.49    3.80
   2 -13  -7   81.79    3.50
  -2 -13   7   75.99    3.60
  -2 -13   7   83.79    4.40
  -2  13  -7   82.99    4.20
  -3 -13  -7   45.40    3.20
   3  13  -7   39.70    2.70
   3  13  -7   36.50    2.70
   3  13  -7   41.30    3.30
   3 -13   7   37.10    3.00
   3 -13   7   40.90    2.60
   3 -13   7   39.10    2.90
  -3 -13  -7   41.00    3.00
   3 -13  -7   46.80    3.10
   3  13   7   40.10    2.70
  -3 -13   7   43.20    2.80
   3 -13  -7   37.20    2.70
  -3 -13   7   38.70    3.30
   3 -13  -7   39.10    2.80
  -3  13  -7   40.60    3.40
  -4 -13  -7   21.80    2.40
   4 -13   7   28.00    2.20
  -4 -13  -7   28.00    2.90
   4  13  -7   22.60    2.50
   4  13  -7   26.50    2.50
   4 -13   7   24.90    2.70
  -4 -13   7   24.00    2.80
   4 -13  -7   23.40    2.50
   4 -13  -7   28.50    2.70
  -4 -13   7   21.90    2.30
   4  13   7   24.60    2.40
   4 -13  -7   26.70    2.60
  -5 -13  -7   13.00    2.00
   5 -13   7   11.30    1.60
   5 -13   7   10.90    2.10
   5  13  -7   13.70    2.10
   5  13  -7   13.10    2.00
  -5 -13  -7   12.90    2.30
  -5 -13   7    9.40    2.10
   5 -13  -7    9.10    1.80
  -5 -13   7   11.50    2.00
   5 -13  -7   12.80    2.10
   5 -13  -7   13.70    2.00
   5  13   7   12.80    2.00
   6 -13   7    8.40    2.20
   6  13  -7   12.40    1.90
   6  13  -7   11.60    2.00
   6  13  -7   15.00    2.40
  -6 -13  -7   11.10    2.10
  -6 -13  -7   10.60    2.60
  -6 -13   7   11.60    2.00
  -6  13  -7   12.70    2.10
   6 -13  -7   11.20    2.20
  -6 -13   7   12.10    2.30
   6 -13  -7   13.20    2.20
   6 -13  -7   13.90    2.60
   6  13   7   12.50    2.00
   0 -14  -7    5.00    1.60
   0 -14   7    5.90    1.40
   0  14  -7    5.30    1.80
   0 -14  -7    4.70    1.50
   0 -14   7    4.20    1.70
   0 -14  -7    4.40    1.30
   0  14   7    5.80    1.30
   0 -14   7    5.30    1.40
   1  14  -7   54.89    3.80
  -1  14   7   52.19    2.80
  -1 -14  -7   54.79    3.30
   1 -14   7   54.99    3.20
   1 -14   7   50.39    3.50
  -1 -14  -7   48.90    3.20
  -1 -14  -7   53.09    2.80
   1 -14   7   52.09    3.00
   1 -14  -7   55.99    3.00
  -1 -14   7   49.80    3.10
  -1  14  -7   50.59    3.60
   1 -14  -7   50.49    3.10
   1  14   7   52.59    2.90
   1 -14  -7   46.50    3.10
  -1 -14   7   52.99    3.70
  -2  14   7    2.60    1.00
  -2 -14  -7    1.50    1.40
   2 -14   7    2.90    1.50
  -2 -14  -7    2.00    1.20
   2  14  -7    0.10    1.10
   2 -14   7    1.60    1.10
   2 -14   7    0.80    1.10
   2 -14  -7    3.10    1.10
  -2  14  -7    1.20    1.70
   2  14   7    2.70    1.20
  -2 -14   7    3.10    1.50
  -2 -14   7    0.30    1.10
   2 -14  -7    1.70    1.30
   2 -14  -7    2.00    1.30
   3 -14   7    2.30    1.20
   3 -14   7    1.40    1.40
  -3 -14  -7    2.70    1.60
   3  14  -7    2.50    1.30
   3 -14   7    2.50    1.30
   3  14  -7    0.70    1.10
  -3 -14  -7    2.10    1.30
   3  14   7    0.90    1.00
  -3 -14   7    0.40    1.20
   3 -14  -7    2.40    1.40
   3 -14  -7    3.00    1.30
  -3 -14   7    2.30    1.40
   3 -14  -7    4.40    1.50
   4  14  -7   56.09    3.30
   4 -14   7   49.20    3.50
  -4 -14  -7   57.19    3.60
  -4 -14  -7   55.69    3.50
   4  14  -7   44.60    3.30
   4 -14   7   49.80    3.00
   4 -14  -7   53.89    3.50
   4 -14  -7   56.79    3.40
   4  14   7   56.59    3.30
  -4 -14   7   49.80    3.80
  -4 -14   7   53.59    3.30
   4 -14  -7   49.40    3.30
   5 -14   7   49.00    3.00
   5 -14   7   49.60    3.80
   5  14  -7   50.39    3.30
   5  14  -7   50.49    3.50
  -5 -14  -7   55.79    5.20
   5  14  -7   58.09    3.40
  -5 -14  -7   51.19    3.40
  -5 -14   7   49.60    3.30
  -5 -14   7   47.20    3.80
   5 -14  -7   48.50    3.50
   5  14   7   49.40    3.10
   5 -14  -7   50.09    5.20
   5 -14  -7   57.59    3.50
   0 -15   7    4.50    1.70
   0 -15   7    2.80    1.30
   0  15   7    1.70    1.20
   0 -15  -7    5.60    1.50
   0 -15  -7    5.40    1.70
   0 -15   7    2.30    1.30
   0 -15  -7    6.60    1.50
   1 -15   7   35.40    3.20
  -1 -15  -7   36.60    2.60
  -1 -15  -7   33.30    3.00
  -1  15   7   38.40    2.60
  -1 -15  -7   39.20    3.10
   1 -15   7   36.80    2.90
   1 -15   7   36.90    2.80
   1 -15  -7   42.20    3.20
   1 -15  -7   36.70    2.90
  -1 -15   7   40.00    3.50
   1 -15  -7   40.00    2.80
  -1 -15   7   39.90    2.90
   1  15   7   37.50    2.70
  -2 -15  -7   22.20    2.70
   2 -15   7   19.00    2.50
   2 -15   7   19.80    2.60
  -2 -15  -7   17.50    2.30
   2 -15   7   21.70    2.40
   2 -15  -7   20.60    2.30
   2  15   7   22.90    2.40
   2 -15  -7   20.10    2.40
  -2 -15   7   20.50    2.80
  -2 -15   7   19.30    2.30
   2 -15  -7   14.30    2.10
   3  15  -7   23.10    2.70
  -3 -15  -7   23.90    2.80
   3 -15   7   24.50    2.90
   3 -15   7   23.00    2.80
  -3 -15  -7   21.50    2.70
   3 -15   7   19.80    2.30
   3 -15  -7   22.00    2.50
   3 -15  -7   23.40    2.60
   3  15   7   19.30    2.30
   3 -15  -7   24.00    2.80
  -3 -15   7   19.80    2.40
  -3 -15   7   19.70    2.80
   4 -15   7   29.60    2.50
   4  15  -7   25.20    2.60
   4 -15  -7   35.80    3.10
   4 -15  -7   28.20    3.50
  -4 -15   7   29.30    2.80
   4  15   7   28.90    2.80
   0 -16   7    1.70    1.60
   0 -16  -7    0.80    2.40
   0 -16  -7    2.30    1.30
   0  16   7    1.70    1.10
   0 -16  -7    2.30    2.00
   0 -16   7    1.10    1.30
  -1 -16  -7   21.00    2.30
  -1  16   7   24.60    2.30
   1 -16   7   18.10    2.30
   1 -16   7   20.80    3.00
   1 -16   7   24.50    2.70
  -1 -16  -7   24.20    2.90
  -1 -16   7   17.90    2.30
   1  16   7   21.40    2.40
   1 -16  -7   21.10    2.40
  -2 -16  -7   51.69    6.00
   2 -16   7   46.30    3.10
   2 -16   7   43.60    3.30
   2 -16   7   48.90    3.90
   2  16   7   48.80    3.20
   2 -16  -7   51.89    3.40
  -2 -16   7   50.29    3.40
   0   0   8    0.40    0.50
   0   0  -8    0.50    0.40
   0   0  -8    0.40    0.40
   0   0  -8    0.60    0.60
   1   0  -8  263.97    4.40
  -1   0  -8  261.97    4.80
  -1   0  -8  263.67    4.30
   1   0   8  257.67    5.20
   1   0  -8  255.97    5.70
   1   0  -8  263.47    5.00
  -1   0  -8  257.47    5.30
   1   0  -8  260.07    4.60
   2   0  -8  170.88    4.40
   2   0   8  168.88    3.90
   2   0  -8  169.18    3.90
   2   0  -8  168.28    3.30
  -2   0  -8  169.78    4.00
  -2   0  -8  164.58    3.70
   2   0  -8  167.48    3.40
  -3   0  -8  775.52   12.70
  -3   0  -8  775.12   13.00
   3   0   8  779.42   12.80
   3   0  -8  778.32   13.40
   3   0  -8  755.12   13.20
   3   0  -8  785.12   12.10
   3   0  -8  766.92   12.90
   3   0  -8  775.92   12.20
   4   0  -8   69.29    2.80
   4   0   8   68.29    2.50
  -4   0  -8   68.49    2.60
   4   0  -8   72.59    2.20
   4   0  -8   76.09    2.80
  -4   0  -8   67.19    2.60
   4   0   8   69.89    2.40
   4   0  -8   74.39    2.90
   4   0  -8   69.49    2.30
   5   0  -8   16.40    1.70
   5   0   8   16.60    1.60
  -5   0  -8   17.30    1.60
   5   0  -8   16.90    1.30
   5   0  -8   14.50    1.50
   5   0   8   14.00    1.30
   5   0  -8   16.00    1.30
   5   0   8   14.80    1.40
  -5   0  -8   16.90    1.60
   5   0  -8   18.10    1.80
   6   0   8    0.70    0.70
  -6   0  -8    0.80    0.80
   6   0  -8    0.20    1.00
  -6   0  -8    0.10    0.80
   6   0  -8    0.40    0.90
   6   0  -8    1.30    0.90
   6   0   8    0.70    0.70
   6   0   8    0.70    0.70
   6   0   8    1.30    0.90
   6   0  -8    0.40    0.70
   6   0  -8    0.90    0.70
   7   0  -8    0.40    0.80
   7   0  -8    2.40    1.00
   7   0  -8    1.20    1.10
   7   0   8    3.30    1.00
   7   0  -8    0.00    1.10
  -7   0  -8    0.70    1.00
   7   0   8    0.20    0.90
   7   0   8    0.20    0.80
   7   0  -8   -0.50    0.70
   8   0  -8    6.50    1.50
   8   0  -8    9.40    1.50
  -8   0  -8    8.40    1.60
   8   0  -8    7.10    1.50
   8   0   8    8.80    1.50
  -8   0  -8    7.70    1.30
   8   0  -8   11.00    1.70
   8   0  -8    7.80    1.40
   8   0   8    9.10    1.50
   9   0  -8    3.50    1.50
   9   0  -8    4.30    1.40
   9   0   8    2.90    1.20
  -9   0  -8    3.80    1.40
   9   0   8    5.10    1.40
   9   0  -8    6.60    1.40
   9   0  -8    4.20    1.50
 -10   0  -8    0.10    1.50
  10   0  -8    0.90    1.30
  10   0  -8    0.40    1.40
  10   0   8    2.50    1.40
  10   0  -8    3.40    1.40
  10   0   8   -0.70    1.00
   0   1   8   74.59    2.30
   0  -1  -8   70.39    2.40
   0   1  -8   77.89    2.50
   0  -1  -8   77.59    2.00
   0   1  -8   76.09    1.90
   0  -1  -8   76.69    1.70
   0   1  -8   75.49    2.10
   0   1  -8   78.39    1.50
  -1   1   8  478.15    8.30
   1   1  -8  477.15    8.10
   1   1  -8  482.95    8.00
  -1  -1  -8  479.15    8.50
  -1  -1  -8  490.65    7.60
   1   1  -8  475.65    9.00
   1   1  -8  481.65    7.30
  -1  -1  -8  485.25    7.70
   1   1   8  477.75    8.40
  -1   1  -8  491.55    8.20
   1  -1  -8  479.15    7.40
   1  -1  -8  480.65    7.80
  -1   1  -8  488.65    7.40
  -1   1  -8  467.35    8.60
   1  -1  -8  486.05    8.20
   2   1  -8   16.80    1.10
   2   1  -8   16.90    1.20
  -2  -1  -8   16.70    0.60
   2   1  -8   15.90    1.50
  -2  -1  -8   17.10    1.30
   2   1  -8   17.40    0.80
  -2  -1  -8   15.40    1.00
   2  -1  -8   17.40    1.00
   2  -1  -8   16.00    1.20
  -2   1  -8   16.00    1.20
   2   1   8   17.30    1.20
   2  -1  -8   15.50    0.80
  -2   1  -8   14.40    1.20
   2  -1  -8   13.30    1.40
  -3  -1  -8  233.18    4.90
  -3  -1  -8  236.58    5.20
   3  -1   8  229.38    5.00
   3   1  -8  233.98    5.20
   3   1  -8  242.38    4.80
   3   1  -8  243.98    5.70
   3   1  -8  238.48    4.40
   3   1  -8  232.88    5.50
   3  -1   8  244.78    4.70
  -3   1  -8  234.88    5.30
   3  -1  -8  233.28    5.20
   3  -1  -8  245.28    4.10
   3  -1  -8  244.08    4.70
   3  -1  -8  229.18    5.30
   3  -1  -8  243.38    5.50
  -3   1  -8  237.88    5.20
   3   1   8  239.38    5.10
   3  -1  -8  236.28    4.40
   4   1  -8  166.78    4.50
  -4  -1  -8  166.58    4.20
   4   1  -8  160.88    3.90
   4  -1   8  167.38    4.00
   4   1  -8  159.08    4.40
  -4  -1  -8  161.38    4.20
   4   1  -8  161.48    4.30
   4  -1   8  169.88    3.90
   4   1  -8  169.28    3.60
   4   1   8  163.18    4.10
  -4   1  -8  165.18    4.30
   4  -1  -8  157.18    4.30
   4  -1  -8  161.38    4.40
   4  -1  -8  162.58    4.40
   4   1   8  165.28    3.90
   4  -1  -8  166.48    3.80
   4  -1  -8  165.88    3.70
  -4   1  -8  169.78    4.40
   5   1  -8  157.48    4.50
  -5  -1  -8  155.68    4.40
   5   1  -8  158.88    3.80
   5   1  -8  156.18    4.10
   5   1  -8  149.59    4.40
   5  -1   8  150.88    4.00
   5   1  -8  161.18    4.50
   5  -1   8  154.08    4.20
  -5  -1  -8  158.18    4.20
   5  -1  -8  159.78    3.90
   5   1   8  161.58    4.10
   5  -1  -8  155.88    4.30
   5  -1  -8  151.08    4.30
   5   1   8  162.18    4.10
  -5   1  -8  161.38    4.60
   5  -1  -8  164.68    4.00
   5   1   8  155.48    4.20
  -5   1  -8  159.18    4.40
   5   1   8  159.48    4.20
   5  -1  -8  158.48    4.50
   6  -1   8   24.40    1.80
   6  -1   8   25.00    1.70
   6   1  -8   25.00    2.10
   6   1  -8   26.50    2.10
   6   1  -8   23.70    1.60
   6   1  -8   24.00    1.80
  -6  -1  -8   25.50    1.90
   6   1  -8   23.80    2.00
  -6   1  -8   23.60    1.90
   6  -1  -8   23.10    1.70
   6  -1  -8   22.30    2.00
   6   1   8   23.20    1.80
   6  -1  -8   21.80    1.90
  -6   1  -8   23.30    2.10
   6  -1  -8   27.90    2.10
   6   1   8   22.50    1.70
   6   1   8   22.90    1.70
   6  -1  -8   22.90    1.60
   7   1  -8  121.69    4.40
   7   1  -8  131.69    4.20
   7   1  -8  117.79    4.10
   7  -1   8  123.99    4.00
   7   1  -8  124.49    4.20
   7  -1   8  128.09    4.20
   7   1  -8  124.99    3.90
  -7  -1  -8  121.09    4.00
   7   1   8  118.39    4.00
   7   1   8  125.59    3.70
   7  -1  -8  115.49    4.10
   7  -1  -8  123.19    3.90
   7   1   8  123.09    4.20
  -7   1  -8  114.79    4.10
   7  -1  -8  119.99    3.90
   7  -1  -8  124.49    4.00
   7  -1  -8  123.89    4.40
  -7   1  -8  121.99    4.50
   8   1  -8   47.40    2.70
   8   1  -8   51.79    3.00
   8   1  -8   53.69    3.10
   8  -1   8   53.69    2.90
  -8  -1  -8   52.99    2.80
  -8  -1  -8   50.49    2.90
   8   1  -8   51.09    3.10
   8   1  -8   52.49    2.90
   8  -1   8   53.39    3.00
   8  -1  -8   55.29    2.80
   8  -1  -8   49.70    2.70
   8   1   8   51.19    2.90
   8  -1  -8   49.60    3.00
  -8   1  -8   51.09    3.00
   8   1   8   56.69    3.00
   8  -1  -8   49.10    3.10
   8  -1  -8   49.40    2.70
   9  -1   8   42.70    2.90
  -9  -1  -8   37.50    2.90
   9  -1   8   40.50    2.80
   9   1  -8   34.20    2.60
   9   1  -8   37.70    2.60
   9   1  -8   40.30    3.10
   9   1  -8   35.40    2.80
   9   1   8   39.20    2.80
  -9   1  -8   40.50    3.00
   9  -1  -8   37.00    2.90
   9   1   8   33.90    2.70
   9  -1  -8   43.80    2.80
   9  -1  -8   41.20    2.90
  10  -1   8    1.40    1.30
  10  -1   8    4.50    1.50
  10   1  -8    5.40    1.40
 -10  -1  -8    1.80    1.70
  10   1  -8    3.30    1.40
  10   1  -8    1.90    1.40
  10  -1  -8    0.00    1.30
  10  -1  -8    2.30    1.40
  10   1   8    2.60    1.30
  10   1   8    1.50    1.30
  10  -1  -8   -0.50    1.30
 -10   1  -8    2.10    1.60
   0   2  -8  320.07    5.50
   0  -2  -8  324.77    5.70
   0   2  -8  317.87    6.30
   0   2  -8  311.37    5.90
   0  -2   8  318.77    5.80
   0  -2  -8  317.97    6.10
   0   2   8  320.07    6.10
   1  -2   8  106.59    2.50
   1   2  -8  106.69    2.70
  -1   2   8  108.49    2.80
   1   2  -8  111.29    3.40
   1   2  -8  108.39    2.80
  -1  -2  -8  108.09    2.90
  -1  -2  -8  107.89    2.20
  -1   2  -8  109.49    2.90
  -1   2  -8  108.29    3.10
   1  -2  -8  107.99    2.60
  -1   2  -8  106.29    2.10
   1   2   8  107.09    1.90
   1  -2  -8  106.89    2.80
   2   2  -8  305.37    5.80
  -2  -2  -8  298.57    5.90
   2  -2   8  302.67    5.20
  -2  -2  -8  306.07    5.40
   2   2  -8  292.07    6.50
   2   2  -8  307.07    5.90
   2  -2   8  311.67    6.30
  -2   2   8  297.67    5.60
   2   2  -8  308.07    4.80
  -2   2  -8  294.97    6.20
   2  -2  -8  306.57    6.30
   2   2   8  300.27    6.00
  -2   2  -8  305.17    6.00
   2  -2  -8  310.17    5.40
   2  -2  -8  305.07    5.60
   2  -2  -8  298.67    4.80
   2  -2  -8  300.77    6.00
   2  -2  -8  301.57    4.80
   3  -2   8  611.74    9.30
   3   2  -8  599.44   11.10
  -3  -2  -8  608.34   10.20
  -3  -2  -8  595.94   10.40
   3   2  -8  614.74   10.40
   3  -2   8  609.34   11.00
   3   2  -8  598.04   10.90
   3   2  -8  613.94   10.70
   3   2  -8  620.44    9.50
   3  -2   8  639.24    9.90
  -3   2  -8  608.74   10.80
   3  -2  -8  620.94    9.60
   3  -2  -8  617.74   10.20
  -3   2  -8  611.94   10.80
   3  -2  -8  618.04   10.90
   3  -2  -8  583.54   10.70
   3  -2  -8  591.04   10.80
   3   2   8  616.64    9.80
   3   2   8  608.74   10.60
   3  -2  -8  615.84    9.60
   4   2  -8  105.69    2.60
   4   2  -8  100.29    3.50
   4   2  -8  100.79    3.40
   4   2  -8  106.09    3.40
  -4  -2  -8  107.29    3.20
   4  -2   8  106.79    3.60
   4  -2   8  104.19    2.80
   4   2  -8  103.09    3.10
  -4   2  -8   99.79    3.40
   4   2   8  109.49    2.90
   4  -2  -8  104.09    3.40
   4  -2  -8  100.19    2.90
  -4   2  -8  105.49    3.30
   4   2   8  104.09    3.20
   4  -2  -8  102.69    2.60
   4  -2  -8  103.29    3.30
   4  -2  -8  100.79    3.30
  -5  -2  -8  146.99    4.00
   5  -2   8  147.49    4.10
   5   2  -8  145.59    4.30
   5   2  -8  147.89    4.40
   5  -2   8  153.18    3.80
   5   2  -8  151.58    3.60
   5   2  -8  145.59    4.00
   5   2  -8  149.09    4.30
   5   2   8  147.79    4.00
   5   2   8  154.08    4.00
   5  -2  -8  149.88    4.10
   5  -2  -8  142.89    4.30
  -5   2  -8  142.69    4.40
   5  -2  -8  142.79    4.10
   5  -2  -8  149.39    3.60
  -5   2  -8  142.39    4.20
   5  -2  -8  146.49    3.90
   6  -2   8  155.08    4.20
  -6  -2  -8  149.99    4.20
   6   2  -8  152.98    4.60
   6   2  -8  151.18    4.60
   6   2  -8  157.88    4.00
   6   2  -8  150.98    4.70
   6  -2   8  152.68    4.40
   6   2  -8  150.48    4.40
  -6   2  -8  147.29    4.70
   6  -2  -8  151.78    4.70
   6   2   8  147.69    4.40
   6   2   8  151.58    4.30
   6  -2  -8  150.98    4.20
   6  -2  -8  149.88    4.50
   6   2   8  156.88    4.20
   6  -2  -8  151.98    4.20
  -6   2  -8  153.68    4.60
   6  -2  -8  148.39    3.90
   7   2  -8   55.69    3.00
  -7  -2  -8   55.09    2.80
   7   2  -8   58.09    3.10
  -7  -2  -8   62.59    2.90
   7   2  -8   55.99    2.80
   7  -2   8   56.19    2.70
   7  -2   8   56.99    2.90
   7   2  -8   60.49    2.70
   7   2  -8   55.49    3.00
   7  -2  -8   56.59    3.00
   7  -2  -8   57.69    2.60
  -7   2  -8   56.89    3.00
   7  -2  -8   57.79    2.60
   7  -2  -8   59.59    3.00
   7  -2  -8   56.59    2.70
  -7   2  -8   60.99    3.30
   7   2   8   59.19    2.70
   7   2   8   58.19    2.60
   7   2   8   55.79    2.80
  -8  -2  -8  118.79    4.20
   8   2  -8  117.69    4.30
   8   2  -8  118.09    4.00
   8   2  -8  113.89    4.50
   8   2  -8  107.39    4.20
  -8  -2  -8  117.79    4.10
   8  -2   8  103.09    4.00
   8  -2   8  113.59    4.20
   8   2  -8  108.69    4.20
   8  -2  -8  111.19    4.20
  -8   2  -8  110.59    4.70
   8   2   8  112.89    4.30
   8   2   8  115.09    4.20
   8  -2  -8  117.89    4.00
  -8   2  -8  104.89    4.30
   8  -2  -8  115.39    4.60
   8  -2  -8  113.59    4.10
   9   2  -8   17.70    3.30
   9  -2   8   15.90    2.00
   9   2  -8   14.90    2.00
  -9  -2  -8   13.60    2.10
   9   2  -8   15.60    2.10
   9  -2   8   14.50    2.00
   9   2  -8   14.20    2.10
  -9   2  -8   16.00    2.30
   9  -2  -8   10.80    1.90
   9   2   8   16.00    2.10
   9  -2  -8   15.50    2.10
   9  -2  -8   17.70    2.10
   9   2   8   14.90    2.00
  10   2  -8   42.80    3.10
  10  -2   8   33.60    2.90
  10   2  -8   38.10    3.20
  10   2  -8   35.40    2.80
  10  -2   8   37.70    2.90
  10   2   8   34.20    3.00
  10  -2  -8   37.40    3.10
  10  -2  -8   36.80    2.90
  10   2   8   37.80    2.80
 -10   2  -8   34.70    3.30
  10  -2  -8   44.10    3.20
   0   3  -8  598.74   10.60
   0   3  -8  602.24   11.10
   0   3  -8  619.14   10.50
   0  -3   8  647.74   10.30
   0   3   8  639.74   10.50
   0   3  -8  629.04    9.90
   0  -3   8  620.84   10.20
  -1   3   8  524.95    8.90
   1   3  -8  530.25    9.30
   1  -3   8  516.05    8.60
   1   3  -8  537.05    9.90
  -1  -3  -8  528.15    9.00
   1   3  -8  528.15    8.80
   1   3  -8  527.35    9.10
   1  -3   8  516.95    9.20
   1   3   8  520.15    9.10
  -1  -3   8  518.35    8.90
  -1   3  -8  516.05    9.30
  -1   3  -8  527.95    8.10
  -1   3  -8  515.35    9.20
  -2  -3  -8   94.59    2.70
   2   3  -8   96.19    2.80
  -2  -3  -8   94.69    2.00
   2  -3   8   95.09    3.00
  -2   3   8   97.09    2.60
   2   3  -8   92.99    2.70
   2  -3   8   97.09    2.30
  -2   3  -8   93.09    3.00
   2   3   8   91.49    2.80
   2  -3  -8   91.39    2.90
   2  -3  -8   96.39    2.50
  -2   3  -8   96.89    3.00
  -2  -3   8   95.69    2.80
   2  -3  -8   93.09    2.80
  -2  -3   8   96.09    3.10
   2  -3  -8   97.39    2.60
   2   3   8   98.49    2.00
  -3  -3  -8  210.68    4.50
   3   3  -8  204.28    4.80
   3  -3   8  208.18    4.00
   3   3  -8  204.38    4.70
   3   3  -8  206.08    3.70
  -3   3   8  203.48    4.10
   3  -3   8  205.28    5.10
   3   3  -8  193.98    5.10
   3   3  -8  199.58    5.00
   3  -3   8  200.08    3.70
   3   3   8  206.08    4.70
   3  -3  -8  209.38    4.90
  -3  -3   8  202.88    4.80
   3  -3  -8  207.78    4.10
   3   3   8  205.58    4.10
   3  -3  -8  196.78    4.40
   3  -3  -8  200.98    4.80
  -3   3  -8  204.28    5.00
  -3   3  -8  198.78    4.90
   3  -3  -8  207.28    4.90
   3  -3  -8  208.28    3.70
   4   3  -8  257.57    4.80
   4   3  -8  258.17    5.90
   4  -3   8  249.38    5.00
   4   3  -8  248.08    6.00
   4   3  -8  253.47    5.60
  -4  -3  -8  248.58    5.40
   4  -3   8  251.57    6.10
   4  -3  -8  270.67    4.80
   4  -3  -8  250.67    4.70
  -4   3  -8  256.77    6.00
  -4   3  -8  249.48    5.80
   4  -3  -8  249.97    5.40
  -4  -3   8  253.57    5.60
   4   3   8  260.87    5.60
   4  -3  -8  254.37    5.70
   4  -3  -8  255.37    5.60
   4  -3  -8  244.88    5.80
   5   3  -8   35.70    2.20
   5  -3   8   37.10    1.80
   5   3  -8   34.40    2.20
   5   3  -8   34.30    2.00
   5  -3   8   35.50    2.30
   5   3  -8   39.10    2.50
   5  -3   8   38.20    2.00
  -5  -3  -8   35.40    1.80
   5   3  -8   37.00    1.70
   5  -3  -8   35.20    1.90
  -5  -3   8   36.70    1.90
   5  -3  -8   35.60    2.00
   5  -3  -8   37.80    2.20
   5  -3  -8   36.70    2.20
   5  -3  -8   36.20    1.60
  -5   3  -8   32.30    2.00
  -5   3  -8   37.00    2.30
   5   3   8   35.10    1.90
   5   3   8   34.40    2.00
   6   3  -8   51.69    2.20
   6   3  -8   54.39    2.80
   6  -3   8   52.89    3.00
  -6  -3  -8   53.69    2.70
  -6  -3  -8   51.99    2.40
   6   3  -8   54.59    2.80
   6  -3   8   55.79    2.40
   6   3  -8   51.09    2.80
   6  -3   8   57.69    2.70
   6   3  -8   51.19    2.60
  -6   3  -8   55.99    3.00
   6  -3  -8   51.79    2.80
   6   3   8   54.29    2.40
   6  -3  -8   51.99    2.40
   6   3   8   52.49    2.40
   6  -3  -8   54.19    2.50
  -6   3  -8   48.20    2.60
   6  -3  -8   50.99    2.20
  -7  -3  -8   76.99    3.10
   7  -3   8   76.59    3.10
   7   3  -8   74.29    3.30
   7   3  -8   74.39    3.40
  -7  -3  -8   76.29    3.30
   7   3  -8   74.39    3.40
   7   3  -8   71.59    3.40
   7   3  -8   77.19    3.00
   7  -3   8   72.99    3.20
  -7   3  -8   76.39    3.70
   7   3   8   73.39    2.90
  -7   3  -8   74.19    3.40
   7  -3  -8   78.19    3.20
   7  -3  -8   76.59    3.30
   7  -3  -8   72.99    3.40
   7   3   8   76.89    3.10
   7  -3  -8   75.89    2.90
   8  -3   8   39.10    2.50
   8   3  -8   39.80    2.80
   8   3  -8   39.30    2.90
   8   3  -8   39.60    2.90
  -8  -3  -8   35.80    2.50
   8  -3   8   43.50    2.80
   8   3  -8   41.90    2.80
  -8  -3  -8   33.90    2.40
   8  -3  -8   43.60    2.50
  -8   3  -8   37.80    2.80
   8  -3  -8   36.10    2.60
   8  -3  -8   41.20    2.80
   8  -3  -8   43.80    2.70
  -8   3  -8   40.60    3.10
   8   3   8   36.40    2.70
   8   3   8   43.50    2.60
  -9  -3  -8    8.60    1.60
   9   3  -8    6.80    1.70
   9   3  -8   10.50    1.80
   9   3  -8    7.00    1.80
   9  -3   8    9.90    1.80
   9  -3   8    6.40    1.40
   9  -3  -8    9.70    1.80
   9   3   8    6.40    1.40
  -9   3  -8    8.80    1.90
   9  -3  -8   10.00    1.70
   9   3   8    8.50    1.80
   9  -3  -8    8.50    1.70
  10   3  -8   20.70    2.40
  10  -3   8   16.30    2.30
  10   3  -8   21.30    2.50
  10  -3   8   16.50    2.30
  10   3   8   12.90    1.90
  10  -3  -8   15.00    2.80
  10  -3  -8   16.50    2.20
  10  -3  -8   19.70    2.40
   0   4  -8  468.75    8.70
   0  -4   8  481.35    8.30
   0   4  -8  465.45    9.10
   0   4  -8  480.85    7.90
   0   4  -8  484.05    8.70
   0   4   8  487.55    8.50
   0  -4   8  474.85    8.20
   1   4  -8   75.99    2.30
   1  -4   8   75.79    2.50
  -1   4   8   70.39    2.30
   1  -4   8   71.89    2.10
  -1  -4  -8   74.89    2.30
   1   4  -8   77.39    2.60
   1   4  -8   77.19    3.00
   1   4  -8   73.89    2.60
  -1  -4   8   74.39    2.80
  -1   4  -8   77.29    1.90
   1   4   8   72.19    2.50
  -1  -4   8   77.99    2.10
  -1  -4   8   75.79    2.40
  -1   4  -8   75.49    2.60
   2   4  -8    7.50    1.30
   2  -4   8    6.50    0.70
   2   4  -8    8.50    1.10
   2   4  -8    7.40    0.90
  -2  -4  -8    5.90    0.80
  -2  -4  -8    6.20    0.60
  -2   4   8    6.70    0.80
   2  -4   8    8.80    1.20
   2  -4   8    7.80    0.50
   2  -4  -8    8.00    1.10
  -2  -4   8    9.40    1.30
  -2   4  -8    6.80    1.00
   2   4   8    6.60    0.90
   2  -4  -8    7.90    1.10
   2  -4  -8    7.80    0.90
  -2  -4   8    6.30    0.90
  -2   4  -8   10.80    1.20
   2  -4  -8    6.90    0.90
   3  -4   8  115.59    2.60
   3   4  -8  115.59    3.40
   3   4  -8  119.29    3.40
  -3  -4  -8  118.39    3.00
   3   4  -8  116.29    3.60
   3  -4   8  110.99    3.60
   3  -4   8  110.29    2.60
  -3   4   8  115.69    2.80
   3  -4  -8  111.99    3.30
  -3   4  -8  113.99    3.60
   3  -4  -8  114.19    3.20
   3  -4  -8  114.89    2.90
  -3   4  -8  112.19    3.50
  -3  -4   8  109.09    3.50
   3  -4  -8  110.69    3.40
   3  -4  -8  116.19    2.30
   3  -4  -8  118.99    3.30
  -3  -4   8  116.89    3.40
   3  -4  -8  118.29    2.70
   3   4   8  111.49    3.30
  -4  -4  -8   26.90    1.80
  -4  -4  -8   25.30    1.50
   4  -4   8   24.30    1.80
   4   4  -8   28.40    2.10
   4   4  -8   30.50    1.90
   4   4  -8   28.50    1.90
   4   4  -8   25.10    1.90
   4  -4   8   25.20    1.30
   4  -4  -8   26.20    1.70
   4  -4  -8   26.40    1.40
  -4  -4   8   24.50    1.70
   4  -4  -8   29.00    1.70
   4   4   8   24.00    1.70
   4  -4  -8   25.10    1.70
  -4   4  -8   27.30    1.80
   4  -4  -8   22.10    1.70
  -4   4  -8   27.30    2.00
   4  -4  -8   26.00    1.20
   5  -4   8   40.30    2.20
  -5  -4  -8   37.60    1.90
  -5  -4  -8   42.70    2.40
   5   4  -8   39.60    2.50
   5  -4   8   39.90    2.50
   5   4  -8   38.60    2.30
   5   4  -8   38.00    2.30
   5  -4   8   39.50    1.80
   5   4  -8   35.40    2.20
  -5  -4   8   39.00    2.10
   5  -4  -8   34.90    1.90
   5  -4  -8   41.40    2.10
   5  -4  -8   38.70    1.60
  -5   4  -8   38.10    2.50
   5  -4  -8   32.80    2.10
  -5   4  -8   37.60    2.30
   5   4   8   35.60    2.00
   5  -4  -8   35.80    2.20
   6  -4   8   48.90    2.60
   6   4  -8   47.00    2.90
  -6  -4  -8   48.70    2.70
   6  -4   8   49.30    2.30
   6   4  -8   49.10    2.70
   6   4  -8   45.90    2.50
   6  -4   8   51.49    2.90
  -6  -4  -8   43.90    2.10
   6   4  -8   50.99    2.80
   6  -4  -8   47.80    2.50
   6  -4  -8   44.20    2.50
   6   4   8   48.20    2.40
  -6   4  -8   47.80    2.70
   6   4   8   46.00    2.30
  -6   4  -8   47.20    2.90
   6  -4  -8   50.39    2.80
   6  -4  -8   49.99    2.10
   7  -4   8   41.90    2.60
   7  -4   8   35.60    2.80
  -7  -4  -8   39.50    2.30
   7   4  -8   41.50    2.70
  -7  -4  -8   35.10    2.40
   7   4  -8   41.90    2.70
   7   4  -8   43.20    2.90
   7  -4   8   38.30    2.20
   7   4  -8   35.40    2.50
   7   4   8   38.40    2.30
   7  -4  -8   42.50    2.20
  -7   4  -8   40.50    2.70
   7   4   8   38.60    2.30
   7  -4  -8   36.50    2.60
   7  -4  -8   41.30    2.60
  -7   4  -8   38.20    2.90
   7  -4  -8   38.40    2.40
   8   4  -8   25.90    2.60
   8  -4   8   26.10    2.20
   8   4  -8   26.10    2.40
   8   4  -8   28.70    2.60
   8  -4   8   29.50    2.40
  -8  -4  -8   31.30    2.40
   8   4  -8   26.60    2.40
  -8   4  -8   22.10    2.40
  -8   4  -8   32.80    2.70
   8   4   8   24.00    2.10
   8  -4  -8   24.50    2.30
   8  -4  -8   32.00    2.50
   8  -4  -8   28.40    2.60
   8  -4  -8   25.00    2.00
   8   4   8   26.50    2.10
   9   4  -8   -0.40    1.20
  -9  -4  -8    1.10    1.10
   9  -4   8    0.20    1.10
   9   4  -8    1.20    1.30
   9   4  -8    0.50    1.20
   9  -4   8    0.20    0.90
   9  -4  -8    0.70    1.20
   9  -4  -8    0.60    1.20
   9  -4  -8    0.70    1.20
   9   4   8    0.40    1.00
  -9   4  -8   -2.20    1.30
  10  -4   8   73.69    4.00
  10  -4   8   69.29    3.70
  10   4  -8   79.09    3.80
  10   4  -8   77.59    4.10
  10   4   8   73.49    3.70
  10  -4  -8   77.29    3.80
  10  -4  -8   74.49    5.40
   0  -5   8   11.50    1.40
   0  -5  -8   13.80    1.20
   0   5  -8   12.90    1.50
   0  -5   8   13.70    1.10
   0  -5   8   13.90    1.10
   0   5  -8   10.60    1.10
   0   5  -8   11.90    1.00
   0   5   8   11.60    1.10
   0   5  -8   12.10    1.30
   1   5  -8   58.99    2.30
   1   5  -8   56.39    2.60
  -1  -5  -8   55.49    1.90
  -1  -5  -8   55.89    2.30
   1  -5   8   56.59    2.00
  -1  -5  -8   60.19    1.80
  -1   5   8   55.59    2.10
   1   5  -8   55.69    2.00
   1   5  -8   54.99    2.40
   1  -5   8   53.09    2.20
  -1   5  -8   59.19    2.60
  -1   5  -8   55.09    2.20
  -1   5  -8   56.29    2.40
  -1  -5   8   58.49    1.90
   1  -5  -8   55.39    2.10
  -1  -5   8   57.79    2.20
   1  -5  -8   56.29    2.20
  -1  -5   8   55.09    2.60
   1   5   8   54.19    2.10
  -1   5  -8   56.79    1.70
   2  -5   8   69.29    2.10
  -2  -5  -8   65.39    2.10
   2  -5   8   68.39    2.60
   2   5  -8   69.69    3.00
   2   5  -8   69.19    2.60
  -2  -5  -8   67.99    1.80
   2   5  -8   67.39    2.40
  -2   5   8   68.19    2.20
  -2  -5  -8   62.49    2.50
  -2   5  -8   64.69    2.60
  -2  -5   8   70.39    1.80
   2  -5  -8   65.59    2.10
   2   5   8   64.09    2.40
   2  -5  -8   67.49    2.30
   2  -5  -8   71.19    2.50
   2  -5  -8   67.09    2.50
   2  -5  -8   68.29    2.40
  -2  -5   8   63.19    2.70
  -2  -5   8   66.89    2.50
  -2   5  -8   63.89    2.70
   3  -5   8   54.29    1.60
  -3   5   8   48.60    1.80
   3  -5   8   53.39    1.80
  -3  -5  -8   51.79    1.90
   3   5  -8   52.09    2.40
   3   5  -8   54.79    2.70
   3   5  -8   54.09    2.30
   3  -5   8   51.59    2.50
   3   5  -8   55.79    2.50
  -3  -5  -8   53.69    2.50
  -3  -5   8   54.69    2.30
  -3  -5   8   51.39    2.50
   3   5   8   49.90    2.20
  -3   5  -8   49.30    2.40
   3  -5  -8   53.69    2.20
   3  -5  -8   55.39    2.10
   3  -5  -8   54.09    1.40
   3  -5  -8   53.69    2.20
  -3   5  -8   56.59    2.70
   3  -5  -8   55.29    2.30
   3  -5  -8   51.49    1.70
   4   5  -8   23.00    1.80
  -4  -5  -8   19.30    1.60
   4   5  -8   19.90    1.70
   4  -5   8   20.00    1.20
   4  -5   8   18.80    1.10
   4  -5   8   21.40    1.80
   4   5  -8   22.70    1.70
  -4  -5  -8   22.00    1.40
   4   5  -8   16.30    1.80
  -4   5   8   18.80    1.10
   4  -5  -8   18.40    1.00
  -4   5  -8   20.50    2.00
  -4  -5   8   20.20    1.70
   4  -5  -8   19.10    1.60
   4  -5  -8   18.80    1.50
   4   5   8   18.20    1.50
   4  -5  -8   21.40    1.40
  -4  -5   8   18.60    1.70
   4  -5  -8   19.90    1.60
  -4   5  -8   19.80    1.60
   4  -5  -8   19.00    1.50
  -5  -5  -8   22.00    1.50
   5   5  -8   23.80    1.90
  -5  -5  -8   21.70    1.80
   5   5  -8   19.70    1.80
   5   5  -8   16.10    1.80
   5   5  -8   22.80    1.90
   5  -5   8   19.70    1.40
   5  -5   8   21.00    2.10
  -5  -5   8   19.50    1.70
  -5   5  -8   20.40    1.90
   5  -5  -8   20.30    1.70
   5  -5  -8   19.80    1.20
   5  -5  -8   21.20    1.90
   5   5   8   21.00    1.80
   5  -5  -8   20.90    1.70
  -5   5  -8   20.00    2.00
  -6  -5  -8   27.80    2.20
   6   5  -8   29.00    2.20
   6   5  -8   27.10    2.20
   6  -5   8   28.80    1.80
   6   5  -8   30.30    2.30
   6  -5   8   31.80    2.50
   6   5  -8   27.30    2.30
   6  -5   8   27.50    2.10
   6  -5  -8   34.30    2.20
   6  -5  -8   26.30    2.20
   6  -5  -8   29.00    2.10
  -6  -5   8   31.10    2.00
  -6   5  -8   29.00    2.30
   6   5   8   30.80    1.90
   6   5   8   31.40    2.10
   6  -5  -8   30.70    1.70
  -6   5  -8   31.90    2.70
   7   5  -8  104.99    4.30
   7   5  -8  105.69    3.90
   7  -5   8   99.89    3.90
   7   5  -8  104.59    4.10
   7   5  -8   95.59    4.10
  -7  -5  -8  103.19    4.00
   7  -5   8   95.19    4.30
   7  -5   8   99.89    3.50
   7   5   8  100.29    3.50
   7  -5  -8   98.29    3.80
  -7   5  -8   99.29    4.40
   7   5   8  105.09    3.70
   7  -5  -8   96.89    4.10
   7  -5  -8  100.99    3.40
  -7   5  -8   94.99    3.90
   7  -5  -8   94.79    3.60
   8  -5   8   72.89    4.10
   8   5  -8   79.99    3.60
   8  -5   8   83.79    3.50
  -8  -5  -8   75.29    3.60
   8   5  -8   83.59    4.00
   8  -5   8   82.99    3.60
   8   5  -8   82.19    4.00
   8  -5  -8   80.29    3.70
   8  -5  -8   75.99    3.90
  -8   5  -8   79.59    3.80
   8  -5  -8   76.69    3.20
   8   5   8   77.49    3.30
   8   5   8   79.49    3.30
   8  -5  -8   81.59    3.50
   9   5  -8    5.30    1.60
   9   5  -8    2.70    1.40
   9  -5   8    4.80    1.50
   9   5  -8    2.50    1.40
  -9  -5  -8    7.00    1.50
   9  -5   8    4.20    1.30
   9  -5  -8    5.10    1.60
   9  -5  -8    4.10    1.50
  -9   5  -8    0.20    1.50
   9  -5  -8    5.70    1.60
   9   5   8    4.90    1.30
   0   6  -8  701.73   11.40
   0   6  -8  683.93   12.00
   0   6   8  706.93   11.80
   0  -6  -8  699.53   11.30
   0   6  -8  702.73   12.40
   0  -6  -8  692.93   11.40
   0  -6   8  691.93   11.70
   0  -6   8  682.03   12.70
   0  -6   8  692.73   11.70
   0  -6  -8  695.83   11.90
   0   6  -8  714.63   12.60
   1   6  -8   68.89    2.90
   1   6  -8   66.19    2.30
   1   6  -8   69.49    2.80
  -1   6   8   68.49    2.30
  -1  -6  -8   71.99    2.10
   1  -6   8   69.49    2.50
   1   6  -8   64.59    2.50
   1  -6   8   65.39    2.90
  -1  -6  -8   70.69    2.10
   1  -6   8   63.79    2.30
  -1  -6  -8   64.89    2.50
  -1  -6   8   65.39    2.40
  -1   6  -8   71.29    2.10
  -1   6  -8   64.69    2.70
  -1   6  -8   64.99    2.60
  -1  -6   8   66.29    2.90
   1  -6  -8   66.99    2.50
  -1  -6   8   66.59    2.10
  -1   6  -8   66.99    2.80
   1  -6  -8   65.89    2.30
   1   6   8   66.69    2.50
   2  -6   8   17.50    1.20
  -2  -6  -8   19.30    1.10
   2   6  -8   20.10    1.50
  -2   6   8   18.70    1.30
  -2  -6  -8   19.00    1.20
   2   6  -8   16.70    1.40
   2   6  -8   15.10    1.50
  -2  -6  -8   18.00    1.60
   2   6  -8   18.90    1.90
   2  -6   8   19.10    1.60
   2  -6  -8   20.40    1.40
   2  -6  -8   19.10    1.20
  -2   6  -8   19.20    1.60
   2  -6  -8   18.10    1.40
   2   6   8   13.40    1.30
  -2  -6   8   16.60    1.70
  -2  -6   8   19.90    1.00
  -2   6  -8   21.10    1.70
   2  -6  -8   17.90    1.50
  -2   6  -8   18.10    1.80
  -2  -6   8   21.40    1.50
   2  -6  -8   19.20    1.40
  -3  -6  -8  679.83   11.00
   3   6  -8  670.13   12.60
   3  -6   8  668.93   12.50
   3   6  -8  684.33   12.40
  -3  -6  -8  660.73   12.30
   3   6  -8  678.63   12.10
   3  -6   8  680.33   11.20
   3   6  -8  670.73   12.10
  -3   6   8  708.23   11.30
   3  -6  -8  685.13   11.10
   3  -6  -8  702.43   11.80
  -3   6  -8  680.73   12.30
   3  -6  -8  688.93   10.30
   3  -6  -8  713.93   11.50
  -3   6  -8  687.03   12.70
   3   6   8  689.83   12.10
   3  -6  -8  676.43   12.00
  -3  -6   8  689.23   12.10
   3  -6  -8  701.33   11.70
  -3  -6   8  681.33   12.60
   4   6  -8   95.59    3.40
   4  -6   8   93.79    3.70
   4  -6   8   91.39    2.60
   4   6  -8   97.29    3.70
   4   6  -8   93.89    3.50
   4   6  -8   97.19    3.50
  -4  -6  -8   93.99    3.40
   4  -6   8  100.59    3.50
  -4   6  -8   91.99    3.40
   4  -6  -8   91.89    2.30
  -4  -6   8   95.79    3.30
   4  -6  -8   96.19    3.00
   4  -6  -8   91.99    3.20
  -4   6  -8   98.39    3.80
  -4  -6   8   89.99    3.40
   4   6   8   96.89    3.30
   4  -6  -8   97.19    3.50
   4  -6  -8   96.19    3.10
   5   6  -8    9.50    1.40
   5   6  -8   11.30    1.50
   5   6  -8    9.10    1.50
   5  -6   8    9.70    1.60
   5  -6   8   13.10    1.20
  -5  -6  -8   10.00    1.40
   5   6  -8   10.40    1.40
  -5   6  -8   13.20    1.80
  -5  -6   8   13.40    1.60
   5  -6  -8   13.20    1.50
   5  -6  -8   13.60    1.60
  -5   6  -8   13.90    1.70
   5   6   8   12.50    1.50
   5  -6  -8   14.10    1.10
   5  -6  -8   11.10    1.50
   6  -6   8   71.59    3.10
   6  -6   8   77.59    3.70
   6   6  -8   69.49    3.30
   6   6  -8   77.19    3.50
   6   6  -8   76.99    3.20
   6   6  -8   72.59    3.40
  -6  -6  -8   66.79    3.20
   6  -6   8   71.39    2.70
  -6   6  -8   73.79    3.80
  -6   6  -8   77.69    3.40
   6  -6  -8   72.19    3.00
   6   6   8   77.49    3.10
  -6  -6   8   73.29    3.20
   6  -6  -8   68.89    3.10
   6  -6  -8   74.69    3.40
   6  -6  -8   72.59    2.50
  -7  -6  -8   18.00    2.00
   7  -6   8   18.10    2.30
   7   6  -8   19.40    2.10
   7  -6   8   20.40    1.90
   7  -6   8   19.40    2.00
   7   6  -8   22.00    2.10
   7   6  -8   13.90    2.10
   7   6  -8   22.60    2.30
   7  -6  -8   18.10    1.60
  -7   6  -8   23.80    2.60
   7  -6  -8   21.10    2.10
  -7   6  -8   21.90    2.30
   7   6   8   19.80    1.70
   7   6   8   17.10    1.80
   7  -6  -8   22.90    2.10
   7  -6  -8   20.60    2.20
   8   6  -8   31.70    2.90
  -8  -6  -8   29.30    2.50
   8   6  -8   28.50    2.80
   8   6  -8   32.70    2.50
   8  -6   8   24.40    2.70
   8  -6   8   27.30    2.30
  -8   6  -8   27.80    2.80
   8  -6  -8   31.40    2.60
   8   6   8   27.20    2.10
   8  -6  -8   26.80    2.70
   8  -6  -8   29.30    2.40
   8   6   8   28.50    2.30
   8  -6  -8   26.40    2.10
   9   6  -8   13.10    2.20
   9   6  -8   14.50    2.30
   9   6  -8   12.10    1.90
  -9  -6  -8   16.30    2.20
   9  -6   8   14.70    2.10
   9  -6  -8   13.00    2.20
   9  -6  -8   15.70    2.20
   9   6   8   15.10    1.90
   9  -6  -8   14.00    1.90
  -9   6  -8   16.50    2.40
   0  -7   8  322.57    6.60
   0  -7  -8  327.47    7.00
   0   7  -8  327.37    7.20
   0   7  -8  318.77    7.20
   0   7  -8  321.77    6.70
   0  -7  -8  326.57    6.30
   0   7  -8  328.97    6.30
   0  -7  -8  326.57    6.70
   0  -7   8  325.67    7.50
   0   7   8  323.17    6.60
   0  -7   8  325.77    6.60
   0  -7  -8  332.27    6.00
   1   7  -8  284.57    5.80
  -1  -7  -8  281.77    6.20
  -1  -7  -8  281.67    5.40
   1  -7   8  277.67    6.10
   1   7  -8  273.77    6.50
  -1   7   8  266.17    5.70
   1  -7   8  272.57    6.70
  -1  -7  -8  282.77    5.20
   1   7  -8  282.17    6.00
   1   7  -8  285.57    6.50
   1  -7   8  281.87    5.80
   1  -7  -8  287.97    5.50
  -1   7  -8  281.97    6.40
  -1  -7   8  273.57    5.90
  -1  -7   8  276.77    5.60
  -1   7  -8  277.07    5.40
   1  -7  -8  277.87    5.80
   1   7   8  269.77    5.90
  -1  -7   8  259.27    6.60
   1  -7  -8  279.37    6.20
   1  -7  -8  268.67    5.70
  -1   7  -8  270.07    6.50
  -1   7  -8  271.57    6.00
  -2   7   8  235.98    5.10
   2  -7   8  235.68    5.70
   2   7  -8  232.38    5.30
   2   7  -8  238.88    5.90
  -2  -7  -8  229.78    5.60
   2  -7   8  233.88    5.10
   2   7  -8  234.68    5.90
  -2  -7  -8  230.88    4.60
   2   7  -8  238.98    5.40
  -2  -7   8  226.18    6.00
  -2  -7   8  238.78    4.70
  -2  -7   8  236.18    5.50
   2  -7  -8  234.38    5.60
   2  -7  -8  239.98    5.00
  -2   7  -8  237.78    5.60
   2  -7  -8  241.78    5.50
  -2   7  -8  233.88    6.00
   2  -7  -8  241.38    5.00
  -2   7  -8  241.68    5.80
   2  -7  -8  236.28    5.40
   2   7   8  245.68    5.60
   2  -7  -8  238.48    5.00
  -3  -7  -8   39.00    2.30
   3  -7   8   48.80    2.50
   3  -7   8   46.90    1.90
   3   7  -8   43.60    2.20
  -3   7   8   43.00    1.80
   3   7  -8   47.90    2.60
   3   7  -8   46.20    2.30
   3   7  -8   41.20    2.50
   3   7  -8   44.50    2.30
   3   7   8   48.40    2.30
  -3   7  -8   45.50    2.30
  -3   7  -8   46.00    2.70
   3  -7  -8   50.39    2.30
  -3  -7   8   45.50    2.30
   3  -7  -8   44.60    1.30
  -3  -7   8   47.50    2.60
  -3   7  -8   48.20    2.40
   3  -7  -8   42.00    2.20
   3  -7  -8   50.99    2.10
  -4  -7  -8  266.07    6.50
   4   7  -8  258.17    6.10
   4  -7   8  265.17    5.40
   4  -7   8  262.67    6.70
   4   7  -8  254.87    6.50
   4   7  -8  264.47    6.60
   4   7  -8  265.77    6.40
   4  -7  -8  270.67    5.60
   4  -7  -8  268.97    4.90
  -4  -7   8  249.97    6.50
  -4   7  -8  256.57    6.30
   4  -7  -8  260.17    6.20
   4   7   8  269.57    6.20
   4  -7  -8  260.87    5.90
  -4   7  -8  260.47    6.80
  -4  -7   8  264.77    6.20
   5   7  -8  115.99    4.30
   5   7  -8  120.99    4.30
   5  -7   8  121.79    4.60
   5   7  -8  122.39    4.40
  -5  -7  -8  122.19    4.30
   5   7  -8  120.99    3.90
   5  -7  -8  128.29    3.80
  -5  -7   8  122.09    4.00
   5  -7  -8  125.19    4.20
   5  -7  -8  123.49    3.10
   5   7   8  121.89    4.00
   5  -7  -8  126.59    3.70
   5  -7  -8  122.59    4.30
  -5   7  -8  126.09    4.20
  -5   7  -8  127.69    4.70
  -5  -7   8  122.39    4.30
   6   7  -8  170.28    5.50
   6  -7   8  171.88    5.70
   6   7  -8  158.88    5.20
   6   7  -8  166.08    4.80
  -6  -7  -8  169.28    5.30
   6   7  -8  169.28    5.50
  -6   7  -8  174.18    5.80
   6   7   8  175.58    5.00
   6  -7  -8  173.98    5.50
   6  -7  -8  170.38    4.20
  -6   7  -8  171.88    5.30
   6  -7  -8  169.08    4.60
  -6  -7   8  165.28    5.10
   6  -7  -8  166.98    5.10
   7   7  -8   74.39    3.90
   7   7  -8   69.99    3.20
   7   7  -8   65.79    3.60
   7  -7   8   74.49    3.90
   7  -7   8   66.59    3.20
   7   7  -8   72.99    3.70
  -7  -7  -8   76.29    3.60
   7   7   8   64.69    3.10
  -7   7  -8   71.59    3.70
  -7   7  -8   65.09    3.80
   7  -7  -8   72.09    3.10
   7  -7  -8   73.09    2.80
   7  -7  -8   67.39    3.60
   7  -7  -8   69.59    3.40
   8   7  -8    1.70    1.30
   8   7  -8    0.40    1.10
   8  -7   8    1.20    1.20
   8  -7   8   -0.90    1.20
  -8  -7  -8    0.40    1.20
   8   7  -8    2.60    1.50
   8   7   8   -0.70    1.00
   8  -7  -8    0.80    1.10
   8  -7  -8    0.70    1.20
   8  -7  -8    1.10    1.30
  -8   7  -8    0.50    1.30
   9  -7   8    6.80    1.70
   9  -7   8    5.30    2.00
  -9  -7  -8    9.10    1.80
   9   7  -8    9.90    2.10
   9   7  -8    7.30    1.50
   9   7  -8   12.40    2.20
   9  -7  -8    8.80    1.70
   9  -7  -8    9.00    1.90
   9  -7  -8   11.90    2.00
  -9   7  -8    5.50    2.20
   9  -7  -8    6.50    1.70
   0  -8  -8   36.30    2.20
   0  -8  -8   36.20    1.90
   0   8  -8   37.30    2.00
   0   8  -8   38.00    2.50
   0   8  -8   37.70    2.30
   0   8   8   36.00    1.90
   0  -8   8   35.30    2.00
   0  -8  -8   32.40    1.90
   0  -8   8   37.50    1.90
   0   8  -8   36.50    1.90
   0  -8   8   37.10    2.40
  -1  -8  -8    2.20    0.70
  -1   8   8    0.90    0.70
   1  -8   8    2.30    0.80
   1  -8   8    2.50    0.90
   1   8  -8   -0.50    0.80
   1  -8   8    2.20    1.00
   1   8  -8    0.80    0.70
   1   8  -8    2.40    0.80
   1   8  -8    1.70    1.10
  -1  -8  -8    2.20    0.90
  -1   8  -8    1.00    1.00
  -1  -8   8    2.20    0.70
   1  -8  -8    1.10    0.70
  -1   8  -8    1.50    0.80
   1   8   8    1.60    0.90
  -1   8  -8    1.90    1.00
   1  -8  -8    1.80    0.80
  -1   8  -8    1.30    0.70
  -1  -8   8    1.20    1.00
  -1  -8   8    1.60    0.80
   1  -8  -8    3.00    1.00
   2  -8   8   29.30    2.00
   2   8  -8   31.10    1.90
  -2  -8  -8   24.60    1.90
   2   8  -8   27.00    1.80
  -2   8   8   26.60    1.60
  -2  -8  -8   26.30    1.40
   2   8  -8   27.90    2.20
   2   8  -8   23.50    2.10
   2  -8   8   26.90    1.60
  -2  -8   8   29.30    2.20
   2  -8  -8   25.50    1.50
   2  -8  -8   26.20    1.80
   2  -8  -8   24.90    1.80
  -2  -8   8   23.80    1.80
   2  -8  -8   25.00    1.80
  -2   8  -8   27.60    2.30
  -2   8  -8   28.50    1.90
   2  -8  -8   27.00    1.60
  -2   8  -8   24.50    1.90
   2   8   8   25.40    1.90
   3   8  -8  167.18    4.40
   3   8  -8  158.38    4.90
   3   8  -8  167.48    4.50
  -3  -8  -8  155.98    4.80
   3  -8   8  157.18    4.90
  -3   8   8  169.78    4.00
   3   8  -8  161.68    4.90
   3   8  -8  165.48    4.70
   3  -8   8  161.28    4.10
  -3   8  -8  161.28    4.60
  -3  -8   8  156.68    5.10
  -3   8  -8  156.18    5.10
   3   8   8  171.28    4.70
   3  -8  -8  160.68    3.90
   3  -8  -8  171.48    4.60
   3  -8  -8  159.58    4.50
  -3   8  -8  160.98    4.60
  -3  -8   8  166.18    4.60
   3  -8  -8  156.38    4.60
   4  -8   8   26.40    2.30
   4   8  -8   22.50    2.00
   4   8  -8   29.00    2.40
   4  -8   8   21.60    1.50
   4   8  -8   21.40    2.20
   4   8  -8   24.50    1.80
   4   8  -8   23.50    1.90
  -4  -8  -8   28.80    2.20
  -4  -8   8   23.80    2.00
   4  -8  -8   25.30    1.20
  -4   8  -8   25.10    1.90
  -4   8  -8   26.00    2.00
   4   8   8   27.50    2.00
   4  -8  -8   24.80    1.60
   4  -8  -8   25.30    2.00
   4  -8  -8   23.60    2.00
   4  -8  -8   27.70    1.90
  -4   8  -8   29.30    2.50
  -4  -8   8   27.20    2.30
   5  -8   8   82.09    3.80
   5   8  -8   80.39    3.50
   5   8  -8   86.99    3.90
   5   8  -8   82.59    3.80
  -5  -8  -8   81.39    3.60
   5   8  -8   89.49    3.30
   5   8   8   85.69    3.40
   5  -8  -8   83.39    2.90
   5  -8  -8   80.79    2.50
   5  -8  -8   84.89    3.50
  -5  -8   8   80.49    3.70
  -5   8  -8   79.19    3.50
   5  -8  -8   84.59    3.30
  -5   8  -8   82.19    3.90
  -5  -8   8   91.99    3.60
   5  -8  -8   79.89    3.40
   5  -8  -8   81.49    3.60
   6  -8   8   35.60    2.90
   6   8  -8   35.60    2.30
   6   8  -8   41.60    3.10
   6   8  -8   38.20    2.90
  -6  -8  -8   36.00    2.60
   6   8  -8   43.40    2.90
   6  -8  -8   39.80    2.60
  -6  -8   8   40.10    2.80
  -6   8  -8   35.00    2.70
  -6   8  -8   37.80    3.00
   6   8   8   34.80    2.50
   6  -8  -8   38.40    2.70
   6  -8  -8   38.50    1.90
   6  -8  -8   39.20    2.30
   6  -8  -8   38.30    2.70
   7   8  -8   16.30    1.90
   7  -8   8   17.80    2.50
  -7  -8  -8   21.00    2.40
   7   8  -8   14.90    2.10
   7   8  -8   12.50    1.90
  -7   8  -8   20.40    2.40
   7  -8  -8   18.70    1.90
   7  -8  -8   17.60    2.10
   7  -8  -8   15.50    2.00
   7  -8  -8   15.30    2.10
   7   8   8   15.30    1.90
   7  -8  -8   18.30    1.70
   8   8  -8  126.89    5.20
   8  -8   8  124.29    4.70
   8  -8   8  126.39    5.40
   8   8  -8  129.99    5.20
  -8  -8  -8  119.49    4.90
   8   8  -8  130.49    4.50
  -8   8  -8  126.59    5.10
   8  -8  -8  129.59    5.20
   8  -8  -8  128.79    4.90
   8  -8  -8  128.49    5.00
   8  -8  -8  132.49    4.50
   8   8   8  127.79    4.50
  -9  -8  -8   20.60    3.10
   9   8  -8   22.40    2.80
   9   8  -8   21.90    2.20
   9  -8   8   18.00    2.30
   9  -8  -8   16.90    2.30
   9  -8  -8   19.50    2.10
   0   9  -8  457.75    9.80
   0   9  -8  479.35    9.40
   0  -9   8  468.95    9.10
   0  -9  -8  461.75    8.60
   0  -9  -8  472.25    9.10
   0   9   8  458.05    8.90
   0   9  -8  453.55    8.80
   0  -9  -8  473.65    9.50
   0   9  -8  449.76    8.80
   0  -9   8  461.85    9.00
   0  -9   8  462.05   10.10
   1   9  -8   53.29    2.30
  -1   9   8   54.89    2.30
  -1  -9  -8   52.49    2.20
   1  -9   8   50.69    2.50
   1   9  -8   51.09    2.90
   1   9  -8   51.09    2.40
  -1  -9  -8   50.19    2.60
   1  -9   8   47.30    2.30
  -1  -9  -8   49.00    2.50
   1   9  -8   52.99    2.80
   1  -9   8   49.00    2.90
   1  -9  -8   47.70    2.20
  -1  -9   8   51.49    2.20
  -1  -9   8   52.69    3.00
   1  -9  -8   48.10    2.30
   1  -9  -8   54.99    2.70
  -1  -9   8   49.70    2.50
   1   9   8   48.10    2.30
  -1   9  -8   49.90    2.60
  -1   9  -8   48.70    2.40
  -1   9  -8   53.99    3.00
   2  -9   8  125.79    3.70
   2  -9   8  125.79    4.20
   2   9  -8  126.79    4.50
  -2   9   8  126.39    3.60
   2   9  -8  130.29    4.30
   2   9  -8  126.29    3.70
   2  -9   8  125.99    4.60
  -2  -9  -8  132.99    3.40
  -2  -9  -8  132.39    4.30
   2   9  -8  127.99    4.00
  -2   9  -8  134.09    4.60
  -2   9  -8  133.19    4.00
   2  -9  -8  127.59    3.90
  -2  -9   8  127.29    4.60
   2   9   8  137.99    4.10
  -2   9  -8  128.19    4.00
   2  -9  -8  125.49    4.10
   2  -9  -8  131.69    4.20
  -2  -9   8  121.59    3.90
   2  -9  -8  133.59    3.60
   3   9  -8  185.38    5.40
   3   9  -8  193.98    4.80
   3   9  -8  182.38    5.10
   3   9  -8  184.78    5.60
  -3  -9  -8  184.08    5.30
   3  -9   8  186.18    5.50
  -3   9   8  196.08    4.50
   3   9  -8  191.28    4.90
   3  -9   8  191.18    4.70
  -3  -9   8  190.38    5.20
  -3   9  -8  186.38    5.00
  -3  -9   8  182.28    5.70
   3   9   8  181.88    5.00
   3  -9  -8  177.08    5.00
  -3   9  -8  178.88    5.70
   3  -9  -8  185.68    5.30
   3  -9  -8  184.28    5.10
  -3   9  -8  187.68    5.00
   4   9  -8   14.20    1.90
   4   9  -8   13.40    2.00
  -4  -9  -8   15.80    2.00
   4  -9   8   14.00    1.90
   4   9  -8   19.30    2.00
   4   9  -8   20.20    1.70
   4  -9   8   17.60    1.60
   4   9  -8   15.60    1.70
  -4   9  -8   14.60    1.70
   4  -9  -8   12.70    1.60
   4  -9  -8   15.30    1.70
   4   9   8   18.90    2.00
  -4  -9   8   12.70    1.90
   4  -9  -8   16.10    1.80
  -4  -9   8   16.70    1.90
  -4   9  -8   14.90    1.90
   5   9  -8  120.69    4.70
   5   9  -8  109.59    4.40
  -5  -9  -8  111.69    4.40
   5   9  -8  117.89    3.80
   5  -9   8  108.79    4.50
   5   9  -8  109.99    4.30
   5  -9  -8  117.59    3.20
  -5  -9   8  116.69    4.20
  -5   9  -8  112.09    4.70
  -5   9  -8  113.19    4.10
  -5  -9   8  112.19    4.60
   5  -9  -8  116.79    4.30
   5  -9  -8  116.79    4.00
   5  -9  -8  116.19    4.20
   5   9   8  111.89    4.10
   5  -9  -8  113.69    4.40
   6   9  -8   72.19    3.90
   6   9  -8   78.39    3.80
   6   9  -8   75.29    3.90
   6   9  -8   77.79    3.20
  -6  -9  -8   76.39    3.80
   6  -9   8   75.59    4.10
  -6   9  -8   81.59    4.30
   6  -9  -8   77.79    3.60
   6  -9  -8   74.99    3.70
  -6  -9   8   74.79    3.80
   6  -9  -8   75.29    3.30
   6   9   8   76.39    3.50
   6  -9  -8   71.99    3.70
  -6   9  -8   71.09    3.50
  -7  -9  -8   38.80    3.00
   7   9  -8   38.50    2.50
   7   9  -8   40.50    3.30
   7  -9   8   42.20    3.30
   7   9  -8   38.40    3.00
   7   9   8   36.40    2.70
  -7   9  -8   43.20    3.00
   7  -9  -8   44.70    3.00
   7  -9  -8   41.20    3.10
   7  -9  -8   40.70    2.80
  -8  -9  -8    3.80    1.50
   8   9  -8    4.60    1.80
   8   9  -8   -0.30    1.30
   8  -9   8    0.40    1.30
   8  -9  -8    1.70    1.40
   8   9   8    1.60    1.30
   8  -9  -8    1.10    1.20
  -8   9  -8    2.80    1.50
   8  -9  -8    2.00    1.40
   0 -10   8    0.80    0.80
   0 -10   8    1.90    1.10
   0 -10  -8   -1.00    0.70
   0  10  -8    0.90    0.80
   0  10   8    0.60    0.80
   0 -10   8    0.00    0.70
   0 -10  -8   -0.10    0.80
   0  10  -8    0.80    0.80
   0 -10  -8   -0.20    0.90
   0  10  -8   -0.20    1.00
   0  10  -8    1.40    1.10
   1  10  -8   90.39    3.90
  -1  10   8   91.19    3.10
   1  10  -8   91.99    3.60
   1 -10   8   89.89    3.30
   1 -10   8   90.09    3.90
   1 -10   8   92.39    3.50
  -1 -10  -8   87.79    3.40
  -1 -10  -8   90.49    3.00
   1  10  -8   92.69    3.10
  -1 -10  -8   88.69    3.60
   1  10  -8   88.49    3.30
   1 -10  -8   92.99    3.30
  -1 -10   8   94.59    3.20
   1 -10  -8   90.49    3.60
  -1 -10   8   92.69    3.50
  -1  10  -8   87.29    3.20
  -1  10  -8   89.79    3.40
   1  10   8   92.39    3.40
  -1  10  -8   91.29    4.00
  -1 -10   8   93.69    4.00
   1 -10  -8   89.49    3.20
  -2  10   8   49.90    2.30
   2  10  -8   54.69    2.90
   2  10  -8   52.29    2.70
   2  10  -8   52.29    2.50
   2 -10   8   48.80    3.00
  -2 -10  -8   51.19    2.90
   2  10  -8   52.69    3.10
   2  10  -8   50.69    2.30
   2 -10   8   51.19    2.80
   2 -10   8   51.69    2.50
  -2 -10  -8   48.00    2.70
  -2 -10  -8   52.39    2.20
   2 -10  -8   52.99    2.80
  -2 -10   8   54.09    3.20
  -2  10  -8   48.80    3.10
   2 -10  -8   51.59    2.80
  -2  10  -8   52.39    2.60
  -2 -10   8   51.89    2.70
   2 -10  -8   53.89    2.60
   2 -10  -8   53.69    2.80
   2  10   8   53.69    2.70
  -2  10  -8   52.09    2.60
   3  10  -8   78.19    3.10
   3  10  -8   69.89    3.70
   3 -10   8   72.69    3.50
  -3 -10  -8   71.49    3.30
   3  10  -8   75.09    4.30
   3  10  -8   80.79    3.60
  -3  10   8   80.39    2.70
   3 -10   8   78.29    3.00
   3  10  -8   74.59    3.30
  -3 -10   8   80.09    3.40
   3  10   8   72.39    3.20
  -3  10  -8   73.79    3.80
   3 -10  -8   72.89    3.20
   3 -10  -8   75.19    3.40
  -3 -10   8   74.19    3.70
  -3  10  -8   75.29    3.20
   3 -10  -8   75.09    3.30
   4 -10   8    8.60    1.60
   4  10  -8   13.90    2.00
  -4 -10  -8   14.50    1.90
   4 -10   8   12.50    1.50
   4  10  -8   11.50    1.90
   4  10  -8   15.50    1.80
  -4  10  -8   14.90    1.70
   4 -10  -8   15.50    1.90
   4  10   8   13.00    1.70
   4 -10  -8   12.60    1.70
   4 -10  -8   15.50    1.90
  -4 -10   8   15.00    2.20
  -4 -10   8   12.60    1.70
  -4  10  -8   11.70    1.90
  -5 -10  -8   32.60    2.70
   5  10  -8   31.90    2.60
   5  10  -8   33.50    2.80
   5 -10   8   29.30    2.70
   5  10  -8   31.90    2.90
   5 -10  -8   36.70    2.70
   5  10   8   31.60    2.40
  -5  10  -8   31.70    3.00
   5 -10  -8   35.50    2.50
   5 -10  -8   29.50    2.40
  -5  10  -8   31.80    2.40
  -5 -10   8   35.10    2.60
  -5 -10   8   32.20    2.80
   6  10  -8   69.19    3.60
  -6 -10  -8   66.29    3.60
   6 -10   8   66.09    3.90
   6  10  -8   66.69    3.60
   6 -10  -8   65.99    3.50
   6 -10  -8   66.59    3.50
   6 -10  -8   70.59    3.70
  -6 -10   8   59.19    3.60
  -6  10  -8   72.79    3.60
  -6 -10   8   74.39    3.60
   6  10   8   66.89    3.40
   7 -10   8    5.00    1.80
  -7 -10  -8    7.40    1.80
   7  10  -8    9.30    2.00
   7  10  -8    6.90    1.60
   7  10  -8    6.10    1.50
   7 -10  -8    6.10    1.50
  -7  10  -8    7.20    1.70
   7 -10  -8    4.50    1.50
   7 -10  -8    5.40    1.70
   7  10   8    4.80    1.50
   8  10  -8   17.40    2.60
   8 -10  -8   16.30    2.30
   8  10   8   16.30    2.20
   0  11  -8    0.50    1.10
   0 -11   8    2.20    1.30
   0  11   8    0.10    0.60
   0 -11  -8   -1.00    0.80
   0 -11  -8    0.90    0.90
   0 -11   8    1.20    0.90
   0  11  -8   -0.20    0.70
   0 -11   8   -1.60    0.60
   0 -11  -8   -0.40    0.80
   0  11  -8   -1.60    1.00
   1  11  -8   38.30    2.40
   1 -11   8   43.90    2.60
   1  11  -8   42.00    2.60
   1  11  -8   38.60    2.80
  -1 -11  -8   42.80    2.20
  -1 -11  -8   39.30    2.50
   1 -11   8   41.70    2.40
  -1 -11  -8   41.60    2.70
   1 -11   8   39.80    2.90
  -1  11   8   42.50    2.30
   1  11   8   41.80    2.40
  -1 -11   8   40.20    3.00
   1 -11  -8   43.00    2.40
  -1 -11   8   43.10    2.30
  -1  11  -8   42.50    3.00
   1 -11  -8   43.70    2.70
  -1  11  -8   45.00    2.30
  -1 -11   8   39.50    2.50
  -1  11  -8   38.50    2.40
   1 -11  -8   44.30    2.40
   2 -11   8   10.00    1.70
   2  11  -8    9.70    1.50
   2 -11   8   13.50    1.60
  -2 -11  -8   14.10    1.90
  -2  11   8   12.30    1.40
  -2 -11  -8   11.30    1.70
   2  11  -8   11.60    1.80
   2 -11   8    9.80    1.60
   2  11  -8   11.20    1.70
  -2 -11   8   10.50    1.50
  -2 -11   8   10.20    1.90
   2  11   8   12.00    1.70
  -2  11  -8   10.20    1.40
  -2  11  -8    8.20    1.60
   2 -11  -8   10.00    1.70
   2 -11  -8   10.70    1.60
   2 -11  -8    9.50    1.50
   3  11  -8   52.39    3.00
  -3 -11  -8   51.49    3.10
   3  11  -8   51.89    3.30
  -3 -11  -8   50.19    3.00
   3 -11   8   52.49    3.10
   3 -11   8   48.00    2.50
   3  11  -8   51.89    2.90
  -3 -11   8   50.29    2.90
  -3  11  -8   51.39    3.40
  -3 -11   8   55.89    3.50
   3  11   8   51.09    2.90
   3 -11  -8   52.79    2.90
   3 -11  -8   48.70    2.90
  -3  11  -8   51.99    2.70
   3 -11  -8   51.79    2.80
   4 -11   8    1.50    0.90
  -4 -11  -8   -0.90    1.00
   4  11  -8   -0.50    1.20
   4  11  -8    0.50    1.00
   4  11  -8    0.10    1.20
  -4 -11  -8    0.80    1.10
   4 -11   8    1.00    1.20
  -4 -11   8    0.80    1.30
  -4  11  -8   -0.90    1.00
  -4  11  -8   -0.20    0.90
   4 -11  -8   -0.20    0.90
  -4 -11   8    1.60    1.20
   4 -11  -8   -3.10    0.80
   4 -11  -8    1.20    1.20
   4  11   8    1.40    1.10
   5  11  -8   40.70    3.00
   5 -11   8   39.00    3.10
  -5 -11  -8   38.70    2.90
   5 -11   8   44.40    3.50
   5  11  -8   38.90    2.80
  -5 -11   8   44.60    2.90
   5 -11  -8   43.20    2.90
  -5  11  -8   28.00    3.10
  -5 -11   8   40.30    3.20
   5 -11  -8   35.90    2.80
   5  11   8   43.00    2.80
   5 -11  -8   37.90    2.80
  -5  11  -8   47.50    2.80
   6 -11   8   93.19    4.60
   6  11  -8   92.49    4.30
   6  11  -8   90.09    4.30
  -6 -11  -8   86.69    4.30
   6 -11  -8   95.59    4.40
  -6 -11   8   89.49    4.00
  -6  11  -8   94.99    4.20
  -6 -11   8   94.49    4.70
   6 -11  -8   88.99    4.10
   6 -11  -8   88.09    4.10
   6  11   8   96.59    4.10
  -7 -11  -8   16.70    2.50
   7  11  -8   20.80    2.50
   7  11  -8   16.20    2.40
   7  11  -8   14.20    1.90
   7 -11   8   13.80    2.40
  -7 -11   8    9.80    2.10
   7 -11  -8   16.00    2.30
   7  11   8   13.20    2.00
   7 -11  -8   15.20    2.20
   7 -11  -8   18.40    2.30
  -7  11  -8   11.90    2.00
   0  12  -8   -0.80    1.10
   0 -12   8   -0.80    0.80
   0 -12  -8    0.10    0.90
   0 -12   8    0.40    0.90
   0  12   8   -0.60    0.60
   0 -12   8   -0.30    1.10
   0  12  -8   -0.40    1.70
   0 -12  -8    0.60    1.00
   0 -12  -8    0.00    0.90
  -1 -12  -8    5.90    1.40
   1 -12   8    8.20    1.70
  -1  12   8    7.40    1.30
   1  12  -8    9.40    1.80
   1 -12   8    8.80    1.50
   1  12  -8    6.70    1.40
   1  12  -8    6.40    1.40
   1 -12   8    6.50    1.30
  -1 -12  -8    5.50    1.30
  -1 -12  -8    9.00    1.40
   1  12   8    6.40    1.30
  -1 -12   8    7.90    1.80
   1 -12  -8    8.10    1.50
  -1 -12   8    8.60    1.60
   1 -12  -8    8.30    1.60
   1 -12  -8    9.40    1.50
  -1  12  -8    9.70    1.90
  -2  12   8   84.79    3.20
   2  12  -8   92.19    4.30
   2  12  -8   86.79    3.60
  -2 -12  -8   85.79    3.90
   2 -12   8   90.49    3.90
   2  12  -8   87.29    3.70
  -2 -12  -8   76.89    3.70
   2 -12   8   88.59    4.20
   2 -12   8   91.29    3.60
   2  12   8   88.49    3.70
   2 -12  -8   88.99    3.60
   2 -12  -8   85.19    3.90
  -2 -12   8   77.69    3.50
  -2  12  -8   85.19    3.30
   2 -12  -8   86.69    3.70
  -2  12  -8   86.79    4.20
  -2 -12   8   86.09    4.40
   3 -12   8   36.80    2.80
  -3 -12  -8   33.80    2.60
   3  12  -8   38.10    3.20
   3  12  -8   35.40    2.70
   3  12  -8   34.30    2.60
  -3 -12  -8   32.90    2.60
   3 -12   8   37.00    2.40
  -3 -12   8   32.20    2.60
  -3 -12   8   35.20    3.10
  -3  12  -8   35.70    3.20
   3  12   8   33.50    2.50
  -3  12  -8   38.20    2.30
   3 -12  -8   36.10    2.90
   3 -12  -8   33.90    2.60
   3 -12  -8   38.50    2.70
   4  12  -8   40.40    2.90
  -4 -12  -8   42.60    3.10
  -4 -12  -8   39.20    2.90
   4  12  -8   39.50    2.90
   4 -12   8   42.00    2.50
   4 -12   8   45.60    3.20
   4 -12  -8   41.00    2.90
   4  12   8   41.20    2.80
   4 -12  -8   39.20    2.90
  -4  12  -8   42.20    2.60
  -4 -12   8   41.90    2.70
   4 -12  -8   42.80    3.00
  -4 -12   8   39.80    3.20
  -4  12  -8   27.00    3.00
   5 -12   8   45.60    3.40
   5  12  -8   53.69    3.40
   5 -12   8   50.19    3.70
   5  12  -8   51.09    3.30
  -5 -12  -8   42.30    3.10
  -5 -12  -8   49.20    3.40
  -5  12  -8   48.90    3.00
   5 -12  -8   48.00    3.20
   5  12   8   48.40    3.10
  -5 -12   8   47.10    3.60
  -5 -12   8   53.49    3.20
   5 -12  -8   45.80    3.10
   5 -12  -8   48.30    3.10
   6  12  -8   -0.70    1.20
  -6 -12  -8    1.80    1.60
  -6 -12  -8    3.10    1.40
   6  12  -8    3.20    1.60
   6 -12   8    3.30    1.60
   6 -12  -8    0.50    1.30
   6 -12  -8    1.90    1.40
  -6 -12   8    1.70    1.30
   6  12   8    2.60    1.30
   6 -12  -8    3.70    1.60
  -6 -12   8   -0.20    1.40
  -6  12  -8    4.70    1.40
   7  12  -8   16.80    2.40
   7  12  -8   16.00    2.00
  -7 -12   8   17.80    2.70
   7 -12  -8   14.80    2.30
   7  12   8   19.40    2.40
   0  13  -8   12.90    2.10
   0 -13   8   11.10    1.70
   0 -13  -8   12.50    1.70
   0 -13   8   11.50    2.00
   0 -13  -8    9.30    1.70
   0 -13  -8   12.10    2.00
   0 -13   8   15.10    1.90
   0  13   8   11.30    1.60
   1  13  -8   22.20    2.60
  -1  13   8   19.50    2.00
  -1 -13  -8   13.60    2.00
   1 -13   8   23.70    2.40
  -1 -13  -8   15.20    2.10
  -1 -13  -8   20.60    2.00
   1 -13   8   20.70    2.20
   1 -13   8   12.50    2.10
   1 -13  -8   19.30    2.30
  -1  13  -8   18.60    2.40
   1  13   8   20.90    2.20
   1 -13  -8   20.60    2.10
  -1 -13   8   16.20    2.40
   1 -13  -8   17.40    2.10
  -1 -13   8   20.40    2.30
   2 -13   8    9.90    1.60
   2 -13   8    8.20    1.60
   2  13  -8    8.80    1.60
  -2 -13  -8    6.60    1.60
  -2  13   8    9.50    1.40
  -2 -13  -8    7.10    1.70
   2  13  -8    9.30    1.60
   2 -13   8   12.50    2.10
   2  13  -8    9.00    2.00
  -2  13  -8   11.40    2.10
   2  13   8   11.60    1.70
   2 -13  -8    7.50    1.70
  -2 -13   8    7.70    1.90
   2 -13  -8    8.60    1.60
  -2 -13   8    9.20    1.60
   2 -13  -8    5.10    1.50
   3  13  -8   43.80    3.00
  -3 -13  -8   44.80    3.20
  -3 -13  -8   43.30    3.00
   3  13  -8   43.70    3.00
   3 -13   8   38.70    2.60
   3 -13   8   41.60    3.10
   3 -13  -8   48.10    3.20
  -3 -13   8   50.49    3.50
   3 -13  -8   46.40    3.00
  -3 -13   8   37.10    2.80
   3  13   8   37.70    2.70
   3 -13  -8   40.40    2.80
  -4 -13  -8   35.20    3.10
   4  13  -8   37.90    2.90
   4 -13   8   39.80    3.10
  -4 -13  -8   38.10    3.00
   4 -13   8   38.50    2.50
   4  13  -8   40.70    3.00
   4  13   8   37.10    2.80
  -4 -13   8   38.40    3.40
   4 -13  -8   33.40    2.80
   4 -13  -8   33.30    2.80
  -4 -13   8   40.00    2.80
   4 -13  -8   35.90    3.00
   5 -13   8    1.40    1.40
  -5 -13  -8    1.40    1.30
   5  13  -8    5.10    1.60
   5  13  -8    3.70    1.40
  -5 -13  -8    3.90    1.50
   5 -13  -8   -0.40    1.40
  -5 -13   8    1.30    1.30
   5 -13  -8    1.50    1.30
   5 -13  -8    3.80    1.50
  -5 -13   8    1.30    1.50
   5  13   8    2.90    1.20
   6  13  -8   17.10    2.20
   6  13  -8   15.50    2.40
   6 -13  -8   16.20    2.30
  -6 -13   8   16.20    3.50
  -6  13  -8   15.50    2.20
   6  13   8   14.50    2.20
  -6 -13   8   17.70    2.30
   0 -14   8    2.00    1.20
   0  14   8   -0.40    0.90
   0 -14   8    1.40    1.20
   0 -14  -8    1.90    1.40
   0 -14  -8   -0.30    1.10
   0 -14   8    2.40    1.50
   0 -14  -8    0.30    1.30
   1 -14   8    0.40    1.10
   1 -14   8   -0.30    0.90
  -1 -14  -8    0.20    1.20
   1 -14   8   -1.50    1.30
  -1 -14  -8   -1.20    1.00
  -1 -14  -8    0.10    1.20
  -1  14   8    1.30    1.00
   1 -14  -8    1.50    1.20
   1 -14  -8    0.50    1.10
   1  14   8    0.20    0.90
  -1 -14   8    0.10    1.10
   1 -14  -8    0.80    1.10
  -1 -14   8    1.70    1.40
   2 -14   8   34.00    2.90
  -2 -14  -8   39.50    3.10
   2 -14   8   35.00    2.60
   2  14  -8   37.40    2.80
   2 -14   8   34.30    3.10
  -2 -14  -8   29.20    2.90
   2  14   8   34.90    2.60
   2 -14  -8   36.20    2.70
  -2 -14   8   39.90    3.50
  -2 -14   8   34.50    2.80
   2 -14  -8   33.50    2.60
   2 -14  -8   36.20    2.90
   3  14  -8  143.59    4.90
   3  14  -8  139.99    5.30
  -3 -14  -8  134.89    5.40
  -3 -14  -8  132.09    5.30
   3 -14   8  130.29    4.70
   3 -14   8  137.69    5.50
   3  14   8  136.19    5.00
   3 -14  -8  134.49    5.30
  -3 -14   8  132.49    5.10
  -3 -14   8  130.09    5.80
   3 -14  -8  144.79    5.20
   3 -14  -8  137.59    5.00
   4  14  -8   19.60    2.30
   4  14  -8   13.60    2.20
  -4 -14  -8    9.30    1.80
   4 -14   8   17.20    2.10
  -4 -14  -8    9.90    2.30
   4 -14   8   10.50    2.00
   4 -14  -8   10.20    2.00
   4  14   8   10.20    1.90
   4 -14  -8   13.00    2.10
  -4 -14   8    9.90    1.80
   4 -14  -8   13.80    2.20
  -4 -14   8   13.20    2.40
   5  14  -8    4.70    1.50
  -5 -14   8    4.80    1.60
   5  14   8    1.00    1.30
   5 -14  -8    4.20    1.60
   5 -14  -8    3.30    1.60
   0 -15  -8   73.89    4.10
   0 -15   8   79.09    4.60
   0 -15  -8   81.69    5.50
   0 -15  -8   77.69    3.60
   0 -15   8   75.49    3.80
   0  15   8   76.09    3.60
   1 -15   8   48.10    3.70
  -1  15   8   44.70    2.70
  -1 -15  -8   43.20    3.30
   1 -15   8   44.80    3.10
   1 -15   8   45.80    3.00
  -1 -15  -8   45.00    3.40
   1 -15  -8   43.20    2.90
  -1 -15   8   42.80    3.10
   1  15   8   46.90    3.00
   1 -15  -8   46.10    3.30
   1 -15  -8   45.50    3.40
  -1 -15   8   49.40    3.80
   2 -15   8    6.70    2.00
  -2 -15  -8    6.30    1.80
  -2 -15  -8    4.90    1.60
   2 -15   8    7.60    1.70
   2 -15   8    6.30    1.70
   2  15   8    6.00    1.50
   2 -15  -8    6.20    1.60
   2 -15  -8    2.40    1.40
   2 -15  -8    3.40    1.40
  -2 -15   8    8.30    2.10
  -2 -15   8    7.60    1.60
   3  15  -8   77.59    4.10
   3 -15   8   74.09    3.80
   3 -15   8   77.79    4.30
  -3 -15  -8   64.79    4.70
   3 -15  -8   76.19    3.90
  -3 -15   8   78.09    4.00
   3  15   8   80.19    4.00
   3 -15  -8   83.89    4.60
   0  16   8    8.20    1.70
   0 -16  -8    8.40    1.70
   0 -16   8   10.60    1.90
  -1  16   8   23.90    2.30
  -1 -16  -8   25.70    3.40
   1 -16   8   23.60    2.50
  -1 -16   8   24.30    2.70
   1  16   8   21.40    2.40
   1 -16  -8   26.80    2.70
   0   0  -9   -0.40    0.40
   0   0  -9   -1.40    0.50
   0   0  -9   -1.20    0.30
  -1   0  -9  499.85    9.20
   1   0  -9  509.55    8.70
  -1   0  -9  520.35    7.90
   1   0   9  499.45    9.00
   1   0  -9  506.65    8.20
  -1   0  -9  516.95    8.50
   1   0  -9  507.85    8.00
   1   0  -9  519.55    9.80
   2   0  -9   31.60    1.30
  -2   0  -9   31.70    1.80
   2   0  -9   30.00    2.10
   2   0  -9   33.60    1.60
   2   0  -9   32.40    1.20
  -2   0  -9   32.70    1.50
   2   0   9   31.90    1.70
   3   0  -9   48.10    2.40
   3   0  -9   47.80    1.60
   3   0  -9   46.50    2.10
  -3   0  -9   46.80    2.00
   3   0   9   43.80    2.00
   3   0  -9   49.20    1.70
   3   0  -9   46.60    2.40
  -3   0  -9   47.10    2.20
   4   0   9   30.30    1.80
   4   0  -9   30.80    1.50
   4   0  -9   31.70    2.20
  -4   0  -9   29.80    1.90
  -4   0  -9   30.80    1.90
   4   0  -9   30.70    1.50
   4   0  -9   31.00    1.90
   5   0  -9    3.70    1.20
   5   0  -9    6.00    0.90
  -5   0  -9    3.20    1.00
   5   0  -9    4.20    0.80
   5   0   9    5.30    1.00
   5   0  -9    4.40    1.20
   5   0  -9    5.50    1.10
   5   0   9    6.10    1.10
  -5   0  -9    3.20    0.90
   6   0   9   38.40    2.30
   6   0  -9   41.80    2.10
   6   0   9   40.00    2.10
   6   0  -9   38.40    2.40
   6   0  -9   39.80    2.50
   6   0  -9   43.40    2.60
   6   0  -9   39.20    2.10
  -6   0  -9   43.50    2.60
  -6   0  -9   41.30    2.40
   6   0   9   40.40    2.20
   7   0   9   49.80    2.70
  -7   0  -9   46.60    2.70
   7   0  -9   46.60    2.50
   7   0  -9   51.79    3.00
   7   0  -9   46.40    2.90
   7   0  -9   47.40    2.80
   7   0  -9   48.80    2.50
   7   0   9   48.40    2.60
   8   0   9    6.40    1.50
   8   0  -9    6.10    1.30
   8   0  -9    4.70    1.40
   8   0  -9    6.00    1.30
   8   0   9    2.60    1.10
   8   0  -9    4.60    1.40
  -8   0  -9    4.80    1.30
  -8   0  -9    3.90    1.40
   8   0  -9    5.30    1.50
  -9   0  -9    5.50    1.60
   9   0  -9    4.10    1.50
   9   0   9    3.50    1.30
   9   0  -9    5.20    1.40
   9   0  -9    3.30    1.50
   9   0  -9    3.30    2.10
   9   0   9    3.80    1.40
 -10   0  -9   32.90    3.50
  10   0   9   39.90    3.10
  10   0   9   37.30    3.00
  10   0  -9   37.20    3.00
   0   1  -9    3.40    0.50
   0   1   9    3.00    0.80
   0   1  -9    3.50    0.60
   0   1  -9    4.00    0.90
   0  -1  -9    6.40    0.70
   0  -1  -9    3.70    0.90
   0   1  -9    4.00    0.40
   0  -1  -9    3.30    0.50
  -1  -1  -9  477.15    7.60
  -1  -1  -9  468.15    8.60
  -1   1   9  470.65    8.40
  -1  -1  -9  476.65    7.70
   1   1  -9  472.95    8.10
   1   1  -9  485.25    7.20
   1   1  -9  475.55    9.20
   1   1  -9  473.35    8.00
   1   1   9  464.45    8.50
   1  -1  -9  470.15    8.20
  -1   1  -9  463.85    8.70
  -1   1  -9  479.75    7.30
  -1   1  -9  474.85    8.20
   1  -1  -9  462.95    7.70
   1  -1  -9  471.85    7.40
   2   1  -9  196.88    3.50
  -2  -1  -9  191.68    4.50
  -2  -1  -9  196.18    4.00
   2   1  -9  192.68    4.00
   2   1  -9  195.28    5.10
   2   1  -9  193.78    4.40
   2  -1  -9  192.78    4.40
   2  -1  -9  196.88    3.90
   2  -1  -9  198.18    3.60
  -2   1  -9  187.28    4.30
  -2   1  -9  201.98    4.80
   2   1   9  188.28    4.50
   2  -1  -9  193.38    5.00
   3   1  -9  223.28    4.20
   3   1  -9  224.88    5.60
  -3  -1  -9  229.08    5.20
   3   1  -9  225.38    5.10
   3   1  -9  223.58    4.70
  -3  -1  -9  229.08    4.80
   3   1  -9  222.28    5.50
  -3   1  -9  229.18    5.30
   3  -1  -9  223.58    5.50
   3  -1  -9  226.38    5.20
   3  -1  -9  218.98    4.30
   3   1   9  225.98    5.10
   3  -1  -9  221.48    4.50
   3  -1  -9  220.68    5.40
  -3   1  -9  228.38    5.10
  -4  -1  -9  161.58    4.20
   4   1  -9  161.98    4.00
   4   1  -9  164.88    4.70
   4   1  -9  169.18    3.70
  -4  -1  -9  162.18    4.30
   4   1  -9  168.48    4.80
   4   1  -9  165.68    4.40
   4  -1   9  171.38    4.00
  -4   1  -9  168.88    4.50
   4  -1  -9  164.58    4.50
   4  -1  -9  174.58    4.70
   4  -1  -9  161.98    3.80
   4  -1  -9  156.78    4.50
   4   1   9  162.08    4.30
  -4   1  -9  166.38    4.50
   4  -1  -9  161.98    3.70
   5   1  -9   51.59    2.20
   5   1  -9   54.59    2.10
   5   1  -9   52.49    2.60
   5   1  -9   53.09    2.70
  -5  -1  -9   48.20    2.40
   5   1  -9   47.20    2.70
   5  -1   9   55.49    2.20
  -5  -1  -9   52.69    2.40
   5   1   9   51.79    2.40
   5  -1  -9   50.79    2.50
   5  -1  -9   53.79    2.60
   5  -1  -9   47.40    2.10
  -5   1  -9   47.60    2.50
   5  -1  -9   56.59    2.20
   5  -1  -9   52.09    2.60
  -5   1  -9   52.19    2.60
   6   1  -9   30.30    2.30
   6   1  -9   24.20    2.00
  -6  -1  -9   28.30    2.00
   6   1  -9   29.20    1.90
   6  -1   9   30.80    2.10
   6   1  -9   29.60    1.80
   6   1  -9   24.00    2.10
   6  -1   9   28.90    1.90
   6  -1  -9   27.80    1.80
   6  -1  -9   32.60    2.20
   6   1   9   25.40    1.90
   6  -1  -9   25.40    2.30
   6   1   9   27.30    1.90
  -6   1  -9   27.70    2.20
  -6   1  -9   27.70    2.10
   6  -1  -9   28.30    1.80
   6   1   9   28.40    1.90
   6  -1  -9   29.90    2.20
   7   1  -9   35.50    2.10
   7  -1   9   29.10    2.10
   7   1  -9   30.60    2.30
   7   1  -9   28.00    2.10
  -7  -1  -9   31.40    2.30
   7   1  -9   31.00    2.50
   7   1  -9   30.60    2.50
   7  -1   9   27.90    2.20
   7  -1  -9   30.30    2.10
   7   1   9   31.20    2.10
  -7   1  -9   30.40    2.50
   7  -1  -9   28.50    2.50
  -7   1  -9   27.90    2.20
   7   1   9   33.50    2.10
   7  -1  -9   34.40    2.10
   7  -1  -9   32.60    2.50
   7   1   9   29.40    2.20
   7  -1  -9   33.40    2.30
   8   1  -9   85.79    3.60
   8  -1   9   83.89    3.60
   8  -1   9   88.59    3.80
   8   1  -9   84.09    3.70
  -8  -1  -9   86.99    3.80
  -8  -1  -9   88.79    3.70
   8   1  -9   93.39    4.10
   8   1  -9   84.09    3.70
   8  -1  -9   85.89    3.50
   8   1   9   82.19    3.60
  -8   1  -9   91.99    3.90
   8  -1  -9   87.29    3.50
   8  -1  -9   83.99    3.70
   8  -1  -9   83.99    3.40
   8  -1  -9   81.09    4.00
   8   1   9   80.49    3.60
   9   1  -9   99.19    4.30
   9  -1   9  100.69    4.30
  -9  -1  -9   96.89    4.20
   9  -1   9   97.39    4.20
   9   1  -9   98.69    4.60
   9   1  -9   94.69    4.20
   9   1   9   95.19    4.30
   9  -1  -9   99.99    4.00
   9  -1  -9   99.29    4.30
   9   1   9   95.39    4.10
  -9   1  -9   95.59    4.30
   9  -1  -9   89.19    4.20
  10   1  -9    8.90    1.90
  10  -1   9    9.00    1.80
 -10  -1  -9   11.60    2.20
  10  -1   9   10.00    1.80
  10  -1  -9    9.80    1.90
  10   1   9   11.70    2.10
  10   1   9   13.50    2.10
   0   2  -9  215.48    4.60
   0   2   9  219.88    4.80
   0  -2  -9  219.18    4.80
   0   2  -9  223.08    4.20
   0   2  -9  213.08    4.90
   0  -2  -9  222.58    4.40
   1   2  -9  494.65    9.10
  -1  -2  -9  504.95    8.10
   1   2  -9  496.45    8.60
   1   2  -9  496.55    9.70
  -1  -2  -9  503.05    7.80
  -1  -2  -9  496.05    8.90
   1   2  -9  507.85    8.50
  -1   2   9  508.15    8.80
  -1   2  -9  495.45    9.20
   1  -2  -9  501.45    8.70
  -1   2  -9  504.35    7.70
   1  -2  -9  504.75    8.40
   1   2   9  494.65    9.00
  -1   2  -9  498.95    8.80
  -2  -2  -9  152.88    3.80
  -2  -2  -9  146.19    3.20
   2   2  -9  151.68    3.70
   2   2  -9  146.69    3.60
  -2  -2  -9  153.18    2.90
  -2   2   9  144.99    3.50
  -2   2  -9  149.88    3.80
   2  -2  -9  150.18    2.60
  -2   2  -9  145.39    4.00
   2   2   9  146.79    3.80
   2  -2  -9  149.59    4.20
   2  -2  -9  146.99    3.80
   2  -2  -9  148.29    3.40
   2  -2  -9  144.59    2.60
   3   2  -9   84.89    3.30
   3   2  -9   92.39    2.70
   3   2  -9   87.69    2.90
   3   2  -9   88.39    2.70
  -3  -2  -9   86.79    2.60
  -3  -2  -9   92.29    2.90
   3  -2  -9   87.29    3.10
   3  -2  -9   88.99    3.00
   3  -2  -9   92.59    2.20
  -3   2  -9   82.29    3.00
   3  -2  -9   95.49    2.10
   3  -2  -9   91.09    2.60
   3  -2  -9   89.79    3.20
  -3   2  -9   91.49    3.00
   3   2   9   85.49    2.90
   4   2  -9   28.30    2.10
   4   2  -9   30.50    1.90
   4  -2   9   26.50    1.40
   4   2  -9   30.50    1.40
   4   2  -9   29.50    1.70
  -4  -2  -9   30.00    1.80
   4   2  -9   29.60    2.30
   4  -2  -9   29.50    1.30
   4   2   9   28.40    1.80
   4  -2  -9   29.50    2.10
   4  -2  -9   28.80    1.90
   4  -2  -9   28.70    1.60
   4  -2  -9   30.00    2.00
  -4   2  -9   22.90    1.80
  -4   2  -9   26.90    1.90
   5   2  -9   62.59    2.30
   5   2  -9   60.69    2.90
   5   2  -9   59.69    3.00
   5   2  -9   60.09    2.80
   5  -2   9   63.99    2.40
   5   2  -9   62.89    2.60
  -5  -2  -9   62.89    2.60
   5  -2  -9   62.59    2.70
   5  -2  -9   60.69    2.70
  -5   2  -9   57.69    2.70
  -5   2  -9   57.79    2.80
   5  -2  -9   57.39    2.10
   5  -2  -9   57.99    2.80
   5   2   9   63.39    2.60
   5  -2  -9   60.09    2.40
   6   2  -9   30.50    2.30
   6  -2   9   28.50    2.00
   6   2  -9   29.10    2.00
   6   2  -9   29.70    2.40
  -6  -2  -9   33.10    2.10
   6  -2   9   29.90    1.80
   6   2  -9   28.40    2.30
  -6   2  -9   29.70    2.20
   6  -2  -9   29.80    1.90
   6   2   9   29.50    2.00
   6   2   9   28.90    2.00
   6  -2  -9   28.80    2.30
   6  -2  -9   32.60    1.80
   6  -2  -9   31.20    2.20
  -6   2  -9   31.10    2.30
   6  -2  -9   33.30    2.30
   7   2  -9   63.69    3.20
   7  -2   9   65.79    2.90
   7  -2   9   61.99    3.10
   7   2  -9   65.69    3.40
   7   2  -9   63.49    3.00
  -7  -2  -9   69.69    3.20
  -7  -2  -9   63.29    2.90
   7   2  -9   64.49    3.30
   7   2   9   63.59    3.00
   7  -2  -9   67.39    3.30
   7   2   9   64.89    2.80
   7  -2  -9   57.09    3.20
   7  -2  -9   66.79    3.00
   7  -2  -9   60.49    2.90
  -7   2  -9   69.09    3.30
  -7   2  -9   67.09    3.50
   7  -2  -9   63.39    2.70
  -8  -2  -9    7.10    1.40
   8  -2   9    6.80    1.60
   8   2  -9    5.60    1.30
   8  -2   9    5.50    1.20
   8   2  -9    6.10    1.70
   8   2  -9    6.70    1.70
  -8  -2  -9    8.10    1.60
   8   2  -9    5.80    1.60
   8   2   9    5.90    1.40
   8  -2  -9    6.10    1.60
   8   2   9    5.30    1.40
   8  -2  -9    3.70    1.10
   8  -2  -9    6.90    1.60
  -8   2  -9    8.50    1.70
   8  -2  -9    8.20    1.50
   9   2  -9   37.80    2.90
  -9  -2  -9   40.40    3.00
   9  -2   9   33.70    2.80
   9  -2   9   35.40    2.70
   9   2  -9   37.50    3.00
   9   2  -9   36.20    2.90
  -9  -2  -9   38.10    2.60
   9  -2  -9   35.10    2.70
   9  -2  -9   32.60    2.90
  -9   2  -9   32.70    3.00
   9   2   9   30.60    2.60
   9   2   9   34.90    2.80
   9  -2  -9   37.90    2.90
  10   2  -9    8.60    1.80
  10  -2   9    8.20    1.80
  10  -2   9   10.80    2.10
  10   2  -9   10.50    1.90
  10  -2  -9   10.00    2.00
  10  -2  -9   10.00    1.90
  10   2   9    7.40    1.80
   0   3  -9   44.80    2.30
   0   3   9   46.40    2.00
   0  -3   9   42.40    1.70
   0   3  -9   48.80    1.60
   0   3  -9   48.00    2.00
   0  -3  -9   47.10    2.00
   0   3  -9   44.80    2.10
   1   3  -9   80.19    2.60
   1   3  -9   75.89    2.70
   1  -3   9   76.59    2.60
   1   3  -9   74.39    3.00
   1   3  -9   75.69    2.30
   1  -3   9   76.39    2.20
  -1  -3  -9   75.59    2.50
  -1   3   9   75.79    2.50
  -1   3  -9   77.49    2.60
   1   3   9   73.99    2.50
  -1   3  -9   77.39    1.80
  -1   3  -9   75.69    2.70
  -1  -3   9   76.39    2.40
   1  -3  -9   78.39    2.50
   2   3  -9   31.80    1.60
   2  -3   9   29.40    1.80
   2   3  -9   26.80    2.00
   2   3  -9   28.10    1.60
  -2  -3  -9   28.50    1.60
  -2   3   9   29.00    1.50
   2  -3   9   27.40    1.20
  -2  -3  -9   28.00    1.10
  -2   3  -9   28.50    1.70
   2  -3  -9   27.70    1.60
   2   3   9   28.00    1.60
   2  -3  -9   30.80    1.90
   2  -3  -9   29.10    1.50
  -2   3  -9   27.20    1.70
   2  -3  -9   28.10    1.40
   3  -3   9  115.89    2.50
   3   3  -9  117.59    3.50
   3   3  -9  110.59    3.80
   3  -3   9  117.89    2.70
   3   3  -9  113.29    3.30
  -3  -3  -9  117.79    3.30
   3  -3   9  115.19    3.70
   3  -3  -9  112.49    3.50
   3  -3  -9  117.29    3.50
  -3   3  -9  118.39    3.60
  -3   3  -9  120.29    3.70
   3   3   9  113.49    3.40
   3  -3  -9  123.49    3.70
   3  -3  -9  115.19    2.30
   3  -3  -9  119.69    2.80
   3  -3  -9  111.89    3.10
   4   3  -9    5.40    1.10
   4   3  -9    3.70    1.20
  -4  -3  -9    5.30    0.90
   4  -3   9    6.60    0.80
   4   3  -9    4.50    0.90
   4   3  -9    5.90    1.20
   4  -3   9    6.90    1.30
  -4   3  -9    4.20    1.10
  -4   3  -9    5.10    1.10
   4  -3  -9    4.90    1.10
   4   3   9    5.30    1.00
   4  -3  -9    4.80    1.10
   4  -3  -9    6.00    0.70
   4  -3  -9    5.20    0.90
   4  -3  -9    6.60    1.30
   5  -3   9   11.70    1.20
   5   3  -9   10.40    1.70
   5   3  -9   11.10    1.30
   5  -3   9   10.10    1.50
   5   3  -9   10.90    1.60
  -5  -3  -9    9.00    1.20
   5   3  -9    8.00    1.20
   5  -3  -9   11.80    1.50
   5  -3  -9   10.30    1.30
   5  -3  -9   10.50    1.00
   5  -3  -9    9.80    1.40
   5  -3  -9    7.80    1.30
  -5   3  -9    9.70    1.40
  -5   3  -9    9.00    1.40
   5   3   9   11.00    1.40
   6  -3   9   51.59    2.70
   6   3  -9   58.29    3.00
  -6  -3  -9   53.69    2.50
  -6  -3  -9   49.40    2.70
   6   3  -9   49.99    2.80
   6   3  -9   55.19    2.70
   6  -3   9   55.29    2.40
   6   3  -9   52.19    2.80
   6  -3  -9   52.79    2.50
  -6   3  -9   53.59    2.80
   6   3   9   51.59    2.50
   6  -3  -9   53.89    2.20
  -6   3  -9   53.29    3.00
   6  -3  -9   55.39    2.80
   6  -3  -9   51.49    2.50
   6  -3  -9   54.09    2.80
  -7  -3  -9   83.39    3.30
   7   3  -9   87.09    3.70
  -7  -3  -9   82.69    3.60
   7  -3   9   79.49    3.20
   7  -3   9   80.39    3.50
   7   3  -9   82.49    3.50
   7   3  -9   85.09    3.80
   7   3  -9   77.29    3.70
  -7   3  -9   82.29    3.60
   7   3   9   82.69    3.30
  -7   3  -9   83.19    3.90
   7   3   9   84.89    3.30
   7  -3  -9   83.99    3.40
   7  -3  -9   78.39    3.50
   7  -3  -9   83.89    3.80
   7  -3  -9   81.99    3.00
  -8  -3  -9    9.90    1.60
   8  -3   9   11.00    1.60
   8   3  -9   12.60    2.00
   8  -3   9   10.50    1.80
  -8  -3  -9    8.90    1.60
   8   3  -9   10.10    1.90
   8   3  -9   10.50    1.90
   8  -3  -9   11.40    1.80
   8  -3  -9    9.70    1.80
   8   3   9   13.00    1.80
  -8   3  -9   11.90    1.90
   8  -3  -9   12.20    1.60
   8  -3  -9   13.50    1.80
  -9  -3  -9   42.10    2.90
   9   3  -9   42.90    3.00
   9  -3   9   41.80    2.90
   9   3  -9   43.90    3.20
   9  -3   9   42.90    3.00
   9   3  -9   46.40    3.20
   9  -3  -9   45.40    3.10
  -9   3  -9   37.60    3.10
   9   3   9   44.30    2.90
   9  -3  -9   44.20    3.00
   9  -3  -9   44.40    3.30
  10   3  -9   74.59    3.90
  10  -3   9   86.79    4.20
  10   3  -9   82.49    4.10
  10  -3  -9   85.89    4.10
  10   3   9   81.69    3.90
   0   4  -9   44.30    2.20
   0  -4   9   47.70    1.80
   0   4   9   44.90    2.00
   0  -4  -9   46.90    2.00
   0   4  -9   45.30    1.60
   0   4  -9   43.90    2.40
   0  -4   9   45.10    1.80
   0   4  -9   46.50    2.10
   1  -4   9   81.49    2.70
   1   4  -9   78.09    2.40
  -1   4   9   75.69    2.50
   1   4  -9   77.49    2.70
   1   4  -9   74.89    2.70
   1   4  -9   74.79    3.10
   1  -4   9   73.89    2.20
  -1  -4  -9   78.59    2.50
  -1  -4   9   74.29    2.50
  -1   4  -9   79.49    1.90
   1   4   9   81.59    2.70
  -1   4  -9   74.59    2.70
  -1   4  -9   80.19    2.90
  -2  -4  -9   13.80    1.20
   2   4  -9   17.30    1.30
  -2  -4  -9   19.20    1.40
   2   4  -9   15.20    1.70
  -2   4   9   18.50    1.30
   2  -4   9   16.20    1.00
   2   4  -9   18.70    1.50
   2  -4   9   17.20    1.50
   2  -4  -9   18.20    1.60
   2  -4  -9   17.50    1.60
  -2   4  -9   17.20    1.60
  -2   4  -9   17.60    1.50
  -2  -4   9   18.10    1.60
   2  -4  -9   16.70    1.30
   2   4   9   16.10    1.30
   2  -4  -9   17.10    1.40
  -2  -4   9   17.20    1.30
   2  -4  -9   17.10    1.30
  -3  -4  -9   93.89    2.80
   3   4  -9  100.49    3.20
   3   4  -9   96.39    3.60
   3   4  -9   93.99    3.10
   3  -4   9   93.09    2.40
  -3   4   9   97.49    2.70
   3  -4   9   89.99    3.30
   3   4   9   98.09    3.20
   3  -4  -9   96.19    3.00
   3  -4  -9   93.09    3.20
   3  -4  -9   97.39    1.90
  -3   4  -9   91.59    3.40
   3  -4  -9   99.59    2.70
  -3   4  -9   91.99    3.20
   3  -4  -9   95.39    3.20
  -3  -4   9   99.19    3.40
   3  -4  -9   99.39    3.20
   4   4  -9   16.90    1.80
   4   4  -9   20.20    1.70
   4  -4   9   20.20    1.20
   4   4  -9   19.20    1.70
   4   4  -9   22.10    2.00
  -4  -4  -9   21.60    1.50
   4  -4   9   22.30    1.90
   4   4   9   19.90    1.80
  -4  -4   9   20.80    1.70
   4  -4  -9   18.20    1.70
   4  -4  -9   19.50    1.00
  -4   4  -9   18.10    1.80
   4  -4  -9   18.10    1.70
   4  -4  -9   18.60    1.70
  -4   4  -9   15.80    1.70
   4  -4  -9   19.40    1.50
  -5  -4  -9   42.20    2.00
   5   4  -9   40.20    2.40
  -5  -4  -9   37.80    2.30
   5  -4   9   39.20    2.50
   5  -4   9   42.20    1.90
   5   4  -9   42.30    2.40
   5   4  -9   44.30    2.40
   5   4  -9   39.40    2.70
  -5   4  -9   40.80    2.60
   5  -4  -9   38.30    1.60
   5   4   9   46.00    2.40
   5  -4  -9   38.90    2.10
  -5   4  -9   39.90    2.40
   5  -4  -9   35.70    2.30
   5  -4  -9   40.50    2.30
  -5  -4   9   39.60    2.10
   5  -4  -9   37.00    2.10
   6  -4   9  207.98    5.00
   6   4  -9  194.98    5.70
   6   4  -9  195.68    5.40
   6   4  -9  193.68    5.60
   6  -4   9  194.48    5.90
   6   4  -9  196.28    5.40
  -6  -4  -9  189.58    4.80
  -6  -4  -9  193.58    5.60
   6  -4  -9  194.18    5.30
   6  -4  -9  190.38    5.70
  -6   4  -9  196.68    5.90
   6   4   9  193.48    5.20
  -6   4  -9  196.78    5.60
   6  -4  -9  193.78    4.50
   6  -4  -9  195.98    5.30
   7   4  -9    3.20    1.30
   7   4  -9    1.50    0.90
  -7  -4  -9    1.70    1.10
   7   4  -9    2.50    1.40
   7  -4   9    0.50    1.00
  -7  -4  -9    3.00    1.30
   7  -4   9    1.70    0.90
   7   4  -9    3.20    1.40
   7   4   9    1.00    1.00
   7  -4  -9   -0.90    1.10
   7   4   9    0.90    0.90
   7  -4  -9    1.00    1.10
   7  -4  -9    2.30    0.80
   7  -4  -9    1.10    1.00
  -7   4  -9    3.20    1.20
  -7   4  -9    1.60    1.10
   8  -4   9   52.29    3.10
  -8  -4  -9   45.80    2.90
   8   4  -9   50.39    3.10
   8   4  -9   51.79    3.20
   8   4  -9   38.80    3.00
   8  -4   9   48.50    3.20
   8  -4  -9   47.30    3.20
   8  -4  -9   46.10    2.90
   8   4   9   47.50    2.70
  -8   4  -9   45.30    3.10
   8  -4  -9   51.59    3.00
   8  -4  -9   44.20    2.50
   8   4   9   47.60    2.70
   9  -4   9    4.90    1.50
   9   4  -9    3.50    1.50
   9   4  -9    4.00    1.50
   9   4  -9    5.20    1.70
  -9  -4  -9    2.40    1.30
  -9   4  -9    1.40    1.60
   9  -4  -9    7.10    1.80
   9   4   9    3.40    1.30
   9  -4  -9    4.70    1.50
   9  -4  -9    2.00    1.40
   0   5  -9  508.95    9.60
   0   5  -9  515.55   10.10
   0   5   9  515.85    9.30
   0   5  -9  500.25    9.50
   0   5  -9  513.05    8.60
   0  -5   9  514.45    9.10
   0  -5  -9  518.95    9.00
   0  -5   9  505.95    9.00
   1   5  -9   37.80    2.00
  -1  -5  -9   41.80    1.80
  -1   5   9   37.90    1.80
   1   5  -9   36.10    2.30
  -1  -5  -9   37.20    1.50
   1  -5   9   40.10    1.70
   1  -5   9   37.70    1.90
   1   5  -9   38.80    2.00
   1   5  -9   35.20    1.70
   1   5   9   38.10    2.00
  -1  -5   9   37.90    1.50
  -1  -5   9   36.30    2.20
  -1   5  -9   36.60    2.10
  -1   5  -9   35.30    1.90
  -1   5  -9   36.10    2.20
  -1   5  -9   39.50    1.40
  -1  -5   9   34.50    1.70
   2   5  -9   20.60    1.50
   2  -5   9   20.50    1.20
   2   5  -9   19.60    2.00
   2   5  -9   18.40    1.60
   2   5  -9   22.60    1.70
  -2   5   9   19.90    1.30
   2  -5   9   20.30    1.60
  -2  -5  -9   18.30    1.30
   2   5   9   18.20    1.50
   2  -5  -9   20.00    1.30
   2  -5  -9   21.60    1.50
  -2  -5   9   20.40    1.80
   2  -5  -9   19.10    1.40
  -2  -5   9   20.80    1.60
   2  -5  -9   21.00    1.60
  -2   5  -9   19.80    1.70
   2  -5  -9   20.80    1.60
  -2   5  -9   18.00    1.60
   3   5  -9   39.70    2.20
   3   5  -9   35.40    2.50
   3  -5   9   34.90    1.50
   3   5  -9   38.30    2.20
   3   5  -9   36.00    2.00
   3  -5   9   38.40    2.20
  -3  -5  -9   32.90    2.10
  -3   5   9   33.10    1.60
  -3  -5  -9   35.10    1.70
   3  -5  -9   35.70    2.00
  -3   5  -9   35.30    2.10
  -3  -5   9   35.30    2.00
  -3  -5   9   36.80    2.20
   3   5   9   32.40    1.90
   3  -5  -9   38.50    2.10
   3  -5  -9   36.90    2.10
  -3   5  -9   35.10    2.30
   3  -5  -9   38.10    1.80
   3  -5  -9   36.10    1.90
   3  -5  -9   35.80    1.50
  -4  -5  -9   32.90    1.70
   4   5  -9   30.20    1.90
   4   5  -9   31.50    2.10
   4  -5   9   30.70    2.20
   4   5  -9   30.80    2.20
  -4  -5  -9   33.10    2.10
   4   5  -9   29.80    2.50
  -4   5  -9   37.30    2.40
  -4   5  -9   32.40    2.20
   4  -5  -9   34.90    1.90
   4  -5  -9   31.40    2.00
   4  -5  -9   32.20    1.20
   4   5   9   31.00    2.00
   4  -5  -9   30.90    1.90
   4  -5  -9   32.90    1.70
   4  -5  -9   32.50    2.00
  -4  -5   9   31.30    2.10
   5   5  -9    1.50    0.90
  -5  -5  -9    0.90    0.90
   5  -5   9    1.50    1.00
   5   5  -9    1.30    1.10
   5   5  -9    1.20    0.90
  -5  -5  -9    1.10    0.70
   5   5  -9    3.80    1.30
   5  -5  -9    1.20    0.80
   5  -5  -9    1.90    0.60
  -5   5  -9    1.70    1.00
   5   5   9    2.20    1.00
  -5   5  -9    2.10    0.90
  -5  -5   9    2.20    0.90
   5  -5  -9    2.80    1.00
   5  -5  -9    1.80    1.00
   6   5  -9   39.60    2.50
   6  -5   9   32.20    2.70
   6   5  -9   37.00    2.70
   6   5  -9   38.70    2.50
  -6  -5  -9   37.40    2.60
   6   5  -9   37.20    2.60
   6  -5  -9   33.80    2.50
  -6   5  -9   38.10    2.60
  -6   5  -9   39.70    2.90
   6  -5  -9   34.90    2.30
   6   5   9   33.80    2.30
   6  -5  -9   40.70    2.40
   6  -5  -9   34.10    1.80
   7   5  -9   38.60    2.70
   7  -5   9   48.90    3.30
  -7  -5  -9   39.60    2.70
   7   5  -9   37.30    2.80
   7  -5   9   40.50    2.50
   7   5  -9   41.90    3.10
   7   5  -9   41.90    2.60
   7  -5  -9   39.30    2.10
  -7   5  -9   41.60    2.90
   7  -5  -9   39.80    2.60
   7   5   9   38.70    2.50
   7  -5  -9   39.20    2.80
   7  -5  -9   42.20    2.60
  -7   5  -9   36.60    3.00
   8   5  -9   19.50    2.30
   8  -5   9   18.10    2.20
   8   5  -9   18.60    2.20
  -8  -5  -9   16.50    2.10
   8   5  -9   16.60    2.40
   8   5   9   20.00    2.00
   8  -5  -9   20.30    2.00
   8  -5  -9   19.50    2.20
  -8   5  -9   18.80    2.40
   8  -5  -9   18.50    2.10
   8  -5  -9   17.70    2.20
   9  -5   9   15.70    2.10
   9   5  -9   16.90    2.50
   9   5  -9   19.40    2.40
   9   5  -9   17.70    2.30
  -9  -5  -9   18.20    2.10
  -9   5  -9   17.10    2.40
   9   5   9   17.30    2.10
   9  -5  -9   14.80    2.30
   9  -5  -9   20.80    2.40
   9  -5  -9   17.70    2.10
   0  -6  -9   85.39    2.60
   0  -6  -9   82.49    2.90
   0   6   9   83.89    2.90
   0  -6   9   81.09    2.70
   0   6  -9   89.09    3.10
   0   6  -9   84.29    2.50
   0  -6  -9   85.29    2.60
   0  -6   9   88.89    3.50
   0   6  -9   86.89    3.20
   0   6  -9   87.59    3.40
   0  -6   9   88.09    2.80
   1  -6   9  167.58    4.00
   1   6  -9  172.28    4.50
  -1   6   9  168.08    4.20
   1   6  -9  170.48    4.10
  -1  -6  -9  173.48    3.80
  -1  -6  -9  172.38    3.90
   1   6  -9  172.48    4.70
   1  -6   9  172.98    4.40
  -1  -6  -9  175.98    4.60
   1   6  -9  173.08    5.00
  -1   6  -9  165.18    4.50
   1  -6  -9  172.08    4.40
   1   6   9  171.78    4.40
   1  -6  -9  171.88    4.20
  -1   6  -9  174.58    3.70
  -1  -6   9  171.48    3.90
  -1   6  -9  171.78    4.80
  -1  -6   9  163.78    4.90
  -1  -6   9  160.68    4.20
  -1   6  -9  166.48    4.80
   2  -6   9    7.60    1.20
   2   6  -9    8.50    1.50
  -2   6   9    6.40    1.00
  -2  -6  -9    6.80    0.80
   2   6  -9    5.50    1.00
  -2  -6  -9    5.70    1.20
   2  -6   9    5.00    0.80
   2   6  -9    6.70    1.10
   2   6  -9    7.70    1.20
  -2   6  -9    4.80    1.10
  -2   6  -9    3.60    1.10
  -2  -6   9    6.80    1.30
   2  -6  -9    5.20    1.00
   2  -6  -9    5.90    1.00
   2  -6  -9    4.70    1.00
   2  -6  -9    4.50    1.00
  -2  -6   9    6.70    1.10
   2   6   9    4.50    1.00
  -2   6  -9    7.90    1.30
   2  -6  -9    6.50    0.90
   3   6  -9   54.99    2.70
   3  -6   9   48.80    2.50
   3   6  -9   52.59    2.60
  -3  -6  -9   50.39    2.50
   3   6  -9   54.09    2.90
   3   6  -9   51.49    2.50
   3  -6   9   50.89    1.90
  -3   6   9   53.99    2.10
  -3  -6  -9   54.79    2.00
   3  -6  -9   58.59    2.50
   3  -6  -9   50.79    2.20
  -3  -6   9   57.69    2.80
  -3   6  -9   54.19    2.80
  -3   6  -9   50.79    2.50
   3  -6  -9   50.89    2.30
   3   6   9   52.29    2.50
   3  -6  -9   53.09    2.30
  -3  -6   9   53.29    2.50
   4  -6   9    2.30    1.00
   4   6  -9    1.70    0.90
   4   6  -9    1.90    0.90
   4   6  -9    1.20    1.10
  -4  -6  -9    1.40    0.90
   4   6  -9    2.90    1.10
   4  -6  -9    2.00    0.90
   4  -6  -9    1.70    0.90
   4   6   9    1.60    0.90
  -4  -6   9    1.90    1.00
   4  -6  -9    2.80    0.80
   4  -6  -9    2.30    1.00
  -4  -6   9    1.40    1.00
   4  -6  -9    2.20    0.40
  -4   6  -9    2.00    1.00
  -4   6  -9    0.80    0.90
   5   6  -9   -0.20    0.80
  -5  -6  -9   -0.40    0.70
   5   6  -9    0.70    1.10
   5   6  -9   -0.90    0.90
   5   6  -9   -0.70    0.80
   5  -6   9    0.50    0.90
   5  -6  -9    0.40    0.80
   5  -6  -9    0.60    0.90
   5  -6  -9    0.80    0.90
   5   6   9    0.50    0.90
   5  -6  -9    1.00    0.50
  -5  -6   9    0.50    0.90
  -5   6  -9    0.20    1.00
  -5   6  -9    0.30    1.00
   6   6  -9  195.18    5.80
   6   6  -9  184.18    5.70
  -6  -6  -9  192.88    5.80
   6   6  -9  184.88    5.40
   6   6  -9  189.48    5.80
   6  -6   9  184.28    6.00
   6  -6  -9  207.98    6.00
   6   6   9  194.48    5.40
   6  -6  -9  197.08    5.50
  -6   6  -9  186.48    5.70
  -6  -6   9  192.38    5.50
   6  -6  -9  194.28    4.40
  -6   6  -9  193.48    6.10
   6  -6  -9  187.68    5.10
   7   6  -9   84.89    4.00
   7   6  -9   85.49    3.70
   7   6  -9   88.39    4.00
   7   6  -9   88.89    4.00
   7  -6   9   83.69    4.20
  -7  -6  -9   89.09    3.90
  -7   6  -9   85.99    4.30
   7  -6  -9   85.79    4.00
   7  -6  -9   82.89    3.50
  -7   6  -9   93.29    4.00
   7  -6  -9   79.99    3.00
   7  -6  -9   85.69    3.70
   7   6   9   83.69    3.50
   8  -6   9   26.70    2.90
   8   6  -9   31.10    2.80
   8   6  -9   34.10    2.70
   8  -6   9   33.40    2.70
   8   6  -9   33.00    3.20
  -8  -6  -9   32.60    2.70
   8  -6  -9   30.50    2.80
   8   6   9   28.30    2.30
   8  -6  -9   35.60    2.70
   8  -6  -9   34.80    2.80
  -8   6  -9   32.80    2.90
  -9  -6  -9    8.40    1.70
   9   6  -9    3.00    2.40
   9   6  -9   13.20    2.20
   9  -6   9    9.40    1.80
   9   6  -9    5.00    1.50
   9  -6  -9    8.60    2.30
   9  -6  -9    9.30    1.80
   9  -6  -9    9.30    1.90
   0   7  -9  497.05    8.80
   0  -7  -9  487.35    8.80
   0   7  -9  475.35    9.30
   0  -7   9  497.85    9.10
   0  -7  -9  490.25    9.30
   0  -7  -9  480.85    9.50
   0   7  -9  483.25    9.80
   0   7  -9  495.75   10.00
   0   7   9  502.95    9.20
   0  -7   9  489.25    9.10
   0  -7   9  476.05   10.20
   0  -7  -9  501.45    8.60
   1  -7   9  145.59    3.80
   1   7  -9  142.69    4.10
  -1  -7  -9  146.59    3.50
  -1  -7  -9  146.09    3.40
   1  -7   9  147.09    4.10
  -1   7   9  146.09    3.90
   1   7  -9  144.89    4.60
   1   7  -9  147.19    4.50
   1   7  -9  141.89    3.80
  -1  -7  -9  145.19    4.20
  -1   7  -9  147.89    3.50
   1  -7  -9  145.79    3.90
  -1  -7   9  139.79    4.70
  -1   7  -9  139.89    4.10
  -1  -7   9  149.19    4.10
  -1   7  -9  142.39    4.50
   1  -7  -9  147.19    3.70
  -1   7  -9  139.09    4.50
   1  -7  -9  148.49    4.20
   1  -7  -9  149.19    3.90
  -1  -7   9  146.69    3.60
   1   7   9  141.89    4.10
   2  -7   9  137.59    4.20
   2   7  -9  137.09    4.00
  -2   7   9  132.59    3.60
   2  -7   9  137.79    3.60
   2   7  -9  140.99    4.40
  -2  -7  -9  138.69    4.20
   2   7  -9  138.49    4.60
   2   7  -9  140.29    4.00
  -2   7  -9  129.09    4.40
   2  -7  -9  141.49    3.70
  -2   7  -9  136.99    4.30
   2   7   9  128.39    3.90
  -2   7  -9  131.69    4.10
   2  -7  -9  136.29    4.10
   2  -7  -9  137.19    3.80
  -2  -7   9  142.89    4.70
   2  -7  -9  133.79    3.90
   2  -7  -9  142.09    4.00
  -2  -7   9  138.59    4.00
   2  -7  -9  135.09    3.50
   3   7  -9   33.20    2.20
   3  -7   9   32.30    2.20
   3   7  -9   31.00    2.30
   3   7  -9   33.90    2.10
  -3  -7  -9   31.60    2.10
   3   7  -9   32.50    2.30
   3  -7   9   30.60    1.60
  -3   7   9   29.60    1.60
   3   7  -9   28.80    1.90
   3  -7  -9   31.50    2.00
  -3   7  -9   32.80    2.40
  -3   7  -9   30.00    2.10
  -3   7  -9   30.60    2.10
   3  -7  -9   33.20    1.90
   3   7   9   29.70    2.00
  -3  -7   9   28.80    2.30
   3  -7  -9   34.10    2.10
  -3  -7   9   31.30    2.00
  -4  -7  -9   11.30    1.60
   4   7  -9   10.50    1.40
   4   7  -9   12.20    1.60
   4   7  -9   10.70    1.80
   4   7  -9   14.00    1.80
   4  -7   9   14.50    1.40
   4  -7   9   12.80    1.80
   4  -7  -9   11.40    1.50
   4  -7  -9   11.70    1.60
  -4   7  -9   12.00    1.70
  -4   7  -9   11.70    1.60
   4   7   9   13.60    1.60
   4  -7  -9   12.20    1.40
  -4  -7   9   12.00    1.60
  -4  -7   9   10.80    1.70
   4  -7  -9   14.40    1.50
   5   7  -9   26.00    2.20
   5   7  -9   24.80    2.40
  -5  -7  -9   24.60    2.40
   5   7  -9   19.40    2.20
   5   7  -9   25.70    2.20
   5  -7   9   23.40    2.20
  -5   7  -9   26.40    2.60
   5  -7  -9   24.50    2.10
   5  -7  -9   23.60    1.90
  -5  -7   9   22.30    2.20
  -5   7  -9   27.10    2.20
   5   7   9   24.20    2.20
   5  -7  -9   22.10    2.00
   6   7  -9   59.69    3.30
  -6  -7  -9   65.39    3.40
   6   7  -9   60.89    3.30
   6   7  -9   60.79    3.50
   6   7  -9   62.59    3.10
   6  -7   9   61.89    3.40
   6  -7  -9   58.99    2.80
  -6  -7   9   59.99    3.10
   6  -7  -9   62.19    3.20
  -6   7  -9   63.19    3.70
  -6   7  -9   57.99    3.20
   6   7   9   59.89    3.00
   6  -7  -9   65.19    3.40
   6  -7  -9   57.49    3.10
   7   7  -9  131.69    5.00
   7  -7   9  132.99    5.40
   7   7  -9  134.79    4.60
   7   7  -9  129.89    5.00
  -7  -7  -9  134.49    4.90
   7  -7  -9  136.39    5.10
   7   7   9  127.19    4.60
  -7   7  -9  132.79    5.00
   7  -7  -9  129.19    4.70
   7  -7  -9  133.59    4.40
   8  -7   9   61.89    3.90
   8   7  -9   62.59    3.30
   8   7  -9   62.09    3.80
   8   7  -9   59.69    3.60
  -8  -7  -9   63.09    3.60
   8  -7  -9   59.09    3.60
   8  -7  -9   63.89    3.10
   8   7   9   58.99    3.20
   8  -7  -9   69.19    3.60
  -8   7  -9   57.59    3.60
   9   7  -9   28.90    3.00
   9   7  -9   25.20    2.60
  -9  -7  -9   31.40    3.30
   9  -7  -9   20.80    2.50
   9  -7  -9   24.00    2.40
   0   8   9  587.04   10.80
   0   8  -9  602.34   11.60
   0  -8   9  577.34   10.70
   0   8  -9  585.84   11.40
   0  -8   9  582.04   12.00
   0  -8   9  595.84   10.80
   0   8  -9  603.94   11.00
   0  -8  -9  591.34   10.90
   0  -8  -9  597.54   10.40
   0   8  -9  613.74   10.50
   0  -8  -9  586.24   11.20
  -1  -8  -9  120.09    3.80
   1   8  -9  115.79    4.10
   1  -8   9  119.99    3.80
   1   8  -9  120.89    4.20
  -1   8   9  114.49    3.50
   1  -8   9  111.49    4.20
  -1  -8  -9  110.39    3.10
   1   8  -9  117.19    3.50
   1   8  -9  116.29    3.70
   1  -8   9  112.09    3.50
   1  -8  -9  119.39    3.50
   1   8   9  119.19    3.70
   1  -8  -9  114.19    3.80
  -1  -8   9  117.39    3.30
  -1  -8   9  114.99    4.40
   1  -8  -9  121.89    3.60
  -1  -8   9  112.49    3.60
  -1   8  -9  114.29    3.70
  -1   8  -9  122.59    4.10
  -1   8  -9  115.99    4.20
  -1   8  -9  108.79    4.50
  -2   8   9   10.80    1.20
  -2  -8  -9   10.70    1.40
   2   8  -9   13.50    1.70
   2   8  -9   10.80    1.30
   2   8  -9   10.70    1.40
   2  -8   9   13.20    1.60
   2   8  -9   15.20    2.00
   2  -8   9   11.70    1.30
  -2   8  -9   11.00    1.70
  -2  -8   9   10.00    1.30
   2  -8  -9    9.90    1.40
  -2   8  -9   10.30    1.40
  -2  -8   9    9.40    1.70
   2  -8  -9   12.70    1.50
   2  -8  -9   10.90    1.40
   2  -8  -9   10.20    1.20
   2   8   9   10.60    1.40
  -2   8  -9   11.60    1.60
   3   8  -9   23.80    2.30
  -3   8   9   23.20    1.50
   3   8  -9   23.90    1.80
   3   8  -9   24.60    2.10
   3   8  -9   26.20    2.40
   3  -8   9   24.80    1.60
   3  -8   9   22.00    2.00
   3   8  -9   23.20    1.90
  -3  -8  -9   26.50    2.00
   3  -8  -9   23.60    1.90
   3  -8  -9   25.30    1.90
  -3  -8   9   26.80    2.30
   3   8   9   24.10    1.90
   3  -8  -9   20.50    1.60
   3  -8  -9   25.00    2.00
  -3  -8   9   21.80    1.90
  -3   8  -9   22.60    2.00
  -3   8  -9   22.10    1.90
  -3   8  -9   19.60    2.00
   4  -8   9    2.30    0.70
   4  -8   9    1.60    1.00
  -4  -8  -9    1.20    1.10
   4   8  -9    1.70    1.00
   4   8  -9    2.40    0.90
   4   8  -9    4.40    1.30
   4   8  -9    1.70    1.40
   4   8  -9   -0.60    0.90
   4  -8  -9    1.30    0.80
   4  -8  -9    3.20    1.10
  -4  -8   9    0.70    0.90
  -4   8  -9    2.20    1.00
  -4   8  -9    2.40    1.10
  -4   8  -9    0.50    1.00
  -4  -8   9    1.00    1.00
   4  -8  -9    1.90    1.00
   4  -8  -9    0.00    0.80
   4   8   9    1.20    0.90
   5   8  -9   14.50    1.80
   5   8  -9   15.80    2.10
  -5  -8  -9   12.90    1.80
   5  -8   9   16.00    2.20
   5   8  -9   14.80    1.80
   5   8  -9   11.40    2.00
  -5   8  -9   14.30    1.80
  -5   8  -9   14.70    2.10
   5   8   9   16.20    1.90
   5  -8  -9   12.10    1.70
   5  -8  -9   10.20    1.70
  -5  -8   9   15.30    1.90
  -5  -8   9   12.90    1.70
   5  -8  -9   11.10    1.40
   5  -8  -9   15.90    2.00
   6   8  -9  146.69    5.10
   6   8  -9  143.39    5.30
   6  -8   9  136.89    5.40
  -6  -8  -9  144.79    5.10
   6   8  -9  142.69    4.60
   6   8  -9  134.49    5.10
   6  -8  -9  142.89    5.00
  -6  -8   9  137.99    5.00
  -6   8  -9  146.69    5.00
  -6   8  -9  150.88    5.60
   6  -8  -9  148.99    4.40
   6   8   9  141.49    4.70
   6  -8  -9  143.79    5.20
   6  -8  -9  148.19    5.00
   7  -8   9    5.20    1.60
   7   8  -9    3.30    1.40
  -7  -8  -9    3.50    1.40
   7   8  -9    2.60    1.60
   7   8  -9    4.50    1.50
  -7   8  -9    2.50    1.40
   7  -8  -9    1.60    1.20
   7  -8  -9    3.00    1.40
   7   8   9    5.30    1.40
   7  -8  -9    5.30    1.50
   7  -8  -9    3.90    1.30
   8   8  -9   56.19    3.70
   8   8  -9   53.89    3.60
  -8  -8  -9   52.89    3.40
   8   8  -9   48.40    2.90
   8  -8   9   54.29    3.80
  -8   8  -9   46.90    3.40
   8  -8  -9   57.49    3.50
   8  -8  -9   53.19    3.40
   8  -8  -9   56.19    3.10
   8  -8  -9   51.99    3.50
   8   8   9   50.09    3.10
   0   9   9   92.39    3.30
   0  -9  -9   85.69    3.50
   0   9  -9   94.59    3.70
   0  -9   9   95.19    4.10
   0  -9  -9   91.79    3.10
   0  -9   9   97.29    3.30
   0   9  -9   96.19    3.30
   0   9  -9   96.89    3.20
   0   9  -9   94.59    4.00
   0  -9   9   91.59    3.30
   0  -9  -9   92.59    3.30
   1  -9   9  178.38    5.70
  -1   9   9  175.78    4.60
   1   9  -9  171.48    5.40
   1   9  -9  182.38    4.70
  -1  -9  -9  178.88    5.20
   1  -9   9  175.58    4.70
   1  -9   9  168.18    4.90
  -1  -9  -9  174.58    5.00
   1   9  -9  181.28    5.30
  -1  -9  -9  176.28    4.20
   1   9  -9  174.38    4.70
   1  -9  -9  173.38    4.60
  -1   9  -9  175.18    4.80
  -1  -9   9  171.48    4.40
   1  -9  -9  181.88    5.10
  -1  -9   9  170.78    5.60
  -1   9  -9  172.58    5.50
   1   9   9  185.28    4.90
  -1   9  -9  171.38    5.10
  -1  -9   9  173.98    4.80
   1  -9  -9  170.98    4.60
  -2   9   9   63.49    2.50
   2   9  -9   64.99    2.80
   2   9  -9   59.59    3.20
   2   9  -9   57.39    3.20
  -2  -9  -9   54.69    2.80
   2   9  -9   62.39    2.80
   2  -9   9   60.89    2.60
   2  -9   9   56.99    2.90
   2  -9  -9   64.29    3.00
  -2   9  -9   60.59    3.40
  -2   9  -9   65.09    2.90
   2   9   9   65.29    2.90
  -2  -9   9   55.29    3.10
   2  -9  -9   66.59    2.90
  -2   9  -9   64.69    3.10
   2  -9  -9   64.79    2.70
   2  -9  -9   61.49    2.90
  -2  -9   9   59.69    2.80
   3   9  -9   86.09    3.20
   3   9  -9   95.39    3.60
   3   9  -9   85.09    3.80
  -3  -9  -9   90.89    3.70
   3   9  -9   88.99    3.40
   3  -9   9   91.59    3.10
   3   9  -9   84.29    3.90
  -3   9   9   87.49    2.90
   3  -9   9   91.49    3.80
   3  -9  -9   91.49    3.50
   3   9   9   88.89    3.50
  -3   9  -9   88.19    4.00
   3  -9  -9   83.29    3.50
  -3  -9   9   91.19    3.60
   3  -9  -9   90.39    3.50
  -3   9  -9   83.99    3.40
  -3  -9   9   86.09    4.00
  -3   9  -9   89.39    3.50
   4  -9   9   78.79    3.70
  -4  -9  -9   72.79    3.40
   4   9  -9   71.69    3.70
   4   9  -9   81.79    3.50
   4   9  -9   76.09    3.20
   4   9  -9   75.39    3.70
   4   9  -9   83.99    3.20
   4  -9   9   75.79    2.80
  -4   9  -9   80.19    3.40
   4  -9  -9   70.59    3.20
   4   9   9   76.39    3.30
  -4  -9   9   74.39    3.70
   4  -9  -9   75.29    3.40
  -4  -9   9   75.09    3.40
  -4   9  -9   73.49    3.80
   4  -9  -9   72.09    3.30
   5   9  -9   96.89    4.30
   5  -9   9   92.19    4.30
   5   9  -9   92.99    3.50
   5   9  -9   94.99    4.00
   5   9  -9   91.09    4.20
   5   9  -9   93.49    4.50
  -5  -9  -9   90.99    4.00
   5  -9  -9   94.39    3.90
  -5  -9   9   89.99    3.80
   5   9   9   97.09    3.90
   5  -9  -9   92.49    3.90
  -5   9  -9   96.29    4.50
   5  -9  -9   93.39    4.10
  -5   9  -9   94.29    3.90
  -5  -9   9   94.29    4.20
  -6  -9  -9   30.10    2.80
   6  -9   9   25.40    2.70
   6   9  -9   29.20    2.40
   6   9  -9   33.00    3.00
   6   9  -9   29.30    2.60
   6   9   9   24.50    2.40
  -6  -9   9   28.80    2.70
  -6   9  -9   29.30    2.60
   6  -9  -9   32.30    2.60
   6  -9  -9   29.70    2.60
   6  -9  -9   33.10    2.80
   7   9  -9   13.10    1.90
   7  -9   9   14.50    2.20
   7   9  -9   13.40    2.20
  -7  -9  -9   14.20    2.10
   7   9  -9   15.50    2.20
   7  -9  -9   11.50    2.00
  -7   9  -9   12.50    2.10
   7  -9  -9   13.60    2.10
   7  -9  -9   13.10    2.10
   7   9   9   16.00    2.10
  -8  -9  -9   30.00    3.40
   8   9  -9   32.10    3.20
   8   9   9   36.20    2.80
   8  -9  -9   31.20    3.00
   0  10  -9   -0.50    1.00
   0 -10   9    0.90    0.90
   0  10  -9   -0.40    1.00
   0 -10   9    0.60    0.80
   0 -10  -9   -1.10    0.70
   0  10  -9   -0.10    0.80
   0 -10  -9    1.10    0.90
   0  10   9    1.10    0.90
   0 -10   9    0.60    1.10
   0  10  -9    1.40    0.80
   0 -10  -9    1.30    1.00
   1  10  -9   36.30    2.80
   1 -10   9   37.90    2.30
   1 -10   9   40.60    2.50
   1 -10   9   38.30    2.90
   1  10  -9   40.30    2.30
  -1 -10  -9   37.40    2.00
  -1  10   9   37.10    2.10
  -1 -10  -9   36.70    2.40
  -1 -10  -9   37.70    2.60
   1  10  -9   39.30    2.20
   1  10  -9   39.80    2.70
   1  10   9   42.40    2.40
  -1 -10   9   40.50    3.00
  -1  10  -9   40.90    2.90
   1 -10  -9   38.20    2.30
  -1 -10   9   39.00    2.40
  -1  10  -9   39.60    2.60
  -1  10  -9   40.80    2.30
   1 -10  -9   38.00    2.50
   1 -10  -9   38.30    2.30
   2  10  -9   30.80    2.10
  -2 -10  -9   28.10    2.30
  -2 -10  -9   29.10    2.30
  -2  10   9   28.00    1.80
   2 -10   9   27.30    2.20
   2  10  -9   31.20    2.50
   2  10  -9   31.60    2.10
   2  10  -9   27.80    2.60
   2 -10   9   29.40    2.00
   2  10  -9   30.50    2.20
  -2 -10   9   30.30    2.30
   2 -10  -9   28.20    2.10
  -2 -10   9   28.70    2.60
  -2  10  -9   29.80    2.30
   2  10   9   29.80    2.10
  -2  10  -9   29.60    2.60
   2 -10  -9   29.30    2.30
  -2  10  -9   28.60    2.10
   2 -10  -9   29.00    2.30
  -3 -10  -9   29.30    2.50
   3 -10   9   30.30    2.00
   3  10  -9   35.00    2.40
   3  10  -9   33.20    2.20
   3  10  -9   31.60    2.10
   3  10  -9   30.00    2.60
   3  10  -9   37.00    2.90
   3 -10   9   36.10    2.60
   3 -10  -9   36.80    2.50
  -3 -10   9   32.20    2.60
  -3 -10   9   34.20    2.40
   3  10   9   32.60    2.40
  -3  10  -9   31.00    2.70
   3 -10  -9   29.50    2.30
  -3  10  -9   29.40    2.20
   3 -10  -9   34.90    2.50
   4  10  -9   10.00    1.90
   4  10  -9   11.70    2.00
   4 -10   9    9.70    1.80
   4  10  -9    6.60    1.50
   4 -10   9    9.30    1.30
   4  10  -9    8.20    2.30
  -4 -10  -9    9.70    1.80
   4 -10  -9    7.90    1.50
   4  10   9   11.50    1.70
  -4 -10   9    7.70    1.60
  -4  10  -9    8.10    1.50
  -4  10  -9    9.50    1.90
  -4 -10   9    7.80    1.50
   4 -10  -9   10.30    1.70
   4 -10  -9    9.60    1.70
   5  10  -9   26.40    2.40
   5 -10   9   27.60    2.80
  -5 -10  -9   28.10    2.50
   5  10  -9   23.80    2.60
  -5  10  -9   26.50    2.70
   5 -10  -9   28.30    2.60
  -5  10  -9   27.60    2.40
   5  10   9   28.10    2.60
   5 -10  -9   28.80    2.60
  -5 -10   9   27.90    2.80
  -5 -10   9   32.70    2.60
   5 -10  -9   27.10    2.50
  -6 -10  -9   45.10    3.30
   6  10  -9   48.40    3.40
   6 -10   9   43.40    3.40
   6  10  -9   46.30    3.10
  -6 -10   9   40.60    3.10
   6 -10  -9   44.40    3.10
   6 -10  -9   42.20    3.10
   6 -10  -9   41.50    3.00
   6  10   9   40.90    2.90
  -6  10  -9   43.20    3.00
   7  10  -9   68.09    4.10
   7  10  -9   75.99    4.00
   7 -10   9   60.49    4.00
  -7 -10  -9   60.19    3.80
   7 -10  -9   62.69    3.70
  -7  10  -9   64.99    3.80
   7 -10  -9   67.29    3.70
   7  10   9   61.59    3.50
   7 -10  -9   63.89    3.80
   0 -11  -9    2.10    1.10
   0 -11   9    0.90    1.00
   0  11  -9    3.00    1.00
   0  11   9    1.40    0.90
   0 -11  -9    3.20    1.20
   0  11  -9    0.60    1.10
   0 -11   9    3.20    1.10
   0 -11   9    1.30    1.30
   0 -11  -9    1.10    0.90
   0  11  -9    2.00    1.20
   1 -11   9   37.70    2.80
   1  11  -9   43.80    2.50
  -1 -11  -9   41.10    2.80
   1  11  -9   43.50    2.40
   1 -11   9   41.50    2.40
  -1 -11  -9   39.40    2.60
  -1 -11  -9   38.30    2.20
   1 -11   9   39.40    2.60
   1  11  -9   42.90    2.70
  -1  11   9   42.90    2.40
   1  11  -9   37.20    2.90
  -1 -11   9   44.80    2.60
  -1  11  -9   42.50    3.10
  -1  11  -9   37.50    2.50
   1 -11  -9   45.70    2.50
   1 -11  -9   39.70    2.40
  -1 -11   9   37.60    3.00
   1  11   9   36.30    2.30
  -1  11  -9   38.00    2.30
   1 -11  -9   38.60    2.60
   2  11  -9   12.30    1.90
   2 -11   9   12.60    2.00
   2 -11   9   11.20    1.50
   2  11  -9   13.80    1.70
  -2  11   9   16.00    1.60
   2  11  -9   11.10    1.80
   2 -11   9   12.90    1.80
  -2 -11  -9   15.10    2.00
  -2 -11  -9   13.20    1.80
   2  11   9   12.20    1.70
   2 -11  -9   13.80    1.90
  -2  11  -9   13.50    1.70
   2 -11  -9   12.40    1.60
  -2  11  -9   11.00    1.80
  -2 -11   9   15.40    2.30
  -2 -11   9   13.70    1.90
   2 -11  -9   14.30    1.90
  -3 -11  -9  112.79    4.40
   3 -11   9  126.59    4.10
   3  11  -9  117.19    4.90
   3  11  -9  119.79    4.40
   3 -11   9  119.79    4.70
  -3 -11  -9  111.89    4.60
   3  11  -9  116.39    4.50
  -3 -11   9  117.09    5.00
  -3 -11   9  126.99    4.50
   3  11   9  118.49    4.40
   3 -11  -9  123.69    4.50
  -3  11  -9  122.89    5.10
  -3  11  -9  115.29    4.20
   3 -11  -9  116.39    4.20
   3 -11  -9  119.29    4.40
   4 -11   9    8.40    1.40
  -4 -11  -9    8.70    1.80
   4 -11   9   10.30    1.80
  -4 -11  -9    9.40    1.80
   4  11  -9    6.90    1.50
   4  11  -9   11.40    3.10
   4  11  -9    8.00    1.80
   4  11   9   10.50    1.70
   4 -11  -9    7.40    1.60
  -4  11  -9    6.60    1.80
  -4  11  -9   10.20    1.60
  -4 -11   9    7.10    1.50
  -4 -11   9    9.60    1.90
   4 -11  -9    8.40    1.60
   4 -11  -9    8.00    1.60
   5  11  -9   67.79    3.60
  -5 -11  -9   63.69    3.70
   5 -11   9   64.99    3.80
   5  11  -9   67.39    3.80
  -5 -11   9   67.99    4.00
   5  11   9   58.69    3.20
  -5 -11   9   67.79    3.60
   5 -11  -9   65.19    3.60
   5 -11  -9   68.69    3.60
  -5  11  -9   69.29    3.40
   6 -11   9    1.20    1.30
   6  11  -9   -0.40    1.50
  -6 -11  -9    0.60    1.20
   6  11  -9   -0.60    1.10
   6 -11  -9    0.90    1.30
   6  11   9   -0.50    1.10
  -6  11  -9    0.20    1.20
   6 -11  -9    3.10    1.50
  -6 -11   9    0.00    1.30
  -6 -11   9   -0.10    1.20
   6 -11  -9   -0.50    1.20
   7  11  -9   13.30    2.30
   7  11   9   15.50    2.10
   7 -11  -9   12.50    2.20
   0 -12  -9  143.69    4.40
   0 -12  -9  140.39    4.80
   0 -12  -9  143.39    5.10
   0 -12   9  150.38    4.80
   0 -12   9  139.19    5.50
   0  12   9  140.89    4.60
   0 -12   9  144.69    4.70
   0  12  -9  146.89    4.80
   0  12  -9  140.69    5.40
   1  12  -9   42.30    2.70
  -1 -12  -9   47.20    3.00
  -1  12   9   45.10    2.50
  -1 -12  -9   44.90    2.40
   1 -12   9   43.80    2.80
   1 -12   9   40.90    2.60
   1  12  -9   38.90    3.20
   1 -12   9   48.00    3.40
   1  12  -9   42.50    2.60
  -1 -12  -9   45.70    2.80
  -1  12  -9   43.40    3.30
  -1 -12   9   46.80    2.80
   1 -12  -9   44.40    2.90
   1 -12  -9   47.50    2.70
  -1 -12   9   41.30    3.10
   1 -12  -9   46.60    2.90
   1  12   9   45.30    2.70
   1 -12  -9   41.10    3.00
   2  12  -9   46.50    2.80
   2 -12   9   50.29    3.10
   2 -12   9   52.79    2.80
   2 -12   9   47.60    3.30
   2  12  -9   50.09    3.00
   2  12  -9   42.40    3.30
  -2 -12  -9   44.90    3.10
  -2 -12  -9   57.39    3.30
  -2  12   9   51.09    2.60
   2 -12  -9   51.99    3.10
  -2  12  -9   47.00    3.40
  -2  12  -9   46.00    2.60
  -2 -12   9   53.59    3.00
   2 -12  -9   53.39    3.10
   2  12   9   52.69    2.90
  -2 -12   9   50.79    3.60
   2 -12  -9   51.69    2.90
   3  12  -9   32.40    2.90
  -3 -12  -9   34.90    2.80
   3 -12   9   29.10    2.20
   3 -12   9   31.30    2.70
   3  12  -9   28.90    2.40
  -3 -12  -9   33.00    2.80
  -3 -12   9   31.60    3.10
  -3  12  -9   35.60    2.40
   3 -12  -9   31.20    2.60
  -3  12  -9   34.30    4.30
   3  12   9   34.00    2.60
  -3 -12   9   30.20    2.50
   3 -12  -9   27.50    2.40
   3 -12  -9   29.60    2.50
   4 -12   9   24.60    2.20
   4 -12   9   21.80    2.60
   4  12  -9   20.90    2.40
  -4 -12  -9   23.40    2.70
   4  12  -9   20.50    2.30
  -4 -12  -9   21.30    2.50
  -4 -12   9   25.80    3.00
   4 -12  -9   21.90    2.50
  -4 -12   9   24.60    2.50
   4 -12  -9   18.50    2.20
  -4  12  -9   23.60    2.20
   4  12   9   19.10    2.30
   4 -12  -9   21.40    2.50
  -5 -12  -9    4.40    1.60
   5 -12   9    1.80    1.30
   5  12  -9    1.60    1.50
  -5 -12  -9    3.40    1.40
   5  12  -9    1.20    1.30
   5 -12  -9    1.60    1.40
  -5 -12   9    2.50    1.30
  -5 -12   9    2.30    1.40
   5 -12  -9    3.10    1.50
   5  12   9    0.10    1.20
  -5  12  -9    3.90    1.30
  -6 -12  -9   65.89    4.50
   6  12  -9   64.49    4.30
   6  12  -9   61.09    3.90
   6 -12   9   56.29    6.10
  -6 -12   9   57.89    3.50
   6 -12  -9   59.29    3.60
  -6  12  -9   55.29    3.40
   6  12   9   56.69    3.50
   6 -12  -9   59.59    5.10
  -6 -12   9   53.09    3.80
   0 -13  -9    3.70    1.20
   0 -13  -9    6.20    1.60
   0  13   9    2.90    1.20
   0 -13   9    2.70    1.40
   0 -13  -9    6.40    1.50
   0 -13   9    4.90    1.50
   1 -13   9   71.79    3.70
  -1 -13  -9   64.69    3.70
   1 -13   9   70.39    3.40
  -1 -13  -9   69.49    3.60
   1 -13   9   67.89    4.00
  -1  13   9   71.69    3.20
   1 -13  -9   76.59    3.80
  -1 -13   9   77.09    3.60
   1 -13  -9   76.49    3.80
   1  13   9   70.59    3.40
  -1 -13   9   74.79    4.30
   1 -13  -9   71.59    3.30
   2  13  -9   31.70    2.60
   2 -13   9   31.70    3.20
   2 -13   9   31.00    2.40
   2 -13   9   30.10    2.70
  -2  13   9   34.80    2.30
  -2 -13  -9   30.40    2.80
  -2 -13  -9   30.90    2.80
   2  13  -9   33.00    2.50
  -2 -13   9   32.10    3.00
   2 -13  -9   31.30    2.50
  -2 -13   9   32.20    2.60
   2 -13  -9   29.40    2.70
   2 -13  -9   31.20    2.50
   2  13   9   30.10    2.50
   3 -13   9    9.70    2.00
   3  13  -9    5.20    1.60
  -3 -13  -9    6.20    1.60
   3 -13   9    7.90    1.50
   3  13  -9    7.40    1.60
  -3 -13  -9    9.60    2.10
   3 -13  -9    6.80    1.50
  -3 -13   9    7.70    1.80
   3  13   9    4.00    1.40
   3 -13  -9    5.30    1.50
  -3 -13   9    6.60    1.80
   3 -13  -9    8.30    1.80
   4 -13   9   32.90    2.40
   4  13  -9   35.00    2.90
  -4 -13  -9   33.90    3.20
   4 -13   9   33.30    3.00
  -4 -13  -9   38.40    3.20
   4  13  -9   35.20    3.00
  -4 -13   9   33.70    3.10
  -4 -13   9   36.60    3.30
   4  13   9   34.60    2.80
   4 -13  -9   34.60    2.80
   4 -13  -9   32.80    2.90
   4 -13  -9   34.80    2.80
  -5 -13  -9   15.30    2.70
   5  13  -9   13.00    2.20
   5 -13   9   18.90    2.60
   5  13  -9   15.40    2.30
  -5 -13   9   15.60    2.20
   5 -13  -9   13.30    2.80
  -5  13  -9   13.80    2.90
  -5 -13   9   16.00    2.60
   5  13   9    9.50    1.80
   5 -13  -9   12.90    2.00
   0 -14  -9    2.00    1.40
   0  14   9    1.00    1.10
   0 -14  -9    2.30    1.20
   0 -14   9    1.00    1.20
   0 -14  -9    2.00    1.40
   0 -14   9    0.40    1.50
   1 -14   9   52.79    3.40
  -1 -14  -9   54.19    3.40
   1 -14   9   47.90    3.60
  -1  14   9   47.40    2.80
   1 -14   9   54.29    3.20
  -1 -14  -9   55.49    3.50
  -1 -14   9   47.20    3.70
   1 -14  -9   49.90    3.40
  -1 -14   9   56.79    3.30
   1  14   9   49.30    3.00
   1 -14  -9   55.99    3.40
   1 -14  -9   51.39    3.00
   2 -14   9    6.10    1.70
   2 -14   9    3.90    1.30
  -2 -14  -9    5.00    1.70
   2 -14   9    3.00    1.70
   2  14  -9    2.20    1.50
  -2 -14  -9    6.20    1.70
   2 -14  -9    5.90    1.80
   2 -14  -9    0.30    1.30
   2 -14  -9    7.30    1.70
  -2 -14   9    6.40    1.60
  -2 -14   9    5.70    1.70
   2  14   9    4.10    1.40
   3 -14   9    1.40    1.30
   3 -14   9    1.70    1.20
   3  14  -9    1.90    1.30
  -3 -14  -9    2.40    1.60
   3  14  -9    1.70    1.20
  -3 -14  -9   -0.30    1.10
   3 -14  -9    4.70    1.50
  -3 -14   9    0.60    1.20
   3  14   9    3.20    1.50
   3 -14  -9    0.30    1.20
   3 -14  -9    0.20    1.30
  -3 -14   9    4.10    1.50
   4  14  -9    7.50    1.70
   4 -14   9    7.10    2.20
   4 -14   9    7.20    1.60
   4  14  -9    3.80    1.60
  -4 -14   9    5.40    1.60
   4 -14  -9    9.80    2.00
   4 -14  -9    5.70    1.70
   4  14   9    7.40    1.80
   0 -15  -9   70.99    3.50
   0  15   9   67.69    3.40
   0 -15   9   64.19    4.30
   0 -15   9   71.59    3.80
   0 -15  -9   63.39    4.10
   1 -15   9    4.90    1.50
  -1 -15  -9    3.50    1.70
  -1 -15  -9    4.90    2.40
  -1  15   9    3.80    1.20
   1 -15   9    5.70    1.90
   1  15   9    4.70    1.50
  -1 -15   9   11.30    3.30
   1 -15  -9    4.70    1.70
   1 -15  -9    1.90    1.40
   1 -15  -9    5.50    2.30
  -1 -15   9    9.10    1.80
   2 -15   9   81.49    5.40
  -2 -15  -9   72.69    4.30
   2 -15   9   73.09    3.70
   2 -15   9   67.39    4.10
   2 -15  -9   78.29    3.90
   2  15   9   77.29    3.90
  -2 -15   9   82.79    4.10
   0   0 -10    3.30    0.60
   0   0 -10    1.60    0.80
   0   0 -10    2.10    0.50
   1   0 -10  845.92   13.00
  -1   0 -10  853.21   13.30
   1   0 -10  827.22   14.80
   1   0 -10  848.02   13.50
  -1   0 -10  840.82   14.20
   1   0  10  839.92   14.00
  -1   0 -10  851.11   12.70
   1   0 -10  846.32   12.70
   2   0 -10  650.03   10.00
  -2   0 -10  637.34   10.60
  -2   0 -10  639.84   11.40
   2   0 -10  635.64   11.90
   2   0  10  626.44   11.20
   2   0 -10  635.74   10.20
   2   0 -10  629.24   10.90
   3   0 -10   34.60    1.50
  -3   0 -10   34.60    1.80
   3   0 -10   34.70    1.90
   3   0 -10   35.50    1.40
   3   0 -10   35.70    2.40
   3   0 -10   35.20    2.20
  -3   0 -10   35.50    2.10
   3   0  10   37.80    2.10
   4   0 -10  299.47    7.00
   4   0 -10  296.27    6.70
  -4   0 -10  298.47    6.70
   4   0  10  298.07    6.50
   4   0 -10  295.37    6.90
   4   0 -10  291.07    5.80
  -4   0 -10  298.47    6.40
   4   0 -10  298.97    5.70
   5   0 -10  107.99    3.20
   5   0 -10  113.59    3.20
  -5   0 -10  115.79    3.80
   5   0 -10  113.29    4.00
   5   0  10  108.69    3.60
   5   0 -10  108.69    4.00
   5   0 -10  110.19    3.90
  -5   0 -10  112.79    3.80
   6   0  10    7.30    1.30
   6   0 -10    4.80    1.40
   6   0 -10    5.90    1.20
   6   0 -10    2.00    1.10
   6   0 -10    5.00    1.30
   6   0  10    6.60    1.20
  -6   0 -10    5.40    1.30
  -6   0 -10    6.50    1.30
   6   0 -10    6.10    1.10
   7   0 -10    1.60    1.10
   7   0 -10    0.70    0.90
   7   0 -10   -2.00    1.10
   7   0 -10    1.30    1.30
  -7   0 -10    2.50    1.20
   7   0  10    2.30    1.10
   8   0 -10    4.00    2.00
   8   0 -10    3.60    1.50
   8   0 -10    4.50    1.40
   8   0 -10    6.90    1.70
   8   0  10    5.90    1.40
   8   0  10    4.30    1.40
  -8   0 -10    6.90    1.60
   9   0  10   30.60    2.70
   9   0  10   34.10    2.70
   9   0 -10   33.30    3.80
   9   0 -10   32.30    2.90
  -9   0 -10   29.80    2.90
   9   0 -10   29.20    2.80
   0   1 -10  433.66    7.30
   0   1 -10  428.36    8.40
   0   1 -10  436.06    7.60
   0  -1 -10  430.96    8.30
   0  -1 -10  443.96    7.50
   0  -1 -10  439.16    7.00
   0   1  10  433.06    8.10
  -1  -1 -10  150.18    3.00
   1   1 -10  147.39    4.00
   1   1 -10  143.29    3.30
   1   1 -10  141.99    3.40
   1   1 -10  141.79    4.40
  -1  -1 -10  139.19    3.90
  -1  -1 -10  146.79    3.10
   1  -1 -10  149.49    3.10
  -1   1 -10  146.89    4.00
  -1   1 -10  144.49    3.50
   1  -1 -10  147.59    3.60
   1  -1 -10  143.89    2.80
   1   1  10  144.59    3.90
  -2  -1 -10  331.67    6.10
  -2  -1 -10  340.87    6.90
   2   1 -10  331.37    7.50
   2   1 -10  321.87    6.10
   2   1 -10  328.47    6.50
   2  -1 -10  339.17    5.60
   2   1  10  337.57    6.80
  -2   1 -10  324.07    6.50
  -2   1 -10  333.17    7.00
   2  -1 -10  326.97    5.90
   2  -1 -10  335.27    6.60
   2  -1 -10  321.77    7.30
   3   1 -10  239.48    5.00
  -3  -1 -10  243.68    5.10
   3   1 -10  247.88    5.60
  -3  -1 -10  239.68    5.60
   3   1 -10  233.38    6.10
   3  -1 -10  235.88    6.00
  -3   1 -10  238.68    5.70
  -3   1 -10  237.88    5.40
   3   1  10  238.98    5.50
   3  -1 -10  245.28    4.50
   3  -1 -10  248.18    5.60
   3  -1 -10  229.28    5.80
   3  -1 -10  240.08    4.80
  -4  -1 -10  119.29    3.80
   4   1 -10  119.59    3.30
   4   1 -10  110.89    3.90
   4   1 -10  117.79    4.20
  -4  -1 -10  120.29    3.50
   4   1 -10  117.79    3.80
   4  -1 -10  120.79    4.00
   4  -1 -10  120.49    3.90
  -4   1 -10  120.99    3.80
   4  -1 -10  121.69    4.10
  -4   1 -10  112.19    3.80
   4  -1 -10  126.89    3.10
   4   1  10  121.99    3.70
   4  -1 -10  122.29    3.20
   5   1 -10   35.50    2.40
   5   1 -10   40.00    2.00
   5   1 -10   41.30    2.70
   5   1 -10   39.60    2.40
   5  -1  10   42.10    2.00
  -5  -1 -10   39.40    2.30
  -5  -1 -10   38.30    2.20
   5  -1 -10   42.80    2.50
   5  -1 -10   38.20    2.40
   5   1  10   42.20    2.30
   5  -1 -10   43.90    1.90
  -5   1 -10   41.60    2.40
  -5   1 -10   40.40    2.40
   5  -1 -10   41.20    2.00
   5  -1 -10   42.80    2.50
   6  -1  10  242.98    5.80
   6   1 -10  254.87    6.60
   6   1 -10  243.88    6.40
   6   1 -10  245.68    5.90
  -6  -1 -10  245.38    6.10
   6   1 -10  254.47    6.50
   6   1  10  258.27    6.00
   6  -1 -10  254.17    6.30
   6  -1 -10  250.87    5.80
   6  -1 -10  246.88    6.60
  -6   1 -10  234.18    6.20
   6  -1 -10  241.58    5.60
   6  -1 -10  242.38    6.30
  -6   1 -10  250.47    6.50
   7   1 -10    9.50    1.50
   7   1 -10   10.50    1.80
   7   1 -10    7.70    1.60
   7  -1  10   11.70    1.60
  -7  -1 -10    9.50    1.60
   7   1 -10    8.30    1.70
   7  -1 -10   11.00    1.80
   7  -1 -10   11.10    1.70
  -7   1 -10   11.20    1.70
  -7   1 -10   13.70    1.90
   7  -1 -10   10.00    1.40
   7   1  10   10.50    1.50
   7  -1 -10    7.10    1.50
   7  -1 -10   11.80    1.40
   8   1 -10   31.90    2.70
  -8  -1 -10   32.80    2.50
   8  -1  10   32.80    2.60
  -8  -1 -10   31.60    2.60
   8   1 -10   34.20    2.70
   8  -1  10   30.50    2.40
   8   1 -10   33.60    2.90
   8  -1 -10   31.10    2.70
   8   1  10   28.80    2.40
   8  -1 -10   29.60    2.40
   8  -1 -10   27.80    2.60
   8  -1 -10   32.70    2.60
  -8   1 -10   31.90    2.70
   9  -1  10  109.19    4.60
   9   1 -10  113.99    4.50
   9   1 -10  115.49    4.90
   9  -1  10  105.59    4.40
  -9  -1 -10  104.49    4.60
   9   1 -10  108.09    4.60
   9  -1 -10  102.99    4.80
   9   1  10  106.79    4.50
   9  -1 -10  118.69    4.70
  -9   1 -10  118.29    4.90
   0   2  10   63.09    2.40
   0   2 -10   61.89    2.50
   0  -2 -10   63.59    2.00
   0  -2 -10   64.09    2.50
   0   2 -10   62.39    2.20
   0   2 -10   63.39    1.90
  -1  -2 -10   36.00    1.20
   1   2 -10   34.30    1.60
   1   2 -10   35.00    1.90
   1   2 -10   36.50    1.70
  -1  -2 -10   37.70    1.40
   1   2 -10   37.60    2.40
  -1   2  10   37.00    1.80
  -1  -2 -10   37.60    1.90
   1   2  10   34.70    1.80
   1  -2 -10   34.50    1.70
  -1   2 -10   35.70    2.00
  -1   2 -10   36.00    1.80
   1  -2 -10   33.90    1.50
   2   2 -10  242.38    5.20
   2   2 -10  240.58    5.10
  -2  -2 -10  242.48    4.60
   2   2 -10  233.48    6.10
  -2  -2 -10  247.68    5.50
   2  -2 -10  245.58    5.40
  -2   2 -10  240.28    5.30
  -2   2 -10  233.68    5.60
   2  -2 -10  243.78    3.90
   2  -2 -10  246.48    4.90
   2  -2 -10  250.37    6.00
   2   2  10  240.68    5.50
   3   2 -10   50.99    2.10
  -3  -2 -10   51.69    2.00
  -3  -2 -10   47.80    2.30
   3   2 -10   50.59    2.70
   3   2 -10   49.50    2.20
  -3   2 -10   48.70    2.30
   3  -2 -10   48.20    2.40
   3  -2 -10   51.09    2.30
   3  -2 -10   51.19    1.50
   3  -2 -10   53.29    2.60
   3  -2 -10   48.10    1.90
   3   2  10   46.50    2.30
  -4  -2 -10   81.79    3.00
   4   2 -10   72.89    2.70
   4   2 -10   83.29    3.50
   4   2 -10   79.79    3.30
   4   2 -10   74.99    3.00
   4  -2 -10   80.19    3.30
   4  -2 -10   80.79    2.20
   4   2  10   81.49    3.00
  -4   2 -10   83.19    3.20
   4  -2 -10   84.29    3.20
  -4   2 -10   77.79    3.10
   4  -2 -10   80.69    2.60
   4  -2 -10   83.99    3.20
   5  -2  10  106.49    3.10
  -5  -2 -10  106.49    3.50
   5   2 -10  100.79    3.80
   5   2 -10   95.99    3.60
   5   2 -10  101.69    4.00
   5   2 -10  101.19    3.40
   5  -2 -10  105.79    3.70
   5  -2 -10  104.69    3.30
   5  -2 -10   96.49    3.60
   5  -2 -10  102.29    3.70
   5  -2 -10  100.99    2.90
  -5   2 -10  103.79    3.80
   5   2  10  104.79    3.50
  -5   2 -10  102.39    3.70
   6   2 -10    9.00    1.60
   6  -2  10    7.60    1.20
   6   2 -10    5.10    1.20
   6   2 -10    6.20    1.20
   6   2 -10    5.90    1.60
  -6  -2 -10    7.20    1.30
   6  -2 -10    6.40    1.40
   6  -2 -10    7.70    1.10
   6  -2 -10    7.90    1.30
   6  -2 -10    8.70    1.50
  -6   2 -10    4.60    1.20
   6  -2 -10    6.30    1.30
  -6   2 -10    9.40    1.60
   6   2  10    5.20    1.20
   7   2 -10   78.79    3.70
  -7  -2 -10   68.89    3.40
  -7  -2 -10   68.79    3.10
   7  -2  10   69.49    3.00
   7   2 -10   75.49    3.70
   7   2 -10   75.49    3.30
   7   2 -10   70.29    3.50
  -7   2 -10   71.89    3.60
   7  -2 -10   70.49    3.50
   7  -2 -10   67.59    3.30
   7  -2 -10   71.99    2.90
   7  -2 -10   76.79    3.30
   7  -2 -10   75.99    3.20
   7   2  10   81.19    3.20
  -7   2 -10   73.39    3.50
   8  -2  10   39.90    2.80
   8   2 -10   44.30    3.10
   8  -2  10   40.90    2.60
   8   2 -10   41.20    3.00
  -8  -2 -10   38.10    2.70
  -8  -2 -10   43.40    2.90
   8   2 -10   38.20    3.00
   8  -2 -10   38.20    2.90
  -8   2 -10   32.90    2.70
   8  -2 -10   39.30    2.60
   8  -2 -10   36.50    2.90
   8  -2 -10   42.90    2.70
   9   2 -10   13.10    2.20
   9  -2  10   16.60    2.30
  -9  -2 -10   16.50    2.60
   9   2 -10   12.00    2.10
   9   2 -10   16.10    2.20
  -9  -2 -10   12.70    1.90
  -9   2 -10   16.40    2.30
   9  -2 -10   16.70    2.30
   9  -2 -10   11.50    2.10
   9   2  10   14.50    2.00
   0   3 -10   68.59    2.50
   0  -3 -10   69.09    2.20
   0   3 -10   64.39    3.00
   0   3 -10   66.39    2.00
   0  -3 -10   69.39    2.50
   0   3  10   67.79    2.50
   0   3 -10   64.79    2.70
  -1   3  10   90.69    2.90
   1   3 -10   86.79    3.00
   1  -3  10   92.49    2.50
  -1  -3 -10   89.79    2.40
   1   3 -10   92.89    2.90
  -1  -3 -10   89.39    2.90
   1   3 -10   86.19    2.60
   1   3 -10   87.19    3.40
   1   3  10   86.69    3.00
   1  -3 -10   91.49    2.60
  -1   3 -10   83.79    3.10
  -1   3 -10   84.89    2.90
   1  -3 -10   86.99    2.70
  -2   3  10   63.19    2.30
   2  -3  10   64.59    1.90
   2   3 -10   60.89    2.40
  -2  -3 -10   61.09    2.40
   2   3 -10   61.19    3.00
   2   3 -10   62.69    2.30
   2  -3 -10   66.99    2.20
   2  -3 -10   61.29    2.20
   2  -3 -10   64.09    2.50
   2  -3 -10   60.79    2.70
  -2   3 -10   64.39    2.60
   2   3  10   65.19    2.60
   3   3 -10   19.50    1.50
  -3  -3 -10   19.60    1.60
   3   3 -10   18.50    2.00
   3   3 -10   18.90    1.50
   3  -3 -10   21.70    1.40
  -3   3 -10   18.70    1.70
  -3   3 -10   20.00    1.80
   3  -3 -10   21.40    1.90
   3   3  10   20.90    1.80
   3  -3 -10   19.10    1.80
   3  -3 -10   20.40    0.80
   3  -3 -10   16.50    1.50
   4   3 -10   35.20    2.50
   4   3 -10   32.50    1.90
   4   3 -10   34.70    2.00
  -4  -3 -10   38.50    2.00
   4   3 -10   34.50    2.40
   4  -3 -10   32.00    2.20
   4  -3 -10   38.10    2.20
  -4   3 -10   31.60    2.20
  -4   3 -10   29.60    2.20
   4  -3 -10   28.90    2.00
   4   3  10   29.80    1.90
   4  -3 -10   33.60    1.80
   4  -3 -10   33.30    1.30
   5   3 -10    9.40    1.60
  -5  -3 -10    7.10    1.20
   5   3 -10    9.60    1.50
   5   3 -10    8.60    1.30
   5   3 -10   10.30    1.70
   5  -3 -10    8.60    1.50
   5   3  10    7.30    1.30
   5  -3 -10    9.00    1.00
   5  -3 -10   11.00    1.50
   5  -3 -10    9.50    1.50
  -5   3 -10    9.20    1.40
   5  -3 -10    8.50    1.20
  -5   3 -10    8.20    1.40
  -6  -3 -10   42.00    2.70
   6   3 -10   43.50    3.00
   6   3 -10   38.90    2.40
   6   3 -10   41.40    2.60
   6   3 -10   41.10    2.70
  -6  -3 -10   38.70    2.30
  -6   3 -10   38.00    2.60
   6   3  10   37.30    2.40
  -6   3 -10   38.00    2.70
   6  -3 -10   44.20    2.00
   6  -3 -10   42.10    2.70
   6  -3 -10   41.80    2.40
   6  -3 -10   42.10    2.40
   6  -3 -10   38.80    2.60
   7   3 -10   56.79    3.30
  -7  -3 -10   52.19    2.80
   7   3 -10   47.40    3.20
  -7  -3 -10   46.90    2.80
   7   3 -10   52.49    2.90
   7   3 -10   55.39    3.20
  -7   3 -10   56.29    3.10
  -7   3 -10   55.39    3.30
   7  -3 -10   52.99    2.40
   7  -3 -10   48.40    2.70
   7  -3 -10   51.09    3.10
   7   3  10   51.29    2.80
   7  -3 -10   49.20    3.00
  -8  -3 -10   21.10    2.30
   8   3 -10   21.80    2.50
   8   3 -10   21.80    2.50
   8   3 -10   17.50    2.20
   8  -3 -10   19.10    2.20
   8  -3 -10   18.90    2.30
   8   3  10   17.20    2.70
  -8   3 -10   17.20    2.20
   8  -3 -10   20.90    2.20
   8  -3 -10   18.50    2.10
   9   3 -10   31.20    2.90
  -9  -3 -10   31.10    2.70
   9  -3  10   34.90    2.80
   9   3 -10   36.80    3.00
   9   3 -10   32.60    3.00
  -9   3 -10   29.30    2.90
   9  -3 -10   31.00    2.60
   9  -3 -10   28.00    2.90
   9  -3 -10   30.00    2.90
   0   4  10  192.38    4.70
   0  -4 -10  194.68    4.60
   0   4 -10  192.98    4.00
   0   4 -10  190.78    4.90
   0   4 -10  195.08    4.80
   0   4 -10  190.38    5.30
   0  -4  10  192.98    4.40
   1   4 -10  211.18    5.30
   1   4 -10  223.68    5.90
  -1   4  10  222.58    5.00
  -1  -4 -10  215.08    4.90
   1  -4  10  218.68    4.60
   1   4 -10  222.18    4.70
   1   4 -10  216.18    5.10
   1  -4  10  221.48    5.10
   1   4  10  219.88    5.20
  -1   4 -10  215.98    5.30
  -1   4 -10  219.38    5.20
  -1  -4  10  212.38    4.90
   1  -4 -10  216.68    4.90
   2   4 -10   55.49    2.50
   2  -4  10   52.69    1.80
   2   4 -10   49.99    2.10
   2   4 -10   54.39    2.90
   2   4 -10   49.50    2.30
  -2  -4 -10   50.49    2.20
  -2   4  10   54.19    2.10
   2  -4  10   50.39    2.40
   2  -4 -10   53.29    2.50
  -2   4 -10   49.20    2.40
   2  -4 -10   56.79    2.40
   2   4  10   52.29    2.30
   2  -4 -10   53.49    2.10
   2  -4 -10   53.29    2.10
  -2   4 -10   50.99    2.50
  -3   4  10  114.59    3.10
   3   4 -10  105.49    3.40
   3   4 -10  113.79    3.50
  -3  -4 -10  107.69    3.30
   3  -4  10  111.09    3.80
   3   4 -10  110.09    4.10
  -3   4 -10  102.09    3.60
   3  -4 -10  109.29    3.20
   3  -4 -10  110.69    3.60
   3  -4 -10  112.09    3.60
  -3   4 -10  106.99    3.70
   3  -4 -10  113.19    3.00
   3   4  10  113.29    3.60
   3  -4 -10  108.49    3.60
   4  -4  10   34.30    2.40
   4   4 -10   43.60    2.70
   4   4 -10   35.60    2.10
   4   4 -10   36.10    2.40
   4   4 -10   34.70    2.10
  -4  -4 -10   37.60    2.00
  -4   4 -10   34.20    2.40
   4  -4 -10   37.50    1.30
   4  -4 -10   38.80    2.00
   4  -4 -10   40.10    2.30
  -4   4 -10   34.30    2.20
   4   4  10   35.70    2.20
   4  -4 -10   34.90    2.30
   4  -4 -10   37.40    2.30
   5   4 -10    0.50    0.80
   5   4 -10    0.30    1.20
  -5  -4 -10    1.40    0.80
   5   4 -10    1.10    1.10
   5  -4  10    1.70    1.10
  -5  -4 -10    1.00    0.90
   5   4 -10    1.90    0.90
   5  -4 -10    1.80    0.90
   5  -4 -10    0.80    1.00
  -5   4 -10    1.40    1.00
   5  -4 -10    1.60    1.10
   5  -4 -10    1.10    0.50
   5  -4 -10    1.10    0.80
   5   4  10    0.40    0.90
  -5   4 -10   -0.10    0.90
   6   4 -10   45.00    2.90
   6   4 -10   43.80    2.70
   6   4 -10   42.70    2.70
  -6  -4 -10   46.70    2.40
  -6  -4 -10   47.50    2.90
   6   4 -10   46.50    2.70
  -6   4 -10   49.10    3.00
   6  -4 -10   47.20    2.50
   6   4  10   43.60    2.50
  -6   4 -10   46.40    2.90
   6  -4 -10   44.60    2.80
   6  -4 -10   48.50    2.10
   6  -4 -10   39.20    2.60
  -7  -4 -10   89.29    3.90
   7   4 -10   83.79    3.90
   7   4 -10   83.29    3.90
   7   4 -10   88.59    3.80
   7   4 -10   87.49    3.90
   7   4  10   81.19    3.50
   7  -4 -10   79.59    3.50
  -7   4 -10   80.89    3.80
  -7   4 -10   89.49    4.20
   7  -4 -10   87.39    4.00
   7  -4 -10   84.29    3.70
   7  -4 -10   87.79    3.10
   8   4 -10   19.60    2.50
  -8  -4 -10   18.50    2.20
   8   4 -10   16.30    2.30
   8   4 -10   19.80    2.50
   8   4  10   17.90    2.00
   8  -4 -10   16.40    2.20
   8  -4 -10   15.20    2.10
  -8   4 -10   12.70    2.10
   8  -4 -10   14.90    2.00
   9   4 -10   16.10    2.30
   9   4 -10   10.70    2.00
   9   4 -10   16.40    2.40
  -9  -4 -10   12.10    1.90
  -9   4 -10   13.20    2.40
   9  -4 -10   13.10    2.20
   9  -4 -10   14.20    2.00
   9  -4 -10   17.50    2.30
   0   5  10   61.99    2.50
   0  -5 -10   62.99    2.40
   0  -5  10   63.89    2.30
   0   5 -10   64.19    2.10
   0   5 -10   64.19    2.70
   0   5 -10   65.69    2.70
   0   5 -10   62.59    3.10
   0  -5  10   63.09    2.30
  -1  -5 -10   64.29    2.30
   1   5 -10   63.99    2.20
   1  -5  10   64.09    2.50
  -1  -5 -10   68.29    2.10
   1   5 -10   66.99    2.80
   1  -5  10   65.89    2.30
   1   5 -10   59.59    3.10
  -1   5  10   64.09    2.50
   1   5 -10   64.49    2.70
  -1   5 -10   65.29    2.80
   1   5  10   60.59    2.50
  -1   5 -10   61.79    3.00
  -1  -5  10   64.89    2.50
  -1   5 -10   62.99    2.70
   2  -5  10    1.50    0.60
  -2   5  10    0.70    0.70
   2  -5  10    0.90    0.70
   2   5 -10    2.50    1.00
   2   5 -10    0.90    0.80
   2   5 -10    2.00    0.70
   2   5 -10   -0.60    0.90
  -2  -5 -10    1.70    0.70
   2  -5 -10    2.20    0.90
   2   5  10    1.70    0.90
   2  -5 -10    1.20    0.70
   2  -5 -10    0.80    0.60
  -2  -5  10    1.20    0.80
   2  -5 -10    1.60    0.80
  -2   5 -10    1.00    0.80
   2  -5 -10    1.00    0.70
  -2   5 -10    0.50    0.80
   2  -5 -10    3.70    1.00
   3   5 -10  133.19    3.90
   3  -5  10  132.99    3.20
   3   5 -10  133.59    4.60
  -3  -5 -10  135.19    4.30
   3  -5  10  132.49    4.30
  -3  -5 -10  130.89    3.60
  -3   5  10  132.49    3.50
   3   5 -10  132.59    4.10
  -3  -5  10  135.59    4.30
  -3   5 -10  128.49    4.20
  -3   5 -10  129.89    4.30
   3  -5 -10  133.89    4.00
   3  -5 -10  130.39    3.80
   3  -5 -10  133.39    4.10
   3  -5 -10  136.79    4.00
   3   5  10  128.39    4.00
   3  -5 -10  138.89    3.60
   4   5 -10   18.90    1.80
   4   5 -10   18.40    2.00
   4   5 -10   19.60    2.20
  -4  -5 -10   17.40    1.40
   4   5 -10   18.90    1.80
   4  -5  10   14.30    1.80
  -4  -5 -10   15.90    1.70
  -4   5 -10   16.00    1.80
   4   5  10   17.20    1.80
   4  -5 -10   18.10    1.80
  -4  -5  10   18.70    1.90
   4  -5 -10   19.00    1.70
   4  -5 -10   19.00    1.60
   4  -5 -10   15.20    1.70
  -4   5 -10   14.00    1.70
   5   5 -10   14.10    2.00
   5   5 -10   19.00    1.90
   5  -5  10   16.50    1.90
   5   5 -10   15.40    1.90
   5   5 -10   16.60    1.80
  -5  -5 -10   16.40    1.90
   5   5  10   15.70    1.70
   5  -5 -10   13.70    1.70
  -5   5 -10   19.60    2.10
   5  -5 -10   18.60    2.00
   5  -5 -10   17.30    1.70
  -5   5 -10   14.70    1.80
  -5  -5  10   19.50    1.90
   6   5 -10   34.30    2.90
   6   5 -10   31.40    2.50
   6   5 -10   28.10    2.40
   6  -5  10   31.60    2.70
   6   5 -10   30.90    2.40
  -6  -5 -10   30.20    2.50
   6  -5 -10   31.70    2.10
   6   5  10   32.00    2.30
   6  -5 -10   31.40    2.40
   6  -5 -10   36.10    2.30
  -6   5 -10   29.90    2.70
   6  -5 -10   35.00    2.50
  -6   5 -10   32.30    2.60
   7   5 -10  129.29    6.00
  -7  -5 -10  133.69    4.90
   7   5 -10  131.89    4.70
   7   5 -10  124.79    4.80
   7   5 -10  128.29    4.90
   7  -5 -10  140.09    4.60
   7  -5 -10  139.19    4.60
  -7   5 -10  124.09    4.80
   7   5  10  123.99    4.40
   7  -5 -10  139.19    5.10
   8   5 -10   59.09    3.40
   8   5 -10   54.79    3.50
  -8  -5 -10   55.89    3.30
   8   5 -10   51.29    3.50
  -8   5 -10   58.09    3.60
   8  -5 -10   61.99    3.40
   8  -5 -10   54.89    3.50
   8   5  10   50.29    3.00
   8  -5 -10   57.69    3.30
   9   5 -10    3.50    1.60
  -9  -5 -10    4.80    1.40
   9   5 -10    6.40    1.80
   9  -5 -10    7.50    1.70
   9  -5 -10    7.20    1.80
   0  -6 -10  101.79    3.10
   0   6 -10  105.49    2.90
   0   6 -10  103.69    3.60
   0   6 -10  101.09    3.80
   0   6  10  104.79    3.40
   0   6 -10  108.49    3.60
   0  -6  10  106.89    3.20
   0  -6 -10  105.49    3.00
   0  -6 -10  105.39    3.40
   0  -6  10  101.29    3.10
   1   6 -10   63.79    2.80
   1   6 -10   66.19    3.20
   1   6 -10   64.69    2.90
   1  -6  10   66.19    2.60
   1  -6  10   64.19    2.40
   1   6 -10   63.09    2.40
  -1  -6 -10   66.79    2.30
  -1  -6 -10   66.79    2.20
  -1   6  10   65.99    2.50
  -1  -6 -10   62.99    2.70
   1   6  10   60.19    2.60
  -1  -6  10   63.69    2.50
  -1   6 -10   63.89    2.80
  -1  -6  10   62.49    2.20
   1  -6 -10   63.59    2.50
   1  -6 -10   61.39    2.60
  -1   6 -10   61.39    3.10
  -1   6 -10   63.59    2.90
  -1  -6  10   65.69    3.10
  -2  -6 -10   11.90    1.20
   2  -6  10   11.80    1.20
   2   6 -10   10.30    1.50
   2  -6  10   13.90    1.60
  -2   6  10   12.00    1.30
   2   6 -10   13.30    1.40
  -2  -6 -10   11.10    1.40
   2   6 -10   11.80    1.50
   2   6 -10   11.10    1.70
  -2   6 -10   11.70    1.50
  -2  -6  10   10.90    1.40
   2  -6 -10   12.20    1.40
   2  -6 -10   10.90    1.30
   2  -6 -10   11.00    1.20
   2  -6 -10   10.50    1.30
  -2  -6  10   10.50    1.60
  -2   6 -10    9.70    1.60
   2  -6 -10   12.60    1.40
   2   6  10   12.30    1.50
  -2   6 -10   10.30    1.40
   3   6 -10    2.40    1.10
   3   6 -10    3.80    1.40
   3  -6  10    1.30    0.90
   3   6 -10    1.80    0.90
   3   6 -10    1.60    0.80
  -3   6  10    2.30    0.80
  -3  -6 -10    2.20    1.00
   3  -6  10    2.60    0.70
   3   6 -10    0.60    0.90
   3  -6 -10    1.40    0.80
  -3  -6  10    2.00    0.90
  -3   6 -10    2.30    1.00
   3  -6 -10    0.80    0.70
   3  -6 -10    2.90    1.00
   3  -6 -10    2.00    0.90
   3   6  10    1.20    0.80
   3  -6 -10    1.40    0.90
  -3  -6  10    1.80    1.00
  -3   6 -10    2.10    1.10
   4   6 -10   26.90    2.20
   4   6 -10   19.40    1.90
   4   6 -10   23.90    2.10
   4   6 -10   18.50    2.10
  -4  -6 -10   23.20    2.10
   4  -6  10   17.40    1.90
  -4   6 -10   22.80    1.90
   4  -6 -10   23.80    2.00
  -4   6 -10   21.80    2.20
   4  -6 -10   23.70    2.00
   4  -6 -10   20.80    1.70
  -4  -6  10   21.40    2.10
   4   6  10   23.80    2.00
   5  -6  10   86.19    3.80
   5   6 -10   84.49    3.60
   5   6 -10   92.59    3.70
  -5  -6 -10   91.39    3.80
   5   6 -10   87.89    3.70
   5   6 -10   89.29    4.10
  -5   6 -10   91.79    4.10
   5  -6 -10   90.69    3.50
   5   6  10   94.59    3.60
  -5   6 -10   91.69    3.80
   5  -6 -10   88.39    3.70
   5  -6 -10   95.19    3.40
  -5  -6  10   87.49    3.60
  -6  -6 -10   32.70    2.60
   6   6 -10   30.50    2.50
   6  -6  10   28.30    2.50
   6   6 -10   30.60    2.70
   6   6 -10   34.50    2.60
   6   6 -10   30.40    2.60
   6  -6 -10   31.80    2.50
  -6   6 -10   29.10    2.60
   6   6  10   31.50    2.40
   6  -6 -10   34.60    2.50
  -6   6 -10   29.30    2.80
   6  -6 -10   30.50    2.50
   7  -6  10   96.39    4.60
   7   6 -10   92.99    4.20
   7   6 -10   94.39    4.50
   7   6 -10   96.89    4.00
  -7  -6 -10   93.19    4.20
   7   6  10   91.29    3.80
   7  -6 -10   91.29    3.90
  -7   6 -10   84.29    4.00
   7  -6 -10   91.29    4.30
   7  -6 -10   97.99    3.90
   8   6 -10   13.40    2.20
  -8  -6 -10   14.50    2.10
   8   6 -10   13.90    2.40
   8   6 -10   10.30    2.00
   8  -6 -10   12.70    2.20
   8  -6 -10   11.30    1.90
  -8   6 -10   15.40    2.30
   8   6  10   13.60    1.90
   8  -6 -10   16.10    2.10
   9   6 -10    4.90    1.50
   9   6 -10    4.80    1.70
   9  -6 -10    7.20    1.60
   0   7 -10    1.80    0.90
   0  -7  10    0.80    0.70
   0   7 -10    0.80    0.60
   0  -7 -10    1.00    0.70
   0  -7 -10    0.40    0.70
   0   7 -10    1.50    1.10
   0   7  10    1.20    0.80
   0  -7 -10   -0.10    0.70
   0  -7  10    0.90    0.70
   0   7 -10    1.40    0.80
   1   7 -10   39.00    2.70
   1   7 -10   38.10    2.00
  -1  -7 -10   38.60    2.20
  -1  -7 -10   37.50    1.70
   1   7 -10   41.90    2.30
   1  -7  10   38.80    2.00
   1  -7  10   36.30    2.10
  -1   7  10   39.40    2.10
   1   7 -10   40.10    2.40
   1  -7 -10   39.80    2.00
  -1   7 -10   41.90    2.60
  -1   7 -10   40.80    2.50
  -1  -7  10   39.90    2.60
   1  -7 -10   39.10    2.20
  -1  -7  10   39.50    2.10
   1  -7 -10   37.50    2.10
  -1   7 -10   41.40    2.30
   1   7  10   38.30    2.10
   1  -7 -10   37.90    2.00
   2   7 -10   77.19    3.50
   2   7 -10   88.29    3.10
   2   7 -10   85.49    3.20
  -2  -7 -10   85.69    3.40
  -2   7  10   82.69    2.90
   2  -7  10   84.29    3.30
   2   7 -10   83.79    3.50
   2  -7  10   81.19    2.80
  -2   7 -10   78.29    3.20
  -2  -7  10   83.69    3.60
   2  -7 -10   86.09    2.90
   2  -7 -10   88.69    4.40
   2   7  10   81.29    3.20
   2  -7 -10   87.39    2.80
  -2   7 -10   78.79    3.50
  -2   7 -10   86.89    3.60
   2  -7 -10   88.29    3.20
  -2  -7  10   84.09    3.10
   2  -7 -10   88.19    3.20
   3   7 -10   91.39    3.60
   3   7 -10   94.39    3.40
   3   7 -10   92.09    3.70
   3  -7  10   95.29    2.90
   3   7 -10   93.49    3.50
   3   7 -10   95.29    3.90
  -3  -7 -10   88.09    3.60
   3  -7  10   95.59    3.70
  -3   7  10   96.19    3.00
   3  -7 -10   96.59    3.20
  -3   7 -10   95.89    3.80
  -3  -7  10   95.59    4.00
   3   7  10   94.79    3.50
  -3  -7  10   93.89    3.50
   3  -7 -10   98.29    3.50
  -3   7 -10   95.99    3.70
  -3   7 -10   98.79    4.00
   3  -7 -10   97.09    3.30
   4   7 -10   41.60    2.80
   4   7 -10   39.70    2.60
   4   7 -10   39.60    2.40
  -4  -7 -10   38.50    2.60
   4   7 -10   42.00    2.70
   4  -7  10   36.30    2.60
  -4  -7  10   42.40    2.70
   4  -7 -10   41.90    2.40
   4  -7 -10   38.50    2.50
   4   7  10   40.40    2.50
  -4   7 -10   38.90    2.80
   4  -7 -10   39.90    2.40
  -4  -7  10   42.70    2.50
  -4   7 -10   40.60    2.60
   5   7 -10   40.70    2.80
   5  -7  10   41.00    2.80
  -5  -7 -10   40.10    2.60
   5   7 -10   40.00    2.70
   5   7 -10   34.60    2.80
   5   7 -10   39.10    2.60
  -5   7 -10   34.50    2.60
   5  -7 -10   35.90    2.30
   5   7  10   39.40    2.60
   5  -7 -10   44.60    2.60
  -5   7 -10   40.50    3.00
  -5  -7  10   39.60    2.70
   5  -7 -10   38.50    2.70
   6  -7  10   51.79    3.40
   6   7 -10   53.39    3.50
   6   7 -10   55.29    3.10
   6   7 -10   54.79    3.20
   6   7 -10   54.59    3.30
  -6  -7 -10   50.89    3.20
  -6  -7  10   61.49    4.80
  -6   7 -10   53.69    3.60
   6  -7 -10   55.99    3.00
   6  -7 -10   54.79    3.20
   6   7  10   57.89    3.10
   6  -7 -10   53.59    2.80
  -6   7 -10   54.99    3.30
  -7  -7 -10   25.30    2.60
   7  -7  10   22.40    2.60
   7   7 -10   22.00    2.30
   7   7 -10   23.10    2.80
   7   7 -10   23.20    2.60
   7  -7 -10   24.40    2.60
   7   7  10   22.20    2.30
   7  -7 -10   25.20    2.50
   7  -7 -10   25.60    2.40
  -7   7 -10   25.30    2.70
   8  -7  10    2.50    1.70
   8   7 -10    4.20    1.50
   8   7 -10    3.10    1.50
   8   7 -10    3.90    1.70
  -8  -7 -10    3.60    1.40
   8  -7 -10    2.00    1.30
   8  -7 -10    6.10    1.50
  -8   7 -10    2.40    1.50
   8   7  10    4.80    1.50
   8  -7 -10    8.90    1.90
   0   8 -10   55.59    3.00
   0   8 -10   53.49    3.00
   0  -8  10   54.59    3.20
   0  -8  10   58.49    2.50
   0  -8 -10   54.49    2.30
   0   8  10   55.69    2.60
   0  -8  10   53.89    2.50
   0  -8 -10   54.39    2.70
   0   8 -10   52.59    2.30
   0  -8 -10   51.19    2.50
   0   8 -10   57.79    2.80
   1   8 -10   34.50    2.60
   1  -8  10   34.00    2.00
  -1   8  10   31.00    1.90
  -1  -8 -10   35.20    1.80
   1   8 -10   31.20    1.90
  -1  -8 -10   31.30    2.20
   1  -8  10   34.00    2.10
   1   8 -10   29.60    2.10
   1   8 -10   25.50    2.30
   1   8  10   30.40    2.10
  -1   8 -10   36.90    2.50
   1  -8 -10   30.90    2.00
   1  -8 -10   30.10    2.10
  -1  -8  10   35.80    2.70
   1  -8 -10   31.40    2.00
  -1   8 -10   31.80    2.50
  -1   8 -10   27.50    2.10
  -1  -8  10   31.90    2.10
   2  -8  10  145.49    4.60
   2   8 -10  144.89    4.20
   2   8 -10  140.99    4.30
  -2   8  10  142.19    4.00
   2  -8  10  147.19    4.00
   2   8 -10  144.89    4.80
   2   8 -10  146.19    4.90
  -2  -8 -10  145.29    4.60
   2   8  10  153.08    4.60
   2  -8 -10  137.29    4.20
   2  -8 -10  148.09    4.50
   2  -8 -10  146.09    4.00
  -2   8 -10  145.49    4.80
  -2   8 -10  151.58    5.00
  -2   8 -10  141.79    4.50
   2  -8 -10  149.39    4.40
  -2  -8  10  145.79    4.40
  -2  -8  10  141.69    5.10
   3   8 -10   17.50    2.00
   3   8 -10   18.70    2.30
   3  -8  10   16.50    1.50
  -3  -8 -10   15.10    1.80
   3   8 -10   16.70    1.90
   3   8 -10   19.80    1.80
  -3   8  10   17.30    1.50
   3  -8  10   21.30    2.20
   3   8 -10   19.70    1.80
   3  -8 -10   19.20    2.50
  -3  -8  10   18.70    1.90
  -3   8 -10   17.40    1.90
   3   8  10   15.50    1.80
   3  -8 -10   17.50    1.80
  -3   8 -10   21.80    2.20
  -3  -8  10   15.40    2.00
   3  -8 -10   13.70    1.70
   3  -8 -10   18.10    1.80
  -3   8 -10   19.40    2.20
   4   8 -10   22.90    2.10
   4   8 -10   28.80    2.80
   4  -8  10   24.70    2.30
  -4  -8 -10   26.30    2.40
   4   8 -10   24.50    2.30
   4   8 -10   27.40    2.30
   4   8 -10   29.20    2.10
  -4   8 -10   32.40    2.80
   4   8  10   26.70    2.30
   4  -8 -10   28.70    2.30
   4  -8 -10   21.10    2.10
   4  -8 -10   31.40    2.30
  -4  -8  10   26.70    2.40
   4  -8 -10   30.40    2.20
   4  -8 -10   28.40    2.00
  -4   8 -10   26.10    2.20
  -4   8 -10   33.80    2.50
  -4  -8  10   27.00    2.20
   5  -8  10   38.00    2.90
  -5  -8 -10   42.50    2.90
   5   8 -10   43.00    2.80
   5   8 -10   39.10    2.90
   5   8 -10   39.10    2.70
   5   8 -10   42.50    3.20
   5  -8 -10   39.30    2.60
   5  -8 -10   41.10    2.80
   5   8  10   37.10    2.60
   5  -8 -10   35.50    2.70
  -5   8 -10   39.70    3.20
  -5   8 -10   38.70    2.70
  -5  -8  10   40.70    2.90
   5  -8 -10   40.10    2.40
   6   8 -10   40.00    3.30
   6   8 -10   42.80    2.80
   6   8 -10   37.80    2.90
  -6  -8 -10   36.20    2.80
   6  -8  10   34.20    2.80
   6  -8 -10   41.80    2.90
  -6   8 -10   40.90    2.90
  -6  -8  10   38.20    2.80
   6  -8 -10   40.30    2.50
   6   8  10   40.40    2.80
   6  -8 -10   41.90    2.80
   6  -8 -10   40.90    2.90
  -7  -8 -10   16.20    2.30
   7   8 -10   16.50    2.20
   7   8 -10   11.30    2.10
   7   8 -10   13.00    2.00
   7  -8  10   11.80    2.10
  -7   8 -10   16.60    2.20
   7  -8 -10   18.00    1.90
   7  -8 -10   12.30    2.10
   7   8  10   13.20    1.90
   7  -8 -10   15.70    2.30
   7  -8 -10   14.80    2.00
   8   8 -10   26.00    3.00
   8   8 -10   23.90    2.50
  -8  -8 -10   23.80    3.10
   8  -8 -10   22.30    2.60
   8  -8 -10   26.70    3.30
   8  -8 -10   19.30    2.40
   8   8  10   27.80    2.70
   0  -9  10  106.29    3.60
   0   9 -10  105.89    3.70
   0   9 -10  103.89    4.10
   0  -9 -10  100.79    3.90
   0  -9 -10  102.99    3.60
   0  -9  10  104.19    3.50
   0  -9  10  100.59    4.40
   0  -9 -10  104.59    3.30
   0   9 -10  113.29    4.40
   0   9  10  101.39    3.60
   1  -9  10  158.78    4.70
   1   9 -10  159.78    5.20
  -1  -9 -10  162.68    4.10
   1   9 -10  158.38    5.20
  -1  -9 -10  159.58    4.80
   1   9 -10  150.08    4.50
   1  -9  10  156.08    4.50
  -1   9  10  164.58    4.50
  -1  -9 -10  164.18    5.00
   1   9 -10  165.48    4.50
   1  -9 -10  162.48    4.50
   1  -9 -10  158.18    4.40
  -1   9 -10  165.38    5.40
  -1   9 -10  160.78    4.80
   1   9  10  164.98    4.80
  -1  -9  10  157.08    5.50
  -1   9 -10  160.88    5.10
  -1  -9  10  163.68    4.70
   1  -9 -10  151.98    4.80
   2   9 -10  155.58    5.20
  -2  -9 -10  155.78    4.90
   2  -9  10  157.38    4.40
   2  -9  10  157.88    4.90
   2   9 -10  152.38    4.60
   2   9 -10  155.48    4.60
   2   9 -10  147.89    5.10
  -2   9  10  161.68    4.40
  -2  -9  10  155.08    4.70
  -2  -9  10  151.18    5.40
   2  -9 -10  155.58    4.80
  -2   9 -10  148.99    5.30
   2  -9 -10  149.79    4.50
   2  -9 -10  153.28    4.80
  -2   9 -10  164.58    5.10
  -2   9 -10  156.28    4.80
   2   9  10  162.98    4.90
   3   9 -10   35.50    2.80
   3   9 -10   40.90    3.00
  -3  -9 -10   41.90    2.70
   3  -9  10   34.50    2.00
   3  -9  10   34.40    2.50
  -3   9  10   35.80    2.00
   3   9 -10   39.70    2.40
   3   9 -10   36.60    2.40
   3   9 -10   39.70    2.50
   3   9  10   36.80    2.50
   3  -9 -10   39.10    2.50
   3  -9 -10   33.70    2.40
  -3   9 -10   33.70    2.50
  -3  -9  10   43.30    3.00
  -3   9 -10   37.30    2.90
   3  -9 -10   40.00    2.50
  -3  -9  10   35.40    2.30
  -3   9 -10   37.30    2.50
   4   9 -10   62.19    3.50
   4  -9  10   66.49    3.60
   4   9 -10   63.49    3.20
   4   9 -10   63.59    3.00
   4   9 -10   60.69    3.40
   4   9 -10   65.89    3.20
  -4  -9 -10   68.39    3.50
   4  -9 -10   68.09    3.30
  -4  -9  10   64.99    3.30
  -4  -9  10   62.29    3.50
  -4   9 -10   71.39    3.40
  -4   9 -10   66.39    3.70
   4  -9 -10   60.99    2.90
   4  -9 -10   63.79    3.20
   4   9  10   62.69    3.10
   5   9 -10   64.29    3.40
   5   9 -10   63.19    3.80
   5   9 -10   65.29    3.20
  -5  -9 -10   62.99    3.60
   5   9 -10   60.89    3.20
   5   9 -10   61.89    5.60
   5  -9  10   64.09    3.60
  -5   9 -10   64.29    3.40
  -5  -9  10   64.29    3.60
   5   9  10   60.69    3.20
   5  -9 -10   64.89    3.40
   5  -9 -10   61.69    3.30
  -5   9 -10   63.39    4.50
   5  -9 -10   56.79    3.30
  -5  -9  10   64.29    3.30
   6   9 -10   86.09    4.40
  -6  -9 -10   81.29    4.10
   6   9 -10   73.79    3.80
   6  -9  10   80.79    4.30
   6   9 -10   80.39    3.60
   6   9  10   86.89    3.90
  -6   9 -10   85.19    3.90
   6  -9 -10   86.49    4.20
   6  -9 -10   79.89    3.90
  -6  -9  10   83.59    4.10
   6  -9 -10   79.89    3.90
   7   9 -10  127.09    5.20
   7  -9  10  127.99    5.50
   7   9 -10  125.29    5.30
   7   9 -10  124.69    4.50
  -7  -9 -10  118.09    5.10
   7  -9 -10  125.19    5.00
   7   9  10  126.89    4.80
  -7   9 -10  127.99    5.00
   7  -9 -10  122.79    5.20
   7  -9 -10  124.09    4.90
   0  10  10   29.70    2.10
   0 -10  10   32.60    3.10
   0  10 -10   35.50    2.60
   0 -10 -10   33.50    2.30
   0  10 -10   34.10    2.90
   0 -10 -10   35.80    2.50
   0 -10  10   30.30    2.10
   0 -10 -10   34.40    2.10
   0  10 -10   31.90    2.20
   0 -10  10   34.80    2.30
   1 -10  10  233.38    6.20
   1 -10  10  233.18    7.00
   1  10 -10  239.58    6.80
  -1  10  10  232.38    5.80
   1  10 -10  231.38    5.90
   1 -10  10  238.78    5.90
   1  10 -10  230.98    5.90
  -1 -10 -10  230.78    6.20
   1  10 -10  237.78    6.50
  -1 -10 -10  228.28    6.40
  -1  10 -10  244.28    6.10
  -1  10 -10  232.08    6.80
  -1 -10  10  239.08    6.10
  -1  10 -10  232.68    6.30
   1 -10 -10  235.28    6.40
   1  10  10  235.88    6.10
   1 -10 -10  229.58    5.70
  -1 -10  10  219.58    7.00
   1 -10 -10  236.48    5.80
   2  10 -10   19.10    2.30
   2  10 -10   20.40    1.90
  -2 -10 -10   18.50    2.10
  -2 -10 -10   19.10    2.10
   2 -10  10   20.20    1.90
   2  10 -10   21.70    2.10
   2  10 -10   18.00    1.80
   2  10 -10   18.20    2.30
   2 -10  10   24.00    2.20
  -2  10  10   20.00    1.80
   2  10  10   17.60    2.00
   2 -10 -10   18.80    2.10
  -2  10 -10   15.00    1.90
   2 -10 -10   17.00    1.90
  -2 -10  10   17.30    2.30
   2 -10 -10   19.90    2.10
  -2  10 -10   20.20    2.00
  -2  10 -10   18.80    2.10
  -2 -10  10   22.10    2.20
   3 -10  10   39.60    2.30
   3  10 -10   38.10    2.50
   3  10 -10   40.20    2.40
   3 -10  10   45.80    3.00
  -3 -10 -10   41.10    2.80
   3  10 -10   43.80    2.70
   3  10 -10   43.60    3.20
   3  10 -10   42.30    3.10
   3  10  10   44.70    2.80
   3 -10 -10   47.30    2.80
  -3 -10  10   38.40    3.00
  -3 -10  10   43.70    2.60
  -3  10 -10   44.90    2.70
   3 -10 -10   43.10    2.70
  -3  10 -10   39.80    3.10
   3 -10 -10   43.70    2.80
   4  10 -10   90.49    3.90
   4  10 -10   81.09    3.70
   4  10 -10   88.49    4.90
   4  10 -10   75.59    3.80
  -4 -10 -10   77.39    3.90
   4 -10  10   80.69    4.00
   4 -10 -10   84.19    3.80
   4 -10 -10   75.29    3.50
  -4  10 -10   81.39    3.60
  -4  10 -10   76.19    4.30
  -4 -10  10   82.79    3.80
  -4 -10  10   77.09    4.10
   4  10  10   82.19    3.70
   4 -10 -10   87.79    3.80
  -5 -10 -10  158.08    5.60
   5 -10  10  160.28    5.90
   5  10 -10  164.88    5.50
   5  10 -10  165.28    5.80
   5 -10 -10  163.18    5.50
  -5 -10  10  150.48    5.20
   5  10  10  153.28    5.30
  -5  10 -10  158.68    5.30
  -5 -10  10  152.78    5.80
   5 -10 -10  168.18    5.50
   5 -10 -10  155.48    5.60
   6  10 -10   35.20    3.20
  -6 -10 -10   29.40    2.70
   6 -10  10   34.60    3.40
   6  10 -10   32.10    2.80
   6 -10 -10   34.40    2.80
   6 -10 -10   33.80    2.90
   6  10  10   34.30    2.70
  -6 -10  10   31.90    3.10
  -6  10 -10   32.80    2.80
   6 -10 -10   28.20    2.80
   7  10 -10   20.80    2.70
   7 -10 -10   24.00    3.70
   7  10  10   20.30    2.40
   7 -10 -10   22.10    2.60
   0 -11 -10   21.60    2.10
   0  11 -10   22.70    2.00
   0 -11 -10   22.90    2.30
   0  11  10   23.40    2.20
   0 -11 -10   21.70    1.80
   0  11 -10   23.30    2.40
   0 -11  10   27.60    2.20
   0 -11  10   20.20    2.50
   0  11 -10   23.40    2.50
  -1 -11 -10   18.30    2.10
   1 -11  10   19.50    2.10
   1  11 -10   22.60    2.30
   1 -11  10   15.30    2.20
   1  11 -10   22.00    2.00
   1  11 -10   20.40    2.00
   1  11 -10   16.10    2.20
  -1 -11 -10   18.60    2.00
   1 -11  10   20.60    2.00
  -1  11  10   19.90    1.90
  -1  11 -10   20.90    2.40
   1 -11 -10   21.80    2.10
  -1  11 -10   18.10    2.10
   1 -11 -10   20.20    2.20
  -1 -11  10   18.10    2.50
  -1 -11  10   17.30    1.90
   1 -11 -10   20.40    2.30
   1  11  10   17.90    2.00
   1 -11 -10   17.50    1.90
  -1  11 -10   16.70    1.80
  -2 -11 -10   22.90    2.40
   2  11 -10   16.70    2.20
  -2 -11 -10   17.40    2.20
   2  11 -10   17.80    1.90
  -2  11  10   21.00    1.90
   2 -11  10   18.80    2.20
   2  11 -10   22.10    2.50
   2 -11  10   16.90    1.80
   2 -11 -10   17.60    2.00
  -2  11 -10   20.30    2.10
  -2  11 -10   21.90    2.50
   2 -11 -10   19.50    2.10
  -2 -11  10   19.50    2.10
  -2 -11  10   13.80    2.10
   2 -11 -10   20.30    2.20
   2  11  10   20.90    2.20
   3  11 -10   32.20    2.90
   3  11 -10   28.80    2.50
  -3 -11 -10   36.50    2.80
   3 -11  10   31.40    2.10
   3 -11  10   31.40    2.60
  -3 -11 -10   31.80    2.60
   3 -11 -10   30.70    2.50
  -3 -11  10   31.00    2.60
  -3  11 -10   32.20    2.50
   3 -11 -10   31.40    2.50
   3 -11 -10   30.80    2.60
   3  11  10   28.40    2.30
  -3 -11  10   28.50    3.00
  -3  11 -10   27.90    3.20
  -4 -11 -10   29.30    2.70
   4 -11  10   28.40    2.70
   4  11 -10   23.30    2.40
  -4 -11 -10   28.60    2.60
   4  11 -10   24.00    2.60
   4 -11 -10   22.90    2.30
   4  11  10   26.90    2.60
  -4 -11  10   26.10    2.80
   4 -11 -10   28.00    2.50
  -4  11 -10   25.80    2.50
   4 -11 -10   28.10    2.60
  -4 -11  10   26.50    2.60
   5  11 -10    9.50    1.80
  -5 -11 -10   10.40    1.90
   5  11 -10   10.40    2.10
   5 -11  10    5.90    1.70
  -5 -11  10   11.70    1.90
  -5  11 -10   14.00    2.00
   5 -11 -10   11.20    1.90
   5 -11 -10    9.00    1.80
  -5 -11  10    9.40    2.00
   5 -11 -10   10.40    1.80
   5  11  10   11.10    1.90
   6  11 -10    1.70    1.60
  -6 -11 -10    2.10    1.50
   6  11 -10    0.40    1.20
   6 -11  10    0.60    1.30
  -6 -11  10    2.20    1.50
   6 -11 -10   -0.30    1.10
   6 -11 -10    0.30    1.20
   6  11  10    2.00    1.30
  -6  11 -10    0.90    1.30
   6 -11 -10    3.40    1.50
   0 -12 -10    7.50    1.50
   0  12 -10    8.00    1.70
   0 -12  10    4.10    1.70
   0 -12 -10    6.80    1.40
   0  12  10    5.70    1.20
   0 -12 -10    7.40    1.60
   0  12 -10    6.70    2.80
   0 -12  10    8.50    1.50
   1  12 -10   16.80    2.10
  -1 -12 -10   15.10    2.10
   1 -12  10   16.90    2.00
   1 -12  10   18.00    2.10
   1 -12  10   16.80    2.50
  -1  12  10   16.70    1.90
  -1 -12 -10   17.80    2.10
   1  12  10   19.20    2.10
   1 -12 -10   16.50    1.90
  -1 -12  10   12.30    2.20
   1 -12 -10   16.00    2.10
  -1  12 -10   15.00    2.80
   1 -12 -10   14.20    1.90
  -1 -12  10   16.30    2.00
   2  12 -10    5.50    1.40
  -2  12  10    3.90    1.10
   2 -12  10    2.30    1.10
  -2 -12 -10    1.00    1.40
   2  12 -10   -0.80    1.30
   2 -12  10    1.40    1.20
  -2 -12 -10    2.50    1.30
  -2  12 -10    2.00    1.00
   2  12  10    1.10    1.10
   2 -12 -10    3.20    1.30
   2 -12 -10    0.30    1.10
   2 -12 -10    2.10    1.30
  -2 -12  10    1.20    1.50
  -2 -12  10    1.70    1.20
   3  12 -10   23.90    2.60
   3 -12  10   18.70    2.40
   3  12 -10   22.20    2.40
  -3 -12 -10   24.90    2.70
  -3 -12 -10   23.10    2.50
   3 -12  10   25.40    2.10
  -3  12 -10   24.70    2.30
   3  12  10   21.50    2.30
   3 -12 -10   20.20    2.30
  -3 -12  10   20.20    2.70
  -3 -12  10   23.70    2.50
   3 -12 -10   23.00    2.40
   3 -12 -10   24.30    2.50
  -4 -12 -10    5.30    1.70
   4  12 -10    3.00    1.60
  -4 -12 -10    4.10    1.50
   4 -12  10    2.80    1.40
   4  12 -10    4.40    1.40
  -4 -12  10    4.10    1.40
   4  12  10    4.90    1.50
   4 -12 -10    2.00    1.40
  -4  12 -10    4.50    1.30
   4 -12 -10    2.10    1.30
  -4 -12  10    2.90    1.50
   4 -12 -10    1.70    1.20
   5  12 -10   85.39    4.30
  -5 -12 -10   85.99    4.40
   5 -12  10   87.79    4.60
   5  12 -10   81.49    4.10
  -5 -12 -10   83.49    4.40
   5  12  10   87.09    4.10
  -5  12 -10   93.99    4.10
   5 -12 -10   85.19    4.10
  -5 -12  10   87.59    4.60
   5 -12 -10   83.89    4.30
  -5 -12  10   87.29    4.10
   5 -12 -10   82.19    4.10
   6  12 -10   35.80    3.30
   0 -13 -10   28.70    2.20
   0 -13 -10   29.60    2.60
   0  13  10   30.10    2.40
   0 -13  10   27.60    3.00
   0 -13  10   31.90    2.50
   0 -13 -10   32.50    2.80
   1 -13  10   34.60    3.20
  -1 -13 -10   25.70    2.60
  -1 -13 -10   28.10    2.90
   1 -13  10   28.30    2.40
  -1  13  10   32.00    2.30
   1 -13  10   32.40    3.60
  -1 -13  10   27.70    3.10
   1  13  10   29.60    2.60
  -1 -13  10   30.80    2.60
   1 -13 -10   29.30    2.40
   1 -13 -10   28.20    2.80
   1 -13 -10   28.50    2.70
  -2 -13 -10  106.89    4.70
   2 -13  10  115.29    4.30
   2  13 -10  107.89    4.40
   2 -13  10  110.19    4.60
   2  13 -10  109.79    4.50
  -2 -13 -10  107.19    4.60
  -2 -13  10  105.19    4.40
   2 -13 -10  106.69    4.60
  -2 -13  10  109.19    5.30
   2 -13 -10  106.09    4.60
   2  13  10  111.59    4.50
   2 -13 -10  108.69    4.30
   3 -13  10   43.30    3.20
  -3 -13 -10   38.80    3.10
  -3 -13 -10   36.50    3.00
   3  13 -10   35.60    3.00
   3  13 -10   38.60    3.00
   3 -13  10   40.80    2.60
   3 -13 -10   33.70    2.90
  -3 -13  10   37.60    2.90
   3 -13 -10   41.00    3.00
  -3 -13  10   33.80    3.50
   3  13  10   41.20    3.00
   3 -13 -10   37.60    2.90
  -4 -13 -10  116.59    5.10
   4  13 -10  127.39    5.10
   4 -13  10  118.69    5.20
   4  13 -10  125.09    5.00
  -4 -13 -10  118.09    5.30
  -4 -13  10  117.49    5.50
   4 -13 -10  110.79    4.80
   4 -13 -10  120.29    4.70
   4 -13 -10  118.09    4.90
   4  13  10  121.09    4.90
  -4 -13  10  126.09    4.90
   5  13 -10    4.10    1.60
   5  13  10    2.20    1.30
   5 -13 -10   -0.40    1.20
  -5 -13  10    0.60    1.20
  -5  13 -10    0.90    1.70
   0  14  10   65.89    3.40
   0 -14  10   64.39    3.50
   0 -14 -10   60.29    3.60
   0 -14  10   66.49    4.30
  -1 -14 -10   86.59    4.30
  -1 -14 -10   87.59    4.40
   1 -14  10   88.29    4.00
   1 -14  10   81.49    4.60
  -1  14  10   83.19    3.70
  -1 -14  10   89.29    4.90
  -1 -14  10   91.19    4.10
   1 -14 -10   85.69    4.20
   1 -14 -10   85.79    4.30
   1  14  10   83.19    3.90
   1 -14 -10   90.99    3.90
   2 -14  10   13.40    2.20
   2 -14  10   13.60    2.00
  -2 -14 -10   13.40    2.20
  -2 -14 -10   16.80    2.40
   2  14  10   13.60    2.10
   2 -14 -10   19.00    2.30
  -2 -14  10   17.50    2.30
   2 -14 -10   16.00    2.40
  -2 -14  10   13.40    2.50
   2 -14 -10   13.70    2.20
   3  14 -10   23.30    2.50
   3 -14  10   21.10    2.60
   3 -14  10   27.60    2.60
   3  14 -10   21.10    2.50
  -3 -14  10   22.10    2.50
   3 -14 -10   24.00    2.50
   3  14  10   23.70    2.50
   3 -14 -10   18.80    2.60
   0 -15  10   13.50    2.00
   0  15  10   15.00    2.10
  -1  15  10    4.40    1.40
   1 -15  10    6.00    1.60
  -1 -15 -10    3.30    1.90
   1 -15 -10    7.00    1.70
   1  15  10    3.20    1.40
  -1 -15  10    4.10    1.40
   0   0 -11   -0.20    0.80
   0   0 -11   -0.20    0.40
   0   0 -11    0.10    0.40
   1   0 -11   29.60    1.30
   1   0 -11   32.30    1.60
   1   0 -11   29.70    1.90
  -1   0 -11   28.50    1.80
   1   0 -11   26.50    2.20
  -1   0 -11   29.90    1.40
  -2   0 -11   48.60    2.00
   2   0 -11   52.49    2.20
   2   0  11   52.19    2.40
   2   0 -11   51.09    1.70
   2   0 -11   47.30    2.80
  -2   0 -11   50.09    2.50
   3   0 -11   54.09    2.90
   3   0 -11   52.09    1.90
   3   0  11   50.29    2.50
  -3   0 -11   52.79    2.20
  -3   0 -11   51.39    2.60
   3   0 -11   52.09    2.40
  -4   0 -11   61.89    2.90
   4   0 -11   60.89    3.10
  -4   0 -11   63.59    2.60
   4   0  11   59.79    2.70
   4   0 -11   63.39    2.20
   4   0 -11   57.19    2.70
   4   0 -11   62.99    3.20
   5   0 -11   30.40    2.50
  -5   0 -11   30.40    2.10
   5   0 -11   26.20    1.70
  -5   0 -11   32.90    2.20
   5   0 -11   30.00    2.50
   5   0 -11   31.50    2.30
   6   0 -11  118.09    4.40
  -6   0 -11  109.69    4.10
   6   0 -11  114.49    3.60
   6   0 -11  119.39    4.40
  -6   0 -11  115.19    4.10
   6   0 -11  121.89    4.40
   7   0 -11    0.60    0.80
  -7   0 -11    1.70    1.10
   7   0 -11    0.70    1.30
   7   0 -11   -1.40    1.20
   7   0 -11   -0.30    1.10
   8   0 -11    0.80    1.30
   8   0 -11    2.50    1.40
   8   0 -11    0.20    1.40
  -8   0 -11    5.10    1.40
   9   0 -11   31.80    3.00
   9   0 -11   29.30    3.50
  -9   0 -11   33.50    3.10
   0   1 -11   28.40    1.50
   0  -1 -11   32.80    1.40
   0  -1 -11   29.80    1.90
   0   1 -11   30.10    1.30
   0   1 -11   29.80    2.00
   0   1  11   31.00    1.90
   0  -1 -11   31.80    1.20
   1   1 -11   38.00    2.50
  -1  -1 -11   39.30    1.40
  -1  -1 -11   41.10    2.20
   1   1 -11   34.20    1.60
   1   1 -11   40.70    2.20
   1   1 -11   37.80    1.60
  -1   1 -11   38.80    1.80
  -1   1 -11   38.30    2.20
   1   1  11   38.10    2.00
   1  -1 -11   31.70    2.30
   1  -1 -11   42.40    1.60
   1  -1 -11   37.30    1.70
   1  -1 -11   37.50    1.20
   2   1 -11  294.07    6.10
  -2  -1 -11  293.17    5.60
  -2  -1 -11  293.47    6.50
   2   1 -11  289.67    5.60
   2   1 -11  288.17    7.10
   2  -1 -11  305.37    6.00
  -2   1 -11  288.37    6.00
  -2   1 -11  275.17    6.50
   2  -1 -11  293.17    6.20
   2  -1 -11  291.47    5.00
   2  -1 -11  285.57    6.90
   2   1  11  288.97    6.40
   3   1 -11  277.27    7.00
  -3  -1 -11  260.67    6.20
  -3  -1 -11  272.87    5.60
   3   1 -11  268.77    6.10
   3   1 -11  270.77    5.50
   3  -1 -11  268.37    5.00
  -3   1 -11  268.07    5.90
   3  -1 -11  269.47    6.70
   3  -1 -11  277.57    6.20
  -3   1 -11  270.47    6.40
   3  -1 -11  270.37    6.60
   3   1  11  271.97    6.20
   4   1 -11   45.70    2.40
  -4  -1 -11   42.50    2.10
   4   1 -11   45.70    2.80
  -4  -1 -11   45.00    2.40
   4   1 -11   42.10    2.70
   4   1 -11   43.20    2.00
   4  -1 -11   41.50    1.70
   4  -1 -11   39.30    2.30
   4   1  11   42.10    2.40
  -4   1 -11   42.40    2.50
   4  -1 -11   41.10    2.70
   4  -1 -11   43.10    2.60
  -4   1 -11   42.90    2.30
   5   1 -11  266.27    6.90
  -5  -1 -11  264.57    6.50
   5   1 -11  272.57    6.70
   5   1 -11  265.17    6.80
   5   1 -11  269.77    6.00
   5  -1 -11  276.97    6.80
   5  -1 -11  262.97    6.80
   5   1  11  282.17    6.50
   5  -1 -11  269.37    5.60
  -5   1 -11  267.77    6.70
   5  -1 -11  279.57    6.80
  -5   1 -11  273.87    6.60
  -6  -1 -11   18.50    2.00
   6   1 -11   24.20    2.20
   6   1 -11   18.10    2.10
   6   1 -11   19.90    1.80
   6   1 -11   21.10    2.30
   6  -1 -11   18.80    2.10
   6  -1 -11   18.90    1.60
  -6   1 -11   19.60    2.10
   6  -1 -11   21.00    2.20
   6  -1 -11   18.80    2.10
  -6   1 -11   24.30    2.20
   6   1  11   17.90    1.80
   7   1 -11    2.10    1.30
   7   1 -11    2.10    1.50
  -7  -1 -11    1.90    1.20
   7   1 -11    1.00    0.90
   7   1 -11    0.70    1.40
   7  -1 -11    1.30    1.40
  -7   1 -11    2.20    1.10
   7  -1 -11    1.90    0.90
  -7   1 -11    3.90    1.30
   7   1  11    1.40    1.10
   7  -1 -11    1.40    1.10
   7  -1 -11   -0.40    1.20
  -8  -1 -11   12.30    2.00
   8   1 -11    9.90    1.90
  -8  -1 -11   11.00    1.70
   8   1 -11   11.00    2.00
   8   1 -11   11.80    2.10
   8  -1 -11   11.30    1.90
  -8   1 -11   11.20    1.90
   8  -1 -11   11.50    2.00
   9   1 -11   47.90    3.50
   9   1 -11   54.39    5.70
   9   1 -11   47.50    3.30
  -9  -1 -11   43.60    3.20
  -9  -1 -11   52.89    3.40
  -9   1 -11   47.70    3.40
   9  -1 -11   48.80    3.30
   0   2  11  185.68    4.60
   0  -2 -11  182.18    4.70
   0   2 -11  183.78    3.80
   0  -2 -11  186.98    4.10
   0   2 -11  181.38    4.20
   0   2 -11  180.28    4.80
   0   2 -11  177.88    5.30
   1   2 -11  244.68    5.10
  -1  -2 -11  252.57    4.30
   1   2 -11  248.78    5.90
   1   2 -11  247.88    5.20
  -1  -2 -11  241.78    5.60
   1   2 -11  235.78    6.30
  -1   2  11  242.38    5.50
   1   2  11  243.78    5.70
  -1   2 -11  247.88    5.90
   1  -2 -11  242.68    4.80
   1  -2 -11  245.68    5.30
  -1   2 -11  241.68    5.30
   2   2 -11  136.19    3.70
  -2  -2 -11  136.99    3.10
  -2  -2 -11  134.59    3.90
   2   2 -11  127.49    3.50
   2   2 -11  129.19    4.60
   2  -2 -11  137.69    4.40
   2  -2 -11  138.79    3.90
  -2   2 -11  136.09    3.80
  -2   2 -11  135.19    4.20
   2  -2 -11  137.29    3.30
   2   2  11  133.09    3.90
   3   2 -11   61.39    2.60
   3   2 -11   62.39    3.10
   3   2 -11   60.69    2.40
  -3  -2 -11   61.99    2.70
   3  -2 -11   66.49    3.10
   3  -2 -11   58.89    2.60
  -3   2 -11   62.49    2.80
   3  -2 -11   67.59    2.90
   3   2  11   61.19    2.70
   3  -2 -11   63.39    1.60
  -3   2 -11   60.09    2.60
   3  -2 -11   60.29    2.10
   4   2 -11  112.99    3.50
   4   2 -11  116.79    3.90
  -4  -2 -11  123.19    3.90
   4   2 -11  115.59    4.20
   4   2 -11  115.19    4.30
   4  -2 -11  117.69    3.30
   4  -2 -11  116.09    4.10
  -4   2 -11  117.29    3.90
   4  -2 -11  117.89    3.90
  -4   2 -11  118.89    4.10
   4  -2 -11  117.49    4.10
   4  -2 -11  118.69    2.80
   4   2  11  114.39    3.80
   5   2 -11   41.00    2.60
   5   2 -11   44.20    2.30
   5   2 -11   43.20    2.60
  -5  -2 -11   44.80    2.40
   5   2 -11   44.20    2.80
  -5   2 -11   44.80    2.60
   5  -2 -11   43.10    1.80
  -5   2 -11   45.00    2.70
   5  -2 -11   44.40    2.80
   5  -2 -11   45.00    2.20
   5  -2 -11   47.10    2.80
   5  -2 -11   45.50    2.60
   5   2  11   43.10    2.50
   6   2 -11    2.50    1.30
   6   2 -11    4.00    1.00
  -6  -2 -11    2.90    1.10
   6   2 -11    3.00    1.20
   6   2 -11    3.30    1.40
   6  -2 -11    2.80    1.30
  -6   2 -11    5.00    1.40
   6  -2 -11    4.20    1.30
   6   2  11    1.90    1.10
   6  -2 -11    2.30    1.40
  -6   2 -11    5.30    1.30
   6  -2 -11    4.00    0.90
   6  -2 -11    5.50    1.30
   7   2 -11   57.09    3.40
   7   2 -11   56.89    3.40
   7   2 -11   55.19    2.90
  -7  -2 -11   54.09    2.90
   7   2 -11   54.89    3.40
  -7  -2 -11   59.89    3.30
   7  -2 -11   57.79    3.10
  -7   2 -11   58.09    3.20
   7   2  11   53.69    2.80
   7  -2 -11   58.89    3.40
   7  -2 -11   58.59    3.30
   7  -2 -11   57.89    2.60
  -7   2 -11   54.69    4.10
   8   2 -11   39.00    3.10
  -8  -2 -11   31.70    2.60
   8   2 -11   35.60    3.00
   8   2 -11   33.40    2.90
  -8  -2 -11   31.60    2.70
   8  -2 -11   36.10    3.00
  -8   2 -11   32.40    2.80
   8  -2 -11   26.90    2.70
  -9  -2 -11   32.80    2.70
   9   2 -11   29.50    2.90
   9   2 -11   23.30    2.80
   9  -2 -11   29.00    2.80
  -9   2 -11   24.60    3.20
   0   3  11   11.70    1.40
   0  -3 -11   10.10    1.20
   0   3 -11   11.30    1.40
   0   3 -11   11.40    1.70
   0   3 -11   11.00    1.20
   0   3 -11   12.90    1.20
   0  -3 -11   11.40    1.10
  -1  -3 -11   10.10    0.90
   1   3 -11    8.20    1.10
  -1  -3 -11   10.50    1.30
   1   3 -11    6.90    1.40
   1   3 -11    8.20    1.20
  -1   3  11    7.00    1.10
   1   3 -11    7.60    0.90
   1  -3 -11    7.90    1.00
  -1   3 -11    7.00    1.20
   1  -3 -11    9.80    1.10
  -1   3 -11    6.70    1.00
   1   3  11    8.30    1.30
   2   3 -11    6.40    1.20
   2   3 -11    6.60    1.00
   2   3 -11    5.30    0.90
  -2  -3 -11    4.60    1.00
   2   3 -11    6.40    1.60
  -2   3  11    5.60    0.90
   2  -3 -11    5.00    1.20
   2  -3 -11    4.70    0.80
   2  -3 -11    5.20    0.80
   2   3  11    4.20    1.10
  -2   3 -11    4.90    1.10
   2  -3 -11    4.50    1.00
  -2   3 -11    4.10    0.90
   3   3 -11    8.70    1.20
   3   3 -11   10.50    1.80
   3   3 -11    8.60    1.20
  -3  -3 -11   10.00    1.30
   3  -3 -11    8.60    1.10
   3  -3 -11    8.20    1.50
   3  -3 -11    8.70    1.30
   3   3  11    7.60    1.20
  -3   3 -11   11.20    1.60
   3  -3 -11    9.50    1.40
  -3   3 -11    8.40    1.30
   4   3 -11   55.89    3.00
   4   3 -11   52.69    2.40
   4   3 -11   48.50    3.00
  -4  -3 -11   50.39    2.40
   4   3 -11   49.30    2.50
   4  -3 -11   52.79    2.30
  -4   3 -11   50.09    2.70
   4   3  11   47.00    2.60
  -4   3 -11   50.19    2.70
   4  -3 -11   50.69    2.80
   4  -3 -11   49.80    2.70
   4  -3 -11   48.10    2.50
   5   3 -11   16.90    1.70
   5   3 -11   22.60    2.30
  -5  -3 -11   23.00    1.90
   5   3 -11   21.20    2.40
   5   3 -11   21.20    2.00
   5   3  11   18.90    1.90
   5  -3 -11   21.30    1.70
   5  -3 -11   22.70    2.10
   5  -3 -11   18.30    2.00
  -5   3 -11   21.00    2.10
  -5   3 -11   17.20    1.90
   5  -3 -11   18.60    2.00
   5  -3 -11   20.80    1.40
   6   3 -11   90.79    3.90
  -6  -3 -11   93.49    3.50
   6   3 -11   93.39    3.60
  -6  -3 -11   81.49    3.70
   6   3 -11   93.19    4.00
   6   3 -11   91.49    4.10
   6   3  11   88.49    3.60
   6  -3 -11   86.39    2.80
  -6   3 -11   83.79    3.80
   6  -3 -11   86.59    3.30
   6  -3 -11   81.19    3.70
   6  -3 -11   94.29    4.00
   6  -3 -11   88.49    3.60
  -6   3 -11   92.89    3.80
   7   3 -11   35.90    2.90
   7   3 -11   32.40    2.70
   7   3 -11   36.40    2.50
  -7  -3 -11   31.90    2.60
   7   3 -11   32.00    3.00
  -7  -3 -11   38.70    2.50
  -7   3 -11   30.80    2.70
   7  -3 -11   28.60    2.20
   7  -3 -11   36.60    2.80
   7   3  11   33.10    2.40
   7  -3 -11   36.90    2.80
   7  -3 -11   34.40    2.30
   8   3 -11    3.60    1.40
   8   3 -11    3.10    1.70
   8   3 -11    5.80    1.80
  -8  -3 -11    4.20    1.40
   8   3  11    2.40    1.30
  -8   3 -11    4.20    1.60
   8  -3 -11    5.60    1.70
   8  -3 -11    0.60    1.40
   9   3 -11   -0.80    1.30
  -9  -3 -11    1.50    1.30
   9   3 -11   -0.10    1.50
   9  -3 -11    4.10    1.60
   0  -4  11    1.60    0.70
   0   4 -11    0.90    0.90
   0   4 -11    0.60    1.10
   0   4 -11    2.10    0.80
   0  -4 -11    1.80    0.70
   0  -4 -11    1.90    0.80
   0   4  11    0.90    0.80
   1   4 -11  118.29    3.90
  -1  -4 -11  125.49    3.60
  -1   4  11  132.19    3.80
   1   4 -11  124.49    3.70
   1   4 -11  124.29    4.40
   1  -4  11  123.59    3.20
   1   4 -11  127.59    3.40
   1  -4 -11  131.59    3.60
   1   4  11  124.49    3.80
  -1   4 -11  120.39    3.90
  -1   4 -11  125.39    3.80
  -1   4 -11  127.79    4.50
   1  -4 -11  133.99    3.50
   2   4 -11    3.30    0.90
  -2   4  11    2.20    0.80
   2   4 -11    4.60    1.30
   2   4 -11    3.00    0.80
   2   4 -11    4.40    1.10
   2  -4  11    3.40    0.70
  -2  -4 -11    3.20    0.90
   2  -4 -11    3.50    0.80
   2  -4 -11    5.90    1.30
  -2   4 -11    4.00    1.10
   2  -4 -11    5.30    1.00
  -2   4 -11    0.70    0.80
   2  -4 -11    4.90    0.90
   2   4  11    3.30    1.00
   3   4 -11   37.50    2.20
   3   4 -11   40.40    2.10
  -3  -4 -11   38.40    2.10
   3   4 -11   39.00    2.60
   3   4  11   39.20    2.30
   3  -4 -11   40.00    2.20
   3  -4 -11   37.80    2.30
   3  -4 -11   40.40    2.40
   3  -4 -11   33.90    1.90
  -3   4 -11   37.60    2.40
  -3   4 -11   38.10    2.30
  -4  -4 -11    9.10    1.20
   4   4 -11   10.30    1.40
   4   4 -11    7.00    1.50
   4   4 -11    7.20    1.60
   4   4 -11   11.40    1.50
  -4   4 -11    7.70    1.40
  -4   4 -11    6.80    1.40
   4  -4 -11   10.90    1.30
   4  -4 -11    7.60    1.40
   4  -4 -11    9.40    1.50
   4  -4 -11    7.20    1.30
   4   4  11    8.80    1.40
   5   4 -11   49.90    2.80
  -5  -4 -11   45.90    2.70
  -5  -4 -11   48.90    2.50
   5   4 -11   43.90    3.00
   5   4 -11   51.49    3.00
   5   4 -11   46.60    2.60
   5  -4 -11   48.30    2.80
  -5   4 -11   49.40    3.00
   5  -4 -11   46.20    2.80
   5   4  11   49.00    2.70
  -5   4 -11   51.79    2.90
   5  -4 -11   44.60    2.40
   5  -4 -11   45.30    2.60
  -6  -4 -11   75.99    3.40
   6   4 -11   77.79    4.00
   6   4 -11   75.39    3.40
   6   4 -11   78.09    3.70
   6   4 -11   77.99    3.70
  -6  -4 -11   74.29    3.50
   6  -4 -11   81.09    3.50
   6  -4 -11   82.19    3.30
   6   4  11   75.59    3.40
  -6   4 -11   75.09    3.70
  -6   4 -11   81.59    3.70
   6  -4 -11   69.99    3.50
   7   4 -11   12.40    2.10
   7   4 -11   11.60    2.00
  -7  -4 -11   12.80    1.90
   7   4 -11   12.60    1.90
  -7   4 -11    8.80    1.80
   7  -4 -11   12.40    1.90
   7  -4 -11   15.40    1.90
   7  -4 -11   11.30    1.90
   7   4  11    6.70    1.50
   8   4 -11   65.39    3.80
   8   4 -11   72.29    3.80
   8   4 -11   71.19    3.80
  -8  -4 -11   75.79    3.80
   8  -4 -11   67.79    3.60
  -8   4 -11   69.89    3.90
   8   4  11   68.59    3.50
   8  -4 -11   74.49    4.00
   8  -4 -11   74.89    3.60
   9   4 -11    3.40    1.70
  -9  -4 -11    9.50    2.50
   9   4 -11    4.30    1.80
   9  -4 -11    4.80    1.60
   0   5 -11    5.50    1.50
   0  -5  11    4.80    0.90
   0   5  11    3.90    1.00
   0   5 -11    2.90    1.00
   0  -5 -11    5.50    1.00
   0   5 -11    6.40    1.20
  -1  -5 -11   99.69    3.20
   1  -5  11  100.29    3.00
   1  -5  11  100.19    3.30
   1   5 -11  100.59    3.00
   1   5 -11   99.29    3.60
  -1   5  11  100.09    3.30
  -1  -5 -11   97.19    3.10
   1   5 -11   98.69    3.40
   1   5 -11   98.69    4.00
   1  -5 -11   99.09    3.20
  -1   5 -11   94.19    3.50
  -1  -5  11  102.89    3.30
   1   5  11   91.19    3.30
   1  -5 -11  102.69    3.20
  -1   5 -11   98.59    3.50
  -1   5 -11   99.79    4.00
   2  -5  11    8.70    1.30
   2   5 -11    7.80    1.10
   2  -5  11    9.40    1.00
   2   5 -11    8.10    1.20
  -2  -5 -11    8.80    1.20
  -2   5  11    9.90    1.20
   2   5 -11    9.90    1.40
   2   5 -11    7.10    1.50
   2  -5 -11    9.90    1.50
   2  -5 -11    9.80    1.50
  -2   5 -11    6.20    1.30
   2  -5 -11    9.40    1.30
   2   5  11    8.70    1.40
  -2   5 -11    6.50    1.30
   2  -5 -11    7.00    1.10
   2  -5 -11    8.50    1.10
   3   5 -11  100.39    3.40
  -3   5  11  102.29    3.10
   3  -5  11  101.79    3.80
   3   5 -11  102.79    3.60
   3   5 -11  103.69    3.70
  -3  -5 -11  101.79    3.20
   3   5  11   98.39    3.60
   3  -5 -11  104.69    3.60
  -3   5 -11   99.69    3.80
   3  -5 -11   98.99    3.30
  -3   5 -11   99.19    3.80
   3  -5 -11   97.79    3.60
   3  -5 -11   97.29    3.50
   4  -5  11    9.40    1.60
   4   5 -11    9.50    1.60
  -4  -5 -11    9.10    1.50
   4   5 -11    8.20    1.40
   4   5 -11   11.00    2.00
   4   5 -11    9.30    1.40
  -4  -5 -11    9.00    1.20
   4   5  11   10.00    1.50
   4  -5 -11    7.80    1.20
   4  -5 -11    8.00    1.40
   4  -5 -11    7.20    1.50
  -4   5 -11   10.30    1.70
  -4   5 -11    7.30    1.40
   4  -5 -11    8.60    1.50
   5   5 -11    3.40    1.20
   5   5 -11    4.10    1.70
  -5  -5 -11    1.90    1.20
   5  -5  11    1.70    1.20
   5   5 -11    2.20    1.00
   5   5 -11    2.40    1.40
   5  -5 -11    1.70    1.20
   5   5  11    1.50    1.10
   5  -5 -11   -0.10    1.00
  -5   5 -11    3.80    1.30
   5  -5 -11    2.90    1.00
  -5   5 -11    1.10    1.10
   6   5 -11   29.10    2.50
   6   5 -11   27.60    2.70
   6   5 -11   32.10    2.50
  -6  -5 -11   33.60    2.70
   6   5 -11   33.40    2.80
  -6   5 -11   30.60    2.80
  -6   5 -11   32.50    2.50
   6  -5 -11   34.60    2.40
   6  -5 -11   29.10    2.40
   6   5  11   27.70    2.40
   6  -5 -11   31.10    2.60
  -7  -5 -11    1.40    1.10
   7   5 -11    2.00    1.70
   7   5 -11    1.40    1.30
   7   5 -11   -0.20    1.30
   7  -5 -11    2.10    1.20
   7  -5 -11   -1.40    1.10
   7  -5 -11    2.60    1.40
  -7   5 -11    2.50    1.40
   7   5  11    2.20    1.30
   8   5 -11   18.50    2.40
  -8  -5 -11   18.60    2.30
   8   5 -11   18.10    2.40
   8   5 -11   21.00    2.70
   8  -5 -11   17.50    2.40
  -8   5 -11   15.60    2.20
   8   5  11   17.80    2.10
   8  -5 -11   17.10    2.20
   8  -5 -11   20.30    2.30
   0  -6  11  278.37    6.00
   0   6  11  264.27    6.20
   0   6 -11  268.77    6.50
   0  -6 -11  282.77    6.00
   0  -6 -11  271.27    6.30
   0  -6 -11  269.47    5.70
   0   6 -11  275.57    6.60
   0  -6  11  267.07    5.90
   0   6 -11  276.37    7.10
   1  -6  11   88.19    2.90
   1   6 -11   93.29    3.00
   1  -6  11   87.59    3.20
   1   6 -11   98.19    4.10
  -1  -6 -11   92.39    3.00
   1   6 -11   92.99    3.50
  -1  -6 -11   90.09    3.40
   1   6 -11   95.39    3.50
  -1   6  11   95.99    3.30
  -1   6 -11   96.59    3.60
   1  -6 -11   95.59    3.20
  -1   6 -11   86.19    3.80
  -1   6 -11   95.99    3.60
  -1  -6  11   92.39    3.20
   1  -6 -11   91.19    3.30
   1   6  11   95.19    3.40
   2   6 -11   11.40    1.80
   2  -6  11   11.60    1.50
  -2  -6 -11   12.60    1.30
  -2   6  11   12.40    1.40
   2   6 -11   12.40    1.40
  -2  -6 -11   12.00    1.60
   2   6 -11   11.20    1.50
   2  -6  11   11.80    1.20
   2   6 -11   11.10    1.50
  -2   6 -11    9.70    1.50
   2  -6 -11   12.10    1.40
  -2   6 -11   12.00    1.80
   2   6  11   13.70    1.70
  -2  -6  11   12.70    1.40
   2  -6 -11   12.20    1.40
   2  -6 -11   12.50    1.30
   2  -6 -11   11.70    1.50
   2  -6 -11   12.90    1.60
   2  -6 -11   11.00    1.40
  -2   6 -11   10.70    1.50
   3   6 -11    5.70    1.60
   3   6 -11    7.30    1.40
   3   6 -11    7.30    1.30
   3   6 -11    4.70    1.20
   3   6 -11    4.80    1.20
  -3   6  11    6.60    1.10
   3  -6  11    7.90    1.40
  -3  -6 -11    5.20    1.20
   3  -6 -11    7.20    1.40
   3  -6 -11    6.70    1.20
  -3   6 -11    5.30    1.30
  -3   6 -11    6.20    1.40
   3  -6 -11    6.50    1.10
   3  -6 -11    6.50    1.20
   3   6  11    5.00    1.10
   4   6 -11  154.78    4.80
   4   6 -11  159.08    5.10
   4   6 -11  158.28    4.90
   4  -6  11  159.18    5.20
   4   6 -11  158.48    5.30
  -4  -6 -11  154.48    5.00
  -4  -6  11  155.58    5.00
   4  -6 -11  152.08    4.50
  -4   6 -11  158.38    5.00
   4   6  11  151.48    4.70
   4  -6 -11  161.88    5.00
   4  -6 -11  151.38    4.60
  -4   6 -11  162.18    5.30
   5   6 -11  162.68    5.20
  -5  -6 -11  153.28    5.30
   5  -6  11  156.88    5.40
   5   6 -11  162.68    5.20
   5   6 -11  160.48    5.50
   5   6 -11  169.88    5.30
   5  -6 -11  168.58    5.00
   5  -6 -11  169.68    5.40
   5   6  11  167.48    5.10
  -5   6 -11  167.88    5.60
   5  -6 -11  163.08    4.80
  -5  -6  11  158.38    5.10
  -5   6 -11  169.08    5.40
   6   6 -11    6.20    1.50
   6   6 -11    4.70    1.60
   6   6 -11    7.40    1.80
   6  -6  11    9.30    1.90
  -6  -6 -11    9.40    1.80
   6   6 -11    8.90    2.00
   6  -6 -11    9.80    1.80
   6   6  11    7.40    1.50
  -6   6 -11    8.10    1.70
   6  -6 -11    4.10    1.30
   6  -6 -11    5.30    1.50
   7   6 -11   30.40    2.80
   7   6 -11   28.90    2.70
   7   6 -11   27.20    2.80
  -7  -6 -11   29.90    2.70
   7   6  11   28.80    2.60
   7  -6 -11   30.70    2.70
   7  -6 -11   28.10    2.60
  -7   6 -11   29.90    2.70
   7  -6 -11   31.70    2.60
  -8  -6 -11   20.00    2.50
   8   6 -11   22.70    2.80
   8   6 -11   22.10    2.60
   8   6 -11   23.60    2.80
   8   6  11   18.80    2.30
  -8   6 -11   22.50    3.00
   8  -6 -11   20.30    2.60
   8  -6 -11   26.20    2.60
   8  -6 -11   27.40    2.60
   0  -7 -11    1.40    0.80
   0   7 -11    1.10    0.90
   0  -7  11   -1.50    0.60
   0  -7  11    0.40    0.60
   0   7 -11   -0.20    0.80
   0   7 -11   -0.90    1.00
   0  -7 -11    0.30    0.70
   0  -7 -11   -0.10    0.70
   0   7  11    1.40    0.90
   1  -7  11   49.80    2.50
   1   7 -11   51.29    2.70
  -1  -7 -11   43.00    2.50
   1   7 -11   50.49    3.10
   1   7 -11   50.69    2.30
  -1   7  11   47.80    2.40
   1  -7  11   46.30    2.20
   1   7 -11   46.90    2.70
   1  -7 -11   49.90    2.50
   1  -7 -11   51.69    2.40
   1  -7 -11   50.29    2.40
  -1  -7  11   51.19    2.50
  -1   7 -11   47.60    3.00
   1  -7 -11   47.40    2.30
  -1   7 -11   49.00    2.80
  -1   7 -11   50.89    2.70
   1   7  11   50.59    2.60
   2   7 -11   28.90    2.70
  -2  -7 -11   27.40    2.10
   2   7 -11   28.60    2.20
   2   7 -11   26.30    1.90
  -2   7  11   25.70    1.80
   2   7 -11   28.40    2.20
   2  -7  11   28.40    2.10
   2  -7  11   28.10    1.70
   2  -7 -11   30.20    2.00
  -2   7 -11   29.30    2.10
   2  -7 -11   25.00    1.90
  -2  -7  11   25.80    2.00
   2  -7 -11   24.70    1.90
   2  -7 -11   27.80    1.80
   2   7  11   28.20    2.10
  -2   7 -11   28.60    2.40
  -2  -7  11   29.60    2.30
  -2   7 -11   26.40    2.40
   3   7 -11    4.40    1.40
   3   7 -11    1.90    1.10
   3   7 -11    4.00    1.20
   3   7 -11    3.90    1.10
   3   7 -11    3.40    1.40
   3  -7  11    5.40    1.30
  -3   7  11    4.60    1.00
  -3  -7 -11    5.80    1.30
   3   7  11    5.20    1.20
  -3  -7  11    3.90    1.30
  -3   7 -11    5.90    1.40
   3  -7 -11    4.00    1.10
  -3   7 -11    3.80    1.30
  -3  -7  11    4.10    1.30
   3  -7 -11    3.80    1.00
  -3   7 -11    2.90    1.30
   3  -7 -11    6.00    1.20
   3  -7 -11    4.40    1.10
   4   7 -11   14.70    1.90
  -4  -7 -11   13.70    1.80
   4  -7  11   11.00    1.70
   4   7 -11   13.10    1.80
   4   7 -11   15.30    2.00
   4   7 -11   12.70    1.60
   4   7 -11   13.80    2.10
  -4   7 -11   12.30    1.90
   4   7  11   13.20    1.80
   4  -7 -11   10.20    1.40
   4  -7 -11   13.10    1.70
   4  -7 -11   11.70    1.60
  -4  -7  11   15.90    2.00
  -4   7 -11   13.00    1.80
   5  -7  11   52.59    3.20
   5   7 -11   44.50    2.90
  -5  -7 -11   48.90    3.00
   5   7 -11   47.80    2.90
   5   7 -11   47.80    3.40
   5   7 -11   48.50    3.10
  -5   7 -11   49.60    3.10
   5  -7 -11   53.69    3.10
   5   7  11   49.40    2.90
  -5  -7  11   47.90    2.90
   5  -7 -11   48.50    2.80
  -5   7 -11   52.59    3.40
   5  -7 -11   46.30    2.60
   6   7 -11   55.89    3.30
   6  -7  11   56.69    3.60
  -6  -7 -11   60.89    3.50
   6   7 -11   57.29    3.70
   6   7 -11   64.69    3.40
   6  -7 -11   53.69    2.90
  -6   7 -11   54.29    3.40
   6  -7 -11   55.59    3.40
   6   7  11   54.99    3.20
   6  -7 -11   59.69    3.20
   7   7 -11   71.09    3.80
   7   7 -11   63.79    3.80
  -7  -7 -11   67.89    3.80
   7   7 -11   63.79    3.50
   7  -7  11   63.59    3.80
   7   7  11   58.59    3.30
  -7   7 -11   67.09    3.70
   7  -7 -11   71.69    3.90
   7  -7 -11   63.29    3.20
   7  -7 -11   53.09    3.30
   8   7 -11   31.10    3.20
   8   7 -11   25.30    2.70
   8  -7 -11   27.60    2.80
   8  -7 -11   28.30    2.60
   8   7  11   19.90    2.30
   0  -8  11   29.80    2.00
   0  -8 -11   28.60    2.20
   0  -8 -11   29.50    1.90
   0   8 -11   28.50    2.60
   0  -8  11   29.20    1.90
   0  -8 -11   33.00    2.10
   0   8 -11   28.60    2.20
   0   8 -11   32.20    2.50
   0   8  11   30.40    2.10
   1  -8  11   13.10    1.60
  -1  -8 -11   13.70    1.70
   1   8 -11   12.80    1.70
   1   8 -11   15.40    1.50
   1   8 -11   17.00    2.00
   1   8 -11   10.40    1.80
   1  -8  11   13.40    1.50
  -1   8  11   13.20    1.60
  -1  -8  11   13.40    2.00
   1  -8 -11   13.60    1.50
  -1   8 -11   14.00    2.00
  -1  -8  11   14.00    1.70
  -1   8 -11   11.60    1.60
   1  -8 -11   12.30    1.50
   1   8  11   11.80    1.50
   1  -8 -11    9.50    1.40
  -1   8 -11   15.20    2.00
   2   8 -11   58.49    3.30
   2  -8  11   62.89    3.00
   2  -8  11   66.19    2.70
   2   8 -11   67.19    2.90
   2   8 -11   66.69    3.10
   2   8 -11   66.29    3.30
  -2   8  11   62.19    2.70
  -2  -8 -11   65.69    3.20
   2  -8 -11   70.79    3.10
  -2   8 -11   68.19    3.20
   2  -8 -11   72.49    3.10
   2   8  11   73.39    3.20
   2  -8 -11   69.19    3.00
  -2   8 -11   63.59    3.40
  -2  -8  11   67.29    3.10
  -2  -8  11   68.59    3.60
  -2   8 -11   69.39    3.50
   3   8 -11   63.99    3.50
   3  -8  11   62.39    3.20
   3  -8  11   68.29    2.90
   3   8 -11   71.39    3.10
   3   8 -11   68.39    3.40
  -3   8  11   64.39    2.60
  -3  -8 -11   63.69    3.20
   3   8 -11   63.89    3.30
   3   8 -11   64.49    3.10
  -3  -8  11   69.49    3.60
   3  -8 -11   63.19    3.20
  -3   8 -11   60.09    3.20
   3   8  11   64.09    3.10
  -3   8 -11   66.69    3.60
   3  -8 -11   67.89    3.00
  -3   8 -11   69.09    3.40
  -3  -8  11   68.69    3.10
   3  -8 -11   64.39    3.00
   3  -8 -11   72.09    3.20
   4  -8  11   24.90    2.30
   4   8 -11   28.90    2.30
  -4  -8 -11   27.10    2.50
   4   8 -11   23.40    2.20
   4   8 -11   29.30    2.40
   4   8 -11   28.40    2.50
   4   8 -11   23.60    2.60
  -4  -8  11   27.90    2.70
   4  -8 -11   23.80    2.30
  -4   8 -11   28.80    2.50
   4  -8 -11   21.00    2.20
   4  -8 -11   25.70    2.20
  -4   8 -11   25.10    2.20
   4   8  11   24.40    2.30
  -4   8 -11   28.40    2.80
  -4  -8  11   27.10    2.40
   5   8 -11   43.30    2.90
   5   8 -11   42.90    2.70
  -5  -8 -11   47.10    3.10
   5   8 -11   44.10    2.90
   5   8 -11   44.70    3.20
   5  -8  11   40.10    3.00
   5  -8 -11   46.10    3.00
   5   8  11   43.30    2.90
  -5  -8  11   42.70    3.00
  -5   8 -11   46.20    3.00
   5  -8 -11   44.20    2.80
   5  -8 -11   41.50    2.90
   6   8 -11  137.19    4.80
   6   8 -11  129.79    5.30
   6  -8  11  125.49    5.30
   6   8 -11  129.59    5.00
  -6  -8 -11  127.69    5.10
   6  -8 -11  131.09    4.90
   6   8  11  124.99    4.70
  -6   8 -11  126.69    4.90
   6  -8 -11  127.49    5.10
   6  -8 -11  130.29    4.80
  -7  -8 -11    9.50    2.00
   7   8 -11   10.80    2.30
   7  -8  11    5.80    1.90
   7   8 -11    9.30    1.90
   7   8 -11    8.00    1.90
   7  -8 -11    7.40    1.80
  -7   8 -11    8.80    2.00
   7   8  11    4.90    1.60
   7  -8 -11    9.30    1.80
   7  -8 -11    7.80    1.90
   0   9  11    0.50    0.90
   0   9 -11    0.60    1.10
   0  -9 -11   -0.20    0.80
   0   9 -11    1.30    1.00
   0   9 -11   -0.90    1.10
   0  -9 -11    0.20    0.80
   0  -9  11    0.80    0.90
   0  -9 -11   -0.80    1.00
   1   9 -11   37.50    2.40
   1   9 -11   35.60    2.70
  -1  -9 -11   31.80    2.30
  -1  -9 -11   30.20    2.40
   1  -9  11   33.80    2.30
   1  -9  11   34.00    2.20
  -1   9  11   34.00    2.30
   1   9 -11   35.20    2.80
   1  -9 -11   36.90    2.20
  -1  -9  11   35.20    2.90
  -1   9 -11   33.90    2.80
  -1  -9  11   34.80    2.30
  -1   9 -11   32.00    2.40
   1  -9 -11   31.50    2.30
   1  -9 -11   36.60    2.20
  -1   9 -11   34.70    2.80
   1   9  11   37.20    2.40
   1  -9 -11   35.50    2.40
  -2  -9 -11  135.39    4.70
   2  -9  11  147.79    4.30
   2  -9  11  145.79    4.80
   2   9 -11  147.79    5.10
   2   9 -11  140.09    5.00
  -2   9  11  145.79    4.30
   2   9 -11  146.09    4.60
   2   9 -11  142.79    4.50
   2   9  11  140.89    4.70
  -2  -9  11  147.39    4.70
  -2   9 -11  141.09    5.20
  -2  -9  11  137.09    5.30
  -2   9 -11  145.29    4.80
   2  -9 -11  140.79    4.60
   2  -9 -11  142.79    4.50
  -2   9 -11  149.19    5.00
   2  -9 -11  145.69    4.70
   3   9 -11   12.50    1.70
   3  -9  11   14.00    1.50
   3   9 -11   12.00    1.90
   3   9 -11   12.00    1.80
   3  -9  11    9.80    1.60
   3   9 -11   16.30    2.30
   3   9 -11   13.50    1.70
  -3  -9 -11    9.80    1.70
  -3   9 -11   15.80    1.90
  -3   9 -11   16.00    2.10
   3   9  11   14.40    1.90
   3  -9 -11   16.40    1.90
   3  -9 -11    9.50    1.60
  -3  -9  11   11.70    2.00
   3  -9 -11   12.00    1.70
  -3  -9  11   14.20    1.90
  -3   9 -11   11.40    1.90
   4   9 -11   63.19    4.00
   4   9 -11   51.89    3.00
  -4  -9 -11   51.69    3.20
   4   9 -11   57.39    3.00
   4   9 -11   58.19    3.70
   4   9 -11   58.29    3.10
   4  -9  11   61.49    3.50
  -4   9 -11   54.69    4.20
   4   9  11   55.99    3.20
  -4   9 -11   59.39    3.30
   4  -9 -11   59.19    3.20
  -4  -9  11   61.19    3.60
   4  -9 -11   55.69    3.20
  -4  -9  11   57.79    3.20
   4  -9 -11   60.39    3.20
   5   9 -11  100.39    4.00
   5  -9  11   97.29    4.50
   5   9 -11   96.79    4.20
   5   9 -11   89.89    4.50
  -5  -9 -11   90.69    4.30
   5   9 -11  101.69    4.00
   5  -9 -11   96.69    4.20
   5  -9 -11   90.89    4.20
   5  -9 -11   97.49    4.10
   5   9  11  102.99    4.20
  -5   9 -11   96.99    4.20
  -5  -9  11   98.89    4.50
  -6  -9 -11   10.90    2.00
   6  -9  11    8.00    1.80
   6   9 -11   10.80    2.10
   6   9 -11   10.40    1.90
   6   9 -11    7.00    1.80
   6   9  11    8.80    1.80
   6  -9 -11    7.50    1.70
  -6   9 -11    6.00    1.60
   6  -9 -11    7.30    1.70
   6  -9 -11    5.80    1.60
   7   9 -11   16.00    2.60
   7   9 -11   17.80    2.20
   7   9  11   18.60    2.30
   7  -9 -11   17.00    2.20
   7  -9 -11   17.10    2.30
   0 -10  11  109.89    4.00
   0 -10 -11  108.59    3.60
   0 -10  11  111.19    4.80
   0  10 -11  115.29    4.50
   0 -10 -11  101.89    4.10
   0  10 -11  102.39    4.00
   0 -10 -11  109.59    4.00
   0  10 -11  107.29    4.60
   0  10  11  107.79    3.90
   1 -10  11  168.88    5.10
   1  10 -11  169.98    5.60
  -1  10  11  174.18    5.00
  -1 -10 -11  160.98    5.40
   1 -10  11  177.08    5.00
   1  10 -11  172.48    5.10
  -1 -10 -11  168.28    5.30
   1  10 -11  169.78    5.80
  -1  10 -11  158.28    5.70
   1 -10 -11  169.58    5.30
  -1 -10  11  167.78    6.10
   1 -10 -11  176.98    4.90
   1 -10 -11  171.18    5.40
   1  10  11  170.78    5.20
  -1 -10  11  171.58    5.20
   1 -10 -11  173.08    4.90
  -1  10 -11  175.78    5.50
  -1  10 -11  174.68    5.20
   2 -10  11    1.70    1.10
   2  10 -11    2.90    1.20
  -2  10  11    1.60    1.00
   2  10 -11    4.40    1.70
  -2 -10 -11    1.20    1.00
  -2 -10 -11    3.90    1.40
   2  10 -11    2.10    1.30
   2  10 -11    4.50    1.20
   2 -10  11    3.90    1.00
   2  10 -11    3.20    1.30
  -2  10 -11    3.20    1.20
   2 -10 -11   -0.30    1.10
  -2 -10  11    3.90    1.30
  -2  10 -11    2.40    1.30
   2 -10 -11    3.10    1.10
   2 -10 -11    4.80    1.20
  -2 -10  11    3.70    1.50
   2  10  11    5.10    1.30
  -2  10 -11    2.30    1.40
   3  10 -11  125.19    4.40
   3  10 -11  121.09    4.30
   3  10 -11  122.99    4.90
   3 -10  11  121.59    4.80
   3  10 -11  131.49    4.50
   3 -10  11  126.29    4.00
  -3 -10 -11  123.29    4.70
   3 -10 -11  130.49    4.60
  -3  10 -11  138.29    7.10
   3 -10 -11  119.89    4.40
  -3 -10  11  119.89    5.20
  -3 -10  11  129.09    4.60
   3  10  11  117.89    4.40
   3 -10 -11  111.59    4.40
  -3  10 -11  125.19    4.50
  -4 -10 -11    2.50    1.40
   4 -10  11   -0.20    1.00
   4  10 -11    2.10    1.70
   4  10 -11   -0.20    1.10
   4  10 -11    1.10    1.20
   4  10  11    2.60    1.30
   4 -10 -11    0.40    1.10
  -4 -10  11   -1.00    1.10
   4 -10 -11    1.60    1.20
  -4  10 -11    2.90    1.30
  -4 -10  11    1.00    1.30
   4 -10 -11    3.10    1.30
   5  10 -11   16.50    2.30
   5  10 -11   15.80    2.10
   5 -10  11   14.80    2.30
  -5 -10 -11   15.40    2.10
   5 -10 -11   11.60    1.90
  -5 -10  11   19.10    2.60
   5 -10 -11   11.60    2.00
  -5  10 -11   15.70    2.10
   5 -10 -11   11.80    2.00
   5  10  11   15.10    2.10
   6  10 -11   35.40    3.40
  -6 -10 -11   35.60    3.10
   6 -10  11   33.10    3.10
   6  10 -11   26.90    2.80
   6  10  11   34.30    2.90
   6 -10 -11   32.00    3.00
   6 -10 -11   35.90    3.00
   6 -10 -11   37.40    3.10
  -6 -10  11   30.80    3.50
  -6  10 -11   39.30    3.00
   0  11 -11   -0.60    0.90
   0 -11  11    0.30    1.10
   0  11 -11    1.70    1.60
   0 -11 -11    3.00    1.20
   0  11 -11    0.50    1.40
   0  11  11    0.80    1.00
   0 -11 -11    0.00    0.90
   0 -11  11    1.20    1.40
   0 -11 -11    2.60    1.20
  -1  11  11   18.00    1.90
  -1 -11 -11   19.20    2.30
   1 -11  11   14.10    1.80
   1 -11  11   14.80    1.80
   1  11 -11   14.80    1.80
  -1 -11 -11   13.60    1.90
   1  11 -11   14.10    2.20
  -1  11 -11   14.40    1.80
  -1 -11  11   15.20    2.30
   1 -11 -11   13.70    2.00
   1 -11 -11   11.70    1.80
   1 -11 -11   14.60    1.80
   1  11  11   14.80    1.90
  -1 -11  11   16.40    2.00
  -1  11 -11   16.20    2.10
  -2  11  11   25.80    2.00
   2  11 -11   26.10    2.70
   2  11 -11   23.40    2.20
   2 -11  11   28.50    2.50
   2 -11  11   25.90    2.20
  -2 -11 -11   24.10    2.50
  -2 -11 -11   23.00    2.40
   2  11  11   31.50    2.50
   2 -11 -11   26.50    2.40
  -2  11 -11   24.10    2.30
   2 -11 -11   27.80    2.40
  -2 -11  11   21.90    2.70
   2 -11 -11   22.30    2.20
  -2 -11  11   28.20    2.60
  -3 -11 -11   72.29    3.70
   3 -11  11   75.19    3.20
   3  11 -11   66.29    3.80
   3 -11  11   65.79    3.70
   3  11 -11   64.99    3.40
  -3 -11 -11   69.99    3.80
   3 -11 -11   68.49    3.40
  -3 -11  11   68.29    4.10
   3 -11 -11   66.99    3.50
  -3 -11  11   66.49    3.40
  -3  11 -11   70.49    3.40
   3 -11 -11   69.19    3.50
   3  11  11   66.29    3.40
   4 -11  11    2.20    1.30
  -4 -11 -11    4.50    1.40
   4  11 -11    1.20    1.30
   4  11 -11    4.70    1.90
  -4 -11 -11    4.10    1.60
   4  11  11    1.60    1.20
  -4 -11  11    0.70    1.40
  -4  11 -11    5.00    1.40
   4 -11 -11    4.30    1.50
   4 -11 -11    4.60    1.50
  -4 -11  11    3.70    1.40
   5  11 -11   33.70    3.30
   5 -11  11   34.20    3.40
   5  11 -11   31.40    2.80
  -5 -11 -11   31.10    2.80
   5  11  11   33.90    2.80
   5 -11 -11   35.10    2.90
  -5  11 -11   31.90    2.80
  -5 -11  11   33.60    2.90
   5 -11 -11   35.40    2.90
   5 -11 -11   26.60    2.80
  -5 -11  11   32.30    3.30
   6  11 -11   16.30    2.60
  -6 -11  11   13.50    2.30
   6 -11 -11   11.90    2.10
   6  11  11   11.80    2.10
   0 -12  11    2.50    1.50
   0  12 -11   -1.70    1.20
   0  12  11    0.10    1.00
   0 -12  11   -0.30    0.90
   0 -12 -11   -0.10    1.20
   0 -12 -11    1.00    1.20
  -1 -12 -11    9.20    1.70
   1  12 -11    6.90    1.90
  -1  12  11    4.90    1.30
   1 -12  11    6.80    1.40
  -1 -12 -11    4.90    1.50
  -1 -12  11    5.10    1.40
   1 -12 -11    8.90    1.60
   1  12  11    7.70    1.60
  -1  12 -11    7.00    1.90
   1 -12 -11    8.20    1.70
  -1 -12  11    8.50    1.90
   1 -12 -11    8.10    1.70
  -2  12  11   21.20    2.20
   2  12 -11   21.60    2.50
   2 -12  11   18.30    2.00
  -2 -12 -11   21.90    2.60
  -2 -12 -11   22.70    2.40
   2 -12  11   22.30    2.40
  -2 -12  11   19.50    2.20
   2  12  11   20.90    2.40
   2 -12 -11   21.20    2.20
   2 -12 -11   18.40    2.20
   2 -12 -11   20.80    2.50
  -2 -12  11   27.60    3.10
  -2  12 -11   24.60    2.40
  -3 -12 -11   76.29    4.00
  -3 -12 -11   70.99    3.90
   3  12 -11   77.39    3.70
   3  12 -11   75.29    4.00
   3 -12  11   79.59    3.40
   3 -12  11   68.69    3.80
   3 -12 -11   71.59    3.80
  -3 -12  11   79.09    3.90
   3  12  11   78.89    3.90
  -3  12 -11   80.39    3.70
  -3 -12  11   73.39    4.40
   3 -12 -11   70.49    3.80
   3 -12 -11   72.19    3.60
   4 -12  11   24.70    2.80
   4  12 -11   26.60    2.80
  -4 -12 -11   30.40    3.00
  -4 -12 -11   23.80    2.70
   4  12 -11   29.00    2.80
   4  12  11   26.80    2.70
   4 -12 -11   29.40    2.80
   4 -12 -11   25.40    2.70
  -4 -12  11   23.50    2.90
  -4  12 -11   29.50    2.50
  -4 -12  11   30.60    2.90
   5  12 -11    8.80    2.30
   5  12 -11    6.90    1.90
   5  12  11   14.60    2.20
  -5 -12  11   11.30    2.60
  -5  12 -11    8.10    1.60
   5 -12 -11    9.30    1.90
  -5 -12  11    8.20    1.80
   0  13  11   13.20    1.90
   0 -13 -11   10.60    1.90
   0 -13  11    9.30    2.00
   0 -13  11   12.50    1.90
  -1 -13 -11   19.40    2.40
  -1  13  11   18.20    2.10
  -1 -13 -11   16.70    2.20
   1 -13  11   19.30    2.20
   1  13  11   18.30    2.20
   1 -13 -11   21.00    2.50
  -1 -13  11   15.70    2.60
   1 -13 -11   20.20    2.40
  -1 -13  11   21.40    2.40
   1 -13 -11   20.70    2.20
   2 -13  11   24.80    2.50
  -2 -13 -11   29.20    2.80
   2  13 -11   23.60    2.70
   2 -13  11   27.60    2.80
  -2 -13 -11   22.90    2.70
  -2 -13  11   19.50    2.30
   2 -13 -11   22.80    2.50
   2 -13 -11   24.40    2.40
   2  13  11   27.40    2.70
   2 -13 -11   24.30    2.70
  -2 -13  11   24.40    3.00
  -3 -13 -11   42.30    3.30
  -3 -13 -11   41.30    3.60
   3 -13  11   36.50    2.60
   3  13 -11   43.20    3.10
   3  13 -11   34.90    3.00
   3 -13  11   36.50    3.10
   3 -13 -11   33.00    2.90
   3  13  11   32.80    3.00
   3 -13 -11   43.40    3.30
  -3 -13  11   38.80    3.90
   3 -13 -11   35.50    3.00
  -3 -13  11   46.10    3.20
   4  13 -11    2.90    1.70
   4  13 -11    1.80    1.70
   4 -13 -11    4.20    1.50
  -4 -13  11    1.40    1.40
   4  13  11    4.70    1.60
   0 -14  11   19.20    2.30
   0 -14 -11   12.90    3.30
   0  14  11   17.60    2.20
  -1  14  11   10.10    1.80
  -1 -14 -11   11.30    2.20
   1 -14  11   13.60    2.10
   1 -14 -11   13.00    2.60
  -1 -14  11   11.20    2.00
   1  14  11    9.50    1.90
   1 -14 -11   11.20    1.90
   2 -14  11   49.50    3.20
  -2 -14  11   50.59    3.20
   2 -14 -11   53.29    3.30
   2  14  11   50.99    3.30
   0   0 -12   21.10    1.20
   0   0 -12   21.10    1.80
   1   0 -12   83.89    3.20
  -1   0 -12   79.19    3.20
   1   0 -12   76.79    3.50
   1   0 -12   78.69    2.20
   1   0 -12   81.29    2.60
  -1   0 -12   81.99    2.40
  -2   0 -12  268.37    5.50
  -2   0 -12  261.87    6.40
   2   0 -12  277.47    6.00
   2   0 -12  263.57    6.90
   2   0 -12  273.77    5.10
   3   0 -12   37.40    1.60
   3   0 -12   35.10    2.10
  -3   0 -12   35.90    1.90
  -3   0 -12   37.70    2.40
   3   0 -12   37.50    2.60
   3   0 -12   34.70    2.60
  -4   0 -12    5.10    1.20
   4   0 -12    5.70    1.60
   4   0 -12    5.30    0.90
  -4   0 -12    5.80    1.10
   4   0 -12    6.00    1.60
   4   0 -12    5.00    1.20
   5   0 -12    2.10    1.40
  -5   0 -12   -0.20    0.90
   5   0 -12    2.70    1.20
   5   0 -12    0.30    0.60
   5   0 -12    2.20    1.10
  -5   0 -12    1.70    0.90
   6   0 -12    1.30    1.30
   6   0 -12    2.50    1.50
   6   0 -12    0.40    1.10
  -6   0 -12    5.20    1.30
  -6   0 -12    5.20    1.20
   6   0 -12    4.30    1.00
  -7   0 -12    2.10    1.20
   7   0 -12    0.50    1.30
   7   0 -12   -0.20    1.10
   7   0 -12   -1.40    0.70
   7   0 -12   -2.70    1.20
   8   0 -12    2.70    1.60
   8   0 -12   -1.70    1.10
   8   0 -12    1.30    1.60
  -8   0 -12    2.80    1.40
   0  -1 -12    4.40    0.50
   0  -1 -12    3.50    1.10
   0   1 -12    4.20    1.00
   0   1 -12    3.30    0.70
   1   1 -12   67.09    2.20
   1   1 -12   70.89    3.00
   1   1 -12   70.49    2.40
  -1  -1 -12   67.89    2.90
  -1  -1 -12   73.49    2.00
   1   1 -12   65.49    3.40
  -1   1 -12   67.99    2.40
   1  -1 -12   71.49    2.90
   1  -1 -12   71.19    3.40
  -1   1 -12   65.79    3.00
   1  -1 -12   69.59    1.70
   1   1  12   70.59    2.80
   1  -1 -12   71.99    2.50
   2   1 -12   85.29    2.60
   2   1 -12   76.19    3.60
  -2  -1 -12   90.19    2.50
  -2  -1 -12   85.89    3.30
   2   1 -12   82.29    2.90
  -2   1 -12   87.39    3.40
   2  -1 -12   86.29    3.00
  -2   1 -12   83.39    2.80
   2  -1 -12   83.89    2.10
   2  -1 -12   88.29    3.80
   2   1  12   90.29    3.30
  -3  -1 -12   69.39    2.40
  -3  -1 -12   63.89    2.90
   3   1 -12   67.29    2.30
   3   1 -12   70.79    3.60
   3   1 -12   64.09    2.70
  -3   1 -12   68.89    2.70
   3  -1 -12   67.89    3.30
   3  -1 -12   65.49    1.90
  -3   1 -12   64.19    3.10
   3  -1 -12   60.79    2.70
   3  -1 -12   67.39    3.40
   3   1  12   60.89    2.80
  -4  -1 -12   17.70    1.60
   4   1 -12   19.40    2.20
   4   1 -12   15.30    1.40
  -4  -1 -12   19.10    2.00
   4   1 -12   15.60    1.90
   4   1 -12   19.10    1.80
  -4   1 -12   20.40    1.80
   4  -1 -12   19.50    1.20
   4  -1 -12   19.70    2.10
   4  -1 -12   12.90    1.60
   4  -1 -12   18.50    2.10
  -4   1 -12   16.70    2.00
   4   1  12   13.70    1.60
  -5  -1 -12    0.40    0.90
   5   1 -12   -0.80    0.90
   5   1 -12   -0.90    1.20
   5   1 -12   -0.40    1.30
   5   1 -12    0.60    0.70
   5  -1 -12   -0.70    0.50
   5   1  12    1.10    1.10
   5  -1 -12    0.90    1.00
   5  -1 -12    2.60    1.30
  -5   1 -12    0.20    0.80
   5  -1 -12    1.90    1.40
  -5   1 -12    0.00    1.00
   6   1 -12   57.49    3.40
   6   1 -12   53.29    3.40
   6   1 -12   55.79    3.10
   6   1 -12   54.79    2.60
  -6  -1 -12   58.99    3.00
   6  -1 -12   52.39    2.30
   6  -1 -12   56.19    3.30
   6  -1 -12   60.49    3.30
  -6   1 -12   51.29    3.00
   6  -1 -12   57.59    3.20
   6   1  12   56.89    2.90
  -6   1 -12   56.89    3.10
   7   1 -12    5.60    1.80
   7   1 -12    9.70    2.00
   7   1 -12    6.10    1.60
   7   1 -12    7.00    1.40
  -7  -1 -12   10.70    1.80
   7  -1 -12    9.70    1.30
   7  -1 -12    6.80    1.80
   7  -1 -12    5.70    1.60
  -7   1 -12    9.60    1.80
   7  -1 -12    7.30    1.60
   8   1 -12   78.99    4.00
  -8  -1 -12   76.79    3.80
  -8  -1 -12   73.49    3.80
   8   1 -12   76.39    4.10
   8   1 -12   78.59    4.10
   8  -1 -12   88.99    4.30
   8  -1 -12   77.09    4.00
  -8   1 -12   78.29    3.90
   0   2 -12   39.60    1.90
   0  -2 -12   43.90    2.30
   0   2  12   44.20    2.30
   0   2 -12   36.60    2.20
   0  -2 -12   45.90    1.80
   0   2 -12   40.10    2.60
   1   2 -12   68.09    2.90
   1   2 -12   67.29    2.40
   1   2 -12   70.49    3.50
   1   2 -12   69.19    2.40
  -1  -2 -12   70.39    2.90
  -1   2 -12   72.59    2.60
   1  -2 -12   66.49    3.30
   1   2  12   68.19    2.80
  -1   2 -12   66.89    3.00
   1  -2 -12   64.09    2.40
   1  -2 -12   67.59    2.90
   2   2 -12   55.09    2.30
   2   2 -12   55.99    2.70
   2   2 -12   54.89    2.20
   2   2 -12   50.49    3.00
  -2  -2 -12   56.79    2.70
  -2   2 -12   55.39    2.70
  -2   2 -12   53.19    2.40
   2  -2 -12   50.19    2.90
   2   2  12   54.39    2.60
   2  -2 -12   54.39    2.40
  -3  -2 -12  116.99    3.90
   3   2 -12  108.39    3.30
   3   2 -12  106.89    4.30
   3   2 -12  112.29    3.60
   3  -2 -12  109.29    3.70
   3   2  12  111.79    3.90
  -3   2 -12  110.29    4.00
   3  -2 -12  109.29    4.10
  -3   2 -12  110.79    3.60
   3  -2 -12  112.69    4.20
  -4  -2 -12  145.59    4.50
   4   2 -12  143.79    5.10
   4   2 -12  141.49    4.00
   4   2 -12  151.48    4.60
   4   2 -12  146.19    4.90
   4  -2 -12  151.68    4.60
   4   2  12  148.59    4.60
   4  -2 -12  138.39    4.70
  -4   2 -12  143.89    4.80
   4  -2 -12  149.09    4.90
  -4   2 -12  145.59    4.50
   5   2 -12  108.69    4.50
   5   2 -12  100.19    4.20
   5   2 -12  109.09    3.60
  -5  -2 -12  100.69    3.70
   5   2 -12  105.49    4.00
   5  -2 -12  100.19    4.10
   5  -2 -12   98.19    4.00
  -5   2 -12  107.79    4.00
   5  -2 -12  106.19    4.10
  -5   2 -12  105.39    4.10
   5   2  12   99.19    3.80
   6   2 -12   13.00    1.90
   6   2 -12   11.70    2.10
  -6  -2 -12   19.60    2.00
   6   2 -12   15.60    1.70
   6   2 -12   17.30    2.30
  -6   2 -12   14.00    1.80
   6  -2 -12   16.10    2.10
   6   2  12   16.90    2.00
  -6   2 -12   20.90    2.30
   6  -2 -12   16.20    2.00
   6  -2 -12   17.80    2.30
   7   2 -12   45.00    3.10
  -7  -2 -12   37.80    2.80
   7   2 -12   43.80    3.00
   7   2 -12   43.20    3.20
  -7  -2 -12   41.00    2.70
   7  -2 -12   46.10    3.10
  -7   2 -12   44.10    3.00
   7   2  12   35.40    2.60
   7  -2 -12   38.20    3.00
  -8  -2 -12   81.29    4.00
   8   2 -12   78.89    4.20
   8   2 -12   79.89    4.20
   8   2 -12   84.19    4.20
  -8  -2 -12   83.49    3.90
   8  -2 -12   81.19    4.10
   8  -2 -12   86.39    4.30
  -8   2 -12   87.49    4.10
   0  -3 -12   14.30    1.20
   0   3 -12   12.70    1.80
   0   3  12   12.40    1.40
   0  -3 -12   15.10    1.60
   0   3 -12   14.30    1.60
   0   3 -12   14.40    1.40
  -1   3  12  157.48    4.30
   1   3 -12  158.88    5.20
  -1  -3 -12  155.48    4.40
   1   3 -12  149.09    4.60
   1   3 -12  159.38    3.90
   1   3 -12  156.48    4.10
  -1   3 -12  156.38    4.70
   1   3  12  149.69    4.40
   1  -3 -12  161.58    3.80
   1  -3 -12  157.58    4.50
   1  -3 -12  153.98    4.10
  -1   3 -12  156.68    4.30
   2   3 -12  107.29    3.40
   2   3 -12  117.09    3.40
   2   3 -12  113.69    4.00
  -2  -3 -12  110.09    3.70
   2   3 -12  112.99    4.40
   2   3  12  110.89    3.70
  -2   3 -12  108.59    3.60
  -2   3 -12  107.59    3.90
   2  -3 -12  113.49    3.10
   2  -3 -12  109.69    3.50
   2  -3 -12  113.59    4.20
   3   3 -12   -0.20    0.80
   3   3 -12    1.10    1.20
   3   3 -12    1.20    0.70
  -3  -3 -12    1.20    0.90
   3  -3 -12    0.80    1.10
   3  -3 -12    3.10    1.00
  -3   3 -12    2.40    1.00
  -3   3 -12    1.10    0.80
   3   3  12   -0.10    0.90
   3  -3 -12    2.30    0.80
   3  -3 -12    1.30    1.10
   4   3 -12   32.00    2.20
   4   3 -12   30.30    2.00
   4   3 -12   33.00    2.50
  -4  -3 -12   28.30    2.00
   4   3 -12   31.40    2.60
   4  -3 -12   27.90    2.20
   4   3  12   28.90    2.10
   4  -3 -12   30.60    2.50
  -4   3 -12   31.70    2.30
  -4   3 -12   27.30    2.20
   4  -3 -12   22.60    2.20
   5   3 -12   87.59    3.70
   5   3 -12   81.69    3.20
   5   3 -12   83.99    3.90
   5   3 -12   73.09    3.80
  -5  -3 -12   77.79    3.20
  -5   3 -12   72.19    3.40
   5  -3 -12   79.69    3.60
   5  -3 -12   81.09    3.70
   5   3  12   78.99    3.50
  -5   3 -12   78.89    3.60
   5  -3 -12   81.79    3.60
   6   3 -12    4.70    1.20
   6   3 -12    2.40    1.60
   6   3 -12    4.20    1.60
   6   3 -12    4.80    1.50
  -6  -3 -12    4.00    1.20
  -6   3 -12    5.40    1.50
  -6   3 -12    2.80    1.20
   6  -3 -12    3.40    1.50
   6  -3 -12    4.60    1.40
   6   3  12    6.00    1.40
   7   3 -12   28.50    2.70
  -7  -3 -12   33.70    2.70
   7   3 -12   30.40    2.90
   7   3 -12   32.40    3.10
   7  -3 -12   32.70    2.80
   7   3  12   33.10    2.60
   7  -3 -12   28.70    2.70
  -7   3 -12   33.10    2.80
   8   3 -12   47.10    3.40
   8   3 -12   52.09    3.60
  -8  -3 -12   52.99    3.30
   8   3 -12   49.50    3.50
   8  -3 -12   51.29    3.40
  -8   3 -12   50.99    3.40
   8  -3 -12   50.99    3.50
   8   3  12   51.89    3.20
   0   4 -12   15.90    2.00
   0  -4 -12   15.20    1.30
   0   4 -12   12.70    1.60
   0   4 -12   13.30    1.50
   0   4  12   12.10    1.50
   0  -4 -12   14.10    1.50
  -1  -4 -12  100.29    3.30
   1   4 -12   97.69    4.10
   1   4 -12   96.49    3.30
   1   4 -12   89.49    3.50
  -1   4  12   83.09    3.10
   1   4 -12   95.89    3.00
   1  -4 -12   92.09    3.10
   1  -4 -12   94.39    3.00
   1   4  12   85.29    3.30
  -1   4 -12   96.89    3.70
  -1   4 -12   89.99    4.00
   1  -4 -12   88.19    3.30
  -1   4 -12   86.39    3.20
   2   4 -12   21.40    2.30
   2   4 -12   25.70    2.10
   2   4 -12   25.40    1.70
  -2   4  12   23.70    1.70
   2   4 -12   23.00    1.80
  -2  -4 -12   24.20    1.90
  -2   4 -12   27.70    2.10
   2  -4 -12   20.00    1.60
  -2   4 -12   24.80    2.00
   2   4  12   25.50    2.10
   2  -4 -12   27.90    2.30
   2  -4 -12   28.90    1.80
   2  -4 -12   27.00    1.80
   3   4 -12  119.29    3.80
   3   4 -12  125.39    3.90
  -3  -4 -12  123.29    3.90
   3   4 -12  120.69    4.70
  -3   4 -12  131.79    4.40
   3  -4 -12  121.69    4.00
   3   4  12  122.79    4.20
   3  -4 -12  130.39    4.40
  -3   4 -12  125.79    4.20
   3  -4 -12  120.09    4.20
   3  -4 -12  122.69    3.60
   4   4 -12   43.00    2.40
  -4  -4 -12   37.40    2.20
   4   4 -12   41.10    3.00
   4   4 -12   40.80    2.90
   4   4 -12   42.20    2.40
   4  -4 -12   40.90    2.50
  -4   4 -12   38.70    2.60
   4  -4 -12   37.80    2.20
   4   4  12   43.20    2.50
  -4   4 -12   40.80    2.60
   4  -4 -12   41.00    2.60
   4  -4 -12   39.50    2.60
   5   4 -12   49.40    3.00
  -5  -4 -12   48.70    3.10
   5   4 -12   42.80    3.10
   5   4 -12   49.10    2.80
   5   4 -12   48.40    2.70
  -5  -4 -12   47.90    2.50
  -5   4 -12   47.80    3.00
  -5   4 -12   49.50    2.90
   5  -4 -12   45.50    2.50
   5   4  12   46.20    2.70
   5  -4 -12   42.40    2.70
   5  -4 -12   47.50    2.90
   6   4 -12   15.50    2.10
   6   4 -12   13.40    2.30
   6   4 -12   18.60    2.00
   6   4 -12   17.20    2.20
  -6  -4 -12   16.20    2.10
   6   4  12   18.30    2.10
   6  -4 -12   16.50    2.00
   6  -4 -12   15.40    2.10
  -6   4 -12   18.30    2.20
   7   4 -12  131.99    5.00
  -7  -4 -12  123.59    4.90
   7   4 -12  131.19    5.10
   7   4 -12  123.09    5.00
   7  -4 -12  128.39    4.80
   7   4  12  130.59    4.70
  -7   4 -12  126.89    5.00
   7  -4 -12  133.59    5.20
   8   4 -12   30.20    3.10
   8   4 -12   26.60    2.70
   8   4 -12   23.60    2.70
  -8  -4 -12   22.30    2.50
   8   4  12   26.70    2.50
   8  -4 -12   22.20    2.60
  -8   4 -12   26.60    2.80
   8  -4 -12   25.10    2.70
   0   5 -12  319.27    8.10
   0  -5 -12  320.97    6.70
   0   5 -12  321.37    7.50
   0   5  12  337.77    7.20
   0  -5  12  316.47    6.70
   0   5 -12  326.17    7.30
   0  -5 -12  327.17    7.00
   1   5 -12    1.90    1.00
   1  -5  12    3.10    0.80
   1   5 -12    3.70    1.00
  -1   5  12    3.40    1.00
   1   5 -12    3.90    1.40
  -1  -5 -12    3.20    1.00
  -1   5 -12    1.90    1.10
   1  -5 -12    3.70    0.90
   1   5  12    3.50    1.10
  -1   5 -12    3.80    1.40
   1  -5 -12    3.90    0.90
  -1   5 -12    4.70    1.10
   1  -5 -12    3.90    1.00
   2  -5  12   74.19    2.50
   2   5 -12   72.29    3.80
  -2   5  12   72.39    2.80
  -2  -5 -12   78.89    2.90
   2   5 -12   75.39    3.10
   2   5 -12   71.39    3.20
   2   5 -12   75.09    2.80
   2  -5 -12   76.59    3.40
   2  -5 -12   71.79    2.70
   2   5  12   75.89    3.20
   2  -5 -12   74.69    3.20
  -2   5 -12   73.19    3.30
  -2   5 -12   79.59    3.30
   2  -5 -12   74.29    2.80
  -2   5 -12   79.09    3.70
   2  -5 -12   77.99    3.10
   3   5 -12    0.50    0.80
   3   5 -12    1.50    1.30
   3   5 -12    2.30    0.90
  -3  -5 -12    1.50    0.90
  -3   5  12    2.10    0.80
   3   5 -12    3.60    1.20
   3  -5 -12    1.90    0.90
   3  -5 -12    2.10    1.20
   3   5  12    0.80    1.00
   3  -5 -12    1.90    1.20
  -3   5 -12    3.10    1.10
  -3   5 -12    1.50    1.00
   3  -5 -12    2.40    1.00
   4   5 -12   24.70    2.00
  -4  -5 -12   20.10    2.10
   4   5 -12   20.60    2.40
   4   5 -12   24.00    2.10
   4   5 -12   25.60    2.50
  -4   5 -12   22.80    2.30
   4  -5 -12   23.00    1.80
   4   5  12   22.60    2.10
   4  -5 -12   22.00    2.10
  -4   5 -12   26.10    2.30
   4  -5 -12   24.50    2.10
   5   5 -12   35.90    2.50
   5   5 -12   34.60    3.10
   5   5 -12   34.10    2.50
  -5  -5 -12   33.00    2.70
   5   5 -12   35.90    2.80
   5   5  12   32.20    2.40
   5  -5 -12   36.50    2.60
   5  -5 -12   36.50    2.30
  -5   5 -12   30.30    2.70
  -5   5 -12   36.80    2.70
   5  -5 -12   37.20    2.60
   6   5 -12   56.59    3.30
  -6  -5 -12   58.69    3.50
   6   5 -12   50.89    3.30
   6   5 -12   56.09    3.50
   6  -5 -12   50.79    3.10
   6  -5 -12   58.89    3.00
  -6   5 -12   59.89    3.40
   6  -5 -12   56.69    3.30
   6   5  12   54.79    3.20
   7   5 -12    3.30    1.70
   7   5 -12    1.40    1.30
  -7  -5 -12    3.10    1.40
   7   5 -12    2.90    1.80
   7   5  12    1.90    1.30
   7  -5 -12    3.60    1.50
   7  -5 -12    2.30    1.40
  -7   5 -12    5.40    1.60
   8   5 -12   53.59    3.70
  -8  -5 -12   60.59    3.90
   8   5 -12   59.19    3.90
   8  -5 -12   57.49    3.40
   8   5  12   53.69    3.20
   0  -6 -12   17.50    1.60
   0  -6  12   16.30    1.60
   0   6  12   16.30    1.70
   0   6 -12   15.50    2.00
   0   6 -12   19.10    1.90
   0  -6 -12   16.30    1.50
   0   6 -12   14.50    1.80
   0  -6 -12   13.20    1.50
   1  -6  12  143.09    4.30
  -1   6  12  138.19    4.20
   1  -6  12  145.69    3.90
  -1  -6 -12  143.79    4.50
   1   6 -12  134.39    5.10
   1   6 -12  137.99    4.50
  -1  -6 -12  148.89    4.10
   1   6 -12  140.29    4.60
   1  -6 -12  132.99    4.10
   1  -6 -12  139.89    4.10
  -1   6 -12  145.49    5.10
   1  -6 -12  142.19    4.20
  -1   6 -12  140.79    4.60
   1  -6 -12  141.19    4.20
  -1   6 -12  147.49    4.70
   1   6  12  143.09    4.40
   1  -6 -12  142.89    4.30
  -1  -6  12  133.79    4.10
   2   6 -12   74.19    3.90
   2   6 -12   77.99    3.00
   2  -6  12   79.59    3.30
   2   6 -12   79.99    3.40
  -2   6  12   78.59    3.00
  -2  -6 -12   90.89    4.50
   2  -6  12   76.69    2.70
   2   6 -12   80.39    3.40
  -2  -6 -12   77.99    3.40
   2  -6 -12   72.59    3.20
  -2   6 -12   83.19    3.50
   2  -6 -12   79.99    3.10
  -2   6 -12   76.69    3.70
   2  -6 -12   83.89    3.50
   2   6  12   79.49    3.40
   2  -6 -12   80.69    3.30
  -2   6 -12   74.19    3.50
   2  -6 -12   79.49    3.00
   2  -6 -12   83.09    3.00
   3   6 -12  135.89    5.10
  -3   6  12  126.39    3.70
   3  -6  12  121.19    4.40
   3   6 -12  125.89    4.40
   3   6 -12  125.29    4.50
   3   6 -12  128.99    4.10
  -3  -6 -12  128.19    4.50
   3   6 -12  123.59    4.30
   3  -6 -12  131.39    4.10
   3  -6 -12  131.69    4.30
   3  -6 -12  126.79    4.30
  -3   6 -12  134.79    4.70
  -3   6 -12  127.09    4.90
   3   6  12  124.69    4.30
  -3   6 -12  134.59    4.60
  -4  -6 -12   55.29    3.00
   4   6 -12   50.29    2.90
   4   6 -12   55.89    3.00
   4   6 -12   53.89    3.60
   4   6 -12   52.69    2.90
   4   6 -12   54.49    3.10
   4  -6  12   53.79    3.10
  -4   6 -12   50.59    3.10
   4  -6 -12   55.19    3.00
   4  -6 -12   55.09    2.70
   4  -6 -12   53.49    2.90
   4   6  12   50.59    2.90
  -4   6 -12   52.49    3.20
   5   6 -12   61.69    3.90
  -5  -6 -12   62.29    3.50
   5   6 -12   62.49    3.50
   5   6 -12   65.29    3.30
   5   6 -12   59.39    3.30
   5  -6 -12   58.69    3.10
   5  -6 -12   57.59    3.00
  -5   6 -12   59.69    3.40
   5  -6 -12   61.09    3.30
   5   6  12   66.29    3.40
  -5   6 -12   62.49    3.50
   6   6 -12  122.59    4.80
   6   6 -12  120.79    4.70
  -6  -6 -12  122.49    4.90
   6   6 -12  120.59    5.10
   6  -6 -12  113.39    4.70
   6   6  12  117.99    4.50
   6  -6 -12  118.19    4.40
   6  -6 -12  121.99    4.40
  -6   6 -12  121.99    4.80
   7   6 -12   64.29    3.70
   7   6 -12   62.29    3.80
   7   6 -12   60.79    3.70
  -7  -6 -12   59.39    3.60
   7   6  12   66.49    3.50
   7  -6 -12   63.19    3.30
  -7   6 -12   59.99    3.60
   7  -6 -12   56.09    3.30
   7  -6 -12   61.39    3.70
   8   6 -12    6.80    1.90
   8   6 -12    4.90    1.90
   8   6  12    1.30    1.30
   8  -6 -12    4.60    1.60
   0   7 -12   20.00    2.10
   0  -7  12   17.20    1.70
   0   7 -12   17.50    2.30
   0   7  12   19.30    1.90
   0  -7 -12   20.20    1.70
   0   7 -12   18.60    1.90
   0  -7 -12   15.90    1.70
   1  -7  12  404.06    8.50
   1   7 -12  397.56    9.50
   1  -7  12  403.86    8.10
   1   7 -12  399.46    8.90
   1   7 -12  418.86    9.00
  -1   7  12  398.06    8.40
  -1  -7 -12  391.16    8.70
   1  -7 -12  409.06    8.50
   1  -7 -12  403.26    8.10
   1  -7 -12  403.56    8.50
   1  -7 -12  408.86    8.20
   1  -7 -12  414.66    8.30
  -1   7 -12  402.96    9.50
   1  -7 -12  401.36    8.30
  -1  -7  12  396.56    8.40
  -1   7 -12  404.66    9.10
   1   7  12  398.66    8.70
  -1   7 -12  393.16    8.80
   2   7 -12  150.28    4.90
   2  -7  12  152.38    4.10
   2   7 -12  146.99    4.30
  -2   7  12  138.79    4.20
   2  -7  12  148.69    4.70
   2   7 -12  153.08    5.50
  -2  -7 -12  148.89    4.90
   2   7 -12  152.38    4.80
  -2   7 -12  155.58    5.40
  -2   7 -12  154.88    5.00
  -2   7 -12  150.68    5.10
   2   7  12  152.38    4.80
   2  -7 -12  150.48    4.70
   2  -7 -12  151.18    4.60
   2  -7 -12  151.68    4.50
   2  -7 -12  145.89    4.40
  -2  -7  12  153.08    4.60
   3   7 -12   27.10    2.40
   3   7 -12   29.10    2.60
   3   7 -12   30.10    2.90
   3  -7  12   26.80    2.40
   3   7 -12   30.20    2.50
  -3   7  12   30.10    1.90
  -3  -7 -12   28.10    2.40
   3   7 -12   27.80    2.10
   3  -7 -12   28.50    2.20
  -3   7 -12   26.20    2.60
   3  -7 -12   29.70    2.20
  -3   7 -12   26.70    2.40
   3   7  12   27.80    2.20
   3  -7 -12   28.80    2.10
  -3   7 -12   26.90    2.60
  -4  -7 -12   66.69    3.50
   4   7 -12   72.49    3.60
   4   7 -12   74.39    3.90
   4   7 -12   74.79    3.50
   4   7 -12   72.99    3.30
   4   7 -12   76.99    3.70
   4  -7  12   71.39    3.70
  -4   7 -12   70.09    3.60
   4  -7 -12   69.89    3.20
  -4   7 -12   68.79    3.70
   4  -7 -12   74.29    3.30
  -4   7 -12   75.29    3.80
   4   7  12   73.29    3.50
   4  -7 -12   69.79    3.50
   5   7 -12  107.99    4.20
   5   7 -12  100.19    4.20
   5  -7  12  100.59    4.60
  -5  -7 -12  102.19    4.40
   5   7 -12  108.89    4.40
   5   7 -12  105.29    4.80
   5   7  12   99.39    4.10
  -5   7 -12  109.99    4.50
   5  -7 -12  101.39    3.90
   5  -7 -12  105.39    4.40
   5  -7 -12   98.29    3.90
   6   7 -12   37.10    3.00
  -6  -7 -12   44.30    3.20
   6   7 -12   38.30    3.40
   6   7 -12   31.50    2.80
   6  -7  12   36.60    3.10
   6  -7 -12   36.50    2.60
   6   7  12   37.70    2.90
   6  -7 -12   35.00    2.70
  -6   7 -12   32.40    2.90
   6  -7 -12   37.40    2.80
   7   7 -12   42.60    3.40
  -7  -7 -12   46.80    3.30
   7   7 -12   44.00    3.40
   7   7 -12   40.20    3.10
   7   7  12   42.80    3.10
   7  -7 -12   44.00    3.00
  -7   7 -12   54.69    3.50
   7  -7 -12   47.10    3.40
   7  -7 -12   45.70    3.10
   0  -8  12   97.19    3.50
   0  -8 -12   97.89    3.70
   0  -8 -12   97.89    3.90
   0  -8 -12  100.59    3.40
   0   8 -12   94.19    3.80
   0   8 -12   98.19    4.40
   0   8  12   91.19    3.50
   0   8 -12  100.59    4.10
   1   8 -12   35.20    2.50
   1  -8  12   33.90    2.10
  -1  -8 -12   36.60    2.50
   1   8 -12   35.80    2.70
   1  -8  12   36.50    2.30
   1   8 -12   42.00    3.10
  -1   8  12   35.40    2.30
   1  -8 -12   34.00    2.40
  -1  -8  12   36.00    2.30
  -1   8 -12   34.20    2.50
   1  -8 -12   43.90    2.40
   1  -8 -12   31.30    2.20
   1  -8 -12   33.40    2.30
  -1   8 -12   32.60    2.70
   1   8  12   37.20    2.50
  -1   8 -12   38.10    2.90
   2  -8  12   27.70    1.90
  -2  -8 -12   26.40    2.30
   2   8 -12   29.50    2.70
   2   8 -12   31.40    2.50
   2  -8  12   28.90    2.30
  -2   8  12   26.70    2.00
   2   8 -12   30.40    2.40
   2   8 -12   29.20    2.10
   2  -8 -12   26.40    2.10
  -2   8 -12   30.90    2.60
  -2  -8  12   27.40    2.20
  -2   8 -12   32.70    2.80
  -2   8 -12   25.80    2.30
   2   8  12   23.00    2.20
   2  -8 -12   29.90    2.20
   2  -8 -12   31.00    2.20
   3   8 -12   30.40    2.40
   3   8 -12   28.60    2.60
   3   8 -12   28.70    3.00
   3  -8  12   27.30    2.40
   3   8 -12   27.00    2.50
  -3  -8 -12   30.60    2.50
   3   8 -12   28.30    2.20
  -3   8 -12   30.00    2.50
  -3   8 -12   29.60    2.70
  -3   8 -12   22.70    2.40
   3   8  12   25.50    2.40
  -3  -8  12   29.40    2.60
   3  -8 -12   30.70    2.40
   3  -8 -12   28.40    2.20
   3  -8 -12   27.90    2.30
   4  -8  12    4.30    1.40
   4   8 -12    2.90    1.80
   4   8 -12    2.40    1.20
   4   8 -12    6.80    1.50
   4   8 -12    6.40    2.10
   4   8 -12    5.30    1.60
  -4  -8 -12    4.90    1.40
  -4   8 -12    4.20    1.50
  -4  -8  12    4.90    1.50
   4  -8 -12    5.70    1.50
  -4   8 -12    4.10    1.40
   4  -8 -12    3.90    1.30
   4  -8 -12    5.20    1.20
   4   8  12    5.90    1.50
   5   8 -12   43.60    3.00
   5   8 -12   45.30    3.20
   5   8 -12   50.29    3.10
   5   8 -12   44.60    3.40
  -5  -8 -12   44.00    3.10
   5  -8  12   42.50    3.20
   5  -8 -12   47.60    3.10
   5   8  12   40.70    2.80
  -5  -8  12   44.50    3.10
   5  -8 -12   40.60    2.70
   5  -8 -12   39.10    2.90
  -5   8 -12   45.90    3.20
   6  -8  12   60.79    3.90
   6   8 -12   58.79    3.40
   6   8 -12   64.99    4.20
   6   8 -12   57.89    3.50
   6   8 -12   65.09    3.60
  -6  -8 -12   60.29    3.70
   6   8  12   61.49    3.50
  -6   8 -12   59.09    3.60
   6  -8 -12   61.89    3.70
   6  -8 -12   54.99    3.50
   6  -8 -12   67.29    3.50
   7   8 -12   26.00    2.70
   7   8 -12   31.20    3.30
   7   8  12   26.00    2.70
   7  -8 -12   27.80    2.80
   7  -8 -12   31.70    2.80
   0   9 -12  115.99    4.70
   0  -9 -12  109.89    4.30
   0   9 -12  112.19    4.70
   0  -9  12  112.59    3.90
   0   9 -12  119.39    4.30
   0   9  12  111.99    4.00
   0  -9 -12  116.09    4.10
  -1   9  12   61.79    3.00
   1   9 -12   64.79    3.50
   1   9 -12   68.19    3.30
  -1  -9 -12   65.59    3.20
   1  -9  12   67.59    3.30
   1   9 -12   63.19    3.70
   1  -9  12   66.69    2.90
  -1  -9 -12   65.89    3.40
   1  -9 -12   68.39    3.00
   1   9  12   62.99    3.20
   1  -9 -12   72.69    3.10
  -1   9 -12   65.59    3.30
  -1   9 -12   69.99    3.70
  -1  -9  12   61.89    3.10
   1  -9 -12   68.99    3.30
   1  -9 -12   65.79    3.30
  -1   9 -12   66.99    3.70
   2   9 -12   16.90    2.00
   2   9 -12   13.50    2.30
  -2  -9 -12   15.00    2.00
   2  -9  12   13.00    1.80
   2  -9  12   17.40    1.70
   2   9 -12   12.50    1.90
  -2   9  12   17.50    1.80
  -2  -9  12   14.10    1.80
   2  -9 -12   15.50    1.80
   2  -9 -12   14.20    1.80
  -2   9 -12   17.90    2.10
  -2   9 -12   14.80    2.20
   2  -9 -12   19.60    2.10
  -2   9 -12   11.00    1.90
   2   9  12   15.80    2.00
   3   9 -12   14.00    2.10
   3   9 -12   15.00    1.90
  -3  -9 -12   15.90    2.10
   3   9 -12   13.60    2.30
   3  -9  12   12.40    1.90
   3   9 -12   13.60    1.80
   3  -9 -12   12.20    1.80
   3   9  12   13.10    2.00
  -3  -9  12   12.20    2.10
   3  -9 -12   13.60    1.90
   3  -9 -12   10.90    1.70
  -3   9 -12   13.80    2.10
  -3   9 -12   12.10    1.90
  -3  -9  12   13.20    1.90
   4   9 -12    8.90    1.80
  -4  -9 -12    9.40    1.90
   4  -9  12    6.60    1.60
   4   9 -12    8.40    1.60
   4   9 -12   10.20    2.20
   4   9 -12    5.90    1.40
   4  -9 -12    8.10    1.70
   4  -9 -12    8.10    1.60
  -4  -9  12    8.00    1.90
  -4   9 -12    6.80    1.50
   4   9  12   10.20    1.80
   4  -9 -12    4.30    1.30
   5  -9  12   21.10    2.60
   5   9 -12   21.10    2.30
  -5  -9 -12   20.70    2.40
   5   9 -12   24.80    2.60
   5   9 -12   16.60    2.60
   5   9 -12   20.70    2.40
   5  -9 -12   22.90    2.40
   5  -9 -12   19.20    2.40
  -5  -9  12   20.20    2.50
   5  -9 -12   14.20    2.10
  -5   9 -12   18.40    2.40
   5   9  12   20.40    2.30
  -6  -9 -12   40.00    3.20
   6   9 -12   43.20    3.20
   6  -9  12   42.10    3.40
   6   9 -12   46.20    3.20
   6   9 -12   48.70    3.50
   6  -9 -12   41.70    3.20
  -6   9 -12   53.99    3.40
   6  -9 -12   48.60    3.20
   6  -9 -12   46.00    3.40
   6   9  12   43.90    3.20
   0  10 -12   -1.20    1.00
   0  10 -12   -0.70    1.30
   0 -10 -12    2.40    1.20
   0 -10 -12   -1.70    1.00
   0 -10  12    1.20    0.90
   0  10  12    0.30    0.90
   0  10 -12    1.20    2.00
  -1 -10 -12   35.00    2.70
  -1 -10 -12   37.00    2.60
   1  10 -12   33.40    2.50
  -1  10  12   36.30    2.40
   1 -10  12   37.10    2.40
   1  10 -12   34.60    3.00
   1 -10 -12   37.10    2.70
  -1  10 -12   34.50    2.90
   1  10  12   33.20    2.50
   1 -10 -12   35.90    2.70
  -1  10 -12   37.80    2.60
  -1 -10  12   38.30    2.60
   1 -10 -12   36.50    2.40
   2  10 -12   45.60    2.80
   2 -10  12   46.00    2.50
  -2 -10 -12   45.50    3.00
   2  10 -12   52.79    3.00
   2  10 -12   45.50    3.40
   2 -10  12   45.80    2.90
  -2  10  12   42.80    2.50
  -2 -10 -12   47.90    3.10
   2 -10 -12   50.39    2.80
   2 -10 -12   43.70    2.90
   2 -10 -12   42.10    2.80
  -2 -10  12   48.60    2.90
  -2  10 -12   45.30    3.20
   2  10  12   47.90    2.80
  -2 -10  12   45.80    3.40
  -2  10 -12   46.80    2.90
   3  10 -12   24.40    2.30
   3  10 -12   22.20    2.60
  -3 -10 -12   24.30    2.60
   3 -10  12   24.20    2.50
   3  10 -12   22.80    2.20
   3  10 -12   23.10    2.40
  -3 -10  12   24.70    2.50
   3 -10 -12   20.50    2.10
   3 -10 -12   20.50    2.20
  -3 -10  12   20.60    2.70
  -3  10 -12   22.60    2.30
   3  10  12   21.20    2.40
   4  10 -12   33.60    2.70
   4  10 -12   38.10    3.40
  -4 -10 -12   37.40    2.90
   4  10 -12   37.10    2.80
   4 -10  12   34.90    2.90
  -4 -10  12   32.70    3.20
  -4 -10  12   37.40    2.90
  -4  10 -12   38.80    3.00
   4  10  12   32.40    2.70
   4 -10 -12   44.30    2.90
   4 -10 -12   33.70    2.70
   4 -10 -12   32.20    2.70
  -5 -10 -12   22.60    2.70
   5  10 -12   22.80    2.80
   5 -10  12   24.20    2.80
   5  10 -12   23.10    2.50
   5  10  12   25.70    2.60
  -5  10 -12   21.80    2.50
   5 -10 -12   21.60    2.50
   5 -10 -12   27.20    2.70
   5 -10 -12   25.50    2.60
  -5 -10  12   24.20    2.80
   6  10 -12   44.60    3.80
   6 -10 -12   46.40    3.40
   6  10  12   44.00    3.20
   0  11 -12    5.30    1.80
   0 -11 -12    6.30    1.60
   0  11  12    8.40    1.60
   0 -11  12    7.10    1.50
   0 -11 -12    7.60    1.60
   0  11 -12    4.30    1.40
   1  11 -12   24.80    2.20
   1  11 -12   25.80    2.80
  -1 -11 -12   20.80    2.30
  -1  11  12   28.10    2.40
  -1 -11 -12   29.30    2.40
   1 -11  12   29.80    2.30
  -1 -11  12   26.90    2.40
   1 -11 -12   32.30    2.60
   1 -11 -12   27.70    2.20
   1 -11 -12   27.20    2.60
   1  11  12   26.30    2.50
  -1  11 -12   21.20    2.50
  -1  11 -12   29.20    2.40
   2  11 -12    5.90    1.80
   2 -11  12    4.10    1.40
  -2  11  12    4.90    1.20
  -2 -11 -12    3.90    1.40
  -2 -11 -12    3.00    1.40
   2 -11  12    4.50    1.20
   2 -11 -12    6.20    1.50
   2  11  12    5.70    1.40
   2 -11 -12    7.80    1.60
   2 -11 -12    8.80    1.70
  -2 -11  12    4.80    1.40
  -2  11 -12    6.70    1.50
  -2 -11  12    6.90    1.90
  -3 -11 -12   36.00    3.00
   3  11 -12   32.40    3.10
  -3 -11 -12   25.80    2.60
   3  11 -12   28.50    3.60
   3 -11  12   31.30    2.80
  -3 -11  12   32.30    3.30
   3  11  12   33.50    2.80
   3 -11 -12   35.50    2.80
  -3 -11  12   30.60    2.70
  -3  11 -12   32.80    2.70
   3 -11 -12   32.70    2.70
   4 -11  12    2.80    1.50
  -4 -11 -12    8.90    1.90
   4  11 -12    4.80    2.00
   4  11 -12    2.80    1.40
  -4 -11 -12    4.60    1.60
   4  11  12    4.80    1.50
  -4  11 -12    5.00    1.40
  -4 -11  12    2.70    1.40
  -4 -11  12    4.70    1.70
   4 -11 -12    4.20    1.50
   4 -11 -12    5.80    1.50
   4 -11 -12    4.90    1.50
   5 -11  12   21.50    3.50
   5  11 -12   25.90    3.00
   5  11 -12   26.80    2.80
  -5 -11  12   24.50    3.00
   5 -11 -12   20.10    2.40
  -5  11 -12   20.90    2.80
   5  11  12   22.40    2.50
   5 -11 -12   22.00    2.90
   0 -12 -12   21.40    2.60
   0  12  12   17.90    2.10
   0 -12  12   16.70    2.10
   0  12 -12   18.90    2.50
   1  12 -12    5.60    1.90
  -1 -12 -12    7.80    1.70
   1 -12  12   10.80    1.80
  -1 -12 -12   11.50    1.90
  -1  12  12    8.60    1.60
   1 -12 -12   10.20    1.80
  -1 -12  12   13.20    2.00
  -1 -12  12    9.70    2.20
   1 -12 -12    9.30    1.80
   1 -12 -12   10.10    1.70
   1  12  12    8.00    1.60
  -1  12 -12   13.80    2.90
  -2 -12 -12   79.09    4.00
   2 -12  12   79.89    3.60
  -2 -12 -12   76.59    4.10
   2  12 -12   75.39    4.10
  -2 -12  12   81.29    4.60
  -2 -12  12   84.29    4.00
   2 -12 -12   81.79    3.70
   2  12  12   76.19    3.80
  -2  12 -12   81.39    3.80
   2 -12 -12   79.59    3.90
   2 -12 -12   79.99    4.00
   3 -12  12    9.70    1.90
   3  12 -12    8.00    2.10
  -3 -12 -12    4.30    1.60
  -3 -12 -12    9.60    1.90
   3 -12 -12    5.50    1.50
   3  12  12    4.80    1.60
  -3 -12  12    8.10    1.80
  -3  12 -12    8.90    1.70
  -3 -12  12    7.20    2.00
   3 -12 -12    4.90    1.60
   4  12 -12   22.40    2.80
   4 -12  12   26.20    2.90
   4  12 -12   25.50    2.70
  -4 -12  12   26.10    2.70
   4  12  12   23.70    2.70
   4 -12 -12   27.30    2.80
  -4  12 -12   31.40    2.60
   0 -13  12   19.70    2.30
   0  13  12   13.00    1.90
   0 -13 -12   14.10    2.10
   0 -13 -12   15.40    2.30
  -1  13  12    9.40    1.70
  -1 -13 -12   14.60    2.20
  -1 -13 -12   11.20    2.00
   1 -13  12    9.70    1.90
  -1 -13  12   13.60    2.10
   1 -13 -12   11.40    2.00
   1  13  12   11.20    1.90
   1 -13 -12   11.00    2.10
  -1 -13  12   11.30    3.20
   2 -13  12   -2.10    0.80
   2  13 -12    1.10    1.50
  -2 -13 -12    2.20    1.40
  -2 -13  12   -1.60    1.10
   2  13  12    0.70    1.20
   2 -13 -12    0.90    1.30
   2 -13 -12    2.80    1.50
   3  13 -12    9.70    2.20
   0   0 -13    1.50    0.60
   0   0 -13    0.40    1.00
   1   0 -13   14.20    1.00
  -1   0 -13   13.20    1.70
  -1   0 -13   13.90    1.20
   1   0 -13   15.80    1.80
   1   0 -13   10.60    1.70
   2   0 -13   35.90    2.80
   2   0 -13   40.00    2.10
   2   0 -13   35.30    2.30
  -2   0 -13   38.80    2.50
   2   0 -13   40.10    1.60
  -2   0 -13   36.20    1.80
   3   0 -13    9.10    1.70
  -3   0 -13   12.80    1.70
   3   0 -13    9.20    1.10
   3   0 -13   10.30    1.40
   3   0 -13    9.20    1.70
  -3   0 -13   12.80    1.30
  -4   0 -13    1.20    0.80
   4   0 -13   -0.40    1.30
   4   0 -13    1.70    0.70
   4   0 -13    0.90    1.30
  -4   0 -13    0.90    1.00
   4   0 -13   -0.30    0.80
   5   0 -13  175.88    5.80
  -5   0 -13  185.98    5.20
   5   0 -13  183.68    5.50
  -5   0 -13  178.68    5.50
   5   0 -13  173.58    5.10
   5   0 -13  184.78    6.00
   6   0 -13   11.30    2.10
  -6   0 -13   10.70    1.70
   6   0 -13    9.30    1.60
   6   0 -13    8.10    1.80
   7   0 -13    4.40    1.70
   7   0 -13    3.40    1.60
   7   0 -13    1.30    1.30
  -7   0 -13    5.70    1.50
   8   0 -13   18.20    2.40
   8   0 -13   22.00    2.60
  -8   0 -13   21.80    2.60
   8   0 -13   20.50    3.10
   0   1 -13  150.68    4.70
   0   1 -13  150.18    5.20
   0   1 -13  142.09    3.60
   0  -1 -13  148.29    4.60
  -1  -1 -13  111.69    2.70
   1   1 -13  114.19    4.50
  -1  -1 -13  103.19    3.80
   1   1 -13  104.39    3.90
   1   1 -13  104.09    2.90
   1  -1 -13  106.19    3.80
  -1   1 -13  108.39    3.10
   1  -1 -13  111.19    3.30
  -1   1 -13  108.79    4.00
   1  -1 -13  105.59    4.30
  -2  -1 -13   35.90    2.40
   2   1 -13   39.70    1.80
  -2  -1 -13   39.10    1.70
   2   1 -13   40.60    3.00
   2   1 -13   40.10    2.40
   2   1 -13   39.00    2.10
   2  -1 -13   42.30    2.20
  -2   1 -13   38.70    2.50
  -2   1 -13   38.00    2.00
   2  -1 -13   37.40    2.80
   3   1 -13   60.39    2.20
   3   1 -13   56.09    3.30
  -3  -1 -13   61.09    3.00
  -3  -1 -13   59.79    2.30
   3   1 -13   58.89    2.70
   3   1  13   58.59    2.80
   3  -1 -13   63.39    2.80
  -3   1 -13   59.99    3.10
   3  -1 -13   57.99    3.10
  -3   1 -13   57.49    2.50
   3  -1 -13   59.89    3.40
   4   1 -13   69.99    3.50
  -4  -1 -13   74.59    3.40
   4   1 -13   75.79    2.70
   4   1 -13   79.79    4.00
  -4  -1 -13   69.89    2.80
   4   1 -13   85.19    3.40
   4  -1 -13   75.09    3.30
  -4   1 -13   69.69    3.40
   4  -1 -13   74.69    3.70
  -4   1 -13   75.89    3.10
   4   1  13   76.19    3.30
   4  -1 -13   75.59    3.70
  -5  -1 -13   12.10    1.70
   5   1 -13    9.30    2.10
   5   1 -13   12.30    1.70
   5   1 -13   15.00    1.50
   5   1 -13   11.60    1.90
  -5   1 -13   10.90    1.70
  -5   1 -13   14.70    1.80
   5  -1 -13   12.00    2.10
   5  -1 -13    9.50    1.90
   5  -1 -13   14.20    1.80
   6   1 -13    8.30    2.00
  -6  -1 -13   14.30    1.90
   6   1 -13   13.80    2.20
   6   1 -13   10.50    1.40
   6   1 -13   12.10    1.90
   6  -1 -13   11.60    1.90
   6  -1 -13   10.10    2.00
  -6   1 -13   11.10    2.70
  -6   1 -13   15.80    2.10
   6  -1 -13   10.40    2.00
   7   1 -13   31.70    3.10
   7   1 -13   36.40    2.90
  -7  -1 -13   41.50    2.80
   7   1 -13   35.90    3.20
   7  -1 -13   33.80    2.80
   7  -1 -13   37.90    3.00
  -7   1 -13   34.20    2.80
   7  -1 -13   34.60    3.00
   8   1 -13   52.39    4.90
   8   1 -13   53.99    3.70
  -8  -1 -13   50.19    3.40
  -8  -1 -13   57.99    3.60
   8   1 -13   61.89    3.70
  -8   1 -13   50.29    3.40
   8  -1 -13   54.89    3.60
   0   2 -13   76.39    3.60
   0   2 -13   77.19    2.70
   0   2 -13   74.39    3.30
   0  -2 -13   74.69    3.20
  -1  -2 -13   34.70    2.30
   1   2 -13   31.40    1.80
   1   2 -13   37.20    2.40
   1   2 -13   34.40    2.60
  -1   2 -13   35.30    1.90
   1  -2 -13   32.80    1.80
   1  -2 -13   27.80    2.50
   1  -2 -13   35.50    2.30
   1   2  13   35.00    2.20
  -1   2 -13   32.00    2.30
   2   2 -13   76.59    3.90
   2   2 -13   79.59    2.90
  -2  -2 -13   88.59    3.40
   2   2 -13   86.29    3.60
   2   2 -13   84.49    2.80
   2  -2 -13   83.59    3.00
   2   2  13   82.29    3.40
   2  -2 -13   87.39    3.80
  -2   2 -13   82.69    3.60
  -2   2 -13   81.59    3.00
   3   2 -13   54.19    2.70
  -3  -2 -13   55.19    2.80
   3   2 -13   55.59    2.40
   3   2 -13   52.39    3.40
  -3   2 -13   52.99    2.60
  -3   2 -13   51.99    3.00
   3  -2 -13   52.59    3.20
   3   2  13   56.39    2.90
   3  -2 -13   53.49    2.60
   3  -2 -13   53.39    3.00
   4   2 -13   13.80    2.00
   4   2 -13   17.20    1.80
  -4  -2 -13   15.30    1.90
   4   2 -13   21.80    2.60
   4   2 -13   19.30    1.70
   4  -2 -13   21.70    2.30
  -4   2 -13   21.60    2.00
   4  -2 -13   18.40    1.90
  -4   2 -13   17.50    2.00
   4  -2 -13   20.00    2.30
   4   2  13   19.20    2.00
  -5  -2 -13    6.50    1.30
   5   2 -13    4.90    1.10
   5   2 -13    4.20    1.30
   5   2 -13    2.90    1.70
   5   2 -13    2.70    1.60
   5  -2 -13    1.50    1.40
   5   2  13    3.00    1.20
   5  -2 -13    3.90    1.60
   5  -2 -13    5.00    1.40
  -5   2 -13    4.10    1.40
  -5   2 -13    3.80    1.10
   6   2 -13   43.60    2.50
  -6  -2 -13   46.60    2.80
   6   2 -13   34.90    2.80
   6   2 -13   40.10    3.20
   6   2 -13   37.40    3.30
   6   2  13   41.80    2.80
   6  -2 -13   42.90    2.90
   6  -2 -13   36.90    3.00
   6  -2 -13   42.50    3.00
  -6   2 -13   45.60    3.00
  -7  -2 -13   31.10    2.60
   7   2 -13   27.90    3.00
  -7  -2 -13   23.60    2.60
   7   2 -13   24.10    2.80
   7   2 -13   25.60    2.60
   7  -2 -13   25.80    2.70
   7  -2 -13   28.40    2.70
  -7   2 -13   25.50    2.60
  -8  -2 -13   17.60    2.30
   8   2 -13   21.30    2.70
   8   2 -13   20.80    2.60
   8  -2 -13   20.40    2.50
   0  -3 -13   28.40    2.10
   0   3 -13   29.70    1.90
   0   3 -13   30.40    2.20
   0   3 -13   30.20    2.70
   0   3  13   31.20    2.00
  -1  -3 -13  108.09    3.70
   1   3 -13  102.59    3.30
  -1   3  13  101.49    3.50
   1   3 -13  109.69    3.90
   1   3 -13  104.79    4.40
   1  -3 -13  101.79    4.20
  -1   3 -13  101.79    4.30
  -1   3 -13  106.19    4.00
   1   3  13  105.29    3.80
   1  -3 -13  104.29    3.70
  -1   3 -13   99.09    3.40
   1  -3 -13  105.89    3.30
   2   3 -13   11.10    1.30
  -2  -3 -13    9.50    1.40
   2   3 -13    8.80    1.80
   2   3 -13   11.70    1.70
   2   3 -13   11.50    1.30
   2  -3 -13    8.80    1.60
   2  -3 -13   10.00    1.30
  -2   3 -13   10.40    1.60
   2   3  13    9.10    1.50
  -2   3 -13   12.20    1.50
   3   3 -13   65.49    3.20
  -3  -3 -13   67.69    3.00
   3   3 -13   65.99    3.60
   3   3 -13   63.49    2.80
   3   3 -13   64.49    2.70
  -3   3 -13   68.89    3.00
   3  -3 -13   63.19    3.30
   3   3  13   67.19    3.10
  -3   3 -13   62.39    3.20
   3  -3 -13   62.19    3.30
   3  -3 -13   66.89    3.00
  -4  -3 -13   11.00    1.60
   4   3 -13   10.40    1.90
   4   3 -13    9.00    2.00
   4   3 -13   12.20    1.60
   4   3 -13   12.50    1.50
   4  -3 -13    6.90    1.70
  -4   3 -13   11.40    1.80
  -4   3 -13   10.80    1.60
   4  -3 -13   10.60    1.60
   4  -3 -13    9.30    1.80
   4   3  13    9.40    1.50
  -5  -3 -13   19.10    2.00
   5   3 -13   18.60    2.10
   5   3 -13   20.60    2.40
   5   3 -13   19.00    1.90
   5   3 -13   17.20    2.20
   5  -3 -13   21.00    2.40
  -5   3 -13   19.10    2.10
   5  -3 -13   22.60    2.40
  -5   3 -13   21.20    2.30
   5  -3 -13   16.60    2.00
   5   3  13   18.00    2.10
   6   3 -13   72.49    3.80
   6   3 -13   72.29    3.90
   6   3 -13   67.99    3.60
  -6  -3 -13   70.89    3.30
   6   3 -13   73.89    4.10
   6   3  13   74.89    3.60
   6  -3 -13   69.39    3.60
  -6   3 -13   67.29    3.60
   6  -3 -13   66.89    3.60
   7   3 -13   14.50    2.40
   7   3 -13   17.10    2.50
  -7  -3 -13   16.90    2.30
   7   3 -13   16.50    2.30
  -7   3 -13   15.20    2.20
   7  -3 -13   16.00    2.20
   7   3  13   13.70    2.00
   7  -3 -13   15.50    2.20
   8   3 -13   18.80    2.60
   8   3 -13   18.70    2.50
   8  -3 -13   15.30    2.30
   8   3  13   17.60    2.50
   0  -4 -13    2.90    1.00
   0   4  13    1.80    1.00
   0   4 -13    2.60    1.10
   0   4 -13    2.20    1.40
   0   4 -13    4.80    1.00
   1   4 -13   16.40    2.20
  -1  -4 -13   19.30    1.90
  -1   4  13   22.20    1.90
   1   4 -13   19.90    1.80
   1   4 -13   23.30    2.20
  -1   4 -13   21.10    2.10
   1  -4 -13   17.80    1.80
   1   4  13   17.60    1.90
  -1   4 -13   17.40    2.20
  -1   4 -13   18.20    1.80
   1  -4 -13   19.70    1.60
  -2  -4 -13   41.50    2.30
   2   4 -13   40.10    2.60
   2   4 -13   43.30    2.20
   2   4 -13   42.20    3.20
   2   4 -13   41.70    2.30
  -2   4 -13   38.00    2.50
   2  -4 -13   42.20    2.30
   2   4  13   41.60    2.60
   2  -4 -13   48.70    2.90
  -2   4 -13   42.40    2.50
   3   4 -13   10.30    1.50
   3   4 -13    9.80    1.60
   3   4 -13   11.80    1.50
  -3  -4 -13   12.00    1.60
   3   4 -13   10.80    2.00
   3  -4 -13   10.00    1.70
  -3   4 -13   10.00    1.70
  -3   4 -13   11.10    1.60
   3  -4 -13   12.10    1.90
   3   4  13   13.20    1.80
   3  -4 -13    9.50    1.50
   4   4 -13   29.00    2.90
   4   4 -13   22.80    2.50
   4   4 -13   25.70    2.10
  -4  -4 -13   25.50    2.10
   4   4 -13   27.50    2.20
   4  -4 -13   30.20    2.30
   4   4  13   25.60    2.40
   4  -4 -13   26.30    2.50
  -4   4 -13   24.90    2.50
   4  -4 -13   23.70    2.30
  -4   4 -13   26.80    2.30
  -5  -4 -13   76.09    5.00
   5   4 -13   73.39    3.30
   5   4 -13   74.19    3.50
   5   4 -13   74.49    3.90
   5   4 -13   74.99    4.00
  -5  -4 -13   75.89    3.80
  -5   4 -13   73.79    3.70
  -5   4 -13   74.09    3.60
   5  -4 -13   71.39    3.60
   5   4  13   76.89    3.60
   5  -4 -13   76.89    3.70
  -6  -4 -13   52.69    3.30
   6   4 -13   56.79    3.40
   6   4 -13   61.09    3.70
   6   4 -13   53.89    3.70
   6  -4 -13   55.09    3.30
   6  -4 -13   56.89    3.40
  -6   4 -13   61.39    3.50
   6   4  13   52.49    3.20
   7   4 -13   11.80    2.30
   7   4 -13    7.90    1.80
   7   4 -13    8.80    2.00
  -7  -4 -13   10.00    1.90
   7  -4 -13    9.10    1.90
   7  -4 -13    8.10    2.00
  -7   4 -13   12.00    2.00
   7   4  13    9.90    1.80
   8   4 -13   31.90    3.10
   8   4 -13   30.10    3.10
   8   4  13   34.30    2.80
   8  -4 -13   31.70    2.90
   0   5  13   18.80    1.90
   0   5 -13   18.50    1.80
   0  -5 -13   17.10    1.80
   0   5 -13   16.50    2.00
   0   5 -13   14.00    2.20
   1   5 -13   48.40    3.20
  -1   5  13   49.90    2.60
  -1  -5 -13   51.49    2.50
   1   5 -13   55.39    3.00
   1   5 -13   54.29    2.70
  -1   5 -13   57.39    3.10
   1   5  13   52.59    2.70
   1  -5 -13   52.69    2.50
   1  -5 -13   55.89    2.60
   1  -5 -13   50.29    2.60
  -1   5 -13   51.29    3.20
  -1   5 -13   54.99    2.80
   1  -5 -13   53.69    2.40
  -2  -5 -13    5.80    1.20
   2   5 -13    7.10    1.30
   2   5 -13    6.00    1.30
   2   5 -13    8.50    1.80
  -2   5  13    5.70    1.20
  -2   5 -13    7.80    1.60
   2  -5 -13    4.60    1.10
  -2   5 -13   10.20    1.90
   2  -5 -13    4.80    1.40
  -2   5 -13    5.30    1.30
   2  -5 -13    6.30    1.40
   2  -5 -13    6.00    1.20
   2   5  13    6.40    1.40
  -3  -5 -13   25.60    2.00
   3   5 -13   25.10    2.10
   3   5 -13   21.20    2.50
   3   5 -13   23.30    2.00
   3   5 -13   24.40    2.10
   3  -5 -13   25.90    2.40
   3  -5 -13   27.90    2.40
   3   5  13   28.60    2.30
   3  -5 -13   29.60    2.20
  -3   5 -13   24.80    2.20
  -3   5 -13   28.60    2.40
   3  -5 -13   24.90    2.00
   4   5 -13   66.89    3.40
   4   5 -13   76.89    3.40
  -4  -5 -13   74.59    3.60
   4   5 -13   75.19    3.40
   4   5 -13   65.49    3.80
   4   5 -13   76.69    3.90
  -4   5 -13   71.69    3.70
   4  -5 -13   74.19    3.60
  -4   5 -13   76.19    3.70
   4   5  13   69.79    3.40
   4  -5 -13   75.89    3.50
   5   5 -13   15.10    1.90
   5   5 -13   12.00    1.80
  -5  -5 -13   11.80    2.00
   5   5 -13   15.40    2.50
   5   5 -13   18.20    2.40
   5  -5 -13   15.30    2.00
  -5   5 -13   18.00    2.30
   5  -5 -13   18.50    2.20
   5   5  13   17.40    2.20
  -6  -5 -13   63.99    3.70
   6   5 -13   68.29    4.10
   6   5 -13   65.09    3.60
   6   5 -13   73.19    3.90
   6  -5 -13   71.79    3.60
  -6   5 -13   70.49    3.70
   6   5  13   68.39    3.60
   6  -5 -13   69.09    3.70
  -7  -5 -13   47.60    3.30
   7   5 -13   52.19    3.40
   7   5 -13   45.30    3.70
   7   5 -13   45.60    3.40
   7   5  13   47.70    3.10
  -7   5 -13   52.99    3.50
   7  -5 -13   45.80    3.30
   7  -5 -13   44.80    3.20
   0  -6 -13   27.70    2.10
   0  -6  13   29.60    2.00
   0   6  13   27.00    2.10
   0  -6 -13   30.50    2.10
   0   6 -13   29.60    2.40
   0   6 -13   32.00    2.30
   0   6 -13   29.90    2.90
  -1  -6 -13    6.50    1.40
   1  -6  13    7.30    1.20
  -1   6  13    5.90    1.30
   1   6 -13    5.70    1.70
   1   6 -13    5.50    1.40
   1   6 -13    6.50    1.30
  -1  -6 -13    7.50    1.30
   1  -6 -13    6.30    1.20
   1  -6 -13    6.40    1.20
   1   6  13    5.50    1.30
   1  -6 -13    6.30    1.20
  -1   6 -13    5.90    1.30
  -1   6 -13    6.10    1.50
   1  -6 -13    6.10    1.30
  -1   6 -13    6.10    1.60
   1  -6 -13    6.40    1.20
   2   6 -13   96.19    3.90
   2   6 -13   92.39    4.50
   2   6 -13   90.39    3.70
  -2  -6 -13   90.19    3.80
  -2   6  13   89.49    3.40
   2  -6 -13   94.69    3.60
   2   6  13   95.19    3.80
  -2   6 -13   86.59    3.90
  -2   6 -13   95.59    4.40
   2  -6 -13   92.49    3.40
  -2   6 -13   89.39    3.90
   2  -6 -13   92.79    3.90
   2  -6 -13   90.19    3.70
   3   6 -13   14.10    2.20
   3   6 -13   14.90    1.80
  -3  -6 -13   12.50    1.70
   3   6 -13   13.50    1.90
  -3   6  13   14.00    1.60
   3   6 -13   17.40    2.40
   3   6 -13   13.70    1.70
   3  -6 -13   11.70    1.60
  -3   6 -13   14.70    2.00
   3  -6 -13   16.60    1.70
   3   6  13   14.70    1.80
   3  -6 -13   15.70    1.90
  -3   6 -13   14.80    2.00
  -3   6 -13   14.40    2.30
   4   6 -13   33.70    2.50
   4   6 -13   33.40    3.20
   4   6 -13   29.70    2.50
   4   6 -13   36.00    2.50
  -4  -6 -13   33.60    2.70
   4   6 -13   31.20    2.90
   4  -6 -13   32.30    2.60
   4  -6 -13   32.40    2.50
  -4   6 -13   30.50    2.80
   4  -6 -13   28.60    2.20
   4   6  13   33.10    2.60
  -4   6 -13   30.00    2.70
   5   6 -13   32.60    2.60
   5   6 -13   29.00    2.80
  -5  -6 -13   36.60    2.90
   5   6 -13   39.50    2.90
   5   6 -13   28.70    3.10
   5  -6 -13   37.60    3.80
   5   6  13   32.90    2.70
  -5   6 -13   32.60    2.80
   5  -6 -13   33.30    2.70
   5  -6 -13   30.90    2.60
  -6  -6 -13   25.20    2.70
   6   6 -13   25.80    2.80
   6   6 -13   21.50    2.50
   6   6 -13   22.10    2.80
   6  -6 -13   22.70    2.60
   6   6  13   24.90    2.60
  -6   6 -13   21.10    2.40
   6  -6 -13   17.50    2.10
   7   6 -13    7.80    1.90
   7   6 -13    4.10    2.00
  -7  -6 -13    5.80    2.10
   7   6 -13    7.70    2.00
   7  -6 -13    6.30    1.70
   7   6  13    7.10    1.70
   7  -6 -13   10.00    2.50
   0   7  13   25.60    2.30
   0  -7 -13   26.50    2.10
   0   7 -13   24.60    2.70
   0  -7  13   27.60    1.90
   0   7 -13   28.20    2.40
   0  -7 -13   27.60    2.20
   0   7 -13   24.80    2.30
   1   7 -13   30.40    3.00
  -1   7  13   26.20    2.10
  -1  -7 -13   28.70    2.30
   1   7 -13   21.90    2.20
   1  -7  13   27.60    1.90
   1   7 -13   23.80    2.30
   1  -7 -13   25.10    2.00
  -1  -7  13   26.80    2.10
  -1   7 -13   25.20    2.40
   1  -7 -13   24.80    2.10
   1  -7 -13   28.10    2.10
   1  -7 -13   24.20    1.90
   1   7  13   25.80    2.30
   1  -7 -13   24.00    2.00
   1  -7 -13   27.70    2.20
  -1   7 -13   28.10    2.90
  -1   7 -13   28.50    2.50
   1  -7 -13   26.50    2.00
  -2  -7 -13   30.30    2.30
   2   7 -13   32.90    2.50
  -2   7  13   30.10    2.10
   2   7 -13   35.80    2.60
   2  -7  13   29.70    2.30
   2   7 -13   27.90    2.90
   2  -7 -13   34.80    2.30
  -2   7 -13   33.60    2.50
   2  -7 -13   31.90    2.30
  -2   7 -13   36.10    3.00
   2  -7 -13   31.50    2.20
   2   7  13   26.20    2.20
   2  -7 -13   27.30    2.20
  -2   7 -13   31.80    2.60
   3   7 -13   24.40    2.50
   3   7 -13   26.40    2.10
   3   7 -13   22.60    2.60
  -3  -7 -13   24.80    2.30
   3   7 -13   24.10    2.30
  -3   7  13   25.10    1.90
   3   7 -13   26.50    2.50
   3  -7  13   29.00    2.40
   3  -7 -13   27.40    2.20
  -3   7 -13   24.60    2.60
   3   7  13   23.70    2.40
  -3   7 -13   26.10    2.80
   3  -7 -13   29.50    2.20
   3  -7 -13   26.20    2.20
  -3   7 -13   32.00    2.60
   4   7 -13   -0.10    1.30
   4  -7  13   -1.70    0.90
  -4  -7 -13    0.90    1.00
   4   7 -13   -0.90    1.00
   4   7 -13    1.30    1.20
   4   7 -13    1.80    1.50
  -4   7 -13   -0.70    1.20
   4  -7 -13    0.30    1.00
   4   7  13    0.10    0.90
  -4   7 -13    0.90    1.20
   4  -7 -13   -0.40    1.10
   4  -7 -13    0.30    1.00
   5   7 -13    8.00    1.60
   5   7 -13    8.20    1.60
  -5  -7 -13    6.30    1.60
   5   7 -13    6.50    2.10
   5   7 -13    5.70    1.70
   5  -7 -13    9.30    1.70
  -5   7 -13    8.60    1.90
   5  -7 -13    7.50    1.60
   5  -7 -13    9.90    1.70
   5   7  13    5.40    1.50
   6   7 -13   11.80    2.20
   6   7 -13   17.00    2.70
  -6  -7 -13   10.20    2.00
   6   7 -13   12.00    2.00
   6   7 -13   13.60    2.10
   6   7  13   12.30    2.00
   6  -7 -13   16.20    2.10
  -6   7 -13   19.10    2.40
   6  -7 -13   13.20    2.10
   7   7 -13   23.90    2.80
   7   7 -13   25.40    3.10
   7  -7 -13   25.40    2.60
   7   7  13   27.70    2.80
   0  -8 -13  216.98    6.10
   0  -8  13  209.88    5.60
   0   8 -13  224.68    6.90
   0   8 -13  213.28    6.20
   0  -8 -13  219.78    5.90
   0   8 -13  226.68    6.50
   0   8  13  208.88    5.90
  -1  -8 -13   19.20    2.10
   1   8 -13   18.40    2.50
   1   8 -13   19.60    2.20
   1   8 -13   18.90    2.20
   1  -8  13   17.70    1.80
  -1   8  13   18.10    1.90
   1  -8 -13   18.10    1.90
  -1   8 -13   26.20    2.40
  -1  -8  13   19.70    2.00
   1  -8 -13   17.30    1.80
   1   8  13   13.80    1.80
   1  -8 -13   16.00    1.90
  -1   8 -13   16.80    2.00
  -1   8 -13   21.80    2.60
   1  -8 -13   15.50    1.80
   2  -8  13  138.49    4.70
  -2  -8 -13  132.49    4.80
   2   8 -13  131.89    4.80
   2   8 -13  120.49    4.60
   2   8 -13  133.69    5.30
  -2   8  13  129.09    4.20
  -2   8 -13  130.69    5.20
   2   8  13  122.59    4.50
   2  -8 -13  136.89    4.50
   2  -8 -13  127.69    4.90
  -2   8 -13  129.09    5.00
   2  -8 -13  131.29    4.50
  -2  -8  13  132.39    4.50
   2  -8 -13  130.99    4.30
  -2   8 -13  133.29    4.80
   3   8 -13   41.30    3.00
  -3  -8 -13   31.00    2.60
   3  -8  13   32.70    2.70
   3   8 -13   34.50    2.70
   3   8 -13   37.70    3.40
   3   8 -13   36.10    3.00
  -3   8 -13   32.00    2.90
  -3   8 -13   34.50    2.80
   3   8  13   38.90    2.80
   3  -8 -13   32.70    2.40
   3  -8 -13   34.50    2.50
   3  -8 -13   32.70    2.50
   4   8 -13    2.20    1.20
   4   8 -13    5.20    1.40
  -4  -8 -13    3.90    1.60
   4   8 -13    4.00    1.70
   4  -8  13    3.50    1.40
   4   8 -13    4.40    1.70
  -4   8 -13    1.70    1.30
   4  -8 -13    2.30    1.30
  -4   8 -13    3.90    1.50
   4  -8 -13    2.50    1.30
   4   8  13    1.90    1.20
   4  -8 -13    3.70    1.30
   5  -8  13   57.19    3.70
   5   8 -13   60.79    3.40
   5   8 -13   61.49    4.10
  -5  -8 -13   55.39    3.50
   5   8 -13   62.19    3.70
   5   8 -13   60.69    3.40
   5   8  13   65.39    3.60
  -5   8 -13   52.69    3.40
   5  -8 -13   64.49    3.60
   5  -8 -13   62.19    3.50
   5  -8 -13   60.19    3.30
  -6  -8 -13   75.79    5.90
   6   8 -13   65.99    4.30
   6   8 -13   72.29    4.00
   6   8 -13   75.29    3.90
   6   8 -13   67.59    3.80
   6  -8 -13   70.79    3.90
   6  -8 -13   72.69    4.00
   6   8  13   70.49    3.80
   6  -8 -13   70.09    3.60
  -6   8 -13   75.09    4.60
   0   9  13  131.29    4.50
   0  -9  13  127.79    4.30
   0   9 -13  126.99    4.70
   0  -9 -13  134.79    4.80
   0   9 -13  140.09    5.40
   0  -9 -13  127.79    4.50
  -1  -9 -13  148.09    5.20
   1   9 -13  153.78    5.20
  -1  -9 -13  150.58    5.00
   1   9 -13  159.58    5.80
  -1   9  13  148.59    4.80
   1  -9  13  152.48    4.60
  -1  -9  13  154.38    4.90
   1  -9 -13  146.49    4.50
  -1   9 -13  147.99    5.10
   1  -9 -13  152.38    5.00
  -1   9 -13  149.49    5.60
   1  -9 -13  154.28    5.00
   1   9  13  152.38    5.10
  -2  -9 -13   31.60    2.60
   2   9 -13   27.70    3.00
  -2   9  13   31.80    2.20
   2  -9  13   31.20    2.50
   2   9 -13   29.80    2.60
   2  -9 -13   31.80    2.50
  -2   9 -13   29.70    2.60
   2  -9 -13   28.20    2.40
   2  -9 -13   25.20    2.30
   2  -9 -13   31.60    2.50
  -2  -9  13   30.60    2.40
   2   9  13   32.50    2.80
  -2   9 -13   30.10    3.00
  -3  -9 -13   39.90    3.00
   3   9 -13   41.80    3.00
   3   9 -13   48.90    3.10
   3   9 -13   46.30    3.60
   3  -9  13   41.40    2.80
  -3   9 -13   39.60    3.00
  -3   9 -13   39.60    3.30
   3  -9 -13   42.10    2.90
   3  -9 -13   47.40    3.00
   3   9  13   41.40    2.80
   3  -9 -13   49.40    2.90
   4   9 -13   25.50    2.50
   4   9 -13   26.60    3.10
   4  -9  13   30.00    3.00
  -4  -9 -13   22.20    2.60
   4   9 -13   26.80    2.50
   4   9 -13   29.50    2.80
   4  -9 -13   26.00    2.50
   4  -9 -13   23.70    2.60
   4  -9 -13   20.00    2.40
   4   9  13   23.20    2.50
  -4   9 -13   23.80    2.40
   5   9 -13   64.89    3.80
   5   9 -13   56.69    4.10
  -5  -9 -13   69.09    3.90
   5  -9  13   61.79    3.80
   5   9 -13   61.49    3.60
   5   9 -13   58.89    3.40
   5  -9 -13   59.69    3.50
   5  -9 -13   68.19    3.70
  -5   9 -13   68.89    3.70
   5   9  13   61.59    3.60
   5  -9 -13   55.89    3.50
   6   9 -13    0.70    1.60
   6   9 -13    1.80    1.80
   6   9  13    4.30    1.50
   6  -9 -13    5.00    1.70
   6  -9 -13    0.30    1.70
   0 -10 -13   26.90    2.40
   0 -10 -13   25.80    2.30
   0  10 -13   26.80    2.60
   0  10 -13   22.00    2.60
   0  10  13   22.30    2.30
   0 -10  13   23.00    2.20
  -1  10  13   30.70    2.30
   1  10 -13   28.00    2.50
  -1 -10 -13   29.80    2.60
  -1 -10 -13   34.10    2.60
   1 -10  13   31.50    2.30
   1  10 -13   28.90    3.00
  -1  10 -13   32.20    2.60
   1 -10 -13   32.60    2.60
   1  10  13   29.30    2.70
   1 -10 -13   29.50    2.50
  -1 -10  13   28.00    2.50
  -1  10 -13   30.50    3.10
  -2  10  13   13.10    1.70
   2  10 -13   14.90    2.10
   2  10 -13   11.00    2.30
   2  10 -13   14.10    2.00
  -2 -10 -13   12.80    1.90
  -2 -10 -13   14.90    2.20
   2 -10 -13   16.50    2.10
   2  10  13   11.90    1.90
   2 -10 -13   12.10    1.80
  -2  10 -13   10.80    2.10
  -2 -10  13   12.50    1.80
   2 -10 -13   12.70    1.90
  -2  10 -13   10.80    1.90
   3  10 -13   31.30    2.80
   3 -10  13   26.40    2.70
  -3 -10 -13   32.90    2.80
   3  10 -13   29.90    3.20
   3  10 -13   25.30    2.50
  -3  10 -13   26.30    2.60
   3 -10 -13   26.40    2.60
   3 -10 -13   28.50    2.60
   3 -10 -13   27.20    2.50
  -3 -10  13   26.60    2.60
   3  10  13   31.20    2.80
   4  10 -13    5.70    1.70
   4  10 -13    4.50    1.70
  -4 -10 -13    5.60    1.60
   4 -10  13    3.50    1.50
   4  10 -13    3.80    1.80
   4 -10 -13    3.00    1.40
   4 -10 -13    4.20    1.40
  -4  10 -13    5.30    1.60
   4 -10 -13    4.50    1.50
   4  10  13    4.90    1.60
   5  10 -13   18.10    2.40
   5 -10  13   19.70    3.00
   5  10 -13   14.20    2.60
   5 -10 -13   15.30    2.20
   5  10  13   11.60    2.10
   5 -10 -13   13.20    2.10
   0  11 -13    0.20    1.10
   0 -11  13    1.00    1.10
   0  11 -13   -1.60    1.40
   0  11  13   -0.80    1.00
   0 -11 -13    1.00    1.20
  -1  11  13   19.30    2.10
   1  11 -13   23.40    2.80
   1 -11  13   22.30    2.20
  -1 -11 -13   25.20    2.70
  -1 -11 -13   24.30    2.50
   1  11 -13   21.80    2.30
   1  11  13   22.40    2.40
  -1 -11  13   23.10    2.40
  -1  11 -13   19.80    2.30
  -1  11 -13   23.70    2.70
   1 -11 -13   22.30    2.40
   1 -11 -13   21.00    2.40
  -2 -11 -13    5.50    1.60
  -2 -11 -13    3.80    1.50
   2  11 -13    7.10    2.00
   2 -11 -13    5.30    1.60
   2  11  13    8.20    1.80
  -2 -11  13    5.30    1.50
   2 -11 -13    4.40    1.50
   2 -11 -13    3.40    1.40
  -2  11 -13    5.40    1.60
  -3 -11 -13    9.10    1.80
  -3 -11 -13   12.10    2.00
   3  11 -13    9.70    2.30
   3 -11  13    8.90    1.80
   3 -11 -13   11.30    2.00
   3 -11 -13    8.90    1.70
  -3 -11  13    9.50    1.90
   3 -11 -13   10.70    1.90
  -3  11 -13   11.70    1.80
   3  11  13    9.00    1.90
   4  11 -13   23.20    2.90
   4 -11  13   25.40    2.90
   4 -11 -13   20.10    2.40
   4 -11 -13   24.70    2.60
  -4  11 -13   21.20    2.70
   4  11  13   21.60    2.50
   0 -12 -13   11.60    2.00
   0  12  13    9.00    1.70
   0 -12 -13   10.70    1.90
   0  12 -13    8.80    2.10
   0 -12  13   11.20    1.80
  -1 -12 -13    3.50    1.50
   1 -12  13    1.40    1.10
  -1 -12 -13    1.30    1.30
  -1  12  13    1.80    1.10
   1  12 -13    0.50    1.60
  -1 -12  13    3.10    1.30
   1  12  13    2.90    1.40
   1 -12 -13   -0.70    1.30
   1 -12 -13    3.00    1.40
   2  12 -13   58.79    3.80
  -2 -12 -13   59.99    3.70
   2 -12 -13   60.99    3.50
   2  12  13   59.69    3.50
   2 -12 -13   65.49    3.80
  -2 -12  13   52.39    3.30
   2 -12 -13   67.39    3.50
  -2  12 -13   66.59    3.60
   3  12 -13   13.50    2.40
  -3 -12  13   17.40    2.30
   3 -12 -13   16.30    2.20
   3  12  13   16.00    2.30
  -3  12 -13   19.20    2.40
   0   0 -14   14.40    1.90
   0   0 -14   13.10    2.10
   1   0 -14  115.09    4.70
  -1   0 -14  118.09    4.00
  -1   0 -14  123.49    4.40
   1   0 -14  112.89    4.20
  -2   0 -14  100.59    4.00
  -2   0 -14  101.79    3.00
   2   0 -14  100.89    4.50
   2   0 -14  110.39    5.10
   2   0 -14  100.89    4.00
  -3   0 -14    5.20    1.00
  -3   0 -14    1.60    1.10
   3   0 -14    1.60    1.00
   3   0 -14    3.60    1.40
   3   0 -14    3.70    1.60
   4   0 -14  320.17    7.60
   4   0 -14  307.17    8.30
  -4   0 -14  307.87    7.80
   4   0 -14  314.17    8.20
  -4   0 -14  319.47    7.00
  -5   0 -14    4.40    1.20
   5   0 -14    3.20    1.30
   5   0 -14    2.70    1.50
   5   0 -14    3.50    1.70
  -5   0 -14    3.30    1.30
   6   0 -14   -2.20    1.00
   6   0 -14   -1.00    1.30
   6   0 -14   -1.10    1.50
  -6   0 -14    0.50    1.00
  -7   0 -14   29.90    2.70
   7   0 -14   20.30    2.60
   7   0 -14   22.80    2.70
   7   0 -14   17.90    2.40
   0   1 -14   25.70    2.70
   0   1 -14   27.70    1.60
   0   1 -14   28.40    2.40
   0  -1 -14   24.90    2.20
   1   1 -14   74.69    3.80
   1   1 -14   71.29    3.40
  -1  -1 -14   69.39    3.30
   1   1 -14   72.89    2.40
   1  -1 -14   77.29    3.80
  -1   1 -14   69.69    3.40
   1  -1 -14   71.99    3.30
  -1   1 -14   72.59    2.60
  -2  -1 -14   14.20    1.80
   2   1 -14   15.30    2.00
   2   1 -14   17.40    2.00
   2   1 -14   17.10    2.30
  -2   1 -14   18.40    1.60
   2  -1 -14   15.70    2.10
   2  -1 -14   19.50    2.10
   2  -1 -14   15.80    1.60
  -2   1 -14   15.70    2.00
  -3  -1 -14  258.17    6.70
  -3  -1 -14  260.57    5.50
   3   1 -14  251.07    7.30
   3   1 -14  251.57    7.10
   3   1 -14  255.87    6.20
   3  -1 -14  251.47    7.30
   3  -1 -14  254.47    6.30
  -3   1 -14  250.17    6.80
   3  -1 -14  251.47    6.90
  -3   1 -14  246.68    5.80
   4   1 -14  120.79    4.90
   4   1 -14  132.09    4.50
  -4  -1 -14  125.39    4.60
   4   1 -14  128.09    5.00
   4  -1 -14  127.49    4.50
  -4   1 -14  124.29    4.70
   4  -1 -14  122.69    4.90
   4  -1 -14  119.39    4.80
  -4   1 -14  127.49    4.10
  -5  -1 -14   12.70    1.90
   5   1 -14   11.20    2.10
   5   1 -14    8.70    2.00
   5   1 -14   12.70    1.80
  -5   1 -14   14.00    2.00
   5  -1 -14   11.90    1.80
   5  -1 -14   13.00    2.10
  -5   1 -14   14.60    1.70
   5  -1 -14   13.10    2.20
   6   1 -14   13.30    2.40
   6   1 -14   11.70    1.90
  -6  -1 -14   13.80    1.90
   6   1 -14   12.00    2.00
   6  -1 -14   11.40    2.10
   6  -1 -14   13.50    2.00
  -6   1 -14   12.10    2.00
   6  -1 -14   12.20    2.10
  -7  -1 -14    2.50    1.40
   7   1 -14    0.70    1.60
   7   1 -14    1.40    1.50
   7   1 -14   -1.30    1.50
   7  -1 -14    1.90    1.30
  -7   1 -14    0.40    1.30
   7  -1 -14    4.10    1.90
   7  -1 -14   -0.30    1.50
   0   2 -14   32.50    1.90
   0  -2 -14   30.30    2.30
   0   2 -14   34.30    2.50
   0   2 -14   30.60    2.80
   1   2 -14   32.80    2.80
  -1  -2 -14   37.90    2.50
   1   2 -14   35.90    2.60
   1   2 -14   29.90    1.80
   1  -2 -14   32.70    2.60
  -1   2 -14   37.40    2.10
   1  -2 -14   33.40    2.40
  -1   2 -14   32.30    2.50
   2   2 -14   62.99    2.50
   2   2 -14   63.09    3.30
  -2  -2 -14   63.49    3.10
   2   2 -14   64.99    3.70
  -2   2 -14   69.69    3.40
   2  -2 -14   63.79    3.60
   2  -2 -14   65.39    2.80
   2  -2 -14   62.49    3.20
  -2   2 -14   64.09    2.70
   2   2  14   60.39    3.10
   3   2 -14   70.09    3.50
   3   2 -14   70.99    3.00
   3   2 -14   68.69    2.60
   3   2 -14   70.29    3.80
  -3  -2 -14   69.29    3.30
   3  -2 -14   69.39    3.10
   3  -2 -14   60.99    3.50
   3  -2 -14   67.29    3.70
  -3   2 -14   67.19    2.90
   3   2  14   70.49    3.30
  -3   2 -14   69.49    3.50
   4   2 -14   29.00    2.90
   4   2 -14   35.10    2.50
   4   2 -14   32.80    2.00
   4   2 -14   36.20    3.30
  -4  -2 -14   33.30    2.50
   4  -2 -14   33.90    3.00
   4   2  14   30.90    2.50
  -4   2 -14   40.40    2.90
   4  -2 -14   38.80    3.00
   4  -2 -14   34.00    2.50
  -4   2 -14   35.70    2.40
  -5  -2 -14  176.78    5.40
   5   2 -14  170.38    4.70
   5   2 -14  174.48    5.90
   5   2 -14  163.78    6.00
   5   2 -14  170.48    5.50
  -5   2 -14  173.78    5.70
   5   2  14  179.98    5.60
   5  -2 -14  177.98    5.80
   5  -2 -14  177.28    5.80
   5  -2 -14  177.08    5.60
  -5   2 -14  175.48    5.70
   6   2 -14   33.50    3.20
  -6  -2 -14   32.90    2.60
   6   2 -14   28.30    2.70
   6   2 -14   26.80    2.80
   6  -2 -14   28.10    2.90
   6  -2 -14   30.90    2.90
   6  -2 -14   28.40    2.60
  -6   2 -14   30.70    2.70
   7   2 -14   23.10    2.90
  -7  -2 -14   30.40    3.00
   7   2 -14   27.60    2.80
   7   2 -14   19.80    2.60
  -7  -2 -14   25.40    2.80
   7  -2 -14   20.30    2.50
  -7   2 -14   25.60    2.70
   7  -2 -14   27.30    2.80
   0   3 -14  200.68    5.90
   0   3 -14  197.38    6.50
   0   3  14  204.18    5.50
   0  -3 -14  200.58    5.60
   0   3 -14  198.48    5.00
  -1  -3 -14   46.80    2.70
   1   3 -14   48.20    3.00
   1   3 -14   47.10    2.30
   1   3 -14   48.50    3.20
  -1   3 -14   47.80    2.40
   1   3  14   45.90    2.70
  -1   3 -14   47.00    3.40
   1  -3 -14   44.90    3.10
   1  -3 -14   44.30    2.60
  -1   3 -14   46.50    2.90
   2   3 -14   34.60    2.60
   2   3 -14   29.80    2.80
   2   3 -14   31.70    2.00
  -2  -3 -14   34.20    2.30
   2  -3 -14   30.90    2.10
  -2   3 -14   31.60    2.10
   2   3  14   33.00    2.40
  -2   3 -14   33.00    2.50
   2  -3 -14   32.40    2.40
   2  -3 -14   31.90    2.70
  -3  -3 -14   18.20    2.00
   3   3 -14   20.50    1.90
   3   3 -14   16.60    2.10
   3   3 -14   17.00    2.50
   3   3 -14   17.20    1.60
  -3   3 -14   18.50    2.10
   3   3  14   15.20    1.90
  -3   3 -14   19.80    1.90
   3  -3 -14   21.40    2.00
   3  -3 -14   15.90    2.20
   3  -3 -14   15.80    2.20
   4   3 -14  109.39    4.70
   4   3 -14  114.79    5.10
   4   3 -14  122.29    4.30
  -4  -3 -14  113.79    4.20
   4   3 -14  118.79    3.90
   4  -3 -14  114.79    4.30
  -4   3 -14  118.09    4.70
   4   3  14  110.09    4.20
  -4   3 -14  118.39    4.20
   4  -3 -14  112.89    4.60
   4  -3 -14  112.39    4.60
   5   3 -14   32.60    3.00
  -5  -3 -14   33.70    2.50
   5   3 -14   29.70    2.50
   5   3 -14   28.60    3.10
   5   3 -14   30.90    2.20
   5  -3 -14   32.10    2.80
   5  -3 -14   29.40    2.60
  -5   3 -14   32.20    2.80
   5   3  14   29.00    2.60
   5  -3 -14   32.70    2.80
   6   3 -14   21.40    2.60
   6   3 -14   22.00    2.80
  -6  -3 -14   20.00    2.50
   6   3 -14   19.90    2.30
   6  -3 -14   25.40    2.70
  -6   3 -14   23.00    2.60
   6   3  14   19.80    2.30
   6  -3 -14   23.80    2.60
  -7  -3 -14   37.50    3.00
   7   3 -14   33.50    3.40
   7   3 -14   37.30    3.40
   7   3 -14   33.30    2.90
   7  -3 -14   33.70    3.10
  -7   3 -14   39.30    3.50
   7  -3 -14   32.00    2.90
   7   3  14   33.10    2.80
   0   4  14   38.70    2.50
   0   4 -14   35.20    2.50
   0   4 -14   37.80    2.30
   0   4 -14   35.70    3.10
   0  -4 -14   36.70    2.40
   1   4 -14   10.90    1.40
   1   4 -14   12.30    1.90
  -1  -4 -14   13.90    1.80
  -1   4  14   14.80    1.70
   1   4 -14    8.80    1.90
  -1   4 -14   11.50    2.20
   1   4  14   12.40    1.70
  -1   4 -14   13.30    1.70
  -1   4 -14   14.70    2.10
   1  -4 -14   13.40    1.70
   1  -4 -14   12.60    1.90
   2   4 -14   20.20    2.30
  -2  -4 -14   26.00    2.10
   2   4 -14   17.60    2.60
   2   4 -14   21.10    1.90
  -2   4 -14   18.60    2.40
  -2   4 -14   16.70    1.80
   2  -4 -14   20.20    1.90
   2  -4 -14   23.50    2.40
   2  -4 -14   24.50    2.60
   2  -4 -14   21.70    2.20
  -2   4 -14   20.90    2.30
   2   4  14   19.00    2.00
   3   4 -14   11.60    1.80
   3   4 -14   11.00    1.90
   3   4 -14   13.40    1.70
   3   4 -14   11.70    1.60
   3   4 -14   10.50    2.10
  -3  -4 -14   11.10    1.70
   3  -4 -14   13.10    1.70
   3  -4 -14   13.70    2.10
  -3   4 -14   12.70    2.00
  -3   4 -14   12.20    1.70
   3   4  14   12.60    1.80
   3  -4 -14   13.10    2.00
  -4  -4 -14   27.10    2.30
   4   4 -14   23.60    2.40
   4   4 -14   32.30    3.10
   4   4 -14   24.40    2.20
   4   4 -14   18.70    2.50
   4   4 -14   25.60    2.20
   4  -4 -14   21.70    2.30
   4  -4 -14   25.10    2.50
  -4   4 -14   24.70    2.60
  -4   4 -14   25.20    2.40
   4  -4 -14   27.60    2.60
   4   4  14   30.30    2.40
   5   4 -14    3.30    1.70
   5   4 -14    2.70    1.90
   5   4 -14    2.00    1.20
  -5  -4 -14    1.50    1.30
   5   4  14    2.40    1.30
  -5   4 -14    4.50    1.50
   5  -4 -14    4.80    1.60
   5  -4 -14    3.40    1.30
   6   4 -14   12.50    2.30
   6   4 -14   18.90    2.30
   6   4 -14   22.10    2.70
  -6  -4 -14   19.00    2.30
  -6   4 -14   21.60    2.60
   6  -4 -14   19.20    2.50
   6  -4 -14   21.30    2.40
   6   4  14   18.00    2.30
   7   4 -14   21.90    2.90
   7   4 -14   15.70    2.50
   7   4 -14   18.50    2.60
   7   4  14   19.00    2.40
   7  -4 -14   17.00    2.50
   0   5  14   61.99    3.10
   0  -5 -14   62.49    2.90
   0   5 -14   64.89    3.90
   0   5 -14   64.29    3.30
   0   5 -14   61.99    3.00
   1   5 -14   15.10    2.40
  -1   5  14   14.20    1.70
   1   5 -14   15.10    1.80
  -1  -5 -14   16.10    1.80
   1   5 -14   16.50    2.10
   1   5  14   16.00    1.90
  -1   5 -14   16.00    1.80
  -1   5 -14   16.50    2.10
   1  -5 -14   14.60    1.80
   1  -5 -14   17.20    2.10
  -1   5 -14   19.70    2.60
   2   5 -14   22.50    2.00
   2   5 -14   17.90    2.50
  -2  -5 -14   21.00    2.00
   2   5 -14   19.50    2.20
   2  -5 -14   22.20    2.20
   2  -5 -14   21.00    2.00
   2  -5 -14   24.00    2.30
  -2   5 -14   19.70    2.00
   2   5  14   18.20    2.00
  -2   5 -14   21.30    2.70
  -2   5 -14   22.20    2.40
   2  -5 -14   18.50    2.20
   3   5 -14   40.50    2.80
   3   5 -14   38.40    3.20
   3   5 -14   36.40    2.90
   3   5 -14   35.20    2.50
   3  -5 -14   34.10    2.70
   3  -5 -14   37.20    2.80
  -3   5 -14   38.70    2.70
  -3   5 -14   35.90    2.90
   3   5  14   39.20    2.60
   3  -5 -14   40.50    2.50
   4   5 -14   10.60    1.60
   4   5 -14   11.60    1.80
  -4  -5 -14   12.20    2.00
   4   5 -14    8.90    1.60
   4   5 -14   10.20    2.10
   4   5 -14    9.80    2.10
   4  -5 -14   12.00    1.80
   4  -5 -14   12.50    2.00
  -4   5 -14   12.50    2.00
   4   5  14   13.10    2.00
   5   5 -14  108.89    4.50
   5   5 -14  115.69    4.80
   5   5 -14  106.69    4.40
   5   5 -14  100.49    4.90
  -5  -5 -14  108.79    4.70
   5  -5 -14  106.69    4.50
  -5   5 -14  104.89    4.60
   5   5  14  101.89    4.30
   5  -5 -14  104.69    4.30
   6   5 -14   20.70    2.50
   6   5 -14   23.60    2.80
   6   5 -14   20.70    2.80
  -6  -5 -14   15.90    2.40
   6   5  14   19.10    2.30
   6  -5 -14   24.20    2.70
  -6   5 -14   21.70    2.50
   6  -5 -14   18.20    2.30
   7   5 -14   21.50    2.70
   7   5 -14   25.20    3.00
   7  -5 -14   27.70    2.90
   7   5  14   23.10    2.50
   0  -6 -14   63.39    3.00
   0   6 -14   65.39    3.40
   0   6 -14   65.29    3.80
   0  -6 -14   60.09    3.00
   0   6  14   57.49    3.00
   0   6 -14   57.69    3.10
   1   6 -14   67.29    3.90
   1   6 -14   66.49    3.50
  -1  -6 -14   69.19    3.40
  -1   6  14   68.99    3.20
   1   6 -14   75.19    3.40
   1  -6 -14   66.69    3.10
  -1   6 -14   74.69    3.40
   1   6  14   68.89    3.40
  -1   6 -14   71.99    4.10
  -1   6 -14   63.89    3.50
   1  -6 -14   69.99    3.10
   1  -6 -14   73.79    3.30
   1  -6 -14   72.59    3.60
  -2   6  14   58.19    2.80
   2   6 -14   66.69    3.50
   2   6 -14   73.39    4.00
  -2  -6 -14   62.39    3.30
   2   6 -14   62.29    3.20
   2   6  14   62.49    3.20
  -2   6 -14   60.19    3.80
   2  -6 -14   62.29    3.10
   2  -6 -14   60.59    3.00
  -2   6 -14   58.39    3.50
   2  -6 -14   66.39    3.40
  -2   6 -14   58.59    3.30
   2  -6 -14   62.49    3.40
   3   6 -14   19.50    2.20
   3   6 -14   18.50    2.10
  -3  -6 -14   19.30    2.20
   3   6 -14   27.00    2.80
   3   6 -14   14.20    2.40
  -3   6 -14   23.90    2.70
  -3   6 -14   20.90    2.50
  -3   6 -14   17.90    2.20
   3   6  14   21.20    2.20
   3  -6 -14   22.00    2.20
   3  -6 -14   22.90    2.30
   4   6 -14   24.50    2.50
   4   6 -14   25.50    2.80
   4   6 -14   27.30    2.90
   4   6 -14   28.40    2.40
  -4  -6 -14   28.10    2.60
   4  -6 -14   25.00    2.50
   4  -6 -14   25.90    2.50
   4   6  14   25.60    2.50
  -4   6 -14   25.40    2.70
  -4   6 -14   30.40    3.20
   5   6 -14   51.19    3.90
   5   6 -14   52.09    3.50
  -5  -6 -14   49.80    3.30
   5   6 -14   53.59    3.30
   5   6 -14   48.30    3.30
   5  -6 -14   44.00    3.10
   5   6  14   48.60    3.10
   5  -6 -14   46.50    3.10
  -5   6 -14   52.39    3.40
   6   6 -14   19.50    2.60
   6   6 -14   18.90    2.40
   6   6 -14   13.00    2.40
  -6  -6 -14   19.20    2.60
   6   6 -14   14.80    2.30
   6  -6 -14   18.00    2.20
  -6   6 -14   24.00    2.70
   6  -6 -14   18.00    2.40
   6   6  14   18.00    2.30
   0  -7 -14   91.69    3.70
   0   7 -14   87.19    4.50
   0  -7 -14   87.69    3.80
   0   7 -14   80.99    3.80
   0   7  14   89.09    3.70
   0   7 -14   90.29    4.00
  -1   7  14   17.80    2.00
   1  -7  14   15.30    1.70
   1   7 -14   12.40    1.90
   1   7 -14   16.80    2.50
   1   7 -14   16.00    2.00
  -1  -7 -14   15.80    2.00
   1  -7 -14   16.00    2.20
   1  -7 -14   15.70    1.80
   1  -7 -14   15.90    1.80
  -1   7 -14   19.70    2.70
   1  -7 -14   13.40    1.80
  -1   7 -14   14.90    1.90
   1   7  14   10.70    1.70
  -1   7 -14   12.30    1.90
  -2  -7 -14   45.70    3.00
   2   7 -14   49.99    3.10
   2   7 -14   48.10    3.70
  -2   7  14   44.10    2.60
   2   7 -14   46.00    3.10
   2  -7 -14   44.10    3.80
  -2   7 -14   51.89    3.20
  -2   7 -14   52.59    4.30
  -2   7 -14   48.10    3.50
   2  -7 -14   47.70    2.80
   2  -7 -14   49.30    4.70
   2   7  14   50.89    3.10
   2  -7 -14   47.10    2.80
   2  -7 -14   48.40    2.80
   3   7 -14   59.79    3.90
   3   7 -14   68.89    3.80
   3   7 -14   63.59    3.60
  -3  -7 -14   68.19    3.60
   3  -7 -14   70.29    3.40
   3   7  14   67.69    3.50
  -3   7 -14   68.49    4.10
  -3   7 -14   70.89    3.80
   3  -7 -14   69.49    3.40
   4   7 -14   31.20    2.60
   4   7 -14   25.20    2.60
   4   7 -14   29.50    3.20
  -4  -7 -14   30.00    2.80
   4   7 -14   30.90    3.00
   4  -7 -14   29.20    2.60
   4  -7 -14   28.40    2.50
   4   7  14   21.70    2.30
  -4   7 -14   29.60    3.10
  -4   7 -14   29.80    2.90
   5   7 -14   61.49    3.60
   5   7 -14   60.39    4.20
   5   7 -14   66.49    3.90
   5   7 -14   60.69    3.60
  -5  -7 -14   60.79    3.70
  -5   7 -14   68.49    4.00
   5   7  14   64.39    3.70
   5  -7 -14   62.19    3.60
   5  -7 -14   61.39    3.40
  -5   7 -14   59.59    3.70
   6   7 -14   81.49    4.10
   6   7 -14   91.49    4.90
   6   7 -14   82.79    4.40
   6   7 -14   72.19    4.00
   6   7  14   78.89    4.10
   6  -7 -14   73.99    4.30
   0   8 -14    1.00    1.60
   0  -8  14    0.70    0.90
   0  -8 -14    2.10    1.10
   0   8 -14    0.60    1.00
   0   8  14    1.40    1.20
   0  -8 -14    1.90    1.10
   1   8 -14    8.20    1.60
  -1  -8 -14    8.50    1.60
  -1   8  14    7.70    1.50
   1   8 -14    6.50    2.00
   1  -8  14    6.90    1.20
   1   8  14    6.70    1.60
   1  -8 -14   11.60    1.70
  -1   8 -14    7.30    1.60
  -1   8 -14    8.50    2.00
   1  -8 -14   10.30    1.60
   2   8 -14   15.40    2.10
   2   8 -14   18.30    2.70
  -2   8  14   15.60    1.80
  -2  -8 -14   21.00    2.40
   2   8  14   16.80    2.20
   2  -8 -14   20.00    2.20
   2  -8 -14   22.10    2.10
   2  -8 -14   23.80    2.20
  -2   8 -14   19.30    2.60
  -2   8 -14   20.20    2.30
  -3  -8 -14    2.20    1.40
   3   8 -14    1.60    1.20
   3   8 -14    1.50    1.40
   3   8 -14   -1.00    1.60
   3  -8 -14    2.10    1.30
   3  -8 -14    2.30    1.20
   3  -8 -14   -2.30    0.90
  -3   8 -14   -0.60    1.10
  -3   8 -14    0.80    1.50
   3   8  14    0.40    1.20
   4   8 -14    5.20    1.80
   4   8 -14    6.30    1.70
  -4  -8 -14    9.70    1.80
   4   8 -14    4.50    2.10
  -4   8 -14    6.80    1.80
  -4   8 -14    6.20    2.00
   4   8  14    6.70    1.60
   4  -8 -14    7.60    1.70
   4  -8 -14    5.70    1.60
   5   8 -14   65.39    3.70
   5   8 -14   65.09    3.60
  -5  -8 -14   63.69    4.10
   5   8 -14   64.99    3.80
   5   8 -14   72.89    4.50
   5  -8 -14   67.59    3.80
  -5   8 -14   68.29    4.00
   5   8  14   70.39    3.80
   5  -8 -14   66.19    3.70
   0  -9 -14   21.20    2.30
   0   9  14   18.60    2.10
   0   9 -14   21.00    2.40
   0  -9 -14   22.30    2.40
   0   9 -14   18.70    2.60
   0  -9  14   18.00    1.90
  -1  -9 -14   16.10    2.00
  -1   9  14   15.00    1.90
   1   9 -14   15.40    2.10
  -1  -9 -14   13.30    2.00
   1   9 -14   16.70    2.60
   1  -9  14   13.30    1.70
  -1   9 -14   13.90    2.10
   1  -9 -14   15.40    2.00
  -1  -9  14   14.70    1.90
  -1   9 -14   10.80    2.30
   1  -9 -14   16.50    2.00
   1   9  14   12.40    1.90
  -2   9  14   11.50    1.70
   2   9 -14   10.70    1.80
   2   9 -14   14.60    2.50
  -2  -9 -14   11.60    1.90
   2   9  14    9.50    1.80
   2  -9 -14   12.90    1.90
  -2   9 -14   11.90    2.00
   2  -9 -14   11.50    1.70
  -2   9 -14   11.00    2.30
   2  -9 -14   12.00    1.80
   3   9 -14   53.39    3.30
  -3  -9 -14   47.10    3.30
   3   9 -14   56.39    3.50
   3   9 -14   53.39    3.80
   3  -9  14   51.49    3.20
   3  -9 -14   54.49    3.20
   3   9  14   51.59    3.30
   3  -9 -14   59.89    3.30
   3  -9 -14   54.19    3.30
  -3   9 -14   56.89    3.50
  -3   9 -14   48.60    3.70
  -4  -9 -14   33.90    3.00
   4   9 -14   29.80    3.40
   4   9 -14   29.80    2.80
   4  -9  14   27.70    2.90
   4   9 -14   34.60    3.10
  -4   9 -14   31.00    2.90
   4  -9 -14   36.40    2.80
   4  -9 -14   36.10    2.80
   4  -9 -14   27.20    2.70
   4   9  14   33.30    2.80
   5   9 -14   46.00    4.00
   5   9 -14   32.00    3.10
   5   9 -14   34.40    3.60
   5  -9 -14   38.20    3.10
   5   9  14   29.40    2.90
   0  10 -14   15.70    2.20
   0  10  14   11.90    1.90
   0 -10 -14   15.70    2.10
   0 -10  14   14.10    1.90
   0 -10 -14   14.20    2.00
   0  10 -14   14.50    2.40
  -1 -10 -14   47.10    3.30
  -1 -10 -14   48.20    3.10
   1 -10  14   52.49    2.80
   1  10 -14   59.49    3.40
  -1  10  14   50.39    3.00
   1  10 -14   55.99    3.90
  -1 -10  14   51.99    3.00
   1 -10 -14   65.49    3.40
   1  10  14   58.29    3.30
  -1  10 -14   51.19    3.80
   1 -10 -14   52.49    3.30
  -1  10 -14   55.99    3.40
  -2 -10 -14   34.90    2.80
  -2 -10 -14   29.00    2.90
   2  10 -14   33.70    3.30
   2  10 -14   33.40    2.90
   2  10 -14   37.50    3.10
   2 -10 -14   33.40    2.70
   2 -10 -14   31.70    2.60
  -2  10 -14   30.50    2.80
  -2  10 -14   30.60    3.10
  -2 -10  14   34.50    2.70
   2 -10 -14   33.90    2.70
   2  10  14   33.90    3.00
   3  10 -14   16.40    2.30
  -3 -10 -14   13.50    2.10
  -3 -10 -14   18.00    2.30
   3  10 -14   15.30    2.20
   3  10 -14   12.50    2.40
   3  10  14   14.10    2.20
  -3  10 -14   13.40    2.10
   3 -10 -14   15.80    2.20
   3 -10 -14   14.60    2.10
   3 -10 -14   15.40    2.20
   4  10 -14   36.90    3.60
   4  10 -14   48.90    4.10
   4 -10  14   39.20    3.10
   4  10  14   44.10    3.30
   4 -10 -14   39.30    3.10
   4 -10 -14   44.30    3.20
   0  11  14    0.90    1.20
   0 -11 -14    2.60    1.40
   0 -11  14    0.30    1.10
   0  11 -14    0.60    1.30
   0  11 -14   -2.90    1.40
   0 -11 -14   -0.40    1.20
  -1  11  14   11.80    1.80
   1 -11  14   15.60    1.90
   1  11 -14   11.90    2.40
   1  11 -14   14.50    2.10
  -1 -11 -14   17.20    2.20
  -1 -11 -14   12.20    2.10
   1 -11 -14   16.40    2.30
  -1  11 -14   12.90    2.00
  -1 -11  14   13.30    2.00
  -1  11 -14   12.60    2.30
   1  11  14   11.00    2.00
   1 -11 -14   12.90    2.10
   2  11 -14   82.99    4.60
  -2 -11 -14   97.19    6.80
  -2 -11 -14   87.79    4.20
  -2  11 -14   88.29    4.20
   2  11  14   88.39    4.20
   2 -11 -14   85.99    4.20
  -2 -11  14   87.89    4.10
   2 -11 -14   84.79    4.20
   3  11 -14    7.10    2.30
   3  11  14    7.70    1.90
   3 -11 -14    8.70    1.70
   0 -12  14   20.90    2.40
   0  12 -14   26.30    3.60
   0   0 -15    3.20    1.30
   0   0 -15    0.30    1.30
   1   0 -15   20.90    2.60
  -1   0 -15   21.90    2.30
   1   0 -15   26.70    2.40
  -2   0 -15    0.20    1.20
   2   0 -15    0.70    1.10
   2   0 -15   -0.30    1.40
   3   0 -15   -0.40    1.40
   3   0 -15   -0.40    0.90
   3   0 -15   -0.40    1.50
  -3   0 -15    0.60    1.20
  -4   0 -15   -0.10    0.80
   4   0 -15    2.40    1.70
   4   0 -15   -1.40    1.40
   4   0 -15   -1.90    0.90
  -4   0 -15    1.10    1.20
   5   0 -15   17.40    2.20
   5   0 -15   18.40    2.60
  -5   0 -15   16.70    2.20
   5   0 -15   17.40    2.50
   6   0 -15    6.40    1.80
   6   0 -15    3.60    1.80
   6   0 -15    7.10    1.70
  -6   0 -15    6.40    1.60
   7   0 -15   82.89    4.40
   7   0 -15   94.69    4.60
   0   1 -15    9.80    2.10
   0  -1 -15    9.60    1.90
   0  -1 -15   10.00    1.70
   0   1 -15    8.80    1.70
   1   1 -15  132.49    5.30
   1   1 -15  144.19    5.00
  -1  -1 -15  136.89    4.80
   1  -1 -15  134.19    4.70
   1  -1 -15  131.99    5.40
  -1   1 -15  139.49    4.90
   2   1 -15   21.10    2.70
  -2  -1 -15   21.30    2.20
   2   1 -15   18.10    2.10
   2  -1 -15   23.10    2.80
  -2   1 -15   21.00    2.30
   2  -1 -15   18.20    2.20
  -2   1 -15   22.80    1.70
  -3  -1 -15   28.20    2.70
   3   1 -15   30.30    3.20
   3   1 -15   23.00    2.60
   3   1 -15   27.80    2.50
   3  -1 -15   29.60    3.10
  -3   1 -15   30.00    2.00
   3  -1 -15   29.50    2.40
   3  -1 -15   28.30    3.00
  -3   1 -15   30.50    2.60
   3  -1 -15   30.30    2.70
   4   1 -15   29.90    3.10
   4   1 -15   34.70    2.50
   4   1 -15   28.50    2.90
  -4  -1 -15   29.10    2.60
  -4   1 -15   28.70    2.20
   4  -1 -15   33.00    3.10
   4  -1 -15   26.50    2.80
  -4   1 -15   31.90    2.70
   4  -1 -15   30.10    2.40
  -5  -1 -15   18.60    2.20
   5   1 -15   15.20    2.10
   5   1 -15   16.50    2.50
   5   1 -15   12.40    2.20
  -5   1 -15   14.20    2.10
   5  -1 -15   13.20    2.30
   5  -1 -15   14.60    2.40
   5  -1 -15   16.40    2.00
   6   1 -15   31.30    3.20
  -6  -1 -15   37.50    2.80
   6   1 -15   24.30    2.80
   6   1 -15   29.80    2.70
   6  -1 -15   31.80    2.70
   6  -1 -15   27.40    3.00
   6  -1 -15   23.40    2.70
  -6   1 -15   35.40    2.90
   7   1 -15   29.00    3.10
  -7  -1 -15   33.30    4.30
   7   1 -15   28.50    3.10
   7  -1 -15   27.40    2.90
   0   2 -15   17.90    1.60
   0   2 -15   17.40    2.50
   0  -2 -15   20.40    2.20
   0   2 -15   17.10    2.10
  -1  -2 -15   25.20    2.40
   1   2 -15   22.50    2.70
   1   2 -15   20.90    2.30
   1  -2 -15   19.50    2.10
  -1   2 -15   19.20    1.70
   1  -2 -15   19.90    2.50
  -1   2 -15   21.00    2.70
  -1   2 -15   17.80    2.20
  -2  -2 -15   38.20    2.70
   2   2 -15   36.90    3.10
   2   2 -15   39.30    2.80
  -2   2 -15   35.40    2.20
   2  -2 -15   36.40    2.60
  -2   2 -15   39.30    2.80
   2  -2 -15   34.90    3.10
   3   2 -15    9.90    2.20
   3   2 -15    7.30    1.70
  -3  -2 -15    7.90    1.60
   3   2 -15    6.80    1.90
   3  -2 -15    6.50    1.70
  -3   2 -15    8.10    1.40
  -3   2 -15    7.40    1.70
   3  -2 -15    8.00    1.90
   3  -2 -15    9.30    1.50
   4   2 -15   35.40    3.50
   4   2 -15   38.50    3.50
  -4  -2 -15   38.10    2.80
   4   2 -15   35.00    2.50
  -4   2 -15   36.80    2.50
  -4   2 -15   35.90    2.90
   4  -2 -15   41.30    2.80
   4  -2 -15   39.80    3.10
   4  -2 -15   38.00    3.10
  -5  -2 -15    3.40    1.40
   5   2 -15    1.40    1.30
   5   2 -15    0.70    1.70
   5   2 -15    5.40    1.90
   5  -2 -15    3.70    1.80
   5  -2 -15    1.70    1.30
   5  -2 -15    3.40    1.40
  -5   2 -15    4.70    1.60
  -6  -2 -15    7.80    1.70
   6   2 -15    9.90    2.20
   6   2 -15    9.50    1.90
   6   2 -15    8.40    2.30
  -6   2 -15   13.40    2.10
   6  -2 -15    9.70    2.10
   6  -2 -15    8.50    1.80
   0   3 -15    3.10    1.70
   0   3 -15   -1.30    1.10
   0   3 -15    1.80    0.80
   0  -3 -15    1.70    1.10
   1   3 -15   17.30    1.70
   1   3 -15   22.60    2.50
  -1  -3 -15   19.30    2.10
   1   3 -15   14.60    2.40
  -1   3 -15   21.30    2.70
  -1   3 -15   16.60    2.10
  -1   3 -15   19.00    1.80
   1  -3 -15   16.80    2.00
   1  -3 -15   17.30    2.40
  -2  -3 -15   98.79    3.90
   2   3 -15   95.29    3.30
   2   3 -15   93.69    4.70
   2   3 -15  100.79    4.30
   2   3  15  102.89    4.10
   2  -3 -15   95.79    4.40
   2  -3 -15   99.29    4.00
  -2   3 -15   93.89    4.20
  -2   3 -15   97.89    3.60
   3   3 -15   38.70    2.90
  -3  -3 -15   40.50    2.70
   3   3 -15   42.60    3.40
   3   3 -15   37.90    3.20
   3   3 -15   37.50    2.20
   3  -3 -15   39.90    2.60
   3  -3 -15   36.40    3.20
  -3   3 -15   37.60    2.50
   3   3  15   40.20    2.80
   3  -3 -15   44.50    3.20
  -3   3 -15   38.50    2.90
   4   3 -15   50.29    3.30
   4   3 -15   58.39    3.70
   4   3 -15   52.99    3.20
   4   3 -15   50.19    3.10
  -4  -3 -15   54.99    3.20
   4   3 -15   48.00    3.80
   4  -3 -15   47.20    2.90
   4  -3 -15   52.49    3.40
   4   3  15   53.29    3.20
   4  -3 -15   50.59    3.40
  -4   3 -15   52.49    3.40
  -5  -3 -15   20.20    2.20
   5   3 -15   17.00    2.60
   5   3 -15   22.10    2.30
   5   3 -15   16.00    2.40
  -5   3 -15   22.70    2.60
   5   3  15   23.10    2.40
   5  -3 -15   22.80    2.40
   5  -3 -15   18.20    2.40
   6   3 -15    3.10    1.40
   6   3 -15    3.20    1.60
  -6  -3 -15    6.50    1.80
   6   3 -15    3.60    2.00
  -6   3 -15    3.80    1.50
   6  -3 -15    0.60    1.20
   6  -3 -15    4.10    1.80
   0   4 -15    0.60    1.20
   0  -4 -15   -0.10    1.10
   0   4  15    0.40    1.10
   0   4 -15    0.10    0.80
   0   4 -15    1.60    1.60
   1   4 -15   32.30    3.00
   1   4 -15   25.00    2.10
  -1  -4 -15   30.70    2.40
   1   4 -15   30.50    2.70
  -1   4 -15   29.90    2.70
   1  -4 -15   31.50    2.40
  -1   4 -15   29.30    3.00
  -1   4 -15   34.00    2.40
   1  -4 -15   35.40    2.90
   1   4  15   31.60    2.40
   2   4 -15   20.80    1.90
   2   4 -15   16.40    2.50
   2   4 -15   19.00    2.30
  -2  -4 -15   19.00    2.10
  -2   4 -15   17.90    2.30
   2  -4 -15   21.90    2.50
  -2   4 -15   20.70    2.10
   2   4  15   16.60    2.10
  -2   4 -15   19.80    2.60
   2  -4 -15   23.20    2.30
   2  -4 -15   19.10    2.40
   3   4 -15   20.50    2.40
   3   4 -15   19.00    2.70
  -3  -4 -15   22.40    2.30
   3   4 -15   19.70    2.60
   3   4 -15   17.90    1.90
  -3   4 -15   16.90    1.90
  -3   4 -15   17.40    2.30
   3   4  15   17.10    2.00
   3  -4 -15   19.20    2.10
   3  -4 -15   21.20    2.50
   3  -4 -15   22.90    2.60
   4   4 -15   14.30    2.60
   4   4 -15   16.70    2.70
   4   4 -15   13.60    2.10
   4   4 -15   17.90    2.50
   4   4  15   14.70    2.00
   4  -4 -15   16.30    2.00
  -4   4 -15   16.00    2.30
   4  -4 -15   16.00    2.30
  -5  -4 -15    9.90    2.00
   5   4 -15   11.30    2.40
   5   4 -15   10.40    1.90
   5   4 -15   12.00    1.90
   5   4 -15   13.90    2.40
  -5   4 -15   12.90    2.10
   5  -4 -15   13.90    2.20
   5   4  15   13.20    2.10
   5  -4 -15   12.10    1.90
   6   4 -15   26.20    3.10
   6   4 -15   29.90    3.10
   6   4 -15   34.10    2.80
  -6  -4 -15   26.00    4.60
   6   4  15   25.40    2.60
  -6   4 -15   34.20    4.60
   6  -4 -15   28.20    2.80
   6  -4 -15   24.50    2.70
   0   5 -15    1.20    1.20
   0   5 -15    1.20    0.80
   0   5  15    0.50    1.00
   0   5 -15    2.30    1.60
   0  -5 -15   -1.10    0.90
  -1  -5 -15   31.50    2.30
   1   5 -15   27.60    3.00
   1   5 -15   28.90    2.70
   1   5 -15   34.90    2.40
  -1   5  15   30.60    2.30
  -1   5 -15   28.00    3.10
  -1   5 -15   29.60    2.30
   1   5  15   29.00    2.50
  -1   5 -15   31.00    2.80
   1  -5 -15   30.30    2.70
   1  -5 -15   30.40    2.30
   2   5 -15   25.60    2.20
   2   5 -15   29.60    2.70
   2   5 -15   26.90    3.00
   2  -5 -15   23.10    2.50
   2  -5 -15   25.40    2.70
  -2   5 -15   25.50    2.30
  -2   5 -15   28.40    3.10
   2  -5 -15   25.40    2.30
  -2   5 -15   26.60    2.70
   2   5  15   28.50    2.60
   3   5 -15   22.40    2.80
  -3  -5 -15   23.30    2.60
   3   5 -15   24.80    2.60
   3   5 -15   21.20    2.50
   3   5 -15   17.80    2.60
  -3   5 -15   20.50    2.40
   3   5  15   19.50    2.40
   3  -5 -15   23.60    2.10
  -3   5 -15   18.40    2.70
   3  -5 -15   21.20    2.40
   4   5 -15   38.20    3.20
   4   5 -15   37.00    2.90
   4   5 -15   38.60    3.60
  -4  -5 -15   37.20    3.00
   4  -5 -15   35.30    2.70
   4   5  15   40.10    2.90
   4  -5 -15   39.10    3.10
  -4   5 -15   35.90    3.10
   5   5 -15   17.30    2.30
   5   5 -15   14.30    2.00
  -5  -5 -15   12.20    2.20
   5   5 -15   14.20    2.40
   5   5 -15   15.40    2.60
   5   5  15   13.30    2.10
   5  -5 -15   13.70    2.20
  -5   5 -15   15.10    2.20
   5  -5 -15   19.70    2.30
   6   5 -15    2.70    1.50
   6   5 -15    3.50    1.80
   6   5 -15    3.00    1.90
   6   5  15    3.90    1.60
   6  -5 -15    2.10    1.60
   6  -5 -15    3.90    2.30
   0   6 -15    1.90    1.50
   0  -6 -15    2.70    1.10
   0   6 -15    1.10    1.30
   0   6  15    0.50    1.10
   0   6 -15   -2.10    0.80
   1   6 -15   46.20    3.80
   1   6 -15   49.20    3.20
   1   6 -15   44.50    2.90
  -1  -6 -15   51.79    3.00
  -1   6  15   49.10    2.80
  -1   6 -15   48.00    3.90
   1  -6 -15   54.59    3.30
   1  -6 -15   53.39    3.20
   1   6  15   47.70    3.00
   1  -6 -15   56.99    3.00
  -1   6 -15   50.89    3.30
  -1   6 -15   47.00    3.50
   2   6 -15   35.30    2.90
  -2  -6 -15   40.60    2.90
   2   6 -15   38.50    3.50
   2   6  15   33.10    2.70
   2  -6 -15   37.70    2.60
   2  -6 -15   36.00    2.80
  -2   6 -15   35.00    3.40
  -2   6 -15   35.90    3.00
   3   6 -15   32.70    3.10
   3   6 -15   36.00    3.60
   3   6 -15   30.50    2.80
  -3  -6 -15   29.50    2.60
   3  -6 -15   33.60    2.60
   3  -6 -15   32.50    2.80
  -3   6 -15   37.60    3.10
   3   6  15   33.80    2.80
  -3   6 -15   31.10    3.30
  -4  -6 -15   57.19    3.60
   4   6 -15   51.89    3.60
   4   6 -15   52.69    3.40
   4   6 -15   55.19    4.10
   4  -6 -15   53.89    3.30
  -4   6 -15   61.29    4.00
   4   6  15   56.69    3.30
   4  -6 -15   52.49    3.20
  -4   6 -15   47.40    3.40
  -5  -6 -15   17.50    2.50
   5   6 -15   17.50    2.80
   5   6 -15   13.80    3.10
   5   6 -15   16.00    2.40
   5   6 -15   13.70    2.40
   5  -6 -15   15.40    2.30
   5   6  15   18.00    2.40
   5  -6 -15   17.20    2.40
  -5   6 -15   23.00    2.80
   0   7  15    3.10    1.20
   0   7 -15    2.10    1.30
   0   7 -15    4.60    1.90
   0  -7 -15    4.10    1.30
   0  -7 -15    2.70    1.20
   1   7 -15   50.59    3.90
  -1   7  15   44.40    2.80
   1   7 -15   42.50    3.10
  -1  -7 -15   51.69    3.10
  -1   7 -15   51.79    3.30
   1   7  15   41.50    2.90
  -1   7 -15   51.09    3.80
   2   7 -15    2.60    1.40
  -2   7  15    2.40    1.10
  -2  -7 -15    7.40    1.70
   2   7 -15    4.40    2.00
   2  -7 -15    3.70    1.30
  -2   7 -15    4.30    1.80
  -2   7 -15    8.00    1.80
   2   7  15    7.00    1.70
  -3  -7 -15   20.10    2.50
   3   7 -15   17.50    2.80
   3   7 -15   22.90    2.70
   3   7 -15   21.10    2.50
   3  -7 -15   25.40    2.40
  -3   7 -15   17.70    2.80
   3  -7 -15   27.20    2.90
  -3   7 -15   21.50    2.60
   3   7  15   19.20    2.40
  -4  -7 -15   37.40    3.10
   4   7 -15   27.50    3.30
   4   7 -15   29.30    3.10
   4   7 -15   27.20    2.80
  -4   7 -15   30.70    3.20
  -4   7 -15   38.00    3.10
   4  -7 -15   26.70    2.50
   4   7  15   27.30    2.70
   5   7 -15   25.20    3.20
   5   7 -15   26.80    2.80
   5   7 -15   20.50    2.70
   5   7  15   23.30    2.70
   5  -7 -15   26.30    2.80
  -5   7 -15   27.70    3.10
   0   8 -15   54.09    3.40
   0   8  15   55.09    3.20
   0  -8 -15   53.49    3.10
   0   8 -15   52.49    3.90
   0  -8 -15   57.19    3.30
  -1  -8 -15   92.09    4.20
  -1   8  15   80.99    3.60
   1   8 -15   92.19    4.80
   1   8 -15   88.89    4.20
  -1  -8 -15   92.89    4.10
  -1   8 -15   85.19    4.20
  -1   8 -15   86.99    4.70
   1   8  15   89.09    4.00
   2   8 -15   31.60    2.80
  -2  -8 -15   37.10    2.90
  -2   8  15   37.10    2.50
   2   8 -15   34.50    3.40
   2   8  15   33.90    3.00
  -2   8 -15   33.00    2.90
  -2   8 -15   35.20    3.50
   3   8 -15   35.40    2.90
  -3  -8 -15   35.90    3.00
   3   8 -15   41.20    3.90
   3   8 -15   37.50    3.30
   3  -8 -15   42.70    2.90
  -3   8 -15   45.40    3.30
  -3   8 -15   40.50    3.50
   3  -8 -15   40.40    3.00
   3   8  15   35.10    3.10
   4   8 -15    5.60    2.20
   4   8 -15    0.00    1.60
   4   8 -15    3.20    1.50
  -4  -8 -15    2.40    2.00
  -4   8 -15   -0.30    2.10
   4   8  15    1.30    1.30
   4  -8 -15    3.30    1.40
   4  -8 -15    2.10    1.40
  -4   8 -15   -0.30    1.50
   0   9  15   43.60    2.90
   0   9 -15   45.70    3.30
   0  -9 -15   42.20    3.00
   0   9 -15   39.40    3.50
  -1  -9 -15   23.90    2.50
   1   9 -15   24.80    2.70
  -1   9  15   20.50    2.30
  -1  -9 -15   23.60    2.50
   1   9 -15   20.60    2.80
   1   9  15   23.60    2.50
  -1   9 -15   21.90    2.60
  -1   9 -15   24.10    3.00
  -2  -9 -15   43.60    3.10
   2   9 -15   28.90    3.20
  -2  -9 -15   35.20    3.00
   2   9 -15   32.30    2.80
  -2   9  15   31.10    3.00
   2   9  15   33.60    3.00
  -2   9 -15   31.20    2.90
  -2   9 -15   32.80    3.40
   3   9 -15   37.30    3.00
   3   9 -15   29.60    3.30
   3   9 -15   30.80    3.10
  -3  -9 -15   31.20    3.20
   3  -9 -15   36.20    2.80
  -3   9 -15   32.10    3.40
   3   9  15   34.50    3.10
   3  -9 -15   31.50    2.70
  -3   9 -15   34.70    3.40
   0 -10 -15   36.40    3.10
   0 -10  15   40.70    2.80
   0  10 -15   40.20    3.60
   0 -10 -15   50.09    3.30
   0  10 -15   38.60    3.20
   0  10  15   39.80    2.90
   1  10 -15    5.30    1.60
   1  10 -15    2.60    1.90
  -1  10  15    4.20    1.40
  -1 -10 -15    0.90    1.40
  -1 -10 -15    6.80    1.60
  -1  10 -15    1.30    1.70
   1  10  15    4.30    1.50
  -1  10 -15    4.80    1.60
  -2 -10 -15   15.50    2.60
   2  10 -15    9.60    2.00
   2  10 -15    9.40    2.40
   2  10 -15   14.20    2.30
  -2  10 -15   12.70    2.50
   2  10  15   12.10    2.00
  -2  10 -15    5.60    2.00
   0   0 -16  230.68    7.50
   0   0 -16  238.38    6.80
  -1   0 -16    9.20    1.70
   1   0 -16    8.80    1.90
   1   0 -16   12.70    2.00
   2   0 -16    3.40    1.60
  -2   0 -16    2.30    1.30
   2   0 -16    3.90    1.40
  -3   0 -16  387.86    9.30
   3   0 -16  377.56    9.60
   3   0 -16  363.66    9.20
   3   0 -16  381.86   10.00
   4   0 -16    1.80    1.30
  -4   0 -16    1.70    1.30
   4   0 -16    2.40    1.50
   4   0 -16   -0.80    1.50
   5   0 -16   21.20    2.80
   5   0 -16   17.80    2.70
   5   0 -16   24.80    2.50
  -5   0 -16   17.40    2.30
   6   0 -16    0.70    1.60
   6   0 -16   -0.80    1.70
   6   0 -16    5.10    1.60
   0  -1 -16   12.40    1.90
   0   1 -16   13.20    2.40
   0  -1 -16   13.90    2.40
   0   1 -16   12.70    2.10
   1   1 -16    7.50    1.70
  -1  -1 -16    7.30    1.60
   1   1 -16    5.90    1.90
  -1   1 -16    6.40    1.90
  -1   1 -16    5.90    1.60
   1  -1 -16    5.10    1.50
   1  -1 -16    6.90    1.90
   2   1 -16  155.58    6.00
   2   1 -16  148.39    5.40
  -2  -1 -16  144.49    5.20
   2  -1 -16  165.98    5.50
   2  -1 -16  161.08    6.10
  -2   1 -16  153.08    5.40
   3   1 -16   16.90    2.60
   3   1 -16   15.10    2.20
   3   1 -16   16.00    2.40
  -3  -1 -16   17.50    2.30
   3  -1 -16   21.00    2.70
  -3   1 -16   19.00    2.30
   3  -1 -16   22.70    2.50
   3  -1 -16   16.80    2.60
  -4  -1 -16   70.19    3.70
   4   1 -16   74.99    4.00
   4   1 -16   78.99    4.30
   4   1 -16   70.59    4.40
  -4   1 -16   83.19    4.10
   4  -1 -16   68.39    4.20
   4  -1 -16   79.49    4.20
   5   1 -16   16.60    2.50
   5   1 -16   17.40    2.70
  -5  -1 -16   18.20    2.30
   5   1 -16   20.70    2.50
   5  -1 -16   17.80    2.50
   5  -1 -16   22.00    2.50
  -5   1 -16   21.50    2.60
   5  -1 -16   20.50    2.70
   6   1 -16   10.80    2.50
   6   1 -16    8.00    2.10
   6   1 -16   12.40    2.00
  -6  -1 -16   11.90    2.30
   6  -1 -16   11.60    2.10
   6  -1 -16    8.80    2.20
   6  -1 -16   10.40    2.30
   0   2 -16   39.80    3.00
   0  -2 -16   42.10    3.00
   0   2 -16   41.60    3.50
   0  -2 -16   44.10    3.30
  -1  -2 -16   15.20    2.10
   1   2 -16   20.50    2.70
   1   2 -16   18.60    2.30
   1  -2 -16   16.50    2.50
  -1   2 -16   22.00    2.60
  -1   2 -16   18.80    2.70
   1  -2 -16   18.90    2.20
   2   2 -16    2.20    1.30
   2   2 -16    1.50    1.60
  -2  -2 -16    2.50    1.30
  -2   2 -16    3.20    1.50
   2  -2 -16    2.00    1.70
   2  -2 -16    2.60    1.30
   3   2 -16   87.39    4.50
   3   2 -16   78.79    4.40
  -3  -2 -16   85.29    4.00
   3   2 -16   74.99    3.90
   3  -2 -16   79.69    4.00
   3  -2 -16   79.59    4.20
   3  -2 -16   83.89    4.40
  -3   2 -16   75.29    4.00
  -3   2 -16   83.89    4.10
   4   2 -16   41.70    3.40
  -4  -2 -16   37.80    2.90
   4   2 -16   39.00    3.10
   4   2 -16   38.70    3.70
   4  -2 -16   36.80    3.20
  -4   2 -16   35.70    3.00
   4  -2 -16   37.90    3.30
   5   2 -16   12.20    2.40
   5   2 -16   11.10    2.30
  -5  -2 -16   12.60    2.10
   5  -2 -16   15.40    2.00
  -5   2 -16   10.50    2.00
   5  -2 -16   12.30    2.30
   5  -2 -16   12.10    2.30
   6   2 -16   13.10    2.50
   6   2 -16   14.50    2.40
   6   2 -16   18.00    2.70
   6  -2 -16   15.30    2.40
   0  -3 -16   31.00    3.20
   0   3 -16   32.30    3.40
   0   3 -16   33.10    3.10
   0  -3 -16   29.00    2.60
   1   3 -16   19.70    2.70
   1   3 -16   28.20    2.80
  -1  -3 -16   24.60    2.50
  -1   3 -16   24.90    3.00
   1  -3 -16   22.00    2.70
   1  -3 -16   25.90    2.50
  -1   3 -16   25.40    2.10
  -1   3 -16   27.90    2.80
   2   3 -16   49.60    3.30
  -2  -3 -16   49.70    3.00
   2   3 -16   51.29    3.80
  -2   3 -16   51.49    3.40
   2  -3 -16   47.80    3.60
   2  -3 -16   48.60    3.10
   2  -3 -16   53.69    3.50
  -2   3 -16   53.99    2.70
  -2   3 -16   54.99    4.00
   3   3 -16    1.70    1.70
   3   3 -16    3.40    1.50
   3   3 -16    1.00    1.50
  -3  -3 -16    0.50    1.20
   3  -3 -16    2.70    1.50
   3  -3 -16    1.50    1.60
   3  -3 -16    2.00    1.30
  -3   3 -16    2.70    1.40
  -4  -3 -16   48.20    3.00
   4   3 -16   43.40    3.80
   4   3 -16   45.90    3.60
   4   3 -16   39.70    3.10
   4  -3 -16   38.60    3.30
   4  -3 -16   51.39    4.50
   4  -3 -16   40.80    3.30
  -4   3 -16   39.30    3.20
   5   3 -16   -0.70    1.50
   5   3 -16    1.20    1.40
   5   3 -16    2.20    2.00
   5  -3 -16    1.80    1.40
  -5   3 -16   -0.30    1.20
   5  -3 -16   -0.30    1.50
   0  -4 -16    8.00    2.00
   0   4 -16    5.90    1.30
   0   4 -16    9.00    1.90
   0   4 -16    8.50    2.30
   0  -4 -16    6.70    1.60
   1   4 -16   26.40    3.20
   1   4 -16   28.30    2.10
   1   4 -16   23.70    2.70
  -1  -4 -16   24.60    2.30
  -1   4 -16   26.20    2.20
   1  -4 -16   32.00    3.20
   1  -4 -16   23.90    2.40
  -1   4 -16   26.50    3.10
  -1   4 -16   23.10    2.70
   2   4 -16   28.50    2.90
   2   4 -16   26.30    2.80
   2   4 -16   28.20    3.10
  -2  -4 -16   28.20    2.60
  -2   4 -16   25.10    2.80
  -2   4 -16   30.70    3.30
   2   4  16   32.20    2.70
   2  -4 -16   31.30    3.00
   2  -4 -16   34.40    3.30
   2  -4 -16   28.40    2.60
   3   4 -16   67.29    3.80
   3   4 -16   74.39    4.30
   3   4 -16   70.99    4.30
  -3   4 -16   75.49    4.40
   3  -4 -16   72.29    4.00
   3   4  16   75.99    3.70
  -3   4 -16   72.19    4.00
   3  -4 -16   73.99    3.80
   3  -4 -16   73.99    4.00
   4   4 -16    8.60    2.40
   4   4 -16    8.80    1.90
   4   4 -16   10.80    2.10
   4   4  16    5.50    1.60
   4  -4 -16   12.50    2.10
   4  -4 -16   12.10    2.20
  -4   4 -16    8.90    2.10
   5   4 -16   37.60    3.70
   5   4 -16   39.50    4.70
   5   4 -16   44.80    3.60
   5  -4 -16   36.90    3.10
   5  -4 -16   37.80    3.00
   5   4  16   40.70    3.10
   0   5  16    0.50    1.10
   0   5 -16    2.40    1.40
   0  -5 -16   -0.90    1.00
   0   5 -16    0.20    1.60
   1   5 -16   28.00    3.30
   1   5 -16   23.90    2.70
  -1  -5 -16   29.60    3.20
  -1   5 -16   23.90    3.00
   1   5  16   25.70    2.50
  -1   5 -16   23.00    2.60
   1  -5 -16   25.80    2.50
   1  -5 -16   23.80    2.80
   2   5 -16   59.09    3.60
   2   5 -16   56.99    4.20
   2   5  16   61.49    3.40
  -2   5 -16   59.79    4.00
   2  -5 -16   65.29    3.80
   2  -5 -16   54.99    3.20
   2  -5 -16   58.79    3.50
  -2   5 -16   63.49    3.80
   3   5 -16    8.60    2.00
   3   5 -16    8.80    2.10
  -3  -5 -16    9.80    1.80
   3   5 -16   11.60    2.40
   3   5  16    6.70    1.60
   3  -5 -16   11.30    1.90
  -3   5 -16   11.50    2.20
  -3   5 -16    9.50    1.90
   3  -5 -16   15.10    2.20
   4   5 -16   77.39    4.60
   4   5 -16   99.09    4.80
   4   5 -16   92.09    4.40
  -4  -5 -16   84.09    4.30
   4  -5 -16   82.19    4.10
  -4   5 -16   84.89    4.40
   4  -5 -16   86.29    4.10
  -4   5 -16   88.99    4.90
   4   5  16   78.89    3.90
   5   5 -16   47.50    4.00
   5   5 -16   44.80    3.70
   5   5  16   50.29    3.40
   5  -5 -16   48.50    3.30
   5  -5 -16   42.70    3.30
   0  -6 -16   42.00    2.80
   0   6 -16   49.00    3.40
   0   6  16   46.10    3.00
   0   6 -16   44.20    3.80
  -1  -6 -16   76.09    3.70
   1   6 -16   74.59    4.00
   1   6 -16   73.79    4.60
   1   6  16   68.79    3.60
  -1   6 -16   64.79    4.30
  -1   6 -16   69.69    4.00
   1  -6 -16   74.29    3.70
   1  -6 -16   73.99    4.20
  -2  -6 -16   16.90    2.20
   2   6 -16   18.00    2.80
   2   6 -16   19.00    2.40
   2   6  16   17.50    2.30
  -2   6 -16   21.40    2.60
   2  -6 -16   19.90    2.40
  -2   6 -16   15.80    2.60
   2  -6 -16   14.70    2.10
  -3  -6 -16    3.40    1.50
   3   6 -16    2.20    1.50
   3   6 -16    4.50    2.10
   3   6 -16    7.30    2.00
   3   6  16    4.50    1.50
  -3   6 -16    3.10    1.90
   3  -6 -16    5.10    1.50
  -3   6 -16    2.60    1.60
   3  -6 -16    4.60    1.70
   4   6 -16    3.30    1.50
   4   6 -16   -0.30    1.60
   4   6 -16    0.90    1.70
  -4  -6 -16    2.70    2.20
   4  -6 -16    1.50    1.30
  -4   6 -16    2.70    1.80
   4   6  16    4.60    1.60
   4  -6 -16   -0.20    1.50
   0   7 -16    0.70    1.80
   0   7  16   -0.70    1.10
   0  -7 -16    0.50    1.00
   0   7 -16    0.60    1.30
   1   7 -16   18.40    2.70
  -1   7  16   18.40    2.20
   1   7 -16   18.90    2.40
  -1  -7 -16   20.00    2.30
  -1   7 -16   16.10    2.70
   1   7  16   17.30    2.30
  -1   7 -16   19.80    2.50
   2   7 -16   -1.70    1.70
   2   7 -16   -0.50    1.20
  -2  -7 -16   -0.10    1.10
  -2   7 -16   -1.60    1.50
   2   7  16    0.70    1.30
  -2   7 -16    1.80    1.40
   3   7 -16   25.10    2.80
   3   7 -16   22.80    2.90
   3   7 -16   20.40    3.00
  -3  -7 -16   22.40    2.60
   3  -7 -16   24.00    2.50
  -3   7 -16   24.50    3.20
  -3   7 -16   26.60    3.10
   3   7  16   20.50    2.50
   4   7 -16   -1.10    1.90
   4   7 -16    5.80    2.00
   4   7  16    3.90    1.60
   4  -7 -16    0.20    1.30
  -4   7 -16   -0.30    1.60
   0   8 -16   77.49    4.70
   0   8 -16   73.09    4.00
   0   8  16   70.09    3.60
  -1   8  16   23.60    2.40
   1   8 -16   23.90    2.70
  -1  -8 -16   26.10    2.70
   1   8 -16   20.90    2.80
  -1  -8 -16   23.80    2.60
   1   8  16   20.20    2.40
  -1   8 -16   23.30    3.10
  -1   8 -16   19.10    2.50
  -2  -8 -16    4.30    1.60
  -2   8  16    5.30    1.50
   2   8 -16    3.90    2.00
   2   8 -16    1.90    1.40
   2   8  16    4.60    1.60
  -2   8 -16    5.40    2.10
  -2   8 -16    4.60    1.60
   3   8 -16   15.20    2.50
   3   8 -16   13.40    2.70
   3  -8 -16   15.00    2.10
  -3   8 -16   14.10    2.70
   3   8  16   16.10    2.40
   0   9  16   99.09    4.40
   0   9 -16   96.59    5.10
   0   9 -16  115.09    6.40
  -1  -9 -16    5.60    1.60
   1   9 -16    4.40    2.10
  -1   9  16    5.50    1.50
   1   9 -16    8.60    2.40
  -1  -9 -16    5.30    1.60
  -1   9 -16    2.10    1.90
   1   9  16    5.60    1.60
   2   9 -16   34.50    3.70
   2   9 -16   39.40    3.60
  -2   9 -16   33.80    3.60
   2   9  16   35.40    3.20
   0   0 -17    1.50    1.50
   0   0 -17    0.60    1.20
  -1   0 -17    6.90    1.70
  -1   0 -17    6.00    2.00
   1   0 -17    6.30    2.10
   1   0 -17    8.10    1.80
  -2   0 -17    4.60    1.60
   2   0 -17    3.80    1.70
   2   0 -17    5.80    1.60
   3   0 -17  128.89    5.70
   3   0 -17  121.79    5.10
  -3   0 -17  123.99    5.10
   3   0 -17  124.09    5.40
   4   0 -17    2.90    1.90
  -4   0 -17    3.40    1.50
   4   0 -17    1.40    1.70
   4   0 -17    2.00    1.40
   5   0 -17   10.80    2.40
   5   0 -17    4.60    2.00
   0  -1 -17    1.40    1.50
   0  -1 -17    3.20    1.40
   0   1 -17    3.70    1.90
   0   1 -17   -0.10    1.40
   1   1 -17   13.30    2.50
  -1  -1 -17   16.40    2.60
  -1  -1 -17   15.40    2.20
   1   1 -17   17.00    2.30
   1  -1 -17   17.00    2.50
  -1   1 -17   15.50    2.60
  -1   1 -17   17.20    2.30
   1  -1 -17   19.80    2.40
  -2  -1 -17    9.30    1.80
   2   1 -17    8.50    2.40
   2   1 -17    9.60    2.00
   2  -1 -17    9.40    2.30
  -2   1 -17    4.60    1.60
   2  -1 -17   11.10    1.90
  -3  -1 -17   -0.10    1.10
   3   1 -17   -0.80    1.70
   3   1 -17    1.30    1.20
   3   1 -17    1.10    1.50
   3  -1 -17   -2.00    1.50
   3  -1 -17    2.00    1.40
   3  -1 -17    0.50    1.70
  -3   1 -17    3.00    1.40
   4   1 -17   40.90    3.50
   4   1 -17   40.50    3.20
   4   1 -17   40.30    3.80
  -4  -1 -17   39.00    3.10
  -4   1 -17   38.30    3.20
   4  -1 -17   40.60    3.70
   4  -1 -17   38.00    3.60
   4  -1 -17   37.00    3.20
   5   1 -17    2.50    1.90
   5   1 -17    1.40    1.70
   5  -1 -17   -0.60    1.70
   5  -1 -17    2.20    1.70
   0  -2 -17   42.80    3.60
   0   2 -17   37.40    3.40
   0   2 -17   35.30    3.10
   0  -2 -17   44.40    3.10
  -1  -2 -17   15.20    2.20
   1   2 -17   15.90    2.60
   1   2 -17   15.40    2.30
   1  -2 -17   13.20    2.40
   1  -2 -17   13.40    2.20
  -1   2 -17   15.30    2.30
  -1   2 -17   15.10    2.60
  -2  -2 -17   42.60    3.20
   2   2 -17   35.70    3.10
   2   2 -17   45.10    3.90
   2  -2 -17   41.50    3.00
   2  -2 -17   40.90    3.30
  -2   2 -17   37.60    3.10
  -2   2 -17   39.90    3.70
   2  -2 -17   37.00    3.40
  -3  -2 -17   43.70    3.10
   3   2 -17   49.50    4.00
   3   2 -17   47.80    3.30
   3   2 -17   41.30    3.60
   3  -2 -17   43.00    3.60
   3  -2 -17   41.70    3.40
   3  -2 -17   47.20    3.20
  -3   2 -17   44.60    3.30
   4   2 -17   15.10    2.60
   4   2 -17   14.60    2.60
   4   2 -17   11.40    2.40
  -4  -2 -17   24.10    2.70
   4  -2 -17   12.50    2.40
   4  -2 -17   12.10    2.30
  -4   2 -17   19.50    2.50
   4  -2 -17   12.40    2.10
   0   3 -17   51.99    3.50
   0  -3 -17   51.39    3.20
   0   3 -17   52.59    4.00
   0  -3 -17   49.10    3.70
  -1  -3 -17    3.40    1.50
   1   3 -17    1.50    1.60
   1   3 -17    4.10    1.60
   1  -3 -17    5.10    1.90
  -1   3 -17    4.70    1.60
  -1   3 -17    5.00    1.90
   1  -3 -17    5.10    1.60
  -2  -3 -17   50.79    3.40
   2   3 -17   53.59    3.60
   2  -3 -17   49.90    3.50
  -2   3 -17   54.29    3.60
   2  -3 -17   46.20    3.20
  -2   3 -17   55.79    4.10
   2  -3 -17   57.09    3.90
   3   3 -17    9.90    2.00
   3   3 -17    9.30    2.20
   3   3 -17   10.30    2.50
  -3  -3 -17   11.40    1.90
  -3   3 -17   10.20    2.40
   3  -3 -17   10.00    2.10
  -3   3 -17   15.10    2.30
   3  -3 -17   10.50    2.40
   3  -3 -17    8.50    1.80
   4   3 -17    2.30    2.00
   4   3 -17   -1.60    1.50
   4  -3 -17    2.20    1.70
   4  -3 -17    0.90    1.50
   4  -3 -17    0.20    1.60
   0  -4 -17   12.40    2.40
   0   4 -17   15.70    2.80
   0  -4 -17   16.00    2.20
   0   4 -17   11.60    2.10
   1   4 -17   10.30    2.30
   1   4 -17   11.80    2.20
  -1  -4 -17   12.50    2.00
  -1   4 -17   10.50    2.30
   1  -4 -17    9.70    2.20
  -1   4 -17   12.10    2.10
   1  -4 -17   10.90    1.90
  -2  -4 -17   61.59    4.10
   2   4 -17   56.19    3.70
   2   4 -17   56.59    4.20
  -2   4 -17   47.00    4.00
   2  -4 -17   54.69    3.40
  -2   4 -17   49.70    3.60
   2  -4 -17   54.69    3.80
   2  -4 -17   60.19    3.90
   3   4 -17   12.30    2.40
   3   4 -17    8.30    2.40
   3   4 -17    6.10    1.90
  -3   4 -17    8.70    2.40
   3  -4 -17    9.50    2.30
   3  -4 -17    8.00    2.00
   3  -4 -17   12.90    2.10
  -3   4 -17   14.40    2.20
   4   4 -17    0.70    2.00
   4   4 -17    2.10    1.80
   4  -4 -17    2.10    1.70
  -4   4 -17    3.10    1.70
   0   5 -17    0.10    1.40
   0  -5 -17    0.60    1.10
   0  -5 -17   -0.80    1.90
   0  -5 -17   -1.70    1.30
   0   5 -17   -0.10    1.70
   1   5 -17    4.30    2.10
  -1  -5 -17    3.40    1.40
   1   5 -17   -0.70    1.30
   1  -5 -17    0.70    1.30
  -1   5 -17    2.20    1.40
  -1   5 -17    2.10    1.90
   1  -5 -17    1.50    1.60
   2   5 -17    7.00    2.30
  -2  -5 -17    7.00    1.70
   2   5 -17    9.00    2.00
  -2   5 -17   11.10    2.50
   2  -5 -17    8.20    2.20
  -2   5 -17    8.10    2.00
   2  -5 -17    8.00    1.80
   2   5  17   10.30    2.00
   2  -5 -17   10.40    2.10
   3   5 -17   24.90    3.40
   3   5 -17   27.20    3.20
   3   5 -17   24.60    4.30
  -3  -5 -17   26.00    3.40
  -3   5 -17   29.20    3.40
   3  -5 -17   28.30    3.00
   3   5  17   23.80    2.70
   3  -5 -17   24.50    2.70
   0  -6 -17   34.30    3.40
   0   6 -17   31.50    3.50
   0   6 -17   35.40    3.20
   0  -6 -17   28.60    2.60
  -1  -6 -17   10.80    1.90
   1   6 -17   14.60    2.80
   1   6 -17   10.20    2.10
   1   6  17   12.20    2.00
  -1   6 -17   14.90    2.40
  -1   6 -17    8.60    2.30
  -2  -6 -17    4.40    1.50
   2   6 -17    5.60    2.10
   2   6 -17    3.20    1.90
  -2   6 -17    7.00    2.20
   2   6  17    4.30    1.60
   3   6 -17  106.29    5.60
   3   6 -17  112.29    5.30
   3  -6 -17  110.79    5.10
  -3   6 -17  104.49    5.50
   3   6  17  110.39    4.80
   3  -6 -17  116.49    5.60
   0   7 -17   21.00    3.20
   0   7  17   21.00    2.50
  -1  -7 -17   13.90    2.10
   1   7 -17   11.80    2.40
  -1   7 -17   14.90    2.60
   1   7  17   14.60    2.20
   2   7 -17   42.30    3.80
  -2   7 -17   44.30    4.00
   2   7  17   41.40    3.10
   0   0 -18   39.70    3.90
   0   0 -18   45.70    3.30
  -1   0 -18    4.30    1.70
  -1   0 -18    5.10    2.00
   1   0 -18   10.10    2.00
   1   0 -18    6.40    2.20
  -2   0 -18    5.40    1.90
  -2   0 -18    3.90    1.70
   2   0 -18    6.50    2.20
   2   0 -18    3.10    1.70
  -3   0 -18    6.50    2.80
   3   0 -18    4.90    1.90
   3   0 -18    4.20    2.10
   0  -1 -18    5.70    2.10
   0   1 -18    3.80    1.60
   0  -1 -18    0.20    1.30
   0   1 -18    3.20    1.90
  -1  -1 -18   20.00    2.90
   1   1 -18   22.50    3.10
   1   1 -18   21.90    2.60
  -1  -1 -18   27.40    2.90
  -1   1 -18   21.20    3.10
   1  -1 -18   25.20    2.80
   1  -1 -18   17.80    2.80
  -1   1 -18   24.70    2.80
  -2  -1 -18    5.90    1.70
   2   1 -18    7.30    2.30
   2   1 -18    7.90    1.90
   2  -1 -18    4.90    1.60
   2  -1 -18    4.80    2.10
   2  -1 -18    7.20    2.10
  -2   1 -18    6.90    1.70
  -2   1 -18    7.30    2.20
  -3  -1 -18    9.70    2.20
   3   1 -18    3.90    1.80
   3   1 -18    6.50    2.30
   3  -1 -18    7.90    2.20
   3  -1 -18    8.70    2.10
   0  -2 -18   57.29    3.60
   0  -2 -18   48.80    4.10
   0   2 -18   57.49    3.70
   0   2 -18   53.29    4.00
   1   2 -18   39.40    3.90
  -1  -2 -18   42.90    3.30
  -1  -2 -18   31.30    3.60
   1   2 -18   31.20    3.20
   1  -2 -18   37.80    3.10
  -1   2 -18   35.20    3.20
  -1   2 -18   34.30    3.70
   1  -2 -18   32.20    3.50
  -2  -2 -18    9.90    2.00
   2   2 -18    7.90    2.50
   2  -2 -18    9.90    2.00
  -2   2 -18   11.10    2.50
   2  -2 -18   13.00    2.60
  -2   2 -18    9.70    2.50
   2  -2 -18   13.00    2.30
   3   2 -18   23.30    3.30
   3   2 -18   21.90    2.80
  -3  -2 -18   24.90    3.20
   3  -2 -18   24.70    3.00
   3  -2 -18   22.00    3.00
  -3   2 -18   22.20    3.10
   0   3 -18   31.20    3.60
   0  -3 -18   37.00    3.10
   0  -3 -18   39.00    3.90
   0   3 -18   31.70    3.30
  -1  -3 -18    8.00    2.20
   1   3 -18    7.30    2.30
   1   3 -18    7.80    2.20
  -1  -3 -18    7.90    1.90
   1  -3 -18    8.30    1.90
   1  -3 -18   12.10    2.50
  -1   3 -18   12.40    2.70
  -1   3 -18    3.90    2.10
   2   3 -18   51.69    4.00
  -2  -3 -18   52.89    3.40
  -2   3 -18   57.49    4.50
   2  -3 -18   52.19    3.50
   2  -3 -18   53.89    3.80
   2  -3 -18   49.50    4.00
   3   3 -18   10.80    2.60
   3   3 -18   11.00    2.30
  -3   3 -18   10.70    2.50
   3  -3 -18    9.40    2.40
   3  -3 -18    9.50    2.30
   0   4 -18    6.80    2.30
   0  -4 -18    7.40    2.10
   0  -4 -18    8.80    1.90
  -1  -4 -18   59.79    4.90
   1   4 -18   55.59    4.40
  -1  -4 -18   58.19    4.20
   1  -4 -18   60.79    4.30
  -1   4 -18   47.90    4.00
   1  -4 -18   57.89    3.60
   2   4 -18   37.20    4.00
  -2   4 -18   35.90    3.80
   2  -4 -18   34.00    4.00
   2  -4 -18   37.70    3.50
   2  -4 -18   30.50    3.40
   0  -5 -18    4.40    1.90
   0   5 -18    3.00    2.10
  -1  -5 -18   49.30    5.30
   1   5 -18   49.20    4.50
   1  -5 -18   45.80    3.40
  -1   5 -18   49.20    4.20
   1  -5 -18   59.89    4.10
   0   0   0    0.00    0.00

_computing_structure_solution     'SHELXT 2014/5 (Sheldrick, 2014)'
;
_shelx_hkl_checksum              59012
_olex2_submission_special_instructions 'No special instructions were received'
loop_
_space_group_symop_operation_xyz
'x, y, z'
'-x+1/2, -y, z+1/2'
'-x, y+1/2, -z+1/2'
'x+1/2, -y+1/2, -z'
loop_
_atom_site_label
_atom_site_type_symbol
_atom_site_fract_x
_atom_site_fract_y
_atom_site_fract_z
_atom_site_U_iso_or_equiv
_atom_site_adp_type
_atom_site_occupancy
_atom_site_site_symmetry_order
_atom_site_calc_flag
_atom_site_refinement_flags_posn
O5 O 0.24085(8) 0.48957(6) 0.51487(5) 0.01244(10) Uani 1 1 d .
O1 O 0.25859(9) 0.28463(6) 0.70648(6) 0.01540(11) Uani 1 1 d .
O11 O 0.38884(11) 0.10283(6) 0.66403(7) 0.02028(13) Uani 1 1 d .
N10 N 0.17988(12) 0.80509(8) 0.52028(10) 0.02409(17) Uani 1 1 d .
C6 C 0.08242(11) 0.56775(7) 0.54271(7) 0.01265(12) Uani 1 1 d .
H6 H -0.020738 0.550602 0.483725 0.015 Uiso 1 1 calc R
C2 C 0.39940(12) 0.21624(7) 0.65789(7) 0.01449(13) Uani 1 1 d .
C4A C 0.37537(11) 0.47856(7) 0.61015(7) 0.01224(12) Uani 1 1 d .
H4A H 0.423240 0.563665 0.631435 0.015 Uiso 1 1 calc R
C7 C -0.00130(12) 0.54392(7) 0.66247(8) 0.01513(14) Uani 1 1 d .
H7 H -0.120586 0.581302 0.682733 0.018 Uiso 1 1 calc R
C9 C 0.13795(12) 0.70164(8) 0.53038(8) 0.01608(14) Uani 1 1 d .
C8 C 0.08721(13) 0.47199(8) 0.74060(7) 0.01597(14) Uani 1 1 d .
H8 H 0.024903 0.453349 0.812749 0.019 Uiso 1 1 calc R
C4 C 0.54010(12) 0.40213(8) 0.56556(8) 0.01610(14) Uani 1 1 d .
H4 H 0.635329 0.439839 0.517421 0.019 Uiso 1 1 calc R
C8A C 0.28325(12) 0.41958(7) 0.71741(7) 0.01350(12) Uani 1 1 d .
H8A H 0.366427 0.436790 0.787188 0.016 Uiso 1 1 calc R
C3 C 0.55383(12) 0.28129(8) 0.59309(9) 0.01744(14) Uani 1 1 d .
H3 H 0.665346 0.236086 0.570542 0.021 Uiso 1 1 calc R
loop_
_atom_site_aniso_label
_atom_site_aniso_U_11
_atom_site_aniso_U_22
_atom_site_aniso_U_33
_atom_site_aniso_U_23
_atom_site_aniso_U_13
_atom_site_aniso_U_12
O5 0.0129(2) 0.0133(2) 0.0111(2) -0.00055(17) 0.00082(18) 0.00260(17)
O1 0.0174(2) 0.0111(2) 0.0177(3) 0.00229(19) 0.0047(2) 0.00145(19)
O11 0.0241(3) 0.0117(2) 0.0250(3) 0.0036(2) 0.0046(3) 0.0028(2)
N10 0.0200(3) 0.0157(3) 0.0365(5) 0.0045(3) 0.0046(3) 0.0003(2)
C6 0.0123(3) 0.0108(3) 0.0148(3) 0.0005(2) 0.0010(2) 0.0010(2)
C2 0.0155(3) 0.0127(3) 0.0153(3) 0.0024(2) 0.0011(3) 0.0019(2)
C4A 0.0121(3) 0.0110(2) 0.0136(3) 0.0007(2) 0.0000(2) -0.0005(2)
C7 0.0151(3) 0.0131(3) 0.0171(3) -0.0008(2) 0.0048(3) 0.0016(2)
C9 0.0141(3) 0.0143(3) 0.0199(3) 0.0021(3) 0.0017(3) 0.0019(2)
C8 0.0196(3) 0.0148(3) 0.0135(3) -0.0004(2) 0.0058(3) 0.0015(2)
C4 0.0122(3) 0.0143(3) 0.0218(4) 0.0030(3) 0.0034(3) 0.0006(2)
C8A 0.0174(3) 0.0115(3) 0.0116(3) 0.0001(2) 0.0006(2) 0.0003(2)
C3 0.0139(3) 0.0148(3) 0.0235(4) 0.0034(3) 0.0037(3) 0.0027(2)
loop_
_atom_type_symbol
_atom_type_description
_atom_type_scat_dispersion_real
_atom_type_scat_dispersion_imag
_atom_type_scat_source
C C 0.0033 0.0016 'International Tables Vol C Tables 4.2.6.8 and 6.1.1.4'
H H 0.0000 0.0000 'International Tables Vol C Tables 4.2.6.8 and 6.1.1.4'
N N 0.0061 0.0033 'International Tables Vol C Tables 4.2.6.8 and 6.1.1.4'
O O 0.0106 0.0060 'International Tables Vol C Tables 4.2.6.8 and 6.1.1.4'
loop_
_geom_angle_atom_site_label_1
_geom_angle_atom_site_label_2
_geom_angle_atom_site_label_3
_geom_angle
C6 O5 C4A 112.68(6)
C2 O1 C8A 119.27(7)
O5 C6 H6 107.4
O5 C6 C7 113.77(6)
O5 C6 C9 110.14(6)
C7 C6 H6 107.4
C9 C6 H6 107.4
C9 C6 C7 110.41(7)
O1 C2 C3 118.65(7)
O11 C2 O1 118.41(8)
O11 C2 C3 122.83(8)
O5 C4A H4A 109.0
O5 C4A C4 106.72(6)
O5 C4A C8A 111.48(6)
C4 C4A H4A 109.0
C4 C4A C8A 111.66(6)
C8A C4A H4A 109.0
C6 C7 H7 119.1
C8 C7 C6 121.71(7)
C8 C7 H7 119.1
N10 C9 C6 179.53(11)
C7 C8 H8 119.3
C7 C8 C8A 121.43(8)
C8A C8 H8 119.3
C4A C4 H4 119.8
C3 C4 C4A 120.33(8)
C3 C4 H4 119.8
O1 C8A C4A 113.14(6)
O1 C8A C8 106.17(6)
O1 C8A H8A 108.5
C4A C8A H8A 108.5
C8 C8A C4A 111.76(7)
C8 C8A H8A 108.5
C2 C3 H3 119.3
C4 C3 C2 121.47(8)
C4 C3 H3 119.3
loop_
_geom_bond_atom_site_label_1
_geom_bond_atom_site_label_2
_geom_bond_distance
O5 C6 1.4201(9)
O5 C4A 1.4376(10)
O1 C2 1.3426(10)
O1 C8A 1.4602(10)
O11 C2 1.2184(10)
N10 C9 1.1511(12)
C6 H6 1.0000
C6 C7 1.5044(12)
C6 C9 1.4913(11)
C2 C3 1.4779(12)
C4A H4A 1.0000
C4A C4 1.4972(11)
C4A C8A 1.5168(11)
C7 H7 0.9500
C7 C8 1.3280(12)
C8 H8 0.9500
C8 C8A 1.4987(12)
C4 H4 0.9500
C4 C3 1.3346(12)
C8A H8A 1.0000
C3 H3 0.9500
loop_
_geom_torsion_atom_site_label_1
_geom_torsion_atom_site_label_2
_geom_torsion_atom_site_label_3
_geom_torsion_atom_site_label_4
_geom_torsion
O5 C6 C7 C8 10.99(11)
O5 C4A C4 C3 -101.02(10)
O5 C4A C8A O1 76.23(8)
O5 C4A C8A C8 -43.54(9)
O1 C2 C3 C4 -11.14(14)
O11 C2 C3 C4 164.96(9)
C6 O5 C4A C4 -175.88(6)
C6 O5 C4A C8A 61.95(8)
C6 C7 C8 C8A 5.31(13)
C2 O1 C8A C4A 41.02(10)
C2 O1 C8A C8 163.94(7)
C4A O5 C6 C7 -44.65(8)
C4A O5 C6 C9 79.92(8)
C4A C4 C3 C2 6.05(14)
C7 C8 C8A O1 -112.75(9)
C7 C8 C8A C4A 11.04(11)
C9 C6 C7 C8 -113.43(9)
C4 C4A C8A O1 -43.04(9)
C4 C4A C8A C8 -162.81(7)
C8A O1 C2 O11 169.97(8)
C8A O1 C2 C3 -13.75(11)
C8A C4A C4 C3 21.03(12)
