#------------------------------------------------------------------------------
#$Date: 2019-11-14 02:22:03 +0200 (Thu, 14 Nov 2019) $
#$Revision: 227736 $
#$URL: file:///home/coder/svn-repositories/cod/cif/4/03/60/4036057.cif $
#------------------------------------------------------------------------------
#
# This file is available in the Crystallography Open Database (COD),
# http://www.crystallography.net/
#
# All data on this site have been placed in the public domain by the
# contributors.
#
data_4036057
loop_
_publ_author_name
'Garcia, Rosalva C.'
'Pech, Matthew J.'
'Sommer, Roger D.'
'Gorman, Christopher B.'
_publ_section_title
;
 Synthesis of 5,12-Diazapentacenes and Their Properties.
;
_journal_name_full               'The Journal of organic chemistry'
_journal_paper_doi               10.1021/acs.joc.9b01628
_journal_year                    2019
_chemical_formula_moiety         'C32 H38 N4'
_chemical_formula_sum            'C32 H38 N4'
_chemical_formula_weight         478.66
_chemical_name_common            RCG0192a-1
_space_group_crystal_system      triclinic
_space_group_IT_number           2
_space_group_name_Hall           '-P 1'
_space_group_name_H-M_alt        'P -1'
_atom_sites_solution_hydrogens   mixed
_cell_angle_alpha                94.8546(18)
_cell_angle_beta                 96.9690(18)
_cell_angle_gamma                97.109(2)
_cell_formula_units_Z            1
_cell_length_a                   4.6765(2)
_cell_length_b                   8.8636(4)
_cell_length_c                   16.2126(8)
_cell_measurement_reflns_used    146
_cell_measurement_temperature    100.(2)
_cell_measurement_theta_max      34.0864
_cell_measurement_theta_min      4.6900
_cell_volume                     658.53(5)
_computing_cell_refinement       'APEX3 v2017.3-0 (Bruker AXS)'
_computing_data_collection       'Bruker Instrument Service v2013.12.0.0'
_computing_data_reduction        'SAINT V8.38A (Bruker AXS Inc., 2017)'
_computing_molecular_graphics    'shelXle (C.B. Huebschle, rev 833)'
_computing_structure_refinement  'SHELXL-2016/6 (Sheldrick, 2016)'
_computing_structure_solution    'XS, VERSION 2013/1'
_diffrn_ambient_temperature      100.(2)
_diffrn_detector_area_resol_mean 8.3333
_diffrn_measured_fraction_theta_full 1.000
_diffrn_measured_fraction_theta_max 1.000
_diffrn_measurement_device_type  'Bruker-Nonius X8 Kappa APEX II'
_diffrn_measurement_method       'phi and omega scans'
_diffrn_radiation_monochromator  graphite
_diffrn_radiation_type           MoK\a
_diffrn_radiation_wavelength     0.71073
_diffrn_reflns_av_R_equivalents  0.0454
_diffrn_reflns_av_unetI/netI     0.0355
_diffrn_reflns_limit_h_max       6
_diffrn_reflns_limit_h_min       -6
_diffrn_reflns_limit_k_max       12
_diffrn_reflns_limit_k_min       -12
_diffrn_reflns_limit_l_max       23
_diffrn_reflns_limit_l_min       -23
_diffrn_reflns_number            25735
_diffrn_reflns_theta_full        30.51
_diffrn_reflns_theta_max         30.51
_diffrn_reflns_theta_min         2.33
_diffrn_source                   'fine-focus sealed tube'
_exptl_absorpt_coefficient_mu    0.071
_exptl_absorpt_correction_T_max  1.00
_exptl_absorpt_correction_T_min  0.97
_exptl_absorpt_correction_type   multi-scan
_exptl_absorpt_process_details
;
SADABS-2016/2 - Bruker AXS area detector scaling and absorption correction
;
_exptl_crystal_colour            orange
_exptl_crystal_density_diffrn    1.207
_exptl_crystal_density_method    'not measured'
_exptl_crystal_description       needle
_exptl_crystal_F_000             258
_exptl_crystal_size_max          0.253
_exptl_crystal_size_mid          0.084
_exptl_crystal_size_min          0.055
_refine_diff_density_max         0.444
_refine_diff_density_min         -0.293
_refine_ls_extinction_method     none
_refine_ls_goodness_of_fit_ref   1.006
_refine_ls_hydrogen_treatment    mixed
_refine_ls_matrix_type           full
_refine_ls_number_parameters     168
_refine_ls_number_reflns         4030
_refine_ls_number_restraints     0
_refine_ls_restrained_S_all      1.006
_refine_ls_R_factor_all          0.0704
_refine_ls_R_factor_gt           0.0455
_refine_ls_shift/su_max          0.000
_refine_ls_shift/su_mean         0.000
_refine_ls_structure_factor_coef Fsqd
_refine_ls_weighting_details
'w=1/[\s^2^(Fo^2^)+(0.0577P)^2^+0.2150P] where P=(Fo^2^+2Fc^2^)/3'
_refine_ls_weighting_scheme      calc
_refine_ls_wR_factor_gt          0.1073
_refine_ls_wR_factor_ref         0.1197
_reflns_number_gt                2993
_reflns_number_total             4030
_reflns_threshold_expression     'I > 2\s(I)'
_cod_data_source_file            jo9b01628_si_004.cif
_cod_data_source_block           rds757
_cod_depositor_comments
;
The following automatic conversions were performed:

data item '_exptl_absorpt_correction_type' value 'Multi-Scan' was
changed to 'multi-scan' in accordance with the
/home/data/users/saulius/crontab/automatic-downloads/rss-feeds/ACS/lib/dictionaries/cif_core.dic
dictionary named 'cif_core.dic' version 2.4.2 last updated on
2011-04-26.

Automatic conversion script
Id: cif_fix_values 6909 2019-04-08 15:41:33Z antanas 
;
_cod_database_code               4036057
_shelx_res_file
;

TITL rds757_0m in P-1
    rds757_0m.res
    created by SHELXL-2016/6 at 13:42:19 on 09-Mar-2018
CELL 0.71073 4.6765 8.8636 16.2126 94.8546 96.969 97.1089
ZERR 1 0.0002 0.0004 0.0008 0.0018 0.0018 0.002
LATT 1
SFAC C H N
UNIT 32 38 4
LIST 4

L.S. 10
PLAN  10
SIZE 0.055 0.084 0.253
TEMP -173.19
BOND $h
conf
htab
acta
fmap 2
OMIT 0 0 1
EQIV $2 x, y-1, z
HTAB N1 N2_$2
WGHT    0.057700    0.215000
FVAR       0.34519
N1    3    0.777731    0.758527    0.086567    11.00000    0.02124    0.00826 =
         0.01243    0.00192    0.00762    0.00165
N2    3    0.801967    1.413914    0.055170    11.00000    0.02550    0.01441 =
         0.01893    0.00325    0.00983    0.00354
C1    1    0.933110    1.144584    0.016775    11.00000    0.01466    0.01015 =
         0.00965    0.00069    0.00099    0.00190
C2    1    0.824724    1.027631    0.061617    11.00000    0.01553    0.01136 =
         0.01009    0.00104    0.00346    0.00238
AFIX  43
H2    2    0.705567    1.049667    0.103349    11.00000   -1.20000
AFIX   0
C3    1    0.888173    0.878892    0.046277    11.00000    0.01401    0.01113 =
         0.00952    0.00221    0.00183    0.00104
C4    1    0.860478    1.294354    0.037671    11.00000    0.01649    0.01317 =
         0.01058    0.00292    0.00421    0.00079
C5    1    0.650512    0.767328    0.160872    11.00000    0.01537    0.01284 =
         0.01090    0.00407    0.00406    0.00382
C6    1    0.747783    0.880857    0.226814    11.00000    0.01733    0.01418 =
         0.01309    0.00355    0.00289    0.00096
AFIX  43
H6    2    0.900560    0.959279    0.221593    11.00000   -1.20000
AFIX   0
C7    1    0.621618    0.879314    0.299976    11.00000    0.01966    0.01624 =
         0.01132    0.00125    0.00191    0.00430
AFIX  43
H7    2    0.687780    0.958386    0.343903    11.00000   -1.20000
AFIX   0
C8    1    0.400325    0.764834    0.310774    11.00000    0.01497    0.02071 =
         0.01169    0.00505    0.00404    0.00699
C9    1    0.307227    0.652214    0.244698    11.00000    0.01590    0.01867 =
         0.01679    0.00552    0.00537    0.00081
AFIX  43
H9    2    0.156875    0.572796    0.250372    11.00000   -1.20000
AFIX   0
C10   1    0.428152    0.652740    0.170652    11.00000    0.01710    0.01387 =
         0.01319    0.00181    0.00310    0.00071
AFIX  43
H10   2    0.359076    0.574634    0.126409    11.00000   -1.20000
AFIX   0
C11   1    0.270566    0.761685    0.391447    11.00000    0.01704    0.02863 =
         0.01297    0.00496    0.00560    0.00669
AFIX  23
H11A  2    0.107648    0.677027    0.384843    11.00000   -1.20000
H11B  2    0.189559    0.858351    0.402402    11.00000   -1.20000
AFIX   0
C12   1    0.486358    0.741406    0.466920    11.00000    0.01823    0.03122 =
         0.01272    0.00594    0.00541    0.00694
AFIX  23
H12A  2    0.581265    0.649893    0.454256    11.00000   -1.20000
H12B  2    0.639306    0.831162    0.477250    11.00000   -1.20000
AFIX   0
C13   1    0.342443    0.723701    0.545677    11.00000    0.01641    0.02602 =
         0.01335    0.00458    0.00426    0.00421
AFIX  23
H13A  2    0.216016    0.804531    0.551894    11.00000   -1.20000
H13B  2    0.216898    0.623801    0.538957    11.00000   -1.20000
AFIX   0
C14   1    0.556875    0.733132    0.624956    11.00000    0.01693    0.02692 =
         0.01225    0.00555    0.00418    0.00391
AFIX  23
H14A  2    0.672790    0.835841    0.633987    11.00000   -1.20000
H14B  2    0.692450    0.657269    0.617284    11.00000   -1.20000
AFIX   0
C15   1    0.411791    0.704146    0.702518    11.00000    0.01714    0.02347 =
         0.01339    0.00529    0.00425    0.00171
AFIX  23
H15A  2    0.245461    0.763104    0.703264    11.00000   -1.20000
H15B  2    0.334595    0.594365    0.699429    11.00000   -1.20000
AFIX   0
C16   1    0.618861    0.748654    0.783421    11.00000    0.02122    0.02462 =
         0.01351    0.00384    0.00374    0.00245
AFIX 137
H16A  2    0.795751    0.700838    0.780141    11.00000   -1.50000
H16B  2    0.524291    0.713734    0.830441    11.00000   -1.50000
H16C  2    0.669673    0.860007    0.791695    11.00000   -1.50000
AFIX   0
H1    2    0.783997    0.667227    0.065319    11.00000    0.02134
HKLF 4




REM  rds757_0m in P-1
REM R1 =  0.0455 for    2993 Fo > 4sig(Fo)  and  0.0704 for all    4030 data
REM    168 parameters refined using      0 restraints

END

WGHT      0.0577      0.2150

REM Instructions for potential hydrogen bonds
HTAB N1 N2_$2

REM Highest difference peak  0.444,  deepest hole -0.293,  1-sigma level  0.050
Q1    1   0.3765  0.6575  0.2096  11.00000  0.05    0.44
Q2    1   1.0371  1.1384 -0.0102  11.00000  0.05    0.43
Q3    1   0.6943  0.7632  0.1184  11.00000  0.05    0.39
Q4    1   0.8982  1.0942  0.0514  11.00000  0.05    0.38
Q5    1   0.5433  0.8059  0.3070  11.00000  0.05    0.38
Q6    1   0.3471  0.7567  0.3545  11.00000  0.05    0.37
Q7    1   0.5622  0.7069  0.1678  11.00000  0.05    0.36
Q8    1   0.4131  0.7225  0.5039  11.00000  0.05    0.36
Q9    1   0.7149  0.8693  0.2721  11.00000  0.05    0.35
Q10   1   0.8366  0.8195  0.0662  11.00000  0.05    0.35
;
_shelx_res_checksum              84623
_shelx_hkl_file
;
  -1   0   0  232.31    3.41
  -1   0   0  230.17    3.54
  -1   0   0  233.91    3.50
  -1   0   0  231.04    3.49
  -1   0   0  235.57    3.52
   1   0   0  230.70    3.56
   1   0   0  234.91    3.55
   1   0   0  234.58    3.42
   1   0   0  231.71    3.49
   1   0   0  231.69    3.50
   1   0   0  228.61    3.54
  -2   0   0   56.96    1.19
  -2   0   0   55.60    1.14
  -2   0   0   54.78    1.04
  -2   0   0   55.91    1.23
  -2   0   0   55.44    1.14
   2   0   0   55.67    1.25
   2   0   0   57.50    1.25
   2   0   0   55.21    1.22
   2   0   0   56.35    1.14
   2   0   0   55.54    1.14
   2   0   0   54.71    1.24
   2   0   0   55.15    1.21
  -3   0   0   -0.21    0.25
  -3   0   0    0.58    0.31
  -3   0   0    0.39    0.22
  -3   0   0    0.25    0.30
   3   0   0    0.08    0.31
   3   0   0    0.34    0.26
   3   0   0    0.26    0.33
   3   0   0    0.20    0.27
   3   0   0    0.28    0.33
   3   0   0   -0.57    0.35
  -4   0   0   10.84    0.71
  -4   0   0   10.88    0.75
  -4   0   0   11.61    0.72
  -4   0   0   10.48    0.55
   4   0   0   12.25    0.92
   4   0   0   12.16    0.81
   4   0   0   11.12    0.71
   4   0   0   11.79    0.81
   4   0   0   11.82    0.94
  -5   0   0    2.27    0.55
  -5   0   0    2.97    0.59
   5   0   0    2.69    0.56
   5   0   0    1.39    0.61
   5   0   0    1.55    0.63
   5   0   0    2.92    0.73
   5   0   0    3.10    0.69
  -6   0   0    1.86    0.83
   6   0   0    1.56    0.77
   6   0   0    1.22    0.70
   6   0   0    1.37    0.82
   6   0   0    2.31    0.67
   6   0   0    1.99    0.77
   6  -1   0    2.22    0.75
   6  -1   0    0.53    0.73
   6  -1   0    0.83    0.79
   6  -1   0    0.60    0.60
  -6   1   0    1.08    0.59
  -6   1   0    0.86    0.78
   5  -1   0    0.61    0.58
   5  -1   0    1.34    0.52
   5  -1   0    1.04    0.61
   5  -1   0    1.25    0.66
   5  -1   0    1.16    0.61
  -5   1   0    1.00    0.57
  -5   1   0    1.21    0.40
  -5   1   0    0.72    0.51
  -5   1   0    0.76    0.45
   4  -1   0    0.98    0.50
   4  -1   0    0.52    0.47
   4  -1   0    0.43    0.40
   4  -1   0    1.30    0.37
   4  -1   0    0.78    0.46
  -4   1   0    1.37    0.33
  -4   1   0    0.79    0.37
  -4   1   0    0.82    0.45
  -4   1   0    0.86    0.43
   3  -1   0    2.17    0.34
   3  -1   0    1.93    0.36
   3  -1   0    1.71    0.38
   3  -1   0    2.03    0.43
   3  -1   0    1.24    0.28
   3  -1   0    1.90    0.43
  -3   1   0    2.03    0.34
  -3   1   0    2.49    0.40
  -3   1   0    2.28    0.31
   2  -1   0    3.19    0.28
   2  -1   0    2.30    0.30
   2  -1   0    2.53    0.38
   2  -1   0    3.28    0.31
   2  -1   0    2.39    0.17
   2  -1   0    3.28    0.40
   2  -1   0    2.75    0.31
  -2   1   0    2.55    0.34
  -2   1   0    2.26    0.31
  -2   1   0    3.03    0.30
  -2   1   0    3.26    0.29
  -2   1   0    2.52    0.31
   1  -1   0    1.71    0.19
   1  -1   0    1.59    0.17
   1  -1   0    1.59    0.15
   1  -1   0    1.47    0.19
   1  -1   0    1.34    0.19
  -1   1   0    1.59    0.14
  -1   1   0    1.84    0.24
  -1   1   0    1.66    0.21
  -1   1   0    1.88    0.26
  -1   1   0    1.51    0.17
  -1   1   0    1.59    0.19
  -1   1   0    1.62    0.22
  -1   1   0    1.37    0.21
   0  -1   0   15.00    0.31
   0  -1   0   15.54    0.32
   0  -1   0   15.17    0.34
   0  -1   0   15.18    0.31
   0  -1   0   15.10    0.30
   0  -1   0   15.16    0.29
   0   1   0   15.28    0.31
   0   1   0   14.96    0.33
   0   1   0   14.95    0.30
   0   1   0   14.44    0.33
   0   1   0   15.20    0.29
   0   1   0   15.41    0.32
   0   1   0   15.51    0.33
  -1  -1   0   81.30    1.45
  -1  -1   0   80.49    1.42
  -1  -1   0   81.72    1.41
  -1  -1   0   82.42    1.46
  -1  -1   0   79.81    1.47
   1   1   0   82.73    1.46
   1   1   0   81.43    1.46
   1   1   0   83.34    1.41
   1   1   0   83.78    1.44
   1   1   0   81.30    1.46
   1   1   0   82.53    1.44
   1   1   0   80.73    1.38
  -2  -1   0    0.15    0.26
  -2  -1   0    0.53    0.24
  -2  -1   0    0.38    0.23
  -2  -1   0    0.23    0.15
  -2  -1   0    0.28    0.32
   2   1   0    0.06    0.28
   2   1   0    0.26    0.28
   2   1   0    0.44    0.29
   2   1   0    0.56    0.26
   2   1   0    0.60    0.27
   2   1   0    0.19    0.25
   2   1   0    0.32    0.25
  -3  -1   0    5.32    0.49
  -3  -1   0    4.43    0.43
  -3  -1   0    5.23    0.22
  -3  -1   0    5.46    0.56
   3   1   0    5.31    0.55
   3   1   0    4.83    0.53
   3   1   0    5.07    0.47
   3   1   0    5.16    0.49
   3   1   0    5.35    0.54
  -4  -1   0    0.53    0.39
  -4  -1   0    0.32    0.23
  -4  -1   0   -0.09    0.32
  -4  -1   0   -0.21    0.37
   4   1   0   -0.27    0.41
   4   1   0    0.17    0.38
   4   1   0    0.12    0.42
   4   1   0   -0.53    0.46
   4   1   0    0.80    0.46
  -5  -1   0   -0.15    0.43
  -5  -1   0   -0.24    0.51
  -5  -1   0    0.42    0.41
   5   1   0   -0.90    0.52
   5   1   0    0.44    0.60
   5   1   0   -0.83    0.53
   5   1   0    1.18    0.60
   5   1   0   -0.39    0.52
  -6  -1   0    2.79    0.76
  -6  -1   0    3.66    0.85
   6   1   0    2.82    0.84
   6   1   0    1.86    0.81
   6   1   0    2.73    0.70
   6   1   0    2.64    0.83
   6  -2   0   -0.64    0.60
   6  -2   0    0.88    0.82
   6  -2   0    0.22    0.61
   6  -2   0    0.10    0.53
  -6   2   0    0.74    0.68
  -6   2   0    1.42    0.65
   5  -2   0    1.82    0.59
   5  -2   0    1.86    0.55
   5  -2   0    1.39    0.64
   5  -2   0    2.44    0.55
   5  -2   0    1.28    0.70
  -5   2   0    0.52    0.46
  -5   2   0    1.89    0.63
  -5   2   0    1.74    0.62
  -5   2   0    1.56    0.45
   4  -2   0   -0.18    0.46
   4  -2   0   -0.12    0.33
   4  -2   0    0.00    0.44
   4  -2   0    0.27    0.37
   4  -2   0   -0.57    0.30
  -4   2   0   -0.39    0.31
  -4   2   0   -0.35    0.39
  -4   2   0    0.28    0.30
  -4   2   0   -0.34    0.44
   3  -2   0    3.29    0.36
   3  -2   0    3.02    0.48
   3  -2   0    2.50    0.46
   3  -2   0    4.04    0.41
   3  -2   0    3.61    0.41
   3  -2   0    2.96    0.31
  -3   2   0    4.06    0.48
  -3   2   0    3.94    0.49
  -3   2   0    3.00    0.36
  -3   2   0    3.64    0.35
   2  -2   0   29.17    0.78
   2  -2   0   28.29    0.72
   2  -2   0   29.39    0.62
   2  -2   0   29.90    0.73
   2  -2   0   30.53    0.92
  -2   2   0   30.78    0.80
  -2   2   0   29.82    0.85
  -2   2   0   30.08    0.86
  -2   2   0   29.50    0.77
   1  -2   0  994.15   14.64
   1  -2   0 1000.00   14.40
   1  -2   0  987.23   15.18
  -1   2   0  989.09   15.06
  -1   2   0  995.68   15.03
  -1   2   0  977.32   15.34
  -1   2   0  991.72   14.74
  -1   2   0  992.09   15.40
  -1   2   0  954.83   15.48
   0  -2   0  946.19   14.25
   0  -2   0  952.02   14.54
   0  -2   0  953.77   14.15
   0  -2   0  918.01   14.61
   0  -2   0  963.36   14.43
   0  -2   0  919.87   13.88
   0   2   0  930.58   14.45
   0   2   0  958.32   14.30
   0   2   0  935.26   14.74
   0   2   0  921.95   14.45
   0   2   0  959.67   14.44
   0   2   0  974.84   14.34
  -1  -2   0    0.80    0.31
  -1  -2   0    0.54    0.27
  -1  -2   0    0.59    0.25
  -1  -2   0    0.90    0.27
  -1  -2   0    0.80    0.23
   1   2   0    0.39    0.25
   1   2   0    0.26    0.25
   1   2   0    0.54    0.26
   1   2   0    0.62    0.15
   1   2   0    0.59    0.27
   1   2   0    0.58    0.26
   1   2   0    0.66    0.20
  -2  -2   0    6.55    0.54
  -2  -2   0    6.91    0.52
  -2  -2   0    6.61    0.52
  -2  -2   0    7.02    0.53
  -2  -2   0    7.10    0.39
  -2  -2   0    8.10    0.54
   2   2   0    7.52    0.50
   2   2   0    7.33    0.48
   2   2   0    7.03    0.43
   2   2   0    7.14    0.53
   2   2   0    6.74    0.50
   2   2   0    6.99    0.52
  -3  -2   0    8.84    0.57
  -3  -2   0    8.96    0.40
  -3  -2   0    8.75    0.54
  -3  -2   0    9.47    0.69
   3   2   0    7.94    0.60
   3   2   0    9.00    0.68
   3   2   0    8.80    0.64
   3   2   0    8.73    0.62
   3   2   0    8.91    0.67
  -4  -2   0    5.77    0.39
  -4  -2   0    5.60    0.73
  -4  -2   0    4.56    0.58
  -4  -2   0    4.78    0.52
   4   2   0    5.90    0.71
   4   2   0    5.70    0.66
   4   2   0    5.35    0.63
   4   2   0    4.46    0.66
   4   2   0    4.49    0.62
  -5  -2   0    0.16    0.44
  -5  -2   0    0.71    0.57
   5   2   0    0.82    0.62
   5   2   0    0.50    0.57
   5   2   0    0.51    0.58
   5   2   0    0.66    0.54
   5   2   0   -0.08    0.63
  -6  -2   0    3.43    0.87
   6   2   0    1.87    0.81
   6   2   0    3.86    0.84
   6   2   0    2.61    0.81
   6   2   0    3.49    0.96
   6  -3   0   -0.45    0.55
   6  -3   0    0.59    0.84
   6  -3   0    0.48    0.60
  -6   3   0   -0.01    0.64
  -6   3   0   -0.59    0.62
   5  -3   0   -0.03    0.42
   5  -3   0    0.04    0.48
   5  -3   0    0.41    0.63
   5  -3   0   -0.81    0.64
   5  -3   0    0.83    0.52
  -5   3   0    0.22    0.56
  -5   3   0   -0.38    0.58
  -5   3   0    1.02    0.45
   4  -3   0    2.18    0.41
   4  -3   0    2.26    0.57
   4  -3   0    2.14    0.45
   4  -3   0    2.06    0.44
   4  -3   0    1.07    0.54
  -4   3   0    1.89    0.48
  -4   3   0    1.69    0.43
  -4   3   0    1.66    0.50
   3  -3   0   -0.01    0.36
   3  -3   0    0.43    0.28
   3  -3   0    0.09    0.37
   3  -3   0   -0.01    0.24
   3  -3   0   -0.44    0.21
  -3   3   0    0.28    0.34
  -3   3   0    0.53    0.36
  -3   3   0    0.54    0.30
   2  -3   0    3.95    0.31
   2  -3   0    4.19    0.33
   2  -3   0    4.34    0.20
   2  -3   0    3.57    0.42
   2  -3   0    3.67    0.35
  -2   3   0    4.40    0.40
  -2   3   0    4.30    0.44
  -2   3   0    4.00    0.39
  -2   3   0    4.56    0.46
   1  -3   0   35.43    0.86
   1  -3   0   40.25    0.62
   1  -3   0   39.09    0.74
  -1   3   0   39.23    0.91
  -1   3   0   39.55    0.95
  -1   3   0   38.81    0.94
  -1   3   0   39.32    0.88
  -1   3   0   39.37    0.90
  -1   3   0   39.48    0.91
   0  -3   0   25.04    0.73
   0  -3   0   24.48    0.63
   0  -3   0   24.30    0.58
   0  -3   0   25.15    0.69
   0  -3   0   25.46    0.49
   0  -3   0   24.56    0.47
   0   3   0   25.18    0.66
   0   3   0   24.98    0.64
   0   3   0   24.95    0.63
   0   3   0   23.58    0.66
   0   3   0   24.85    0.57
   0   3   0   25.28    0.68
  -1  -3   0   12.72    0.61
  -1  -3   0   13.32    0.57
  -1  -3   0   12.21    0.52
  -1  -3   0   13.47    0.63
  -1  -3   0   11.92    0.57
   1   3   0   12.32    0.30
   1   3   0   11.32    0.53
   1   3   0   12.08    0.40
   1   3   0   13.13    0.56
   1   3   0   11.95    0.54
  -2  -3   0    2.66    0.39
  -2  -3   0    3.41    0.48
  -2  -3   0    3.21    0.43
  -2  -3   0    3.29    0.40
   2   3   0    3.55    0.43
   2   3   0    3.18    0.40
   2   3   0    3.14    0.30
   2   3   0    3.41    0.45
   2   3   0    3.30    0.34
  -3  -3   0   11.32    0.79
  -3  -3   0   13.21    0.71
  -3  -3   0   10.96    0.77
  -3  -3   0   12.22    0.54
   3   3   0   10.69    0.77
   3   3   0   10.42    0.76
   3   3   0   10.71    0.66
   3   3   0   10.70    0.62
   3   3   0   11.04    0.74
  -4  -3   0    4.54    0.70
  -4  -3   0    5.41    0.52
  -4  -3   0    5.75    0.67
   4   3   0    4.79    0.59
   4   3   0    5.84    0.66
   4   3   0    5.63    0.75
   4   3   0    5.20    0.67
   4   3   0    5.74    0.74
  -5  -3   0    0.70    0.53
  -5  -3   0    0.67    0.69
   5   3   0    2.10    0.69
   5   3   0    0.11    0.62
   5   3   0    0.92    0.70
   5   3   0   -0.60    0.49
   5   3   0    1.00    0.65
  -6  -3   0    6.41    1.06
   6   3   0    5.60    0.96
   6   3   0    8.81    1.19
   6   3   0    6.84    0.99
   6  -4   0    5.81    1.10
  -6   4   0    5.33    0.98
  -6   4   0    6.01    0.89
   5  -4   0   12.28    1.13
   5  -4   0   14.37    0.84
   5  -4   0   11.47    0.84
   5  -4   0   14.23    1.18
   5  -4   0   12.20    0.93
  -5   4   0   12.48    1.01
  -5   4   0   12.52    0.92
  -5   4   0   10.83    0.99
   4  -4   0   -0.27    0.49
   4  -4   0   -0.29    0.31
   4  -4   0   -0.26    0.48
   4  -4   0    1.11    0.39
   4  -4   0   -0.22    0.29
  -4   4   0   -0.45    0.39
  -4   4   0   -0.28    0.41
  -4   4   0   -0.05    0.48
   3  -4   0    6.36    0.47
   3  -4   0    7.21    0.44
   3  -4   0    6.25    0.65
   3  -4   0    6.38    0.63
   3  -4   0    5.13    0.47
  -3   4   0    7.57    0.65
  -3   4   0    5.92    0.60
  -3   4   0    7.49    0.60
   2  -4   0    5.75    0.51
   2  -4   0    7.99    0.28
   2  -4   0    8.10    0.48
  -2   4   0    7.08    0.54
  -2   4   0    7.91    0.54
  -2   4   0    7.52    0.52
  -2   4   0    6.95    0.50
  -2   4   0    5.80    0.51
  -2   4   0    7.41    0.48
   1  -4   0   92.61    1.68
   1  -4   0   91.17    1.76
   1  -4   0   91.77    1.51
   1  -4   0   90.82    1.37
  -1   4   0   91.17    1.72
  -1   4   0   92.26    1.75
  -1   4   0   90.43    1.79
  -1   4   0   92.57    1.75
  -1   4   0   92.73    1.79
  -1   4   0   92.84    1.76
   0  -4   0   26.94    0.65
   0  -4   0   26.32    0.51
   0  -4   0   25.56    0.71
   0  -4   0   26.01    0.80
   0  -4   0   27.97    0.55
   0   4   0   27.54    0.78
   0   4   0   26.80    0.79
   0   4   0   26.24    0.73
   0   4   0   26.18    0.76
   0   4   0   27.29    0.65
   0   4   0   25.15    0.72
  -1  -4   0   23.33    0.81
  -1  -4   0   22.94    0.71
  -1  -4   0   25.17    0.90
  -1  -4   0   25.05    0.94
  -1  -4   0   23.88    0.83
   1   4   0   23.05    0.74
   1   4   0   22.37    0.81
   1   4   0   23.48    0.54
   1   4   0   24.00    0.79
  -2  -4   0    4.39    0.57
  -2  -4   0    5.13    0.54
  -2  -4   0    5.83    0.52
  -2  -4   0    5.33    0.52
   2   4   0    5.25    0.33
   2   4   0    4.53    0.47
   2   4   0    3.58    0.49
   2   4   0    4.90    0.39
   2   4   0    5.15    0.53
  -3  -4   0    0.21    0.31
  -3  -4   0    0.98    0.43
  -3  -4   0    0.60    0.48
  -3  -4   0    0.56    0.44
   3   4   0    0.44    0.42
   3   4   0    0.22    0.24
   3   4   0    0.20    0.41
   3   4   0   -0.13    0.35
   3   4   0    0.37    0.34
  -4  -4   0    0.17    0.54
  -4  -4   0   -0.08    0.47
  -4  -4   0   -0.12    0.33
   4   4   0    0.31    0.47
   4   4   0    0.63    0.42
   4   4   0   -0.02    0.49
   4   4   0   -0.14    0.45
   4   4   0   -0.68    0.46
  -5  -4   0    1.48    0.75
  -5  -4   0    0.03    0.62
   5   4   0   -0.31    0.55
   5   4   0   -0.28    0.73
   5   4   0    0.15    0.59
   5   4   0   -0.35    0.61
   6  -5   0    1.71    0.95
  -6   5   0    0.90    0.63
  -6   5   0    3.68    0.89
  -6   5   0    2.22    0.82
   5  -5   0    7.13    0.72
   5  -5   0    6.87    0.64
   5  -5   0    8.70    1.01
   5  -5   0    6.97    0.96
  -5   5   0    8.85    0.98
  -5   5   0    6.55    0.86
  -5   5   0    6.60    0.75
   4  -5   0    6.21    0.57
   4  -5   0    6.39    0.60
   4  -5   0    6.36    0.85
   4  -5   0    7.55    0.54
   4  -5   0    6.04    0.78
  -4   5   0    6.57    0.74
  -4   5   0    8.19    0.74
  -4   5   0    6.38    0.73
   3  -5   0    1.78    0.38
   3  -5   0    1.71    0.48
   3  -5   0    2.02    0.35
   3  -5   0    2.05    0.25
   3  -5   0    1.88    0.51
  -3   5   0    1.53    0.42
  -3   5   0    1.91    0.47
  -3   5   0    1.57    0.48
  -3   5   0    1.92    0.42
   2  -5   0   21.18    0.58
   2  -5   0   20.39    0.82
   2  -5   0   20.25    0.74
  -2   5   0   20.52    0.81
  -2   5   0   19.65    0.83
  -2   5   0   19.10    0.83
  -2   5   0   19.30    0.76
  -2   5   0   20.43    0.81
  -2   5   0   19.90    0.80
   1  -5   0    0.11    0.26
   1  -5   0    0.68    0.11
   1  -5   0    1.15    0.20
   1  -5   0    0.52    0.31
   1  -5   0    0.71    0.24
  -1   5   0    0.22    0.29
  -1   5   0    0.71    0.34
  -1   5   0    0.96    0.30
  -1   5   0    0.46    0.28
  -1   5   0    0.31    0.31
   0  -5   0   16.72    0.63
   0  -5   0   16.41    0.37
   0  -5   0   16.20    0.74
   0  -5   0   16.95    0.56
   0  -5   0   17.24    0.78
   0  -5   0   17.16    0.73
   0   5   0   15.93    0.54
   0   5   0   16.50    0.63
   0   5   0   17.08    0.64
   0   5   0   17.15    0.65
   0   5   0   17.49    0.68
  -1  -5   0    7.59    0.60
  -1  -5   0    6.29    0.56
  -1  -5   0    6.19    0.49
  -1  -5   0    7.27    0.66
   1   5   0    6.56    0.28
   1   5   0    6.81    0.48
  -2  -5   0    1.51    0.54
  -2  -5   0    0.56    0.39
  -2  -5   0    1.22    0.38
  -2  -5   0    1.17    0.41
   2   5   0    1.45    0.26
   2   5   0    0.88    0.38
   2   5   0    1.18    0.16
   2   5   0    1.07    0.37
  -3  -5   0    3.04    0.58
  -3  -5   0    2.02    0.62
  -3  -5   0    3.20    0.49
  -3  -5   0    3.74    0.55
  -3  -5   0    3.21    0.61
   3   5   0    3.50    0.46
   3   5   0    3.94    0.60
   3   5   0    2.19    0.51
   3   5   0    3.04    0.34
  -4  -5   0    0.68    0.64
  -4  -5   0    2.00    0.65
   4   5   0    0.82    0.49
   4   5   0    0.36    0.59
   4   5   0    1.16    0.62
   4   5   0    0.19    0.52
  -5  -5   0   -0.20    0.72
  -5  -5   0   -0.50    0.61
   5   5   0   -1.48    0.61
   5   5   0   -0.57    0.64
   6  -6   0    0.72    0.91
  -6   6   0    0.62    0.80
  -6   6   0   -0.26    0.64
  -6   6   0   -0.28    0.78
   5  -6   0    5.22    0.90
   5  -6   0    4.47    0.97
  -5   6   0    5.27    0.75
  -5   6   0    5.79    0.86
  -5   6   0    4.07    0.82
   4  -6   0    1.19    0.59
   4  -6   0    0.61    0.38
   4  -6   0    1.76    0.62
   4  -6   0    0.37    0.38
  -4   6   0    0.81    0.51
  -4   6   0    1.33    0.56
  -4   6   0    0.43    0.49
   3  -6   0    2.24    0.49
   3  -6   0    2.91    0.46
   3  -6   0    2.50    0.42
   3  -6   0    2.51    0.56
   3  -6   0    2.50    0.36
  -3   6   0    2.26    0.49
  -3   6   0    1.51    0.52
  -3   6   0    3.67    0.56
  -3   6   0    1.66    0.46
  -3   6   0    2.34    0.49
   2  -6   0    7.64    0.37
   2  -6   0    7.64    0.65
   2  -6   0    7.56    0.54
  -2   6   0    6.58    0.57
  -2   6   0    7.79    0.62
  -2   6   0    6.97    0.63
  -2   6   0    8.76    0.71
  -2   6   0    6.92    0.63
  -2   6   0    7.88    0.62
   1  -6   0    1.84    0.29
   1  -6   0    1.94    0.15
   1  -6   0    1.74    0.24
   1  -6   0    1.59    0.37
   1  -6   0    1.62    0.35
   1  -6   0    2.57    0.45
  -1   6   0    1.68    0.37
  -1   6   0    1.59    0.37
  -1   6   0    2.01    0.38
  -1   6   0    2.57    0.41
   0  -6   0   44.19    1.31
   0  -6   0   44.90    1.24
   0  -6   0   43.93    0.72
   0  -6   0   42.96    1.10
   0  -6   0   44.53    1.25
   0   6   0   45.36    1.18
   0   6   0   44.80    1.15
   0   6   0   44.68    1.13
   0   6   0   44.28    1.20
   0   6   0   43.57    1.00
  -1  -6   0   30.68    0.97
  -1  -6   0   31.30    1.12
  -1  -6   0   29.92    1.11
  -1  -6   0   31.26    1.14
   1   6   0   30.69    0.91
   1   6   0   29.94    0.98
   1   6   0   30.56    0.95
  -2  -6   0    1.11    0.48
  -2  -6   0    1.44    0.50
  -2  -6   0    1.73    0.44
  -2  -6   0    2.09    0.56
   2   6   0    1.60    0.25
   2   6   0    2.00    0.46
   2   6   0    1.65    0.44
  -3  -6   0    1.36    0.56
  -3  -6   0    0.50    0.51
  -3  -6   0    0.73    0.49
  -3  -6   0    0.52    0.44
  -3  -6   0    0.47    0.58
   3   6   0    0.36    0.36
   3   6   0    0.55    0.48
   3   6   0    0.82    0.49
  -4  -6   0    0.73    0.77
  -4  -6   0    1.07    0.62
  -4  -6   0    1.66    0.67
   4   6   0    1.19    0.65
   4   6   0    1.59    0.64
  -5  -6   0    1.25    0.89
  -5  -6   0    1.22    0.77
   5   6   0   -0.57    0.68
   5   6   0    0.47    0.72
   5  -7   0    0.06    0.72
   5  -7   0    0.91    0.71
  -5   7   0    1.20    0.70
  -5   7   0    0.30    0.57
  -5   7   0    0.71    0.76
   4  -7   0   -0.26    0.37
   4  -7   0    0.62    0.40
   4  -7   0   -0.04    0.51
   4  -7   0    0.22    0.56
  -4   7   0    0.89    0.65
  -4   7   0   -0.05    0.47
  -4   7   0    0.03    0.53
   3  -7   0   14.13    0.86
   3  -7   0   16.97    0.83
   3  -7   0   12.60    0.90
   3  -7   0   14.32    0.88
  -3   7   0   14.40    0.89
  -3   7   0   15.30    0.88
  -3   7   0   14.85    0.97
  -3   7   0   15.07    0.93
  -3   7   0   14.71    0.86
   2  -7   0    2.16    0.50
   2  -7   0    2.71    0.28
   2  -7   0    1.92    0.36
   2  -7   0    1.85    0.41
   2  -7   0    1.77    0.47
  -2   7   0    1.80    0.45
  -2   7   0    3.17    0.50
  -2   7   0    1.80    0.50
  -2   7   0    2.13    0.46
  -2   7   0    1.79    0.46
   1  -7   0    4.90    0.55
   1  -7   0    5.53    0.53
   1  -7   0    5.12    0.55
   1  -7   0    5.36    0.37
   1  -7   0    5.63    0.42
  -1   7   0    5.36    0.54
  -1   7   0    4.39    0.53
  -1   7   0    4.40    0.52
  -1   7   0    4.81    0.53
   0  -7   0   16.44    0.93
   0  -7   0   17.45    0.93
   0  -7   0   17.52    0.76
   0  -7   0   15.58    0.83
   0   7   0   17.86    0.76
   0   7   0   17.00    0.79
   0   7   0   16.68    0.80
  -1  -7   0   37.54    1.28
  -1  -7   0   33.88    1.30
  -1  -7   0   34.88    1.31
  -1  -7   0   36.33    1.10
   1   7   0   35.55    1.05
   1   7   0   34.14    1.07
   1   7   0   36.31    1.20
  -2  -7   0    0.57    0.58
  -2  -7   0    0.20    0.40
  -2  -7   0    0.43    0.49
  -2  -7   0    0.86    0.57
   2   7   0    0.55    0.42
  -3  -7   0    1.48    0.64
  -3  -7   0    0.31    0.59
  -3  -7   0    0.58    0.61
  -3  -7   0    0.26    0.49
  -3  -7   0    0.31    0.49
   3   7   0    0.24    0.53
  -4  -7   0    4.43    0.96
  -4  -7   0    3.56    0.83
  -4  -7   0    4.38    0.96
   4   7   0    4.36    0.87
   4   7   0    4.58    0.83
   5  -8   0    3.12    0.95
  -5   8   0    2.27    0.81
  -5   8   0    3.19    0.81
  -5   8   0    3.54    0.92
   4  -8   0   -0.51    0.49
   4  -8   0    1.41    0.44
   4  -8   0   -0.33    0.47
   4  -8   0   -0.70    0.56
  -4   8   0   -0.37    0.59
  -4   8   0    0.78    0.68
  -4   8   0    0.27    0.67
   3  -8   0    1.77    0.48
   3  -8   0    2.73    0.51
   3  -8   0    2.04    0.60
   3  -8   0    0.58    0.48
  -3   8   0    2.10    0.58
  -3   8   0    1.83    0.56
  -3   8   0    2.20    0.59
  -3   8   0    2.14    0.57
  -3   8   0    1.70    0.54
   2  -8   0   15.23    0.95
   2  -8   0   13.86    0.73
   2  -8   0   13.09    0.75
   2  -8   0   13.67    0.80
   2  -8   0   15.38    0.78
  -2   8   0   13.68    0.86
  -2   8   0   12.17    0.86
  -2   8   0   14.65    0.94
  -2   8   0   14.30    0.90
  -2   8   0   13.20    0.89
   1  -8   0   30.41    0.79
   1  -8   0   30.88    1.09
   1  -8   0   29.32    1.28
   1  -8   0   30.51    1.16
   1  -8   0   30.46    1.12
   1  -8   0   31.01    0.85
  -1   8   0   29.51    1.10
  -1   8   0   28.92    1.10
  -1   8   0   28.67    1.12
  -1   8   0   31.56    1.16
   0  -8   0   52.64    1.68
   0  -8   0   54.62    1.63
   0  -8   0   55.42    1.45
   0  -8   0   53.18    1.63
   0   8   0   54.35    1.45
   0   8   0   52.34    1.52
   0   8   0   53.22    1.51
  -1  -8   0    0.99    0.51
  -1  -8   0    1.00    0.56
  -1  -8   0    0.66    0.43
  -1  -8   0    0.47    0.60
   1   8   0    0.64    0.43
   1   8   0   -0.04    0.42
   1   8   0    1.71    0.45
   1   8   0    1.23    0.41
  -2  -8   0    3.09    0.57
  -2  -8   0    3.96    0.70
  -2  -8   0    4.39    0.81
  -2  -8   0    2.72    0.74
   2   8   0    4.92    0.70
   2   8   0    4.57    0.69
   2   8   0    4.42    0.54
  -3  -8   0    1.37    0.61
  -3  -8   0    1.27    0.58
  -3  -8   0    0.39    0.61
  -3  -8   0   -0.08    0.68
  -3  -8   0    1.35    0.72
   3   8   0    1.95    0.63
   3   8   0    0.92    0.60
  -4  -8   0    0.25    0.77
  -4  -8   0    0.12    0.76
   4   8   0   -0.48    0.66
   5  -9   0    1.30    0.84
  -5   9   0   -0.16    0.70
  -5   9   0    0.59    0.76
   4  -9   0    3.52    0.75
   4  -9   0    2.36    0.69
   4  -9   0    4.67    0.75
  -4   9   0    2.79    0.78
  -4   9   0    3.25    0.71
  -4   9   0    3.87    0.78
   3  -9   0    1.54    0.61
   3  -9   0    1.05    0.52
   3  -9   0    1.53    0.59
   3  -9   0    0.74    0.46
   3  -9   0    2.93    0.54
  -3   9   0    2.58    0.67
  -3   9   0    2.07    0.65
  -3   9   0    1.62    0.61
  -3   9   0    1.89    0.59
  -3   9   0    2.53    0.68
   2  -9   0    4.16    0.58
   2  -9   0    4.58    0.68
   2  -9   0    3.47    0.55
   2  -9   0    3.99    0.83
   2  -9   0    5.23    0.60
  -2   9   0    5.57    0.73
  -2   9   0    4.47    0.66
  -2   9   0    4.05    0.65
  -2   9   0    5.61    0.69
   1  -9   0    1.71    0.48
   1  -9   0    2.20    0.64
   1  -9   0    1.84    0.54
   1  -9   0    2.11    0.56
  -1   9   0    1.84    0.52
  -1   9   0    2.02    0.54
  -1   9   0    2.55    0.57
  -1   9   0    1.21    0.46
   0  -9   0    6.24    0.76
   0  -9   0    5.30    0.78
   0  -9   0    8.32    0.82
   0  -9   0    7.25    0.66
   0   9   0    6.34    0.66
   0   9   0    7.09    0.76
   0   9   0    6.10    0.70
  -1  -9   0    4.09    0.59
  -1  -9   0    5.55    0.81
  -1  -9   0    5.24    0.86
  -1  -9   0    4.91    0.76
   1   9   0    4.84    0.67
   1   9   0    5.95    0.61
   1   9   0    7.09    0.78
   1   9   0    5.53    0.60
  -2  -9   0    3.51    0.83
  -2  -9   0    2.21    0.71
  -2  -9   0    4.33    0.65
  -2  -9   0    3.31    0.89
   2   9   0    3.78    0.64
   2   9   0    3.33    0.67
   2   9   0    3.68    0.70
  -3  -9   0    2.41    0.66
  -3  -9   0    0.95    0.79
  -3  -9   0    2.85    0.73
  -3  -9   0    1.89    0.85
   3   9   0    2.37    0.73
   3   9   0    1.40    0.69
   4 -10   0    1.00    0.70
   4 -10   0    0.20    0.55
  -4  10   0    2.51    0.77
  -4  10   0    0.92    0.80
  -4  10   0    1.16    0.69
   3 -10   0    0.99    0.57
   3 -10   0    1.17    0.62
  -3  10   0   -0.07    0.60
  -3  10   0    0.72    0.58
  -3  10   0    0.78    0.59
  -3  10   0    1.72    0.65
   2 -10   0    3.67    0.87
   2 -10   0    3.45    0.65
   2 -10   0    2.52    0.70
  -2  10   0    1.56    0.65
  -2  10   0    2.29    0.65
  -2  10   0    2.89    0.66
  -2  10   0    2.81    0.66
   1 -10   0    7.09    0.79
   1 -10   0    7.36    0.84
   1 -10   0    8.24    0.99
   1 -10   0    8.28    0.76
  -1  10   0    9.36    0.89
  -1  10   0    7.24    0.78
  -1  10   0    6.39    0.78
   0 -10   0    8.22    1.01
   0 -10   0    8.54    0.90
   0 -10   0    9.73    1.02
   0 -10   0   11.30    0.87
   0  10   0   11.43    0.84
   0  10   0    8.57    0.90
   0  10   0    9.56    0.92
  -1 -10   0    0.44    0.49
  -1 -10   0    0.18    0.62
  -1 -10   0    1.18    0.64
  -1 -10   0   -0.29    0.74
   1  10   0    1.18    0.57
   1  10   0    0.37    0.46
   1  10   0    0.01    0.55
  -2 -10   0   -0.32    0.68
  -2 -10   0    1.31    0.91
  -2 -10   0    0.99    0.81
   2  10   0    0.04    0.53
   2  10   0    0.43    0.59
   2  10   0    1.81    0.68
  -3 -10   0    1.59    1.05
  -3 -10   0    0.82    0.81
  -3 -10   0    3.77    0.87
   3  10   0    2.19    0.74
   3  10   0    2.71    0.74
   4 -11   0    3.94    0.89
  -4  11   0    3.77    0.88
  -4  11   0    3.15    0.91
   3 -11   0    0.97    0.56
   3 -11   0    0.60    0.71
   3 -11   0   -0.64    0.59
  -3  11   0    0.51    0.65
  -3  11   0   -0.14    0.64
  -3  11   0   -0.23    0.64
   2 -11   0    0.24    0.65
   2 -11   0    1.36    0.57
   2 -11   0    0.86    0.72
  -2  11   0    0.67    0.69
  -2  11   0   -0.13    0.57
  -2  11   0    0.42    0.64
   1 -11   0    1.03    0.60
   1 -11   0    2.40    0.68
   1 -11   0    2.45    0.59
   1 -11   0    1.47    0.77
  -1  11   0    1.30    0.65
  -1  11   0    1.95    0.66
  -1  11   0    2.31    0.64
   0 -11   0    6.81    1.07
   0 -11   0    7.26    0.92
   0 -11   0    6.81    0.91
   0  11   0    6.73    0.85
   0  11   0    7.87    0.93
   0  11   0    8.90    0.84
  -1 -11   0    3.53    0.84
  -1 -11   0    2.30    0.82
  -1 -11   0    2.74    0.92
   1  11   0    2.53    0.74
   1  11   0    2.01    0.74
  -2 -11   0    3.86    1.10
  -2 -11   0    3.68    0.95
  -2 -11   0    4.38    0.98
   2  11   0    3.19    0.79
   2  11   0    4.46    0.88
   2 -12   0    0.09    0.87
  -2  12   0    0.95    0.66
  -2  12   0    0.30    0.68
  -2  12   0    0.46    0.62
   1 -12   0    5.30    1.03
  -1  12   0    3.69    0.78
  -1  12   0    4.01    0.92
  -1  12   0    4.56    0.73
   0 -12   0    1.14    0.72
   0 -12   0   -0.66    0.89
   0  12   0    0.14    0.72
   0  12   0    1.66    0.66
  -1 -12   0    0.50    0.83
  -1 -12   0    0.19    0.96
   1  12   0   -0.55    0.65
   1  12   0    0.98    0.70
   1  12  -1    2.84    0.76
   1  12  -1    2.23    0.79
  -1 -12   1    2.21    0.84
  -1 -12   1    2.34    0.96
   0  12  -1   -0.06    0.75
   0  12  -1   -0.44    0.63
   0 -12   1   -0.83    0.66
   0 -12   1    0.55    0.83
  -1  12  -1   16.39    1.36
  -1  12  -1   14.31    1.23
  -1  12  -1   13.42    1.02
   1 -12   1   15.66    1.45
  -2  12  -1    1.39    0.74
  -2  12  -1    1.44    0.66
  -2  12  -1    2.09    0.78
   2 -12   1    0.85    0.92
   2  11  -1    0.97    0.66
   2  11  -1    0.37    0.65
  -2 -11   1   -0.07    0.79
  -2 -11   1   -0.89    0.75
   1  11  -1    1.57    0.76
   1  11  -1    1.82    0.69
  -1 -11   1    1.86    0.87
  -1 -11   1    1.37    0.79
  -1 -11   1    0.81    0.71
   0  11  -1    3.95    0.81
   0  11  -1    3.12    0.86
   0  11  -1    3.22    0.70
   0 -11   1    4.88    0.88
   0 -11   1    2.98    0.67
   0 -11   1    2.09    0.84
   0 -11   1    3.29    0.78
  -1  11  -1   17.14    1.05
  -1  11  -1   16.67    1.18
  -1  11  -1   15.31    1.18
   1 -11   1   15.58    1.17
   1 -11   1   15.69    1.13
   1 -11   1   17.60    1.10
   1 -11   1   15.73    1.35
  -2  11  -1   -0.37    0.66
  -2  11  -1   -0.25    0.56
  -2  11  -1    0.99    0.67
  -2  11  -1    0.22    0.53
   2 -11   1    0.67    0.74
   2 -11   1   -0.09    0.48
   2 -11   1   -0.37    0.61
  -3  11  -1    1.93    0.70
  -3  11  -1    3.29    0.80
  -3  11  -1    1.40    0.70
   3 -11   1    1.38    0.74
   3 -11   1    3.12    0.69
   3  10  -1   17.60    1.32
   3  10  -1   15.62    1.29
  -3 -10   1   13.45    1.48
  -3 -10   1   16.48    1.35
  -3 -10   1   16.00    1.50
   2  10  -1    5.51    0.78
   2  10  -1    3.66    0.75
   2  10  -1    6.19    0.92
  -2 -10   1    4.94    1.00
  -2 -10   1    3.46    0.67
  -2 -10   1    5.63    0.98
  -2 -10   1    7.10    0.99
   1  10  -1    0.62    0.55
   1  10  -1    0.36    0.53
  -1 -10   1   -0.27    0.68
  -1 -10   1   -1.31    0.68
  -1 -10   1   -0.35    0.50
  -1 -10   1   -0.30    0.66
   0  10  -1   12.98    1.04
   0  10  -1   13.23    0.94
   0  10  -1   14.83    0.86
   0 -10   1   12.08    1.01
   0 -10   1   13.43    1.06
   0 -10   1   14.18    0.97
   0 -10   1   13.15    1.19
  -1  10  -1   14.38    1.00
  -1  10  -1   14.00    1.03
  -1  10  -1   13.63    1.05
  -1  10  -1   14.76    0.94
   1 -10   1   15.97    1.02
   1 -10   1   14.47    1.03
   1 -10   1   14.47    1.23
   1 -10   1   16.02    1.08
  -2  10  -1    3.43    0.69
  -2  10  -1    3.63    0.70
  -2  10  -1    4.77    0.75
  -2  10  -1    3.75    0.68
   2 -10   1    3.87    0.66
   2 -10   1    3.18    0.75
  -3  10  -1    1.49    0.68
  -3  10  -1    1.07    0.64
  -3  10  -1    0.71    0.57
   3 -10   1    1.45    0.68
   3 -10   1    0.53    0.62
  -4  10  -1    0.90    0.75
  -4  10  -1   -0.22    0.68
  -4  10  -1    0.35    0.66
   4 -10   1   -0.17    0.59
   4   9  -1    0.17    0.66
   4   9  -1    0.77    0.74
  -4  -9   1    0.03    0.81
  -4  -9   1    1.20    0.95
   3   9  -1    2.37    0.73
   3   9  -1    2.69    0.72
  -3  -9   1    3.63    0.78
  -3  -9   1    2.10    0.90
  -3  -9   1    2.57    0.95
  -3  -9   1    2.50    0.68
   2   9  -1    0.70    0.54
   2   9  -1    0.14    0.45
  -2  -9   1   -0.81    0.55
  -2  -9   1   -0.14    0.49
  -2  -9   1   -0.52    0.62
  -2  -9   1   -0.09    0.73
   1   9  -1    5.54    0.59
   1   9  -1    5.81    0.73
   1   9  -1    4.88    0.73
   1   9  -1    4.52    0.56
  -1  -9   1    4.44    0.74
  -1  -9   1    5.97    0.72
  -1  -9   1    5.00    0.79
  -1  -9   1    5.52    0.84
   0   9  -1    3.08    0.60
   0   9  -1    3.71    0.63
   0   9  -1    3.51    0.53
   0  -9   1    2.73    0.68
   0  -9   1    1.79    0.63
   0  -9   1    4.16    0.61
   0  -9   1    2.85    0.70
  -1   9  -1    7.79    0.82
  -1   9  -1    7.87    0.73
  -1   9  -1    7.59    0.74
  -1   9  -1    5.44    0.73
   1  -9   1    7.43    0.74
   1  -9   1    7.92    0.86
   1  -9   1    7.20    0.76
   1  -9   1    5.27    0.80
  -2   9  -1    4.98    0.67
  -2   9  -1    6.52    0.73
  -2   9  -1    4.76    0.69
  -2   9  -1    6.21    0.79
   2  -9   1    3.68    0.51
   2  -9   1    4.79    0.64
   2  -9   1    4.30    0.58
   2  -9   1    3.88    0.66
  -3   9  -1    5.04    0.80
  -3   9  -1    7.66    0.86
  -3   9  -1    6.60    0.78
  -3   9  -1    6.04    0.79
   3  -9   1    6.66    0.82
   3  -9   1    6.05    0.69
   3  -9   1    6.95    0.81
   3  -9   1    6.00    0.70
  -4   9  -1    0.76    0.59
  -4   9  -1   -0.25    0.60
  -4   9  -1    0.22    0.60
   4  -9   1    0.42    0.64
   4  -9   1    1.71    0.65
   4  -9   1    0.46    0.57
  -5   9  -1    1.73    0.75
  -5   9  -1    2.23    0.86
   5  -9   1    2.00    0.90
   4   8  -1    9.17    1.08
  -4  -8   1    8.00    1.17
  -4  -8   1    6.92    1.09
   3   8  -1    6.57    0.84
  -3  -8   1    7.06    1.01
  -3  -8   1    5.23    0.71
  -3  -8   1    5.11    0.91
  -3  -8   1    6.15    0.80
  -3  -8   1    5.63    0.86
   2   8  -1    0.32    0.43
   2   8  -1    0.30    0.34
   2   8  -1    0.25    0.49
  -2  -8   1    0.72    0.65
  -2  -8   1    0.69    0.49
  -2  -8   1    0.35    0.60
  -2  -8   1    0.40    0.55
   1   8  -1    3.06    0.46
   1   8  -1    2.43    0.56
   1   8  -1    2.75    0.48
   1   8  -1    3.64    0.58
  -1  -8   1    2.83    0.60
  -1  -8   1    2.85    0.55
  -1  -8   1    2.91    0.65
  -1  -8   1    2.10    0.61
   0   8  -1   41.09    1.30
   0   8  -1   42.83    1.22
   0   8  -1   40.45    1.32
   0  -8   1   43.16    1.31
   0  -8   1   43.26    1.49
   0  -8   1   41.98    1.50
   0  -8   1   44.81    1.44
  -1   8  -1   10.41    0.73
  -1   8  -1   10.44    0.76
  -1   8  -1    9.92    0.71
  -1   8  -1   10.10    0.75
   1  -8   1   10.21    0.77
   1  -8   1    8.87    0.68
   1  -8   1   11.02    0.51
   1  -8   1   10.44    0.80
   1  -8   1    9.71    0.53
   1  -8   1    9.27    0.52
  -2   8  -1    9.89    0.75
  -2   8  -1   11.23    0.77
  -2   8  -1    9.52    0.84
  -2   8  -1   10.10    0.79
  -2   8  -1   11.42    0.83
   2  -8   1   10.67    0.83
   2  -8   1   11.82    0.88
   2  -8   1    9.01    0.66
   2  -8   1    9.32    0.69
   2  -8   1    9.85    0.70
  -3   8  -1   -0.41    0.42
  -3   8  -1    1.51    0.57
  -3   8  -1   -0.26    0.47
  -3   8  -1   -0.09    0.47
   3  -8   1   -1.02    0.39
   3  -8   1    0.56    0.47
   3  -8   1   -0.07    0.36
   3  -8   1    0.27    0.39
  -4   8  -1   -0.14    0.55
  -4   8  -1    0.13    0.64
  -4   8  -1   -0.34    0.47
   4  -8   1    0.56    0.60
   4  -8   1    1.13    0.61
   4  -8   1    0.34    0.61
  -5   8  -1    0.02    0.67
  -5   8  -1    0.36    0.61
   5  -8   1    1.15    0.87
   5   7  -1    1.90    0.84
   5   7  -1    1.14    0.90
  -5  -7   1   -0.02    0.84
   4   7  -1   -0.46    0.60
   4   7  -1   -0.67    0.60
  -4  -7   1   -0.26    0.68
  -4  -7   1   -0.99    0.68
  -4  -7   1    0.42    0.65
   3   7  -1    5.32    0.75
   3   7  -1    5.64    0.78
  -3  -7   1    4.90    0.77
  -3  -7   1    5.55    0.86
  -3  -7   1    6.41    0.89
  -3  -7   1    6.37    0.79
   2   7  -1    0.01    0.38
   2   7  -1   -0.17    0.30
  -2  -7   1   -0.01    0.50
  -2  -7   1   -0.35    0.36
  -2  -7   1    0.32    0.50
  -2  -7   1    0.69    0.51
   1   7  -1   26.63    0.86
   1   7  -1   23.99    0.90
   1   7  -1   25.99    1.00
  -1  -7   1   25.35    1.00
  -1  -7   1   25.95    1.10
  -1  -7   1   25.63    1.14
  -1  -7   1   24.11    1.12
   0   7  -1   16.80    0.76
   0   7  -1   18.89    0.64
   0   7  -1   18.75    0.76
   0   7  -1   18.98    0.82
   0   7  -1   18.34    0.84
   0  -7   1   19.41    0.73
   0  -7   1   18.63    0.90
   0  -7   1   20.16    0.92
   0  -7   1   19.59    0.98
   0  -7   1   18.72    0.79
  -1   7  -1   11.38    0.69
  -1   7  -1   10.23    0.65
  -1   7  -1   11.74    0.71
  -1   7  -1   11.51    0.68
   1  -7   1   12.32    0.51
   1  -7   1   11.28    0.74
   1  -7   1   11.46    0.52
   1  -7   1   11.38    0.67
   1  -7   1   11.45    0.70
   1  -7   1   11.39    0.54
  -2   7  -1   25.72    1.02
  -2   7  -1   23.04    1.03
  -2   7  -1   23.82    1.02
  -2   7  -1   22.97    0.97
  -2   7  -1   26.47    0.98
   2  -7   1   25.11    1.03
   2  -7   1   23.35    0.92
   2  -7   1   24.65    0.89
   2  -7   1   24.67    0.72
   2  -7   1   25.18    1.03
  -3   7  -1   -0.05    0.44
  -3   7  -1   -0.03    0.43
  -3   7  -1    0.30    0.45
  -3   7  -1    0.14    0.46
  -3   7  -1    0.75    0.44
   3  -7   1    0.09    0.27
   3  -7   1    0.56    0.44
   3  -7   1    1.07    0.49
   3  -7   1   -0.45    0.41
   3  -7   1    0.37    0.35
  -4   7  -1    0.55    0.56
  -4   7  -1    1.14    0.60
  -4   7  -1    0.67    0.53
   4  -7   1    1.11    0.61
   4  -7   1    1.09    0.40
   4  -7   1    2.54    0.65
   4  -7   1    0.22    0.39
  -5   7  -1    0.88    0.61
  -5   7  -1   -0.30    0.61
  -5   7  -1    1.45    0.76
   5  -7   1    1.74    0.80
   5  -7   1    0.61    0.70
   5   6  -1    4.81    0.91
   5   6  -1    4.41    0.95
  -5  -6   1    4.24    1.00
  -5  -6   1    5.47    0.94
   4   6  -1    1.79    0.68
   4   6  -1    1.63    0.70
  -4  -6   1    1.48    0.71
  -4  -6   1    2.17    0.68
  -4  -6   1    0.66    0.59
   3   6  -1    4.40    0.66
   3   6  -1    4.31    0.65
  -3  -6   1    4.76    0.70
  -3  -6   1    4.16    0.71
  -3  -6   1    5.36    0.84
  -3  -6   1    5.23    0.70
   2   6  -1    2.43    0.47
   2   6  -1    3.20    0.54
   2   6  -1    2.68    0.25
  -2  -6   1    2.46    0.45
  -2  -6   1    2.15    0.53
  -2  -6   1    3.33    0.60
  -2  -6   1    2.24    0.57
   1   6  -1    6.13    0.45
   1   6  -1    6.40    0.53
  -1  -6   1    6.21    0.66
  -1  -6   1    6.96    0.57
  -1  -6   1    6.58    0.63
  -1  -6   1    5.80    0.60
   0   6  -1    1.05    0.34
   0   6  -1    0.58    0.29
   0   6  -1    0.95    0.24
   0   6  -1    0.90    0.33
   0   6  -1    1.04    0.35
   0  -6   1    0.83    0.12
   0  -6   1    0.89    0.40
   0  -6   1    0.45    0.12
   0  -6   1    1.21    0.12
   0  -6   1    1.85    0.44
   0  -6   1    0.81    0.30
   0  -6   1    1.23    0.29
  -1   6  -1    1.68    0.41
  -1   6  -1    1.80    0.36
  -1   6  -1    1.41    0.35
  -1   6  -1    1.37    0.36
  -1   6  -1    1.98    0.38
   1  -6   1    2.24    0.40
   1  -6   1    2.09    0.42
   1  -6   1    1.97    0.27
   1  -6   1    1.36    0.27
  -2   6  -1    2.36    0.45
  -2   6  -1    2.98    0.50
  -2   6  -1    2.27    0.41
  -2   6  -1    3.03    0.47
  -2   6  -1    2.91    0.43
   2  -6   1    2.33    0.41
   2  -6   1    2.83    0.46
   2  -6   1    2.96    0.31
   2  -6   1    2.31    0.41
  -3   6  -1    1.44    0.47
  -3   6  -1    2.52    0.49
  -3   6  -1    2.25    0.45
  -3   6  -1    1.85    0.51
   3  -6   1    1.82    0.52
   3  -6   1    1.24    0.46
   3  -6   1    1.90    0.36
   3  -6   1    2.83    0.40
   3  -6   1    1.61    0.39
  -4   6  -1    0.46    0.51
  -4   6  -1   -0.11    0.51
  -4   6  -1    0.42    0.52
   4  -6   1   -0.13    0.35
   4  -6   1   -0.13    0.51
   4  -6   1   -0.13    0.59
   4  -6   1   -0.50    0.31
  -5   6  -1   -0.34    0.60
  -5   6  -1   -0.83    0.49
  -5   6  -1   -0.02    0.61
   5  -6   1    0.29    0.80
   5  -6   1    0.38    0.68
  -6   6  -1    0.27    0.79
  -6   6  -1    0.26    0.65
  -6   6  -1   -0.17    0.71
   6  -6   1    0.52    1.02
   5   5  -1    1.12    0.75
   5   5  -1    2.86    0.83
  -5  -5   1    1.90    0.81
  -5  -5   1    1.98    0.68
   4   5  -1    3.17    0.55
   4   5  -1    2.21    0.68
   4   5  -1    2.42    0.67
   4   5  -1    2.69    0.68
  -4  -5   1    2.63    0.69
  -4  -5   1    3.17    0.69
  -4  -5   1    2.71    0.66
   3   5  -1    0.33    0.50
   3   5  -1    0.75    0.43
   3   5  -1    0.71    0.26
   3   5  -1    0.87    0.50
   3   5  -1    1.24    0.34
  -3  -5   1    1.17    0.49
  -3  -5   1    0.31    0.43
  -3  -5   1    0.49    0.52
  -3  -5   1   -0.10    0.40
   2   5  -1    1.91    0.43
   2   5  -1    1.69    0.18
   2   5  -1    1.91    0.26
   2   5  -1    2.05    0.42
  -2  -5   1    1.19    0.43
  -2  -5   1    2.10    0.45
  -2  -5   1    1.86    0.51
  -2  -5   1    1.37    0.38
   1   5  -1   36.98    0.89
   1   5  -1   36.62    1.00
   1   5  -1   36.90    1.06
  -1  -5   1   35.95    1.17
  -1  -5   1   37.89    1.11
  -1  -5   1   35.57    1.00
  -1  -5   1   36.54    1.12
   0   5  -1   31.65    0.89
   0   5  -1   32.31    0.92
   0   5  -1   32.01    0.75
   0   5  -1   30.62    0.86
   0   5  -1   32.91    0.84
   0  -5   1   31.15    0.61
   0  -5   1   33.62    0.58
   0  -5   1   32.94    0.94
   0  -5   1   33.00    0.90
   0  -5   1   33.74    1.02
   0  -5   1   32.10    0.81
   0  -5   1   33.37    0.98
  -1   5  -1   18.85    0.71
  -1   5  -1   19.05    0.72
  -1   5  -1   18.99    0.67
  -1   5  -1   17.93    0.74
  -1   5  -1   19.20    0.69
   1  -5   1   19.29    0.74
   1  -5   1   18.52    0.63
   1  -5   1   18.96    0.56
   1  -5   1   18.38    0.70
  -2   5  -1    6.62    0.57
  -2   5  -1    5.65    0.50
  -2   5  -1    7.51    0.58
  -2   5  -1    5.94    0.49
  -2   5  -1    5.02    0.52
  -2   5  -1    6.81    0.58
   2  -5   1    7.33    0.48
   2  -5   1    5.71    0.50
   2  -5   1    6.26    0.40
   2  -5   1    6.76    0.53
  -3   5  -1   -0.14    0.36
  -3   5  -1   -0.04    0.37
  -3   5  -1    0.37    0.33
  -3   5  -1   -0.04    0.37
   3  -5   1   -0.16    0.38
   3  -5   1    0.53    0.28
   3  -5   1   -0.05    0.37
   3  -5   1    0.39    0.19
   3  -5   1    0.32    0.32
  -4   5  -1    2.19    0.57
  -4   5  -1    3.82    0.63
  -4   5  -1    3.44    0.61
   4  -5   1    2.14    0.40
   4  -5   1    3.28    0.71
   4  -5   1    2.81    0.40
   4  -5   1    2.55    0.45
   4  -5   1    2.80    0.66
  -5   5  -1    9.49    0.94
  -5   5  -1    8.67    0.83
  -5   5  -1    9.30    0.99
   5  -5   1    9.52    1.08
   5  -5   1   10.65    1.11
   5  -5   1   10.09    0.81
  -6   5  -1    2.32    0.75
  -6   5  -1    2.26    0.89
  -6   5  -1    2.32    0.70
   6  -5   1    1.39    1.03
   5   4  -1    8.76    0.96
   5   4  -1    8.99    1.03
   5   4  -1   10.29    0.96
   5   4  -1    8.68    1.05
  -5  -4   1    9.82    0.91
  -5  -4   1    9.04    1.09
   4   4  -1    8.52    0.82
   4   4  -1    9.21    0.76
   4   4  -1   10.58    0.96
   4   4  -1   10.05    0.81
   4   4  -1    9.06    0.90
  -4  -4   1   10.42    0.84
  -4  -4   1   10.19    0.70
  -4  -4   1    7.86    0.87
   3   4  -1    0.86    0.33
   3   4  -1    0.55    0.44
   3   4  -1    0.49    0.40
   3   4  -1    0.63    0.43
   3   4  -1    0.86    0.29
  -3  -4   1    0.50    0.47
  -3  -4   1    1.08    0.41
  -3  -4   1    0.49    0.38
  -3  -4   1    0.04    0.42
  -3  -4   1    0.48    0.30
   2   4  -1   15.22    0.76
   2   4  -1   14.58    0.48
   2   4  -1   14.28    0.53
   2   4  -1   15.36    0.73
   2   4  -1   14.84    0.72
  -2  -4   1   13.86    0.71
  -2  -4   1   13.47    0.69
  -2  -4   1   14.08    0.79
  -2  -4   1   14.18    0.74
   1   4  -1    4.56    0.41
   1   4  -1    3.91    0.46
   1   4  -1    4.78    0.22
   1   4  -1    4.45    0.43
  -1  -4   1    3.99    0.38
  -1  -4   1    4.31    0.44
  -1  -4   1    4.38    0.45
  -1  -4   1    4.86    0.51
  -1  -4   1    4.37    0.44
   0   4  -1   17.03    0.57
   0   4  -1   16.52    0.54
   0   4  -1   16.62    0.62
   0   4  -1   17.33    0.47
   0   4  -1   16.92    0.63
   0   4  -1   16.65    0.58
   0  -4   1   17.71    0.36
   0  -4   1   16.66    0.40
   0  -4   1   17.03    0.55
   0  -4   1   15.89    0.64
   0  -4   1   17.06    0.59
  -1   4  -1    3.56    0.37
  -1   4  -1    3.68    0.37
  -1   4  -1    3.80    0.41
  -1   4  -1    4.09    0.37
  -1   4  -1    3.96    0.36
   1  -4   1    3.50    0.21
   1  -4   1    2.41    0.35
   1  -4   1    3.23    0.32
   1  -4   1    3.67    0.28
  -2   4  -1    4.14    0.45
  -2   4  -1    4.65    0.48
  -2   4  -1    4.42    0.45
  -2   4  -1    5.28    0.46
  -2   4  -1    3.82    0.38
   2  -4   1    3.90    0.46
   2  -4   1    4.34    0.22
   2  -4   1    4.31    0.45
   2  -4   1    4.50    0.37
  -3   4  -1    3.63    0.46
  -3   4  -1    3.36    0.49
  -3   4  -1    3.10    0.48
   3  -4   1    2.96    0.38
   3  -4   1    3.20    0.51
   3  -4   1    3.30    0.53
   3  -4   1    3.74    0.35
   3  -4   1    3.68    0.36
  -4   4  -1    0.32    0.43
  -4   4  -1    0.13    0.43
  -4   4  -1   -0.16    0.41
   4  -4   1    1.00    0.38
   4  -4   1    0.19    0.30
   4  -4   1   -0.36    0.32
   4  -4   1    0.38    0.50
   4  -4   1   -0.19    0.49
  -5   4  -1    6.33    0.82
  -5   4  -1    6.77    0.74
  -5   4  -1    6.44    0.78
   5  -4   1    6.71    0.63
   5  -4   1    5.66    0.65
   5  -4   1    5.69    0.68
   5  -4   1    5.38    0.89
   5  -4   1    6.87    0.96
  -6   4  -1    1.58    0.77
  -6   4  -1    1.98    0.62
  -6   4  -1    1.92    0.75
   6  -4   1    2.46    0.95
   6   3  -1    9.65    1.14
   6   3  -1    9.59    1.20
   6   3  -1    9.74    1.05
  -6  -3   1    8.69    1.09
   5   3  -1    3.03    0.73
   5   3  -1    2.50    0.72
   5   3  -1    2.91    0.69
   5   3  -1    3.76    0.81
   5   3  -1    3.44    0.68
  -5  -3   1    4.49    0.84
  -5  -3   1    3.86    0.61
   4   3  -1    1.98    0.57
   4   3  -1    2.04    0.53
   4   3  -1    3.58    0.54
   4   3  -1    3.01    0.63
   4   3  -1    3.08    0.63
  -4  -3   1    2.71    0.54
  -4  -3   1    2.39    0.65
  -4  -3   1    2.02    0.44
   3   3  -1   20.90    0.83
   3   3  -1   19.81    0.87
   3   3  -1   20.96    0.79
   3   3  -1   19.61    0.91
   3   3  -1   22.57    0.98
  -3  -3   1   19.10    0.98
  -3  -3   1   20.32    0.66
  -3  -3   1   21.42    0.86
  -3  -3   1   19.09    0.91
   2   3  -1  103.16    2.03
   2   3  -1  102.91    2.02
   2   3  -1  101.49    1.85
   2   3  -1  102.42    1.81
   2   3  -1   99.39    2.03
   2   3  -1  103.28    2.08
  -2  -3   1  101.95    2.06
  -2  -3   1  101.31    2.11
  -2  -3   1   99.14    1.96
  -2  -3   1  102.37    2.00
   1   3  -1  228.29    3.71
   1   3  -1  228.27    3.75
   1   3  -1  227.96    3.73
   1   3  -1  229.91    3.70
   1   3  -1  235.21    3.45
   1   3  -1  235.11    3.70
  -1  -3   1  225.96    3.74
  -1  -3   1  227.70    3.69
  -1  -3   1  230.00    3.73
  -1  -3   1  230.55    3.74
  -1  -3   1  230.18    3.81
   0   3  -1   22.93    0.65
   0   3  -1   23.19    0.62
   0   3  -1   22.87    0.62
   0   3  -1   22.83    0.57
   0   3  -1   22.10    0.63
   0   3  -1   22.72    0.52
   0   3  -1   22.93    0.57
   0   3  -1   22.78    0.46
   0  -3   1   21.89    0.62
   0  -3   1   21.75    0.46
   0  -3   1   22.78    0.67
   0  -3   1   23.00    0.58
  -1   3  -1  132.88    2.30
  -1   3  -1  132.19    2.26
  -1   3  -1  131.92    2.32
  -1   3  -1  133.81    2.22
  -1   3  -1  135.19    2.24
  -1   3  -1  133.00    2.27
   1  -3   1  134.46    2.14
   1  -3   1  132.32    2.26
   1  -3   1  133.34    1.94
  -2   3  -1    1.48    0.31
  -2   3  -1    1.06    0.28
  -2   3  -1    1.34    0.33
  -2   3  -1    1.27    0.33
   2  -3   1    1.01    0.25
   2  -3   1    0.96    0.34
   2  -3   1    1.46    0.24
   2  -3   1    1.32    0.21
   2  -3   1    0.98    0.33
  -3   3  -1    0.18    0.25
  -3   3  -1    0.29    0.33
  -3   3  -1    0.18    0.32
  -3   3  -1   -0.02    0.32
   3  -3   1    0.43    0.38
   3  -3   1   -0.06    0.36
   3  -3   1   -0.52    0.21
   3  -3   1   -0.19    0.25
   3  -3   1   -0.18    0.24
  -4   3  -1    0.75    0.46
  -4   3  -1    0.57    0.40
  -4   3  -1    0.47    0.42
   4  -3   1    0.25    0.49
   4  -3   1    0.45    0.34
   4  -3   1    0.10    0.35
   4  -3   1    1.14    0.40
   4  -3   1   -0.15    0.48
  -5   3  -1   -0.30    0.44
  -5   3  -1    0.11    0.53
  -5   3  -1    0.49    0.55
   5  -3   1    1.40    0.49
   5  -3   1   -0.29    0.45
   5  -3   1    0.22    0.61
   5  -3   1   -0.27    0.61
   5  -3   1    0.15    0.40
  -6   3  -1    0.35    0.65
  -6   3  -1   -0.76    0.71
   6  -3   1   -0.28    0.90
   6  -3   1    0.42    0.62
   6   2  -1    7.80    1.03
   6   2  -1    9.58    1.06
   6   2  -1    9.03    1.16
   6   2  -1    7.64    0.97
  -6  -2   1    9.16    1.07
   5   2  -1    2.32    0.70
   5   2  -1    2.88    0.74
   5   2  -1    2.86    0.62
   5   2  -1    3.87    0.75
   5   2  -1    2.23    0.62
  -5  -2   1    3.97    0.59
  -5  -2   1    3.15    0.73
  -5  -2   1    3.10    0.58
   4   2  -1   16.52    0.92
   4   2  -1   15.73    0.96
   4   2  -1   18.45    0.95
   4   2  -1   18.45    0.98
   4   2  -1   15.89    0.99
  -4  -2   1   18.06    0.85
  -4  -2   1   17.52    0.84
  -4  -2   1   16.93    0.94
   3   2  -1    1.38    0.39
   3   2  -1    1.81    0.45
   3   2  -1    1.43    0.38
   3   2  -1    2.41    0.44
   3   2  -1    1.29    0.36
   3   2  -1    1.78    0.40
  -3  -2   1    1.29    0.40
  -3  -2   1    1.79    0.22
  -3  -2   1    1.71    0.37
   2   2  -1    7.95    0.52
   2   2  -1    8.35    0.48
   2   2  -1    8.99    0.55
   2   2  -1    7.85    0.55
   2   2  -1    8.39    0.52
   2   2  -1    8.51    0.55
  -2  -2   1    8.18    0.52
  -2  -2   1    8.30    0.55
  -2  -2   1    8.43    0.55
  -2  -2   1    8.64    0.50
  -2  -2   1    8.77    0.62
   1   2  -1  183.09    2.86
   1   2  -1  176.14    2.70
   1   2  -1  174.21    2.87
   1   2  -1  176.13    2.85
   1   2  -1  177.39    2.86
   1   2  -1  177.05    2.88
  -1  -2   1  171.87    2.82
  -1  -2   1  177.73    2.64
  -1  -2   1  178.31    2.93
  -1  -2   1  167.42    2.86
  -1  -2   1  173.84    2.87
  -1  -2   1  173.52    2.84
   0   2  -1    8.72    0.38
   0   2  -1    9.22    0.34
   0   2  -1    9.34    0.33
   0   2  -1    8.96    0.29
   0   2  -1    8.97    0.34
   0   2  -1    9.19    0.30
   0   2  -1    9.16    0.26
   0  -2   1    8.29    0.26
   0  -2   1    9.52    0.40
   0  -2   1    9.17    0.37
   0  -2   1    9.12    0.30
   0  -2   1    8.59    0.32
   0  -2   1    9.24    0.29
   0  -2   1    9.34    0.21
  -1   2  -1    1.86    0.24
  -1   2  -1    1.80    0.27
  -1   2  -1    2.53    0.30
  -1   2  -1    2.31    0.29
  -1   2  -1    1.75    0.28
  -1   2  -1    2.14    0.15
  -1   2  -1    1.91    0.29
   1  -2   1    1.79    0.14
   1  -2   1    1.13    0.28
   1  -2   1    2.22    0.22
   1  -2   1    1.69    0.28
  -2   2  -1    6.23    0.42
  -2   2  -1    5.62    0.43
  -2   2  -1    5.40    0.39
  -2   2  -1    6.20    0.47
   2  -2   1    5.03    0.37
   2  -2   1    5.69    0.48
   2  -2   1    6.26    0.50
   2  -2   1    5.97    0.35
   2  -2   1    5.46    0.37
  -3   2  -1    0.50    0.37
  -3   2  -1    0.30    0.28
  -3   2  -1    0.32    0.30
  -3   2  -1    0.55    0.27
  -3   2  -1    0.31    0.26
   3  -2   1    0.56    0.24
   3  -2   1    0.12    0.36
   3  -2   1    0.59    0.29
   3  -2   1    0.22    0.26
   3  -2   1   -0.22    0.32
  -4   2  -1    2.11    0.43
  -4   2  -1    2.43    0.42
  -4   2  -1    2.21    0.48
  -4   2  -1    2.88    0.55
   4  -2   1    2.03    0.55
   4  -2   1    3.38    0.45
   4  -2   1    1.93    0.57
   4  -2   1    1.48    0.47
   4  -2   1    2.11    0.47
  -5   2  -1    0.43    0.42
  -5   2  -1    0.25    0.52
  -5   2  -1    0.92    0.57
   5  -2   1    1.17    0.53
   5  -2   1    0.52    0.64
   5  -2   1    0.42    0.64
   5  -2   1    0.64    0.45
   5  -2   1    0.88    0.57
  -6   2  -1   -0.54    0.64
  -6   2  -1    1.61    0.64
   6  -2   1   -0.61    0.62
   6  -2   1    0.27    0.57
   6  -2   1    0.33    0.76
   6   1  -1   -1.02    0.61
   6   1  -1    0.13    0.69
   6   1  -1    0.96    0.82
   6   1  -1   -1.06    0.56
  -6  -1   1   -0.23    0.66
  -6  -1   1    0.28    0.65
   5   1  -1    0.73    0.56
   5   1  -1   -0.54    0.53
   5   1  -1    0.02    0.61
   5   1  -1    0.51    0.59
   5   1  -1    0.18    0.57
  -5  -1   1   -0.19    0.39
  -5  -1   1   -0.22    0.50
  -5  -1   1   -0.25    0.44
   4   1  -1    9.24    0.78
   4   1  -1   10.42    0.79
   4   1  -1   10.42    0.81
   4   1  -1   11.31    0.83
   4   1  -1    9.94    0.73
  -4  -1   1    9.77    0.68
  -4  -1   1    9.80    0.70
  -4  -1   1   10.50    0.46
  -4  -1   1    9.63    0.78
   3   1  -1    0.09    0.30
   3   1  -1   -0.01    0.34
   3   1  -1   -0.14    0.32
   3   1  -1    0.06    0.32
   3   1  -1    0.62    0.31
   3   1  -1   -0.59    0.28
  -3  -1   1    0.15    0.16
  -3  -1   1    0.02    0.30
  -3  -1   1   -0.13    0.27
  -3  -1   1   -0.07    0.23
   2   1  -1  128.51    2.37
   2   1  -1  133.41    2.34
   2   1  -1  136.65    2.41
   2   1  -1  131.56    2.33
   2   1  -1  127.94    2.31
   2   1  -1  135.17    2.40
  -2  -1   1  133.03    2.24
  -2  -1   1  133.62    2.40
  -2  -1   1  133.03    2.40
  -2  -1   1  133.86    2.38
  -2  -1   1  137.45    2.05
   1   1  -1   69.66    1.27
   1   1  -1   68.64    1.25
   1   1  -1   66.94    1.27
   1   1  -1   69.55    1.25
   1   1  -1   72.29    1.29
  -1  -1   1   67.77    1.26
  -1  -1   1   68.07    1.19
  -1  -1   1   67.53    1.26
  -1  -1   1   69.08    1.28
  -1  -1   1   70.05    1.29
   0   1  -1   30.12    0.53
   0   1  -1   30.39    0.48
   0   1  -1   30.85    0.50
   0   1  -1   30.67    0.54
   0   1  -1   29.22    0.52
   0   1  -1   30.45    0.57
   0   1  -1   29.98    0.55
   0   1  -1   31.17    0.53
   0   1  -1   29.88    0.54
   0   1  -1   30.48    0.57
   0  -1   1   29.18    0.52
   0  -1   1   30.64    0.56
   0  -1   1   29.77    0.53
   0  -1   1   29.62    0.56
   0  -1   1   30.21    0.50
   0  -1   1   29.67    0.52
   0  -1   1   29.75    0.54
   0  -1   1   29.56    0.57
   0  -1   1   30.45    0.54
   0  -1   1   30.17    0.52
   0  -1   1   30.56    0.48
  -1   1  -1  353.14    5.22
  -1   1  -1  364.14    5.33
  -1   1  -1  349.23    5.38
  -1   1  -1  352.80    5.39
  -1   1  -1  355.57    5.23
  -1   1  -1  355.54    5.35
  -1   1  -1  345.40    5.51
  -1   1  -1  353.16    5.22
  -1   1  -1  356.97    5.56
   1  -1   1  348.21    5.28
   1  -1   1  348.18    5.34
   1  -1   1  345.11    5.40
   1  -1   1  365.64    5.34
   1  -1   1  357.51    5.38
  -2   1  -1    0.20    0.26
  -2   1  -1    0.08    0.23
  -2   1  -1    0.19    0.27
  -2   1  -1   -0.09    0.21
  -2   1  -1    0.26    0.21
   2  -1   1    0.12    0.30
   2  -1   1   -0.15    0.25
   2  -1   1    0.00    0.27
   2  -1   1    0.67    0.20
   2  -1   1    0.54    0.24
   2  -1   1    0.00    0.17
  -3   1  -1   21.57    0.77
  -3   1  -1   22.92    0.73
  -3   1  -1   24.01    0.82
   3  -1   1   23.23    0.48
   3  -1   1   21.12    0.90
   3  -1   1   22.69    0.74
   3  -1   1   23.14    0.93
   3  -1   1   22.42    0.79
   3  -1   1   21.56    0.80
  -4   1  -1    0.19    0.43
  -4   1  -1   -0.03    0.29
  -4   1  -1    0.14    0.36
  -4   1  -1   -0.22    0.33
   4  -1   1    0.26    0.35
   4  -1   1   -0.74    0.44
   4  -1   1   -0.08    0.35
   4  -1   1    0.09    0.42
   4  -1   1   -0.06    0.37
  -5   1  -1   -0.11    0.43
  -5   1  -1    0.16    0.44
  -5   1  -1    0.24    0.37
  -5   1  -1    0.42    0.56
   5  -1   1    0.23    0.47
   5  -1   1    0.05    0.57
   5  -1   1    1.03    0.55
   5  -1   1    1.28    0.65
   5  -1   1    0.73    0.63
  -6   1  -1   -0.42    0.63
   6  -1   1    0.20    0.61
   6  -1   1    0.15    0.54
   6  -1   1   -0.10    0.62
   6  -1   1   -1.13    0.71
   6   0  -1    3.89    0.72
   6   0  -1    4.18    0.87
   6   0  -1    3.31    0.80
   6   0  -1    4.93    0.99
   6   0  -1    3.68    0.99
  -6   0   1    4.30    0.73
  -6   0   1    3.58    0.83
   5   0  -1    6.94    0.94
   5   0  -1    5.78    0.76
   5   0  -1    6.14    0.70
   5   0  -1    4.43    0.75
   5   0  -1    5.65    0.80
  -5   0   1    6.47    0.71
  -5   0   1    6.03    0.71
  -5   0   1    7.03    0.86
   4   0  -1    3.88    0.62
   4   0  -1    4.76    0.61
   4   0  -1    4.29    0.62
   4   0  -1    4.82    0.56
   4   0  -1    5.24    0.66
  -4   0   1    4.42    0.55
  -4   0   1    5.44    0.40
  -4   0   1    4.09    0.53
  -4   0   1    4.67    0.49
   3   0  -1    4.73    0.44
   3   0  -1    4.33    0.50
   3   0  -1    5.01    0.47
   3   0  -1    3.95    0.48
   3   0  -1    4.78    0.52
   3   0  -1    5.16    0.50
  -3   0   1    4.76    0.46
  -3   0   1    4.03    0.32
  -3   0   1    4.86    0.41
  -3   0   1    5.55    0.46
   2   0  -1   93.76    1.81
   2   0  -1   94.14    1.75
   2   0  -1   94.99    1.81
   2   0  -1   97.91    1.81
   2   0  -1   96.08    1.73
  -2   0   1   98.44    1.74
  -2   0   1   99.49    1.83
  -2   0   1   94.29    1.75
  -2   0   1   97.35    1.67
  -2   0   1   95.38    1.58
   1   0  -1  190.35    2.95
   1   0  -1  200.55    2.92
   1   0  -1  196.20    2.84
   1   0  -1  183.86    2.97
   1   0  -1  192.08    2.97
   1   0  -1  187.95    2.85
   1   0  -1  191.43    2.93
   1   0  -1  190.46    2.97
  -1   0   1  192.45    2.83
  -1   0   1  192.73    2.92
  -1   0   1  190.47    2.86
  -1   0   1  192.78    2.98
   0   0  -1    0.00    0.03
   0   0  -1   -0.02    0.03
   0   0  -1   -0.03    0.04
   0   0  -1    0.07    0.05
   0   0  -1   -0.03    0.05
   0   0   1    0.04    0.04
   0   0   1   -0.05    0.04
   0   0   1    0.06    0.05
   0   0   1    0.03    0.05
   0   0   1    0.04    0.04
  -1   0  -1  481.41    7.67
  -1   0  -1  488.88    7.87
  -1   0  -1  480.36    7.32
  -1   0  -1  482.72    7.75
  -1   0  -1  475.73    7.77
  -1   0  -1  483.89    7.36
   1   0   1  494.62    7.27
   1   0   1  478.84    7.29
   1   0   1  473.86    7.35
   1   0   1  468.13    7.63
   1   0   1  474.77    7.68
   1   0   1  475.34    7.44
   1   0   1  482.33    7.35
  -2   0  -1    0.17    0.29
  -2   0  -1    0.13    0.14
  -2   0  -1    0.19    0.23
  -2   0  -1    0.07    0.22
  -2   0  -1   -0.02    0.25
   2   0   1   -0.38    0.28
   2   0   1    0.07    0.25
   2   0   1   -0.24    0.27
   2   0   1   -0.02    0.23
   2   0   1    0.23    0.28
   2   0   1    0.08    0.14
   2   0   1    0.33    0.28
  -3   0  -1   42.77    1.17
  -3   0  -1   43.58    1.15
  -3   0  -1   43.94    1.01
  -3   0  -1   43.64    1.09
   3   0   1   43.29    1.21
   3   0   1   43.65    1.18
   3   0   1   44.38    1.30
   3   0   1   46.10    1.13
   3   0   1   45.04    1.26
  -4   0  -1    3.06    0.39
  -4   0  -1    3.31    0.48
  -4   0  -1    3.06    0.55
  -4   0  -1    3.23    0.50
   4   0   1    2.98    0.54
   4   0   1    3.28    0.51
   4   0   1    2.68    0.58
   4   0   1    4.43    0.58
   4   0   1    3.40    0.57
  -5   0  -1   -0.44    0.49
  -5   0  -1    0.10    0.45
   5   0   1   -0.61    0.52
   5   0   1   -1.40    0.49
   5   0   1   -0.01    0.58
   5   0   1   -0.57    0.58
   5   0   1    0.33    0.51
  -6   0  -1    1.45    0.76
   6   0   1    1.65    0.64
   6   0   1    3.04    0.86
   6   0   1    2.00    0.84
   6   0   1    1.03    0.73
   6  -1  -1    0.42    0.87
   6  -1  -1   -1.12    0.64
   6  -1  -1    1.52    0.64
   6  -1  -1   -0.73    0.54
  -6   1   1   -0.47    0.54
  -6   1   1   -0.89    0.58
   5  -1  -1    6.12    0.67
   5  -1  -1    6.22    0.85
   5  -1  -1    5.74    0.85
   5  -1  -1    5.82    0.80
   5  -1  -1    5.55    0.81
  -5   1   1    6.44    0.79
  -5   1   1    5.29    0.50
  -5   1   1    5.80    0.62
  -5   1   1    6.21    0.70
   4  -1  -1    0.52    0.35
   4  -1  -1    0.27    0.39
   4  -1  -1    1.20    0.49
   4  -1  -1    1.18    0.55
   4  -1  -1    0.58    0.35
   4  -1  -1    0.67    0.47
  -4   1   1    1.11    0.35
  -4   1   1    1.11    0.39
  -4   1   1    0.79    0.29
  -4   1   1    0.44    0.41
   3  -1  -1    1.24    0.33
   3  -1  -1    0.64    0.36
   3  -1  -1    1.26    0.34
   3  -1  -1    1.34    0.30
   3  -1  -1    1.26    0.35
   3  -1  -1    1.05    0.39
  -3   1   1    1.08    0.35
  -3   1   1    1.42    0.26
  -3   1   1    1.18    0.33
  -3   1   1    1.44    0.30
   2  -1  -1   32.32    0.55
   2  -1  -1   32.56    0.81
   2  -1  -1   32.59    0.75
   2  -1  -1   32.05    0.84
   2  -1  -1   31.44    0.81
  -2   1   1   30.69    0.84
  -2   1   1   32.28    0.85
  -2   1   1   31.31    0.73
  -2   1   1   32.47    0.73
  -2   1   1   31.18    0.83
   1  -1  -1    4.19    0.31
   1  -1  -1    4.43    0.23
   1  -1  -1    4.20    0.17
   1  -1  -1    4.37    0.29
   1  -1  -1    3.65    0.27
  -1   1   1    4.81    0.30
  -1   1   1    4.03    0.16
  -1   1   1    4.16    0.31
  -1   1   1    4.41    0.31
  -1   1   1    4.41    0.31
  -1   1   1    4.09    0.31
  -1   1   1    4.06    0.22
   0  -1  -1  155.70    2.43
   0  -1  -1  156.48    2.30
   0  -1  -1  152.81    2.32
   0  -1  -1  152.92    2.55
   0  -1  -1  150.75    2.47
   0  -1  -1  157.36    2.35
   0  -1  -1  154.13    2.32
   0  -1  -1  157.93    2.33
   0  -1  -1  156.63    2.37
   0   1   1  154.52    2.30
   0   1   1  154.00    2.42
   0   1   1  157.26    2.37
   0   1   1  155.67    2.45
   0   1   1  153.09    2.32
   0   1   1  157.16    2.35
   0   1   1  152.38    2.31
  -1  -1  -1   10.56    0.44
  -1  -1  -1    9.37    0.44
  -1  -1  -1   10.07    0.44
  -1  -1  -1    9.56    0.39
  -1  -1  -1   10.14    0.48
  -1  -1  -1    9.53    0.38
   1   1   1    9.97    0.41
   1   1   1   10.45    0.41
   1   1   1   10.28    0.45
   1   1   1    9.34    0.36
   1   1   1    9.87    0.44
   1   1   1    9.74    0.46
  -2  -1  -1    0.51    0.21
  -2  -1  -1    0.56    0.26
  -2  -1  -1    0.49    0.31
  -2  -1  -1    0.46    0.31
  -2  -1  -1    0.54    0.18
   2   1   1    0.43    0.24
   2   1   1    0.63    0.25
   2   1   1    0.45    0.31
   2   1   1    0.59    0.30
   2   1   1    0.55    0.29
   2   1   1    0.05    0.28
  -3  -1  -1   21.31    0.73
  -3  -1  -1   21.68    0.84
  -3  -1  -1   21.94    0.54
  -3  -1  -1   21.12    0.87
   3   1   1   22.57    0.88
   3   1   1   21.31    0.79
   3   1   1   22.65    0.88
   3   1   1   21.26    0.84
   3   1   1   22.50    0.90
  -4  -1  -1   -0.34    0.37
  -4  -1  -1    0.86    0.29
  -4  -1  -1   -0.11    0.46
  -4  -1  -1    0.51    0.35
   4   1   1    0.60    0.39
   4   1   1   -0.04    0.50
   4   1   1   -0.17    0.41
   4   1   1    0.03    0.44
   4   1   1   -0.08    0.42
  -5  -1  -1    1.09    0.62
  -5  -1  -1    0.73    0.51
  -5  -1  -1    1.84    0.48
   5   1   1    1.71    0.67
   5   1   1    0.84    0.64
   5   1   1    0.92    0.65
   5   1   1    1.23    0.53
   5   1   1    0.24    0.57
  -6  -1  -1    1.13    0.74
   6   1   1    0.58    0.76
   6   1   1    0.70    0.73
   6   1   1    0.01    0.83
   6   1   1    1.31    0.76
   6   1   1    1.66    0.66
   6  -2  -1    1.95    0.72
   6  -2  -1    1.09    0.59
   6  -2  -1    1.78    0.64
   6  -2  -1   -0.06    0.79
  -6   2   1    1.46    0.66
  -6   2   1    0.66    0.73
   5  -2  -1   -0.02    0.53
   5  -2  -1   -0.08    0.53
   5  -2  -1   -0.27    0.40
   5  -2  -1    0.18    0.59
   5  -2  -1    0.22    0.59
  -5   2   1    0.47    0.37
  -5   2   1    0.59    0.53
  -5   2   1   -0.53    0.48
   4  -2  -1    1.04    0.38
   4  -2  -1    0.35    0.37
   4  -2  -1    0.55    0.48
   4  -2  -1    0.02    0.46
   4  -2  -1   -0.14    0.33
   4  -2  -1    0.22    0.30
  -4   2   1   -0.27    0.40
  -4   2   1    0.16    0.43
  -4   2   1    0.38    0.32
  -4   2   1    0.49    0.29
   3  -2  -1   10.61    0.48
   3  -2  -1   11.12    0.65
   3  -2  -1   11.21    0.57
   3  -2  -1   12.45    0.59
   3  -2  -1   12.05    0.74
  -3   2   1   11.63    0.47
  -3   2   1   11.62    0.56
  -3   2   1   11.19    0.65
  -3   2   1   11.43    0.65
   2  -2  -1   19.71    0.46
   2  -2  -1   19.18    0.61
   2  -2  -1   20.25    0.51
   2  -2  -1   18.04    0.57
   2  -2  -1   18.72    0.63
  -2   2   1   17.78    0.66
  -2   2   1   18.81    0.69
  -2   2   1   19.36    0.65
  -2   2   1   19.60    0.63
   1  -2  -1   53.55    0.89
  -1   2   1   53.01    1.04
  -1   2   1   52.14    1.04
  -1   2   1   55.61    1.08
  -1   2   1   54.25    1.07
  -1   2   1   53.78    1.05
  -1   2   1   52.57    1.10
   0  -2  -1  226.92    3.62
   0  -2  -1  232.50    3.56
   0  -2  -1  240.79    3.67
   0  -2  -1  235.45    3.59
   0  -2  -1  231.95    3.49
   0   2   1  228.46    3.57
   0   2   1  239.43    3.47
   0   2   1  232.90    3.58
   0   2   1  234.79    3.56
   0   2   1  235.50    3.56
   0   2   1  236.01    3.53
   0   2   1  237.74    3.49
   0   2   1  232.27    3.53
  -1  -2  -1   48.97    1.07
  -1  -2  -1   47.65    0.97
  -1  -2  -1   49.56    0.90
  -1  -2  -1   49.21    1.08
  -1  -2  -1   49.78    1.12
  -1  -2  -1   47.52    1.05
   1   2   1   48.73    0.96
   1   2   1   49.66    1.04
   1   2   1   50.40    1.07
   1   2   1   49.19    1.08
   1   2   1   48.74    0.90
   1   2   1   49.59    1.06
  -2  -2  -1   25.02    0.69
  -2  -2  -1   26.08    0.82
  -2  -2  -1   25.36    0.83
  -2  -2  -1   24.50    0.88
  -2  -2  -1   24.40    0.85
   2   2   1   24.67    0.73
   2   2   1   25.49    0.86
   2   2   1   25.30    0.85
   2   2   1   24.76    0.81
   2   2   1   26.23    0.77
  -3  -2  -1    0.69    0.33
  -3  -2  -1    0.94    0.27
  -3  -2  -1    0.73    0.23
  -3  -2  -1    0.23    0.44
   3   2   1    1.24    0.37
   3   2   1    0.75    0.33
   3   2   1    0.47    0.37
   3   2   1    0.70    0.39
   3   2   1    0.57    0.38
  -4  -2  -1    1.56    0.53
  -4  -2  -1    0.86    0.48
  -4  -2  -1    1.60    0.38
   4   2   1    1.19    0.45
   4   2   1    0.96    0.50
   4   2   1    1.47    0.47
   4   2   1    0.70    0.53
   4   2   1    1.56    0.53
  -5  -2  -1    5.00    0.70
  -5  -2  -1    6.31    0.92
   5   2   1    4.41    0.78
   5   2   1    3.98    0.68
   5   2   1    4.98    0.74
   5   2   1    6.41    0.93
   5   2   1    6.15    0.83
  -6  -2  -1    1.46    0.79
   6   2   1   -0.24    0.71
   6   2   1    0.65    0.72
   6   2   1    0.32    0.57
   6   2   1    0.55    0.81
   6  -3  -1    6.83    0.92
   6  -3  -1    7.63    0.91
   6  -3  -1    7.50    0.83
   6  -3  -1    8.65    1.18
  -6   3   1    9.51    1.08
  -6   3   1    8.86    1.01
   5  -3  -1    6.12    0.87
   5  -3  -1    3.75    0.78
   5  -3  -1    5.67    0.62
   5  -3  -1    4.72    0.66
   5  -3  -1    3.19    0.64
  -5   3   1    4.63    0.75
  -5   3   1    3.46    0.55
  -5   3   1    4.96    0.74
   4  -3  -1    0.21    0.36
   4  -3  -1    0.37    0.41
   4  -3  -1    0.33    0.50
   4  -3  -1    0.68    0.35
   4  -3  -1   -0.44    0.44
  -4   3   1    0.01    0.44
  -4   3   1   -0.45    0.36
  -4   3   1   -0.09    0.31
   3  -3  -1    0.33    0.39
   3  -3  -1    0.14    0.25
   3  -3  -1   -0.25    0.17
   3  -3  -1    0.45    0.31
   3  -3  -1    0.32    0.26
  -3   3   1    0.65    0.34
  -3   3   1    0.50    0.35
  -3   3   1    0.00    0.26
   2  -3  -1    1.70    0.29
   2  -3  -1    2.07    0.17
   2  -3  -1    1.83    0.28
   2  -3  -1    2.15    0.18
   2  -3  -1    1.78    0.23
  -2   3   1    1.68    0.31
  -2   3   1    1.93    0.35
  -2   3   1    2.00    0.34
  -2   3   1    1.88    0.36
  -2   3   1    1.82    0.33
  -2   3   1    2.07    0.38
   1  -3  -1  119.96    1.81
  -1   3   1  119.51    2.07
  -1   3   1  117.68    2.06
  -1   3   1  117.10    2.10
  -1   3   1  117.95    2.05
  -1   3   1  119.58    2.09
  -1   3   1  120.72    2.09
   0  -3  -1    9.86    0.36
   0  -3  -1   10.57    0.48
   0  -3  -1   10.53    0.53
   0  -3  -1   11.07    0.53
   0   3   1    9.88    0.45
   0   3   1   10.18    0.45
   0   3   1   11.17    0.45
   0   3   1   10.61    0.44
   0   3   1   10.27    0.40
  -1  -3  -1    6.02    0.39
  -1  -3  -1    6.26    0.49
  -1  -3  -1    6.55    0.53
  -1  -3  -1    6.25    0.45
  -1  -3  -1    6.96    0.49
   1   3   1    6.16    0.45
   1   3   1    6.39    0.46
   1   3   1    6.28    0.35
   1   3   1    6.58    0.45
   1   3   1    6.56    0.25
  -2  -3  -1    1.54    0.36
  -2  -3  -1    1.59    0.42
  -2  -3  -1    1.73    0.32
  -2  -3  -1    1.25    0.33
  -2  -3  -1    0.32    0.34
   2   3   1    1.17    0.37
   2   3   1    1.18    0.25
   2   3   1    1.55    0.34
   2   3   1    0.83    0.34
   2   3   1    1.40    0.29
  -3  -3  -1    9.68    0.53
  -3  -3  -1   10.43    0.78
  -3  -3  -1    8.78    0.74
  -3  -3  -1    9.80    0.82
  -3  -3  -1    9.45    0.52
   3   3   1    9.92    0.74
   3   3   1    8.74    0.60
   3   3   1    9.69    0.73
   3   3   1    8.19    0.70
   3   3   1    9.36    0.60
  -4  -3  -1    7.31    0.76
  -4  -3  -1    8.26    0.87
  -4  -3  -1    7.32    0.55
   4   3   1    8.79    0.89
   4   3   1    6.95    0.70
   4   3   1    6.52    0.79
   4   3   1    6.44    0.69
   4   3   1    6.88    0.69
  -5  -3  -1    1.05    0.68
  -5  -3  -1    0.97    0.57
   5   3   1    0.40    0.60
   5   3   1    0.42    0.58
   5   3   1    1.13    0.66
   5   3   1    2.07    0.67
   5   3   1    0.58    0.56
  -6  -3  -1    4.74    1.00
   6   3   1    6.15    1.07
   6   3   1    4.54    1.03
   6   3   1    4.26    0.87
   6  -4  -1    8.22    1.21
  -6   4   1    8.67    1.08
  -6   4   1    9.36    1.12
   5  -4  -1    8.53    0.83
   5  -4  -1    7.21    0.73
   5  -4  -1    9.79    1.06
   5  -4  -1    8.29    0.99
   5  -4  -1    8.63    0.72
  -5   4   1    8.54    0.91
  -5   4   1    8.19    0.77
  -5   4   1    9.37    0.93
   4  -4  -1    0.93    0.36
   4  -4  -1    0.41    0.38
   4  -4  -1    0.81    0.38
   4  -4  -1    0.42    0.51
   4  -4  -1    0.89    0.54
  -4   4   1    0.46    0.44
  -4   4   1    0.57    0.42
  -4   4   1    0.42    0.50
   3  -4  -1    3.51    0.26
   3  -4  -1    3.01    0.42
   3  -4  -1    3.13    0.51
   3  -4  -1    3.30    0.35
   3  -4  -1    3.31    0.38
  -3   4   1    3.43    0.45
  -3   4   1    3.96    0.51
  -3   4   1    3.07    0.50
   2  -4  -1   51.40    0.95
   2  -4  -1   51.25    0.87
   2  -4  -1   50.79    1.20
  -2   4   1   51.46    1.23
  -2   4   1   50.58    1.29
  -2   4   1   49.22    1.20
  -2   4   1   49.37    1.21
  -2   4   1   52.47    1.28
  -2   4   1   50.99    1.27
   1  -4  -1   14.27    0.34
   1  -4  -1   13.77    0.49
   1  -4  -1   14.10    0.36
   1  -4  -1   13.13    0.56
  -1   4   1   14.01    0.60
  -1   4   1   13.79    0.58
  -1   4   1   12.47    0.58
  -1   4   1   13.62    0.59
  -1   4   1   13.99    0.57
  -1   4   1   14.50    0.62
   0  -4  -1   52.58    1.29
   0  -4  -1   57.45    1.12
   0  -4  -1   55.28    1.23
   0  -4  -1   57.67    1.28
   0   4   1   57.38    1.12
   0   4   1   58.67    1.24
   0   4   1   54.84    1.20
   0   4   1   58.08    1.22
   0   4   1   58.65    1.21
  -1  -4  -1    6.83    0.57
  -1  -4  -1    5.72    0.49
  -1  -4  -1    6.33    0.43
  -1  -4  -1    6.41    0.53
   1   4   1    6.90    0.53
   1   4   1    6.50    0.33
   1   4   1    7.08    0.46
  -2  -4  -1    5.62    0.51
  -2  -4  -1    4.98    0.59
  -2  -4  -1    6.10    0.50
  -2  -4  -1    5.44    0.55
  -2  -4  -1    5.57    0.57
   2   4   1    5.37    0.42
   2   4   1    5.77    0.53
   2   4   1    4.72    0.53
   2   4   1    4.92    0.33
  -3  -4  -1    0.66    0.44
  -3  -4  -1    1.60    0.49
  -3  -4  -1    0.78    0.51
  -3  -4  -1    1.06    0.35
   3   4   1    0.84    0.45
   3   4   1    0.78    0.45
   3   4   1    0.56    0.37
   3   4   1    0.76    0.29
   3   4   1    1.17    0.42
  -4  -4  -1    0.65    0.55
  -4  -4  -1   -0.05    0.61
   4   4   1   -0.16    0.36
   4   4   1    0.20    0.48
   4   4   1   -0.30    0.49
   4   4   1   -0.06    0.58
   4   4   1    0.48    0.48
  -5  -4  -1    0.59    0.69
  -5  -4  -1   -0.11    0.59
   5   4   1   -0.32    0.62
   5   4   1   -0.55    0.52
   5   4   1   -0.52    0.58
   5   4   1   -1.02    0.53
   6  -5  -1    4.49    1.05
  -6   5   1    6.45    1.02
  -6   5   1    4.53    0.73
  -6   5   1    5.89    0.98
   5  -5  -1   11.83    0.92
   5  -5  -1   11.69    0.82
   5  -5  -1   10.70    1.08
   5  -5  -1   11.35    1.13
  -5   5   1   12.50    1.06
  -5   5   1   10.21    1.01
  -5   5   1    9.79    0.83
   4  -5  -1   10.87    0.75
   4  -5  -1   11.30    0.65
   4  -5  -1   10.32    0.92
   4  -5  -1   10.29    0.68
   4  -5  -1    9.07    0.90
  -4   5   1    9.69    0.85
  -4   5   1   11.20    0.83
  -4   5   1   11.14    0.90
   3  -5  -1    5.66    0.54
   3  -5  -1    5.56    0.37
   3  -5  -1    5.30    0.61
   3  -5  -1    5.41    0.50
  -3   5   1    5.86    0.56
  -3   5   1    5.76    0.62
  -3   5   1    4.52    0.55
  -3   5   1    3.89    0.55
   2  -5  -1   57.69    0.98
   2  -5  -1   58.27    0.97
   2  -5  -1   58.44    1.06
   2  -5  -1   56.74    1.42
  -2   5   1   53.10    1.43
  -2   5   1   58.81    1.45
  -2   5   1   57.67    1.40
  -2   5   1   59.32    1.45
  -2   5   1   58.98    1.40
  -2   5   1   57.99    1.38
   1  -5  -1   15.80    0.58
   1  -5  -1   14.48    0.39
   1  -5  -1   14.14    0.58
   1  -5  -1   15.67    0.57
   1  -5  -1   13.88    0.64
  -1   5   1   16.66    0.67
  -1   5   1   13.54    0.67
  -1   5   1   15.06    0.65
  -1   5   1   14.66    0.64
  -1   5   1   14.88    0.66
  -1   5   1   13.43    0.65
   0  -5  -1    3.12    0.48
   0  -5  -1    3.51    0.40
   0  -5  -1    4.38    0.36
   0  -5  -1    2.87    0.39
   0  -5  -1    2.91    0.19
   0   5   1    3.44    0.39
   0   5   1    3.44    0.40
   0   5   1    3.31    0.40
   0   5   1    3.60    0.40
   0   5   1    3.00    0.30
  -1  -5  -1   17.39    0.66
  -1  -5  -1   18.71    0.84
  -1  -5  -1   18.88    0.85
  -1  -5  -1   19.23    0.79
   1   5   1   18.94    0.71
   1   5   1   18.29    0.51
   1   5   1   19.21    0.73
  -2  -5  -1   12.27    0.84
  -2  -5  -1   10.57    0.65
  -2  -5  -1   11.43    0.75
  -2  -5  -1   10.43    0.81
   2   5   1   11.78    0.72
   2   5   1   11.88    0.38
   2   5   1   11.77    0.55
   2   5   1   12.14    0.74
  -3  -5  -1    2.38    0.69
  -3  -5  -1    1.55    0.55
  -3  -5  -1    2.14    0.55
  -3  -5  -1    1.93    0.46
   3   5   1    1.90    0.43
   3   5   1    1.52    0.47
   3   5   1    2.11    0.53
   3   5   1    1.91    0.31
  -4  -5  -1   -0.41    0.58
  -4  -5  -1   -0.56    0.60
   4   5   1   -1.00    0.54
   4   5   1   -0.34    0.44
   4   5   1   -0.23    0.52
  -5  -5  -1   -0.70    0.65
  -5  -5  -1   -0.29    0.82
   5   5   1   -0.78    0.68
   5   5   1   -0.40    0.60
   6  -6  -1    0.62    1.00
  -6   6   1   -0.53    0.60
  -6   6   1   -0.50    0.68
  -6   6   1    0.38    0.79
   5  -6  -1    0.18    0.67
   5  -6  -1    0.79    0.80
   5  -6  -1    1.46    0.49
   5  -6  -1    0.78    0.45
  -5   6   1    1.06    0.62
  -5   6   1    0.94    0.66
  -5   6   1    1.16    0.66
   4  -6  -1    0.37    0.39
   4  -6  -1    0.58    0.38
   4  -6  -1    0.09    0.54
   4  -6  -1    1.15    0.56
  -4   6   1    1.70    0.58
  -4   6   1    1.07    0.53
  -4   6   1    0.38    0.52
   3  -6  -1    0.41    0.35
   3  -6  -1    0.56    0.24
   3  -6  -1    0.85    0.44
  -3   6   1    0.53    0.42
  -3   6   1    0.69    0.40
  -3   6   1    0.14    0.38
  -3   6   1    0.97    0.45
  -3   6   1    0.82    0.45
  -3   6   1    0.63    0.43
   2  -6  -1   29.03    1.01
   2  -6  -1   30.17    0.59
   2  -6  -1   29.67    0.63
   2  -6  -1   28.74    0.76
   2  -6  -1   28.51    0.97
  -2   6   1   28.17    0.99
  -2   6   1   27.55    1.01
  -2   6   1   28.84    1.01
  -2   6   1   28.07    1.05
  -2   6   1   25.97    1.03
  -2   6   1   28.76    1.04
   1  -6  -1    9.08    0.35
   1  -6  -1    9.04    0.59
   1  -6  -1    9.48    0.63
   1  -6  -1   10.18    0.50
   1  -6  -1    9.59    0.54
  -1   6   1   10.76    0.61
  -1   6   1    8.16    0.57
  -1   6   1   10.22    0.65
  -1   6   1    9.48    0.61
   0  -6  -1   13.07    0.70
   0  -6  -1   12.98    0.58
   0  -6  -1   13.47    0.29
   0  -6  -1   12.90    0.76
   0  -6  -1   12.93    0.72
   0  -6  -1   13.16    0.29
   0   6   1   12.53    0.62
   0   6   1   12.87    0.66
   0   6   1   14.72    0.69
  -1  -6  -1   27.93    1.11
  -1  -6  -1   30.24    0.92
  -1  -6  -1   28.06    1.04
  -1  -6  -1   29.13    1.16
   1   6   1   29.88    0.96
   1   6   1   28.80    0.92
   1   6   1   29.67    1.00
  -2  -6  -1   13.31    0.90
  -2  -6  -1   13.35    0.86
  -2  -6  -1   12.78    0.73
  -2  -6  -1   12.61    0.93
   2   6   1   13.48    0.86
   2   6   1   14.24    0.55
  -3  -6  -1    4.95    0.73
  -3  -6  -1    5.65    0.74
  -3  -6  -1    5.12    0.62
  -3  -6  -1    4.31    0.77
  -3  -6  -1    5.86    0.67
   3   6   1    4.28    0.50
   3   6   1    5.19    0.72
   3   6   1    5.57    0.71
  -4  -6  -1    4.12    0.89
  -4  -6  -1    3.36    0.79
  -4  -6  -1    4.10    0.80
   4   6   1    3.70    0.81
   4   6   1    3.16    0.73
  -5  -6  -1    3.30    0.87
  -5  -6  -1    0.86    0.97
   5   6   1    1.33    0.73
   5   6   1   -0.02    0.77
   5  -7  -1   -0.11    0.71
   5  -7  -1    1.15    0.77
  -5   7   1    2.04    0.73
  -5   7   1    0.41    0.63
  -5   7   1    0.85    0.76
   4  -7  -1   -0.06    0.60
   4  -7  -1   -0.76    0.57
   4  -7  -1   -0.74    0.34
   4  -7  -1    0.10    0.38
  -4   7   1    0.38    0.57
  -4   7   1   -0.53    0.53
  -4   7   1   -0.56    0.49
   3  -7  -1    9.67    0.74
   3  -7  -1    7.80    0.70
   3  -7  -1    9.61    0.73
  -3   7   1    7.93    0.74
  -3   7   1    8.55    0.76
  -3   7   1    8.80    0.81
  -3   7   1    8.59    0.73
  -3   7   1    9.00    0.84
  -3   7   1    8.10    0.79
   2  -7  -1    5.88    0.54
   2  -7  -1    5.99    0.58
   2  -7  -1    5.98    0.46
   2  -7  -1    6.37    0.64
  -2   7   1    5.09    0.59
  -2   7   1    6.02    0.65
  -2   7   1    6.35    0.65
  -2   7   1    5.87    0.67
  -2   7   1    6.14    0.63
  -2   7   1    5.60    0.61
   1  -7  -1    3.75    0.58
   1  -7  -1    4.00    0.48
   1  -7  -1    5.43    0.49
   1  -7  -1    5.55    0.44
   1  -7  -1    4.75    0.54
  -1   7   1    4.54    0.52
  -1   7   1    4.08    0.52
  -1   7   1    4.42    0.54
  -1   7   1    4.83    0.54
   0  -7  -1    3.18    0.53
   0  -7  -1    1.86    0.49
   0  -7  -1    2.13    0.51
   0  -7  -1    1.93    0.36
   0   7   1    2.51    0.44
   0   7   1    2.50    0.45
   0   7   1    3.35    0.49
  -1  -7  -1  105.47    2.48
  -1  -7  -1  107.33    2.48
  -1  -7  -1  103.78    2.36
  -1  -7  -1  107.97    2.17
   1   7   1  107.97    2.22
   1   7   1  106.09    2.19
   1   7   1  107.58    2.26
  -2  -7  -1    0.25    0.54
  -2  -7  -1    0.48    0.53
  -2  -7  -1   -0.22    0.44
  -2  -7  -1    0.58    0.41
   2   7   1    0.77    0.43
   2   7   1    0.23    0.42
  -3  -7  -1    1.66    0.68
  -3  -7  -1    0.04    0.50
  -3  -7  -1    0.77    0.50
  -3  -7  -1    2.14    0.70
  -3  -7  -1    0.07    0.53
   3   7   1    1.23    0.64
  -4  -7  -1    0.63    0.69
  -4  -7  -1    0.47    0.74
  -4  -7  -1    0.38    0.78
   4   7   1    1.15    0.70
   5  -8  -1    1.51    0.78
  -5   8   1    0.94    0.76
  -5   8   1    0.32    0.62
  -5   8   1    1.22    0.83
   4  -8  -1    0.55    0.59
   4  -8  -1   -0.39    0.40
   4  -8  -1   -0.67    0.59
   4  -8  -1   -0.72    0.37
   4  -8  -1   -0.71    0.43
  -4   8   1    1.03    0.65
  -4   8   1   -0.21    0.51
  -4   8   1    0.25    0.56
   3  -8  -1    3.17    0.54
   3  -8  -1    2.00    0.48
   3  -8  -1    2.84    0.55
   3  -8  -1    2.17    0.56
  -3   8   1    3.10    0.67
  -3   8   1    2.48    0.60
  -3   8   1    2.75    0.66
  -3   8   1    3.16    0.59
  -3   8   1    2.58    0.64
  -3   8   1    3.69    0.66
   2  -8  -1   14.47    0.78
   2  -8  -1   15.43    0.71
   2  -8  -1   14.21    0.91
   2  -8  -1   14.94    0.80
  -2   8   1   13.78    0.88
  -2   8   1   14.62    0.90
  -2   8   1   16.34    0.88
  -2   8   1   13.07    0.86
   1  -8  -1    0.93    0.53
   1  -8  -1    1.19    0.44
   1  -8  -1    1.15    0.29
   1  -8  -1    0.38    0.41
   1  -8  -1    1.17    0.37
  -1   8   1    0.93    0.42
  -1   8   1    0.96    0.43
  -1   8   1    0.44    0.41
  -1   8   1    1.33    0.46
   0  -8  -1   34.40    1.38
   0  -8  -1   36.80    1.32
   0  -8  -1   34.55    1.10
   0  -8  -1   35.00    1.32
   0   8   1   35.15    1.23
   0   8   1   35.93    1.23
   0   8   1   35.45    1.14
  -1  -8  -1   63.83    1.81
  -1  -8  -1   57.03    1.82
  -1  -8  -1   61.03    1.57
   1   8   1   63.78    1.72
   1   8   1   59.72    1.59
   1   8   1   60.97    1.58
   1   8   1   60.18    1.69
  -2  -8  -1   19.08    1.21
  -2  -8  -1   17.42    1.12
  -2  -8  -1   20.42    0.97
  -2  -8  -1   20.15    1.26
   2   8   1   18.64    1.00
   2   8   1   17.15    1.07
   2   8   1   18.31    0.91
  -3  -8  -1    5.32    0.95
  -3  -8  -1    4.94    0.78
  -3  -8  -1    2.30    0.79
  -3  -8  -1    4.68    0.80
  -3  -8  -1    4.17    0.64
   3   8   1    3.71    0.76
   3   8   1    4.33    0.66
  -4  -8  -1   -0.05    0.78
  -4  -8  -1    0.21    0.89
   4   8   1    0.36    0.58
   4   8   1    0.56    0.70
   5  -9  -1    0.33    0.72
  -5   9   1   -0.04    0.74
  -5   9   1   -0.31    0.63
  -5   9   1    0.27    0.72
   4  -9  -1    2.34    0.64
   4  -9  -1    0.77    0.57
   4  -9  -1   -0.89    0.57
   4  -9  -1    0.13    0.69
  -4   9   1    0.87    0.69
  -4   9   1   -0.08    0.58
  -4   9   1   -0.40    0.56
   3  -9  -1   -0.43    0.39
   3  -9  -1    0.95    0.46
   3  -9  -1   -0.67    0.40
   3  -9  -1    0.63    0.48
   3  -9  -1   -0.48    0.39
  -3   9   1    0.00    0.54
  -3   9   1   -0.55    0.49
  -3   9   1   -0.14    0.53
  -3   9   1    0.92    0.60
  -3   9   1   -0.44    0.49
   2  -9  -1    0.65    0.43
   2  -9  -1    0.91    0.57
   2  -9  -1    0.88    0.48
  -2   9   1    1.01    0.56
  -2   9   1    1.22    0.53
  -2   9   1    0.55    0.48
  -2   9   1    0.59    0.56
   1  -9  -1    1.25    0.50
   1  -9  -1    1.36    0.55
   1  -9  -1    0.12    0.53
   1  -9  -1    1.03    0.41
  -1   9   1    1.62    0.55
  -1   9   1    1.23    0.51
  -1   9   1    1.10    0.54
   0  -9  -1   24.22    1.32
   0  -9  -1   27.27    1.21
   0  -9  -1   26.60    1.06
   0  -9  -1   25.32    1.25
   0   9   1   26.88    1.17
   0   9   1   26.35    1.10
   0   9   1   25.68    1.13
  -1  -9  -1   13.31    1.14
  -1  -9  -1   12.06    0.80
  -1  -9  -1   12.17    1.03
  -1  -9  -1   12.25    1.09
   1   9   1   12.86    0.93
   1   9   1   12.96    0.84
   1   9   1   11.73    0.93
  -2  -9  -1    1.35    0.51
  -2  -9  -1    1.64    0.73
  -2  -9  -1    0.42    0.76
  -2  -9  -1    0.87    0.63
  -2  -9  -1    1.49    0.66
   2   9   1    1.22    0.55
   2   9   1    0.88    0.48
   2   9   1    1.37    0.60
  -3  -9  -1    1.54    0.95
  -3  -9  -1    1.97    0.75
  -3  -9  -1    0.76    0.85
   3   9   1    1.39    0.74
   3   9   1    1.21    0.64
   4 -10  -1   -0.66    0.51
   4 -10  -1   -1.54    0.48
   4 -10  -1   -0.48    0.52
  -4  10   1    1.97    0.77
  -4  10   1    0.96    0.70
  -4  10   1   -0.64    0.62
   3 -10  -1    0.78    0.55
   3 -10  -1    2.12    0.64
  -3  10   1    0.38    0.59
  -3  10   1    0.87    0.63
  -3  10   1    1.07    0.69
  -3  10   1    1.22    0.66
   2 -10  -1    3.19    0.59
   2 -10  -1    3.25    0.80
   2 -10  -1    3.28    0.68
  -2  10   1    2.23    0.60
  -2  10   1    2.80    0.67
  -2  10   1    2.09    0.67
   1 -10  -1   18.37    1.25
   1 -10  -1   18.75    0.97
   1 -10  -1   16.56    1.14
   1 -10  -1   16.72    1.04
  -1  10   1   17.24    1.05
  -1  10   1   16.91    1.07
  -1  10   1   16.56    1.04
   0 -10  -1   10.30    0.95
   0 -10  -1   12.00    1.18
   0 -10  -1   10.33    0.80
   0 -10  -1   11.24    0.98
   0  10   1   13.44    1.05
   0  10   1   10.66    0.95
   0  10   1    9.15    0.84
  -1 -10  -1   -0.72    0.60
  -1 -10  -1   -0.21    0.58
  -1 -10  -1   -0.72    0.75
   1  10   1   -0.66    0.50
   1  10   1    0.21    0.54
   1  10   1    0.27    0.46
  -2 -10  -1    5.90    0.92
  -2 -10  -1    5.91    1.00
  -2 -10  -1    9.31    1.06
  -2 -10  -1    5.51    1.10
   2  10   1    7.66    1.00
   2  10   1    7.34    0.87
   2  10   1    8.38    0.91
  -3 -10  -1    1.32    0.84
  -3 -10  -1    1.62    0.93
  -3 -10  -1    1.09    0.75
   3  10   1   -0.05    0.69
   3  10   1    0.44    0.65
   3 -11  -1    5.06    0.78
   3 -11  -1    5.95    0.88
   3 -11  -1    5.93    1.03
  -3  11   1    4.77    0.87
  -3  11   1    4.45    0.89
  -3  11   1    6.01    0.90
  -3  11   1    3.67    0.83
   2 -11  -1   -0.99    0.52
   2 -11  -1   -0.27    0.75
  -2  11   1    0.06    0.52
  -2  11   1   -0.13    0.61
  -2  11   1    0.21    0.59
   1 -11  -1    0.27    0.79
   1 -11  -1    0.09    0.63
  -1  11   1   -1.56    0.50
  -1  11   1   -0.56    0.52
  -1  11   1    0.08    0.51
   0 -11  -1   15.99    1.25
   0 -11  -1   16.06    1.45
   0 -11  -1   15.99    1.28
   0  11   1   15.97    1.23
   0  11   1   16.68    1.04
   0  11   1   15.98    1.12
  -1 -11  -1    0.54    0.81
  -1 -11  -1   -0.26    0.67
  -1 -11  -1    0.85    0.67
   1  11   1    0.62    0.62
   1  11   1   -0.66    0.59
  -2 -11  -1    1.25    0.80
  -2 -11  -1    0.51    0.88
  -2 -11  -1    2.55    0.90
   2  11   1    1.09    0.81
   2  11   1    0.93    0.74
   2 -12  -1    2.45    0.86
  -2  12   1    1.08    0.71
  -2  12   1    1.82    0.83
  -2  12   1    0.78    0.69
   1 -12  -1   -0.05    0.80
  -1  12   1    0.26    0.70
  -1  12   1   -0.61    0.70
  -1  12   1    1.25    0.63
   0 -12  -1    0.21    0.95
   0 -12  -1    1.09    0.76
   0  12   1    0.85    0.68
   0  12   1    1.00    0.70
  -1 -12  -1    2.15    0.98
  -1 -12  -1    2.95    1.01
  -1 -12  -1    2.83    0.94
   1  12   1    3.33    0.88
   1  12   1    3.67    0.93
   1  12  -2    1.88    0.78
   1  12  -2    1.73    0.72
  -1 -12   2    1.28    0.76
  -1 -12   2   -0.01    0.92
   0  12  -2    0.56    0.61
   0  12  -2   -0.65    0.72
   0 -12   2    0.07    0.84
   0 -12   2   -0.38    0.67
  -1  12  -2   -0.16    0.65
  -1  12  -2    1.06    0.67
   1 -12   2   -0.12    0.79
   1 -12   2    0.55    0.62
  -2  12  -2    4.58    0.94
  -2  12  -2    4.49    0.82
  -2  12  -2    6.05    1.04
   2 -12   2    4.82    0.86
   2 -12   2    5.51    1.06
   2  11  -2    0.23    0.65
   2  11  -2    0.94    0.69
  -2 -11   2    1.52    0.84
  -2 -11   2    0.17    0.92
   1  11  -2    3.74    0.77
   1  11  -2    2.52    0.80
  -1 -11   2    4.58    0.97
  -1 -11   2    2.39    0.77
  -1 -11   2    5.24    0.78
   0  11  -2   -0.02    0.58
   0  11  -2   -1.14    0.53
   0 -11   2   -0.07    0.58
   0 -11   2   -0.57    0.54
   0 -11   2   -0.04    0.78
   0 -11   2   -0.31    0.59
  -1  11  -2   39.96    1.62
  -1  11  -2   37.82    1.41
  -1  11  -2   39.03    1.51
   1 -11   2   36.10    1.63
   1 -11   2   39.36    1.64
   1 -11   2   39.35    1.84
   1 -11   2   40.29    1.58
  -2  11  -2   -0.91    0.49
  -2  11  -2    0.17    0.62
  -2  11  -2   -0.10    0.58
  -2  11  -2    0.28    0.55
   2 -11   2   -0.34    0.55
   2 -11   2   -0.08    0.60
  -3  11  -2    4.39    0.89
  -3  11  -2    3.04    0.81
  -3  11  -2    4.62    0.86
   3 -11   2    4.06    0.81
   3  10  -2    2.88    0.76
   3  10  -2    2.80    0.74
  -3 -10   2    2.65    0.75
  -3 -10   2    2.22    0.86
  -3 -10   2    1.19    0.90
   2  10  -2    1.75    0.66
   2  10  -2    1.75    0.68
   2  10  -2    1.93    0.60
  -2 -10   2    1.16    0.57
  -2 -10   2    2.06    0.89
  -2 -10   2    1.31    0.78
  -2 -10   2    1.75    0.76
   1  10  -2   -0.18    0.56
   1  10  -2    0.75    0.57
  -1 -10   2    1.13    0.65
  -1 -10   2    0.42    0.74
  -1 -10   2   -0.30    0.53
  -1 -10   2   -0.84    0.65
   0  10  -2    2.81    0.60
   0  10  -2    3.57    0.67
   0  10  -2    2.46    0.51
   0 -10   2    2.83    0.75
   0 -10   2    2.25    0.60
   0 -10   2    3.27    0.72
   0 -10   2    2.51    0.82
  -1  10  -2   12.32    1.00
  -1  10  -2   12.14    0.98
  -1  10  -2   10.54    0.99
  -1  10  -2    9.77    0.84
   1 -10   2   12.05    0.97
   1 -10   2   12.75    1.03
   1 -10   2    9.27    1.04
   1 -10   2   11.43    1.00
  -2  10  -2   -0.43    0.51
  -2  10  -2    0.67    0.53
  -2  10  -2   -0.61    0.49
  -2  10  -2    0.88    0.56
   2 -10   2   -0.93    0.44
   2 -10   2    0.77    0.58
  -3  10  -2    3.67    0.77
  -3  10  -2    3.47    0.74
  -3  10  -2    2.51    0.67
  -3  10  -2    3.44    0.79
   3 -10   2    3.88    0.76
   3 -10   2    1.23    0.62
  -4  10  -2    2.62    0.82
  -4  10  -2    2.16    0.82
  -4  10  -2    2.68    0.78
   4 -10   2    2.29    0.77
   4   9  -2    1.05    0.85
  -4  -9   2    0.05    0.87
  -4  -9   2    0.06    0.80
   3   9  -2    1.86    0.66
   3   9  -2    2.69    0.70
  -3  -9   2    1.77    0.81
  -3  -9   2    0.41    0.72
  -3  -9   2    1.42    0.64
   2   9  -2    0.21    0.51
   2   9  -2    0.02    0.51
  -2  -9   2    0.08    0.51
  -2  -9   2   -0.27    0.56
  -2  -9   2   -0.06    0.61
  -2  -9   2    0.82    0.75
   1   9  -2   -0.18    0.45
   1   9  -2   -0.30    0.50
   1   9  -2   -0.07    0.33
   1   9  -2   -0.22    0.34
  -1  -9   2   -0.89    0.49
  -1  -9   2    0.15    0.49
  -1  -9   2    1.69    0.67
  -1  -9   2    0.41    0.63
   0   9  -2   16.73    0.91
   0   9  -2   14.02    0.91
   0   9  -2   15.43    0.79
   0  -9   2   14.98    1.12
   0  -9   2   15.93    0.96
   0  -9   2   14.57    1.01
   0  -9   2   17.72    1.14
  -1   9  -2    8.21    0.72
  -1   9  -2    8.18    0.74
  -1   9  -2    8.17    0.76
  -1   9  -2    6.81    0.73
   1  -9   2    8.62    0.82
   1  -9   2    8.47    0.80
   1  -9   2    8.63    0.88
  -2   9  -2    5.28    0.68
  -2   9  -2    5.54    0.72
  -2   9  -2    5.35    0.74
  -2   9  -2    6.49    0.75
   2  -9   2    5.07    0.63
   2  -9   2    4.29    0.51
   2  -9   2    5.05    0.78
   2  -9   2    5.66    0.71
  -3   9  -2    6.90    0.84
  -3   9  -2    8.04    0.82
  -3   9  -2    7.51    0.86
  -3   9  -2    7.16    0.89
   3  -9   2    7.13    0.86
   3  -9   2    6.95    0.82
   3  -9   2    6.30    0.71
   3  -9   2    5.59    0.67
  -4   9  -2    0.89    0.63
  -4   9  -2    1.97    0.63
  -4   9  -2   -0.06    0.61
   4  -9   2    0.63    0.59
   4  -9   2    0.35    0.64
   4  -9   2    1.03    0.56
   4  -9   2    0.68    0.64
  -5   9  -2    1.61    0.76
  -5   9  -2    3.14    0.95
   5  -9   2    1.58    0.88
   4   8  -2   -0.42    0.63
   4   8  -2   -0.44    0.67
  -4  -8   2   -0.18    0.69
  -4  -8   2   -0.81    0.75
  -4  -8   2   -0.60    0.53
   3   8  -2    2.00    0.62
  -3  -8   2    2.59    0.79
  -3  -8   2    2.28    0.73
  -3  -8   2    3.05    0.71
  -3  -8   2    2.22    0.71
   2   8  -2    3.02    0.54
   2   8  -2    2.54    0.46
  -2  -8   2    2.94    0.75
  -2  -8   2    2.71    0.56
  -2  -8   2    1.88    0.63
  -2  -8   2    3.92    0.82
   1   8  -2   15.37    0.89
   1   8  -2   16.94    0.94
   1   8  -2   16.37    0.79
   1   8  -2   16.46    0.72
  -1  -8   2   17.65    0.97
  -1  -8   2   17.51    1.05
  -1  -8   2   18.31    1.10
  -1  -8   2   16.88    1.08
   0   8  -2    1.60    0.29
   0   8  -2    1.15    0.43
   0   8  -2    0.98    0.45
   0   8  -2    1.43    0.45
   0   8  -2    1.63    0.39
   0  -8   2    1.24    0.48
   0  -8   2    1.48    0.55
   0  -8   2    0.98    0.53
   0  -8   2    2.37    0.60
   0  -8   2    1.13    0.37
  -1   8  -2    1.99    0.47
  -1   8  -2    3.08    0.54
  -1   8  -2    2.57    0.48
  -1   8  -2    3.39    0.51
   1  -8   2    2.33    0.38
   1  -8   2    2.90    0.35
   1  -8   2    2.93    0.32
   1  -8   2    3.29    0.55
   1  -8   2    2.27    0.54
   1  -8   2    3.96    0.58
  -2   8  -2    0.82    0.47
  -2   8  -2    1.35    0.51
  -2   8  -2    1.17    0.47
  -2   8  -2    0.14    0.41
  -2   8  -2    0.98    0.46
   2  -8   2    1.14    0.54
   2  -8   2    0.60    0.44
   2  -8   2    1.25    0.33
   2  -8   2    1.48    0.40
   2  -8   2    0.15    0.35
  -3   8  -2   15.93    1.03
  -3   8  -2   17.60    0.98
  -3   8  -2   16.37    1.01
  -3   8  -2   17.37    1.07
   3  -8   2   17.77    1.07
   3  -8   2   17.92    0.97
   3  -8   2   18.67    1.14
   3  -8   2   15.18    0.93
   3  -8   2   17.69    0.85
  -4   8  -2    0.69    0.59
  -4   8  -2    1.18    0.64
  -4   8  -2    1.28    0.60
   4  -8   2    1.18    0.60
   4  -8   2    2.87    0.71
   4  -8   2    0.12    0.53
  -5   8  -2    1.19    0.76
  -5   8  -2    0.37    0.64
   5  -8   2   -0.68    0.77
   5   7  -2    6.45    1.04
   5   7  -2    8.32    1.18
  -5  -7   2    4.20    1.01
   4   7  -2   -0.23    0.59
   4   7  -2    0.55    0.64
  -4  -7   2   -1.15    0.66
  -4  -7   2    0.10    0.61
  -4  -7   2   -0.67    0.64
   3   7  -2    3.72    0.71
   3   7  -2    3.85    0.76
  -3  -7   2    2.52    0.59
  -3  -7   2    3.12    0.69
  -3  -7   2    0.71    0.63
  -3  -7   2    2.58    0.72
   2   7  -2    0.36    0.46
   2   7  -2   -0.31    0.26
   2   7  -2   -0.59    0.35
  -2  -7   2    0.49    0.55
  -2  -7   2    0.87    0.56
  -2  -7   2    0.79    0.54
  -2  -7   2   -0.28    0.43
   1   7  -2    3.51    0.51
   1   7  -2    3.76    0.46
   1   7  -2    3.91    0.41
  -1  -7   2    3.78    0.56
  -1  -7   2    3.10    0.66
  -1  -7   2    2.75    0.56
  -1  -7   2    3.03    0.57
   0   7  -2   29.02    0.99
   0   7  -2   27.88    0.88
   0   7  -2   28.53    1.00
   0   7  -2   29.18    0.78
   0   7  -2   26.96    1.00
   0  -7   2   30.50    1.05
   0  -7   2   29.61    1.11
   0  -7   2   27.66    0.89
   0  -7   2   28.83    1.14
   0  -7   2   29.19    0.56
  -1   7  -2   18.08    0.76
  -1   7  -2   19.67    0.86
  -1   7  -2   18.63    0.79
  -1   7  -2   18.40    0.82
   1  -7   2   18.54    0.67
   1  -7   2   18.63    0.61
   1  -7   2   18.29    0.83
   1  -7   2   18.61    0.90
   1  -7   2   18.04    0.66
  -2   7  -2    5.15    0.55
  -2   7  -2    4.41    0.58
  -2   7  -2    3.78    0.53
  -2   7  -2    5.33    0.59
  -2   7  -2    6.58    0.64
   2  -7   2    4.40    0.59
   2  -7   2    4.50    0.51
   2  -7   2    5.38    0.44
   2  -7   2    4.57    0.49
   2  -7   2    5.41    0.64
  -3   7  -2    0.49    0.41
  -3   7  -2    0.13    0.47
  -3   7  -2    0.41    0.45
  -3   7  -2    0.11    0.40
   3  -7   2    0.96    0.45
   3  -7   2    1.34    0.49
   3  -7   2    0.38    0.34
   3  -7   2    0.15    0.44
   3  -7   2    1.04    0.34
  -4   7  -2    6.87    0.79
  -4   7  -2    7.43    0.88
  -4   7  -2    6.97    0.84
   4  -7   2    6.43    0.83
   4  -7   2    7.41    1.06
   4  -7   2    8.33    0.95
  -5   7  -2    0.18    0.63
  -5   7  -2    0.74    0.68
  -5   7  -2    0.17    0.70
   5  -7   2   -0.34    0.68
   5  -7   2   -0.01    0.69
   5   6  -2    5.14    1.07
   5   6  -2    3.33    0.85
  -5  -6   2    1.75    0.79
   4   6  -2   16.89    1.20
   4   6  -2   17.29    1.33
   4   6  -2   19.07    1.28
  -4  -6   2   17.24    1.20
  -4  -6   2   16.68    1.16
  -4  -6   2   17.60    1.28
   3   6  -2    0.82    0.47
   3   6  -2    0.37    0.47
  -3  -6   2   -0.23    0.53
  -3  -6   2   -0.29    0.47
  -3  -6   2   -0.13    0.44
  -3  -6   2   -0.11    0.50
   2   6  -2    1.43    0.42
   2   6  -2    1.47    0.46
   2   6  -2    1.00    0.17
  -2  -6   2    0.87    0.52
  -2  -6   2    1.03    0.40
  -2  -6   2    1.06    0.52
  -2  -6   2    0.36    0.46
   1   6  -2    2.88    0.38
   1   6  -2    3.60    0.35
  -1  -6   2    2.65    0.48
  -1  -6   2    3.01    0.43
  -1  -6   2    3.04    0.54
  -1  -6   2    3.04    0.53
  -1  -6   2    3.71    0.50
   0   6  -2   -0.27    0.24
   0   6  -2    0.00    0.27
   0   6  -2   -0.23    0.18
   0   6  -2    0.33    0.31
   0   6  -2    0.25    0.31
   0  -6   2   -0.31    0.24
   0  -6   2    0.15    0.13
   0  -6   2   -0.07    0.32
   0  -6   2    0.13    0.36
   0  -6   2    0.32    0.32
  -1   6  -2   -0.03    0.30
  -1   6  -2    0.06    0.30
  -1   6  -2    0.68    0.35
  -1   6  -2    0.22    0.30
  -1   6  -2    0.57    0.31
   1  -6   2   -0.21    0.28
   1  -6   2    1.26    0.38
   1  -6   2    0.15    0.24
   1  -6   2   -0.57    0.21
   1  -6   2    0.61    0.23
  -2   6  -2    0.73    0.37
  -2   6  -2    1.20    0.39
  -2   6  -2    0.51    0.35
  -2   6  -2    0.64    0.38
  -2   6  -2    1.03    0.36
   2  -6   2    0.57    0.32
   2  -6   2    0.93    0.39
   2  -6   2    0.81    0.36
   2  -6   2    0.86    0.29
  -3   6  -2    2.16    0.50
  -3   6  -2    0.89    0.42
  -3   6  -2    1.70    0.50
  -3   6  -2    1.25    0.47
   3  -6   2    0.37    0.41
   3  -6   2    2.08    0.35
   3  -6   2    1.61    0.47
   3  -6   2    1.35    0.37
   3  -6   2    0.93    0.34
  -4   6  -2    1.81    0.62
  -4   6  -2    0.77    0.49
  -4   6  -2    0.51    0.52
   4  -6   2   -0.26    0.33
   4  -6   2    0.45    0.57
   4  -6   2    0.35    0.33
   4  -6   2    0.47    0.56
  -5   6  -2    0.07    0.52
  -5   6  -2   -0.09    0.65
  -5   6  -2    0.09    0.58
   5  -6   2    0.40    0.83
   5  -6   2    0.28    0.67
  -6   6  -2   -0.13    0.67
  -6   6  -2   -0.28    0.72
  -6   6  -2   -0.27    0.65
   6  -6   2    0.11    0.87
   5   5  -2    1.66    0.78
   5   5  -2    2.17    0.79
  -5  -5   2    0.67    0.74
   4   5  -2    4.08    0.57
   4   5  -2    4.43    0.78
   4   5  -2    2.88    0.68
   4   5  -2    3.69    0.71
  -4  -5   2    4.19    0.74
  -4  -5   2    4.19    0.70
  -4  -5   2    3.10    0.73
   3   5  -2   -0.36    0.21
   3   5  -2    0.26    0.48
   3   5  -2    0.41    0.29
   3   5  -2    0.68    0.41
   3   5  -2   -0.07    0.43
  -3  -5   2   -0.42    0.37
  -3  -5   2    0.39    0.49
  -3  -5   2    0.77    0.49
  -3  -5   2   -0.53    0.37
   2   5  -2    3.92    0.54
   2   5  -2    3.22    0.25
   2   5  -2    2.85    0.27
   2   5  -2    2.37    0.45
   2   5  -2    2.89    0.45
  -2  -5   2    1.81    0.40
  -2  -5   2    3.25    0.50
  -2  -5   2    3.72    0.57
  -2  -5   2    2.23    0.48
   1   5  -2    4.44    0.40
   1   5  -2    4.73    0.47
   1   5  -2    4.63    0.35
   1   5  -2    5.26    0.47
  -1  -5   2    5.35    0.49
  -1  -5   2    5.70    0.52
  -1  -5   2    4.69    0.50
  -1  -5   2    5.30    0.58
  -1  -5   2    5.22    0.53
   0   5  -2   10.54    0.54
   0   5  -2    9.37    0.45
   0   5  -2    9.78    0.40
   0   5  -2    9.38    0.53
   0   5  -2    9.27    0.55
   0  -5   2   10.27    0.34
   0  -5   2    9.87    0.50
   0  -5   2    9.50    0.59
   0  -5   2   10.50    0.51
   0  -5   2    9.07    0.58
  -1   5  -2    3.48    0.39
  -1   5  -2    3.20    0.36
  -1   5  -2    3.07    0.42
  -1   5  -2    3.15    0.36
  -1   5  -2    3.41    0.41
   1  -5   2    3.17    0.43
   1  -5   2    2.56    0.32
   1  -5   2    3.51    0.33
   1  -5   2    2.93    0.30
   1  -5   2    3.52    0.41
  -2   5  -2    9.20    0.56
  -2   5  -2    8.87    0.64
  -2   5  -2    9.17    0.61
  -2   5  -2    9.25    0.55
  -2   5  -2   10.15    0.64
   2  -5   2    9.81    0.61
   2  -5   2   10.08    0.50
   2  -5   2    9.52    0.48
   2  -5   2    9.02    0.59
  -3   5  -2    4.93    0.59
  -3   5  -2    5.46    0.54
  -3   5  -2    4.82    0.61
  -3   5  -2    5.24    0.60
   3  -5   2    6.23    0.34
   3  -5   2    5.58    0.61
   3  -5   2    5.81    0.64
   3  -5   2    5.24    0.43
   3  -5   2    4.64    0.45
  -4   5  -2    2.21    0.57
  -4   5  -2    3.30    0.62
  -4   5  -2    2.78    0.55
   4  -5   2    2.81    0.70
   4  -5   2    2.51    0.39
   4  -5   2    2.85    0.44
   4  -5   2    2.22    0.65
  -5   5  -2   11.84    1.08
  -5   5  -2    9.21    0.96
  -5   5  -2   11.69    0.94
   5  -5   2   11.34    1.13
   5  -5   2   12.25    1.25
  -6   5  -2    1.59    0.76
  -6   5  -2    1.41    0.69
  -6   5  -2   -0.39    0.70
   6  -5   2    1.41    0.94
   6   4  -2    4.38    1.02
   6   4  -2    5.02    0.92
  -6  -4   2    5.50    1.06
   5   4  -2   10.44    0.97
   5   4  -2   10.34    1.07
   5   4  -2    9.97    1.12
   5   4  -2   12.12    1.13
  -5  -4   2    9.98    1.09
   4   4  -2   14.91    0.98
   4   4  -2   14.39    0.91
   4   4  -2   14.12    1.03
   4   4  -2   15.30    0.85
   4   4  -2   15.33    1.15
  -4  -4   2   15.50    0.92
  -4  -4   2   14.49    1.04
  -4  -4   2   14.74    1.04
   3   4  -2    2.03    0.48
   3   4  -2    1.69    0.36
   3   4  -2    1.28    0.31
   3   4  -2    0.99    0.40
   3   4  -2    1.60    0.49
   3   4  -2    1.24    0.42
  -3  -4   2    1.97    0.45
  -3  -4   2    1.46    0.45
  -3  -4   2    1.92    0.49
  -3  -4   2    0.97    0.48
   2   4  -2    0.10    0.19
   2   4  -2    0.48    0.32
   2   4  -2    0.30    0.18
   2   4  -2   -0.31    0.29
   2   4  -2    0.13    0.31
   2   4  -2   -0.13    0.32
  -2  -4   2   -0.10    0.30
  -2  -4   2    0.41    0.41
  -2  -4   2    0.05    0.31
  -2  -4   2    0.28    0.31
   1   4  -2   37.16    0.98
   1   4  -2   38.19    0.62
   1   4  -2   37.00    1.01
   1   4  -2   37.23    0.66
   1   4  -2   36.91    0.99
   1   4  -2   38.35    0.96
  -1  -4   2   37.78    1.11
  -1  -4   2   39.68    1.02
  -1  -4   2   37.16    0.99
  -1  -4   2   38.45    1.06
  -1  -4   2   38.20    1.06
  -1  -4   2   37.69    1.04
   0   4  -2    0.21    0.20
   0   4  -2    0.77    0.27
   0   4  -2    0.57    0.17
   0   4  -2    0.63    0.27
   0   4  -2    0.29    0.25
   0   4  -2    0.45    0.15
   0   4  -2    0.26    0.23
   0   4  -2    0.44    0.21
   0  -4   2    0.41    0.15
   0  -4   2    0.25    0.23
   0  -4   2   -0.10    0.09
   0  -4   2    0.16    0.23
   0  -4   2    0.26    0.25
   0  -4   2    0.10    0.28
  -1   4  -2   19.29    0.64
  -1   4  -2   18.33    0.67
  -1   4  -2   19.62    0.63
  -1   4  -2   19.89    0.70
  -1   4  -2   19.12    0.67
   1  -4   2   18.74    0.69
   1  -4   2   19.76    0.59
   1  -4   2   19.70    0.70
   1  -4   2   17.68    0.62
   1  -4   2   18.87    0.57
   1  -4   2   19.23    0.40
  -2   4  -2  108.42    2.04
  -2   4  -2  109.54    2.04
  -2   4  -2  106.29    2.15
  -2   4  -2  111.59    2.12
  -2   4  -2  112.87    2.22
   2  -4   2  108.58    2.18
   2  -4   2  111.26    2.15
   2  -4   2  110.41    1.94
  -3   4  -2   -0.03    0.31
  -3   4  -2    0.25    0.35
  -3   4  -2   -0.03    0.34
   3  -4   2   -0.56    0.22
   3  -4   2   -0.48    0.21
   3  -4   2    0.77    0.45
   3  -4   2   -0.34    0.36
   3  -4   2   -0.10    0.21
  -4   4  -2    0.09    0.44
  -4   4  -2    0.63    0.49
  -4   4  -2    0.91    0.48
   4  -4   2    0.62    0.55
   4  -4   2    0.00    0.52
   4  -4   2    0.53    0.36
   4  -4   2    1.41    0.34
   4  -4   2    1.33    0.38
  -5   4  -2    0.39    0.52
  -5   4  -2    0.78    0.56
  -5   4  -2    1.24    0.55
   5  -4   2    0.92    0.47
   5  -4   2   -0.16    0.47
   5  -4   2    0.00    0.67
   5  -4   2    0.46    0.64
  -6   4  -2    9.39    1.06
  -6   4  -2    7.68    0.85
  -6   4  -2   10.42    1.18
   6  -4   2    9.06    1.24
   6   3  -2   14.32    1.25
   6   3  -2   14.39    1.25
   6   3  -2   14.59    1.39
  -6  -3   2   14.53    1.32
   5   3  -2   31.76    1.51
   5   3  -2   32.44    1.55
   5   3  -2   31.89    1.55
   5   3  -2   32.62    1.45
   5   3  -2   33.25    1.40
  -5  -3   2   32.35    1.55
  -5  -3   2   32.13    1.26
   4   3  -2    2.57    0.66
   4   3  -2    2.59    0.56
   4   3  -2    2.28    0.57
   4   3  -2    3.11    0.59
   4   3  -2    2.13    0.49
  -4  -3   2    2.25    0.59
  -4  -3   2    2.92    0.52
  -4  -3   2    2.03    0.46
   3   3  -2    7.85    0.63
   3   3  -2    7.18    0.60
   3   3  -2    9.06    0.75
   3   3  -2    8.64    0.67
   3   3  -2    8.85    0.59
   3   3  -2    8.43    0.59
  -3  -3   2    8.51    0.62
  -3  -3   2    8.21    0.67
  -3  -3   2    8.70    0.70
  -3  -3   2    7.90    0.71
   2   3  -2   39.21    1.11
   2   3  -2   37.73    1.06
   2   3  -2   38.37    1.06
   2   3  -2   39.21    1.10
   2   3  -2   39.00    0.91
  -2  -3   2   39.24    1.02
  -2  -3   2   38.37    0.75
  -2  -3   2   39.73    1.11
  -2  -3   2   38.77    1.08
  -2  -3   2   40.07    1.17
   1   3  -2    4.25    0.39
   1   3  -2    4.29    0.25
   1   3  -2    4.73    0.23
   1   3  -2    5.29    0.43
   1   3  -2    4.44    0.38
   1   3  -2    4.98    0.39
   1   3  -2    4.47    0.39
  -1  -3   2    4.76    0.40
  -1  -3   2    5.12    0.49
  -1  -3   2    4.60    0.42
  -1  -3   2    5.26    0.45
  -1  -3   2    5.15    0.41
  -1  -3   2    4.50    0.40
   0   3  -2   12.74    0.52
   0   3  -2   13.07    0.46
   0   3  -2   13.73    0.39
   0   3  -2   13.13    0.49
   0   3  -2   13.84    0.38
   0   3  -2   12.58    0.48
   0   3  -2   14.52    0.45
   0   3  -2   13.17    0.40
   0  -3   2   13.19    0.46
   0  -3   2   13.40    0.49
   0  -3   2   13.39    0.38
   0  -3   2   13.18    0.55
   0  -3   2   13.21    0.52
   0  -3   2   11.84    0.29
  -1   3  -2   31.91    0.83
  -1   3  -2   31.58    0.81
  -1   3  -2   31.80    0.79
  -1   3  -2   31.34    0.80
  -1   3  -2   31.98    0.79
  -1   3  -2   32.10    0.76
   1  -3   2   30.31    0.79
   1  -3   2   31.15    0.77
   1  -3   2   32.83    0.75
  -2   3  -2   13.08    0.27
  -2   3  -2   12.76    0.59
  -2   3  -2   12.78    0.66
  -2   3  -2   12.60    0.50
  -2   3  -2   14.03    0.63
   2  -3   2   12.59    0.64
   2  -3   2   13.29    0.44
   2  -3   2   13.15    0.67
   2  -3   2   13.27    0.44
   2  -3   2   13.09    0.49
  -3   3  -2    0.41    0.36
  -3   3  -2    0.93    0.34
  -3   3  -2    0.57    0.36
  -3   3  -2    0.56    0.25
   3  -3   2    0.15    0.22
   3  -3   2    0.42    0.27
   3  -3   2    0.98    0.41
   3  -3   2    0.86    0.41
   3  -3   2    0.09    0.24
  -4   3  -2    1.56    0.46
  -4   3  -2    1.50    0.51
  -4   3  -2    0.75    0.42
   4  -3   2    1.04    0.39
   4  -3   2    1.15    0.35
   4  -3   2    2.17    0.60
   4  -3   2    1.42    0.41
   4  -3   2    1.25    0.55
  -5   3  -2    0.50    0.48
  -5   3  -2   -0.30    0.52
  -5   3  -2   -0.43    0.50
   5  -3   2   -0.02    0.62
   5  -3   2    0.67    0.51
   5  -3   2    0.43    0.41
   5  -3   2    0.32    0.63
   5  -3   2    0.86    0.51
  -6   3  -2    0.12    0.70
  -6   3  -2    1.48    0.68
   6  -3   2    0.56    0.81
   6  -3   2   -0.55    0.67
   6   2  -2    2.20    0.79
   6   2  -2    2.20    0.84
   6   2  -2    1.36    0.82
   6   2  -2    1.91    0.81
  -6  -2   2    3.13    0.81
   5   2  -2   49.48    1.76
   5   2  -2   45.80    1.62
   5   2  -2   43.01    1.70
   5   2  -2   46.79    1.77
   5   2  -2   45.72    1.62
  -5  -2   2   46.79    1.52
  -5  -2   2   43.99    1.65
   4   2  -2    1.38    0.48
   4   2  -2    0.61    0.48
   4   2  -2    0.87    0.44
   4   2  -2    1.16    0.45
   4   2  -2    1.08    0.47
   4   2  -2    2.07    0.56
  -4  -2   2    0.60    0.38
  -4  -2   2    1.11    0.41
  -4  -2   2    0.58    0.50
   3   2  -2   10.24    0.69
   3   2  -2   10.34    0.61
   3   2  -2   11.43    0.72
   3   2  -2   11.80    0.68
   3   2  -2   10.55    0.65
  -3  -2   2   10.46    0.60
  -3  -2   2   10.95    0.38
  -3  -2   2   10.81    0.31
  -3  -2   2    9.81    0.72
  -3  -2   2   10.87    0.75
   2   2  -2   34.72    0.97
   2   2  -2   35.36    0.88
   2   2  -2   35.79    0.98
   2   2  -2   35.31    1.00
   2   2  -2   34.59    1.00
   2   2  -2   35.42    1.00
  -2  -2   2   36.15    1.01
  -2  -2   2   35.37    0.89
  -2  -2   2   35.91    0.98
  -2  -2   2   35.28    1.01
  -2  -2   2   34.57    1.01
   1   2  -2   -0.08    0.23
   1   2  -2    0.17    0.24
   1   2  -2    0.09    0.23
   1   2  -2    0.33    0.24
   1   2  -2   -0.01    0.24
  -1  -2   2    0.07    0.11
  -1  -2   2    0.04    0.20
  -1  -2   2   -0.12    0.24
  -1  -2   2    0.28    0.25
  -1  -2   2    0.33    0.27
  -1  -2   2    0.24    0.25
   0   2  -2   32.71    0.68
   0   2  -2   32.95    0.66
   0   2  -2   32.56    0.60
   0   2  -2   32.38    0.64
   0   2  -2   31.43    0.64
   0   2  -2   33.02    0.66
   0   2  -2   31.77    0.73
   0   2  -2   32.79    0.57
   0   2  -2   32.54    0.65
   0   2  -2   32.90    0.62
   0  -2   2   32.37    0.71
   0  -2   2   32.45    0.57
   0  -2   2   31.08    0.73
   0  -2   2   32.55    0.60
   0  -2   2   32.08    0.65
   0  -2   2   32.39    0.73
   0  -2   2   31.63    0.65
  -1   2  -2  436.95    6.54
  -1   2  -2  429.84    6.54
  -1   2  -2  435.36    6.54
  -1   2  -2  443.35    6.73
  -1   2  -2  441.56    6.57
  -1   2  -2  432.23    6.52
  -1   2  -2  434.47    6.68
   1  -2   2  440.39    6.53
   1  -2   2  427.10    6.56
   1  -2   2  427.14    6.60
  -2   2  -2   86.30    1.65
  -2   2  -2   87.54    1.57
  -2   2  -2   88.44    1.74
  -2   2  -2   87.56    1.71
   2  -2   2   85.40    1.76
   2  -2   2   86.27    1.56
   2  -2   2   89.08    1.50
   2  -2   2   88.42    1.58
   2  -2   2   85.56    1.78
  -3   2  -2   13.06    0.60
  -3   2  -2   11.38    0.64
  -3   2  -2   12.25    0.63
  -3   2  -2   12.82    0.69
   3  -2   2   13.11    0.61
   3  -2   2   12.90    0.76
   3  -2   2   11.75    0.63
   3  -2   2   11.87    0.75
   3  -2   2   13.19    0.53
  -4   2  -2   20.73    1.01
  -4   2  -2   19.73    0.95
  -4   2  -2   20.16    0.83
  -4   2  -2   22.20    0.91
   4  -2   2   21.92    1.12
   4  -2   2   20.98    0.96
   4  -2   2   22.54    0.83
   4  -2   2   22.30    0.94
   4  -2   2   19.68    1.08
  -5   2  -2   -0.15    0.42
  -5   2  -2   -0.12    0.51
  -5   2  -2   -0.05    0.49
   5  -2   2    0.79    0.55
   5  -2   2    0.32    0.62
   5  -2   2    1.07    0.45
   5  -2   2    0.94    0.51
   5  -2   2    0.73    0.70
  -6   2  -2    1.37    0.75
  -6   2  -2    1.67    0.65
   6  -2   2    0.76    0.83
   6  -2   2    1.29    0.71
   6   1  -2    2.09    0.72
   6   1  -2    1.66    0.87
   6   1  -2    2.19    0.70
   6   1  -2    1.84    0.79
  -6  -1   2    1.04    0.69
   5   1  -2    9.67    0.85
   5   1  -2    8.71    0.95
   5   1  -2    8.08    0.91
   5   1  -2    8.91    0.94
   5   1  -2    7.85    0.85
  -5  -1   2    8.99    0.82
  -5  -1   2    9.63    0.87
   4   1  -2    0.51    0.42
   4   1  -2    0.45    0.41
   4   1  -2    0.89    0.44
   4   1  -2    0.27    0.42
   4   1  -2    0.23    0.41
   4   1  -2    0.12    0.47
  -4  -1   2   -0.35    0.39
  -4  -1   2    0.34    0.38
  -4  -1   2   -0.07    0.29
  -4  -1   2    0.44    0.19
   3   1  -2    3.50    0.43
   3   1  -2    2.55    0.42
   3   1  -2    3.14    0.42
   3   1  -2    2.49    0.42
   3   1  -2    2.75    0.44
  -3  -1   2    3.54    0.43
  -3  -1   2    3.58    0.46
  -3  -1   2    3.20    0.36
  -3  -1   2    2.96    0.22
   2   1  -2   17.96    0.69
   2   1  -2   17.83    0.65
   2   1  -2   18.23    0.67
   2   1  -2   17.85    0.65
   2   1  -2   18.07    0.69
  -2  -1   2   18.29    0.68
  -2  -1   2   17.95    0.41
  -2  -1   2   17.62    0.54
  -2  -1   2   17.12    0.67
  -2  -1   2   17.79    0.68
  -2  -1   2   18.46    0.38
  -2  -1   2   19.00    0.70
   1   1  -2   91.41    1.60
   1   1  -2   91.80    1.58
   1   1  -2   91.08    1.57
   1   1  -2   92.31    1.58
   1   1  -2   90.28    1.60
  -1  -1   2   92.59    1.47
  -1  -1   2   90.13    1.59
  -1  -1   2   90.31    1.47
  -1  -1   2   86.04    1.56
  -1  -1   2   92.33    1.60
  -1  -1   2   91.00    1.59
   0   1  -2   12.61    0.29
   0   1  -2   12.91    0.35
   0   1  -2   12.07    0.39
   0   1  -2   13.35    0.39
   0   1  -2   12.87    0.30
   0   1  -2   13.11    0.34
   0   1  -2   12.96    0.28
   0   1  -2   13.27    0.32
   0   1  -2   12.45    0.35
   0  -1   2   13.33    0.33
   0  -1   2   12.98    0.36
   0  -1   2   13.34    0.32
   0  -1   2   12.69    0.30
   0  -1   2   13.54    0.37
   0  -1   2   13.02    0.37
   0  -1   2   13.15    0.29
   0  -1   2   13.19    0.37
   0  -1   2   13.03    0.30
  -1   1  -2   13.97    0.45
  -1   1  -2   13.65    0.36
  -1   1  -2   13.28    0.44
  -1   1  -2   14.05    0.52
  -1   1  -2   14.01    0.32
  -1   1  -2   14.06    0.36
   1  -1   2   13.94    0.36
   1  -1   2   14.11    0.43
   1  -1   2   13.82    0.52
   1  -1   2   13.78    0.49
   1  -1   2   13.02    0.35
   1  -1   2   13.11    0.31
  -2   1  -2    1.61    0.30
  -2   1  -2    1.40    0.21
  -2   1  -2    1.47    0.33
  -2   1  -2    1.77    0.27
  -2   1  -2    1.52    0.29
   2  -1   2    1.86    0.23
   2  -1   2    1.33    0.28
   2  -1   2    1.48    0.27
   2  -1   2    1.24    0.32
   2  -1   2    1.85    0.36
  -3   1  -2    0.19    0.30
  -3   1  -2    0.23    0.26
  -3   1  -2   -0.10    0.25
  -3   1  -2    0.31    0.29
  -3   1  -2   -0.04    0.27
   3  -1   2    0.13    0.33
   3  -1   2    0.22    0.38
   3  -1   2   -0.17    0.28
   3  -1   2    0.10    0.24
   3  -1   2    0.05    0.34
  -4   1  -2    4.15    0.52
  -4   1  -2    3.72    0.46
  -4   1  -2    5.46    0.62
   4  -1   2    3.51    0.64
   4  -1   2    4.87    0.58
   4  -1   2    3.51    0.54
   4  -1   2    4.21    0.65
   4  -1   2    3.95    0.48
  -5   1  -2    0.45    0.49
  -5   1  -2    0.62    0.47
  -5   1  -2    0.08    0.53
  -5   1  -2    0.13    0.38
   5  -1   2   -0.14    0.56
   5  -1   2    0.04    0.64
   5  -1   2    0.19    0.62
   5  -1   2   -0.15    0.51
   5  -1   2    0.65    0.45
  -6   1  -2    1.43    0.75
   6  -1   2    0.96    0.70
   6  -1   2    2.48    0.85
   6  -1   2    0.75    0.67
   6   0  -2    7.38    0.98
   6   0  -2    7.80    0.94
   6   0  -2    7.97    1.02
   6   0  -2    7.69    1.08
   6   0  -2    6.57    1.03
  -6   0   2    7.64    0.89
  -6   0   2    8.73    1.00
   5   0  -2    9.81    0.96
   5   0  -2    9.98    0.85
   5   0  -2    9.56    0.94
   5   0  -2   11.04    0.98
   5   0  -2   11.15    0.98
  -5   0   2   10.70    0.88
  -5   0   2   10.27    0.95
  -5   0   2   11.70    0.86
   4   0  -2    6.18    0.67
   4   0  -2    5.43    0.55
   4   0  -2    5.04    0.64
   4   0  -2    5.18    0.63
   4   0  -2    5.71    0.67
   4   0  -2    6.11    0.63
  -4   0   2    5.81    0.41
  -4   0   2    5.05    0.56
  -4   0   2    6.27    0.51
  -4   0   2    5.85    0.61
   3   0  -2   21.52    0.82
   3   0  -2   21.39    0.84
   3   0  -2   20.57    0.75
   3   0  -2   21.36    0.85
  -3   0   2   21.60    0.65
  -3   0   2   20.82    0.79
  -3   0   2   21.72    0.76
  -3   0   2   23.28    0.59
   2   0  -2   47.74    1.11
   2   0  -2   46.29    1.07
   2   0  -2   47.36    1.12
   2   0  -2   48.11    1.05
   2   0  -2   48.97    1.11
  -2   0   2   48.74    0.92
  -2   0   2   48.77    1.03
  -2   0   2   47.74    0.87
  -2   0   2   48.15    1.15
  -2   0   2   48.79    1.10
   1   0  -2    8.06    0.20
   1   0  -2    7.80    0.24
   1   0  -2    8.52    0.40
   1   0  -2    7.14    0.38
   1   0  -2    8.10    0.34
   1   0  -2    9.16    0.26
   1   0  -2    7.82    0.36
   1   0  -2    7.44    0.35
  -1   0   2    7.73    0.34
  -1   0   2    8.20    0.20
  -1   0   2    7.66    0.39
  -1   0   2    8.14    0.38
  -1   0   2    8.55    0.33
  -1   0   2    8.85    0.27
  -1   0   2    8.00    0.25
  -1   0   2    8.04    0.38
   0   0  -2    2.57    0.13
   0   0  -2    2.80    0.20
   0   0  -2    2.93    0.18
   0   0  -2    2.55    0.17
   0   0  -2    2.56    0.19
   0   0   2    2.49    0.21
   0   0   2    2.57    0.21
   0   0   2    2.69    0.11
   0   0   2    2.56    0.17
   0   0   2    2.54    0.17
   0   0   2    2.76    0.21
   0   0   2    2.52    0.14
  -1   0  -2  808.96   12.74
  -1   0  -2  808.21   12.16
  -1   0  -2  791.28   12.72
  -1   0  -2  803.44   12.13
  -1   0  -2  799.65   12.40
  -1   0  -2  794.22   12.10
   1   0   2  785.32   12.41
   1   0   2  803.88   12.07
   1   0   2  791.37   12.27
   1   0   2  790.60   12.50
   1   0   2  807.63   12.22
   1   0   2  782.28   12.73
  -2   0  -2   43.04    0.93
  -2   0  -2   44.78    0.89
  -2   0  -2   46.21    1.05
  -2   0  -2   43.49    1.10
  -2   0  -2   44.72    1.07
   2   0   2   45.85    1.09
   2   0   2   45.29    1.14
   2   0   2   45.64    1.12
   2   0   2   45.44    0.97
  -3   0  -2   88.50    1.95
  -3   0  -2   91.53    1.55
  -3   0  -2   93.34    1.80
  -3   0  -2   90.24    1.90
   3   0   2   91.54    1.80
   3   0   2   92.82    2.01
   3   0   2   96.04    1.95
   3   0   2   92.14    1.97
   3   0   2   93.22    2.04
  -4   0  -2    0.25    0.39
  -4   0  -2   -0.32    0.41
  -4   0  -2    0.22    0.33
  -4   0  -2   -0.07    0.28
   4   0   2    0.39    0.43
   4   0   2   -0.05    0.45
   4   0   2    0.00    0.37
   4   0   2    0.28    0.47
   4   0   2   -0.08    0.38
  -5   0  -2    2.66    0.60
  -5   0  -2    2.82    0.44
  -5   0  -2    2.62    0.63
  -5   0  -2    1.84    0.52
   5   0   2    1.73    0.67
   5   0   2    2.67    0.60
   5   0   2    2.77    0.67
   5   0   2    2.46    0.57
   5   0   2    2.96    0.78
  -6   0  -2    1.27    0.75
  -6   0  -2    1.14    0.83
   6   0   2    1.98    0.76
   6   0   2    0.70    0.81
   6   0   2    2.05    0.76
   6   0   2    2.25    0.95
   6  -1  -2    0.69    0.66
   6  -1  -2    0.20    1.17
   6  -1  -2    0.01    0.62
   6  -1  -2    0.76    0.58
   6  -1  -2    1.80    0.85
  -6   1   2    0.18    0.59
  -6   1   2    1.00    0.67
   5  -1  -2   -0.26    0.61
   5  -1  -2   -0.12    0.55
   5  -1  -2    0.51    0.59
   5  -1  -2   -0.17    0.43
   5  -1  -2   -0.27    0.47
  -5   1   2    0.68    0.48
  -5   1   2    0.55    0.51
  -5   1   2    0.10    0.38
   4  -1  -2    6.15    0.63
   4  -1  -2    6.03    0.60
   4  -1  -2    6.18    0.64
   4  -1  -2    5.91    0.70
   4  -1  -2    4.61    0.52
   4  -1  -2    5.23    0.68
  -4   1   2    5.16    0.60
  -4   1   2    5.44    0.44
  -4   1   2    5.78    0.52
  -4   1   2    5.71    0.64
   3  -1  -2    0.55    0.25
   3  -1  -2    0.52    0.31
   3  -1  -2    0.92    0.30
   3  -1  -2    0.48    0.31
  -3   1   2    0.38    0.22
  -3   1   2    0.54    0.35
  -3   1   2    0.23    0.31
  -3   1   2    0.70    0.25
   2  -1  -2    0.20    0.20
   2  -1  -2    0.46    0.12
   2  -1  -2    0.30    0.24
   2  -1  -2    0.71    0.25
   2  -1  -2    0.50    0.28
  -2   1   2    0.55    0.21
  -2   1   2    0.52    0.31
  -2   1   2    0.74    0.28
  -2   1   2    0.66    0.26
  -2   1   2    0.27    0.18
   1  -1  -2  101.41    1.76
   1  -1  -2  103.86    1.74
   1  -1  -2  106.37    1.68
   1  -1  -2  105.63    1.68
   1  -1  -2  107.44    1.66
  -1   1   2  101.41    1.72
  -1   1   2  106.24    1.69
  -1   1   2  105.79    1.71
  -1   1   2  103.81    1.77
  -1   1   2  103.94    1.78
  -1   1   2  104.05    1.74
   0  -1  -2   40.01    0.67
   0  -1  -2   39.46    0.79
   0  -1  -2   40.94    0.71
   0  -1  -2   39.71    0.77
   0  -1  -2   40.42    0.68
   0  -1  -2   39.88    0.73
   0  -1  -2   40.22    0.76
   0  -1  -2   38.51    0.81
   0   1   2   40.65    0.71
   0   1   2   40.34    0.67
   0   1   2   37.92    0.72
   0   1   2   40.77    0.73
   0   1   2   39.88    0.68
   0   1   2   41.03    0.76
   0   1   2   39.99    0.76
  -1  -1  -2   44.05    0.89
  -1  -1  -2   42.83    0.93
  -1  -1  -2   42.79    0.70
  -1  -1  -2   41.58    0.97
  -1  -1  -2   42.75    0.91
  -1  -1  -2   41.76    0.94
  -1  -1  -2   42.61    0.88
   1   1   2   42.59    0.87
   1   1   2   42.96    0.92
   1   1   2   43.03    0.92
   1   1   2   42.76    0.88
   1   1   2   41.60    0.91
   1   1   2   43.47    0.95
  -2  -1  -2   15.12    0.61
  -2  -1  -2   14.61    0.67
  -2  -1  -2   14.85    0.47
  -2  -1  -2   14.42    0.49
  -2  -1  -2   13.31    0.64
   2   1   2   14.57    0.59
   2   1   2   14.83    0.64
   2   1   2   13.69    0.61
   2   1   2   15.62    0.64
   2   1   2   13.72    0.62
   2   1   2   12.77    0.62
  -3  -1  -2    1.36    0.29
  -3  -1  -2    1.63    0.25
  -3  -1  -2    1.90    0.43
  -3  -1  -2    1.14    0.45
   3   1   2    1.53    0.41
   3   1   2    1.59    0.39
   3   1   2    2.16    0.39
   3   1   2    0.91    0.38
   3   1   2    1.88    0.40
  -4  -1  -2   -0.28    0.31
  -4  -1  -2    0.01    0.42
  -4  -1  -2    0.86    0.41
   4   1   2    0.12    0.43
   4   1   2   -0.01    0.42
   4   1   2    0.03    0.41
   4   1   2   -0.34    0.40
   4   1   2    0.02    0.44
  -5  -1  -2    1.10    0.65
  -5  -1  -2    2.27    0.61
   5   1   2    1.49    0.61
   5   1   2    2.60    0.78
   5   1   2    2.79    0.62
   5   1   2    3.34    0.73
   5   1   2    0.90    0.62
  -6  -1  -2   -1.51    0.60
   6   1   2   -0.59    0.71
   6   1   2    0.35    0.61
   6   1   2    0.94    0.83
   6   1   2    0.03    0.74
   6  -2  -2    3.58    0.94
   6  -2  -2    1.99    0.66
   6  -2  -2    1.76    0.72
   6  -2  -2    3.08    0.78
  -6   2   2    5.05    0.89
  -6   2   2    2.40    0.73
   5  -2  -2    3.14    0.64
   5  -2  -2    3.07    0.69
   5  -2  -2    3.16    0.57
   5  -2  -2    3.10    0.76
   5  -2  -2    2.55    0.78
  -5   2   2    2.64    0.60
  -5   2   2    2.68    0.63
  -5   2   2    1.91    0.41
   4  -2  -2    9.03    0.71
   4  -2  -2    7.51    0.77
   4  -2  -2    8.44    0.80
   4  -2  -2    7.15    0.66
   4  -2  -2    7.83    0.56
   4  -2  -2    9.48    0.70
  -4   2   2    9.22    0.72
  -4   2   2    7.59    0.48
  -4   2   2    7.49    0.70
  -4   2   2    8.03    0.55
   3  -2  -2    2.97    0.44
   3  -2  -2    3.27    0.23
   3  -2  -2    2.10    0.34
   3  -2  -2    2.08    0.31
   3  -2  -2    2.68    0.36
  -3   2   2    2.49    0.35
  -3   2   2    2.50    0.26
  -3   2   2    2.58    0.40
  -3   2   2    3.21    0.45
   2  -2  -2    1.22    0.22
   2  -2  -2    1.48    0.28
   2  -2  -2    1.32    0.27
   2  -2  -2    0.90    0.28
  -2   2   2    1.44    0.26
  -2   2   2    1.43    0.32
  -2   2   2    1.54    0.30
  -2   2   2    1.22    0.29
  -2   2   2    1.32    0.33
   1  -2  -2    6.52    0.21
   1  -2  -2    6.56    0.17
  -1   2   2    7.08    0.39
  -1   2   2    7.24    0.47
  -1   2   2    7.37    0.40
  -1   2   2    7.10    0.39
  -1   2   2    6.81    0.39
  -1   2   2    6.27    0.41
   0  -2  -2    2.11    0.19
   0  -2  -2    1.82    0.26
   0  -2  -2    1.64    0.27
   0  -2  -2    2.22    0.15
   0  -2  -2    2.59    0.22
   0   2   2    2.22    0.17
   0   2   2    1.86    0.23
   0   2   2    2.07    0.25
   0   2   2    2.55    0.24
   0   2   2    2.40    0.22
   0   2   2    2.57    0.22
  -1  -2  -2    4.99    0.33
  -1  -2  -2    4.36    0.38
  -1  -2  -2    4.96    0.32
  -1  -2  -2    4.94    0.38
  -1  -2  -2    4.99    0.39
  -1  -2  -2    5.12    0.44
  -1  -2  -2    5.56    0.42
   1   2   2    4.60    0.32
   1   2   2    4.19    0.38
   1   2   2    4.29    0.33
   1   2   2    4.56    0.37
   1   2   2    4.85    0.38
  -2  -2  -2   30.29    0.66
  -2  -2  -2   31.26    1.00
  -2  -2  -2   29.94    0.92
  -2  -2  -2   29.76    0.94
  -2  -2  -2   29.64    0.81
   2   2   2   30.71    0.87
   2   2   2   30.53    0.84
   2   2   2   29.87    0.95
   2   2   2   29.28    0.94
   2   2   2   30.49    0.89
  -3  -2  -2    0.61    0.37
  -3  -2  -2    0.43    0.24
  -3  -2  -2    0.58    0.25
  -3  -2  -2    0.09    0.39
   3   2   2    1.06    0.36
   3   2   2    0.54    0.35
   3   2   2    0.79    0.37
   3   2   2    0.20    0.35
   3   2   2    0.63    0.33
  -4  -2  -2    0.75    0.56
  -4  -2  -2   -0.12    0.29
  -4  -2  -2    0.45    0.47
   4   2   2    0.10    0.47
   4   2   2    0.18    0.44
   4   2   2   -0.02    0.38
   4   2   2    0.81    0.53
   4   2   2    0.68    0.53
  -5  -2  -2    3.49    0.76
  -5  -2  -2    2.68    0.66
   5   2   2    3.73    0.69
   5   2   2    3.03    0.75
   5   2   2    2.38    0.60
   5   2   2    3.70    0.73
   5   2   2    3.97    0.75
  -6  -2  -2    0.68    0.79
   6   2   2    1.01    0.82
   6   2   2   -0.88    0.74
   6   2   2    1.02    0.59
   6  -3  -2    3.67    0.70
   6  -3  -2    3.38    0.75
   6  -3  -2    2.79    0.75
   6  -3  -2    2.67    0.94
  -6   3   2    2.52    0.79
  -6   3   2    2.83    0.76
   5  -3  -2    2.92    0.57
   5  -3  -2    3.89    0.61
   5  -3  -2    2.45    0.74
   5  -3  -2    4.07    0.79
   5  -3  -2    2.82    0.67
  -5   3   2    3.11    0.66
  -5   3   2    2.88    0.64
  -5   3   2    3.37    0.54
   4  -3  -2    7.97    0.64
   4  -3  -2    8.74    0.54
   4  -3  -2    7.99    0.82
   4  -3  -2    8.80    0.68
   4  -3  -2    7.14    0.67
  -4   3   2    8.08    0.75
  -4   3   2    9.15    0.80
  -4   3   2    8.00    0.61
   3  -3  -2    5.09    0.36
   3  -3  -2    5.43    0.52
   3  -3  -2    5.26    0.47
   3  -3  -2    5.14    0.44
  -3   3   2    5.20    0.46
  -3   3   2    5.17    0.54
  -3   3   2    5.58    0.53
   2  -3  -2   25.69    0.67
   2  -3  -2   26.07    0.81
   2  -3  -2   27.28    0.60
  -2   3   2   26.07    0.81
  -2   3   2   25.99    0.86
  -2   3   2   25.89    0.83
  -2   3   2   25.34    0.78
  -2   3   2   25.96    0.76
  -2   3   2   25.51    0.80
   1  -3  -2   -0.01    0.18
   1  -3  -2   -0.05    0.14
  -1   3   2    0.26    0.26
  -1   3   2   -0.18    0.23
  -1   3   2   -0.20    0.25
  -1   3   2   -0.06    0.24
  -1   3   2   -0.36    0.24
  -1   3   2    0.44    0.26
   0  -3  -2   31.96    0.77
   0  -3  -2   32.70    0.65
   0  -3  -2   33.50    0.67
   0  -3  -2   34.16    0.89
   0  -3  -2   33.57    0.85
   0   3   2   33.88    0.74
   0   3   2   33.85    0.82
   0   3   2   32.03    0.78
   0   3   2   34.38    0.82
   0   3   2   33.48    0.78
  -1  -3  -2    0.56    0.31
  -1  -3  -2    1.03    0.32
  -1  -3  -2    0.76    0.35
  -1  -3  -2    1.35    0.31
  -1  -3  -2    0.52    0.29
  -1  -3  -2    0.68    0.16
  -1  -3  -2    0.16    0.21
   1   3   2    0.32    0.28
   1   3   2    0.99    0.24
   1   3   2    0.61    0.28
   1   3   2    0.73    0.16
  -2  -3  -2    8.30    0.60
  -2  -3  -2    9.19    0.60
  -2  -3  -2    8.72    0.53
  -2  -3  -2    8.10    0.65
   2   3   2    8.33    0.59
   2   3   2    7.68    0.52
   2   3   2    8.10    0.46
   2   3   2    7.60    0.53
  -3  -3  -2   16.10    0.91
  -3  -3  -2   15.36    0.67
  -3  -3  -2   15.10    0.91
  -3  -3  -2   15.50    0.56
   3   3   2   14.12    0.84
   3   3   2   15.75    0.79
   3   3   2   16.62    0.73
   3   3   2   16.40    0.77
   3   3   2   15.67    0.86
  -4  -3  -2    5.41    0.68
  -4  -3  -2    6.41    0.80
   4   3   2    4.45    0.62
   4   3   2    4.44    0.72
   4   3   2    4.59    0.64
   4   3   2    3.40    0.66
   4   3   2    4.79    0.61
  -5  -3  -2    0.68    0.59
  -5  -3  -2   -0.38    0.68
   5   3   2    0.82    0.55
   5   3   2    0.24    0.65
   5   3   2   -0.47    0.52
   5   3   2    0.09    0.60
   5   3   2   -0.12    0.65
  -6  -3  -2    3.44    0.98
   6   3   2    2.07    0.88
   6   3   2    2.77    0.97
   6   3   2    3.72    0.86
   6  -4  -2    1.17    0.66
   6  -4  -2    0.61    0.84
   6  -4  -2    0.31    0.57
  -6   4   2    2.24    0.83
  -6   4   2    1.21    0.77
   5  -4  -2   -0.14    0.42
   5  -4  -2   -0.03    0.63
   5  -4  -2    0.54    0.48
   5  -4  -2    1.08    0.54
   5  -4  -2   -0.37    0.60
  -5   4   2   -1.00    0.46
  -5   4   2    0.70    0.42
  -5   4   2    0.56    0.54
   4  -4  -2   32.27    1.36
   4  -4  -2   31.88    1.02
   4  -4  -2   32.12    1.10
   4  -4  -2   30.21    1.01
   4  -4  -2   32.88    1.16
   4  -4  -2   31.84    0.83
  -4   4   2   31.88    1.12
  -4   4   2   32.77    1.26
  -4   4   2   32.08    1.22
   3  -4  -2    0.39    0.27
   3  -4  -2    0.46    0.29
   3  -4  -2    0.54    0.19
   3  -4  -2    0.85    0.28
  -3   4   2    0.46    0.33
  -3   4   2    0.64    0.39
  -3   4   2    0.92    0.39
  -3   4   2    0.72    0.37
   2  -4  -2   -0.03    0.16
   2  -4  -2   -0.08    0.09
   2  -4  -2   -0.56    0.21
   2  -4  -2    0.10    0.13
  -2   4   2    0.29    0.30
  -2   4   2   -0.23    0.27
  -2   4   2    0.24    0.29
  -2   4   2    0.16    0.27
  -2   4   2    0.41    0.28
  -2   4   2    0.12    0.30
   1  -4  -2  121.96    2.18
   1  -4  -2  126.41    2.08
  -1   4   2  124.49    2.28
  -1   4   2  129.46    2.27
  -1   4   2  125.18    2.28
  -1   4   2  124.10    2.24
  -1   4   2  124.33    2.29
  -1   4   2  126.87    2.27
   0  -4  -2   15.08    0.69
   0  -4  -2   16.55    0.49
   0  -4  -2   15.74    0.60
   0  -4  -2   16.13    0.63
   0  -4  -2   16.17    0.41
   0   4   2   15.71    0.60
   0   4   2   16.11    0.59
   0   4   2   16.23    0.60
   0   4   2   17.00    0.63
  -1  -4  -2    1.17    0.25
  -1  -4  -2    1.27    0.39
  -1  -4  -2    1.13    0.41
  -1  -4  -2    1.20    0.33
   1   4   2    1.24    0.14
   1   4   2    1.44    0.32
   1   4   2    1.39    0.29
   1   4   2    1.12    0.23
   1   4   2    1.68    0.32
  -2  -4  -2   13.25    0.63
  -2  -4  -2   13.40    0.71
  -2  -4  -2   13.58    0.81
  -2  -4  -2   12.55    0.71
  -2  -4  -2   12.71    0.81
   2   4   2   12.49    0.59
   2   4   2   13.32    0.71
   2   4   2   13.94    0.73
   2   4   2   12.97    0.48
  -3  -4  -2    0.67    0.45
  -3  -4  -2   -0.22    0.40
  -3  -4  -2    0.33    0.23
  -3  -4  -2   -0.29    0.32
  -3  -4  -2    0.54    0.51
   3   4   2    0.26    0.38
   3   4   2    0.39    0.38
   3   4   2    0.31    0.28
   3   4   2   -0.69    0.38
  -4  -4  -2    0.33    0.59
  -4  -4  -2    0.80    0.68
   4   4   2    0.06    0.51
   4   4   2    0.34    0.37
   4   4   2   -0.28    0.52
   4   4   2    0.04    0.47
  -5  -4  -2    0.73    0.66
  -5  -4  -2    0.45    0.84
   5   4   2    1.14    0.73
   5   4   2    0.02    0.65
   5   4   2    0.07    0.62
   6  -5  -2    2.88    0.95
  -6   5   2   -0.20    0.73
  -6   5   2    0.55    0.80
  -6   5   2    0.31    0.71
   5  -5  -2   27.39    1.48
   5  -5  -2   28.75    1.19
   5  -5  -2   26.78    1.49
   5  -5  -2   30.01    1.31
  -5   5   2   27.69    1.35
  -5   5   2   26.77    1.22
  -5   5   2   27.90    1.44
   4  -5  -2    9.62    0.58
   4  -5  -2    6.85    0.80
   4  -5  -2    6.74    0.62
   4  -5  -2    5.92    0.52
   4  -5  -2    6.61    0.67
  -4   5   2    5.89    0.63
  -4   5   2    6.17    0.72
  -4   5   2    7.24    0.80
   3  -5  -2    0.42    0.15
   3  -5  -2    0.33    0.39
   3  -5  -2   -0.35    0.30
   3  -5  -2   -0.26    0.30
   3  -5  -2    0.22    0.23
  -3   5   2    0.05    0.38
  -3   5   2    0.78    0.38
  -3   5   2    0.17    0.38
  -3   5   2    0.46    0.46
   2  -5  -2    5.04    0.23
   2  -5  -2    4.38    0.27
   2  -5  -2    5.03    0.26
   2  -5  -2    4.42    0.47
   2  -5  -2    5.03    0.29
  -2   5   2    5.38    0.54
  -2   5   2    5.57    0.54
  -2   5   2    5.12    0.51
  -2   5   2    6.50    0.56
  -2   5   2    5.25    0.52
  -2   5   2    5.86    0.53
   1  -5  -2   50.13    1.17
   1  -5  -2   50.68    1.10
   1  -5  -2   48.57    1.09
  -1   5   2   49.67    1.22
  -1   5   2   46.59    1.19
  -1   5   2   49.04    1.22
  -1   5   2   49.55    1.23
  -1   5   2   48.66    1.22
   0  -5  -2    0.04    0.24
   0  -5  -2    0.38    0.21
   0  -5  -2    0.12    0.33
   0  -5  -2    0.06    0.12
   0  -5  -2    0.13    0.33
   0   5   2    0.09    0.28
   0   5   2   -0.13    0.29
   0   5   2    0.30    0.23
   0   5   2   -0.38    0.27
  -1  -5  -2   12.22    0.65
  -1  -5  -2   10.55    0.71
  -1  -5  -2   10.91    0.72
  -1  -5  -2   11.94    0.53
   1   5   2   11.88    0.47
   1   5   2   10.95    0.61
   1   5   2   12.06    0.66
  -2  -5  -2   28.89    0.91
  -2  -5  -2   29.99    1.08
  -2  -5  -2   28.22    1.17
  -2  -5  -2   28.03    1.18
  -2  -5  -2   29.30    1.13
   2   5   2   27.92    0.85
   2   5   2   27.98    0.66
   2   5   2   28.00    1.06
  -3  -5  -2    0.64    0.52
  -3  -5  -2    0.74    0.50
  -3  -5  -2    0.28    0.40
  -3  -5  -2    1.00    0.58
   3   5   2    0.65    0.39
   3   5   2    0.78    0.28
   3   5   2    1.20    0.57
   3   5   2   -0.06    0.41
  -4  -5  -2    1.60    0.72
  -4  -5  -2    0.80    0.65
   4   5   2   -0.15    0.51
   4   5   2    0.89    0.56
   4   5   2   -0.37    0.56
  -5  -5  -2   -1.06    0.65
  -5  -5  -2    1.51    0.94
   5   5   2    0.62    0.71
   5   5   2    1.40    0.78
   6  -6  -2   -1.20    0.74
  -6   6   2    0.15    0.79
  -6   6   2    0.61    0.63
  -6   6   2    0.39    0.74
   5  -6  -2   10.79    0.84
   5  -6  -2   13.05    0.97
   5  -6  -2   11.78    1.17
   5  -6  -2    8.80    1.10
  -5   6   2   11.58    1.07
  -5   6   2   10.72    1.07
  -5   6   2   10.37    0.94
   4  -6  -2    9.41    0.92
   4  -6  -2    9.47    0.73
   4  -6  -2   10.31    0.79
  -4   6   2    8.68    0.86
  -4   6   2   10.65    0.83
  -4   6   2   10.61    0.91
   3  -6  -2    4.04    0.53
   3  -6  -2    2.66    0.28
   3  -6  -2    3.21    0.56
   3  -6  -2    4.66    0.33
  -3   6   2    3.12    0.55
  -3   6   2    2.63    0.51
  -3   6   2    2.79    0.55
  -3   6   2    3.59    0.54
  -3   6   2    3.42    0.56
  -3   6   2    4.35    0.63
   2  -6  -2    4.57    0.34
   2  -6  -2    5.03    0.51
   2  -6  -2    4.94    0.26
   2  -6  -2    5.18    0.52
  -2   6   2    4.75    0.57
  -2   6   2    4.04    0.50
  -2   6   2    4.63    0.54
  -2   6   2    5.24    0.56
  -2   6   2    5.69    0.57
  -2   6   2    5.34    0.54
   1  -6  -2   63.38    1.37
   1  -6  -2   62.92    1.31
   1  -6  -2   63.97    1.40
   1  -6  -2   61.74    1.59
   1  -6  -2   60.86    1.44
  -1   6   2   63.15    1.50
  -1   6   2   63.04    1.50
  -1   6   2   63.89    1.54
  -1   6   2   61.96    1.50
  -1   6   2   60.28    1.48
   0  -6  -2    3.54    0.44
   0  -6  -2    4.62    0.39
   0  -6  -2    3.71    0.48
   0  -6  -2    4.16    0.55
   0  -6  -2    3.19    0.20
   0  -6  -2    3.58    0.21
   0   6   2    3.57    0.46
   0   6   2    3.62    0.46
   0   6   2    3.86    0.45
  -1  -6  -2   22.93    1.02
  -1  -6  -2   22.48    0.92
  -1  -6  -2   21.44    0.75
  -1  -6  -2   21.75    1.05
   1   6   2   22.59    0.87
   1   6   2   22.65    0.89
   1   6   2   22.90    0.84
  -2  -6  -2   18.77    1.03
  -2  -6  -2   17.39    0.78
  -2  -6  -2   18.04    0.96
  -2  -6  -2   18.58    0.94
  -2  -6  -2   16.17    1.03
   2   6   2   16.82    0.65
   2   6   2   16.98    0.92
   2   6   2   17.11    0.82
  -3  -6  -2    4.32    0.73
  -3  -6  -2    4.48    0.72
  -3  -6  -2    5.20    0.68
  -3  -6  -2    4.31    0.79
   3   6   2    4.54    0.55
   3   6   2    3.72    0.69
  -4  -6  -2    2.72    0.82
  -4  -6  -2    1.77    0.77
   4   6   2    2.79    0.78
  -5  -6  -2    1.16    0.89
  -5  -6  -2    0.69    0.99
   5   6   2    0.14    0.73
   5  -7  -2    1.03    0.51
   5  -7  -2    1.17    0.72
   5  -7  -2    1.93    0.88
   5  -7  -2    2.87    0.79
  -5   7   2    2.07    0.74
  -5   7   2    1.40    0.62
  -5   7   2    3.55    0.80
   4  -7  -2    0.16    0.52
   4  -7  -2   -0.22    0.38
   4  -7  -2   -0.09    0.39
   4  -7  -2   -0.25    0.54
  -4   7   2    0.46    0.50
  -4   7   2    0.82    0.57
  -4   7   2    0.40    0.60
   3  -7  -2   -0.19    0.41
   3  -7  -2   -0.70    0.36
   3  -7  -2   -0.40    0.35
  -3   7   2   -0.39    0.43
  -3   7   2    0.48    0.47
  -3   7   2    0.19    0.45
  -3   7   2    0.39    0.46
  -3   7   2    0.79    0.44
  -3   7   2   -0.68    0.46
   2  -7  -2   28.19    0.80
   2  -7  -2   27.69    1.00
   2  -7  -2   29.56    1.00
   2  -7  -2   28.45    1.00
  -2   7   2   29.20    1.10
  -2   7   2   26.50    1.06
  -2   7   2   26.07    1.04
  -2   7   2   26.27    1.11
  -2   7   2   26.28    1.03
  -2   7   2   27.28    1.11
   1  -7  -2    3.08    0.40
   1  -7  -2    2.53    0.33
   1  -7  -2    3.39    0.50
   1  -7  -2    2.59    0.44
   1  -7  -2    3.81    0.61
  -1   7   2    1.74    0.43
  -1   7   2    2.61    0.51
  -1   7   2    1.70    0.42
   0  -7  -2   10.06    0.69
   0  -7  -2   12.01    0.62
   0  -7  -2   11.86    0.81
   0  -7  -2   10.40    0.86
   0   7   2    9.47    0.67
   0   7   2   10.73    0.70
   0   7   2   10.58    0.71
  -1  -7  -2    3.29    0.44
  -1  -7  -2    3.01    0.62
  -1  -7  -2    3.19    0.54
  -1  -7  -2    3.68    0.63
   1   7   2    3.29    0.49
   1   7   2    3.11    0.49
   1   7   2    3.95    0.49
  -2  -7  -2   46.64    1.32
  -2  -7  -2   45.55    1.67
  -2  -7  -2   43.90    1.67
  -2  -7  -2   47.24    1.61
  -2  -7  -2   50.09    1.59
   2   7   2   46.86    1.42
   2   7   2   47.52    1.52
  -3  -7  -2    2.57    0.81
  -3  -7  -2    1.74    0.71
  -3  -7  -2    2.24    0.63
  -3  -7  -2    2.22    0.64
   3   7   2    2.14    0.66
   3   7   2    2.30    0.54
  -4  -7  -2    8.27    1.21
  -4  -7  -2    9.56    1.23
   4   7   2    8.31    1.06
   5  -8  -2    8.12    1.10
  -5   8   2    8.71    0.99
  -5   8   2    8.11    1.08
  -5   8   2    8.42    1.13
   4  -8  -2    2.56    0.56
   4  -8  -2    1.99    0.59
   4  -8  -2    2.55    0.64
   4  -8  -2    2.03    0.53
   4  -8  -2    2.81    0.72
  -4   8   2    2.52    0.65
  -4   8   2    2.85    0.71
  -4   8   2    2.21    0.72
   3  -8  -2   -0.56    0.38
   3  -8  -2   -0.82    0.32
   3  -8  -2   -0.15    0.41
  -3   8   2   -0.43    0.46
  -3   8   2   -0.15    0.47
  -3   8   2    0.49    0.55
  -3   8   2    0.64    0.54
  -3   8   2   -1.03    0.44
  -3   8   2    0.00    0.46
   2  -8  -2    4.43    0.51
   2  -8  -2    4.51    0.46
   2  -8  -2    3.55    0.62
   2  -8  -2    3.96    0.57
   2  -8  -2    3.61    0.49
  -2   8   2    3.19    0.57
  -2   8   2    4.21    0.62
  -2   8   2    2.94    0.56
  -2   8   2    4.11    0.64
   1  -8  -2   28.94    1.08
   1  -8  -2   26.20    1.03
   1  -8  -2   27.59    1.22
   1  -8  -2   29.46    0.98
   1  -8  -2   29.05    0.82
  -1   8   2   26.78    1.09
  -1   8   2   29.16    1.12
  -1   8   2   27.19    1.09
   0  -8  -2    7.29    0.70
   0  -8  -2    8.26    0.62
   0  -8  -2    8.69    0.80
   0  -8  -2    7.86    0.85
   0   8   2    8.04    0.72
   0   8   2    7.09    0.70
   0   8   2    8.80    0.74
  -1  -8  -2   28.31    1.28
  -1  -8  -2   28.57    1.02
  -1  -8  -2   28.64    1.26
  -1  -8  -2   27.40    1.32
   1   8   2   27.12    1.10
   1   8   2   27.24    1.14
   1   8   2   29.21    1.11
   1   8   2   30.23    1.08
  -2  -8  -2   13.50    1.01
  -2  -8  -2   12.61    1.13
  -2  -8  -2   12.69    1.06
  -2  -8  -2   11.62    1.07
  -2  -8  -2   12.65    0.79
   2   8   2   11.89    0.84
   2   8   2   11.45    0.91
   2   8   2   12.83    0.94
  -3  -8  -2    0.57    0.82
  -3  -8  -2   -0.35    0.56
  -3  -8  -2    1.70    0.65
  -3  -8  -2    0.11    0.69
   3   8   2   -0.02    0.58
   3   8   2    1.24    0.57
  -4  -8  -2    0.61    0.83
  -4  -8  -2    0.54    0.82
   4   8   2   -0.34    0.67
   5  -9  -2    1.60    0.86
  -5   9   2   -0.92    0.62
  -5   9   2    0.29    0.73
  -5   9   2    0.38    0.85
   4  -9  -2    1.16    0.57
   4  -9  -2    0.74    0.51
   4  -9  -2    0.81    0.49
   4  -9  -2   -0.42    0.59
  -4   9   2    1.02    0.81
  -4   9   2    1.33    0.66
  -4   9   2    1.75    0.71
   3  -9  -2    6.08    0.69
   3  -9  -2    5.86    0.69
   3  -9  -2    4.82    0.69
   3  -9  -2    6.60    0.73
  -3   9   2    5.79    0.79
  -3   9   2    5.63    0.77
  -3   9   2    4.19    0.74
  -3   9   2    6.83    0.89
   2  -9  -2    2.92    0.58
   2  -9  -2    2.31    0.62
   2  -9  -2    2.25    0.48
  -2   9   2    2.03    0.62
  -2   9   2    2.45    0.62
  -2   9   2    2.91    0.61
   1  -9  -2    0.81    0.40
   1  -9  -2    0.97    0.52
   1  -9  -2    0.44    0.46
   1  -9  -2    0.75    0.57
  -1   9   2    0.95    0.48
  -1   9   2    0.80    0.49
  -1   9   2   -0.34    0.42
   0  -9  -2    5.03    0.56
   0  -9  -2    6.05    0.80
   0  -9  -2    5.43    0.80
   0  -9  -2    4.89    0.69
   0   9   2    6.77    0.76
   0   9   2    4.45    0.65
   0   9   2    4.97    0.61
  -1  -9  -2    9.04    0.98
  -1  -9  -2    8.01    0.66
  -1  -9  -2    7.89    0.87
  -1  -9  -2    9.19    0.94
   1   9   2    8.43    0.78
   1   9   2    8.04    0.80
   1   9   2    6.95    0.77
  -2  -9  -2    1.09    0.84
  -2  -9  -2    1.71    0.73
  -2  -9  -2    1.36    0.64
  -2  -9  -2    1.94    0.74
   2   9   2    0.96    0.59
   2   9   2    0.63    0.56
   2   9   2    1.09    0.52
  -3  -9  -2    1.09    0.81
  -3  -9  -2    1.89    0.92
  -3  -9  -2    2.32    0.79
   3   9   2    2.50    0.68
   3   9   2    2.16    0.81
   4 -10  -2   -1.31    0.54
   4 -10  -2    0.54    0.48
   4 -10  -2    0.59    0.60
  -4  10   2    0.79    0.75
  -4  10   2    0.62    0.67
  -4  10   2    0.32    0.70
   3 -10  -2    0.94    0.67
   3 -10  -2    1.58    0.59
   3 -10  -2    0.94    0.52
   3 -10  -2    1.87    0.56
  -3  10   2    2.08    0.76
  -3  10   2    1.08    0.62
  -3  10   2    1.33    0.70
  -3  10   2    1.25    0.64
   2 -10  -2    3.25    0.62
   2 -10  -2    3.17    0.73
   2 -10  -2    2.93    0.54
  -2  10   2    4.08    0.71
  -2  10   2    4.12    0.71
  -2  10   2    3.56    0.76
   1 -10  -2    0.35    0.45
   1 -10  -2   -0.09    0.52
   1 -10  -2    0.16    0.66
   1 -10  -2    0.25    0.51
  -1  10   2    0.98    0.55
  -1  10   2   -1.01    0.46
  -1  10   2   -0.16    0.46
   0 -10  -2    0.26    0.52
   0 -10  -2   -0.81    0.61
   0 -10  -2   -0.37    0.57
   0  10   2   -0.18    0.55
   0  10   2   -0.05    0.48
   0  10   2   -0.94    0.55
  -1 -10  -2    0.64    0.74
  -1 -10  -2   -0.85    0.65
  -1 -10  -2    0.23    0.65
   1  10   2   -0.45    0.49
   1  10   2    0.82    0.50
   1  10   2    0.59    0.58
  -2 -10  -2    1.60    0.86
  -2 -10  -2   -0.52    0.65
  -2 -10  -2    0.72    0.68
  -2 -10  -2    0.19    0.67
   2  10   2    1.03    0.67
   2  10   2   -0.74    0.51
  -3 -10  -2    1.04    0.76
  -3 -10  -2    0.07    0.79
  -3 -10  -2    0.71    1.00
   3  10   2    0.58    0.63
   3  10   2   -1.15    0.61
   3 -11  -2    5.18    0.93
  -3  11   2    8.10    1.05
  -3  11   2    7.15    0.96
  -3  11   2    7.74    1.01
   2 -11  -2    0.15    0.67
   2 -11  -2    0.98    0.60
  -2  11   2   -0.06    0.59
  -2  11   2    1.95    0.71
  -2  11   2    0.71    0.63
   1 -11  -2    1.15    0.57
   1 -11  -2    2.89    0.84
  -1  11   2    1.02    0.63
  -1  11   2    0.66    0.61
  -1  11   2    1.77    0.65
   0 -11  -2    3.92    0.83
   0 -11  -2    1.90    0.76
   0 -11  -2    1.58    0.81
   0  11   2    2.41    0.68
   0  11   2    2.77    0.67
   0  11   2    2.64    0.73
  -1 -11  -2    4.11    0.97
  -1 -11  -2    5.28    0.97
  -1 -11  -2    3.73    0.86
  -1 -11  -2    4.89    1.01
   1  11   2    4.42    0.77
   1  11   2    3.56    0.86
   1  11   2    3.68    0.84
  -2 -11  -2   -0.13    0.84
  -2 -11  -2    0.83    0.99
  -2 -11  -2    2.20    0.84
   2  11   2    0.05    0.70
   2  11   2    1.39    0.75
   2 -12  -2    3.39    0.95
  -2  12   2    2.82    0.80
  -2  12   2    4.33    0.93
  -2  12   2    4.38    0.95
   1 -12  -2    4.94    1.03
  -1  12   2    3.96    0.79
  -1  12   2    4.72    0.90
  -1  12   2    5.86    0.91
   0 -12  -2   -0.34    0.90
   0 -12  -2    0.64    0.69
   0  12   2   -0.37    0.70
   0  12   2   -0.09    0.56
   0  12   2   -0.26    0.61
   1  12  -3    8.37    0.99
   1  12  -3    8.89    1.10
  -1 -12   3   11.08    1.28
  -1 -12   3   11.73    1.42
   0  12  -3   -0.47    0.74
   0  12  -3    1.10    0.64
   0 -12   3   -0.53    0.88
   0 -12   3   -0.50    0.65
   0 -12   3    0.26    0.73
  -1  12  -3    8.17    0.99
  -1  12  -3    7.12    0.97
   1 -12   3   10.27    1.31
   1 -12   3    7.21    0.96
  -2  12  -3   32.07    1.49
  -2  12  -3   32.25    1.63
  -2  12  -3   32.24    1.60
   2 -12   3   31.77    1.62
   2 -12   3   33.45    1.89
   2  11  -3    0.13    0.63
   2  11  -3    0.13    0.64
  -2 -11   3   -0.17    0.76
  -2 -11   3    0.61    0.86
  -2 -11   3    0.56    0.66
   1  11  -3    0.09    0.61
   1  11  -3   -0.43    0.61
  -1 -11   3   -0.10    0.75
  -1 -11   3   -0.48    0.82
  -1 -11   3   -1.16    0.57
   0  11  -3   -0.46    0.56
   0  11  -3    0.42    0.60
   0 -11   3   -0.49    0.78
   0 -11   3   -0.46    0.59
   0 -11   3    0.15    0.66
   0 -11   3   -0.30    0.60
  -1  11  -3    0.24    0.56
  -1  11  -3    0.56    0.61
  -1  11  -3    0.36    0.51
  -1  11  -3    1.49    0.66
   1 -11   3    0.33    0.61
   1 -11   3    0.37    0.71
   1 -11   3    0.54    0.63
   1 -11   3    1.27    0.65
  -2  11  -3   16.19    1.26
  -2  11  -3   14.32    1.05
  -2  11  -3   16.19    1.20
   2 -11   3   14.77    1.20
   2 -11   3   18.08    1.34
  -3  11  -3   -0.23    0.64
  -3  11  -3   -0.07    0.55
  -3  11  -3    0.29    0.69
   3 -11   3    0.59    0.70
   3  10  -3    4.06    0.90
   3  10  -3    2.53    0.80
  -3 -10   3    1.57    0.86
  -3 -10   3    1.24    0.73
  -3 -10   3    2.97    1.05
   2  10  -3   11.19    1.08
   2  10  -3   12.84    0.99
   2  10  -3    9.71    1.06
  -2 -10   3    7.94    0.92
  -2 -10   3    9.87    1.24
  -2 -10   3    9.03    1.15
  -2 -10   3    7.69    1.14
   1  10  -3    1.36    0.59
   1  10  -3    1.10    0.56
  -1 -10   3    1.59    0.83
  -1 -10   3    0.45    0.71
  -1 -10   3    0.97    0.66
  -1 -10   3    1.07    0.63
   0  10  -3    7.02    0.67
   0  10  -3    5.11    0.67
   0  10  -3    5.29    0.75
   0 -10   3    5.97    0.86
   0 -10   3    6.36    1.00
   0 -10   3    5.75    0.83
   0 -10   3    6.59    0.82
  -1  10  -3   22.07    1.18
  -1  10  -3   24.44    1.07
  -1  10  -3   23.95    1.18
  -1  10  -3   23.81    1.18
   1 -10   3   20.48    1.20
   1 -10   3   23.18    1.24
   1 -10   3   23.14    1.27
  -2  10  -3    5.29    0.76
  -2  10  -3    4.51    0.73
  -2  10  -3    5.35    0.74
   2 -10   3    5.11    1.13
   2 -10   3    5.37    0.78
   2 -10   3    5.03    0.86
  -3  10  -3    0.20    0.55
  -3  10  -3    0.28    0.64
  -3  10  -3    1.53    0.66
  -3  10  -3    1.48    0.63
   3 -10   3    0.85    0.61
   3 -10   3    0.74    0.62
  -4  10  -3    1.36    0.63
  -4  10  -3    0.04    0.67
  -4  10  -3    0.25    0.64
   4 -10   3   -0.65    0.59
   4   9  -3    1.18    0.72
  -4  -9   3    2.61    0.81
  -4  -9   3    3.27    0.99
  -4  -9   3    0.20    0.81
   3   9  -3   -0.16    0.61
  -3  -9   3   -0.42    0.77
  -3  -9   3    0.29    0.65
  -3  -9   3    0.75    0.79
   2   9  -3    1.08    0.48
   2   9  -3   -0.40    0.49
  -2  -9   3    0.95    0.65
  -2  -9   3    0.13    0.54
  -2  -9   3   -0.20    0.59
  -2  -9   3    1.27    0.66
   1   9  -3   -0.26    0.46
   1   9  -3    0.04    0.37
   1   9  -3    0.47    0.48
  -1  -9   3   -0.66    0.62
  -1  -9   3   -0.01    0.56
  -1  -9   3   -0.38    0.51
  -1  -9   3    0.43    0.59
   0   9  -3    1.83    0.50
   0   9  -3    2.15    0.56
   0   9  -3    2.56    0.50
   0   9  -3    2.50    0.44
   0  -9   3    2.09    0.60
   0  -9   3    2.09    0.66
   0  -9   3    1.66    0.47
   0  -9   3    1.83    0.64
   0  -9   3    2.23    0.59
  -1   9  -3    0.46    0.45
  -1   9  -3    0.74    0.49
  -1   9  -3    1.21    0.46
  -1   9  -3    1.84    0.49
   1  -9   3    1.32    0.56
   1  -9   3    1.02    0.56
   1  -9   3    0.74    0.37
   1  -9   3    1.07    0.49
  -2   9  -3    1.48    0.59
  -2   9  -3    2.23    0.54
  -2   9  -3    1.49    0.55
  -2   9  -3    0.48    0.48
   2  -9   3    1.08    0.59
   2  -9   3    0.88    0.37
   2  -9   3    2.29    0.63
  -3   9  -3    9.65    0.97
  -3   9  -3   10.48    0.91
  -3   9  -3   10.77    0.93
  -3   9  -3   10.73    1.03
   3  -9   3    9.29    0.79
   3  -9   3   11.20    0.91
   3  -9   3    8.73    0.92
   3  -9   3    9.80    0.97
  -4   9  -3   12.52    1.19
  -4   9  -3   11.53    0.99
  -4   9  -3   11.53    1.07
   4  -9   3   11.55    1.14
   4  -9   3   14.15    1.19
   4  -9   3   11.03    1.03
   4  -9   3    9.44    1.02
  -5   9  -3    0.60    0.75
  -5   9  -3    0.79    0.72
   5  -9   3    0.50    0.80
   4   8  -3    3.62    0.82
   4   8  -3    4.45    0.97
  -4  -8   3    3.77    0.84
  -4  -8   3    4.46    0.82
  -4  -8   3    2.92    0.95
   3   8  -3    2.16    0.68
   3   8  -3    2.69    0.72
  -3  -8   3    2.55    0.75
  -3  -8   3    1.13    0.70
  -3  -8   3    1.65    0.61
  -3  -8   3    3.86    0.86
   2   8  -3    2.56    0.52
  -2  -8   3    2.06    0.55
  -2  -8   3    1.18    0.63
  -2  -8   3    2.93    0.68
  -2  -8   3    1.88    0.65
   1   8  -3    9.24    0.79
   1   8  -3   11.15    0.67
   1   8  -3   11.10    0.58
   1   8  -3   10.16    0.73
  -1  -8   3   12.99    1.03
  -1  -8   3   11.13    0.94
  -1  -8   3   11.83    0.93
  -1  -8   3   10.44    0.81
   0   8  -3    5.36    0.62
   0   8  -3    5.39    0.51
   0   8  -3    4.49    0.37
   0   8  -3    5.07    0.59
   0   8  -3    5.42    0.61
   0  -8   3    4.71    0.60
   0  -8   3    6.21    0.77
   0  -8   3    5.89    0.57
   0  -8   3    5.29    0.71
  -1   8  -3    6.51    0.67
  -1   8  -3    7.09    0.70
  -1   8  -3    5.90    0.58
  -1   8  -3    7.38    0.67
   1  -8   3    5.68    0.64
   1  -8   3    5.93    0.47
   1  -8   3    6.68    0.73
   1  -8   3    6.80    0.55
  -2   8  -3    8.17    0.73
  -2   8  -3    8.83    0.78
  -2   8  -3    9.57    0.86
  -2   8  -3   10.77    0.82
   2  -8   3    8.11    0.63
   2  -8   3    9.09    0.59
   2  -8   3    9.75    0.84
   2  -8   3    8.91    0.81
   2  -8   3    7.94    0.66
  -3   8  -3    0.63    0.54
  -3   8  -3    1.13    0.52
  -3   8  -3    1.77    0.64
  -3   8  -3    2.35    0.53
   3  -8   3    1.00    0.56
   3  -8   3    0.65    0.45
   3  -8   3    1.97    0.59
   3  -8   3    1.90    0.52
  -4   8  -3    0.30    0.56
  -4   8  -3    0.02    0.56
  -4   8  -3   -0.45    0.57
   4  -8   3    0.84    0.63
   4  -8   3    1.14    0.62
   4  -8   3    0.35    0.55
  -5   8  -3    1.17    0.72
  -5   8  -3    0.93    0.68
   5  -8   3    1.55    0.87
   5   7  -3    1.44    0.80
   5   7  -3    1.69    0.86
  -5  -7   3   -0.69    0.70
   4   7  -3    4.65    0.83
   4   7  -3    5.74    0.95
  -4  -7   3    5.67    0.91
  -4  -7   3    4.94    0.87
  -4  -7   3    4.70    0.89
  -4  -7   3    4.84    0.87
   3   7  -3    0.06    0.48
   3   7  -3    0.96    0.55
  -3  -7   3    1.37    0.74
  -3  -7   3    0.09    0.56
  -3  -7   3    0.57    0.53
  -3  -7   3    0.41    0.49
   2   7  -3    1.84    0.52
   2   7  -3    2.15    0.56
   2   7  -3    1.88    0.32
  -2  -7   3    2.21    0.68
  -2  -7   3    1.92    0.60
  -2  -7   3    1.35    0.55
  -2  -7   3    2.04    0.51
   1   7  -3    0.01    0.24
   1   7  -3    0.20    0.30
  -1  -7   3   -0.03    0.46
  -1  -7   3    0.65    0.50
  -1  -7   3    1.00    0.43
  -1  -7   3    0.45    0.39
  -1  -7   3    0.30    0.45
   0   7  -3   48.69    1.19
   0   7  -3   49.17    1.32
   0   7  -3   50.72    1.29
   0   7  -3   50.05    1.07
   0   7  -3   48.83    1.36
   0  -7   3   47.41    1.36
   0  -7   3   51.40    1.28
   0  -7   3   50.03    0.95
   0  -7   3   47.63    1.46
   0  -7   3   51.81    1.48
  -1   7  -3    8.46    0.67
  -1   7  -3    8.37    0.66
  -1   7  -3    7.64    0.54
  -1   7  -3    8.41    0.62
   1  -7   3    8.99    0.74
   1  -7   3    8.51    0.45
   1  -7   3    8.27    0.68
   1  -7   3    8.26    0.53
   1  -7   3    7.19    0.50
  -2   7  -3    1.07    0.44
  -2   7  -3    2.12    0.50
  -2   7  -3    2.58    0.45
  -2   7  -3    1.79    0.44
   2  -7   3    1.50    0.40
   2  -7   3    1.92    0.50
   2  -7   3    1.77    0.48
   2  -7   3    1.59    0.39
   2  -7   3    1.62    0.36
  -3   7  -3    8.69    0.76
  -3   7  -3    9.37    0.82
  -3   7  -3    8.88    0.84
   3  -7   3    8.96    0.62
   3  -7   3    8.72    0.60
   3  -7   3    9.17    0.79
   3  -7   3    8.84    0.82
   3  -7   3    8.26    0.78
   3  -7   3    9.35    0.58
  -4   7  -3    0.82    0.56
  -4   7  -3   -0.19    0.53
   4  -7   3    0.59    0.65
   4  -7   3    0.77    0.43
   4  -7   3    2.24    0.67
  -5   7  -3    1.45    0.66
  -5   7  -3    1.68    0.73
   5  -7   3    0.95    1.27
   5  -7   3    3.21    0.93
   5   6  -3   10.53    1.19
   5   6  -3   10.61    1.19
  -5  -6   3   10.63    1.21
   4   6  -3    4.07    0.74
   4   6  -3    3.09    0.76
   4   6  -3    4.43    0.80
  -4  -6   3    3.96    0.80
  -4  -6   3    3.66    0.76
  -4  -6   3    5.62    0.91
  -4  -6   3    3.84    0.72
   3   6  -3    0.14    0.49
   3   6  -3   -0.17    0.43
   3   6  -3    0.08    0.46
  -3  -6   3    0.03    0.49
  -3  -6   3    0.29    0.46
  -3  -6   3   -0.32    0.47
  -3  -6   3   -0.56    0.51
   2   6  -3   -0.29    0.32
   2   6  -3    0.39    0.37
   2   6  -3    0.11    0.09
   2   6  -3   -0.11    0.08
   2   6  -3   -0.04    0.21
  -2  -6   3   -0.27    0.36
  -2  -6   3    0.57    0.47
  -2  -6   3    1.14    0.49
  -2  -6   3    0.40    0.48
   1   6  -3   11.53    0.61
   1   6  -3   11.90    0.63
   1   6  -3    9.30    0.63
   1   6  -3   11.20    0.47
  -1  -6   3   10.22    0.74
  -1  -6   3    9.58    0.76
  -1  -6   3   11.18    0.68
  -1  -6   3   10.68    0.73
  -1  -6   3   10.53    0.68
   0   6  -3   -0.03    0.30
   0   6  -3    0.19    0.31
   0   6  -3    0.27    0.20
   0   6  -3   -0.12    0.26
   0   6  -3    0.36    0.24
   0  -6   3    0.20    0.34
   0  -6   3   -0.14    0.31
   0  -6   3    0.34    0.30
   0  -6   3    0.41    0.17
  -1   6  -3    0.18    0.30
  -1   6  -3   -0.14    0.30
  -1   6  -3    0.11    0.29
  -1   6  -3   -0.29    0.28
  -1   6  -3   -0.06    0.31
   1  -6   3    0.07    0.25
   1  -6   3   -0.42    0.37
   1  -6   3    0.02    0.21
   1  -6   3    0.53    0.33
   1  -6   3   -0.35    0.20
  -2   6  -3    9.77    0.68
  -2   6  -3    9.16    0.58
  -2   6  -3    9.60    0.65
  -2   6  -3    8.50    0.67
   2  -6   3    9.65    0.56
   2  -6   3    9.70    0.75
   2  -6   3    7.98    0.58
   2  -6   3    9.35    0.52
   2  -6   3    9.67    0.63
  -3   6  -3    0.67    0.44
  -3   6  -3    0.69    0.44
  -3   6  -3    0.54    0.37
   3  -6   3    0.66    0.45
   3  -6   3    0.53    0.43
   3  -6   3    0.48    0.30
   3  -6   3    0.94    0.30
   3  -6   3    0.68    0.36
  -4   6  -3   -0.53    0.46
  -4   6  -3   -0.05    0.47
  -4   6  -3    0.69    0.57
   4  -6   3    0.29    0.57
   4  -6   3   -0.39    0.61
  -5   6  -3    1.30    0.67
  -5   6  -3    1.26    0.65
  -5   6  -3    1.03    0.65
   5  -6   3    1.38    0.83
   5  -6   3    1.88    0.80
  -6   6  -3    0.51    0.76
  -6   6  -3   -0.06    0.58
   6  -6   3   -0.09    0.96
   5   5  -3    3.05    0.84
   5   5  -3    2.69    0.84
  -5  -5   3    1.83    0.81
   4   5  -3    1.07    0.44
   4   5  -3    1.08    0.61
   4   5  -3    0.53    0.55
   4   5  -3    1.16    0.60
  -4  -5   3    1.96    0.61
  -4  -5   3    1.22    0.52
  -4  -5   3    1.64    0.69
  -4  -5   3    0.59    0.66
   3   5  -3    0.26    0.42
   3   5  -3    0.48    0.51
   3   5  -3    0.76    0.43
   3   5  -3   -0.31    0.22
   3   5  -3    0.04    0.27
   3   5  -3   -0.54    0.38
  -3  -5   3   -0.31    0.42
  -3  -5   3    0.32    0.51
  -3  -5   3   -0.44    0.33
  -3  -5   3    0.54    0.43
   2   5  -3    1.01    0.19
   2   5  -3    1.09    0.37
   2   5  -3    0.61    0.39
   2   5  -3    0.55    0.18
   2   5  -3    0.84    0.36
   2   5  -3    0.85    0.38
  -2  -5   3    0.28    0.36
  -2  -5   3    0.90    0.37
  -2  -5   3    1.17    0.43
  -2  -5   3    0.23    0.44
   1   5  -3   10.18    0.41
   1   5  -3   10.08    0.47
   1   5  -3   10.64    0.29
   1   5  -3   11.42    0.55
   1   5  -3   10.77    0.60
   1   5  -3   11.23    0.59
  -1  -5   3   11.18    0.62
  -1  -5   3   10.55    0.65
  -1  -5   3   11.27    0.67
  -1  -5   3   11.06    0.73
  -1  -5   3   10.16    0.63
   0   5  -3   29.96    0.84
   0   5  -3   30.57    0.69
   0   5  -3   32.67    0.81
   0   5  -3   31.91    0.87
   0   5  -3   30.37    0.72
   0   5  -3   31.76    0.76
   0   5  -3   30.21    0.90
   0  -5   3   31.91    0.94
   0  -5   3   29.90    0.85
   0  -5   3   30.51    0.86
   0  -5   3   31.08    0.70
  -1   5  -3    0.68    0.29
  -1   5  -3    0.47    0.25
  -1   5  -3    0.65    0.25
  -1   5  -3    0.97    0.32
  -1   5  -3    0.88    0.27
  -1   5  -3    0.79    0.31
   1  -5   3    0.85    0.26
   1  -5   3    0.80    0.32
   1  -5   3    0.48    0.23
   1  -5   3    0.76    0.27
   1  -5   3    0.58    0.32
  -2   5  -3    8.24    0.61
  -2   5  -3    9.01    0.57
  -2   5  -3    9.61    0.59
  -2   5  -3    8.90    0.60
   2  -5   3    8.84    0.52
   2  -5   3    9.49    0.45
   2  -5   3    8.18    0.60
   2  -5   3    8.29    0.55
  -3   5  -3   20.31    0.83
  -3   5  -3   21.68    0.97
  -3   5  -3   19.17    0.90
  -3   5  -3   19.87    0.95
   3  -5   3   19.75    0.72
   3  -5   3   19.92    1.02
   3  -5   3   21.36    1.02
   3  -5   3   20.39    0.65
  -4   5  -3    0.97    0.52
  -4   5  -3    1.08    0.57
  -4   5  -3    1.37    0.50
   4  -5   3    2.29    0.69
   4  -5   3    1.39    0.34
   4  -5   3    1.60    0.38
   4  -5   3    0.53    0.57
  -5   5  -3   13.94    1.14
  -5   5  -3   14.39    1.02
  -5   5  -3   12.29    1.08
   5  -5   3   13.23    1.23
   5  -5   3   16.22    1.32
  -6   5  -3    2.74    0.84
  -6   5  -3    2.12    0.74
  -6   5  -3    3.35    0.88
   6  -5   3    3.12    1.01
   6   4  -3   11.74    1.32
   6   4  -3   10.36    1.13
  -6  -4   3   13.10    1.33
   5   4  -3    1.81    0.64
   5   4  -3    0.58    0.66
   5   4  -3    2.06    0.73
   5   4  -3    1.00    0.71
  -5  -4   3    0.50    0.67
   4   4  -3    2.59    0.52
   4   4  -3    2.33    0.62
   4   4  -3    1.77    0.55
   4   4  -3    2.70    0.49
   4   4  -3    3.63    0.67
  -4  -4   3    2.23    0.53
  -4  -4   3    3.17    0.67
  -4  -4   3    2.72    0.65
   3   4  -3   -0.24    0.36
   3   4  -3   -0.26    0.28
   3   4  -3   -0.39    0.36
   3   4  -3   -0.14    0.26
   3   4  -3   -0.27    0.38
   3   4  -3    0.10    0.38
  -3  -4   3    0.19    0.43
  -3  -4   3   -0.11    0.38
  -3  -4   3   -0.13    0.40
  -3  -4   3   -0.30    0.34
   2   4  -3    1.70    0.40
   2   4  -3    0.98    0.35
   2   4  -3    1.07    0.22
   2   4  -3    0.80    0.35
   2   4  -3    1.37    0.37
  -2  -4   3    1.60    0.42
  -2  -4   3    1.11    0.34
  -2  -4   3    1.06    0.43
  -2  -4   3    0.72    0.36
   1   4  -3   47.70    1.15
   1   4  -3   47.99    0.75
   1   4  -3   48.20    1.13
   1   4  -3   47.78    1.17
   1   4  -3   47.71    1.14
   1   4  -3   47.59    0.90
   1   4  -3   47.24    0.89
   1   4  -3   48.17    0.96
  -1  -4   3   47.62    1.18
  -1  -4   3   47.56    1.17
  -1  -4   3   49.12    1.17
  -1  -4   3   48.32    1.23
  -1  -4   3   48.79    1.20
   0   4  -3   -0.04    0.23
   0   4  -3   -0.16    0.15
   0   4  -3    0.22    0.23
   0   4  -3   -0.09    0.24
   0   4  -3    0.12    0.18
   0   4  -3    0.21    0.17
   0   4  -3   -0.15    0.19
   0   4  -3    0.20    0.19
   0  -4   3   -0.34    0.19
   0  -4   3    0.01    0.16
   0  -4   3    0.03    0.27
   0  -4   3    0.36    0.23
   0  -4   3    0.16    0.27
  -1   4  -3    9.24    0.43
  -1   4  -3    9.13    0.46
  -1   4  -3    9.40    0.53
  -1   4  -3    8.84    0.51
  -1   4  -3    9.37    0.48
  -1   4  -3   10.02    0.28
   1  -4   3    8.70    0.53
   1  -4   3   10.61    0.52
   1  -4   3    8.66    0.45
   1  -4   3    8.51    0.43
   1  -4   3    9.39    0.54
  -2   4  -3   48.71    1.22
  -2   4  -3   47.34    1.25
  -2   4  -3   48.63    1.12
   2  -4   3   48.70    0.95
   2  -4   3   48.06    1.00
   2  -4   3   46.67    1.27
   2  -4   3   50.17    1.27
  -3   4  -3    1.03    0.40
  -3   4  -3    1.54    0.44
  -3   4  -3    1.68    0.46
   3  -4   3    1.23    0.29
   3  -4   3    1.40    0.26
   3  -4   3    1.37    0.47
   3  -4   3    1.88    0.48
   3  -4   3    1.51    0.28
  -4   4  -3    0.32    0.43
  -4   4  -3    0.23    0.48
  -4   4  -3   -0.82    0.42
   4  -4   3    0.07    0.51
   4  -4   3    0.84    0.35
   4  -4   3    0.72    0.38
   4  -4   3    0.49    0.28
   4  -4   3    0.51    0.52
  -5   4  -3    0.22    0.58
  -5   4  -3    0.88    0.57
  -5   4  -3   -0.32    0.56
   5  -4   3    0.01    0.71
   5  -4   3   -0.77    0.62
   5  -4   3    0.70    0.50
  -6   4  -3    5.09    0.87
  -6   4  -3    4.36    0.90
  -6   4  -3    4.20    0.79
   6  -4   3    4.82    1.17
   6   3  -3   -0.57    0.67
   6   3  -3    0.51    0.77
   6   3  -3    0.41    0.67
  -6  -3   3    1.57    0.79
   5   3  -3   22.87    1.35
   5   3  -3   22.72    1.20
   5   3  -3   22.31    1.19
   5   3  -3   22.68    1.36
   5   3  -3   24.40    1.38
  -5  -3   3   22.72    1.11
  -5  -3   3   23.74    1.32
   4   3  -3    5.23    0.67
   4   3  -3    5.98    0.64
   4   3  -3    5.78    0.72
   4   3  -3    7.52    0.82
   4   3  -3    5.85    0.63
   4   3  -3    5.53    0.68
  -4  -3   3    6.20    0.59
  -4  -3   3    5.91    0.77
   3   3  -3    4.35    0.55
   3   3  -3    3.77    0.45
   3   3  -3    4.15    0.57
   3   3  -3    3.69    0.51
   3   3  -3    4.35    0.54
  -3  -3   3    4.55    0.47
  -3  -3   3    3.65    0.53
  -3  -3   3    3.67    0.59
  -3  -3   3    4.57    0.58
   2   3  -3   14.36    0.53
   2   3  -3   14.24    0.69
   2   3  -3   14.11    0.67
   2   3  -3   15.03    0.69
   2   3  -3   14.58    0.70
  -2  -3   3   15.69    0.62
  -2  -3   3   14.03    0.68
  -2  -3   3   14.52    0.74
  -2  -3   3   14.19    0.69
  -2  -3   3   14.66    0.28
   1   3  -3   96.20    1.79
   1   3  -3   96.03    1.80
   1   3  -3   96.30    1.84
   1   3  -3   96.14    1.62
   1   3  -3   95.88    1.78
   1   3  -3   99.33    1.57
   1   3  -3   94.35    1.78
  -1  -3   3   93.23    1.79
  -1  -3   3   98.78    1.83
  -1  -3   3   95.75    1.85
  -1  -3   3   98.38    1.85
   0   3  -3   71.15    1.29
   0   3  -3   70.35    1.33
   0   3  -3   73.30    1.16
   0   3  -3   73.13    1.21
   0   3  -3   72.25    1.24
   0   3  -3   70.89    1.27
   0   3  -3   70.06    1.26
   0   3  -3   70.80    1.27
   0   3  -3   69.59    1.41
   0   3  -3   71.13    1.30
   0  -3   3   71.78    1.16
   0  -3   3   71.04    1.35
   0  -3   3   70.52    1.27
   0  -3   3   71.10    1.41
   0  -3   3   70.13    1.27
   0  -3   3   71.18    1.42
  -1   3  -3   99.86    1.76
  -1   3  -3  103.48    1.56
  -1   3  -3  100.91    1.72
  -1   3  -3  101.74    1.85
  -1   3  -3  103.82    1.58
  -1   3  -3  103.01    1.87
  -1   3  -3   99.58    1.83
   1  -3   3  102.35    1.86
   1  -3   3   99.15    1.78
   1  -3   3   97.99    1.78
  -2   3  -3  198.79    3.20
  -2   3  -3  202.58    3.42
  -2   3  -3  195.90    3.34
  -2   3  -3  203.01    2.96
  -2   3  -3  196.70    3.39
   2  -3   3  197.01    3.12
   2  -3   3  198.97    3.43
   2  -3   3  194.52    3.46
   2  -3   3  198.00    3.05
   2  -3   3  196.85    3.12
  -3   3  -3    4.83    0.53
  -3   3  -3    3.79    0.46
  -3   3  -3    4.33    0.37
  -3   3  -3    3.94    0.52
   3  -3   3    3.85    0.40
   3  -3   3    4.43    0.34
   3  -3   3    4.44    0.59
   3  -3   3    4.93    0.59
   3  -3   3    4.41    0.39
  -4   3  -3   15.45    0.87
  -4   3  -3   15.48    0.90
  -4   3  -3   14.33    0.92
   4  -3   3   16.39    0.69
   4  -3   3   14.62    0.81
   4  -3   3   15.43    1.03
   4  -3   3   12.19    0.95
   4  -3   3   16.33    0.79
  -5   3  -3    1.15    0.61
  -5   3  -3    1.68    0.52
  -5   3  -3    0.78    0.54
   5  -3   3    1.87    0.72
   5  -3   3    1.27    0.68
   5  -3   3    0.91    0.53
   5  -3   3    0.57    0.46
  -6   3  -3    1.59    0.76
  -6   3  -3    0.60    0.59
   6  -3   3    0.05    0.83
   6   2  -3    7.31    1.13
   6   2  -3    5.38    0.96
   6   2  -3    7.30    1.01
   6   2  -3    6.67    0.90
  -6  -2   3    7.21    0.95
   5   2  -3    0.48    0.52
   5   2  -3    1.99    0.67
   5   2  -3    1.66    0.62
   5   2  -3    2.34    0.68
   5   2  -3    1.53    0.61
  -5  -2   3    1.59    0.55
  -5  -2   3    1.49    0.54
   4   2  -3   11.27    0.81
   4   2  -3   10.71    0.81
   4   2  -3   11.76    0.79
   4   2  -3   10.44    0.91
   4   2  -3   11.32    0.79
   4   2  -3    9.71    0.86
  -4  -2   3   10.23    0.84
  -4  -2   3    9.42    0.74
  -4  -2   3    9.99    0.66
   3   2  -3    6.04    0.57
   3   2  -3    4.97    0.55
   3   2  -3    5.70    0.59
   3   2  -3    5.02    0.53
   3   2  -3    5.68    0.52
  -3  -2   3    6.33    0.60
  -3  -2   3    5.44    0.58
  -3  -2   3    6.04    0.46
  -3  -2   3    6.38    0.61
   2   2  -3    8.08    0.52
   2   2  -3    6.78    0.51
   2   2  -3    7.97    0.54
   2   2  -3    7.99    0.54
   2   2  -3    7.78    0.52
  -2  -2   3    8.04    0.54
  -2  -2   3    7.49    0.43
  -2  -2   3    7.39    0.60
  -2  -2   3    8.30    0.54
  -2  -2   3    7.94    0.60
   1   2  -3    8.62    0.46
   1   2  -3    9.35    0.46
   1   2  -3    9.23    0.25
   1   2  -3    9.31    0.46
   1   2  -3    8.56    0.46
   1   2  -3    8.64    0.45
  -1  -2   3    9.15    0.48
  -1  -2   3    9.36    0.47
  -1  -2   3    9.11    0.46
  -1  -2   3    9.38    0.49
   0   2  -3    0.31    0.19
   0   2  -3    0.55    0.25
   0   2  -3    0.70    0.16
   0   2  -3    0.57    0.20
   0   2  -3    0.69    0.20
   0   2  -3    0.56    0.18
   0   2  -3    0.48    0.16
   0   2  -3    0.58    0.17
   0   2  -3    0.64    0.15
   0  -2   3    0.31    0.14
   0  -2   3    0.72    0.21
   0  -2   3    0.61    0.16
   0  -2   3    0.50    0.25
   0  -2   3    0.30    0.23
   0  -2   3    0.80    0.23
   0  -2   3    0.60    0.17
  -1   2  -3   57.33    1.15
  -1   2  -3   56.78    1.15
  -1   2  -3   57.19    1.03
  -1   2  -3   57.50    1.19
   1  -2   3   57.07    0.88
   1  -2   3   56.93    1.17
   1  -2   3   55.10    1.19
   1  -2   3   56.26    0.91
  -2   2  -3   17.52    0.53
  -2   2  -3   16.84    0.63
  -2   2  -3   17.25    0.67
  -2   2  -3   17.03    0.72
  -2   2  -3   16.66    0.69
   2  -2   3   17.35    0.73
   2  -2   3   16.46    0.73
   2  -2   3   16.67    0.45
   2  -2   3   17.21    0.53
   2  -2   3   17.77    0.59
  -3   2  -3    1.27    0.29
  -3   2  -3    2.18    0.37
  -3   2  -3    1.69    0.42
  -3   2  -3    1.91    0.36
   3  -2   3    1.74    0.26
   3  -2   3    1.43    0.33
   3  -2   3    0.98    0.43
   3  -2   3    1.69    0.31
   3  -2   3    1.30    0.44
  -4   2  -3    2.68    0.44
  -4   2  -3    2.74    0.51
  -4   2  -3    2.26    0.54
   4  -2   3    2.90    0.42
   4  -2   3    2.25    0.48
   4  -2   3    2.95    0.48
   4  -2   3    1.63    0.62
   4  -2   3    4.08    0.66
  -5   2  -3   -0.26    0.45
  -5   2  -3    0.54    0.48
  -5   2  -3    0.81    0.59
   5  -2   3   -0.14    0.40
   5  -2   3   -0.24    0.61
   5  -2   3    0.48    0.63
   5  -2   3    0.68    0.48
   5  -2   3    0.58    0.52
  -6   2  -3   -0.34    0.66
   6  -2   3   -0.26    0.88
   6  -2   3   -1.33    0.60
   6   1  -3    6.09    0.88
   6   1  -3    6.85    1.00
   6   1  -3    4.95    0.95
   6   1  -3    6.59    0.92
  -6  -1   3    5.49    0.78
  -6  -1   3    5.78    0.87
   5   1  -3    0.28    0.63
   5   1  -3    0.36    0.50
   5   1  -3    0.29    0.56
   5   1  -3    0.75    0.57
   5   1  -3    1.64    0.61
  -5  -1   3    1.09    0.52
  -5  -1   3    0.60    0.53
   4   1  -3    3.07    0.57
   4   1  -3    2.74    0.52
   4   1  -3    2.50    0.49
   4   1  -3    2.56    0.54
   4   1  -3    2.39    0.53
   4   1  -3    2.31    0.48
  -4  -1   3    2.74    0.50
  -4  -1   3    1.94    0.47
  -4  -1   3    2.41    0.36
   3   1  -3   -0.46    0.27
   3   1  -3   -0.31    0.31
   3   1  -3    0.06    0.31
   3   1  -3    0.38    0.36
  -3  -1   3    0.05    0.11
  -3  -1   3    0.11    0.32
  -3  -1   3    0.15    0.21
   2   1  -3    1.05    0.29
   2   1  -3    1.18    0.33
   2   1  -3    0.98    0.29
   2   1  -3    0.95    0.29
   2   1  -3    0.68    0.31
  -2  -1   3    1.39    0.33
  -2  -1   3    0.57    0.16
  -2  -1   3    1.34    0.34
  -2  -1   3    0.88    0.30
  -2  -1   3    1.24    0.29
  -2  -1   3    1.11    0.20
   1   1  -3  111.54    1.66
   1   1  -3  107.74    1.87
   1   1  -3  107.61    1.85
   1   1  -3  107.12    1.87
   1   1  -3  107.90    1.84
   1   1  -3  108.27    1.83
  -1  -1   3  111.71    1.88
  -1  -1   3  108.46    1.86
  -1  -1   3  108.47    1.86
  -1  -1   3  103.43    1.82
   0   1  -3   35.75    0.55
   0   1  -3   35.26    0.74
   0   1  -3   36.38    0.71
   0   1  -3   35.30    0.62
   0   1  -3   36.27    0.63
   0   1  -3   35.43    0.63
   0   1  -3   35.91    0.77
   0  -1   3   36.35    0.63
   0  -1   3   35.99    0.77
   0  -1   3   36.09    0.63
   0  -1   3   34.95    0.73
   0  -1   3   34.78    0.70
   0  -1   3   35.15    0.62
   0  -1   3   36.12    0.75
   0  -1   3   34.19    0.69
  -1   1  -3  113.11    1.97
  -1   1  -3  109.73    1.89
  -1   1  -3  113.62    1.72
  -1   1  -3  111.66    1.73
  -1   1  -3  114.23    1.67
  -1   1  -3  109.50    1.95
   1  -1   3  112.59    1.67
   1  -1   3  113.28    1.72
   1  -1   3  110.90    1.94
   1  -1   3  110.83    1.96
   1  -1   3  110.16    1.73
  -2   1  -3    9.07    0.43
  -2   1  -3   10.25    0.45
  -2   1  -3    9.84    0.55
  -2   1  -3   10.48    0.56
  -2   1  -3    9.84    0.57
  -2   1  -3    9.97    0.49
   2  -1   3   10.44    0.40
   2  -1   3   10.31    0.51
   2  -1   3   10.60    0.46
   2  -1   3   10.30    0.60
   2  -1   3   10.00    0.60
  -3   1  -3   13.82    0.64
  -3   1  -3   14.56    0.64
  -3   1  -3   12.22    0.73
  -3   1  -3   14.46    0.72
   3  -1   3   13.88    0.72
   3  -1   3   13.16    0.57
   3  -1   3   13.28    0.65
   3  -1   3   14.14    0.79
   3  -1   3   12.85    0.77
  -4   1  -3   15.19    0.87
  -4   1  -3   13.95    0.77
  -4   1  -3   14.30    0.71
   4  -1   3   14.27    0.73
   4  -1   3   14.25    0.97
   4  -1   3   14.58    0.91
   4  -1   3   14.69    0.96
   4  -1   3   14.07    0.83
  -5   1  -3   -0.36    0.39
  -5   1  -3    0.23    0.42
  -5   1  -3    0.05    0.50
  -5   1  -3   -0.59    0.51
   5  -1   3   -0.51    0.39
   5  -1   3   -0.09    0.59
   5  -1   3    0.64    0.52
   5  -1   3    0.50    0.64
   5  -1   3    0.81    0.64
  -6   1  -3    1.35    0.78
   6  -1   3    0.26    0.81
   6  -1   3    0.24    0.74
   6   0  -3   10.32    1.12
   6   0  -3    9.24    1.07
   6   0  -3   11.95    1.26
   6   0  -3    9.91    1.07
   6   0  -3   10.95    1.01
  -6   0   3   10.27    1.01
  -6   0   3   11.04    1.03
   5   0  -3   18.23    1.18
   5   0  -3   20.98    1.03
   5   0  -3   17.20    1.14
   5   0  -3   21.84    1.23
   5   0  -3   18.45    1.13
   5   0  -3   21.12    1.18
  -5   0   3   20.02    1.08
  -5   0   3   20.35    0.97
  -5   0   3   18.83    1.04
   4   0  -3    3.41    0.55
   4   0  -3    2.45    0.45
   4   0  -3    3.55    0.55
   4   0  -3    2.91    0.57
   4   0  -3    3.10    0.60
  -4   0   3    2.70    0.48
  -4   0   3    2.93    0.29
  -4   0   3    3.42    0.47
  -4   0   3    3.32    0.55
   3   0  -3    6.28    0.56
   3   0  -3    5.40    0.50
   3   0  -3    5.89    0.48
   3   0  -3    5.69    0.53
  -3   0   3    6.14    0.37
  -3   0   3    6.39    0.53
  -3   0   3    6.45    0.33
  -3   0   3    6.66    0.48
   2   0  -3   36.10    0.94
   2   0  -3   36.16    0.97
   2   0  -3   35.81    0.88
   2   0  -3   35.58    0.67
   2   0  -3   36.25    0.91
   2   0  -3   34.34    0.91
  -2   0   3   34.56    0.67
  -2   0   3   34.91    0.62
  -2   0   3   36.12    0.96
  -2   0   3   35.01    0.68
  -2   0   3   36.16    0.85
   1   0  -3   15.34    0.37
   1   0  -3   14.53    0.43
   1   0  -3   15.83    0.49
   1   0  -3   15.33    0.49
   1   0  -3   16.65    0.43
   1   0  -3   15.32    0.52
  -1   0   3   15.33    0.38
  -1   0   3   15.02    0.52
  -1   0   3   14.81    0.44
  -1   0   3   14.24    0.42
  -1   0   3   13.47    0.45
  -1   0   3   16.09    0.44
  -1   0   3   15.26    0.49
   0   0  -3   60.85    0.98
   0   0  -3   60.16    1.04
   0   0  -3   61.22    1.09
   0   0  -3   58.70    1.09
   0   0   3   60.14    0.98
   0   0   3   57.03    1.09
   0   0   3   60.66    1.09
   0   0   3   61.70    0.93
   0   0   3   58.83    1.09
   0   0   3   59.49    1.04
  -1   0  -3  401.04    6.13
  -1   0  -3  416.06    6.16
  -1   0  -3  402.44    6.06
  -1   0  -3  409.17    6.46
  -1   0  -3  406.29    6.13
   1   0   3  406.48    6.11
   1   0   3  399.33    6.27
   1   0   3  397.46    6.12
   1   0   3  404.47    6.14
   1   0   3  402.69    6.66
   1   0   3  408.50    6.14
  -2   0  -3   31.07    0.93
  -2   0  -3   30.15    0.74
  -2   0  -3   29.87    0.89
  -2   0  -3   30.46    0.90
  -2   0  -3   30.50    0.82
  -2   0  -3   30.29    0.73
   2   0   3   30.89    0.75
   2   0   3   30.23    0.91
   2   0   3   30.20    0.87
   2   0   3   29.11    0.79
   2   0   3   29.96    0.91
  -3   0  -3    4.15    0.51
  -3   0  -3    4.31    0.39
  -3   0  -3    4.10    0.49
  -3   0  -3    4.49    0.35
   3   0   3    4.78    0.43
   3   0   3    4.55    0.49
   3   0   3    4.39    0.54
   3   0   3    4.56    0.53
   3   0   3    4.85    0.56
  -4   0  -3    5.25    0.65
  -4   0  -3    5.02    0.51
  -4   0  -3    5.22    0.52
  -4   0  -3    4.54    0.66
   4   0   3    4.55    0.67
   4   0   3    4.52    0.62
   4   0   3    5.31    0.55
   4   0   3    4.71    0.66
   4   0   3    4.06    0.60
  -5   0  -3    5.48    0.62
  -5   0  -3    4.23    0.69
  -5   0  -3    5.55    0.76
  -5   0  -3    5.16    0.56
   5   0   3    5.36    0.65
   5   0   3    5.19    0.89
   5   0   3    4.56    0.75
   5   0   3    4.33    0.76
   5   0   3    5.79    0.84
  -6   0  -3    0.72    0.66
  -6   0  -3   -0.34    0.68
   6   0   3    0.96    0.73
   6   0   3    0.84    0.65
   6   0   3    1.58    0.85
   6  -1  -3    8.29    1.00
   6  -1  -3    8.79    0.97
   6  -1  -3    7.43    0.96
   6  -1  -3    7.54    1.15
  -6   1   3    7.58    0.95
  -6   1   3    8.31    0.96
   5  -1  -3    1.99    0.52
   5  -1  -3    1.90    0.58
   5  -1  -3    1.61    0.64
   5  -1  -3    1.98    0.60
   5  -1  -3    1.82    0.66
   5  -1  -3    2.07    0.68
  -5   1   3    1.61    0.57
  -5   1   3    2.32    0.59
   4  -1  -3   -0.23    0.36
   4  -1  -3    0.31    0.36
   4  -1  -3   -0.33    0.39
   4  -1  -3    0.23    0.40
  -4   1   3    0.21    0.29
  -4   1   3   -0.32    0.35
  -4   1   3   -0.02    0.37
  -4   1   3   -0.11    0.24
   3  -1  -3   13.49    0.66
   3  -1  -3   13.49    0.58
   3  -1  -3   13.61    0.65
   3  -1  -3   14.76    0.72
  -3   1   3   13.76    0.52
  -3   1   3   13.92    0.52
  -3   1   3   13.56    0.70
  -3   1   3   13.01    0.62
   2  -1  -3   -0.28    0.23
   2  -1  -3   -0.16    0.14
   2  -1  -3    0.32    0.32
   2  -1  -3    0.26    0.25
   2  -1  -3   -0.39    0.23
   2  -1  -3    0.38    0.22
  -2   1   3    0.15    0.16
  -2   1   3    0.04    0.19
  -2   1   3    0.29    0.25
  -2   1   3    0.15    0.32
  -2   1   3   -0.08    0.25
  -2   1   3   -0.06    0.25
   1  -1  -3   17.11    0.48
   1  -1  -3   17.31    0.49
   1  -1  -3   18.30    0.39
  -1   1   3   17.77    0.54
  -1   1   3   17.73    0.44
  -1   1   3   16.73    0.56
  -1   1   3   17.22    0.50
  -1   1   3   17.53    0.48
   0  -1  -3   17.97    0.37
   0  -1  -3   18.37    0.56
   0  -1  -3   18.33    0.42
   0  -1  -3   18.51    0.50
   0  -1  -3   17.65    0.53
   0  -1  -3   18.74    0.50
   0   1   3   18.52    0.53
   0   1   3   18.46    0.52
   0   1   3   17.83    0.37
   0   1   3   18.33    0.46
   0   1   3   17.79    0.42
  -1  -1  -3    5.18    0.40
  -1  -1  -3    5.36    0.43
  -1  -1  -3    5.17    0.38
  -1  -1  -3    5.41    0.40
  -1  -1  -3    5.36    0.42
   1   1   3    5.68    0.41
   1   1   3    5.99    0.44
   1   1   3    5.65    0.42
   1   1   3    5.44    0.37
  -2  -1  -3   22.65    0.87
  -2  -1  -3   23.43    0.75
  -2  -1  -3   23.12    0.68
  -2  -1  -3   24.36    0.79
  -2  -1  -3   23.46    0.81
  -2  -1  -3   23.59    0.56
   2   1   3   22.28    0.82
   2   1   3   23.71    0.79
   2   1   3   23.49    0.79
   2   1   3   22.52    0.70
   2   1   3   23.62    0.81
   2   1   3   22.05    0.75
  -3  -1  -3    2.72    0.32
  -3  -1  -3    2.86    0.32
  -3  -1  -3    2.52    0.48
  -3  -1  -3    2.78    0.48
   3   1   3    2.63    0.40
   3   1   3    3.70    0.50
   3   1   3    2.87    0.47
   3   1   3    2.51    0.44
   3   1   3    2.42    0.47
  -4  -1  -3    0.48    0.47
  -4  -1  -3    0.19    0.29
  -4  -1  -3    0.01    0.45
   4   1   3   -0.04    0.40
   4   1   3    0.20    0.42
   4   1   3    0.01    0.45
   4   1   3    0.24    0.48
   4   1   3   -0.65    0.40
  -5  -1  -3    1.25    0.69
  -5  -1  -3    1.32    0.58
   5   1   3    0.51    0.55
   5   1   3    0.32    0.55
   5   1   3    0.55    0.61
   5   1   3    0.70    0.52
   5   1   3    1.34    0.73
  -6  -1  -3    0.39    0.66
   6   1   3    0.07    0.74
   6   1   3    0.36    0.82
   6  -2  -3   28.22    1.54
   6  -2  -3   25.11    1.29
   6  -2  -3   26.63    1.64
   6  -2  -3   26.49    1.39
  -6   2   3   25.65    1.48
  -6   2   3   27.25    1.48
   5  -2  -3   33.31    1.31
   5  -2  -3   29.58    1.46
   5  -2  -3   31.18    1.46
   5  -2  -3   31.46    1.13
   5  -2  -3   30.82    1.26
   5  -2  -3   30.72    1.35
  -5   2   3   28.68    1.31
  -5   2   3   33.03    1.33
  -5   2   3   30.37    1.00
   4  -2  -3    0.23    0.32
   4  -2  -3    0.21    0.36
   4  -2  -3    0.05    0.34
   4  -2  -3    0.17    0.39
  -4   2   3   -0.04    0.39
  -4   2   3   -0.10    0.36
  -4   2   3   -0.05    0.21
  -4   2   3   -0.38    0.26
   3  -2  -3    0.01    0.23
   3  -2  -3   -0.04    0.14
   3  -2  -3    0.05    0.26
   3  -2  -3    0.28    0.35
   3  -2  -3    0.02    0.31
  -3   2   3   -0.01    0.33
  -3   2   3    0.09    0.15
  -3   2   3    0.14    0.25
  -3   2   3    0.04    0.33
   2  -2  -3   14.01    0.61
   2  -2  -3   14.10    0.47
   2  -2  -3   14.04    0.57
   2  -2  -3   14.08    0.56
   2  -2  -3   13.94    0.49
  -2   2   3   14.08    0.60
  -2   2   3   14.05    0.64
  -2   2   3   13.48    0.55
  -2   2   3   13.17    0.53
   1  -2  -3    3.70    0.29
   1  -2  -3    3.20    0.18
   1  -2  -3    2.86    0.32
  -1   2   3    3.45    0.32
  -1   2   3    3.30    0.34
  -1   2   3    3.58    0.19
  -1   2   3    3.53    0.33
  -1   2   3    3.75    0.32
  -1   2   3    3.15    0.32
   0  -2  -3   21.45    0.36
   0  -2  -3   22.32    0.51
   0  -2  -3   21.28    0.67
   0  -2  -3   20.99    0.67
   0  -2  -3   21.54    0.63
   0  -2  -3   21.51    0.54
   0   2   3   20.75    0.57
   0   2   3   21.31    0.55
   0   2   3   20.41    0.58
   0   2   3   21.47    0.49
   0   2   3   21.16    0.50
  -1  -2  -3    4.79    0.39
  -1  -2  -3    5.11    0.46
  -1  -2  -3    4.94    0.43
  -1  -2  -3    4.90    0.44
  -1  -2  -3    4.79    0.40
  -1  -2  -3    5.25    0.34
   1   2   3    4.59    0.34
   1   2   3    5.56    0.44
   1   2   3    4.82    0.39
   1   2   3    4.55    0.36
  -2  -2  -3    6.28    0.57
  -2  -2  -3    6.85    0.49
  -2  -2  -3    6.66    0.28
  -2  -2  -3    7.22    0.58
  -2  -2  -3    7.08    0.47
   2   2   3    6.71    0.47
   2   2   3    6.81    0.52
   2   2   3    7.11    0.53
   2   2   3    6.86    0.55
   2   2   3    6.17    0.49
  -3  -2  -3   -0.24    0.34
  -3  -2  -3   -0.04    0.25
  -3  -2  -3   -0.18    0.38
  -3  -2  -3    0.03    0.20
   3   2   3   -0.24    0.33
   3   2   3   -0.25    0.32
   3   2   3    0.13    0.30
   3   2   3   -0.18    0.35
   3   2   3    0.01    0.34
  -4  -2  -3    1.57    0.33
  -4  -2  -3    2.92    0.70
  -4  -2  -3    2.27    0.57
   4   2   3    1.96    0.54
   4   2   3    3.09    0.62
   4   2   3    2.15    0.53
   4   2   3    1.08    0.50
   4   2   3    2.26    0.60
  -5  -2  -3    1.47    0.76
  -5  -2  -3    1.33    0.62
   5   2   3    1.75    0.75
   5   2   3    1.44    0.58
   5   2   3    1.85    0.64
   5   2   3    0.95    0.70
   5   2   3    1.46    0.60
  -6  -2  -3    5.07    1.03
   6   2   3    3.94    0.80
   6   2   3    3.08    0.89
   6   2   3    3.06    1.03
   6  -3  -3    5.50    0.85
   6  -3  -3    5.95    1.10
   6  -3  -3    7.41    0.90
   6  -3  -3    5.93    0.89
  -6   3   3    6.67    0.91
  -6   3   3    6.56    0.94
   5  -3  -3    3.01    0.61
   5  -3  -3    3.14    0.63
   5  -3  -3    3.69    0.78
   5  -3  -3    2.86    0.54
   5  -3  -3    3.67    0.80
   5  -3  -3    3.69    0.66
  -5   3   3    3.00    0.62
  -5   3   3    3.19    0.53
  -5   3   3    3.52    0.73
   4  -3  -3    6.43    0.59
   4  -3  -3    8.30    0.74
   4  -3  -3    7.22    0.63
   4  -3  -3    7.31    0.54
  -4   3   3    7.90    0.75
  -4   3   3    7.39    0.69
  -4   3   3    7.62    0.56
   3  -3  -3   31.91    1.03
   3  -3  -3   31.41    0.80
   3  -3  -3   33.57    0.81
   3  -3  -3   30.76    0.92
   3  -3  -3   31.08    0.98
  -3   3   3   30.98    1.07
  -3   3   3   32.18    0.92
  -3   3   3   32.58    1.05
   2  -3  -3    0.14    0.19
   2  -3  -3    0.07    0.26
  -2   3   3    0.15    0.25
  -2   3   3   -0.21    0.26
  -2   3   3    0.12    0.30
  -2   3   3    0.06    0.30
  -2   3   3   -0.13    0.28
   1  -3  -3    0.07    0.15
   1  -3  -3   -0.70    0.20
   1  -3  -3    0.27    0.17
  -1   3   3   -0.02    0.24
  -1   3   3    0.15    0.25
  -1   3   3   -0.04    0.24
  -1   3   3    0.36    0.27
  -1   3   3    0.25    0.25
   0  -3  -3  194.44    3.02
   0  -3  -3  197.12    3.29
   0  -3  -3  193.98    3.18
   0  -3  -3  192.60    2.93
   0  -3  -3  199.68    3.25
   0  -3  -3  196.36    3.08
   0   3   3  197.44    3.08
   0   3   3  192.78    3.16
   0   3   3  194.36    3.11
   0   3   3  193.24    3.04
  -1  -3  -3    5.90    0.35
  -1  -3  -3    5.59    0.47
  -1  -3  -3    5.00    0.42
  -1  -3  -3    5.76    0.53
  -1  -3  -3    6.22    0.51
  -1  -3  -3    5.86    0.32
  -1  -3  -3    4.51    0.45
  -1  -3  -3    5.96    0.24
   1   3   3    5.99    0.38
   1   3   3    5.51    0.41
   1   3   3    4.25    0.43
   1   3   3    5.23    0.41
   1   3   3    5.37    0.34
  -2  -3  -3   29.20    0.92
  -2  -3  -3   27.57    0.94
  -2  -3  -3   26.06    1.02
  -2  -3  -3   28.51    0.56
  -2  -3  -3   27.76    0.99
   2   3   3   28.22    0.81
   2   3   3   28.09    0.98
   2   3   3   26.56    0.89
   2   3   3   27.31    0.87
  -3  -3  -3   26.66    1.06
  -3  -3  -3   25.48    0.88
  -3  -3  -3   25.08    0.65
  -3  -3  -3   24.90    1.13
   3   3   3   26.99    1.09
   3   3   3   24.99    1.01
   3   3   3   24.09    0.96
   3   3   3   26.37    1.10
   3   3   3   26.05    0.93
  -4  -3  -3    4.08    0.71
  -4  -3  -3    4.87    0.82
   4   3   3    1.93    0.61
   4   3   3    3.36    0.67
   4   3   3    2.32    0.63
   4   3   3    3.52    0.57
   4   3   3    3.34    0.58
  -5  -3  -3   -0.29    0.57
  -5  -3  -3   -0.06    0.74
   5   3   3    0.38    0.61
   5   3   3    0.04    0.66
   5   3   3   -0.82    0.54
   5   3   3    0.01    0.60
   5   3   3   -0.31    0.53
   6  -4  -3   29.15    1.51
   6  -4  -3   25.59    1.32
   6  -4  -3   22.36    1.79
  -6   4   3   22.91    1.41
  -6   4   3   27.43    1.63
   5  -4  -3   27.62    1.32
   5  -4  -3   24.68    1.10
   5  -4  -3   25.76    1.44
   5  -4  -3   28.22    1.21
  -5   4   3   23.70    1.31
  -5   4   3   24.80    1.36
  -5   4   3   25.44    1.09
   4  -4  -3   14.30    0.79
   4  -4  -3   15.51    0.61
   4  -4  -3   16.64    1.04
   4  -4  -3   17.54    0.95
   4  -4  -3   15.83    0.83
   4  -4  -3   15.53    0.85
  -4   4   3   15.54    0.84
  -4   4   3   15.21    0.90
  -4   4   3   13.95    0.93
   3  -4  -3    2.55    0.34
   3  -4  -3    1.82    0.25
   3  -4  -3    1.23    0.33
   3  -4  -3    2.28    0.34
   3  -4  -3    1.96    0.40
  -3   4   3    1.40    0.42
  -3   4   3    1.85    0.45
  -3   4   3    2.53    0.45
  -3   4   3    1.59    0.36
   2  -4  -3   -0.71    0.27
   2  -4  -3   -0.20    0.16
  -2   4   3    0.41    0.30
  -2   4   3    0.10    0.29
  -2   4   3   -0.07    0.29
  -2   4   3    0.14    0.31
  -2   4   3    0.03    0.30
  -2   4   3   -0.01    0.28
   1  -4  -3    4.94    0.35
   1  -4  -3    5.41    0.46
   1  -4  -3    4.55    0.36
  -1   4   3    5.25    0.45
  -1   4   3    4.79    0.41
  -1   4   3    5.31    0.45
  -1   4   3    5.04    0.44
   0  -4  -3   24.79    0.81
   0  -4  -3   25.54    0.86
   0  -4  -3   24.98    0.72
   0  -4  -3   23.96    0.58
   0  -4  -3   24.22    0.57
   0   4   3   26.10    0.70
   0   4   3   24.52    0.77
   0   4   3   23.23    0.75
   0   4   3   25.11    0.78
  -1  -4  -3    0.03    0.30
  -1  -4  -3    0.16    0.15
  -1  -4  -3    0.09    0.32
  -1  -4  -3    0.99    0.30
  -1  -4  -3    0.13    0.20
  -1  -4  -3    0.06    0.35
   1   4   3    0.17    0.31
   1   4   3    0.17    0.25
   1   4   3    0.13    0.15
   1   4   3    0.00    0.23
   1   4   3    0.33    0.22
  -2  -4  -3    4.12    0.50
  -2  -4  -3    1.75    0.44
  -2  -4  -3    2.74    0.53
  -2  -4  -3    2.38    0.41
   2   4   3    2.80    0.30
   2   4   3    3.08    0.41
   2   4   3    3.05    0.48
  -3  -4  -3   13.52    0.96
  -3  -4  -3   14.61    0.79
  -3  -4  -3   13.38    0.98
   3   4   3   13.73    0.83
   3   4   3   13.01    0.82
   3   4   3   13.98    0.91
   3   4   3   14.53    0.70
  -4  -4  -3   -0.20    0.60
  -4  -4  -3   -0.22    0.67
   4   4   3    0.44    0.49
   4   4   3   -0.54    0.51
   4   4   3   -0.02    0.45
   4   4   3   -0.23    0.37
  -5  -4  -3   -0.11    0.75
  -5  -4  -3    0.85    0.69
   5   4   3    0.36    0.73
   5   4   3   -0.70    0.62
   5   4   3   -0.07    0.67
   6  -5  -3    6.64    0.90
   6  -5  -3    6.59    0.88
   6  -5  -3    7.28    1.17
  -6   5   3    7.26    1.01
  -6   5   3    5.93    0.98
   5  -5  -3    0.67    0.66
   5  -5  -3   -1.13    0.66
   5  -5  -3    1.46    0.57
   5  -5  -3    0.63    0.49
  -5   5   3   -0.54    0.52
  -5   5   3    0.42    0.61
  -5   5   3    1.05    0.53
   4  -5  -3   85.65    1.97
   4  -5  -3   84.77    1.78
   4  -5  -3   82.11    1.79
   4  -5  -3   85.04    2.11
  -4   5   3   82.88    2.11
  -4   5   3   85.42    2.02
  -4   5   3   84.35    2.20
   3  -5  -3    3.26    0.45
   3  -5  -3    3.87    0.29
   3  -5  -3    4.08    0.49
   3  -5  -3    4.09    0.37
  -3   5   3    4.17    0.57
  -3   5   3    3.78    0.51
  -3   5   3    4.43    0.54
  -3   5   3    3.25    0.52
  -3   5   3    3.60    0.53
   2  -5  -3   -0.06    0.24
   2  -5  -3    0.08    0.18
   2  -5  -3   -0.02    0.11
  -2   5   3    0.35    0.33
  -2   5   3    0.19    0.32
  -2   5   3    0.03    0.33
  -2   5   3    0.35    0.34
  -2   5   3   -0.09    0.33
  -2   5   3   -0.03    0.30
   1  -5  -3   77.25    1.70
   1  -5  -3   78.77    1.50
   1  -5  -3   77.24    1.48
   1  -5  -3   77.63    1.56
  -1   5   3   77.50    1.65
  -1   5   3   75.91    1.65
  -1   5   3   77.76    1.64
  -1   5   3   78.61    1.68
   0  -5  -3    3.07    0.38
   0  -5  -3    3.37    0.28
   0  -5  -3    2.27    0.22
   0  -5  -3    3.72    0.49
   0  -5  -3    3.21    0.41
   0   5   3    3.36    0.37
   0   5   3    2.45    0.38
   0   5   3    2.64    0.36
   0   5   3    3.46    0.46
  -1  -5  -3   11.48    0.74
  -1  -5  -3   12.08    0.51
  -1  -5  -3   11.31    0.74
  -1  -5  -3   10.48    0.70
  -1  -5  -3   10.95    0.31
  -1  -5  -3   10.57    0.65
   1   5   3   11.89    0.65
   1   5   3   11.06    0.59
   1   5   3   11.10    0.51
  -2  -5  -3   45.56    1.17
  -2  -5  -3   44.48    1.43
  -2  -5  -3   44.65    1.33
  -2  -5  -3   43.11    1.46
  -2  -5  -3   44.40    1.38
   2   5   3   44.82    1.15
   2   5   3   44.71    1.17
   2   5   3   43.29    0.94
   2   5   3   44.24    1.37
  -3  -5  -3    4.80    0.71
  -3  -5  -3    4.03    0.72
  -3  -5  -3    3.27    0.63
  -3  -5  -3    3.38    0.58
   3   5   3    4.28    0.42
   3   5   3    4.63    0.69
   3   5   3    4.75    0.59
  -4  -5  -3   -0.46    0.58
  -4  -5  -3    0.86    0.76
   4   5   3    0.14    0.62
   4   5   3    0.02    0.55
   4   5   3    0.64    0.56
  -5  -5  -3    0.52    0.80
  -5  -5  -3    0.58    0.85
   5   5   3   -0.72    0.70
   6  -6  -3    9.95    1.29
  -6   6   3    8.19    1.10
  -6   6   3    5.93    0.84
  -6   6   3    7.93    1.15
   5  -6  -3    1.70    0.57
   5  -6  -3    1.26    0.70
   5  -6  -3    0.14    0.48
   5  -6  -3    1.66    0.77
  -5   6   3    1.40    0.65
  -5   6   3    0.94    0.61
  -5   6   3    0.49    0.64
   4  -6  -3    1.30    0.58
   4  -6  -3    1.32    0.43
   4  -6  -3    0.43    0.40
   4  -6  -3    1.77    0.40
  -4   6   3    2.03    0.53
  -4   6   3    2.00    0.59
  -4   6   3    0.53    0.55
   3  -6  -3    3.31    0.56
   3  -6  -3    3.89    0.56
   3  -6  -3    4.89    0.37
  -3   6   3    4.02    0.60
  -3   6   3    4.92    0.64
  -3   6   3    3.66    0.59
  -3   6   3    3.57    0.57
  -3   6   3    4.02    0.57
  -3   6   3    4.31    0.60
   2  -6  -3    3.62    0.29
   2  -6  -3    2.92    0.40
  -2   6   3    2.97    0.52
  -2   6   3    2.92    0.48
  -2   6   3    3.01    0.45
  -2   6   3    3.74    0.51
  -2   6   3    3.73    0.56
  -2   6   3    3.99    0.55
   1  -6  -3    0.42    0.40
   1  -6  -3    0.27    0.29
   1  -6  -3    0.11    0.26
   1  -6  -3    0.28    0.23
  -1   6   3    0.44    0.31
  -1   6   3   -0.06    0.31
  -1   6   3    0.45    0.32
  -1   6   3    0.74    0.34
   0  -6  -3    0.21    0.14
   0  -6  -3    0.93    0.39
   0  -6  -3    0.96    0.24
   0  -6  -3    1.07    0.34
   0  -6  -3    0.92    0.45
   0   6   3    0.20    0.31
   0   6   3    0.09    0.35
   0   6   3    0.23    0.30
  -1  -6  -3    0.64    0.43
  -1  -6  -3    0.05    0.42
  -1  -6  -3   -0.48    0.35
  -1  -6  -3    0.23    0.42
  -1  -6  -3    0.55    0.27
   1   6   3    0.05    0.20
   1   6   3   -0.42    0.27
   1   6   3    0.42    0.37
  -2  -6  -3    7.38    0.58
  -2  -6  -3    5.99    0.71
  -2  -6  -3    7.39    0.76
  -2  -6  -3    7.43    0.86
  -2  -6  -3    8.31    0.87
   2   6   3    7.54    0.64
   2   6   3    7.49    0.53
   2   6   3    7.37    0.71
  -3  -6  -3    3.35    0.62
  -3  -6  -3    3.50    0.67
  -3  -6  -3    3.80    0.82
  -3  -6  -3    4.64    0.79
   3   6   3    3.49    0.54
   3   6   3    3.50    0.73
  -4  -6  -3    4.32    0.97
  -4  -6  -3    3.66    1.03
   4   6   3    5.75    0.92
  -5  -6  -3    3.52    1.03
  -5  -6  -3    4.48    1.12
   5   6   3    1.21    0.86
   5  -7  -3    8.03    0.80
   5  -7  -3    9.21    0.90
   5  -7  -3    6.08    1.00
   5  -7  -3    9.79    1.15
  -5   7   3   10.44    1.12
  -5   7   3    8.83    0.91
  -5   7   3    7.69    1.03
   4  -7  -3    3.44    0.54
   4  -7  -3    3.10    0.60
   4  -7  -3    3.51    0.70
   4  -7  -3    3.13    0.51
  -4   7   3    1.96    0.65
  -4   7   3    3.27    0.70
  -4   7   3    4.33    0.68
   3  -7  -3    0.97    0.42
   3  -7  -3   -0.19    0.42
   3  -7  -3    0.96    0.43
  -3   7   3    1.58    0.51
  -3   7   3    0.82    0.47
  -3   7   3    0.66    0.51
  -3   7   3    1.72    0.51
  -3   7   3    0.28    0.47
  -3   7   3    0.94    0.50
   2  -7  -3    7.43    0.60
   2  -7  -3    7.36    0.45
   2  -7  -3    6.05    0.56
   2  -7  -3    8.63    0.63
   2  -7  -3    5.32    0.62
  -2   7   3    6.52    0.67
  -2   7   3    5.54    0.63
  -2   7   3    6.16    0.63
  -2   7   3    5.96    0.63
  -2   7   3    5.48    0.63
   1  -7  -3   -0.17    0.24
   1  -7  -3    0.57    0.43
   1  -7  -3    0.38    0.24
   1  -7  -3    0.52    0.33
   1  -7  -3    0.34    0.34
  -1   7   3    0.30    0.36
  -1   7   3    0.13    0.36
  -1   7   3   -0.12    0.34
   0  -7  -3    3.43    0.21
   0  -7  -3    4.13    0.58
   0  -7  -3    3.95    0.54
   0  -7  -3    4.53    0.63
   0  -7  -3    3.84    0.40
   0  -7  -3    4.01    0.22
   0   7   3    3.90    0.50
   0   7   3    5.19    0.56
   0   7   3    3.73    0.52
  -1  -7  -3    1.24    0.59
  -1  -7  -3    0.81    0.50
  -1  -7  -3    2.26    0.36
  -1  -7  -3    1.97    0.48
   1   7   3    1.50    0.47
   1   7   3    1.83    0.42
   1   7   3    1.91    0.49
   1   7   3    1.64    0.46
  -2  -7  -3   39.64    1.44
  -2  -7  -3   39.62    1.56
  -2  -7  -3   41.32    1.66
  -2  -7  -3   38.86    1.47
  -2  -7  -3   39.73    1.20
   2   7   3   44.23    1.48
   2   7   3   41.69    1.31
  -3  -7  -3    2.46    0.82
  -3  -7  -3    1.90    0.80
  -3  -7  -3    1.80    0.64
  -3  -7  -3    1.48    0.60
   3   7   3    2.49    0.54
   3   7   3    3.37    0.72
  -4  -7  -3    2.24    0.96
  -4  -7  -3    0.49    0.80
   4   7   3    2.01    0.81
   5  -8  -3    0.43    0.84
  -5   8   3    0.88    0.83
  -5   8   3   -0.02    0.64
  -5   8   3    2.16    0.79
   4  -8  -3   -1.02    0.40
   4  -8  -3   -0.04    0.37
   4  -8  -3    1.86    0.65
   4  -8  -3    0.37    0.44
   4  -8  -3    1.80    0.51
  -4   8   3    0.94    0.68
  -4   8   3    0.34    0.60
  -4   8   3   -0.01    0.62
   3  -8  -3    0.14    0.35
   3  -8  -3   -0.25    0.42
   3  -8  -3   -0.70    0.33
  -3   8   3   -0.69    0.45
  -3   8   3    0.34    0.55
  -3   8   3    0.35    0.49
  -3   8   3    0.37    0.58
  -3   8   3   -0.69    0.46
  -3   8   3    0.19    0.51
   2  -8  -3    0.82    0.37
   2  -8  -3    0.06    0.35
   2  -8  -3   -0.44    0.42
  -2   8   3   -0.05    0.43
  -2   8   3    1.07    0.52
  -2   8   3   -0.31    0.41
  -2   8   3    0.19    0.41
   1  -8  -3    2.70    0.49
   1  -8  -3    2.27    0.39
   1  -8  -3    3.02    0.51
   1  -8  -3    2.04    0.61
   1  -8  -3    2.78    0.35
  -1   8   3    2.10    0.51
  -1   8   3    2.92    0.57
  -1   8   3    2.68    0.53
   0  -8  -3    6.94    0.79
   0  -8  -3    6.32    0.66
   0  -8  -3    7.60    0.58
   0  -8  -3    7.15    0.74
   0   8   3    6.16    0.64
   0   8   3    7.56    0.71
   0   8   3    6.56    0.66
  -1  -8  -3   -0.09    0.44
  -1  -8  -3    0.36    0.33
  -1  -8  -3   -0.77    0.55
  -1  -8  -3   -0.28    0.52
  -1  -8  -3    0.91    0.56
   1   8   3    1.05    0.48
   1   8   3   -0.30    0.43
   1   8   3    0.60    0.43
  -2  -8  -3   12.40    1.18
  -2  -8  -3   14.26    1.09
  -2  -8  -3   16.22    1.19
  -2  -8  -3   14.85    1.04
  -2  -8  -3   15.59    0.94
   2   8   3   13.59    0.96
   2   8   3   14.21    0.94
   2   8   3   15.92    0.98
  -3  -8  -3   17.37    1.40
  -3  -8  -3   14.32    1.30
  -3  -8  -3   18.08    1.23
  -3  -8  -3   17.90    1.22
   3   8   3   13.66    1.00
   3   8   3   13.52    1.16
  -4  -8  -3    0.08    0.93
  -4  -8  -3    0.74    0.91
   4   8   3    1.22    0.87
   5  -9  -3    0.03    0.81
  -5   9   3    0.51    0.88
  -5   9   3    0.21    0.78
  -5   9   3    1.99    0.76
   4  -9  -3    0.92    0.54
   4  -9  -3    0.04    0.44
   4  -9  -3    0.22    0.51
   4  -9  -3   -0.18    0.47
   4  -9  -3   -0.62    0.60
   4  -9  -3    0.79    0.52
  -4   9   3    1.29    0.66
  -4   9   3    0.62    0.70
  -4   9   3    0.93    0.71
   3  -9  -3    1.38    0.51
   3  -9  -3    0.97    0.48
   3  -9  -3    1.26    0.48
   3  -9  -3   -0.35    0.49
   3  -9  -3    0.90    0.52
  -3   9   3    1.80    0.63
  -3   9   3    2.14    0.68
  -3   9   3    2.89    0.76
  -3   9   3    1.78    0.63
  -3   9   3    2.61    0.64
   2  -9  -3    1.27    0.62
   2  -9  -3    1.50    0.45
   2  -9  -3    1.67    0.51
  -2   9   3    0.70    0.51
  -2   9   3    1.82    0.55
  -2   9   3    0.83    0.58
   1  -9  -3    1.54    0.50
   1  -9  -3    1.31    0.39
   1  -9  -3    1.55    0.51
   1  -9  -3    1.31    0.67
  -1   9   3    1.31    0.56
  -1   9   3    1.25    0.53
  -1   9   3    2.01    0.55
   0  -9  -3   -0.12    0.51
   0  -9  -3    0.01    0.50
   0  -9  -3    0.29    0.66
   0   9   3   -0.13    0.40
   0   9   3    0.77    0.48
   0   9   3    0.08    0.47
  -1  -9  -3    0.79    0.62
  -1  -9  -3    0.30    0.51
  -1  -9  -3    0.04    0.65
  -1  -9  -3   -0.48    0.57
   1   9   3   -0.09    0.47
   1   9   3    0.34    0.42
   1   9   3   -0.79    0.48
  -2  -9  -3    0.78    0.71
  -2  -9  -3   -0.15    0.53
  -2  -9  -3    0.80    0.77
  -2  -9  -3    0.64    0.81
   2   9   3   -0.11    0.48
   2   9   3    0.57    0.51
   2   9   3    0.74    0.58
  -3  -9  -3    0.82    0.74
  -3  -9  -3    1.20    0.69
  -3  -9  -3   -0.25    0.91
   3   9   3   -0.01    0.48
   3   9   3    0.03    0.62
   4 -10  -3   -0.69    0.52
   4 -10  -3    0.69    0.57
   4 -10  -3   -0.44    0.48
   4 -10  -3   -0.62    0.45
   4 -10  -3   -0.51    0.58
   3 -10  -3   -0.21    0.49
   3 -10  -3   -1.03    0.41
   3 -10  -3    0.22    0.46
   3 -10  -3    0.35    0.45
  -3  10   3    0.37    0.67
  -3  10   3    0.22    0.58
  -3  10   3    0.87    0.71
   2 -10  -3    0.50    0.63
   2 -10  -3    0.59    0.43
  -2  10   3   -0.15    0.58
  -2  10   3   -0.23    0.55
  -2  10   3   -0.01    0.53
   1 -10  -3    2.78    0.72
   1 -10  -3    2.35    0.62
   1 -10  -3    3.50    0.63
  -1  10   3    2.78    0.70
  -1  10   3    3.70    0.66
  -1  10   3    3.51    0.69
   0 -10  -3    1.12    0.78
   0 -10  -3    1.53    0.64
   0 -10  -3    0.79    0.63
   0  10   3    1.10    0.55
   0  10   3    1.78    0.64
   0  10   3    1.34    0.57
  -1 -10  -3    0.95    0.64
  -1 -10  -3    1.25    0.68
  -1 -10  -3    1.70    0.72
  -1 -10  -3    1.07    0.80
   1  10   3    0.95    0.58
   1  10   3    0.10    0.56
   1  10   3    1.62    0.59
  -2 -10  -3    0.27    0.83
  -2 -10  -3    1.86    0.78
  -2 -10  -3    0.47    0.75
  -2 -10  -3    2.25    0.76
   2  10   3    1.03    0.56
   2  10   3    0.80    0.68
   2  10   3    1.18    0.65
   3 -11  -3    3.21    0.81
   3 -11  -3    3.71    0.83
  -3  11   3    3.72    0.90
  -3  11   3    3.08    0.82
  -3  11   3    1.93    0.75
   2 -11  -3    2.04    0.81
  -2  11   3    4.70    0.83
  -2  11   3    5.06    0.84
  -2  11   3    3.32    0.74
   1 -11  -3    0.54    0.58
   1 -11  -3    0.82    0.81
  -1  11   3    0.43    0.61
  -1  11   3    0.12    0.60
  -1  11   3   -0.12    0.57
   0 -11  -3   10.06    1.17
   0 -11  -3   13.50    1.16
   0 -11  -3   11.83    1.30
   0 -11  -3   11.28    1.10
   0  11   3   12.18    1.05
   0  11   3   12.68    1.09
   0  11   3   13.41    1.13
  -1 -11  -3    0.23    0.68
  -1 -11  -3   -0.04    0.76
  -1 -11  -3    1.57    0.82
  -1 -11  -3    2.05    0.84
   1  11   3    1.22    0.70
   1  11   3    0.87    0.57
   1  11   3    1.26    0.72
  -2 -11  -3   -0.46    0.88
  -2 -11  -3    1.61    0.85
  -2 -11  -3    0.53    0.87
   2  11   3   -0.21    0.69
   2  11   3   -0.63    0.66
   2 -12  -3    0.85    0.86
   2 -12  -3    1.23    0.84
  -2  12   3    0.90    0.71
  -2  12   3    0.78    0.82
  -2  12   3   -0.56    0.63
   1 -12  -3   -0.25    0.87
   1 -12  -3    1.51    0.81
  -1  12   3    1.93    0.73
  -1  12   3    3.59    0.85
  -1  12   3    2.34    0.72
   0 -12  -3   14.46    1.53
   0 -12  -3   12.38    1.31
   0  12   3   16.11    1.33
   0  12   3   14.03    1.27
   0  12   3   11.54    1.09
   1  12  -4    2.47    0.81
   1  12  -4    1.78    0.77
  -1 -12   4    2.64    1.07
  -1 -12   4    0.56    0.72
  -1 -12   4    1.29    0.83
   0  12  -4    1.54    0.76
   0  12  -4    1.74    0.66
   0 -12   4    3.13    0.97
   0 -12   4    1.00    0.74
   0 -12   4    2.90    0.81
  -1  12  -4    0.92    0.61
  -1  12  -4    1.78    0.78
  -1  12  -4   -0.14    0.56
   1 -12   4   -1.67    0.53
   1 -12   4    1.65    0.85
   1 -12   4    0.48    0.69
  -2  12  -4    1.28    0.69
  -2  12  -4    1.10    0.74
  -2  12  -4    1.31    0.72
   2 -12   4    1.15    0.82
   2  11  -4    1.84    0.70
   2  11  -4    1.01    0.70
  -2 -11   4    1.00    0.70
  -2 -11   4    2.05    0.99
  -2 -11   4    1.14    0.90
   1  11  -4    0.77    0.58
   1  11  -4   -0.43    0.67
  -1 -11   4   -0.53    0.77
  -1 -11   4   -0.06    0.69
  -1 -11   4    0.23    0.66
   0  11  -4   -0.33    0.59
   0  11  -4    0.67    0.59
   0 -11   4   -0.06    0.70
   0 -11   4   -0.02    0.64
   0 -11   4    0.21    0.72
   0 -11   4   -0.33    0.60
  -1  11  -4    0.56    0.59
  -1  11  -4   -0.65    0.48
  -1  11  -4    0.74    0.60
   1 -11   4    0.36    0.66
   1 -11   4    0.98    0.68
   1 -11   4    1.40    0.81
   1 -11   4   -0.45    0.61
  -2  11  -4   19.38    1.25
  -2  11  -4   19.18    1.13
  -2  11  -4   17.00    1.30
   2 -11   4   16.86    1.53
   2 -11   4   21.39    1.39
  -3  11  -4    0.66    0.64
  -3  11  -4   -0.19    0.55
  -3  11  -4    0.17    0.63
   3 -11   4   -1.17    0.55
   3  10  -4    2.73    0.70
   3  10  -4    1.91    0.82
  -3 -10   4    1.82    1.01
  -3 -10   4    2.90    0.77
  -3 -10   4    3.22    0.95
   2  10  -4    6.17    0.75
   2  10  -4    7.46    0.97
   2  10  -4    8.34    0.95
  -2 -10   4    8.96    1.13
  -2 -10   4    7.96    0.92
  -2 -10   4    6.60    1.03
   1  10  -4    0.00    0.53
   1  10  -4    0.89    0.59
  -1 -10   4    0.58    0.65
  -1 -10   4    1.95    0.78
  -1 -10   4    1.79    0.76
  -1 -10   4    1.50    0.69
   0  10  -4    1.41    0.53
   0  10  -4    0.95    0.55
   0  10  -4    1.52    0.52
   0 -10   4    1.32    0.49
   0 -10   4    0.78    0.70
   0 -10   4    0.23    0.76
   0 -10   4    2.33    0.74
   0 -10   4    1.71    0.66
  -1  10  -4    0.58    0.48
  -1  10  -4    0.21    0.54
  -1  10  -4    0.87    0.46
  -1  10  -4   -0.43    0.45
   1 -10   4    0.44    0.58
   1 -10   4    1.66    0.64
   1 -10   4    1.48    0.64
  -2  10  -4    8.32    0.90
  -2  10  -4    9.01    0.90
  -2  10  -4    9.58    0.90
   2 -10   4   10.76    0.92
   2 -10   4   10.97    1.04
   2 -10   4   10.94    1.09
  -3  10  -4    0.36    0.64
  -3  10  -4    0.18    0.50
  -3  10  -4    0.18    0.57
  -3  10  -4    0.81    0.64
   3 -10   4    1.56    0.77
   3 -10   4   -1.09    0.65
  -4  10  -4    0.62    0.67
  -4  10  -4   -0.78    0.65
  -4  10  -4   -0.77    0.58
   4 -10   4    0.54    0.68
   4   9  -4    5.70    0.96
  -4  -9   4    4.23    0.99
  -4  -9   4    5.62    1.05
  -4  -9   4    5.61    0.94
   3   9  -4    0.06    0.61
  -3  -9   4   -0.56    0.65
  -3  -9   4    0.45    0.58
  -3  -9   4    0.55    0.80
   2   9  -4    0.77    0.54
   2   9  -4    0.34    0.50
  -2  -9   4   -0.46    0.49
  -2  -9   4   -0.21    0.58
  -2  -9   4    1.37    0.68
  -2  -9   4    0.94    0.63
   1   9  -4    0.10    0.34
   1   9  -4    0.51    0.51
   1   9  -4    0.75    0.53
  -1  -9   4    0.10    0.55
  -1  -9   4    0.38    0.60
  -1  -9   4    0.70    0.58
  -1  -9   4   -0.86    0.61
   0   9  -4    4.32    0.60
   0   9  -4    4.73    0.51
   0   9  -4    4.08    0.57
   0   9  -4    3.71    0.62
   0  -9   4    3.86    0.54
   0  -9   4    4.55    0.70
   0  -9   4    4.83    0.81
   0  -9   4    3.11    0.67
   0  -9   4    3.07    0.65
  -1   9  -4    0.30    0.43
  -1   9  -4   -0.81    0.35
  -1   9  -4   -0.31    0.37
  -1   9  -4   -0.20    0.44
   1  -9   4   -0.28    0.50
   1  -9   4    0.65    0.49
   1  -9   4    0.37    0.39
  -2   9  -4    0.52    0.52
  -2   9  -4    1.13    0.52
  -2   9  -4   -0.25    0.47
  -2   9  -4    1.73    0.52
   2  -9   4    0.41    0.38
   2  -9   4    0.80    0.52
   2  -9   4    0.43    0.53
  -3   9  -4   -0.17    0.56
  -3   9  -4    0.11    0.53
  -3   9  -4   -0.06    0.49
  -3   9  -4    0.09    0.49
   3  -9   4    0.37    0.57
   3  -9   4    0.67    0.48
   3  -9   4    0.26    0.58
   3  -9   4    0.37    0.43
  -4   9  -4    2.15    0.77
  -4   9  -4    1.53    0.69
  -4   9  -4    3.28    0.72
   4  -9   4    3.02    0.70
   4  -9   4    2.07    0.80
   4  -9   4    1.62    0.82
  -5   9  -4    5.50    1.00
  -5   9  -4    6.64    1.07
   5  -9   4    7.01    1.08
   4   8  -4    3.23    0.82
   4   8  -4    3.20    0.85
  -4  -8   4    3.16    0.96
  -4  -8   4    3.32    0.87
  -4  -8   4    2.11    0.78
   3   8  -4    0.38    0.59
   3   8  -4    0.03    0.53
  -3  -8   4    1.17    0.62
  -3  -8   4    1.10    0.71
  -3  -8   4    2.13    0.76
  -3  -8   4    1.92    0.66
   2   8  -4    0.69    0.50
   2   8  -4   -0.27    0.44
  -2  -8   4   -0.74    0.43
  -2  -8   4    0.17    0.57
  -2  -8   4    1.11    0.63
  -2  -8   4   -0.78    0.51
   1   8  -4    5.19    0.64
   1   8  -4    4.64    0.51
   1   8  -4    5.15    0.43
   1   8  -4    4.81    0.58
  -1  -8   4    4.93    0.67
  -1  -8   4    5.06    0.73
  -1  -8   4    3.79    0.68
  -1  -8   4    4.68    0.73
  -1  -8   4    4.36    0.58
   0   8  -4    9.11    0.64
   0   8  -4    9.09    0.57
   0   8  -4    8.71    0.74
   0   8  -4    9.49    0.47
   0   8  -4    9.21    0.69
   0  -8   4    8.58    0.67
   0  -8   4    9.95    0.89
   0  -8   4    9.34    0.85
   0  -8   4   10.88    0.86
  -1   8  -4    4.32    0.57
  -1   8  -4    5.16    0.55
  -1   8  -4    4.78    0.58
  -1   8  -4    5.16    0.58
   1  -8   4    3.76    0.48
   1  -8   4    3.98    0.43
   1  -8   4    4.77    0.67
   1  -8   4    3.57    0.63
  -2   8  -4   -0.02    0.44
  -2   8  -4   -0.20    0.44
  -2   8  -4    0.63    0.48
  -2   8  -4    0.34    0.38
   2  -8   4    0.31    0.46
   2  -8   4    0.54    0.35
   2  -8   4   -0.25    0.32
   2  -8   4   -1.16    0.29
   2  -8   4    0.11    0.52
  -3   8  -4   13.77    1.02
  -3   8  -4   13.37    0.99
  -3   8  -4   14.88    0.92
   3  -8   4   14.74    0.91
   3  -8   4   14.94    0.81
   3  -8   4   13.88    1.11
   3  -8   4   16.29    1.06
   3  -8   4   14.82    1.03
  -4   8  -4    0.96    0.60
  -4   8  -4   -0.38    0.45
  -4   8  -4   -0.26    0.56
   4  -8   4    1.12    0.65
   4  -8   4    0.39    0.59
   4  -8   4    0.46    0.58
  -5   8  -4    0.29    0.69
  -5   8  -4   -0.60    0.61
   5  -8   4   -0.28    0.80
   5   7  -4    5.99    1.08
   5   7  -4    7.22    1.09
  -5  -7   4    6.94    1.09
   4   7  -4    1.37    0.68
   4   7  -4    2.62    0.77
  -4  -7   4    1.36    0.76
  -4  -7   4    0.87    0.74
  -4  -7   4    2.49    0.72
  -4  -7   4    1.57    0.68
   3   7  -4    9.15    0.89
   3   7  -4    8.08    0.88
  -3  -7   4    5.77    0.86
  -3  -7   4    9.85    0.91
  -3  -7   4    7.88    0.91
  -3  -7   4    8.08    0.89
   2   7  -4    2.32    0.49
   2   7  -4    1.06    0.51
  -2  -7   4    2.88    0.64
  -2  -7   4    2.41    0.65
  -2  -7   4    2.22    0.59
  -2  -7   4    1.32    0.50
   1   7  -4    0.25    0.27
   1   7  -4    0.52    0.32
   1   7  -4   -0.17    0.20
  -1  -7   4    0.23    0.44
  -1  -7   4    0.47    0.47
  -1  -7   4    0.24    0.40
  -1  -7   4    0.56    0.37
  -1  -7   4    0.49    0.54
   0   7  -4   58.73    1.42
   0   7  -4   59.38    1.22
   0   7  -4   55.12    1.40
   0   7  -4   57.30    1.52
   0   7  -4   61.22    1.31
   0  -7   4   60.91    1.65
   0  -7   4   58.51    1.59
   0  -7   4   58.59    1.45
   0  -7   4   59.37    1.16
  -1   7  -4    3.04    0.48
  -1   7  -4    3.26    0.49
  -1   7  -4    3.77    0.48
  -1   7  -4    3.42    0.52
  -1   7  -4    3.19    0.44
   1  -7   4    3.69    0.45
   1  -7   4    2.74    0.32
   1  -7   4    2.33    0.35
   1  -7   4    2.82    0.49
   1  -7   4    2.74    0.37
   1  -7   4    2.75    0.53
  -2   7  -4    2.43    0.51
  -2   7  -4    1.48    0.47
  -2   7  -4    1.46    0.47
  -2   7  -4    1.04    0.38
   2  -7   4    1.58    0.39
   2  -7   4    3.13    0.49
   2  -7   4    2.39    0.55
   2  -7   4    2.17    0.41
   2  -7   4    2.15    0.34
   2  -7   4    1.43    0.46
  -3   7  -4    7.51    0.80
  -3   7  -4    6.92    0.76
  -3   7  -4    7.36    0.69
   3  -7   4    7.87    0.81
   3  -7   4    7.54    0.77
   3  -7   4    6.64    0.62
   3  -7   4    8.96    0.79
  -4   7  -4   34.34    1.45
  -4   7  -4   36.65    1.53
   4  -7   4   37.51    1.29
   4  -7   4   40.23    1.62
   4  -7   4   34.76    1.56
  -5   7  -4    0.35    0.62
  -5   7  -4    0.19    0.75
   5  -7   4    2.30    0.92
   5   6  -4    0.36    0.71
   5   6  -4    0.64    0.76
  -5  -6   4    0.93    0.73
   4   6  -4    0.47    0.58
   4   6  -4    1.16    0.61
   4   6  -4    0.55    0.65
  -4  -6   4    0.91    0.62
  -4  -6   4    0.55    0.55
  -4  -6   4    0.41    0.64
  -4  -6   4    0.57    0.56
   3   6  -4    5.10    0.68
   3   6  -4    5.23    0.71
   3   6  -4    6.26    0.76
   3   6  -4    5.28    0.69
  -3  -6   4    6.15    0.72
  -3  -6   4    6.03    0.82
  -3  -6   4    5.38    0.74
  -3  -6   4    5.34    0.70
   2   6  -4    0.12    0.36
   2   6  -4    0.46    0.37
   2   6  -4    0.52    0.39
   2   6  -4    0.21    0.40
   2   6  -4    0.43    0.16
   2   6  -4    0.30    0.20
  -2  -6   4    0.32    0.44
  -2  -6   4    0.38    0.46
  -2  -6   4    0.19    0.44
  -2  -6   4    0.42    0.49
   1   6  -4    3.15    0.44
   1   6  -4    4.08    0.46
   1   6  -4    3.57    0.21
   1   6  -4    3.80    0.30
   1   6  -4    3.70    0.42
   1   6  -4    3.75    0.38
  -1  -6   4    2.81    0.50
  -1  -6   4    4.83    0.60
  -1  -6   4    2.90    0.56
  -1  -6   4    3.47    0.50
  -1  -6   4    4.04    0.53
   0   6  -4   16.18    0.65
   0   6  -4   16.40    0.70
   0   6  -4   18.24    0.56
   0   6  -4   16.55    0.74
   0   6  -4   17.78    0.65
   0   6  -4   17.91    0.54
   0   6  -4   17.41    0.58
   0  -6   4   17.03    0.83
   0  -6   4   17.26    0.68
   0  -6   4   18.34    0.74
   0  -6   4   17.38    0.56
   0  -6   4   17.96    0.80
  -1   6  -4    2.43    0.43
  -1   6  -4    3.05    0.45
  -1   6  -4    2.42    0.37
  -1   6  -4    2.08    0.32
  -1   6  -4    2.51    0.45
   1  -6   4    2.44    0.45
   1  -6   4    2.44    0.36
   1  -6   4    1.85    0.29
   1  -6   4    2.17    0.30
   1  -6   4    2.60    0.45
   1  -6   4    2.39    0.35
  -2   6  -4   17.46    0.82
  -2   6  -4   17.11    0.79
  -2   6  -4   15.18    0.72
  -2   6  -4   16.10    0.82
   2  -6   4   17.71    0.75
   2  -6   4   16.29    0.84
   2  -6   4   16.33    0.58
   2  -6   4   16.55    0.86
   2  -6   4   15.79    0.70
   2  -6   4   17.24    0.86
  -3   6  -4   51.48    1.40
  -3   6  -4   47.28    1.49
  -3   6  -4   50.52    1.56
   3  -6   4   53.96    1.40
   3  -6   4   50.97    1.17
   3  -6   4   51.58    1.56
   3  -6   4   50.69    1.59
   3  -6   4   52.64    1.12
  -4   6  -4    0.91    0.54
  -4   6  -4    0.97    0.54
   4  -6   4    1.92    0.72
   4  -6   4    0.75    0.59
  -5   6  -4    0.78    0.68
  -5   6  -4    0.78    0.72
   5  -6   4    0.55    0.70
   5  -6   4    0.93    0.77
   5   5  -4    2.23    0.79
   5   5  -4    2.74    0.78
  -5  -5   4    1.86    0.72
   4   5  -4    4.03    0.75
   4   5  -4    4.53    0.56
   4   5  -4    5.00    0.78
   4   5  -4    3.85    0.70
  -4  -5   4    6.60    0.83
  -4  -5   4    4.39    0.74
  -4  -5   4    4.42    0.63
  -4  -5   4    4.20    0.78
   3   5  -4    5.61    0.46
   3   5  -4    5.81    0.48
   3   5  -4    6.36    0.72
   3   5  -4    4.69    0.60
   3   5  -4    4.76    0.64
   3   5  -4    5.59    0.68
  -3  -5   4    5.39    0.73
  -3  -5   4    5.32    0.69
  -3  -5   4    4.93    0.66
  -3  -5   4    6.54    0.65
   2   5  -4    0.81    0.20
   2   5  -4    0.83    0.38
   2   5  -4    0.68    0.18
   2   5  -4    0.93    0.42
   2   5  -4    1.06    0.39
   2   5  -4    0.81    0.36
  -2  -5   4    0.59    0.40
  -2  -5   4    0.60    0.43
  -2  -5   4    0.46    0.38
  -2  -5   4    0.35    0.36
   1   5  -4    7.03    0.51
   1   5  -4    6.77    0.51
   1   5  -4    7.66    0.32
   1   5  -4    7.08    0.39
   1   5  -4    7.62    0.53
   1   5  -4    7.55    0.32
   1   5  -4    7.55    0.56
  -1  -5   4    7.26    0.60
  -1  -5   4    7.41    0.59
  -1  -5   4    7.67    0.55
   0   5  -4   26.85    0.68
   0   5  -4   26.89    0.69
   0   5  -4   28.01    0.82
   0   5  -4   26.38    0.75
   0   5  -4   26.42    0.76
   0   5  -4   27.11    0.68
   0  -5   4   27.43    0.90
   0  -5   4   26.36    0.76
   0  -5   4   25.43    0.90
   0  -5   4   26.65    0.84
   0  -5   4   26.96    0.70
   0  -5   4   27.03    0.50
  -1   5  -4    2.27    0.35
  -1   5  -4    2.87    0.39
  -1   5  -4    3.46    0.41
  -1   5  -4    2.87    0.21
  -1   5  -4    3.12    0.36
  -1   5  -4    2.41    0.34
  -1   5  -4    2.73    0.12
   1  -5   4    2.48    0.40
   1  -5   4    2.47    0.29
   1  -5   4    2.80    0.37
   1  -5   4    2.46    0.35
   1  -5   4    3.00    0.44
  -2   5  -4   10.76    0.57
  -2   5  -4   10.37    0.65
  -2   5  -4   11.57    0.59
  -2   5  -4   10.54    0.66
   2  -5   4   11.37    0.66
   2  -5   4   10.91    0.68
   2  -5   4   11.66    0.61
   2  -5   4   10.88    0.45
  -3   5  -4   61.93    1.48
  -3   5  -4   64.91    1.66
  -3   5  -4   63.00    1.71
   3  -5   4   62.43    1.70
   3  -5   4   62.45    1.32
   3  -5   4   66.89    1.81
   3  -5   4   63.27    1.24
  -4   5  -4   13.26    0.95
  -4   5  -4   12.58    0.91
  -4   5  -4   13.27    0.89
   4  -5   4   11.89    1.04
   4  -5   4   11.74    0.71
   4  -5   4   12.19    1.02
  -5   5  -4    0.27    0.54
  -5   5  -4    0.60    0.61
  -5   5  -4   -0.18    0.59
   5  -5   4    0.94    0.75
   5  -5   4   -0.55    0.65
  -6   5  -4    5.80    0.83
  -6   5  -4    6.76    1.04
   6  -5   4    7.02    1.18
   6   4  -4    0.38    0.79
   6   4  -4    0.55    0.86
  -6  -4   4   -1.29    0.71
   5   4  -4    0.43    0.60
   5   4  -4    0.69    0.58
   5   4  -4    0.01    0.59
   5   4  -4    0.69    0.68
  -5  -4   4   -1.07    0.44
  -5  -4   4    0.11    0.55
   4   4  -4    0.64    0.50
   4   4  -4    0.59    0.59
   4   4  -4    0.82    0.51
   4   4  -4    0.87    0.53
   4   4  -4    0.28    0.42
   4   4  -4    1.28    0.42
  -4  -4   4   -0.27    0.48
  -4  -4   4    0.63    0.55
  -4  -4   4    0.41    0.51
  -4  -4   4    0.26    0.42
   3   4  -4    1.28    0.43
   3   4  -4    0.59    0.31
   3   4  -4    0.72    0.41
   3   4  -4    0.89    0.43
   3   4  -4    1.28    0.47
  -3  -4   4    1.04    0.47
  -3  -4   4    0.69    0.47
  -3  -4   4    1.05    0.38
  -3  -4   4    1.58    0.47
   2   4  -4    0.63    0.29
   2   4  -4    0.60    0.34
   2   4  -4    0.79    0.21
   2   4  -4    0.68    0.39
   2   4  -4    0.61    0.33
  -2  -4   4    0.46    0.31
  -2  -4   4    0.36    0.35
  -2  -4   4    1.11    0.37
  -2  -4   4    0.50    0.37
  -2  -4   4    0.35    0.38
   1   4  -4    1.17    0.21
   1   4  -4    0.77    0.14
   1   4  -4    1.20    0.33
   1   4  -4    0.98    0.29
   1   4  -4    0.64    0.26
   1   4  -4    0.77    0.19
   1   4  -4    0.99    0.29
   1   4  -4    1.09    0.12
  -1  -4   4    0.96    0.33
  -1  -4   4    0.95    0.34
  -1  -4   4    1.42    0.33
  -1  -4   4    1.55    0.36
   0   4  -4   31.83    0.91
   0   4  -4   31.82    0.76
   0   4  -4   32.06    0.81
   0   4  -4   31.89    0.78
   0   4  -4   31.60    0.73
   0   4  -4   32.69    0.62
   0   4  -4   31.72    0.76
   0   4  -4   32.57    0.79
   0   4  -4   32.43    0.70
   0  -4   4   30.90    0.93
   0  -4   4   31.64    0.77
   0  -4   4   31.75    0.92
   0  -4   4   31.25    0.76
   0  -4   4   32.15    0.63
   0  -4   4   30.85    0.85
  -1   4  -4   23.34    0.76
  -1   4  -4   25.13    0.74
  -1   4  -4   21.70    0.74
  -1   4  -4   22.39    0.73
  -1   4  -4   23.59    0.51
  -1   4  -4   23.46    0.65
   1  -4   4   22.44    0.79
   1  -4   4   23.53    0.81
   1  -4   4   23.82    0.77
   1  -4   4   22.82    0.74
   1  -4   4   23.26    0.68
  -2   4  -4  108.25    2.17
  -2   4  -4  105.33    2.12
  -2   4  -4  109.56    2.01
   2  -4   4  107.84    2.14
   2  -4   4  111.31    1.77
   2  -4   4  106.78    1.81
   2  -4   4  111.35    2.23
  -3   4  -4   59.87    1.51
  -3   4  -4   58.10    1.53
  -3   4  -4   57.54    1.33
  -3   4  -4   59.36    1.58
   3  -4   4   56.79    1.59
   3  -4   4   57.07    1.12
   3  -4   4   59.95    1.67
   3  -4   4   57.07    1.24
  -4   4  -4   12.24    0.83
  -4   4  -4   13.79    0.95
  -4   4  -4   13.24    0.93
   4  -4   4   14.26    0.71
   4  -4   4   14.87    1.07
   4  -4   4   14.34    1.03
   4  -4   4   14.16    0.73
  -5   4  -4   11.25    0.96
  -5   4  -4   11.59    0.97
  -5   4  -4   13.16    1.14
   5  -4   4   12.50    1.24
   5  -4   4   11.58    1.14
  -6   4  -4    1.46    0.58
  -6   4  -4    0.55    0.66
  -6   4  -4    2.25    0.82
   6  -4   4    0.41    0.90
   6   3  -4    3.14    0.93
   6   3  -4    2.30    0.81
   6   3  -4    2.70    0.83
  -6  -3   4    3.54    0.87
   5   3  -4    3.14    0.65
   5   3  -4    3.25    0.80
   5   3  -4    3.71    0.79
   5   3  -4    3.74    0.72
   5   3  -4    3.53    0.77
  -5  -3   4    4.03    0.69
  -5  -3   4    3.33    0.68
   4   3  -4   26.69    1.10
   4   3  -4   24.92    1.14
   4   3  -4   25.74    1.17
   4   3  -4   24.49    1.21
   4   3  -4   27.08    1.24
   4   3  -4   26.37    1.10
  -4  -3   4   24.51    1.13
  -4  -3   4   26.02    0.94
   3   3  -4    1.91    0.46
   3   3  -4    2.32    0.49
   3   3  -4    2.35    0.47
   3   3  -4    1.79    0.37
   3   3  -4    1.44    0.44
  -3  -3   4    2.23    0.46
  -3  -3   4    1.83    0.35
  -3  -3   4    1.84    0.47
  -3  -3   4    2.44    0.50
   2   3  -4   19.09    0.76
   2   3  -4   19.35    0.79
   2   3  -4   21.06    0.77
   2   3  -4   20.18    0.78
  -2  -3   4   19.20    0.67
  -2  -3   4   18.41    0.82
  -2  -3   4   18.90    0.78
  -2  -3   4   19.03    0.78
  -2  -3   4   19.59    0.79
   1   3  -4   57.22    1.24
   1   3  -4   58.80    1.28
   1   3  -4   58.55    1.25
   1   3  -4   57.98    1.13
   1   3  -4   58.22    1.02
   1   3  -4   56.66    1.23
   1   3  -4   58.35    1.24
   1   3  -4   58.29    0.88
  -1  -3   4   58.36    1.29
  -1  -3   4   57.07    1.28
  -1  -3   4   56.74    1.24
  -1  -3   4   57.70    1.29
   0   3  -4   18.04    0.61
   0   3  -4   16.45    0.52
   0   3  -4   16.89    0.51
   0   3  -4   16.65    0.48
   0   3  -4   17.12    0.51
   0   3  -4   16.07    0.53
   0   3  -4   17.07    0.55
   0   3  -4   16.78    0.47
   0  -3   4   16.72    0.47
   0  -3   4   16.82    0.62
   0  -3   4   16.64    0.59
   0  -3   4   16.83    0.55
   0  -3   4   17.41    0.63
   0  -3   4   18.07    0.45
  -1   3  -4   31.39    0.83
  -1   3  -4   28.93    0.80
  -1   3  -4   29.81    0.59
  -1   3  -4   29.50    0.73
  -1   3  -4   29.07    0.69
  -1   3  -4   30.23    0.84
   1  -3   4   30.47    0.80
   1  -3   4   30.96    0.83
   1  -3   4   30.83    0.56
   1  -3   4   29.32    0.87
   1  -3   4   28.63    0.53
  -2   3  -4   80.05    1.70
  -2   3  -4   78.68    1.65
  -2   3  -4   78.87    1.48
   2  -3   4   80.93    1.30
   2  -3   4   78.21    1.75
   2  -3   4   78.75    1.37
   2  -3   4   79.98    1.72
  -3   3  -4    4.21    0.53
  -3   3  -4    3.61    0.46
  -3   3  -4    4.92    0.51
  -3   3  -4    3.50    0.34
   3  -3   4    3.59    0.56
   3  -3   4    4.35    0.33
   3  -3   4    5.14    0.41
   3  -3   4    3.59    0.55
   3  -3   4    3.93    0.42
  -4   3  -4   17.10    0.98
  -4   3  -4   17.34    0.92
  -4   3  -4   16.01    0.88
   4  -3   4   17.25    1.09
   4  -3   4   16.26    0.76
   4  -3   4   17.79    1.13
   4  -3   4   18.70    0.88
   4  -3   4   16.63    0.68
  -5   3  -4    7.81    0.80
  -5   3  -4    6.99    0.78
  -5   3  -4    6.76    0.91
   5  -3   4    5.25    0.92
   5  -3   4    6.52    0.76
   5  -3   4    6.75    0.94
  -6   3  -4   -0.45    0.53
  -6   3  -4    0.06    0.71
   6  -3   4   -0.81    0.77
   6   2  -4    1.37    0.66
   6   2  -4    0.91    0.80
   6   2  -4   -0.89    0.69
   6   2  -4   -0.21    0.73
  -6  -2   4   -0.54    0.65
   5   2  -4    4.76    0.79
   5   2  -4    4.41    0.76
   5   2  -4    4.61    0.80
   5   2  -4    4.26    0.76
   5   2  -4    5.14    0.72
   5   2  -4    5.92    0.79
  -5  -2   4    4.71    0.69
  -5  -2   4    4.90    0.74
   4   2  -4    8.99    0.82
   4   2  -4    9.39    0.79
   4   2  -4   10.59    0.90
   4   2  -4    9.12    0.80
   4   2  -4    8.48    0.75
  -4  -2   4   10.23    0.79
  -4  -2   4    9.52    0.57
  -4  -2   4    9.51    0.80
   3   2  -4   11.34    0.68
   3   2  -4    9.91    0.67
   3   2  -4   10.50    0.71
   3   2  -4   11.32    0.73
  -3  -2   4   10.82    0.51
  -3  -2   4    9.23    0.67
  -3  -2   4   11.11    0.69
  -3  -2   4   10.40    0.66
   2   2  -4    1.32    0.33
   2   2  -4    0.66    0.29
   2   2  -4    0.73    0.32
   2   2  -4    0.50    0.31
   2   2  -4    1.01    0.32
  -2  -2   4    0.27    0.31
  -2  -2   4    0.96    0.24
  -2  -2   4    0.42    0.35
  -2  -2   4    0.52    0.31
  -2  -2   4    0.79    0.31
   1   2  -4   10.40    0.47
   1   2  -4   10.39    0.50
   1   2  -4   10.18    0.45
   1   2  -4   10.32    0.29
   1   2  -4   10.14    0.47
   1   2  -4   10.19    0.48
   1   2  -4    9.92    0.50
  -1  -2   4   10.13    0.51
  -1  -2   4   10.15    0.48
  -1  -2   4    9.72    0.51
  -1  -2   4   10.80    0.49
   0   2  -4   66.83    1.13
   0   2  -4   65.22    1.13
   0   2  -4   65.34    1.24
   0   2  -4   64.08    1.24
   0   2  -4   64.53    1.09
   0   2  -4   64.62    1.17
   0   2  -4   65.70    1.06
   0  -2   4   65.71    1.26
   0  -2   4   65.53    1.25
   0  -2   4   65.35    1.28
   0  -2   4   66.14    1.28
   0  -2   4   63.90    1.16
   0  -2   4   64.56    1.09
  -1   2  -4  109.81    1.96
  -1   2  -4  103.53    1.86
  -1   2  -4  108.63    1.73
  -1   2  -4  105.17    1.91
   1  -2   4  102.06    1.93
   1  -2   4  106.05    1.90
  -2   2  -4   45.41    1.10
  -2   2  -4   46.06    0.92
  -2   2  -4   43.81    1.14
  -2   2  -4   46.14    0.91
   2  -2   4   44.40    1.20
   2  -2   4   44.65    1.03
   2  -2   4   44.66    0.91
   2  -2   4   45.74    0.82
   2  -2   4   45.64    1.22
  -3   2  -4    1.24    0.40
  -3   2  -4    1.35    0.35
  -3   2  -4    1.07    0.34
  -3   2  -4    0.84    0.25
   3  -2   4    0.78    0.24
   3  -2   4    0.78    0.41
   3  -2   4    1.03    0.35
   3  -2   4    0.90    0.43
   3  -2   4    1.26    0.30
  -4   2  -4   23.39    0.99
  -4   2  -4   22.62    1.10
  -4   2  -4   23.75    0.98
   4  -2   4   24.11    0.94
   4  -2   4   23.78    1.04
   4  -2   4   24.06    0.83
   4  -2   4   24.07    1.21
   4  -2   4   21.94    1.15
  -5   2  -4   12.32    1.10
  -5   2  -4   11.42    0.88
  -5   2  -4   12.13    0.90
   5  -2   4   12.27    0.89
   5  -2   4   10.53    1.09
   5  -2   4   13.44    1.05
   5  -2   4    9.85    1.04
  -6   2  -4    0.66    0.72
   6  -2   4    0.26    0.82
   6  -2   4   -0.06    0.65
   6   1  -4    1.84    0.79
   6   1  -4    2.30    0.74
   6   1  -4    2.34    0.71
   6   1  -4    2.23    0.87
  -6  -1   4    2.03    0.69
  -6  -1   4    1.46    0.66
   5   1  -4   -0.92    0.57
   5   1  -4    0.63    0.50
   5   1  -4   -1.64    0.52
   5   1  -4   -0.42    0.57
   5   1  -4    0.13    0.52
   5   1  -4    0.08    0.54
  -5  -1   4    0.06    0.47
  -5  -1   4   -0.50    0.43
  -5  -1   4    0.74    0.53
   4   1  -4   -0.21    0.41
   4   1  -4    0.18    0.39
   4   1  -4    0.50    0.45
   4   1  -4    0.24    0.44
   4   1  -4   -0.07    0.38
  -4  -1   4    0.39    0.40
  -4  -1   4    0.39    0.24
  -4  -1   4    0.14    0.37
   3   1  -4    3.70    0.46
   3   1  -4    4.05    0.47
   3   1  -4    3.69    0.48
   3   1  -4    4.62    0.54
  -3  -1   4    3.91    0.32
  -3  -1   4    4.14    0.17
  -3  -1   4    4.19    0.45
   2   1  -4    3.51    0.40
   2   1  -4    4.21    0.39
   2   1  -4    3.20    0.37
   2   1  -4    4.11    0.40
   2   1  -4    3.62    0.40
  -2  -1   4    3.03    0.41
  -2  -1   4    3.56    0.37
  -2  -1   4    3.98    0.27
  -2  -1   4    4.50    0.47
  -2  -1   4    3.98    0.39
  -2  -1   4    3.95    0.42
   1   1  -4   25.25    0.63
   1   1  -4   26.41    0.68
   1   1  -4   26.34    0.66
   1   1  -4   26.24    0.50
   1   1  -4   25.94    0.72
   1   1  -4   26.77    0.70
  -1  -1   4   25.83    0.70
  -1  -1   4   24.28    0.69
  -1  -1   4   25.06    0.64
  -1  -1   4   25.98    0.71
  -1  -1   4   25.33    0.50
   0   1  -4   21.85    0.60
   0   1  -4   21.37    0.47
   0   1  -4   20.74    0.62
   0   1  -4   20.87    0.54
   0   1  -4   21.42    0.46
   0   1  -4   21.48    0.44
   0  -1   4   21.03    0.54
   0  -1   4   21.09    0.56
   0  -1   4   20.62    0.56
   0  -1   4   20.50    0.60
   0  -1   4   21.11    0.46
   0  -1   4   21.12    0.59
   0  -1   4   21.67    0.46
  -1   1  -4    4.62    0.20
  -1   1  -4    4.59    0.40
  -1   1  -4    4.35    0.36
  -1   1  -4    4.78    0.40
  -1   1  -4    4.80    0.17
  -1   1  -4    4.78    0.23
   1  -1   4    4.90    0.41
   1  -1   4    4.26    0.38
  -2   1  -4   26.11    0.87
  -2   1  -4   27.94    0.89
  -2   1  -4   27.92    0.71
  -2   1  -4   27.52    0.75
  -2   1  -4   28.56    0.99
  -2   1  -4   26.99    0.75
   2  -1   4   27.82    0.91
   2  -1   4   27.21    0.91
   2  -1   4   28.22    0.72
   2  -1   4   27.47    0.81
   2  -1   4   27.14    0.63
  -3   1  -4   10.42    0.57
  -3   1  -4   12.19    0.51
  -3   1  -4   12.06    0.71
  -3   1  -4   12.75    0.59
  -3   1  -4   12.31    0.73
   3  -1   4   11.32    0.75
   3  -1   4   10.16    0.64
   3  -1   4   11.02    0.75
   3  -1   4   12.43    0.52
   3  -1   4   11.83    0.60
  -4   1  -4    8.01    0.64
  -4   1  -4    7.17    0.69
  -4   1  -4    7.72    0.66
   4  -1   4    7.88    0.75
   4  -1   4    7.30    0.83
   4  -1   4    7.07    0.79
   4  -1   4    7.74    0.67
   4  -1   4    8.22    0.59
  -5   1  -4    4.47    0.73
  -5   1  -4    4.27    0.58
  -5   1  -4    4.65    0.81
  -5   1  -4    3.46    0.56
   5  -1   4    4.94    0.82
   5  -1   4    3.55    0.75
   5  -1   4    3.71    0.56
   5  -1   4    4.19    0.80
   5  -1   4    4.87    0.69
  -6   1  -4    0.75    0.73
   6  -1   4    0.43    0.91
   6  -1   4    0.77    0.75
   6   0  -4   -0.19    0.71
   6   0  -4    0.75    1.18
   6   0  -4    1.05    0.66
   6   0  -4    0.15    0.61
   6   0  -4    1.06    0.72
  -6   0   4    1.06    0.69
  -6   0   4    0.80    0.64
   5   0  -4    3.22    0.58
   5   0  -4    3.82    0.66
   5   0  -4    3.30    0.72
   5   0  -4    3.73    0.75
   5   0  -4    4.12    0.71
   5   0  -4    3.40    0.71
  -5   0   4    4.36    0.67
  -5   0   4    3.60    0.55
  -5   0   4    5.16    0.75
   4   0  -4    7.31    0.66
   4   0  -4    7.82    0.73
   4   0  -4    7.84    0.66
   4   0  -4    6.37    0.67
  -4   0   4    8.02    0.68
  -4   0   4    6.57    0.38
  -4   0   4    7.90    0.69
  -4   0   4    7.47    0.61
   3   0  -4    3.31    0.45
   3   0  -4    2.94    0.45
   3   0  -4    3.83    0.43
   3   0  -4    3.94    0.46
  -3   0   4    3.83    0.42
  -3   0   4    3.24    0.45
  -3   0   4    3.57    0.40
  -3   0   4    3.55    0.25
   2   0  -4   27.03    0.85
   2   0  -4   26.59    0.80
   2   0  -4   27.97    0.78
   2   0  -4   27.21    0.59
   2   0  -4   26.49    0.74
   2   0  -4   26.23    0.82
  -2   0   4   26.23    0.83
  -2   0   4   28.04    0.85
  -2   0   4   27.09    0.69
  -2   0   4   28.09    0.72
   1   0  -4  124.86    1.98
   1   0  -4  123.34    2.09
   1   0  -4  125.64    2.04
   1   0  -4  123.53    2.09
   1   0  -4  124.21    2.12
  -1   0   4  124.89    2.11
  -1   0   4  123.26    2.05
  -1   0   4  122.82    1.97
  -1   0   4  126.10    2.00
  -1   0   4  124.20    1.84
  -1   0   4  127.01    1.90
  -1   0   4  127.15    2.08
   0   0  -4   74.48    1.36
   0   0  -4   75.06    1.24
   0   0  -4   76.36    1.39
   0   0  -4   73.63    1.30
   0   0   4   72.19    1.30
   0   0   4   73.42    1.35
   0   0   4   72.39    1.36
   0   0   4   76.07    1.16
   0   0   4   74.01    1.23
  -1   0  -4  277.30    4.37
  -1   0  -4  281.96    4.36
  -1   0  -4  271.38    4.30
  -1   0  -4  278.51    4.20
  -1   0  -4  269.57    4.37
   1   0   4  279.51    4.36
   1   0   4  279.38    4.37
  -2   0  -4   32.64    0.97
  -2   0  -4   32.37    0.96
  -2   0  -4   32.43    0.83
  -2   0  -4   31.87    0.96
  -2   0  -4   32.13    0.84
  -2   0  -4   34.20    0.76
   2   0   4   32.70    0.94
   2   0   4   34.19    0.79
   2   0   4   33.59    0.99
   2   0   4   32.10    0.96
   2   0   4   33.29    0.86
  -3   0  -4    6.52    0.62
  -3   0  -4    7.57    0.68
  -3   0  -4    7.13    0.47
  -3   0  -4    8.13    0.47
   3   0   4    7.08    0.62
   3   0   4    7.20    0.49
   3   0   4    7.36    0.67
   3   0   4    7.21    0.58
   3   0   4    6.78    0.62
  -4   0  -4   26.39    1.14
  -4   0  -4   26.78    1.17
  -4   0  -4   27.02    0.93
   4   0   4   28.00    1.00
   4   0   4   28.31    1.19
   4   0   4   28.63    1.25
   4   0   4   29.13    1.14
   4   0   4   29.18    1.23
  -5   0  -4   -0.13    0.51
  -5   0  -4    0.81    0.55
  -5   0  -4    0.64    0.46
   5   0   4   -0.19    0.50
   5   0   4    0.69    0.60
   5   0   4   -0.19    0.58
   5   0   4    0.36    0.44
   5   0   4    0.89    0.66
  -6   0  -4   -0.21    0.71
  -6   0  -4   -0.89    0.64
   6   0   4    1.44    0.93
   6   0   4   -0.17    0.69
   6  -1  -4    2.57    0.75
   6  -1  -4    2.17    0.72
   6  -1  -4    0.82    0.77
   6  -1  -4    1.63    0.73
  -6   1   4    2.61    0.79
  -6   1   4    1.55    0.65
   5  -1  -4    8.09    0.75
   5  -1  -4    9.55    0.87
   5  -1  -4   10.82    1.01
   5  -1  -4    8.20    0.85
   5  -1  -4   10.23    0.98
   5  -1  -4    7.31    0.90
  -5   1   4    7.57    0.85
  -5   1   4    8.17    0.80
   4  -1  -4    6.74    0.61
   4  -1  -4    8.65    0.72
   4  -1  -4   10.04    0.77
   4  -1  -4    9.54    0.71
  -4   1   4    8.31    0.67
  -4   1   4    9.10    0.48
  -4   1   4    9.77    0.80
  -4   1   4    8.96    0.53
   3  -1  -4    0.89    0.35
   3  -1  -4    0.93    0.28
   3  -1  -4    1.65    0.37
   3  -1  -4    1.35    0.37
  -3   1   4    1.45    0.35
  -3   1   4    1.35    0.26
  -3   1   4    1.15    0.37
  -3   1   4    1.50    0.26
   2  -1  -4    0.93    0.29
   2  -1  -4    0.88    0.24
   2  -1  -4    1.06    0.31
   2  -1  -4    1.05    0.32
   2  -1  -4    0.58    0.24
   2  -1  -4    0.62    0.11
   2  -1  -4    0.36    0.17
  -2   1   4    1.00    0.36
  -2   1   4    1.07    0.26
  -2   1   4    0.60    0.30
  -2   1   4    0.92    0.19
  -2   1   4    0.93    0.27
   1  -1  -4    5.18    0.41
   1  -1  -4    4.59    0.24
   1  -1  -4    3.93    0.22
   1  -1  -4    6.17    0.39
   1  -1  -4    5.23    0.36
  -1   1   4    5.57    0.39
  -1   1   4    5.46    0.31
  -1   1   4    5.09    0.33
  -1   1   4    5.33    0.30
  -1   1   4    5.50    0.34
   0  -1  -4    0.42    0.22
   0  -1  -4    0.51    0.28
   0  -1  -4    0.90    0.24
   0  -1  -4    0.08    0.23
   0   1   4    0.65    0.17
   0   1   4    0.63    0.17
   0   1   4    0.55    0.12
   0   1   4    0.66    0.26
   0   1   4    0.54    0.10
   0   1   4    0.23    0.23
  -1  -1  -4   20.68    0.71
  -1  -1  -4   22.20    0.70
  -1  -1  -4   21.00    0.62
  -1  -1  -4   20.76    0.64
  -1  -1  -4   20.83    0.73
   1   1   4   21.67    0.70
   1   1   4   21.34    0.36
   1   1   4   20.70    0.69
   1   1   4   21.38    0.42
   1   1   4   20.55    0.64
   1   1   4   20.64    0.61
  -2  -1  -4    1.79    0.31
  -2  -1  -4    1.76    0.32
  -2  -1  -4    1.52    0.18
  -2  -1  -4    1.54    0.32
  -2  -1  -4    1.02    0.36
  -2  -1  -4    1.31    0.38
   2   1   4    1.59    0.36
   2   1   4    1.75    0.38
   2   1   4    1.99    0.31
   2   1   4    2.08    0.38
   2   1   4    1.20    0.36
  -3  -1  -4   26.91    1.06
  -3  -1  -4   27.67    0.82
  -3  -1  -4   26.39    0.72
  -3  -1  -4   26.91    1.02
   3   1   4   26.03    0.88
   3   1   4   25.75    0.98
   3   1   4   24.11    1.00
   3   1   4   26.26    1.02
   3   1   4   28.64    0.97
  -4  -1  -4    1.16    0.47
  -4  -1  -4    0.43    0.30
  -4  -1  -4    0.45    0.49
   4   1   4    0.14    0.48
   4   1   4    0.19    0.51
   4   1   4    0.91    0.53
   4   1   4    0.78    0.43
   4   1   4    0.44    0.50
  -5  -1  -4    1.33    0.60
  -5  -1  -4   -0.95    0.59
   5   1   4    0.84    0.59
   5   1   4   -0.22    0.58
   5   1   4   -0.23    0.46
   5   1   4    0.29    0.57
   5   1   4    0.79    0.71
  -6  -1  -4    2.37    0.87
   6   1   4    1.38    0.80
   6   1   4    0.98    0.79
   6  -2  -4   17.83    1.18
   6  -2  -4   16.77    1.26
   6  -2  -4   19.66    1.24
   6  -2  -4   13.74    1.32
  -6   2   4   18.72    1.30
  -6   2   4   15.63    1.20
   5  -2  -4   16.82    1.29
   5  -2  -4   15.25    1.05
   5  -2  -4   15.87    1.08
   5  -2  -4   14.25    0.86
   5  -2  -4   14.15    1.15
   5  -2  -4   16.21    1.08
  -5   2   4   15.88    0.98
  -5   2   4   12.19    1.02
  -5   2   4   15.67    1.05
   4  -2  -4    3.12    0.53
   4  -2  -4    2.80    0.50
   4  -2  -4    3.11    0.55
   4  -2  -4    3.86    0.46
  -4   2   4    3.02    0.39
  -4   2   4    3.89    0.62
  -4   2   4    3.95    0.53
  -4   2   4    3.36    0.32
   3  -2  -4   21.04    0.86
   3  -2  -4   20.08    0.78
   3  -2  -4   20.36    0.54
   3  -2  -4   20.80    0.70
   3  -2  -4   19.21    0.76
  -3   2   4   19.64    0.77
  -3   2   4   20.62    0.87
  -3   2   4   20.48    0.50
  -3   2   4   20.16    0.69
   2  -2  -4    0.61    0.23
   2  -2  -4    0.52    0.30
   2  -2  -4    0.56    0.29
   2  -2  -4    0.55    0.22
  -2   2   4    0.76    0.30
  -2   2   4    0.27    0.29
  -2   2   4    1.00    0.26
  -2   2   4    0.68    0.23
   1  -2  -4    9.99    0.29
   1  -2  -4    9.33    0.38
   1  -2  -4    9.55    0.46
  -1   2   4    9.87    0.33
  -1   2   4    9.55    0.29
  -1   2   4    9.24    0.45
  -1   2   4    9.74    0.52
  -1   2   4    9.20    0.49
  -1   2   4    9.47    0.47
  -1   2   4    8.95    0.43
   0  -2  -4   98.50    1.73
   0  -2  -4   97.16    1.68
   0  -2  -4   94.32    1.79
   0  -2  -4   94.99    1.55
   0  -2  -4   94.88    1.74
   0   2   4   95.62    1.72
   0   2   4   96.90    1.58
   0   2   4   95.01    1.67
   0   2   4   97.99    1.56
   0   2   4   97.16    1.62
  -1  -2  -4   59.36    1.26
  -1  -2  -4   55.81    1.30
  -1  -2  -4   55.53    1.26
  -1  -2  -4   56.98    1.32
  -1  -2  -4   59.15    1.17
  -1  -2  -4   56.70    1.20
   1   2   4   57.01    1.25
   1   2   4   57.92    1.17
   1   2   4   57.45    1.20
   1   2   4   56.15    1.27
   1   2   4   57.70    1.03
  -2  -2  -4    0.40    0.10
  -2  -2  -4    0.55    0.35
  -2  -2  -4    0.53    0.27
  -2  -2  -4    0.25    0.36
  -2  -2  -4    0.32    0.28
   2   2   4    0.69    0.33
   2   2   4    0.13    0.25
   2   2   4    0.48    0.29
   2   2   4   -0.59    0.29
  -3  -2  -4   -0.05    0.17
  -3  -2  -4   -0.43    0.40
  -3  -2  -4   -0.20    0.27
  -3  -2  -4    0.27    0.41
   3   2   4   -0.21    0.41
   3   2   4   -0.12    0.36
   3   2   4    0.24    0.40
   3   2   4   -0.04    0.38
   3   2   4    0.02    0.33
  -4  -2  -4    0.13    0.59
  -4  -2  -4    0.45    0.48
   4   2   4   -0.26    0.41
   4   2   4    0.18    0.45
   4   2   4    0.24    0.50
   4   2   4    0.00    0.39
   4   2   4   -0.52    0.46
  -5  -2  -4    0.06    0.58
  -5  -2  -4    0.02    0.65
   5   2   4    0.96    0.73
   5   2   4    0.57    0.55
   5   2   4   -0.53    0.52
   5   2   4    0.64    0.63
   5   2   4   -0.33    0.61
  -6  -2  -4   -0.37    0.72
  -6  -2  -4    0.61    0.67
   6   2   4   -0.02    0.79
   6   2   4    0.45    0.86
   6  -3  -4    5.76    0.88
   6  -3  -4    4.52    0.80
   6  -3  -4    3.04    0.77
   6  -3  -4    5.53    1.02
  -6   3   4    5.54    0.88
  -6   3   4    4.85    0.94
   5  -3  -4   12.72    0.79
   5  -3  -4   13.64    1.02
   5  -3  -4   13.07    0.98
   5  -3  -4   13.60    1.15
   5  -3  -4   14.90    1.20
   5  -3  -4   13.51    1.00
  -5   3   4   14.40    1.12
  -5   3   4   14.41    0.79
  -5   3   4   13.78    0.97
   4  -3  -4   -0.02    0.34
   4  -3  -4    0.27    0.46
   4  -3  -4    0.17    0.30
   4  -3  -4    0.12    0.42
  -4   3   4    0.60    0.46
  -4   3   4    0.28    0.36
  -4   3   4   -0.68    0.38
   3  -3  -4    5.27    0.50
   3  -3  -4    6.19    0.57
   3  -3  -4    5.73    0.42
   3  -3  -4    5.42    0.48
   3  -3  -4    5.87    0.41
  -3   3   4    6.19    0.51
  -3   3   4    5.45    0.55
  -3   3   4    5.95    0.53
  -3   3   4    6.08    0.59
   2  -3  -4    1.34    0.25
   2  -3  -4    1.53    0.35
   2  -3  -4    1.71    0.30
  -2   3   4    1.64    0.35
  -2   3   4    1.25    0.35
  -2   3   4    1.37    0.34
  -2   3   4    2.29    0.34
  -2   3   4    1.45    0.34
   1  -3  -4    4.80    0.30
   1  -3  -4    4.18    0.35
   1  -3  -4    4.73    0.29
   1  -3  -4    4.61    0.46
  -1   3   4    6.07    0.47
  -1   3   4    4.30    0.38
  -1   3   4    4.80    0.40
  -1   3   4    4.67    0.40
   0  -3  -4   24.39    0.78
   0  -3  -4   23.37    0.81
   0  -3  -4   24.56    0.61
   0  -3  -4   24.34    0.63
   0  -3  -4   22.77    0.74
   0  -3  -4   24.49    0.44
   0   3   4   24.82    0.68
   0   3   4   24.23    0.61
   0   3   4   23.08    0.70
   0   3   4   24.04    0.71
   0   3   4   24.10    0.60
  -1  -3  -4    1.98    0.39
  -1  -3  -4    2.71    0.14
  -1  -3  -4    1.96    0.40
  -1  -3  -4    2.13    0.34
  -1  -3  -4    3.71    0.45
  -1  -3  -4    2.50    0.28
  -1  -3  -4    3.24    0.40
   1   3   4    3.27    0.40
   1   3   4    2.92    0.29
   1   3   4    2.82    0.33
   1   3   4    3.01    0.37
   1   3   4    2.67    0.28
  -2  -3  -4    3.12    0.44
  -2  -3  -4    2.55    0.46
  -2  -3  -4    3.20    0.52
  -2  -3  -4    2.77    0.47
  -2  -3  -4    3.23    0.35
   2   3   4    2.27    0.45
   2   3   4    2.66    0.43
   2   3   4    3.03    0.38
  -3  -3  -4    0.72    0.50
  -3  -3  -4    0.58    0.49
  -3  -3  -4    0.59    0.36
  -3  -3  -4   -0.03    0.17
   3   3   4    0.67    0.40
   3   3   4   -0.11    0.38
   3   3   4    0.51    0.44
   3   3   4    0.14    0.34
  -4  -3  -4    4.33    0.73
  -4  -3  -4    4.33    0.85
   4   3   4    4.46    0.69
   4   3   4    5.60    0.80
   4   3   4    3.95    0.61
   4   3   4    5.01    0.64
  -5  -3  -4    6.68    1.01
  -5  -3  -4    5.94    0.88
   5   3   4    7.09    0.82
   5   3   4    6.49    0.97
   5   3   4    5.98    0.94
   5   3   4    6.55    0.94
   6  -4  -4   21.56    1.28
   6  -4  -4   16.45    1.47
   6  -4  -4   16.39    1.32
  -6   4   4   19.33    1.38
  -6   4   4   20.57    1.47
   5  -4  -4   -0.24    0.59
   5  -4  -4    1.35    0.61
   5  -4  -4    1.78    0.53
   5  -4  -4    2.03    0.59
  -5   4   4    2.01    0.64
  -5   4   4    0.94    0.63
  -5   4   4    1.64    0.51
   4  -4  -4    1.17    0.32
   4  -4  -4    1.05    0.46
   4  -4  -4    0.50    0.38
   4  -4  -4    1.18    0.42
  -4   4   4    0.74    0.38
  -4   4   4    1.07    0.52
  -4   4   4    0.08    0.47
   3  -4  -4   27.09    0.76
   3  -4  -4   26.48    1.00
   3  -4  -4   27.58    0.86
   3  -4  -4   28.86    1.00
   3  -4  -4   26.85    0.84
  -3   4   4   26.04    0.96
  -3   4   4   25.57    1.05
  -3   4   4   27.02    0.92
  -3   4   4   28.34    1.03
   2  -4  -4   -0.13    0.10
   2  -4  -4   -0.76    0.23
   2  -4  -4    0.38    0.20
   2  -4  -4    0.41    0.35
  -2   4   4    0.05    0.28
  -2   4   4    0.33    0.31
  -2   4   4    0.15    0.30
  -2   4   4    0.07    0.29
  -2   4   4    0.35    0.30
  -2   4   4   -0.36    0.29
   1  -4  -4    0.24    0.20
   1  -4  -4    0.02    0.19
   1  -4  -4    0.27    0.29
   1  -4  -4    0.24    0.32
  -1   4   4   -0.02    0.27
  -1   4   4    0.01    0.27
  -1   4   4    0.03    0.28
  -1   4   4    0.24    0.26
   0  -4  -4   80.00    1.66
   0  -4  -4   82.60    1.75
   0  -4  -4   80.37    1.54
   0  -4  -4   80.14    1.47
   0  -4  -4   81.55    1.34
   0  -4  -4   80.45    1.76
   0   4   4   81.69    1.64
   0   4   4   82.64    1.69
   0   4   4   81.82    1.53
   0   4   4   80.32    1.58
   0   4   4   82.08    1.50
  -1  -4  -4    0.09    0.17
  -1  -4  -4   -0.19    0.32
  -1  -4  -4    0.14    0.32
  -1  -4  -4   -0.18    0.17
  -1  -4  -4    0.42    0.40
  -1  -4  -4    0.11    0.25
   1   4   4    0.05    0.23
   1   4   4   -0.08    0.18
   1   4   4    0.35    0.31
   1   4   4    0.39    0.26
   1   4   4    0.20    0.21
  -2  -4  -4    7.60    0.69
  -2  -4  -4    6.42    0.61
  -2  -4  -4    7.20    0.70
  -2  -4  -4    6.62    0.58
  -2  -4  -4    6.24    0.42
   2   4   4    6.59    0.55
   2   4   4    6.23    0.62
   2   4   4    6.17    0.46
   2   4   4    6.69    0.48
  -3  -4  -4   10.48    0.77
  -3  -4  -4   10.99    0.93
  -3  -4  -4   10.75    0.91
   3   4   4   11.29    0.81
   3   4   4    9.69    0.85
   3   4   4   11.51    0.69
  -4  -4  -4    5.01    0.86
  -4  -4  -4    3.83    0.81
   4   4   4    5.09    0.62
   4   4   4    5.65    0.76
   4   4   4    3.96    0.74
   4   4   4    4.16    0.79
  -5  -4  -4    0.61    0.79
  -5  -4  -4    0.22    0.61
   5   4   4    1.70    0.81
   5   4   4    0.30    0.65
   6  -5  -4    7.61    0.88
   6  -5  -4    6.01    0.87
   6  -5  -4    5.20    1.10
  -6   5   4    8.41    1.08
  -6   5   4    8.70    1.06
   5  -5  -4    2.09    0.64
   5  -5  -4    2.21    0.60
   5  -5  -4    1.75    0.75
  -5   5   4    2.45    0.69
  -5   5   4    1.93    0.54
  -5   5   4    2.42    0.65
   4  -5  -4   14.31    0.76
   4  -5  -4   16.67    0.93
   4  -5  -4   16.92    0.74
   4  -5  -4   16.43    0.87
  -4   5   4   14.86    1.00
  -4   5   4   13.56    0.91
  -4   5   4   16.11    0.88
   3  -5  -4   25.86    0.95
   3  -5  -4   25.33    0.70
   3  -5  -4   23.80    0.94
   3  -5  -4   25.59    0.80
   3  -5  -4   27.20    1.07
  -3   5   4   25.94    0.98
  -3   5   4   26.72    1.01
  -3   5   4   26.01    1.09
  -3   5   4   28.38    1.13
  -3   5   4   25.81    1.02
   2  -5  -4    0.86    0.33
   2  -5  -4    0.87    0.27
   2  -5  -4    0.93    0.12
  -2   5   4    0.75    0.35
  -2   5   4    1.31    0.36
  -2   5   4    0.77    0.36
  -2   5   4    0.54    0.36
  -2   5   4    1.33    0.38
  -2   5   4    1.21    0.37
   1  -5  -4    7.16    0.43
   1  -5  -4    8.19    0.40
   1  -5  -4    7.09    0.55
   1  -5  -4    7.23    0.46
  -1   5   4    7.11    0.53
  -1   5   4    7.78    0.57
  -1   5   4    7.33    0.53
  -1   5   4    6.91    0.58
   0  -5  -4   11.93    0.54
   0  -5  -4   12.01    0.71
   0  -5  -4   11.77    0.63
   0  -5  -4   11.95    0.44
   0  -5  -4   12.57    0.42
   0  -5  -4   11.27    0.72
   0   5   4   11.92    0.55
   0   5   4   12.38    0.63
   0   5   4   13.76    0.69
   0   5   4   11.68    0.62
  -1  -5  -4    1.62    0.26
  -1  -5  -4    2.27    0.50
  -1  -5  -4    1.87    0.22
  -1  -5  -4    2.08    0.47
  -1  -5  -4    2.38    0.48
  -1  -5  -4    2.25    0.39
   1   5   4    1.65    0.35
   1   5   4    1.67    0.33
   1   5   4    1.58    0.38
  -2  -5  -4    6.45    0.74
  -2  -5  -4    6.31    0.71
  -2  -5  -4    6.63    0.67
  -2  -5  -4    7.89    0.67
   2   5   4    7.17    0.57
   2   5   4    7.13    0.42
   2   5   4    7.12    0.70
   2   5   4    6.53    0.50
  -3  -5  -4    5.30    0.77
  -3  -5  -4    4.48    0.62
  -3  -5  -4    4.58    0.68
  -3  -5  -4    5.14    0.80
   3   5   4    5.90    0.66
   3   5   4    3.70    0.43
   3   5   4    4.51    0.71
  -4  -5  -4    5.02    0.84
  -4  -5  -4    3.48    0.87
   4   5   4    3.39    0.79
   4   5   4    4.23    0.72
  -5  -5  -4    5.71    1.07
  -5  -5  -4    4.80    1.10
   5   5   4    3.68    1.26
   5   5   4    5.68    1.04
   6  -6  -4    4.89    1.11
  -6   6   4    3.17    0.81
  -6   6   4    4.67    0.99
  -6   6   4    6.49    0.99
   5  -6  -4    1.10    0.52
   5  -6  -4    1.58    0.60
   5  -6  -4    0.64    0.67
  -5   6   4    0.39    0.53
  -5   6   4    0.74    0.72
  -5   6   4    1.87    0.74
   4  -6  -4    1.79    0.49
   4  -6  -4    0.66    0.56
   4  -6  -4    1.73    0.51
   4  -6  -4    2.02    0.43
  -4   6   4    1.53    0.62
  -4   6   4    2.10    0.54
  -4   6   4    1.82    0.57
   3  -6  -4   -0.35    0.33
   3  -6  -4   -0.07    0.37
   3  -6  -4    0.45    0.20
   3  -6  -4   -0.22    0.22
  -3   6   4   -0.04    0.45
  -3   6   4   -0.28    0.41
  -3   6   4   -0.06    0.45
  -3   6   4    0.39    0.47
  -3   6   4   -0.01    0.42
  -3   6   4   -0.10    0.39
   2  -6  -4    2.20    0.39
   2  -6  -4    3.40    0.26
   2  -6  -4    2.11    0.44
  -2   6   4    1.78    0.44
  -2   6   4    2.80    0.49
  -2   6   4    2.36    0.46
  -2   6   4    3.29    0.54
  -2   6   4    3.03    0.48
   1  -6  -4    0.70    0.28
   1  -6  -4    0.61    0.30
   1  -6  -4    0.82    0.38
   1  -6  -4    0.92    0.26
  -1   6   4    0.59    0.35
  -1   6   4    0.29    0.34
  -1   6   4    0.59    0.34
  -1   6   4    0.90    0.36
   0  -6  -4    0.76    0.41
   0  -6  -4    0.27    0.18
   0  -6  -4    0.84    0.22
   0  -6  -4    0.32    0.34
   0  -6  -4    0.45    0.31
   0  -6  -4    0.17    0.39
   0   6   4    0.64    0.35
   0   6   4    0.32    0.33
   0   6   4    0.33    0.34
  -1  -6  -4    1.17    0.28
  -1  -6  -4    1.32    0.14
  -1  -6  -4    1.92    0.48
  -1  -6  -4    1.07    0.50
  -1  -6  -4    1.34    0.54
  -1  -6  -4    0.93    0.46
   1   6   4    1.62    0.32
   1   6   4    1.51    0.38
  -2  -6  -4    8.02    0.86
  -2  -6  -4    7.10    0.72
  -2  -6  -4    6.52    0.77
  -2  -6  -4    6.76    0.72
   2   6   4    7.56    0.58
   2   6   4    7.93    0.77
   2   6   4    7.09    0.56
  -3  -6  -4    0.67    0.52
  -3  -6  -4   -0.42    0.50
  -3  -6  -4    0.96    0.63
  -3  -6  -4    0.01    0.67
   3   6   4   -0.27    0.53
   3   6   4   -0.70    0.33
   3   6   4    0.39    0.42
  -4  -6  -4    8.76    1.15
  -4  -6  -4    9.78    1.22
   4   6   4    9.46    1.09
  -5  -6  -4    1.42    1.03
  -5  -6  -4    3.67    1.06
   5   6   4    1.67    0.85
   5  -7  -4    0.90    0.81
   5  -7  -4    0.77    0.54
   5  -7  -4    0.28    0.50
   5  -7  -4   -0.17    0.63
  -5   7   4   -0.89    0.58
  -5   7   4   -0.23    0.63
  -5   7   4    0.49    0.64
   4  -7  -4    4.52    0.66
   4  -7  -4    6.29    0.66
   4  -7  -4    4.82    0.69
   4  -7  -4    5.56    0.79
  -4   7   4    4.96    0.78
  -4   7   4    5.59    0.80
  -4   7   4    3.56    0.74
  -4   7   4    5.41    0.73
   3  -7  -4    1.75    0.42
   3  -7  -4    1.46    0.49
   3  -7  -4    0.84    0.45
   3  -7  -4    1.46    0.50
  -3   7   4    1.78    0.55
  -3   7   4    2.53    0.58
  -3   7   4    1.86    0.53
  -3   7   4    2.11    0.56
  -3   7   4    1.44    0.51
  -3   7   4    1.63    0.52
   2  -7  -4    2.26    0.42
   2  -7  -4    2.66    0.49
   2  -7  -4    3.48    0.37
   2  -7  -4    3.31    0.44
  -2   7   4    3.03    0.52
  -2   7   4    2.18    0.53
  -2   7   4    2.82    0.51
  -2   7   4    2.92    0.55
   1  -7  -4    2.97    0.36
   1  -7  -4    3.90    0.48
   1  -7  -4    3.47    0.61
   1  -7  -4    3.64    0.46
  -1   7   4    3.09    0.50
  -1   7   4    3.41    0.53
  -1   7   4    3.29    0.55
   0  -7  -4    0.20    0.44
   0  -7  -4   -0.04    0.42
   0  -7  -4    0.35    0.38
   0  -7  -4   -0.06    0.17
   0  -7  -4   -0.06    0.23
   0   7   4    0.01    0.37
   0   7   4   -0.37    0.33
   0   7   4    0.09    0.36
  -1  -7  -4   18.00    0.70
  -1  -7  -4   17.80    0.94
  -1  -7  -4   18.37    1.05
  -1  -7  -4   17.86    1.05
  -1  -7  -4   14.98    0.98
   1   7   4   17.54    0.91
   1   7   4   17.92    0.91
   1   7   4   18.38    0.84
  -2  -7  -4    1.10    0.60
  -2  -7  -4    1.79    0.73
  -2  -7  -4    1.13    0.61
  -2  -7  -4    1.31    0.56
   2   7   4    1.91    0.58
   2   7   4    1.50    0.47
   2   7   4    1.90    0.55
  -3  -7  -4    0.82    0.75
  -3  -7  -4    2.30    0.79
  -3  -7  -4    2.27    0.65
  -3  -7  -4    1.51    0.64
   3   7   4    2.58    0.71
   3   7   4    2.02    0.52
  -4  -7  -4    4.03    1.01
  -4  -7  -4    4.94    1.16
   4   7   4    4.49    0.99
   5  -8  -4   13.37    1.29
   5  -8  -4   11.50    1.33
   5  -8  -4   15.52    1.04
  -5   8   4   10.75    1.05
  -5   8   4   13.94    1.32
  -5   8   4   16.58    1.40
   4  -8  -4   -0.50    0.39
   4  -8  -4    0.32    0.41
   4  -8  -4    0.14    0.48
   4  -8  -4    1.19    0.50
   4  -8  -4   -0.57    0.55
  -4   8   4    0.60    0.71
  -4   8   4    0.20    0.60
  -4   8   4    0.99    0.64
  -4   8   4    0.58    0.59
   3  -8  -4    1.80    0.51
   3  -8  -4    1.11    0.50
   3  -8  -4    1.89    0.46
   3  -8  -4    1.64    0.55
   3  -8  -4    0.66    0.52
  -3   8   4    2.22    0.62
  -3   8   4    3.15    0.64
  -3   8   4    2.23    0.61
  -3   8   4    2.11    0.60
  -3   8   4    2.28    0.63
   2  -8  -4   -0.35    0.30
   2  -8  -4   -0.57    0.31
   2  -8  -4    0.07    0.43
  -2   8   4    0.09    0.44
  -2   8   4   -0.51    0.46
  -2   8   4    0.25    0.43
  -2   8   4   -0.08    0.47
   1  -8  -4    9.24    0.69
   1  -8  -4    9.03    0.54
   1  -8  -4    7.69    0.54
   1  -8  -4    8.33    0.69
   1  -8  -4    8.81    0.86
  -1   8   4    8.14    0.79
  -1   8   4    7.14    0.70
  -1   8   4    8.91    0.77
   0  -8  -4    3.46    0.63
   0  -8  -4    2.98    0.65
   0  -8  -4    2.61    0.62
   0  -8  -4    3.95    0.43
   0  -8  -4    3.78    0.57
   0   8   4    3.04    0.57
   0   8   4    2.39    0.53
   0   8   4    3.12    0.59
  -1  -8  -4   -0.28    0.51
  -1  -8  -4   -0.91    0.49
  -1  -8  -4    0.46    0.45
  -1  -8  -4    1.06    0.58
   1   8   4    0.48    0.42
   1   8   4    0.35    0.47
   1   8   4    0.12    0.45
  -2  -8  -4    5.93    0.89
  -2  -8  -4    6.24    0.92
  -2  -8  -4    6.14    0.82
  -2  -8  -4    5.87    0.87
   2   8   4    7.26    0.71
   2   8   4    5.33    0.69
  -3  -8  -4   21.66    1.46
  -3  -8  -4   22.42    1.55
  -3  -8  -4   19.89    1.33
   3   8   4   23.73    1.38
   3   8   4   20.62    1.09
  -4  -8  -4    0.64    1.05
  -4  -8  -4    0.13    0.96
   4   8   4   -0.19    0.73
   5  -9  -4   -0.95    0.79
  -5   9   4    1.70    0.83
  -5   9   4    0.41    0.88
   4  -9  -4    3.59    0.69
   4  -9  -4    4.44    0.76
   4  -9  -4    3.82    0.66
   4  -9  -4    4.41    0.70
   4  -9  -4    5.54    0.76
  -4   9   4    8.26    1.03
  -4   9   4    4.49    0.89
  -4   9   4    6.45    0.97
   3  -9  -4   -0.16    0.43
   3  -9  -4   -0.45    0.42
   3  -9  -4   -0.14    0.38
   3  -9  -4   -0.46    0.50
   3  -9  -4    0.05    0.49
   3  -9  -4    0.26    0.43
  -3   9   4    0.03    0.52
  -3   9   4    0.55    0.67
  -3   9   4    0.56    0.59
  -3   9   4    0.36    0.55
   2  -9  -4    2.31    0.65
   2  -9  -4    1.65    0.42
   2  -9  -4    2.00    0.50
  -2   9   4    1.67    0.62
  -2   9   4    1.83    0.57
  -2   9   4    2.39    0.60
   1  -9  -4   -0.12    0.45
   1  -9  -4    0.11    0.51
   1  -9  -4    0.07    0.41
  -1   9   4   -0.20    0.44
  -1   9   4   -1.23    0.40
  -1   9   4    0.03    0.48
   0  -9  -4    1.34    0.54
   0  -9  -4    0.63    0.60
   0  -9  -4    2.04    0.57
   0  -9  -4    1.55    0.71
   0   9   4    1.18    0.54
   0   9   4    1.40    0.56
   0   9   4    1.76    0.57
  -1  -9  -4   -0.10    0.58
  -1  -9  -4    0.06    0.59
  -1  -9  -4   -0.28    0.52
  -1  -9  -4   -0.14    0.61
   1   9   4    0.40    0.52
   1   9   4   -0.43    0.41
   1   9   4   -0.40    0.45
  -2  -9  -4    1.11    0.75
  -2  -9  -4    0.10    0.60
  -2  -9  -4    0.20    0.83
  -2  -9  -4    0.07    0.73
   2   9   4    0.61    0.56
   2   9   4    1.05    0.51
   2   9   4    0.28    0.57
  -3  -9  -4    0.03    0.86
  -3  -9  -4   -1.79    0.92
  -3  -9  -4    1.29    0.75
   3   9   4   -0.15    0.54
   3   9   4    0.16    0.50
   4 -10  -4   -0.18    0.54
   4 -10  -4   -0.23    0.55
   4 -10  -4   -1.48    0.54
  -4  10   4    0.98    0.78
  -4  10   4    0.81    0.67
  -4  10   4    1.08    0.79
   3 -10  -4    3.33    0.72
   3 -10  -4    2.91    0.75
   3 -10  -4    1.83    0.56
  -3  10   4    2.45    0.77
  -3  10   4    2.32    0.70
  -3  10   4    3.74    0.80
   2 -10  -4    0.06    0.59
   2 -10  -4    0.92    0.46
   2 -10  -4   -0.39    0.62
  -2  10   4    0.13    0.56
  -2  10   4    1.29    0.62
  -2  10   4    0.39    0.56
   1 -10  -4    0.02    0.62
   1 -10  -4    0.26    0.48
   1 -10  -4   -0.36    0.57
  -1  10   4    0.49    0.55
  -1  10   4    0.44    0.52
  -1  10   4    0.09    0.53
   0 -10  -4    0.67    0.65
   0 -10  -4   -0.64    0.54
   0 -10  -4   -1.02    0.60
   0 -10  -4    0.05    0.54
   0  10   4    0.08    0.51
   0  10   4    0.18    0.53
   0  10   4   -0.20    0.58
  -1 -10  -4    1.69    0.81
  -1 -10  -4    2.70    0.83
  -1 -10  -4    2.33    0.70
  -1 -10  -4    2.66    0.83
   1  10   4    3.18    0.78
   1  10   4    2.29    0.70
   1  10   4    1.63    0.64
  -2 -10  -4    2.06    0.86
  -2 -10  -4    1.27    0.77
  -2 -10  -4   -0.93    0.80
  -2 -10  -4    1.42    0.64
   2  10   4    0.00    0.51
   2  10   4    1.27    0.58
   2  10   4    0.35    0.64
   3 -11  -4   -0.26    0.43
   3 -11  -4    0.00    0.64
   3 -11  -4    0.57    0.67
  -3  11   4    1.59    0.79
  -3  11   4   -0.63    0.66
  -3  11   4    0.29    0.64
   2 -11  -4    3.93    0.85
   2 -11  -4    4.67    0.89
  -2  11   4    2.74    0.74
  -2  11   4    5.00    0.90
  -2  11   4    5.24    0.87
   1 -11  -4   -0.29    0.70
   1 -11  -4    0.99    0.70
  -1  11   4    1.41    0.67
  -1  11   4    0.66    0.57
  -1  11   4    0.53    0.63
   0 -11  -4    0.11    0.82
   0 -11  -4    1.33    0.81
   0 -11  -4    0.40    0.87
   0 -11  -4   -0.34    0.63
   0  11   4    0.37    0.66
   0  11   4    0.28    0.58
   0  11   4    0.20    0.63
  -1 -11  -4   12.15    1.36
  -1 -11  -4    9.22    1.18
  -1 -11  -4   10.71    1.04
  -1 -11  -4    8.30    1.08
   1  11   4    9.77    0.99
   1  11   4   11.04    1.15
   1  11   4   10.90    1.13
   2 -12  -4    4.95    0.96
   2 -12  -4    4.43    0.96
  -2  12   4    3.94    0.87
  -2  12   4    4.28    0.84
  -2  12   4    2.95    0.83
   1 -12  -4    0.58    0.84
   1 -12  -4    0.63    0.78
  -1  12   4    0.77    0.82
  -1  12   4    1.34    0.69
  -1  12   4    0.07    0.57
   0 -12  -4    5.60    1.22
   0 -12  -4    1.93    0.98
   0  12   4    5.04    0.84
   0  12   4    2.31    0.84
   0  12   4    3.91    0.88
   1  12  -5    0.42    0.66
   1  12  -5    0.88    0.74
  -1 -12   5    0.64    0.77
  -1 -12   5    0.05    0.74
  -1 -12   5   -0.71    0.83
   0  12  -5    1.39    0.79
   0  12  -5    1.05    0.63
   0 -12   5    0.13    0.66
   0 -12   5    1.50    0.84
   0 -12   5    0.77    0.97
  -1  12  -5    2.44    0.75
  -1  12  -5    3.02    0.73
  -1  12  -5    3.05    0.82
   1 -12   5    3.56    0.90
   1 -12   5    2.43    0.99
   1 -12   5    2.04    0.77
  -2  12  -5    3.17    0.75
  -2  12  -5    1.95    0.74
  -2  12  -5    2.98    0.88
   2 -12   5    1.74    0.83
   2  11  -5    0.27    0.68
   2  11  -5   -1.16    0.64
  -2 -11   5   -0.12    0.70
  -2 -11   5   -0.37    0.82
  -2 -11   5    0.67    0.95
   1  11  -5    1.69    0.70
   1  11  -5    1.13    0.63
  -1 -11   5    1.72    0.72
  -1 -11   5    1.50    0.94
  -1 -11   5    2.02    0.88
   0  11  -5    0.07    0.66
   0  11  -5    0.73    0.56
   0 -11   5    1.02    0.71
   0 -11   5   -0.15    0.63
   0 -11   5    0.84    0.71
   0 -11   5    0.30    0.78
  -1  11  -5    1.51    0.65
  -1  11  -5    0.26    0.58
  -1  11  -5    0.40    0.61
   1 -11   5    1.38    0.73
   1 -11   5    1.35    0.67
   1 -11   5    1.26    0.69
  -2  11  -5    3.22    0.79
  -2  11  -5    2.73    0.62
  -2  11  -5    4.76    0.86
   2 -11   5    2.94    0.87
  -3  11  -5    3.91    0.75
  -3  11  -5    3.94    0.86
  -3  11  -5    4.31    0.86
   3 -11   5    3.52    0.93
   3  10  -5    0.51    0.74
   3  10  -5    0.19    0.64
  -3 -10   5    1.28    0.79
  -3 -10   5    0.74    0.91
  -3 -10   5    0.56    0.80
   2  10  -5    4.36    0.84
   2  10  -5    3.48    0.73
  -2 -10   5    5.63    1.05
  -2 -10   5    2.92    0.83
  -2 -10   5    3.83    0.79
   1  10  -5    0.88    0.62
   1  10  -5    1.90    0.55
  -1 -10   5    0.76    0.62
  -1 -10   5    1.20    0.72
  -1 -10   5    2.35    0.80
  -1 -10   5    1.17    0.70
   0  10  -5    0.89    0.52
   0  10  -5    0.41    0.60
   0  10  -5    0.53    0.50
   0 -10   5    0.12    0.46
   0 -10   5   -0.48    0.57
   0 -10   5    1.01    0.64
   0 -10   5    1.41    0.70
   0 -10   5   -0.01    0.65
  -1  10  -5    1.28    0.51
  -1  10  -5    0.77    0.51
  -1  10  -5    1.06    0.57
   1 -10   5   -0.11    0.57
   1 -10   5    0.55    0.57
   1 -10   5    1.05    0.59
  -2  10  -5    0.61    0.54
  -2  10  -5    0.03    0.53
  -2  10  -5    0.00    0.44
   2 -10   5   -0.15    0.55
   2 -10   5   -1.09    0.52
  -3  10  -5   10.61    1.05
  -3  10  -5   10.62    0.94
  -3  10  -5    9.51    0.96
  -3  10  -5   10.10    1.14
   3 -10   5    9.71    1.07
   3 -10   5    8.28    1.05
  -4  10  -5    2.65    0.78
  -4  10  -5    2.88    0.76
  -4  10  -5    1.74    0.80
   4 -10   5    2.59    0.83
   4   9  -5    1.81    0.87
   4   9  -5    1.93    0.76
  -4  -9   5    2.03    0.96
  -4  -9   5    2.18    0.87
  -4  -9   5    0.77    0.81
   3   9  -5    1.25    0.62
  -3  -9   5    0.86    0.75
  -3  -9   5    0.82    0.78
  -3  -9   5    2.59    0.80
   2   9  -5    0.71    0.50
  -2  -9   5    0.77    0.59
  -2  -9   5   -0.10    0.58
  -2  -9   5   -0.12    0.68
  -2  -9   5    0.10    0.64
   1   9  -5    0.37    0.44
   1   9  -5    0.78    0.38
   1   9  -5   -0.05    0.47
  -1  -9   5   -0.06    0.51
  -1  -9   5    0.78    0.67
  -1  -9   5    0.62    0.55
  -1  -9   5    0.99    0.68
  -1  -9   5    0.38    0.59
   0   9  -5    1.90    0.51
   0   9  -5    2.22    0.52
   0   9  -5    2.26    0.57
   0   9  -5    2.28    0.39
   0  -9   5    1.82    0.62
   0  -9   5    1.54    0.48
   0  -9   5    2.51    0.67
   0  -9   5    1.71    0.62
  -1   9  -5    6.08    0.75
  -1   9  -5    4.27    0.57
  -1   9  -5    5.44    0.69
   1  -9   5    5.59    0.78
   1  -9   5    4.12    0.56
   1  -9   5    3.93    0.69
  -2   9  -5    0.47    0.53
  -2   9  -5    0.67    0.54
  -2   9  -5    1.05    0.45
  -2   9  -5    1.18    0.55
   2  -9   5    1.71    0.47
   2  -9   5    0.39    0.55
   2  -9   5    1.10    0.44
   2  -9   5    1.17    0.60
  -3   9  -5    3.60    0.74
  -3   9  -5    3.95    0.67
  -3   9  -5    4.66    0.76
   3  -9   5    3.37    0.74
   3  -9   5    3.84    0.77
   3  -9   5    4.49    0.69
   3  -9   5    4.41    0.62
  -4   9  -5    2.99    0.80
  -4   9  -5    1.21    0.62
  -4   9  -5    2.46    0.74
   4  -9   5    1.39    0.73
   4  -9   5    4.08    0.76
   4  -9   5    2.05    0.77
   4   8  -5    3.04    0.83
   4   8  -5    2.21    0.86
  -4  -8   5    2.72    0.77
  -4  -8   5    2.89    0.80
  -4  -8   5    1.59    0.90
   3   8  -5    1.22    0.63
   3   8  -5    1.32    0.59
  -3  -8   5    0.08    0.74
  -3  -8   5    0.72    0.61
  -3  -8   5    1.20    0.70
  -3  -8   5    0.00    0.62
   2   8  -5    4.29    0.67
   2   8  -5    4.92    0.68
  -2  -8   5    5.03    0.76
  -2  -8   5    6.03    0.82
  -2  -8   5    4.14    0.80
  -2  -8   5    5.33    0.74
   1   8  -5    1.00    0.45
   1   8  -5    0.45    0.34
   1   8  -5    0.55    0.35
   1   8  -5   -0.47    0.35
  -1  -8   5    0.54    0.53
  -1  -8   5    0.23    0.45
  -1  -8   5    0.72    0.49
  -1  -8   5    0.45    0.51
  -1  -8   5    0.78    0.55
   0   8  -5   12.65    0.72
   0   8  -5   13.66    0.84
   0   8  -5   12.76    0.53
   0   8  -5   14.42    0.77
   0   8  -5   12.37    0.59
   0  -8   5   11.48    0.79
   0  -8   5   12.70    0.91
   0  -8   5   12.27    0.71
   0  -8   5   10.95    0.83
  -1   8  -5   22.56    1.00
  -1   8  -5   24.99    1.04
  -1   8  -5   25.63    0.97
   1  -8   5   23.72    1.10
   1  -8   5   23.70    0.87
   1  -8   5   23.09    1.13
   1  -8   5   22.99    0.92
  -2   8  -5   10.35    0.84
  -2   8  -5    9.61    0.84
  -2   8  -5   10.80    0.78
  -2   8  -5   10.71    0.75
   2  -8   5   10.62    0.68
   2  -8   5   10.31    0.71
   2  -8   5    9.55    0.88
   2  -8   5   10.30    0.88
   2  -8   5    9.93    0.77
  -3   8  -5    0.65    0.54
  -3   8  -5    0.42    0.44
  -3   8  -5    0.03    0.50
   3  -8   5    0.61    0.54
   3  -8   5   -0.12    0.45
   3  -8   5    0.35    0.44
   3  -8   5    0.89    0.56
   3  -8   5   -0.47    0.38
  -4   8  -5    3.52    0.78
  -4   8  -5    1.95    0.60
  -4   8  -5    1.08    0.64
   4  -8   5    0.37    0.62
   4  -8   5    3.19    0.69
   4  -8   5    2.19    0.69
  -5   8  -5    0.34    0.70
  -5   8  -5    0.37    0.70
   5  -8   5    1.09    0.86
   5   7  -5    0.15    0.84
   5   7  -5    0.14    0.79
  -5  -7   5    1.67    0.90
   4   7  -5   -0.41    0.59
   4   7  -5    0.01    0.71
   4   7  -5   -0.09    0.60
  -4  -7   5   -0.05    0.60
  -4  -7   5    0.22    0.70
  -4  -7   5    0.26    0.73
  -4  -7   5   -0.38    0.58
   3   7  -5    3.13    0.67
   3   7  -5    3.59    0.66
   3   7  -5    4.15    0.69
  -3  -7   5    3.66    0.79
  -3  -7   5    4.52    0.73
  -3  -7   5    4.96    0.77
  -3  -7   5    6.51    0.91
   2   7  -5    1.84    0.48
   2   7  -5    1.07    0.46
   2   7  -5    1.37    0.47
  -2  -7   5    0.41    0.51
  -2  -7   5    1.49    0.56
  -2  -7   5    1.27    0.61
  -2  -7   5    1.15    0.50
   1   7  -5    1.68    0.24
   1   7  -5    1.09    0.32
   1   7  -5    1.12    0.35
   1   7  -5    1.03    0.44
   1   7  -5    1.92    0.45
  -1  -7   5    2.41    0.55
  -1  -7   5    1.96    0.49
  -1  -7   5    1.22    0.50
  -1  -7   5    0.89    0.42
  -1  -7   5    1.25    0.55
   0   7  -5    2.63    0.43
   0   7  -5    2.82    0.34
   0   7  -5    3.12    0.32
   0   7  -5    3.18    0.29
   0   7  -5    3.11    0.46
   0   7  -5    2.61    0.39
   0   7  -5    2.34    0.49
   0  -7   5    3.22    0.56
   0  -7   5    3.48    0.53
   0  -7   5    2.64    0.46
   0  -7   5    3.26    0.32
  -1   7  -5   65.94    1.67
  -1   7  -5   68.04    1.65
  -1   7  -5   65.34    1.68
  -1   7  -5   66.36    1.53
   1  -7   5   68.77    1.58
   1  -7   5   63.79    1.77
   1  -7   5   71.07    1.78
   1  -7   5   63.32    1.40
   1  -7   5   68.09    1.35
   1  -7   5   69.02    1.54
  -2   7  -5   12.81    0.82
  -2   7  -5   10.22    0.69
  -2   7  -5   10.58    0.63
  -2   7  -5   11.74    0.90
   2  -7   5   12.29    0.88
   2  -7   5   10.30    0.80
   2  -7   5   11.10    0.73
   2  -7   5   10.18    0.65
   2  -7   5   10.43    0.52
   2  -7   5   12.10    0.74
  -3   7  -5   35.14    1.36
  -3   7  -5   37.13    1.36
  -3   7  -5   34.67    1.22
   3  -7   5   34.31    1.17
   3  -7   5   33.32    1.38
   3  -7   5   36.42    1.40
   3  -7   5   37.81    1.33
  -4   7  -5    7.42    0.92
  -4   7  -5    8.04    0.88
   4  -7   5    9.20    0.82
   4  -7   5    8.54    1.01
   4  -7   5    9.27    0.99
  -5   7  -5    6.86    1.05
  -5   7  -5    6.60    0.90
   5  -7   5    5.90    1.07
   5   6  -5    7.24    1.06
   5   6  -5    9.37    1.16
  -5  -6   5    7.12    1.05
   4   6  -5    0.16    0.55
   4   6  -5    0.04    0.57
   4   6  -5   -0.96    0.52
  -4  -6   5   -0.32    0.57
  -4  -6   5    0.02    0.56
  -4  -6   5   -0.68    0.46
  -4  -6   5   -0.08    0.67
   3   6  -5   30.77    1.35
   3   6  -5   30.18    1.26
   3   6  -5   28.19    1.23
   3   6  -5   28.51    1.25
  -3  -6   5   31.07    1.22
  -3  -6   5   30.13    1.33
  -3  -6   5   27.64    1.36
  -3  -6   5   29.00    1.28
   2   6  -5   -0.08    0.40
   2   6  -5   -0.11    0.38
   2   6  -5   -0.18    0.37
   2   6  -5    0.25    0.16
   2   6  -5   -0.10    0.38
  -2  -6   5    1.00    0.45
  -2  -6   5    0.97    0.48
  -2  -6   5    0.29    0.40
  -2  -6   5   -0.03    0.46
  -2  -6   5    0.23    0.38
   1   6  -5    3.43    0.36
   1   6  -5    3.34    0.41
   1   6  -5    3.74    0.46
   1   6  -5    3.37    0.28
   1   6  -5    3.64    0.26
   1   6  -5    3.02    0.44
  -1  -6   5    3.91    0.52
  -1  -6   5    2.60    0.49
  -1  -6   5    3.83    0.52
   0   6  -5   22.11    0.79
   0   6  -5   20.54    0.73
   0   6  -5   22.01    0.64
   0   6  -5   20.92    0.64
   0   6  -5   21.63    0.72
   0   6  -5   20.78    0.63
   0   6  -5   21.24    0.86
   0  -6   5   21.42    0.89
   0  -6   5   21.78    0.68
   0  -6   5   20.93    0.73
   0  -6   5   21.89    0.93
   0  -6   5   21.52    0.83
  -1   6  -5    5.71    0.54
  -1   6  -5    5.71    0.53
  -1   6  -5    5.70    0.45
  -1   6  -5    5.07    0.50
  -1   6  -5    5.44    0.45
  -1   6  -5    5.51    0.31
  -1   6  -5    5.24    0.18
   1  -6   5    4.44    0.35
   1  -6   5    4.96    0.57
   1  -6   5    5.98    0.41
   1  -6   5    6.13    0.61
   1  -6   5    5.52    0.47
   1  -6   5    4.80    0.46
  -2   6  -5    0.80    0.40
  -2   6  -5    0.78    0.40
  -2   6  -5    1.37    0.38
  -2   6  -5    0.77    0.35
   2  -6   5    0.63    0.39
   2  -6   5    0.95    0.38
   2  -6   5    1.01    0.22
   2  -6   5    0.97    0.45
   2  -6   5    1.24    0.44
   2  -6   5    1.94    0.39
  -3   6  -5    1.54    0.52
  -3   6  -5    1.65    0.43
  -3   6  -5    1.59    0.49
   3  -6   5    2.40    0.57
   3  -6   5    1.15    0.45
   3  -6   5    2.10    0.57
   3  -6   5    1.29    0.27
  -4   6  -5    2.24    0.63
  -4   6  -5    2.88    0.63
   4  -6   5    1.90    0.74
   4  -6   5    2.43    0.74
  -5   6  -5    0.71    0.69
  -5   6  -5    1.90    0.73
   5  -6   5    1.49    0.87
   5  -6   5    1.71    0.80
   5   5  -5    0.91    0.72
   5   5  -5   -0.38    0.69
  -5  -5   5   -0.08    0.59
   4   5  -5    0.30    0.53
   4   5  -5    0.98    0.59
   4   5  -5    0.51    0.45
   4   5  -5    0.65    0.56
   4   5  -5    1.21    0.56
  -4  -5   5    0.16    0.57
  -4  -5   5    0.20    0.53
  -4  -5   5   -0.61    0.51
  -4  -5   5    0.09    0.44
   3   5  -5   -0.16    0.25
   3   5  -5    0.31    0.41
   3   5  -5    0.20    0.45
   3   5  -5    0.48    0.51
   3   5  -5    0.36    0.45
  -3  -5   5   -0.01    0.49
  -3  -5   5    0.08    0.38
  -3  -5   5    0.91    0.46
  -3  -5   5    0.35    0.49
   2   5  -5    0.74    0.36
   2   5  -5    0.53    0.36
   2   5  -5    0.74    0.18
   2   5  -5    0.70    0.39
   2   5  -5    0.13    0.37
   2   5  -5    1.20    0.16
   2   5  -5    0.82    0.23
  -2  -5   5    1.03    0.39
  -2  -5   5    0.51    0.43
  -2  -5   5    0.85    0.41
  -2  -5   5    0.73    0.42
  -2  -5   5    0.60    0.43
   1   5  -5    3.28    0.42
   1   5  -5    2.27    0.39
   1   5  -5    3.42    0.42
   1   5  -5    3.13    0.20
   1   5  -5    3.27    0.30
   1   5  -5    3.03    0.27
   1   5  -5    3.35    0.41
  -1  -5   5    3.15    0.47
  -1  -5   5    2.61    0.44
  -1  -5   5    4.18    0.48
   0   5  -5   11.42    0.45
   0   5  -5   10.47    0.52
   0   5  -5   10.59    0.56
   0   5  -5   10.32    0.50
   0   5  -5   10.76    0.47
   0   5  -5   10.50    0.48
   0  -5   5   10.15    0.50
   0  -5   5    9.89    0.63
   0  -5   5   10.80    0.64
   0  -5   5   11.05    0.34
   0  -5   5   11.39    0.49
   0  -5   5   10.27    0.57
  -1   5  -5    1.92    0.17
  -1   5  -5    2.39    0.38
  -1   5  -5    2.27    0.31
  -1   5  -5    2.22    0.34
  -1   5  -5    2.05    0.22
  -1   5  -5    1.88    0.31
  -1   5  -5    3.01    0.42
   1  -5   5    1.94    0.22
   1  -5   5    2.33    0.41
   1  -5   5    2.40    0.42
   1  -5   5    2.27    0.36
   1  -5   5    2.61    0.32
   1  -5   5    1.95    0.35
  -2   5  -5   46.97    1.30
  -2   5  -5   47.72    1.31
  -2   5  -5   47.54    1.17
   2  -5   5   48.21    0.92
   2  -5   5   46.96    1.24
   2  -5   5   47.73    1.35
   2  -5   5   48.09    1.28
  -3   5  -5   69.18    1.54
  -3   5  -5   67.47    1.78
  -3   5  -5   68.29    1.74
   3  -5   5   66.91    1.85
   3  -5   5   66.99    1.21
   3  -5   5   65.16    1.76
   3  -5   5   66.93    1.32
  -4   5  -5   32.69    1.35
  -4   5  -5   30.74    1.33
   4  -5   5   35.67    1.51
   4  -5   5   32.19    1.49
  -5   5  -5    0.45    0.63
  -5   5  -5   -0.46    0.54
   5  -5   5   -0.62    0.66
   5  -5   5    0.47    0.71
  -6   5  -5   13.13    1.32
  -6   5  -5    8.29    0.96
   6  -5   5   10.68    1.35
   6   4  -5    1.18    0.90
   6   4  -5    2.10    0.83
  -6  -4   5    2.82    0.87
   5   4  -5    0.49    0.62
   5   4  -5    0.02    0.60
   5   4  -5    0.37    0.65
   5   4  -5    0.30    0.53
  -5  -4   5   -0.12    0.54
  -5  -4   5   -0.80    0.48
   4   4  -5    5.71    0.77
   4   4  -5    6.13    0.64
   4   4  -5    4.64    0.69
   4   4  -5    7.72    0.82
   4   4  -5    6.09    0.79
  -4  -4   5    4.83    0.74
  -4  -4   5    6.67    0.61
  -4  -4   5    6.01    0.76
  -4  -4   5    6.17    0.78
   3   4  -5    4.59    0.58
   3   4  -5    4.49    0.46
   3   4  -5    4.91    0.60
   3   4  -5    4.90    0.63
   3   4  -5    4.84    0.61
  -3  -4   5    5.50    0.65
  -3  -4   5    6.01    0.54
  -3  -4   5    4.87    0.66
  -3  -4   5    5.02    0.63
   2   4  -5    1.92    0.44
   2   4  -5    1.52    0.39
   2   4  -5    1.75    0.37
   2   4  -5    1.88    0.29
   2   4  -5    1.98    0.44
  -2  -4   5    1.70    0.41
  -2  -4   5    1.47    0.41
  -2  -4   5    1.93    0.37
  -2  -4   5    1.20    0.39
  -2  -4   5    0.99    0.43
   1   4  -5    1.85    0.30
   1   4  -5    2.24    0.35
   1   4  -5    2.18    0.33
   1   4  -5    1.79    0.33
   1   4  -5    1.53    0.24
   1   4  -5    2.23    0.24
  -1  -4   5    1.78    0.35
  -1  -4   5    2.08    0.38
  -1  -4   5    2.00    0.40
  -1  -4   5    2.46    0.39
   0   4  -5   19.13    0.58
   0   4  -5   17.76    0.54
   0   4  -5   17.69    0.59
   0   4  -5   18.23    0.62
   0   4  -5   18.14    0.63
   0   4  -5   18.30    0.59
   0   4  -5   18.20    0.56
   0   4  -5   18.67    0.79
   0  -4   5   17.47    0.48
   0  -4   5   18.88    0.74
   0  -4   5   18.47    0.72
   0  -4   5   18.24    0.62
   0  -4   5   18.44    0.72
   0  -4   5   18.68    0.56
  -1   4  -5    0.74    0.17
  -1   4  -5    0.66    0.31
  -1   4  -5    1.23    0.24
  -1   4  -5    0.92    0.24
  -1   4  -5    0.76    0.29
  -1   4  -5    1.04    0.27
   1  -4   5    0.93    0.33
   1  -4   5    1.13    0.28
   1  -4   5    1.01    0.34
   1  -4   5    1.01    0.34
   1  -4   5    0.53    0.29
   1  -4   5    0.60    0.13
  -2   4  -5    0.06    0.10
  -2   4  -5   -0.45    0.28
  -2   4  -5    0.35    0.32
  -2   4  -5    0.44    0.26
   2  -4   5   -0.18    0.13
   2  -4   5    0.13    0.31
   2  -4   5   -0.26    0.32
   2  -4   5    0.02    0.11
  -3   4  -5   -0.19    0.35
  -3   4  -5    0.44    0.40
  -3   4  -5    0.27    0.28
   3  -4   5    0.20    0.16
   3  -4   5    0.04    0.42
   3  -4   5    1.36    0.51
   3  -4   5    0.18    0.21
  -4   4  -5   10.73    0.91
  -4   4  -5   10.67    0.83
   4  -4   5   13.21    0.65
   4  -4   5   12.97    1.02
   4  -4   5   10.30    0.96
  -5   4  -5    0.74    0.60
  -5   4  -5    0.34    0.62
   5  -4   5   -0.34    0.67
   5  -4   5    0.56    0.68
  -6   4  -5    0.52    0.63
  -6   4  -5    0.69    0.79
   6  -4   5    1.08    0.94
   6   3  -5   -0.10    0.78
   6   3  -5   -0.09    0.76
   6   3  -5    0.83    0.73
  -6  -3   5   -0.43    0.66
   5   3  -5    3.94    0.65
   5   3  -5    4.95    0.84
   5   3  -5    5.20    0.81
   5   3  -5    4.53    0.77
   5   3  -5    5.81    0.87
   5   3  -5    5.86    0.80
  -5  -3   5    5.18    0.74
  -5  -3   5    6.33    0.85
   4   3  -5   17.98    1.01
   4   3  -5   17.81    1.08
   4   3  -5   18.08    0.97
   4   3  -5   19.03    1.08
   4   3  -5   20.03    1.06
  -4  -3   5   20.12    1.06
  -4  -3   5   20.23    0.80
  -4  -3   5   20.81    1.15
   3   3  -5    0.18    0.37
   3   3  -5    0.33    0.40
   3   3  -5    0.39    0.43
   3   3  -5    0.60    0.41
  -3  -3   5    0.17    0.46
  -3  -3   5    0.73    0.29
  -3  -3   5    0.07    0.38
  -3  -3   5    0.39    0.40
   2   3  -5   14.79    0.69
   2   3  -5   14.50    0.71
   2   3  -5   15.91    0.72
   2   3  -5   13.58    0.69
  -2  -3   5   15.42    0.70
  -2  -3   5   15.20    0.60
  -2  -3   5   14.29    0.76
  -2  -3   5   16.91    0.74
  -2  -3   5   15.85    0.73
   1   3  -5   20.90    0.68
   1   3  -5   19.63    0.69
   1   3  -5   20.31    0.63
   1   3  -5   21.67    0.72
   1   3  -5   21.26    0.70
   1   3  -5   21.28    0.73
   1   3  -5   20.98    0.50
  -1  -3   5   21.93    0.76
  -1  -3   5   22.01    0.76
  -1  -3   5   21.12    0.70
  -1  -3   5   20.30    0.74
   0   3  -5   10.44    0.45
   0   3  -5    9.85    0.41
   0   3  -5    9.78    0.50
   0   3  -5   10.68    0.42
   0   3  -5    9.72    0.34
   0   3  -5   10.13    0.44
   0   3  -5    9.91    0.38
   0   3  -5    9.90    0.45
   0  -3   5    9.73    0.53
   0  -3   5   10.03    0.41
   0  -3   5   10.60    0.51
   0  -3   5    9.90    0.38
   0  -3   5   10.65    0.52
   0  -3   5   10.28    0.52
  -1   3  -5    2.43    0.27
  -1   3  -5    2.55    0.32
  -1   3  -5    2.32    0.24
  -1   3  -5    2.24    0.33
  -1   3  -5    2.45    0.22
  -1   3  -5    2.43    0.35
   1  -3   5    1.91    0.36
   1  -3   5    1.88    0.36
   1  -3   5    2.36    0.15
   1  -3   5    1.91    0.35
   1  -3   5    2.69    0.35
  -2   3  -5   83.12    1.76
  -2   3  -5   80.34    1.50
  -2   3  -5   83.47    1.72
   2  -3   5   81.48    1.23
   2  -3   5   82.17    1.79
   2  -3   5   80.99    1.35
   2  -3   5   79.60    1.82
  -3   3  -5  100.61    2.22
  -3   3  -5  103.82    2.15
  -3   3  -5  100.52    1.84
   3  -3   5  101.55    2.27
   3  -3   5  100.74    1.85
   3  -3   5  101.53    2.32
   3  -3   5  100.18    1.70
  -4   3  -5    0.30    0.45
  -4   3  -5    0.89    0.47
  -4   3  -5    1.19    0.50
   4  -3   5    1.26    0.62
   4  -3   5    0.40    0.41
   4  -3   5    1.21    0.37
   4  -3   5   -0.02    0.53
  -5   3  -5    2.03    0.59
  -5   3  -5    2.57    0.70
  -5   3  -5    1.90    0.56
   5  -3   5    1.69    0.74
   5  -3   5    2.83    0.62
   5  -3   5    1.14    0.72
  -6   3  -5   -0.05    0.56
  -6   3  -5   -0.01    0.72
   6  -3   5   -0.09    0.85
   6   2  -5    0.39    0.68
   6   2  -5    0.28    0.57
   6   2  -5    1.40    0.78
   6   2  -5    0.57    0.70
  -6  -2   5    0.70    0.60
  -6  -2   5    0.57    0.66
   5   2  -5    2.96    0.68
   5   2  -5    2.34    0.63
   5   2  -5    2.01    0.69
   5   2  -5    1.47    0.63
   5   2  -5    1.52    0.66
   5   2  -5    1.53    0.65
  -5  -2   5    2.31    0.63
  -5  -2   5    1.94    0.55
   4   2  -5    2.42    0.55
   4   2  -5    2.47    0.55
   4   2  -5    1.99    0.54
   4   2  -5    2.75    0.56
   4   2  -5    4.10    0.65
  -4  -2   5    3.35    0.36
  -4  -2   5    4.06    0.58
   3   2  -5   20.28    0.92
   3   2  -5   21.90    0.89
   3   2  -5   20.73    0.88
   3   2  -5   21.25    0.93
  -3  -2   5   21.80    0.65
  -3  -2   5   19.65    0.90
  -3  -2   5   22.76    0.90
  -3  -2   5   20.10    0.87
   2   2  -5    0.29    0.30
   2   2  -5    0.42    0.30
   2   2  -5    0.12    0.29
   2   2  -5    0.03    0.25
   2   2  -5    0.45    0.30
  -2  -2   5    0.35    0.30
  -2  -2   5    0.07    0.31
  -2  -2   5    0.45    0.32
  -2  -2   5    0.61    0.21
   1   2  -5    1.30    0.27
   1   2  -5    0.98    0.28
   1   2  -5    0.84    0.26
   1   2  -5    0.73    0.24
   1   2  -5    1.05    0.25
  -1  -2   5    1.10    0.31
  -1  -2   5    0.73    0.25
  -1  -2   5    0.48    0.28
  -1  -2   5    0.67    0.26
   0   2  -5   55.81    1.23
   0   2  -5   57.88    1.00
   0   2  -5   57.96    1.02
   0   2  -5   58.61    0.91
   0   2  -5   58.72    1.13
   0   2  -5   56.87    1.02
   0   2  -5   57.55    1.19
   0  -2   5   58.85    1.21
   0  -2   5   56.50    1.19
   0  -2   5   58.24    1.00
   0  -2   5   56.86    1.15
   0  -2   5   56.10    1.10
   0  -2   5   54.72    1.18
  -1   2  -5   20.44    0.64
  -1   2  -5   21.15    0.51
  -1   2  -5   22.40    0.74
  -1   2  -5   21.74    0.75
   1  -2   5   20.82    0.75
   1  -2   5   20.43    0.70
  -2   2  -5   15.90    0.64
  -2   2  -5   16.41    0.47
  -2   2  -5   16.19    0.70
  -2   2  -5   16.77    0.48
   2  -2   5   16.35    0.77
   2  -2   5   17.11    0.76
   2  -2   5   17.38    0.49
   2  -2   5   16.25    0.37
  -3   2  -5    2.09    0.30
  -3   2  -5    2.59    0.42
  -3   2  -5    2.16    0.47
  -3   2  -5    2.30    0.40
   3  -2   5    2.28    0.27
   3  -2   5    1.93    0.50
   3  -2   5    1.86    0.47
   3  -2   5    2.47    0.41
   3  -2   5    2.39    0.33
  -4   2  -5    0.68    0.42
  -4   2  -5    0.31    0.47
  -4   2  -5    0.32    0.39
   4  -2   5    1.04    0.47
   4  -2   5    1.13    0.56
   4  -2   5    1.20    0.33
   4  -2   5    0.15    0.52
   4  -2   5    0.63    0.39
  -5   2  -5    0.20    0.46
  -5   2  -5   -0.24    0.56
  -5   2  -5   -0.12    0.42
   5  -2   5    0.27    0.58
   5  -2   5    0.91    0.66
   5  -2   5   -0.15    0.67
  -6   2  -5   -1.46    0.73
   6  -2   5   -0.88    0.82
   6  -2   5   -0.08    0.68
   6   1  -5    0.74    0.79
   6   1  -5    0.74    0.65
   6   1  -5   -0.80    0.65
   6   1  -5   -0.27    0.68
  -6  -1   5   -0.31    0.59
  -6  -1   5   -0.38    0.59
   5   1  -5    4.38    0.76
   5   1  -5    4.59    0.71
   5   1  -5    6.08    0.87
   5   1  -5    3.32    0.69
   5   1  -5    3.35    0.69
   5   1  -5    3.58    0.71
  -5  -1   5    4.20    0.63
  -5  -1   5    3.73    0.63
  -5  -1   5    5.32    0.75
   4   1  -5    4.82    0.66
   4   1  -5    6.71    0.71
   4   1  -5    6.23    0.66
   4   1  -5    5.44    0.69
  -4  -1   5    6.52    0.62
  -4  -1   5    4.91    0.61
  -4  -1   5    5.92    0.39
   3   1  -5    0.92    0.40
   3   1  -5    1.10    0.36
   3   1  -5    1.08    0.36
   3   1  -5    1.43    0.40
  -3  -1   5    1.67    0.35
  -3  -1   5    1.34    0.19
  -3  -1   5    1.50    0.40
   2   1  -5    4.91    0.45
   2   1  -5    4.47    0.16
   2   1  -5    5.25    0.45
   2   1  -5    3.98    0.42
   2   1  -5    5.66    0.45
   2   1  -5    4.22    0.44
  -2  -1   5    3.94    0.39
  -2  -1   5    5.27    0.46
  -2  -1   5    4.35    0.44
  -2  -1   5    4.68    0.45
  -2  -1   5    4.53    0.25
   1   1  -5    4.06    0.33
   1   1  -5    3.44    0.33
   1   1  -5    4.33    0.33
   1   1  -5    4.78    0.35
   1   1  -5    4.21    0.34
   1   1  -5    4.36    0.36
  -1  -1   5    4.35    0.24
  -1  -1   5    3.95    0.35
  -1  -1   5    4.97    0.36
  -1  -1   5    4.94    0.39
  -1  -1   5    4.11    0.36
   0   1  -5   22.02    0.69
   0   1  -5   21.89    0.49
   0   1  -5   21.60    0.51
   0   1  -5   21.99    0.48
   0   1  -5   22.22    0.66
   0  -1   5   21.92    0.64
   0  -1   5   20.55    0.56
   0  -1   5   21.71    0.63
   0  -1   5   21.66    0.60
   0  -1   5   21.00    0.67
  -1   1  -5   27.80    0.84
  -1   1  -5   26.99    0.78
  -1   1  -5   27.01    0.55
  -1   1  -5   25.55    0.80
  -1   1  -5   27.27    0.49
  -1   1  -5   27.43    0.50
   1  -1   5   26.14    0.82
   1  -1   5   27.84    0.82
  -2   1  -5   31.63    0.75
  -2   1  -5   30.63    0.86
  -2   1  -5   29.96    0.97
  -2   1  -5   29.90    0.95
   2  -1   5   31.52    0.76
   2  -1   5   30.91    0.99
   2  -1   5   31.22    0.66
   2  -1   5   29.95    0.90
   2  -1   5   32.16    1.01
  -3   1  -5   27.40    1.01
  -3   1  -5   29.10    0.89
  -3   1  -5   28.62    0.84
  -3   1  -5   29.30    0.86
  -3   1  -5   27.20    1.08
   3  -1   5   29.01    0.99
   3  -1   5   28.40    1.10
   3  -1   5   26.95    1.08
   3  -1   5   28.37    0.88
   3  -1   5   27.67    0.76
  -4   1  -5   10.04    0.82
  -4   1  -5    9.57    0.66
  -4   1  -5   10.01    0.70
  -4   1  -5    9.16    0.76
   4  -1   5    8.59    0.85
   4  -1   5    8.39    0.69
   4  -1   5   10.59    0.64
   4  -1   5    8.02    0.76
   4  -1   5    9.09    0.87
  -5   1  -5   -0.26    0.46
  -5   1  -5    0.67    0.63
  -5   1  -5   -0.59    0.55
   5  -1   5    0.66    0.64
   5  -1   5   -0.11    0.71
   5  -1   5   -1.12    0.57
   5  -1   5   -0.14    0.48
  -6   1  -5   -0.39    0.65
   6  -1   5   -0.10    0.66
   6  -1   5   -1.54    0.73
   6   0  -5    0.50    0.73
   6   0  -5   -0.20    0.70
   6   0  -5    1.17    0.80
   6   0  -5   -0.84    0.65
  -6   0   5    0.31    0.56
  -6   0   5    1.03    0.70
   5   0  -5   13.94    1.08
   5   0  -5   12.86    1.03
   5   0  -5   12.72    0.89
   5   0  -5   13.31    1.05
   5   0  -5   15.07    1.09
   5   0  -5   14.03    1.10
  -5   0   5   15.48    0.92
  -5   0   5   13.80    0.82
  -5   0   5   14.82    1.08
   4   0  -5   23.76    1.02
   4   0  -5   23.07    1.09
   4   0  -5   23.90    1.07
   4   0  -5   23.80    1.01
  -4   0   5   23.07    0.88
  -4   0   5   23.93    0.96
  -4   0   5   22.88    1.09
   3   0  -5    0.14    0.30
   3   0  -5    0.48    0.34
   3   0  -5   -0.35    0.31
   3   0  -5    0.18    0.30
  -3   0   5    0.71    0.30
  -3   0   5    0.30    0.34
  -3   0   5    0.12    0.26
   2   0  -5   44.03    0.89
   2   0  -5   42.60    1.11
   2   0  -5   45.03    1.01
   2   0  -5   42.27    1.05
   2   0  -5   42.92    1.10
   2   0  -5   41.64    1.07
  -2   0   5   44.22    0.96
  -2   0   5   43.42    1.05
  -2   0   5   43.01    1.08
  -2   0   5   43.75    0.90
  -2   0   5   45.74    1.14
   1   0  -5   93.46    1.64
   1   0  -5   85.77    1.62
   1   0  -5   85.85    1.60
   1   0  -5   90.99    1.37
   1   0  -5   87.92    1.60
   1   0  -5   86.95    1.45
  -1   0   5   87.43    1.63
  -1   0   5   89.55    1.59
  -1   0   5   87.03    1.45
  -1   0   5   87.68    1.57
  -1   0   5   90.54    1.37
  -1   0   5   89.32    1.39
  -1   0   5   88.80    1.51
   0   0  -5    2.10    0.34
   0   0  -5    2.85    0.33
   0   0  -5    2.86    0.32
   0   0   5    2.73    0.19
   0   0   5    2.81    0.34
   0   0   5    2.42    0.30
   0   0   5    2.02    0.31
   0   0   5    2.53    0.23
  -1   0  -5  280.52    4.44
  -1   0  -5  280.29    4.49
  -1   0  -5  280.54    4.28
  -1   0  -5  279.34    4.50
  -1   0  -5  286.46    4.48
   1   0   5  278.17    4.48
   1   0   5  280.01    4.47
  -2   0  -5   36.68    1.10
  -2   0  -5   34.49    0.93
  -2   0  -5   35.67    0.89
  -2   0  -5   34.79    1.05
   2   0   5   35.91    0.63
   2   0   5   35.51    1.04
   2   0   5   34.41    0.81
   2   0   5   36.29    1.07
   2   0   5   34.79    1.04
  -3   0  -5    7.44    0.48
  -3   0  -5    7.08    0.49
  -3   0  -5    7.46    0.65
  -3   0  -5    6.19    0.66
   3   0   5    7.08    0.48
   3   0   5    6.28    0.65
   3   0   5    7.01    0.65
   3   0   5    6.95    0.55
   3   0   5    6.15    0.61
  -4   0  -5    5.33    0.50
  -4   0  -5    5.72    0.73
  -4   0  -5    6.50    0.76
   4   0   5    5.34    0.73
   4   0   5    4.58    0.66
   4   0   5    5.88    0.66
   4   0   5    4.41    0.69
   4   0   5    5.44    0.54
  -5   0  -5    1.77    0.53
  -5   0  -5    2.53    0.69
  -5   0  -5    1.51    0.61
   5   0   5    2.42    0.76
   5   0   5    3.41    0.82
   5   0   5    1.97    0.60
   5   0   5    0.98    0.71
   5   0   5    2.16    0.51
  -6   0  -5   -0.26    0.68
  -6   0  -5    0.94    0.78
   6   0   5    0.95    0.78
   6   0   5    0.27    0.81
   6  -1  -5    0.29    0.75
   6  -1  -5    0.81    0.80
   6  -1  -5    0.63    0.76
   6  -1  -5    0.01    0.60
   6  -1  -5    0.38    0.55
  -6   1   5   -0.05    0.64
  -6   1   5    0.96    0.71
   5  -1  -5   11.01    1.04
   5  -1  -5   11.12    0.81
   5  -1  -5   12.66    1.05
   5  -1  -5   13.80    1.02
   5  -1  -5   11.23    0.97
  -5   1   5   13.14    0.89
  -5   1   5   14.04    1.09
   4  -1  -5    2.56    0.55
   4  -1  -5    2.60    0.54
   4  -1  -5    3.28    0.56
   4  -1  -5    2.90    0.48
  -4   1   5    3.20    0.60
  -4   1   5    2.27    0.45
  -4   1   5    3.13    0.34
  -4   1   5    3.16    0.38
   3  -1  -5    2.13    0.16
   3  -1  -5    2.22    0.44
   3  -1  -5    2.82    0.23
   3  -1  -5    2.04    0.35
   3  -1  -5    2.64    0.41
   3  -1  -5    1.99    0.40
  -3   1   5    2.59    0.29
  -3   1   5    2.09    0.43
  -3   1   5    1.67    0.34
   2  -1  -5   67.27    1.27
   2  -1  -5   68.59    1.45
   2  -1  -5   67.80    1.39
   2  -1  -5   68.03    1.32
   2  -1  -5   68.04    1.50
  -2   1   5   68.81    1.50
  -2   1   5   67.82    1.51
  -2   1   5   68.69    1.40
  -2   1   5   69.35    1.31
   1  -1  -5    0.12    0.24
   1  -1  -5    0.47    0.25
   1  -1  -5   -0.15    0.10
   1  -1  -5    0.13    0.14
   1  -1  -5    0.01    0.25
  -1   1   5    0.08    0.21
  -1   1   5    0.13    0.15
  -1   1   5   -0.39    0.19
  -1   1   5   -0.10    0.18
  -1   1   5    0.03    0.20
   0  -1  -5   14.29    0.54
   0  -1  -5   14.64    0.60
   0  -1  -5   14.83    0.55
   0  -1  -5   13.88    0.56
   0   1   5   14.39    0.43
   0   1   5   14.24    0.34
   0   1   5   13.62    0.53
   0   1   5   14.18    0.33
   0   1   5   13.95    0.57
  -1  -1  -5   13.11    0.58
  -1  -1  -5   12.84    0.62
  -1  -1  -5   14.12    0.65
  -1  -1  -5   13.59    0.63
   1   1   5   13.48    0.30
   1   1   5   12.39    0.56
   1   1   5   12.61    0.59
   1   1   5   13.36    0.30
   1   1   5   13.12    0.52
  -2  -1  -5   78.24    1.66
  -2  -1  -5   73.70    1.73
  -2  -1  -5   75.40    1.72
  -2  -1  -5   78.00    1.59
  -2  -1  -5   75.75    1.58
   2   1   5   76.74    1.71
   2   1   5   80.79    1.73
   2   1   5   78.32    1.67
  -3  -1  -5   23.20    1.05
  -3  -1  -5   24.58    0.66
  -3  -1  -5   23.32    0.83
  -3  -1  -5   24.84    1.08
   3   1   5   24.08    0.98
   3   1   5   22.06    1.00
   3   1   5   23.70    0.80
   3   1   5   24.62    1.02
   3   1   5   22.85    0.93
  -4  -1  -5   53.09    1.70
  -4  -1  -5   55.07    1.67
   4   1   5   49.29    1.62
   4   1   5   51.26    1.68
   4   1   5   50.90    1.43
   4   1   5   51.76    1.69
   4   1   5   51.35    1.58
  -5  -1  -5    3.06    0.57
  -5  -1  -5    3.26    0.79
  -5  -1  -5    3.24    0.74
   5   1   5    3.11    0.73
   5   1   5    5.10    0.67
   5   1   5    2.97    0.77
   5   1   5    3.91    0.89
   5   1   5    3.16    0.79
  -6  -1  -5    1.88    0.87
   6   1   5    2.23    0.90
   6   1   5    2.76    0.98
   6  -2  -5   12.71    1.11
   6  -2  -5   12.91    1.29
   6  -2  -5   11.19    1.15
   6  -2  -5   10.29    1.04
  -6   2   5   11.88    1.17
  -6   2   5   14.94    1.10
   5  -2  -5   11.78    0.83
   5  -2  -5   10.79    0.96
   5  -2  -5   11.45    0.93
   5  -2  -5   10.71    1.00
  -5   2   5   11.86    1.00
  -5   2   5    9.10    0.83
   4  -2  -5    0.79    0.41
   4  -2  -5    0.87    0.37
   4  -2  -5    0.75    0.45
   4  -2  -5    0.69    0.45
  -4   2   5    0.58    0.22
  -4   2   5    0.09    0.42
  -4   2   5    0.56    0.32
  -4   2   5    0.27    0.41
   3  -2  -5   27.07    0.84
   3  -2  -5   27.42    0.99
   3  -2  -5   25.67    0.67
   3  -2  -5   26.84    0.92
   3  -2  -5   26.35    0.90
  -3   2   5   25.72    0.91
  -3   2   5   26.55    0.88
  -3   2   5   26.65    0.99
  -3   2   5   26.68    0.79
  -3   2   5   27.10    0.57
   2  -2  -5    0.16    0.15
   2  -2  -5    0.11    0.27
   2  -2  -5   -0.13    0.28
   2  -2  -5   -0.46    0.19
   2  -2  -5    0.03    0.22
  -2   2   5    0.19    0.22
  -2   2   5    0.03    0.27
  -2   2   5    0.25    0.30
   1  -2  -5    0.26    0.11
   1  -2  -5   -0.08    0.16
   1  -2  -5    0.42    0.26
  -1   2   5    0.04    0.23
  -1   2   5    0.45    0.15
  -1   2   5   -0.36    0.24
  -1   2   5    0.45    0.27
   0  -2  -5   10.13    0.33
   0  -2  -5    9.49    0.51
   0  -2  -5    9.38    0.56
   0  -2  -5   10.43    0.46
   0  -2  -5    9.38    0.48
   0   2   5    9.85    0.40
   0   2   5    9.59    0.37
   0   2   5    9.78    0.32
   0   2   5    9.57    0.50
   0   2   5   10.15    0.46
   0   2   5   10.31    0.46
  -1  -2  -5    0.97    0.32
  -1  -2  -5    1.21    0.25
  -1  -2  -5    0.83    0.35
  -1  -2  -5    1.98    0.39
   1   2   5    1.05    0.18
   1   2   5    1.07    0.34
   1   2   5    0.66    0.26
   1   2   5    0.95    0.28
  -2  -2  -5    0.64    0.33
  -2  -2  -5    0.43    0.36
  -2  -2  -5    0.46    0.39
  -2  -2  -5    0.60    0.26
   2   2   5    0.88    0.32
   2   2   5    0.36    0.35
   2   2   5    0.11    0.36
  -3  -2  -5    5.64    0.69
  -3  -2  -5    4.83    0.67
  -3  -2  -5    6.21    0.55
   3   2   5    5.01    0.63
   3   2   5    4.02    0.50
   3   2   5    5.12    0.61
   3   2   5    5.31    0.57
  -4  -2  -5    0.82    0.52
  -4  -2  -5    0.76    0.62
   4   2   5    0.28    0.44
   4   2   5    0.47    0.49
   4   2   5    0.45    0.59
   4   2   5    0.36    0.54
  -5  -2  -5    0.79    0.71
  -5  -2  -5   -0.41    0.53
   5   2   5   -0.62    0.56
   5   2   5   -0.45    0.60
   5   2   5    0.04    0.76
   5   2   5    0.02    0.54
   6  -3  -5   -0.06    0.70
   6  -3  -5    3.17    0.92
   6  -3  -5    1.02    0.60
   6  -3  -5    0.71    0.67
  -6   3   5    2.33    0.80
  -6   3   5    1.32    0.74
   5  -3  -5    1.53    0.44
   5  -3  -5    0.71    0.52
   5  -3  -5    1.59    0.70
   5  -3  -5    3.09    0.70
   5  -3  -5    2.19    0.59
  -5   3   5    1.16    0.65
  -5   3   5    1.72    0.46
  -5   3   5    1.47    0.56
   4  -3  -5    1.21    0.45
   4  -3  -5    0.25    0.31
   4  -3  -5    0.62    0.38
   4  -3  -5    0.37    0.44
  -4   3   5    0.09    0.37
  -4   3   5    0.61    0.48
  -4   3   5    0.53    0.35
   3  -3  -5   18.61    0.86
   3  -3  -5   18.61    0.71
   3  -3  -5   18.59    0.74
   3  -3  -5   19.80    0.66
   3  -3  -5   18.44    0.85
  -3   3   5   19.13    0.83
  -3   3   5   16.43    0.84
  -3   3   5   18.98    0.75
  -3   3   5   19.15    0.80
   2  -3  -5   30.26    0.82
   2  -3  -5   33.93    0.78
   2  -3  -5   32.65    0.89
   2  -3  -5   33.03    0.99
  -2   3   5   31.85    0.96
  -2   3   5   31.46    0.98
  -2   3   5   31.63    0.88
  -2   3   5   31.71    0.93
   1  -3  -5    2.86    0.26
   1  -3  -5    2.49    0.31
   1  -3  -5    2.25    0.36
   1  -3  -5    2.45    0.21
  -1   3   5    2.71    0.35
  -1   3   5    2.00    0.35
  -1   3   5    1.94    0.31
  -1   3   5    2.30    0.15
  -1   3   5    2.34    0.36
   0  -3  -5    2.06    0.36
   0  -3  -5    2.43    0.24
   0  -3  -5    1.79    0.28
   0  -3  -5    1.96    0.38
   0  -3  -5    1.78    0.34
   0   3   5    1.62    0.30
   0   3   5    1.62    0.30
   0   3   5    1.73    0.26
   0   3   5    1.76    0.23
   0   3   5    2.16    0.23
  -1  -3  -5    6.51    0.47
  -1  -3  -5    7.61    0.61
  -1  -3  -5    6.06    0.55
  -1  -3  -5    6.83    0.44
  -1  -3  -5    7.21    0.58
   1   3   5    7.38    0.52
   1   3   5    6.80    0.46
   1   3   5    6.94    0.37
   1   3   5    7.59    0.44
  -2  -3  -5   45.88    1.26
  -2  -3  -5   44.45    1.34
  -2  -3  -5   46.67    1.14
  -2  -3  -5   45.89    1.40
   2   3   5   46.17    1.26
   2   3   5   46.23    0.98
   2   3   5   47.19    1.16
   2   3   5   43.21    1.32
  -3  -3  -5  106.86    2.50
  -3  -3  -5  111.99    2.62
  -3  -3  -5  111.74    2.30
   3   3   5  113.87    2.34
   3   3   5  110.32    2.55
   3   3   5  113.05    2.48
  -4  -3  -5   47.87    1.79
  -4  -3  -5   46.71    1.75
   4   3   5   47.94    1.55
   4   3   5   44.22    1.66
   4   3   5   45.90    1.72
   4   3   5   46.16    1.48
  -5  -3  -5    6.53    0.91
  -5  -3  -5    5.79    1.08
   5   3   5    5.14    0.93
   5   3   5    6.54    1.01
   6  -4  -5    0.81    0.65
   6  -4  -5    0.81    0.66
   6  -4  -5    0.06    0.80
  -6   4   5    0.43    0.67
  -6   4   5    0.45    0.68
   5  -4  -5    1.97    0.72
   5  -4  -5    0.34    0.54
   5  -4  -5    1.49    0.55
   5  -4  -5    2.19    0.58
  -5   4   5    1.31    0.50
  -5   4   5    1.19    0.64
  -5   4   5    1.30    0.57
   4  -4  -5    0.34    0.49
   4  -4  -5   -0.09    0.29
   4  -4  -5    0.71    0.41
   4  -4  -5   -0.06    0.37
   4  -4  -5    0.17    0.42
  -4   4   5   -0.17    0.39
  -4   4   5    0.03    0.47
  -4   4   5   -0.94    0.43
   3  -4  -5   21.40    0.94
   3  -4  -5   21.65    0.72
   3  -4  -5   21.84    0.80
   3  -4  -5   21.20    0.79
   3  -4  -5   20.49    0.87
  -3   4   5   21.48    0.87
  -3   4   5   22.25    0.93
  -3   4   5   22.77    0.85
  -3   4   5   20.50    0.96
   2  -4  -5    0.05    0.09
   2  -4  -5    0.00    0.24
   2  -4  -5    0.25    0.32
   2  -4  -5   -0.12    0.21
   2  -4  -5   -0.54    0.26
  -2   4   5   -0.27    0.30
  -2   4   5   -0.21    0.29
  -2   4   5   -0.20    0.31
  -2   4   5    0.02    0.33
  -2   4   5    0.08    0.33
   1  -4  -5    0.64    0.27
   1  -4  -5    1.02    0.36
   1  -4  -5    0.97    0.22
   1  -4  -5    1.00    0.25
  -1   4   5    0.40    0.29
  -1   4   5    0.49    0.30
  -1   4   5    0.80    0.31
  -1   4   5    0.62    0.28
   0  -4  -5    5.27    0.39
   0  -4  -5    4.95    0.47
   0  -4  -5    4.94    0.19
   0  -4  -5    4.84    0.36
   0  -4  -5    4.34    0.50
   0  -4  -5    4.89    0.52
   0   4   5    4.49    0.35
   0   4   5    5.15    0.40
   0   4   5    4.78    0.36
   0   4   5    5.40    0.46
  -1  -4  -5   15.75    0.84
  -1  -4  -5   15.10    0.54
  -1  -4  -5   14.17    0.78
  -1  -4  -5   14.77    0.75
  -1  -4  -5   14.86    0.65
   1   4   5   15.24    0.66
   1   4   5   15.26    0.64
   1   4   5   14.52    0.54
   1   4   5   14.76    0.57
  -2  -4  -5    0.90    0.44
  -2  -4  -5    0.87    0.50
  -2  -4  -5    0.98    0.47
  -2  -4  -5    0.81    0.42
  -2  -4  -5    0.72    0.26
   2   4   5    0.91    0.39
   2   4   5    0.30    0.25
   2   4   5    0.36    0.40
   2   4   5    0.96    0.28
  -3  -4  -5    0.72    0.46
  -3  -4  -5    0.90    0.55
  -3  -4  -5    0.41    0.55
   3   4   5    0.61    0.49
   3   4   5    1.26    0.56
   3   4   5    0.74    0.35
  -4  -4  -5    0.12    0.67
  -4  -4  -5    0.68    0.68
   4   4   5   -0.15    0.42
   4   4   5    0.39    0.60
   4   4   5    1.41    0.64
  -5  -4  -5    6.09    1.16
  -5  -4  -5    4.54    0.91
   5   4   5    2.59    0.87
   5   4   5    4.17    0.90
   6  -5  -5    2.67    0.95
   6  -5  -5    2.65    0.67
  -6   5   5    2.62    0.84
  -6   5   5    3.20    0.87
   5  -5  -5    1.70    0.73
   5  -5  -5    1.58    0.61
   5  -5  -5    1.04    0.56
  -5   5   5    0.66    0.55
  -5   5   5    0.34    0.56
  -5   5   5    1.90    0.73
   4  -5  -5    7.22    0.74
   4  -5  -5    5.94    0.58
   4  -5  -5    8.19    0.78
   4  -5  -5    7.29    0.58
  -4   5   5    5.53    0.74
  -4   5   5    8.42    0.81
  -4   5   5    6.42    0.69
  -4   5   5    5.09    0.73
   3  -5  -5   52.24    1.39
   3  -5  -5   52.96    1.19
   3  -5  -5   55.07    1.51
   3  -5  -5   53.57    1.53
   3  -5  -5   55.07    1.28
  -3   5   5   54.48    1.44
  -3   5   5   52.13    1.53
  -3   5   5   54.23    1.59
  -3   5   5   51.13    1.46
  -3   5   5   57.25    1.53
   2  -5  -5    2.81    0.47
   2  -5  -5    4.16    0.38
   2  -5  -5    3.43    0.40
  -2   5   5    3.93    0.47
  -2   5   5    4.60    0.53
  -2   5   5    3.76    0.49
  -2   5   5    3.73    0.51
  -2   5   5    3.48    0.47
   1  -5  -5    0.10    0.16
   1  -5  -5   -0.33    0.19
   1  -5  -5   -0.07    0.35
   1  -5  -5    0.38    0.33
   1  -5  -5    0.23    0.24
  -1   5   5    0.26    0.32
  -1   5   5    0.02    0.28
  -1   5   5   -0.17    0.26
  -1   5   5   -0.31    0.27
   0  -5  -5   25.00    1.01
   0  -5  -5   26.79    0.99
   0  -5  -5   25.77    0.93
   0  -5  -5   26.61    0.80
   0  -5  -5   27.72    0.59
   0  -5  -5   26.86    0.72
   0   5   5   26.13    0.89
   0   5   5   27.68    0.79
   0   5   5   26.93    0.87
   0   5   5   25.38    0.91
  -1  -5  -5   22.37    0.81
  -1  -5  -5   20.55    0.60
  -1  -5  -5   20.30    0.99
  -1  -5  -5   20.94    0.96
  -1  -5  -5   19.20    0.92
   1   5   5   21.29    0.75
   1   5   5   18.99    0.75
  -2  -5  -5   65.75    1.84
  -2  -5  -5   65.62    1.37
  -2  -5  -5   66.45    1.88
  -2  -5  -5   65.82    1.77
  -2  -5  -5   67.35    1.73
   2   5   5   65.89    1.78
   2   5   5   64.19    1.45
   2   5   5   64.01    1.57
   2   5   5   66.56    1.38
  -3  -5  -5   47.18    1.54
  -3  -5  -5   47.99    1.82
  -3  -5  -5   45.56    1.73
   3   5   5   48.57    1.38
   3   5   5   47.68    1.23
   3   5   5   47.54    1.67
   3   5   5   45.38    1.46
  -4  -5  -5   -1.50    0.62
  -4  -5  -5   -0.20    0.67
   4   5   5   -0.25    0.56
   4   5   5    1.10    0.71
  -5  -5  -5    1.89    0.82
  -5  -5  -5    3.97    1.15
   5   5   5    2.05    0.84
   5   5   5    2.72    0.92
   6  -6  -5    2.35    0.72
   6  -6  -5    2.64    0.97
  -6   6   5    2.27    0.78
  -6   6   5    2.99    0.98
   5  -6  -5    3.00    0.65
   5  -6  -5    2.32    0.78
   5  -6  -5    2.61    0.63
  -5   6   5    0.82    0.55
  -5   6   5    0.98    0.71
  -5   6   5    3.19    0.80
   4  -6  -5    0.94    0.39
   4  -6  -5    0.32    0.47
   4  -6  -5    0.42    0.44
  -4   6   5   -0.02    0.52
  -4   6   5    0.36    0.59
  -4   6   5    0.79    0.59
  -4   6   5    0.88    0.55
   3  -6  -5   -0.38    0.37
   3  -6  -5   -0.10    0.27
   3  -6  -5    0.82    0.34
   3  -6  -5   -0.07    0.32
   3  -6  -5   -0.38    0.34
   3  -6  -5    0.12    0.22
  -3   6   5   -0.02    0.45
  -3   6   5    0.35    0.48
  -3   6   5    0.06    0.43
  -3   6   5    0.14    0.42
   2  -6  -5    4.18    0.56
   2  -6  -5    4.77    0.31
   2  -6  -5    4.17    0.44
   2  -6  -5    3.38    0.47
  -2   6   5    3.74    0.55
  -2   6   5    4.11    0.59
  -2   6   5    3.41    0.50
  -2   6   5    4.27    0.53
   1  -6  -5    3.95    0.56
   1  -6  -5    4.97    0.44
   1  -6  -5    5.44    0.56
   1  -6  -5    5.46    0.38
   1  -6  -5    5.60    0.49
  -1   6   5    6.46    0.55
  -1   6   5    5.97    0.61
  -1   6   5    4.67    0.51
  -1   6   5    5.08    0.58
   0  -6  -5   -0.51    0.36
   0  -6  -5   -0.23    0.18
   0  -6  -5    0.50    0.31
   0  -6  -5    0.02    0.38
   0  -6  -5    0.24    0.18
   0  -6  -5    0.86    0.46
   0   6   5    0.13    0.33
   0   6   5    0.13    0.34
   0   6   5    0.21    0.34
  -1  -6  -5    0.00    0.43
  -1  -6  -5   -0.02    0.15
  -1  -6  -5    0.43    0.39
  -1  -6  -5    0.04    0.22
  -1  -6  -5   -0.01    0.48
  -1  -6  -5    0.36    0.47
   1   6   5   -0.52    0.28
   1   6   5    0.08    0.29
  -2  -6  -5   -0.11    0.51
  -2  -6  -5    0.46    0.43
  -2  -6  -5    0.71    0.54
  -2  -6  -5    0.54    0.52
   2   6   5    1.09    0.39
   2   6   5    0.91    0.51
   2   6   5    0.92    0.38
  -3  -6  -5    1.38    0.73
  -3  -6  -5    0.67    0.54
  -3  -6  -5    0.61    0.64
   3   6   5    1.90    0.55
   3   6   5    1.35    0.43
   3   6   5    2.35    0.67
  -4  -6  -5    2.38    0.93
  -4  -6  -5    2.28    0.90
   4   6   5    1.56    0.83
   5  -7  -5    3.05    0.68
   5  -7  -5    4.85    0.91
   5  -7  -5    5.04    0.80
  -5   7   5    5.09    0.86
  -5   7   5    5.09    0.91
   4  -7  -5    2.04    0.70
   4  -7  -5    2.00    0.54
   4  -7  -5    3.39    0.56
   4  -7  -5    2.33    0.57
   4  -7  -5    3.59    0.54
   4  -7  -5    3.00    0.51
  -4   7   5    2.82    0.71
  -4   7   5    3.04    0.77
  -4   7   5    2.78    0.67
   3  -7  -5    0.70    0.35
   3  -7  -5    0.16    0.38
   3  -7  -5    0.41    0.47
   3  -7  -5   -1.07    0.38
  -3   7   5    0.28    0.45
  -3   7   5    0.19    0.49
  -3   7   5    0.19    0.51
  -3   7   5   -0.13    0.44
  -3   7   5    0.80    0.56
   2  -7  -5   -0.21    0.47
   2  -7  -5    0.13    0.30
   2  -7  -5    0.81    0.34
   2  -7  -5   -0.16    0.34
  -2   7   5    0.21    0.41
  -2   7   5    0.00    0.40
  -2   7   5    0.92    0.44
  -2   7   5    0.10    0.41
   1  -7  -5    5.47    0.42
   1  -7  -5    4.01    0.59
   1  -7  -5    5.01    0.50
   1  -7  -5    5.17    0.67
   1  -7  -5    6.00    0.55
  -1   7   5    5.20    0.64
  -1   7   5    4.94    0.60
  -1   7   5    4.93    0.59
  -1   7   5    5.02    0.55
   0  -7  -5    2.32    0.54
   0  -7  -5    2.82    0.30
   0  -7  -5    2.82    0.57
   0  -7  -5    2.34    0.46
   0  -7  -5    1.81    0.53
   0   7   5    1.96    0.47
   0   7   5    1.86    0.46
   0   7   5    1.73    0.47
  -1  -7  -5   20.02    1.12
  -1  -7  -5   20.20    1.08
  -1  -7  -5   18.39    1.10
  -1  -7  -5   17.24    0.89
  -1  -7  -5   19.67    0.74
   1   7   5   18.85    0.86
   1   7   5   20.15    0.95
   1   7   5   20.01    0.96
  -2  -7  -5    0.55    0.58
  -2  -7  -5   -0.63    0.53
  -2  -7  -5    1.02    0.54
  -2  -7  -5    1.15    0.64
   2   7   5    0.46    0.41
   2   7   5    0.58    0.34
  -3  -7  -5   13.43    1.14
  -3  -7  -5   10.80    1.16
  -3  -7  -5   14.26    1.15
  -3  -7  -5   14.37    1.38
   3   7   5   14.18    0.84
   3   7   5   14.57    1.20
  -4  -7  -5    0.86    0.94
  -4  -7  -5   -0.39    0.83
   4   7   5    0.90    0.76
   5  -8  -5    3.72    0.72
   5  -8  -5    2.96    0.62
  -5   8   5    0.53    0.76
  -5   8   5    3.78    0.89
   4  -8  -5    0.35    0.49
   4  -8  -5    1.81    0.76
   4  -8  -5    0.68    0.54
   4  -8  -5    0.50    0.54
   4  -8  -5    0.37    0.54
  -4   8   5   -0.18    0.60
  -4   8   5    1.54    0.67
  -4   8   5    1.27    0.69
   3  -8  -5    2.09    0.48
   3  -8  -5    1.33    0.46
   3  -8  -5    0.90    0.53
   3  -8  -5    0.57    0.43
   3  -8  -5    0.82    0.51
  -3   8   5    1.43    0.57
  -3   8   5    0.72    0.54
  -3   8   5    1.67    0.57
  -3   8   5    3.21    0.72
   2  -8  -5    0.40    0.49
   2  -8  -5    1.29    0.59
   2  -8  -5   -0.11    0.34
   2  -8  -5    1.25    0.37
  -2   8   5    0.33    0.45
  -2   8   5    1.22    0.50
  -2   8   5    1.15    0.52
  -2   8   5    0.18    0.51
   1  -8  -5    3.78    0.41
   1  -8  -5    3.53    0.67
   1  -8  -5    3.31    0.52
   1  -8  -5    4.57    0.53
   1  -8  -5    3.98    0.73
  -1   8   5    3.22    0.56
  -1   8   5    3.09    0.57
  -1   8   5    4.08    0.61
   0  -8  -5    5.27    0.78
   0  -8  -5    4.05    0.67
   0  -8  -5    3.69    0.70
   0  -8  -5    4.44    0.60
   0   8   5    4.28    0.62
   0   8   5    4.19    0.62
   0   8   5    3.69    0.60
  -1  -8  -5    7.31    0.94
  -1  -8  -5    7.77    0.89
  -1  -8  -5    6.45    0.83
  -1  -8  -5    7.63    0.78
   1   8   5    6.42    0.73
   1   8   5    7.07    0.76
   1   8   5    7.00    0.71
  -2  -8  -5   21.50    1.20
  -2  -8  -5   19.65    1.30
  -2  -8  -5   19.55    1.24
  -2  -8  -5   22.91    1.44
   2   8   5   21.22    1.05
  -3  -8  -5    2.08    0.98
  -3  -8  -5    2.19    1.01
  -3  -8  -5    3.42    0.75
  -3  -8  -5    3.29    0.84
   3   8   5    2.02    0.79
  -4  -8  -5    2.49    1.12
  -4  -8  -5    3.51    1.17
   4   8   5    2.98    0.99
   5  -9  -5   23.20    1.29
   5  -9  -5   22.72    1.56
  -5   9   5   22.16    1.54
  -5   9   5   28.40    1.87
   4  -9  -5    4.90    0.78
   4  -9  -5    4.42    0.70
   4  -9  -5    5.59    0.76
   4  -9  -5    6.19    0.81
  -4   9   5    5.78    0.94
  -4   9   5    4.42    0.88
   3  -9  -5    1.40    0.53
   3  -9  -5    0.16    0.58
   3  -9  -5   -0.19    0.54
   3  -9  -5    1.03    0.47
   3  -9  -5   -0.12    0.38
  -3   9   5    0.56    0.56
  -3   9   5    0.42    0.62
  -3   9   5    2.48    0.77
  -3   9   5    1.24    0.61
   2  -9  -5    6.99    0.82
   2  -9  -5    6.77    0.85
   2  -9  -5    8.84    0.73
  -2   9   5    9.58    0.91
  -2   9   5    8.70    0.91
  -2   9   5   10.78    0.96
   1  -9  -5    0.75    0.42
   1  -9  -5    0.09    0.45
   1  -9  -5   -0.38    0.53
   1  -9  -5   -0.75    0.50
  -1   9   5   -0.38    0.45
  -1   9   5    0.11    0.48
  -1   9   5   -0.45    0.44
   0  -9  -5    1.15    0.59
   0  -9  -5    0.44    0.48
   0  -9  -5    1.00    0.69
   0  -9  -5    0.58    0.66
   0   9   5    0.02    0.48
   0   9   5    1.17    0.51
   0   9   5    0.89    0.51
  -1  -9  -5    0.93    0.67
  -1  -9  -5    1.32    0.58
  -1  -9  -5    1.23    0.71
  -1  -9  -5    1.09    0.62
   1   9   5    0.36    0.48
   1   9   5    1.26    0.52
   1   9   5    0.78    0.53
  -2  -9  -5    0.16    0.64
  -2  -9  -5   -0.42    0.85
  -2  -9  -5   -0.36    0.48
  -2  -9  -5   -0.16    0.65
   2   9   5   -0.25    0.49
   2   9   5    0.20    0.56
   2   9   5   -0.06    0.53
  -3  -9  -5    1.37    0.96
  -3  -9  -5    1.97    0.81
  -3  -9  -5    2.46    1.00
   4 -10  -5   -2.17    0.46
   4 -10  -5    0.02    0.54
   4 -10  -5   -1.56    0.45
  -4  10   5   -0.18    0.70
  -4  10   5   -0.45    0.62
  -4  10   5    0.04    0.81
   3 -10  -5    0.19    0.50
   3 -10  -5   -1.00    0.50
   3 -10  -5    0.91    0.69
  -3  10   5    0.77    0.70
  -3  10   5   -0.42    0.69
  -3  10   5   -0.23    0.56
   2 -10  -5    1.35    0.63
   2 -10  -5    0.44    0.68
  -2  10   5    0.64    0.59
  -2  10   5   -0.05    0.55
  -2  10   5    1.46    0.68
   1 -10  -5   -0.04    0.68
   1 -10  -5    0.04    0.62
   1 -10  -5    0.14    0.52
  -1  10   5   -1.04    0.49
  -1  10   5   -0.28    0.47
  -1  10   5    0.23    0.53
   0 -10  -5    4.99    0.81
   0 -10  -5    3.97    0.70
   0 -10  -5    3.60    0.81
   0 -10  -5    3.46    0.88
   0  10   5    4.21    0.72
   0  10   5    3.22    0.68
   0  10   5    4.36    0.73
  -1 -10  -5    8.37    1.06
  -1 -10  -5    9.32    1.24
  -1 -10  -5    9.00    0.91
  -1 -10  -5    9.25    1.11
   1  10   5    8.55    0.95
   1  10   5    7.88    0.91
   1  10   5   10.39    0.95
  -2 -10  -5    3.36    0.94
  -2 -10  -5    4.02    0.79
  -2 -10  -5    3.37    0.99
  -2 -10  -5    3.05    0.99
   2  10   5    2.85    0.66
   2  10   5    4.28    0.77
   2  10   5    2.95    0.80
   3 -11  -5    2.73    0.88
   3 -11  -5    3.32    0.79
  -3  11   5    2.96    0.85
  -3  11   5    3.40    0.80
  -3  11   5    2.33    0.76
   2 -11  -5   11.78    1.22
   2 -11  -5   11.08    1.18
  -2  11   5   13.48    1.20
  -2  11   5   12.42    1.20
  -2  11   5   12.74    1.16
   1 -11  -5    1.02    0.86
   1 -11  -5    1.24    0.75
  -1  11   5    1.05    0.67
  -1  11   5    1.27    0.65
  -1  11   5    0.25    0.69
   0 -11  -5    0.33    0.66
   0 -11  -5    0.29    0.81
   0 -11  -5   -0.25    0.73
   0  11   5    0.72    0.63
   0  11   5   -0.32    0.58
   0  11   5   -0.05    0.54
  -1 -11  -5    9.36    1.27
  -1 -11  -5   10.46    1.25
  -1 -11  -5    7.64    1.19
   1  11   5   12.06    1.09
   1  11   5    8.77    1.02
   1  11   5    8.31    0.95
   1 -12  -5    1.62    0.83
   1 -12  -5    0.04    0.80
  -1  12   5   -0.46    0.64
  -1  12   5   -0.46    0.70
  -1  12   5   -0.41    0.66
   1  12  -6    0.19    0.67
   1  12  -6    0.68    0.67
  -1 -12   6   -0.77    0.75
  -1 -12   6    1.18    0.81
  -1 -12   6    0.77    0.92
   0  12  -6    1.67    0.77
   0  12  -6    0.62    0.63
   0 -12   6    0.09    0.92
   0 -12   6    1.37    0.77
   0 -12   6   -0.22    0.77
  -1  12  -6    1.68    0.66
  -1  12  -6    2.96    0.79
  -1  12  -6    1.51    0.75
   1 -12   6    1.07    0.76
   1 -12   6    1.74    0.92
   1 -12   6    2.24    0.79
  -2  12  -6   -0.72    0.55
  -2  12  -6   -0.91    0.67
  -2  12  -6   -0.25    0.73
   2 -12   6    0.15    0.83
   2  11  -6    2.63    0.81
   2  11  -6    1.97    0.74
  -2 -11   6    2.56    0.87
  -2 -11   6    1.97    0.93
  -2 -11   6    1.72    0.91
   1  11  -6    5.64    0.88
   1  11  -6    5.84    0.81
  -1 -11   6    6.20    0.95
  -1 -11   6    4.64    1.00
  -1 -11   6    5.72    0.98
   0  11  -6    2.39    0.64
   0  11  -6    2.45    0.72
   0  11  -6    1.75    0.56
   0 -11   6    3.42    0.91
   0 -11   6    2.18    0.71
   0 -11   6    1.82    0.79
  -1  11  -6    0.43    0.61
  -1  11  -6   -0.28    0.51
  -1  11  -6    0.42    0.61
   1 -11   6   -0.22    0.65
   1 -11   6   -1.35    0.56
  -2  11  -6    3.76    0.71
  -2  11  -6    3.85    0.77
  -2  11  -6    6.03    0.93
   2 -11   6    4.38    0.86
  -3  11  -6    4.92    0.97
  -3  11  -6    3.63    0.85
  -3  11  -6    4.94    0.88
   3 -11   6    1.59    0.79
   3  10  -6    4.06    0.77
  -3 -10   6    2.57    0.92
  -3 -10   6    5.02    1.06
  -3 -10   6    3.14    0.84
   2  10  -6    8.79    0.94
   2  10  -6    8.27    0.98
  -2 -10   6    8.39    1.10
  -2 -10   6    7.47    1.13
  -2 -10   6    9.97    1.04
   1  10  -6    5.97    0.73
   1  10  -6    5.04    0.81
  -1 -10   6    6.44    0.90
  -1 -10   6    6.06    0.79
  -1 -10   6    6.30    1.01
  -1 -10   6    5.17    0.98
  -1 -10   6    4.76    0.89
   0  10  -6    0.19    0.41
   0  10  -6   -0.15    0.39
   0  10  -6    0.06    0.52
   0 -10   6    0.64    0.64
   0 -10   6   -0.31    0.55
   0 -10   6    0.10    0.59
   0 -10   6    0.49    0.52
  -1  10  -6    2.83    0.66
  -1  10  -6    2.71    0.58
  -1  10  -6    2.14    0.63
   1 -10   6    2.54    0.71
   1 -10   6    1.27    0.63
   1 -10   6    1.79    0.54
  -2  10  -6    4.42    0.73
  -2  10  -6    4.92    0.68
  -2  10  -6    4.62    0.75
   2 -10   6    4.97    0.86
   2 -10   6    4.78    0.88
  -3  10  -6   -0.23    0.69
  -3  10  -6    0.28    0.62
  -3  10  -6   -0.23    0.53
   3 -10   6   -0.10    0.69
  -4  10  -6    1.59    0.72
  -4  10  -6    0.20    0.71
  -4  10  -6    0.40    0.64
   4 -10   6   -0.56    0.69
   4   9  -6    7.33    1.09
   4   9  -6    5.41    0.98
  -4  -9   6    8.08    1.15
  -4  -9   6    8.19    1.29
   3   9  -6    0.59    0.68
   3   9  -6    1.54    0.79
  -3  -9   6    1.10    0.69
  -3  -9   6    1.28    0.78
  -3  -9   6    1.14    0.77
   2   9  -6   19.70    1.08
  -2  -9   6   20.53    1.32
  -2  -9   6   21.85    1.34
  -2  -9   6   18.04    1.35
  -2  -9   6   18.59    1.39
   1   9  -6   16.11    1.02
   1   9  -6   15.29    0.94
   1   9  -6   16.31    0.82
  -1  -9   6   15.34    1.12
  -1  -9   6   14.04    1.02
  -1  -9   6   17.38    1.32
  -1  -9   6   14.31    1.07
  -1  -9   6   15.37    1.16
   0   9  -6    1.10    0.40
   0   9  -6    0.96    0.47
   0   9  -6    0.69    0.50
   0  -9   6    0.90    0.52
   0  -9   6    1.41    0.59
   0  -9   6    0.65    0.57
  -1   9  -6   15.53    0.96
  -1   9  -6   16.55    0.88
  -1   9  -6   16.28    0.97
   1  -9   6   15.82    1.08
   1  -9   6   15.90    0.91
   1  -9   6   16.22    1.05
  -2   9  -6    5.16    0.65
  -2   9  -6    6.03    0.81
  -2   9  -6    5.26    0.79
  -2   9  -6    6.47    0.76
   2  -9   6    6.48    0.68
   2  -9   6    5.46    0.80
   2  -9   6    5.91    0.86
   2  -9   6    5.09    0.63
  -3   9  -6    1.10    0.70
  -3   9  -6    2.72    0.67
  -3   9  -6    1.99    0.64
   3  -9   6    3.10    0.69
   3  -9   6    0.65    0.60
   3  -9   6    1.63    0.68
   3  -9   6    2.46    0.82
  -4   9  -6    2.81    0.79
  -4   9  -6    3.37    0.80
  -4   9  -6    3.23    0.67
   4  -9   6    3.64    0.73
   4  -9   6    2.96    0.83
   4  -9   6    3.43    0.90
   4   8  -6    3.92    0.85
   4   8  -6    5.76    0.97
  -4  -8   6    4.64    0.90
  -4  -8   6    3.20    0.97
   3   8  -6    4.17    0.72
   3   8  -6    4.42    0.77
  -3  -8   6    4.23    0.87
  -3  -8   6    4.62    0.80
  -3  -8   6    4.70    0.82
  -3  -8   6    2.49    0.76
   2   8  -6    1.29    0.58
   2   8  -6    1.80    0.48
   2   8  -6    0.28    0.51
  -2  -8   6    0.27    0.59
  -2  -8   6   -0.04    0.62
  -2  -8   6    0.82    0.59
  -2  -8   6    0.91    0.57
   1   8  -6    2.82    0.44
   1   8  -6    2.83    0.49
   1   8  -6    2.42    0.52
   1   8  -6    3.24    0.47
  -1  -8   6    3.06    0.73
  -1  -8   6    2.45    0.65
  -1  -8   6    3.27    0.63
  -1  -8   6    3.76    0.59
  -1  -8   6    2.29    0.67
   0   8  -6    5.43    0.59
   0   8  -6    4.82    0.39
   0   8  -6    4.27    0.52
   0   8  -6    3.30    0.56
   0  -8   6    5.58    0.72
   0  -8   6    3.82    0.57
   0  -8   6    4.28    0.39
   0  -8   6    4.65    0.70
  -1   8  -6    0.41    0.42
  -1   8  -6    1.08    0.41
  -1   8  -6    0.53    0.42
   1  -8   6    0.55    0.54
   1  -8   6    0.63    0.35
   1  -8   6    1.20    0.53
   1  -8   6    0.93    0.42
  -2   8  -6   13.34    0.78
  -2   8  -6   13.32    0.91
  -2   8  -6   15.05    0.92
  -2   8  -6   16.26    0.98
   2  -8   6   16.86    0.80
   2  -8   6   16.41    0.93
   2  -8   6   15.71    1.04
   2  -8   6   14.45    0.84
   2  -8   6   14.43    0.99
  -3   8  -6    2.93    0.68
  -3   8  -6    2.76    0.67
  -3   8  -6    3.19    0.61
   3  -8   6    2.83    0.66
   3  -8   6    3.42    0.71
   3  -8   6    3.48    0.72
   3  -8   6    4.84    0.65
   3  -8   6    3.58    0.58
  -4   8  -6    9.43    0.86
  -4   8  -6    8.19    0.96
  -4   8  -6    8.54    1.01
   4  -8   6    9.14    1.04
   4  -8   6   10.06    1.02
   4  -8   6    8.12    0.98
   4  -8   6    7.76    0.97
   4  -8   6    9.96    1.01
  -5   8  -6    1.20    0.77
  -5   8  -6    0.50    0.77
   5  -8   6   -0.05    0.73
   5   7  -6   14.34    1.40
   5   7  -6   10.87    1.26
  -5  -7   6   10.22    1.30
   4   7  -6    3.63    0.80
   4   7  -6    2.35    0.75
   4   7  -6    2.27    0.71
  -4  -7   6    3.21    0.74
  -4  -7   6    3.82    0.88
  -4  -7   6    3.36    0.83
   3   7  -6    5.36    0.78
   3   7  -6    6.44    0.78
   3   7  -6    5.26    0.75
   3   7  -6    6.81    0.81
  -3  -7   6    6.29    0.85
  -3  -7   6    7.16    0.91
  -3  -7   6    6.05    0.88
  -3  -7   6    6.64    0.81
   2   7  -6   59.35    1.69
   2   7  -6   59.91    1.65
   2   7  -6   57.24    1.67
  -2  -7   6   57.44    1.81
  -2  -7   6   57.09    1.87
  -2  -7   6   61.03    1.74
  -2  -7   6   58.77    1.74
  -2  -7   6   59.44    1.82
   1   7  -6    5.16    0.47
   1   7  -6    4.58    0.50
   1   7  -6    4.07    0.51
   1   7  -6    4.27    0.52
  -1  -7   6    4.80    0.60
  -1  -7   6    4.07    0.64
  -1  -7   6    4.19    0.63
   0   7  -6    3.50    0.34
   0   7  -6    3.61    0.35
   0   7  -6    3.05    0.46
   0   7  -6    3.89    0.42
   0   7  -6    3.93    0.52
   0   7  -6    3.69    0.44
   0  -7   6    3.58    0.37
   0  -7   6    3.05    0.47
   0  -7   6    3.12    0.57
   0  -7   6    3.40    0.56
  -1   7  -6   79.52    1.86
  -1   7  -6   77.73    1.85
  -1   7  -6   77.98    1.47
  -1   7  -6   79.22    1.69
  -1   7  -6   79.98    1.91
   1  -7   6   79.91    1.76
   1  -7   6   79.45    1.56
   1  -7   6   83.30    2.07
   1  -7   6   77.56    1.81
   1  -7   6   78.59    2.00
   1  -7   6   76.46    1.54
  -2   7  -6    8.63    0.62
  -2   7  -6    8.92    0.77
  -2   7  -6    8.71    0.76
  -2   7  -6    7.32    0.66
   2  -7   6    8.39    0.81
   2  -7   6    9.39    0.64
   2  -7   6    7.36    0.43
   2  -7   6    9.52    0.87
   2  -7   6    8.48    0.70
   2  -7   6    7.88    0.70
  -3   7  -6    7.35    0.69
  -3   7  -6    4.61    0.71
  -3   7  -6    5.27    0.70
   3  -7   6    6.86    0.76
   3  -7   6    6.67    0.82
   3  -7   6    5.11    0.73
   3  -7   6    6.36    0.79
   3  -7   6    5.86    0.63
  -4   7  -6    1.21    0.62
  -4   7  -6    1.84    0.64
   4  -7   6    1.32    0.68
   4  -7   6    1.66    0.59
   4  -7   6    2.20    0.66
  -5   7  -6    6.28    1.03
  -5   7  -6    5.86    0.96
   5  -7   6    7.11    0.91
   5  -7   6    5.01    1.04
   5   6  -6    2.52    0.90
   5   6  -6    4.73    0.97
  -5  -6   6    3.30    0.86
   4   6  -6    3.23    0.76
   4   6  -6    1.14    0.62
   4   6  -6    1.91    0.66
   4   6  -6    2.68    0.72
  -4  -6   6    1.85    0.76
  -4  -6   6    1.74    0.56
  -4  -6   6    2.09    0.72
  -4  -6   6    1.96    0.80
   3   6  -6    1.56    0.53
   3   6  -6    1.39    0.54
   3   6  -6    1.42    0.54
   3   6  -6    1.26    0.55
  -3  -6   6    1.81    0.66
  -3  -6   6    0.75    0.57
  -3  -6   6    1.07    0.50
  -3  -6   6    1.76    0.57
   2   6  -6    1.29    0.43
   2   6  -6    1.75    0.50
   2   6  -6    2.70    0.52
   2   6  -6    1.62    0.48
  -2  -6   6    1.54    0.48
  -2  -6   6    2.33    0.59
  -2  -6   6    1.69    0.53
  -2  -6   6    1.57    0.50
  -2  -6   6    1.67    0.48
   1   6  -6    3.27    0.47
   1   6  -6    2.42    0.40
   1   6  -6    2.73    0.28
   1   6  -6    3.02    0.48
   1   6  -6    2.79    0.35
  -1  -6   6    2.97    0.54
  -1  -6   6    3.24    0.50
  -1  -6   6    2.61    0.52
   0   6  -6    5.56    0.45
   0   6  -6    5.46    0.44
   0   6  -6    5.40    0.38
   0   6  -6    5.06    0.50
   0   6  -6    5.86    0.40
   0  -6   6    4.60    0.41
   0  -6   6    5.82    0.47
   0  -6   6    4.89    0.54
   0  -6   6    5.16    0.25
   0  -6   6    4.51    0.56
   0  -6   6    5.75    0.58
  -1   6  -6   20.61    0.59
  -1   6  -6   21.21    0.71
  -1   6  -6   20.90    0.49
  -1   6  -6   20.73    0.81
  -1   6  -6   24.39    0.92
  -1   6  -6   20.81    0.83
   1  -6   6   23.38    0.97
   1  -6   6   23.27    0.74
   1  -6   6   23.86    0.87
   1  -6   6   21.98    0.98
   1  -6   6   22.24    0.87
   1  -6   6   20.15    0.59
  -2   6  -6    2.34    0.41
  -2   6  -6    3.55    0.42
  -2   6  -6    3.20    0.51
  -2   6  -6    4.42    0.59
   2  -6   6    3.13    0.53
   2  -6   6    3.52    0.25
   2  -6   6    3.66    0.56
   2  -6   6    2.93    0.23
   2  -6   6    3.94    0.49
   2  -6   6    3.07    0.51
   2  -6   6    2.52    0.45
  -3   6  -6    1.84    0.54
  -3   6  -6    2.33    0.44
  -3   6  -6    1.40    0.51
   3  -6   6    1.97    0.53
   3  -6   6    2.93    0.61
   3  -6   6    2.29    0.53
  -4   6  -6    8.71    0.94
  -4   6  -6    8.73    0.86
   4  -6   6   10.97    1.05
   4  -6   6    8.84    0.97
  -5   6  -6    0.96    0.73
  -5   6  -6    0.40    0.74
   5  -6   6    0.80    0.77
   5   5  -6   -0.50    0.64
   5   5  -6   -0.25    0.64
  -5  -5   6   -1.37    0.51
   4   5  -6    1.74    0.64
   4   5  -6    1.56    0.62
   4   5  -6    0.87    0.58
   4   5  -6    1.64    0.58
  -4  -5   6    0.44    0.44
  -4  -5   6    1.45    0.61
  -4  -5   6    1.05    0.63
  -4  -5   6    1.17    0.69
   3   5  -6   16.03    0.67
   3   5  -6   15.19    0.95
   3   5  -6   15.51    0.92
   3   5  -6   15.70    0.94
   3   5  -6   16.59    0.97
  -3  -5   6   16.29    0.99
  -3  -5   6   14.91    1.02
  -3  -5   6   15.30    0.82
  -3  -5   6   16.39    0.99
   2   5  -6   16.98    0.84
   2   5  -6   18.15    0.86
   2   5  -6   17.55    0.52
   2   5  -6   17.77    0.64
   2   5  -6   16.26    0.86
   2   5  -6   16.03    0.81
  -2  -5   6   17.02    0.87
  -2  -5   6   16.73    0.81
  -2  -5   6   17.47    0.98
  -2  -5   6   16.12    0.92
  -2  -5   6   18.12    0.89
   1   5  -6   19.25    0.76
   1   5  -6   20.26    0.62
   1   5  -6   19.87    0.63
   1   5  -6   19.04    0.78
   1   5  -6   19.17    0.72
   1   5  -6   19.31    0.42
   1   5  -6   19.64    0.74
  -1  -5   6   20.03    0.86
  -1  -5   6   20.14    0.86
  -1  -5   6   19.84    0.84
   0   5  -6   12.68    0.55
   0   5  -6   12.82    0.56
   0   5  -6   12.08    0.48
   0   5  -6   11.50    0.59
   0   5  -6   11.48    0.48
   0   5  -6   11.89    0.54
   0  -5   6   12.59    0.42
   0  -5   6   11.45    0.51
   0  -5   6   12.12    0.64
   0  -5   6   12.12    0.68
   0  -5   6   13.56    0.71
   0  -5   6   13.07    0.58
  -1   5  -6    0.80    0.32
  -1   5  -6    1.31    0.32
  -1   5  -6    1.31    0.22
  -1   5  -6    1.78    0.36
  -1   5  -6    1.27    0.27
   1  -5   6    1.29    0.38
   1  -5   6    1.35    0.40
   1  -5   6    1.02    0.37
   1  -5   6    1.32    0.33
   1  -5   6    1.85    0.32
   1  -5   6    1.15    0.17
  -2   5  -6    4.07    0.44
  -2   5  -6    4.02    0.51
  -2   5  -6    4.09    0.51
  -2   5  -6    3.88    0.17
   2  -5   6    3.92    0.20
   2  -5   6    4.49    0.26
   2  -5   6    4.02    0.51
   2  -5   6    4.41    0.22
   2  -5   6    4.24    0.53
   2  -5   6    4.41    0.51
  -3   5  -6    1.47    0.49
  -3   5  -6    1.32    0.36
  -3   5  -6    1.28    0.47
   3  -5   6    1.25    0.49
   3  -5   6    1.87    0.54
   3  -5   6    1.48    0.22
  -4   5  -6    4.07    0.67
  -4   5  -6    3.68    0.66
   4  -5   6    4.12    0.75
   4  -5   6    4.04    0.77
  -5   5  -6   -0.21    0.63
  -5   5  -6    1.20    0.66
   5  -5   6    0.45    0.73
   5  -5   6   -0.62    0.65
   5   4  -6   -0.18    0.50
   5   4  -6   -1.32    0.54
   5   4  -6    0.01    0.61
   5   4  -6   -0.03    0.65
   5   4  -6    1.07    0.66
  -5  -4   6   -0.24    0.60
  -5  -4   6    1.11    0.60
   4   4  -6    0.45    0.52
   4   4  -6    0.03    0.50
   4   4  -6    0.22    0.40
   4   4  -6    0.46    0.50
   4   4  -6   -0.24    0.47
  -4  -4   6    0.63    0.60
  -4  -4   6    0.52    0.56
  -4  -4   6   -0.08    0.48
  -4  -4   6    0.22    0.33
   3   4  -6   -0.67    0.38
   3   4  -6    0.38    0.41
   3   4  -6    0.03    0.40
   3   4  -6   -0.48    0.38
  -3  -4   6    0.09    0.42
  -3  -4   6    0.11    0.31
  -3  -4   6   -0.10    0.49
  -3  -4   6    0.44    0.43
   2   4  -6    0.70    0.35
   2   4  -6    0.19    0.22
   2   4  -6   -0.08    0.32
   2   4  -6   -0.39    0.30
   2   4  -6    0.26    0.33
  -2  -4   6    0.06    0.28
  -2  -4   6    0.16    0.34
  -2  -4   6   -0.04    0.33
  -2  -4   6   -0.06    0.33
   1   4  -6   11.15    0.56
   1   4  -6   11.62    0.58
   1   4  -6   12.34    0.52
   1   4  -6   11.98    0.45
   1   4  -6   11.87    0.61
   1   4  -6   12.13    0.59
  -1  -4   6   10.55    0.63
  -1  -4   6   12.59    0.65
  -1  -4   6   12.83    0.60
  -1  -4   6   11.60    0.62
   0   4  -6    9.67    0.47
   0   4  -6   10.46    0.40
   0   4  -6   11.19    0.45
   0   4  -6   10.10    0.49
   0   4  -6   10.10    0.48
   0   4  -6   10.44    0.52
   0  -4   6   10.18    0.60
   0  -4   6   10.51    0.43
   0  -4   6    9.99    0.57
   0  -4   6   10.12    0.54
   0  -4   6   10.57    0.42
   0  -4   6   10.23    0.59
  -1   4  -6   22.08    0.58
  -1   4  -6   24.04    0.61
  -1   4  -6   23.32    0.77
  -1   4  -6   22.51    0.70
  -1   4  -6   23.55    0.83
  -1   4  -6   21.86    0.77
   1  -4   6   21.66    0.83
   1  -4   6   24.04    0.76
   1  -4   6   23.98    0.86
   1  -4   6   22.72    0.82
   1  -4   6   23.08    0.79
  -2   4  -6   -0.10    0.12
  -2   4  -6   -0.16    0.32
  -2   4  -6    0.19    0.30
  -2   4  -6   -0.08    0.23
   2  -4   6    0.25    0.32
   2  -4   6    0.28    0.36
  -3   4  -6    0.41    0.39
  -3   4  -6   -0.05    0.40
  -3   4  -6    0.97    0.29
   3  -4   6    0.52    0.44
   3  -4   6    1.25    0.23
   3  -4   6    0.91    0.48
  -4   4  -6   -0.54    0.46
  -4   4  -6    0.23    0.45
   4  -4   6    0.55    0.58
   4  -4   6    0.75    0.59
  -5   4  -6    8.61    0.99
  -5   4  -6   12.14    1.03
   5  -4   6    9.76    1.13
   5  -4   6    9.95    1.13
  -6   4  -6    2.66    0.71
  -6   4  -6    5.83    1.01
   6  -4   6    3.96    1.07
   6   3  -6    1.65    0.85
   6   3  -6    2.50    0.80
   6   3  -6    5.66    1.03
  -6  -3   6    3.43    0.84
  -6  -3   6    3.78    1.49
   5   3  -6   14.18    1.21
   5   3  -6   14.24    1.08
   5   3  -6   13.60    1.19
   5   3  -6   12.42    1.05
   5   3  -6   12.97    1.05
   5   3  -6   13.32    1.11
  -5  -3   6   12.37    1.00
  -5  -3   6   11.75    1.04
   4   3  -6   21.73    1.15
   4   3  -6   19.81    1.09
   4   3  -6   22.51    1.04
   4   3  -6   24.05    1.26
   4   3  -6   22.81    1.12
  -4  -3   6   21.62    1.13
  -4  -3   6   22.95    1.12
  -4  -3   6   22.57    1.15
   3   3  -6    5.14    0.57
   3   3  -6    6.38    0.65
   3   3  -6    6.88    0.66
   3   3  -6    5.50    0.62
  -3  -3   6    6.48    0.66
  -3  -3   6    5.47    0.65
  -3  -3   6    7.02    0.66
  -3  -3   6    5.89    0.46
   2   3  -6   35.91    0.62
   2   3  -6   35.34    1.06
   2   3  -6   37.21    1.08
   2   3  -6   34.90    1.07
   2   3  -6   31.91    1.02
  -2  -3   6   34.93    0.89
  -2  -3   6   31.81    1.05
  -2  -3   6   33.04    1.07
  -2  -3   6   36.78    1.06
   1   3  -6    2.70    0.32
   1   3  -6    2.43    0.33
   1   3  -6    2.85    0.24
   1   3  -6    2.73    0.36
   1   3  -6    2.18    0.35
   1   3  -6    2.51    0.35
   1   3  -6    2.80    0.36
  -1  -3   6    2.06    0.38
  -1  -3   6    2.52    0.32
  -1  -3   6    2.65    0.39
  -1  -3   6    2.20    0.36
   0   3  -6   25.02    0.63
   0   3  -6   25.40    0.75
   0   3  -6   24.83    0.53
   0   3  -6   26.53    0.72
   0   3  -6   26.16    0.59
   0   3  -6   24.86    0.61
   0  -3   6   24.93    0.59
   0  -3   6   24.39    0.80
   0  -3   6   25.25    0.79
   0  -3   6   25.03    0.77
   0  -3   6   24.67    0.79
   0  -3   6   24.57    0.67
  -1   3  -6    3.59    0.30
  -1   3  -6    3.66    0.40
  -1   3  -6    3.21    0.36
  -1   3  -6    3.39    0.27
   1  -3   6    3.86    0.41
   1  -3   6    3.32    0.37
   1  -3   6    4.47    0.46
   1  -3   6    3.05    0.39
  -2   3  -6    0.11    0.19
  -2   3  -6    0.20    0.32
  -2   3  -6    0.22    0.29
   2  -3   6    0.17    0.33
   2  -3   6   -0.42    0.32
  -3   3  -6    1.86    0.25
  -3   3  -6    2.08    0.46
  -3   3  -6    1.99    0.45
   3  -3   6    2.30    0.53
   3  -3   6    2.31    0.29
   3  -3   6    2.04    0.19
   3  -3   6    1.50    0.50
  -4   3  -6    4.20    0.68
  -4   3  -6    6.12    0.70
   4  -3   6    4.92    0.48
   4  -3   6    4.33    0.73
   4  -3   6    3.90    0.76
  -5   3  -6   -0.54    0.56
  -5   3  -6   -0.61    0.46
   5  -3   6   -0.27    0.66
   5  -3   6    0.73    0.69
  -6   3  -6   -0.15    0.69
  -6   3  -6   -0.15    0.55
   6  -3   6   -1.06    0.90
   6   2  -6    2.32    0.83
   6   2  -6    0.97    0.70
   6   2  -6    2.95    0.92
   6   2  -6    2.22    0.83
  -6  -2   6    0.91    0.69
   5   2  -6    0.43    0.59
   5   2  -6    1.85    0.62
   5   2  -6    1.15    0.62
   5   2  -6    0.79    0.63
   5   2  -6    1.89    0.64
  -5  -2   6    1.06    0.60
  -5  -2   6    0.55    0.54
   4   2  -6   14.99    1.04
   4   2  -6   13.95    0.91
   4   2  -6   13.32    0.95
   4   2  -6   13.12    0.89
  -4  -2   6   13.30    0.88
   3   2  -6    6.56    0.63
   3   2  -6    5.33    0.55
   3   2  -6    6.96    0.64
   3   2  -6    6.11    0.59
  -3  -2   6    6.34    0.58
  -3  -2   6    6.41    0.37
  -3  -2   6    5.87    0.56
  -3  -2   6    7.34    0.65
   2   2  -6   34.35    1.04
   2   2  -6   35.31    0.97
   2   2  -6   34.04    0.99
   2   2  -6   34.66    0.99
   2   2  -6   34.84    1.06
  -2  -2   6   35.66    1.04
  -2  -2   6   34.75    1.00
  -2  -2   6   34.93    0.77
  -2  -2   6   33.95    1.02
   1   2  -6   66.93    1.40
   1   2  -6   66.22    1.34
   1   2  -6   66.90    1.35
   1   2  -6   70.17    1.41
   1   2  -6   68.09    1.40
   1   2  -6   69.79    1.37
  -1  -2   6   68.02    1.09
  -1  -2   6   68.48    1.02
  -1  -2   6   63.64    1.41
  -1  -2   6   66.75    1.34
  -1  -2   6   65.49    1.42
  -1  -2   6   64.37    1.33
   0   2  -6   17.40    0.68
   0   2  -6   18.39    0.48
   0   2  -6   18.87    0.65
   0   2  -6   17.88    0.46
   0   2  -6   17.26    0.56
   0   2  -6   17.90    0.46
   0   2  -6   17.68    0.31
   0  -2   6   17.24    0.62
   0  -2   6   16.92    0.45
   0  -2   6   17.44    0.60
   0  -2   6   16.29    0.63
   0  -2   6   16.14    0.59
   0  -2   6   15.95    0.63
  -1   2  -6   15.33    0.66
  -1   2  -6   15.97    0.66
  -1   2  -6   14.69    0.56
  -1   2  -6   15.84    0.44
   1  -2   6   15.05    0.65
   1  -2   6   15.05    0.68
  -2   2  -6   53.36    1.00
  -2   2  -6   52.11    1.31
  -2   2  -6   54.95    0.99
  -2   2  -6   54.10    1.29
   2  -2   6   52.86    1.37
   2  -2   6   55.81    1.43
  -3   2  -6   24.32    1.02
  -3   2  -6   27.06    0.88
  -3   2  -6   27.22    0.77
   3  -2   6   27.56    1.13
   3  -2   6   27.44    1.12
   3  -2   6   26.57    0.65
   3  -2   6   27.35    0.79
  -4   2  -6    3.55    0.62
  -4   2  -6    3.92    0.59
   4  -2   6    2.94    0.68
   4  -2   6    4.22    0.50
   4  -2   6    2.62    0.65
   4  -2   6    3.17    0.60
  -5   2  -6    0.54    0.53
  -5   2  -6    0.15    0.61
   5  -2   6    0.68    0.67
   5  -2   6   -0.79    0.55
   5  -2   6    0.53    0.70
  -6   2  -6    0.46    0.73
   6  -2   6   -0.87    0.56
   6  -2   6   -1.10    0.74
   6   1  -6    7.42    1.01
   6   1  -6    5.90    1.05
   6   1  -6    6.01    0.94
   6   1  -6    7.44    0.95
   6   1  -6    7.88    1.04
  -6  -1   6    7.83    0.92
  -6  -1   6    7.40    0.95
   5   1  -6    6.40    0.84
   5   1  -6    6.97    0.78
   5   1  -6    7.03    0.87
   5   1  -6    6.99    0.84
   5   1  -6    5.88    0.84
  -5  -1   6    5.81    0.75
  -5  -1   6    6.43    0.70
  -5  -1   6    6.07    0.75
   4   1  -6   24.45    1.14
   4   1  -6   27.49    1.13
   4   1  -6   27.62    1.19
   4   1  -6   25.62    1.13
  -4  -1   6   26.87    1.02
  -4  -1   6   24.65    0.95
  -4  -1   6   25.62    1.09
   3   1  -6   -0.05    0.30
   3   1  -6    0.46    0.37
   3   1  -6   -0.16    0.33
   3   1  -6    0.09    0.33
  -3  -1   6    0.10    0.12
  -3  -1   6   -0.52    0.28
  -3  -1   6    0.20    0.35
  -3  -1   6    0.09    0.35
   2   1  -6   26.43    0.86
   2   1  -6   25.81    0.83
   2   1  -6   25.39    0.69
   2   1  -6   24.03    0.80
   2   1  -6   24.69    0.86
   2   1  -6   25.38    0.50
   2   1  -6   25.75    0.78
  -2  -1   6   23.33    0.82
  -2  -1   6   24.74    0.49
  -2  -1   6   24.49    0.77
  -2  -1   6   23.79    0.81
   1   1  -6   21.59    0.69
   1   1  -6   21.58    0.65
   1   1  -6   21.26    0.65
   1   1  -6   22.00    0.68
   1   1  -6   20.48    0.69
   1   1  -6   21.38    0.58
  -1  -1   6   20.98    0.66
  -1  -1   6   21.25    0.50
  -1  -1   6   20.65    0.59
  -1  -1   6   21.49    0.69
  -1  -1   6   20.20    0.67
   0   1  -6   41.29    1.01
   0   1  -6   42.64    0.83
   0   1  -6   42.97    1.05
   0   1  -6   43.65    0.84
   0  -1   6   42.12    1.00
   0  -1   6   42.21    0.88
   0  -1   6   42.94    0.99
   0  -1   6   42.78    0.93
   0  -1   6   42.34    1.04
  -1   1  -6    6.50    0.49
  -1   1  -6    6.34    0.21
  -1   1  -6    6.47    0.23
  -1   1  -6    6.10    0.27
  -1   1  -6    5.39    0.45
  -1   1  -6    5.84    0.48
   1  -1   6    6.64    0.52
   1  -1   6    5.63    0.48
  -2   1  -6   19.82    0.58
  -2   1  -6   17.87    0.73
  -2   1  -6   19.18    0.82
   2  -1   6   18.96    0.83
   2  -1   6   19.43    0.83
  -3   1  -6    2.45    0.53
  -3   1  -6    2.55    0.34
  -3   1  -6    3.71    0.54
  -3   1  -6    3.06    0.40
   3  -1   6    2.55    0.52
   3  -1   6    3.28    0.40
   3  -1   6    3.51    0.33
   3  -1   6    2.66    0.52
   3  -1   6    3.40    0.53
  -4   1  -6    1.28    0.51
  -4   1  -6    1.80    0.55
  -4   1  -6    1.84    0.33
   4  -1   6    1.34    0.59
   4  -1   6    0.93    0.49
   4  -1   6    1.76    0.66
   4  -1   6    1.88    0.38
   4  -1   6    1.70    0.46
  -5   1  -6    1.46    0.55
  -5   1  -6    1.67    0.64
   5  -1   6    1.74    0.74
   5  -1   6    1.32    0.75
   5  -1   6    0.21    0.65
  -6   1  -6   -0.08    0.69
   6  -1   6    0.20    0.69
   6  -1   6   -0.05    0.85
   6   0  -6    1.40    0.73
   6   0  -6   -0.40    0.58
   6   0  -6    0.69    0.64
   6   0  -6   -0.61    0.77
  -6   0   6   -0.36    0.65
  -6   0   6    0.85    0.63
   5   0  -6    0.20    0.53
   5   0  -6   -0.19    0.51
   5   0  -6    0.55    0.55
   5   0  -6    0.83    0.58
  -5   0   6   -0.48    0.47
  -5   0   6   -0.55    0.48
   4   0  -6    4.44    0.56
   4   0  -6    6.06    0.68
   4   0  -6    5.10    0.66
   4   0  -6    5.13    0.62
  -4   0   6    5.28    0.55
  -4   0   6    5.14    0.52
  -4   0   6    5.24    0.65
   3   0  -6   11.17    0.68
   3   0  -6   10.86    0.66
   3   0  -6   11.69    0.72
   3   0  -6   11.93    0.70
  -3   0   6   11.30    0.54
  -3   0   6   11.23    0.59
   2   0  -6   14.84    0.63
   2   0  -6   14.00    0.67
   2   0  -6   15.00    0.65
   2   0  -6   15.55    0.56
   2   0  -6   15.79    0.54
  -2   0   6   15.23    0.54
  -2   0   6   15.03    0.46
  -2   0   6   15.29    0.64
  -2   0   6   15.95    0.68
  -2   0   6   14.85    0.56
   1   0  -6   17.14    0.64
   1   0  -6   17.24    0.59
   1   0  -6   16.95    0.44
   1   0  -6   16.58    0.60
   1   0  -6   17.89    0.35
   1   0  -6   17.75    0.66
   1   0  -6   17.22    0.61
  -1   0   6   15.90    0.48
  -1   0   6   17.85    0.57
  -1   0   6   17.33    0.51
  -1   0   6   17.94    0.58
  -1   0   6   17.01    0.45
  -1   0   6   16.92    0.61
   0   0  -6   10.47    0.52
   0   0  -6    9.65    0.54
   0   0  -6   10.02    0.50
   0   0   6    9.85    0.52
   0   0   6    9.21    0.38
   0   0   6    9.78    0.28
   0   0   6    9.32    0.45
   0   0   6    9.37    0.51
  -1   0  -6   54.73    1.27
  -1   0  -6   52.68    1.28
  -1   0  -6   54.23    1.27
  -1   0  -6   57.56    1.28
   1   0   6   53.70    1.26
   1   0   6   54.70    1.27
  -2   0  -6  443.48    6.69
  -2   0  -6  422.66    6.96
  -2   0  -6  442.70    6.80
  -2   0  -6  430.84    6.95
   2   0   6  445.98    6.96
   2   0   6  433.55    6.95
  -3   0  -6    0.47    0.40
  -3   0  -6    0.56    0.33
  -3   0  -6    1.08    0.49
   3   0   6    1.16    0.45
   3   0   6    0.57    0.45
   3   0   6    0.61    0.28
   3   0   6    0.98    0.42
  -4   0  -6   12.31    0.94
  -4   0  -6   10.88    0.88
  -4   0  -6   13.00    0.64
   4   0   6   12.73    1.01
   4   0   6   13.65    0.85
   4   0   6   12.89    0.74
   4   0   6   12.14    0.94
   4   0   6   13.87    1.01
  -5   0  -6   -0.70    0.46
  -5   0  -6    0.17    0.59
  -5   0  -6    0.67    0.61
   5   0   6    0.83    0.64
   5   0   6   -0.41    0.57
   5   0   6   -1.18    0.61
  -6   0  -6    1.10    0.81
   6   0   6    1.29    0.79
   6   0   6    0.20    0.94
   6  -1  -6    0.36    0.56
   6  -1  -6    0.72    0.66
   6  -1  -6   -0.38    0.67
   6  -1  -6    0.49    0.77
  -6   1   6    0.42    0.70
  -6   1   6    0.47    0.59
   5  -1  -6   28.35    1.37
   5  -1  -6   28.64    1.18
   5  -1  -6   29.96    1.32
   5  -1  -6   30.17    1.42
  -5   1   6   27.22    1.14
  -5   1   6   28.77    1.34
   4  -1  -6   13.40    0.83
   4  -1  -6   13.11    0.87
   4  -1  -6   12.69    0.90
   4  -1  -6   12.16    0.73
  -4   1   6   11.60    0.68
  -4   1   6   12.78    0.93
  -4   1   6   12.58    0.58
   3  -1  -6    1.98    0.47
   3  -1  -6    1.15    0.34
   3  -1  -6    1.77    0.40
   3  -1  -6    0.97    0.37
   3  -1  -6    1.90    0.23
  -3   1   6    2.03    0.33
  -3   1   6    2.33    0.28
  -3   1   6    1.09    0.41
   2  -1  -6   82.07    1.64
   2  -1  -6   82.66    1.50
   2  -1  -6   81.09    1.54
   2  -1  -6   81.99    1.74
   2  -1  -6   83.60    1.70
  -2   1   6   82.05    1.60
  -2   1   6   82.77    1.49
  -2   1   6   82.47    1.57
   1  -1  -6    8.08    0.34
   1  -1  -6    7.26    0.21
   1  -1  -6    6.81    0.46
   1  -1  -6    7.53    0.53
  -1   1   6    7.25    0.36
  -1   1   6    7.84    0.39
  -1   1   6    8.09    0.39
  -1   1   6    7.00    0.41
   0  -1  -6   34.28    0.90
   0  -1  -6   34.52    0.86
   0  -1  -6   34.29    0.95
   0   1   6   35.33    0.75
   0   1   6   36.97    0.92
   0   1   6   36.01    0.65
   0   1   6   33.82    0.92
   0   1   6   35.68    0.66
  -1  -1  -6   38.43    1.02
  -1  -1  -6   35.92    1.04
  -1  -1  -6   38.65    0.99
  -1  -1  -6   37.24    1.05
   1   1   6   38.41    0.90
   1   1   6   38.11    1.06
   1   1   6   36.81    0.99
  -2  -1  -6    0.96    0.38
  -2  -1  -6    0.62    0.38
  -2  -1  -6    0.14    0.31
  -2  -1  -6    0.19    0.25
   2   1   6    0.25    0.35
   2   1   6    0.62    0.10
   2   1   6    0.81    0.34
   2   1   6    0.58    0.35
  -3  -1  -6   38.49    1.32
  -3  -1  -6   38.21    1.33
  -3  -1  -6   40.20    1.14
   3   1   6   40.01    1.29
   3   1   6   38.91    1.32
   3   1   6   41.55    1.36
  -4  -1  -6    0.52    0.61
  -4  -1  -6    1.20    0.50
  -4  -1  -6    0.61    0.51
   4   1   6   -0.15    0.55
   4   1   6    0.51    0.54
   4   1   6    0.49    0.42
   4   1   6    1.00    0.59
  -5  -1  -6    0.46    0.65
  -5  -1  -6    1.54    0.68
   5   1   6    0.55    0.49
   5   1   6   -0.18    0.55
   5   1   6    0.93    0.78
   5   1   6    0.81    0.76
  -6  -1  -6   -0.29    0.71
   6   1   6    0.62    0.83
   6   1   6    0.53    0.87
   6  -2  -6    2.57    0.72
   6  -2  -6    2.60    0.74
   6  -2  -6    1.29    0.91
  -6   2   6    2.53    0.72
  -6   2   6    2.43    0.76
   5  -2  -6    8.25    0.87
   5  -2  -6    6.80    0.69
   5  -2  -6    5.65    0.79
   5  -2  -6    6.72    0.78
  -5   2   6    7.11    0.89
  -5   2   6    7.81    0.77
   4  -2  -6    5.65    0.56
   4  -2  -6    6.68    0.66
   4  -2  -6    5.87    0.63
   4  -2  -6    5.49    0.67
  -4   2   6    5.52    0.57
  -4   2   6    5.54    0.72
   3  -2  -6    1.35    0.40
   3  -2  -6    1.31    0.13
   3  -2  -6    0.99    0.29
   3  -2  -6    1.84    0.37
   3  -2  -6    0.92    0.24
   3  -2  -6    1.56    0.38
   3  -2  -6    1.33    0.37
   3  -2  -6    0.81    0.12
  -3   2   6    1.31    0.34
  -3   2   6    1.47    0.18
  -3   2   6    1.27    0.40
  -3   2   6    2.41    0.41
   2  -2  -6   26.85    0.89
   2  -2  -6   27.69    0.79
   2  -2  -6   25.63    0.76
   2  -2  -6   27.18    0.58
   2  -2  -6   26.01    0.85
   2  -2  -6   25.67    0.66
  -2   2   6   26.13    0.74
  -2   2   6   26.18    0.59
  -2   2   6   25.57    0.89
  -2   2   6   26.65    0.83
   1  -2  -6   16.45    0.69
   1  -2  -6   16.44    0.30
   1  -2  -6   15.88    0.30
   1  -2  -6   16.29    0.52
  -1   2   6   16.23    0.58
  -1   2   6   16.19    0.61
  -1   2   6   15.50    0.46
  -1   2   6   16.59    0.65
   0  -2  -6    2.65    0.36
   0  -2  -6    3.42    0.41
   0  -2  -6    3.27    0.43
   0  -2  -6    3.21    0.35
   0   2   6    3.00    0.23
   0   2   6    3.65    0.28
   0   2   6    3.48    0.40
   0   2   6    2.76    0.28
   0   2   6    3.66    0.38
   0   2   6    2.67    0.28
  -1  -2  -6  201.35    3.50
  -1  -2  -6  199.07    3.48
  -1  -2  -6  201.93    3.52
  -1  -2  -6  205.27    3.39
   1   2   6  196.18    3.43
   1   2   6  205.65    3.09
   1   2   6  206.15    3.31
   1   2   6  201.19    3.38
  -2  -2  -6   36.03    1.07
  -2  -2  -6   34.83    1.16
  -2  -2  -6   37.74    1.22
   2   2   6   37.07    0.73
   2   2   6   36.20    1.06
   2   2   6   35.41    1.11
   2   2   6   35.82    1.15
  -3  -2  -6   17.54    1.05
  -3  -2  -6   18.74    0.82
  -3  -2  -6   16.25    1.04
   3   2   6   15.99    0.92
   3   2   6   17.12    0.98
   3   2   6   17.41    0.93
  -4  -2  -6   19.66    1.20
  -4  -2  -6   19.38    1.21
   4   2   6   18.26    1.05
   4   2   6   18.23    1.15
   4   2   6   19.09    1.17
  -5  -2  -6    0.27    0.61
  -5  -2  -6    0.31    0.79
   5   2   6    1.23    0.75
   5   2   6    0.77    0.72
   5   2   6    0.63    0.63
   6  -3  -6    0.84    0.84
   6  -3  -6   -0.41    0.61
   6  -3  -6    1.17    0.72
  -6   3   6    0.19    0.60
  -6   3   6    0.94    0.76
   5  -3  -6    1.16    0.57
   5  -3  -6    0.84    0.59
   5  -3  -6    0.77    0.42
   5  -3  -6    2.22    0.60
  -5   3   6    1.27    0.63
  -5   3   6    0.47    0.48
   4  -3  -6    1.47    0.51
   4  -3  -6    1.72    0.48
   4  -3  -6    2.03    0.41
   4  -3  -6    2.31    0.52
  -4   3   6    1.37    0.49
  -4   3   6    2.65    0.57
   3  -3  -6    8.63    0.39
   3  -3  -6    8.24    0.69
   3  -3  -6    7.37    0.49
   3  -3  -6    7.53    0.63
   3  -3  -6    8.63    0.51
   3  -3  -6    8.65    0.59
   3  -3  -6    8.61    0.51
  -3   3   6    8.07    0.65
  -3   3   6    8.85    0.69
  -3   3   6    8.84    0.61
   2  -3  -6   20.41    0.60
   2  -3  -6   20.86    0.68
   2  -3  -6   18.75    0.73
  -2   3   6   20.56    0.73
  -2   3   6   21.26    0.38
  -2   3   6   20.49    0.82
  -2   3   6   19.75    0.74
  -2   3   6   20.60    0.82
   1  -3  -6    0.73    0.23
   1  -3  -6    0.68    0.14
   1  -3  -6    1.58    0.28
   1  -3  -6    1.21    0.35
  -1   3   6    0.74    0.15
  -1   3   6    0.89    0.28
  -1   3   6    0.47    0.30
  -1   3   6    1.20    0.29
  -1   3   6    0.86    0.30
   0  -3  -6    0.53    0.26
   0  -3  -6    0.20    0.30
   0  -3  -6    0.44    0.19
   0  -3  -6    0.39    0.28
   0  -3  -6    0.21    0.33
   0   3   6    0.33    0.17
   0   3   6    0.33    0.20
   0   3   6    0.57    0.24
   0   3   6    0.39    0.25
   0   3   6   -0.04    0.26
  -1  -3  -6   35.63    1.11
  -1  -3  -6   33.26    1.05
  -1  -3  -6   33.89    0.91
  -1  -3  -6   33.33    1.09
  -1  -3  -6   33.33    0.90
   1   3   6   33.44    0.78
   1   3   6   33.71    0.90
   1   3   6   34.88    1.01
   1   3   6   33.19    0.91
  -2  -3  -6   15.36    0.86
  -2  -3  -6   18.20    0.85
  -2  -3  -6   16.25    0.91
   2   3   6   17.97    0.82
   2   3   6   17.41    0.86
   2   3   6   17.33    0.54
   2   3   6   18.72    0.77
  -3  -3  -6   18.55    1.12
  -3  -3  -6   17.84    0.91
  -3  -3  -6   17.76    1.09
   3   3   6   17.64    0.96
   3   3   6   17.79    1.04
   3   3   6   17.37    0.89
  -4  -3  -6    3.38    0.75
  -4  -3  -6    2.63    0.76
   4   3   6    2.37    0.72
   4   3   6    2.09    0.70
   4   3   6    3.39    0.63
  -5  -3  -6    1.07    0.93
  -5  -3  -6    2.82    0.83
   5   3   6    1.21    0.74
   5   3   6    1.42    0.77
   6  -4  -6   -0.47    0.78
   6  -4  -6    0.03    0.65
  -6   4   6    0.67    0.69
  -6   4   6    0.35    0.69
   5  -4  -6    2.03    0.58
   5  -4  -6    0.55    0.51
   5  -4  -6    2.56    0.65
  -5   4   6    1.51    0.64
  -5   4   6    1.43    0.67
   4  -4  -6    2.03    0.39
   4  -4  -6    2.17    0.56
   4  -4  -6    1.35    0.46
   4  -4  -6    1.33    0.53
   4  -4  -6    3.16    0.64
  -4   4   6    1.95    0.61
  -4   4   6    2.53    0.50
   3  -4  -6    5.81    0.55
   3  -4  -6    6.08    0.64
   3  -4  -6    6.68    0.64
   3  -4  -6    5.61    0.47
   3  -4  -6    6.64    0.54
   3  -4  -6    6.51    0.44
  -3   4   6    5.85    0.63
  -3   4   6    4.91    0.59
  -3   4   6    5.83    0.56
   2  -4  -6    0.24    0.27
   2  -4  -6    0.58    0.21
   2  -4  -6    0.43    0.26
   2  -4  -6    0.39    0.32
   2  -4  -6    0.75    0.37
  -2   4   6    0.35    0.34
  -2   4   6   -0.15    0.35
  -2   4   6    0.10    0.32
  -2   4   6    0.31    0.32
   1  -4  -6   -0.41    0.30
   1  -4  -6   -0.14    0.21
   1  -4  -6    0.01    0.16
   1  -4  -6    0.55    0.29
  -1   4   6   -0.07    0.30
  -1   4   6   -0.21    0.29
  -1   4   6    0.27    0.25
  -1   4   6    0.23    0.26
   0  -4  -6    1.57    0.39
   0  -4  -6    1.53    0.28
   0  -4  -6    0.84    0.38
   0  -4  -6    1.81    0.26
   0  -4  -6    1.80    0.38
   0   4   6    1.96    0.25
   0   4   6    1.49    0.29
   0   4   6    1.88    0.26
   0   4   6    1.13    0.32
  -1  -4  -6   37.88    0.95
  -1  -4  -6   38.02    1.20
  -1  -4  -6   36.59    1.19
  -1  -4  -6   36.01    1.01
  -1  -4  -6   38.18    1.21
   1   4   6   35.87    1.05
   1   4   6   38.36    1.01
   1   4   6   36.78    0.95
   1   4   6   37.38    0.92
  -2  -4  -6    1.89    0.52
  -2  -4  -6    1.42    0.53
  -2  -4  -6    1.18    0.31
  -2  -4  -6    1.65    0.50
   2   4   6    1.30    0.44
   2   4   6    1.91    0.49
   2   4   6    1.29    0.28
   2   4   6    1.51    0.34
  -3  -4  -6   11.53    0.96
  -3  -4  -6   10.23    0.83
  -3  -4  -6   10.53    0.99
   3   4   6   11.90    0.92
   3   4   6    9.88    0.56
   3   4   6   11.52    0.93
   3   4   6    9.92    0.74
  -4  -4  -6    6.37    0.99
  -4  -4  -6    6.21    0.91
   4   4   6    5.40    0.79
   4   4   6    7.40    0.94
  -5  -4  -6    1.68    0.84
  -5  -4  -6    1.52    0.88
   5   4   6    2.05    0.95
   5   4   6    1.63    0.77
   6  -5  -6    6.01    1.12
   6  -5  -6    5.61    0.85
  -6   5   6    9.03    1.08
  -6   5   6    7.53    1.10
   5  -5  -6    1.97    0.63
   5  -5  -6    1.53    0.59
  -5   5   6    1.47    0.66
  -5   5   6    1.29    0.67
   4  -5  -6    5.88    0.61
   4  -5  -6    6.41    0.73
   4  -5  -6    5.83    0.55
   4  -5  -6    6.70    0.52
   4  -5  -6    5.03    0.69
  -4   5   6    6.55    0.76
  -4   5   6    5.47    0.80
  -4   5   6    6.32    0.77
   3  -5  -6   26.07    1.04
   3  -5  -6   26.67    0.82
   3  -5  -6   27.74    1.12
   3  -5  -6   28.10    0.99
   3  -5  -6   28.46    0.90
  -3   5   6   25.66    1.09
  -3   5   6   27.45    1.20
  -3   5   6   27.19    1.04
  -3   5   6   25.37    1.04
   2  -5  -6   12.00    0.63
   2  -5  -6   12.94    0.73
   2  -5  -6   13.66    0.56
  -2   5   6   12.39    0.70
  -2   5   6   14.03    0.77
  -2   5   6   12.92    0.71
  -2   5   6   12.76    0.75
   1  -5  -6    0.16    0.16
   1  -5  -6    0.17    0.27
   1  -5  -6   -0.22    0.19
   1  -5  -6   -0.31    0.34
   1  -5  -6    0.09    0.34
  -1   5   6    0.08    0.26
  -1   5   6    0.14    0.34
  -1   5   6    0.31    0.32
  -1   5   6    0.20    0.29
   0  -5  -6   23.23    0.43
   0  -5  -6   24.50    0.96
   0  -5  -6   22.85    0.72
   0  -5  -6   23.66    0.73
   0  -5  -6   22.24    0.99
   0  -5  -6   22.94    0.90
   0   5   6   23.77    0.71
   0   5   6   25.54    0.88
   0   5   6   23.36    0.71
   0   5   6   23.58    0.93
   0   5   6   23.18    0.82
  -1  -5  -6    1.54    0.45
  -1  -5  -6    1.08    0.27
  -1  -5  -6    1.44    0.51
  -1  -5  -6    0.96    0.51
  -1  -5  -6    1.11    0.37
   1   5   6    1.04    0.30
   1   5   6    0.78    0.35
  -2  -5  -6   22.22    1.21
  -2  -5  -6   22.02    0.97
  -2  -5  -6   23.01    1.12
  -2  -5  -6   21.12    1.13
   2   5   6   21.40    0.76
   2   5   6   21.48    0.78
   2   5   6   22.02    0.93
  -3  -5  -6   12.94    1.09
  -3  -5  -6   10.51    1.07
  -3  -5  -6   11.29    0.93
   3   5   6   12.48    0.66
   3   5   6   11.17    1.00
   3   5   6   11.98    0.92
  -4  -5  -6    0.47    0.74
  -4  -5  -6    1.98    0.87
   4   5   6    1.43    0.69
   4   5   6    0.46    0.69
  -5  -5  -6    1.50    1.07
  -5  -5  -6    4.30    0.99
   5   5   6    2.76    0.92
   5   5   6    1.94    0.83
   6  -6  -6    3.38    0.80
   6  -6  -6    3.90    1.05
  -6   6   6    2.06    0.96
  -6   6   6    4.32    0.94
   5  -6  -6    0.41    0.53
   5  -6  -6   -0.04    0.54
   5  -6  -6   -0.32    0.60
  -5   6   6    0.40    0.61
  -5   6   6   -1.15    0.57
   4  -6  -6    3.44    0.66
   4  -6  -6    4.33    0.56
   4  -6  -6    4.52    0.75
  -4   6   6    3.54    0.70
  -4   6   6    4.04    0.73
  -4   6   6    4.73    0.70
   3  -6  -6   10.17    0.60
   3  -6  -6    8.16    0.52
   3  -6  -6    9.53    0.64
   3  -6  -6    9.04    0.74
   3  -6  -6   10.04    0.87
  -3   6   6   10.21    0.91
  -3   6   6    7.23    0.74
  -3   6   6    9.56    0.88
  -3   6   6    9.55    0.80
   2  -6  -6    6.75    0.48
   2  -6  -6    7.44    0.62
   2  -6  -6    7.50    0.70
   2  -6  -6    7.35    0.36
  -2   6   6    6.78    0.65
  -2   6   6    6.72    0.63
  -2   6   6    7.23    0.69
  -2   6   6    7.22    0.70
   1  -6  -6    4.67    0.63
   1  -6  -6    5.96    0.62
   1  -6  -6    5.63    0.35
   1  -6  -6    5.70    0.45
   1  -6  -6    4.07    0.46
   1  -6  -6    5.96    0.50
  -1   6   6    5.97    0.55
  -1   6   6    5.22    0.61
  -1   6   6    5.34    0.56
  -1   6   6    6.03    0.56
   0  -6  -6    1.39    0.17
   0  -6  -6    1.22    0.41
   0  -6  -6    0.66    0.25
   0  -6  -6    0.80    0.46
   0  -6  -6    1.35    0.45
   0  -6  -6    0.81    0.33
   0   6   6    1.28    0.44
   0   6   6    1.35    0.41
   0   6   6    1.19    0.38
  -1  -6  -6    0.40    0.53
  -1  -6  -6    0.11    0.45
  -1  -6  -6    0.38    0.39
  -1  -6  -6   -0.65    0.50
   1   6   6    0.05    0.33
   1   6   6    0.25    0.39
   1   6   6   -0.13    0.32
  -2  -6  -6    0.88    0.59
  -2  -6  -6    1.79    0.69
  -2  -6  -6    0.91    0.48
  -2  -6  -6    1.32    0.54
   2   6   6    1.16    0.39
   2   6   6    1.68    0.46
  -3  -6  -6   -0.32    0.64
  -3  -6  -6   -0.38    0.53
  -3  -6  -6    0.21    0.69
   3   6   6    0.11    0.39
   3   6   6   -0.11    0.45
   3   6   6   -0.32    0.57
  -4  -6  -6    1.04    0.80
  -4  -6  -6   -0.49    0.79
   4   6   6    0.20    0.69
   5  -7  -6    2.32    0.72
   5  -7  -6    1.20    0.56
  -5   7   6    1.64    0.69
  -5   7   6    0.33    0.78
   4  -7  -6    1.19    0.47
   4  -7  -6    1.63    0.59
   4  -7  -6    1.25    0.54
   4  -7  -6    2.92    0.55
  -4   7   6    1.57    0.70
  -4   7   6    0.99    0.65
  -4   7   6    1.24    0.63
   3  -7  -6    2.31    0.45
   3  -7  -6    1.83    0.55
   3  -7  -6    1.70    0.43
   3  -7  -6    1.77    0.52
  -3   7   6    1.99    0.58
  -3   7   6    1.78    0.54
  -3   7   6    1.57    0.55
   2  -7  -6    0.78    0.43
   2  -7  -6   -0.08    0.44
   2  -7  -6    0.49    0.32
   2  -7  -6    1.35    0.33
  -2   7   6    1.31    0.46
  -2   7   6    1.33    0.51
  -2   7   6    1.57    0.56
  -2   7   6    1.06    0.46
   1  -7  -6    6.19    0.74
   1  -7  -6    6.30    0.52
   1  -7  -6    6.09    0.40
   1  -7  -6    6.99    0.59
   1  -7  -6    6.01    0.71
  -1   7   6    6.94    0.68
  -1   7   6    5.21    0.61
  -1   7   6    6.17    0.60
  -1   7   6    6.05    0.67
   0  -7  -6    1.32    0.39
   0  -7  -6    1.02    0.49
   0  -7  -6    1.01    0.53
   0  -7  -6    1.91    0.55
   0   7   6    0.91    0.43
   0   7   6    1.22    0.40
   0   7   6    0.83    0.43
  -1  -7  -6    4.99    0.74
  -1  -7  -6    4.04    0.57
  -1  -7  -6    3.72    0.70
  -1  -7  -6    4.19    0.71
   1   7   6    4.71    0.64
   1   7   6    4.35    0.52
   1   7   6    4.42    0.63
  -2  -7  -6   21.26    1.21
  -2  -7  -6   21.54    1.40
  -2  -7  -6   20.90    1.12
   2   7   6   21.78    0.92
   2   7   6   21.91    0.94
  -3  -7  -6    1.49    0.77
  -3  -7  -6    0.60    0.62
  -3  -7  -6    2.62    0.98
  -4  -7  -6    1.47    1.09
  -4  -7  -6    0.11    0.94
   4   7   6    1.42    0.83
   5  -8  -6    0.41    0.59
  -5   8   6    0.42    0.74
  -5   8   6    0.57    0.75
   4  -8  -6   37.18    1.55
   4  -8  -6   36.95    1.49
   4  -8  -6   34.71    1.41
   4  -8  -6   35.51    1.61
  -4   8   6   34.94    1.68
  -4   8   6   38.27    1.68
  -4   8   6   38.85    1.71
   3  -8  -6    7.34    0.72
   3  -8  -6    9.07    0.90
   3  -8  -6    8.16    0.86
   3  -8  -6    9.59    1.02
  -3   8   6    8.08    0.84
  -3   8   6   11.13    1.03
  -3   8   6   11.02    1.03
  -3   8   6   10.34    0.95
   2  -8  -6    3.20    0.71
   2  -8  -6    2.31    0.45
   2  -8  -6    3.89    0.61
  -2   8   6    3.20    0.59
  -2   8   6    3.16    0.59
  -2   8   6    3.55    0.67
  -2   8   6    3.00    0.64
   1  -8  -6    0.92    0.56
   1  -8  -6    1.78    0.39
   1  -8  -6    0.90    0.46
   1  -8  -6    1.62    0.55
  -1   8   6    1.26    0.49
  -1   8   6   -0.07    0.48
  -1   8   6    0.46    0.51
   0  -8  -6    8.81    0.96
   0  -8  -6    7.29    0.76
   0  -8  -6    7.63    0.87
   0  -8  -6    8.45    0.71
   0   8   6    7.68    0.76
   0   8   6    7.85    0.74
   0   8   6    7.70    0.76
  -1  -8  -6   10.94    1.03
  -1  -8  -6   11.63    0.90
  -1  -8  -6   10.31    1.00
  -1  -8  -6   12.68    1.06
   1   8   6   10.58    0.93
   1   8   6   12.05    0.95
   1   8   6   10.45    0.80
  -2  -8  -6   13.79    1.30
  -2  -8  -6   10.19    1.01
  -2  -8  -6   11.82    0.98
  -2  -8  -6    8.96    1.07
   2   8   6   10.35    0.83
  -3  -8  -6    8.45    1.17
  -3  -8  -6   11.31    1.41
  -3  -8  -6   10.20    1.11
   4  -9  -6   -0.20    0.47
   4  -9  -6   -0.32    0.50
   4  -9  -6   -0.92    0.48
   4  -9  -6   -0.87    0.55
  -4   9   6   -0.59    0.62
  -4   9   6   -0.02    0.75
   3  -9  -6    1.11    0.62
   3  -9  -6    1.43    0.53
   3  -9  -6    2.28    0.70
   3  -9  -6    3.28    0.79
  -3   9   6    2.22    0.72
  -3   9   6    2.53    0.68
  -3   9   6    2.17    0.66
  -3   9   6    2.10    0.76
   2  -9  -6    2.33    0.74
   2  -9  -6    0.97    0.55
  -2   9   6    1.93    0.58
  -2   9   6    1.53    0.56
  -2   9   6    0.44    0.60
  -2   9   6    0.42    0.52
   1  -9  -6   -0.68    0.60
   1  -9  -6   -0.06    0.61
   1  -9  -6    0.52    0.43
   1  -9  -6    0.08    0.47
  -1   9   6   -0.05    0.49
  -1   9   6    0.36    0.49
  -1   9   6    0.08    0.55
   0  -9  -6    2.05    0.72
   0  -9  -6    2.58    0.70
   0  -9  -6    2.48    0.56
   0  -9  -6    2.27    0.78
   0   9   6    2.73    0.63
   0   9   6    2.94    0.59
   0   9   6    1.84    0.57
  -1  -9  -6    3.04    0.82
  -1  -9  -6    2.75    0.84
  -1  -9  -6    3.52    0.66
  -1  -9  -6    2.80    0.79
   1   9   6    2.91    0.66
   1   9   6    2.92    0.63
   1   9   6    3.13    0.66
  -2  -9  -6    0.66    0.88
  -2  -9  -6    0.00    0.56
  -2  -9  -6    0.14    0.66
  -2  -9  -6    1.55    0.82
   2   9   6   -0.33    0.50
   2   9   6   -0.81    0.54
   2   9   6   -0.81    0.58
  -3  -9  -6    0.59    1.03
  -3  -9  -6    0.82    0.83
  -3  -9  -6    0.30    0.93
   4 -10  -6    2.33    0.69
   4 -10  -6    4.10    0.78
  -4  10   6    3.98    0.92
  -4  10   6    4.91    1.08
  -4  10   6    4.22    0.82
   3 -10  -6   -0.79    0.54
   3 -10  -6    0.57    0.53
   3 -10  -6   -0.38    0.64
  -3  10   6   -0.10    0.58
  -3  10   6   -0.14    0.62
  -3  10   6    0.73    0.66
  -3  10   6    0.27    0.64
   2 -10  -6    5.17    0.94
   2 -10  -6    4.95    0.84
  -2  10   6    3.92    0.79
  -2  10   6    4.35    0.77
  -2  10   6    4.42    0.78
   1 -10  -6   -0.73    0.66
   1 -10  -6    0.24    0.69
  -1  10   6   -0.06    0.55
  -1  10   6   -0.38    0.50
  -1  10   6    0.22    0.57
   0 -10  -6    1.31    0.82
   0 -10  -6    1.44    0.71
   0 -10  -6    0.39    0.64
   0  10   6    0.23    0.53
   0  10   6    0.14    0.52
   0  10   6   -0.03    0.59
  -1 -10  -6    3.00    0.87
  -1 -10  -6    3.73    0.88
  -1 -10  -6    2.89    0.92
   1  10   6    2.36    0.70
   1  10   6    3.40    0.70
   1  10   6    2.79    0.73
  -2 -10  -6    0.51    0.80
  -2 -10  -6    2.47    0.95
  -2 -10  -6    0.70    0.86
   2  10   6   -0.50    0.60
   2  10   6   -0.78    0.48
   2  10   6    0.53    0.65
   3 -11  -6    0.24    0.73
   3 -11  -6    0.80    0.63
  -3  11   6   -0.44    0.68
  -3  11   6   -1.09    0.74
  -3  11   6   -0.21    0.62
   2 -11  -6    0.51    0.78
   2 -11  -6    1.13    0.76
  -2  11   6    0.87    0.68
  -2  11   6   -0.19    0.72
  -2  11   6    0.89    0.66
   1 -11  -6    0.95    0.84
   1 -11  -6    1.36    0.76
  -1  11   6    2.04    0.76
  -1  11   6    1.16    0.75
  -1  11   6    0.08    0.59
   0 -11  -6    0.28    0.78
   0 -11  -6    1.41    0.84
   0 -11  -6    0.65    0.75
   0  11   6    0.15    0.66
   0  11   6    1.37    0.63
   0  11   6    0.91    0.65
  -1 -11  -6    2.22    0.97
  -1 -11  -6    3.91    0.98
  -1 -11  -6    3.98    1.00
   1  11   6    2.71    0.78
   1  11   6    3.10    0.75
   1  11   6    3.54    0.82
   0  12  -7    3.98    0.85
   0  12  -7    2.64    0.69
   0 -12   7    1.51    0.79
   0 -12   7    0.72    0.85
   0 -12   7    1.35    0.90
  -1  12  -7   -0.49    0.54
  -1  12  -7    0.57    0.70
  -1  12  -7    0.78    0.71
   1 -12   7    0.45    0.71
   1 -12   7    0.23    0.72
  -2  12  -7    0.87    0.69
  -2  12  -7    1.12    0.76
   2 -12   7   -0.78    0.65
   2  11  -7   -0.43    0.60
   2  11  -7    0.39    0.71
  -2 -11   7    1.02    0.88
  -2 -11   7    0.14    0.77
  -2 -11   7   -0.66    0.66
   1  11  -7    0.18    0.56
   1  11  -7    1.01    0.68
  -1 -11   7    1.33    0.76
  -1 -11   7    0.97    0.70
  -1 -11   7    1.63    0.83
   0  11  -7    0.43    0.49
   0  11  -7    0.64    0.55
   0  11  -7   -0.58    0.55
   0 -11   7    2.14    0.95
   0 -11   7   -0.75    0.69
   0 -11   7    0.51    0.75
  -1  11  -7   -0.57    0.57
  -1  11  -7    0.80    0.52
  -1  11  -7    0.45    0.62
   1 -11   7    0.30    0.68
   1 -11   7    0.15    0.66
  -2  11  -7    3.17    0.80
  -2  11  -7    2.97    0.64
  -2  11  -7    1.91    0.71
   2 -11   7    1.57    0.83
  -3  11  -7    4.55    0.91
  -3  11  -7    3.29    0.80
  -3  11  -7    3.02    0.73
   3 -11   7    3.80    0.95
   3  10  -7    7.44    0.95
  -3 -10   7   10.52    1.26
  -3 -10   7    8.60    1.11
  -3 -10   7    6.31    1.15
   2  10  -7   -0.28    0.57
   2  10  -7    1.45    0.67
  -2 -10   7    1.02    0.69
  -2 -10   7    1.00    0.76
  -2 -10   7    0.31    0.75
   1  10  -7    5.77    0.85
   1  10  -7    6.07    0.77
  -1 -10   7    6.00    0.83
  -1 -10   7    5.13    0.89
  -1 -10   7    5.01    0.88
  -1 -10   7    4.97    0.96
  -1 -10   7    4.97    0.90
   0  10  -7   -0.31    0.43
   0  10  -7   -0.81    0.43
   0  10  -7    0.06    0.60
   0 -10   7    0.02    0.65
   0 -10   7   -0.47    0.49
   0 -10   7   -0.63    0.67
   0 -10   7    0.59    0.64
  -1  10  -7    0.13    0.59
  -1  10  -7    0.59    0.51
  -1  10  -7    0.25    0.45
   1 -10   7    0.43    0.63
   1 -10   7    0.07    0.64
   1 -10   7    0.62    0.49
  -2  10  -7    3.25    0.61
  -2  10  -7    3.57    0.69
  -2  10  -7    2.92    0.72
   2 -10   7    4.24    0.82
   2 -10   7    1.77    0.74
  -3  10  -7   -0.63    0.69
  -3  10  -7    0.38    0.61
  -3  10  -7   -0.59    0.67
   3 -10   7    0.43    0.76
  -4  10  -7   -0.31    0.68
  -4  10  -7   -0.08    0.69
  -4  10  -7    0.61    0.61
   4 -10   7   -1.47    0.76
   3   9  -7    6.55    0.99
   3   9  -7    5.55    0.83
  -3  -9   7    4.88    0.89
  -3  -9   7    4.58    0.91
  -3  -9   7    6.06    0.94
   2   9  -7   -0.25    0.48
  -2  -9   7   -0.08    0.66
  -2  -9   7    0.27    0.64
  -2  -9   7    0.33    0.62
  -2  -9   7    0.29    0.66
   1   9  -7    3.72    0.58
   1   9  -7    4.45    0.56
   1   9  -7    3.52    0.65
   1   9  -7    3.95    0.62
  -1  -9   7    4.26    0.80
  -1  -9   7    4.44    0.82
  -1  -9   7    3.67    0.76
  -1  -9   7    3.32    0.74
  -1  -9   7    3.53    0.69
   0   9  -7    3.68    0.53
   0   9  -7    3.92    0.59
   0   9  -7    3.49    0.64
   0  -9   7    4.31    0.75
   0  -9   7    3.64    0.66
   0  -9   7    4.13    0.72
  -1   9  -7    0.98    0.55
  -1   9  -7    1.21    0.57
  -1   9  -7    2.62    0.51
   1  -9   7    2.19    0.54
   1  -9   7    1.93    0.61
   1  -9   7    2.05    0.66
  -2   9  -7    1.71    0.49
  -2   9  -7    1.18    0.63
  -2   9  -7    3.01    0.63
  -2   9  -7    1.72    0.60
   2  -9   7    1.46    0.52
   2  -9   7    0.72    0.62
   2  -9   7    1.66    0.68
   2  -9   7    1.66    0.53
  -3   9  -7   -0.46    0.61
  -3   9  -7    0.29    0.55
  -3   9  -7    0.33    0.67
   3  -9   7    0.24    0.64
   3  -9   7    0.50    0.61
   3  -9   7    0.19    0.61
   3  -9   7    1.17    0.63
  -4   9  -7    6.74    1.06
  -4   9  -7    5.27    0.76
  -4   9  -7    6.19    0.94
   4  -9   7    6.35    0.96
   4  -9   7    5.60    0.85
   4  -9   7    6.93    0.96
   4   8  -7   13.09    1.21
   4   8  -7   12.50    1.23
  -4  -8   7    8.87    1.11
  -4  -8   7   10.88    1.25
   3   8  -7    2.00    0.65
   3   8  -7    1.55    0.62
   3   8  -7    2.08    0.68
  -3  -8   7    2.66    0.82
  -3  -8   7    2.01    0.73
  -3  -8   7    2.11    0.72
  -3  -8   7    1.22    0.67
   2   8  -7    0.83    0.50
   2   8  -7    0.39    0.53
   2   8  -7    0.05    0.46
  -2  -8   7    0.46    0.55
  -2  -8   7   -0.17    0.59
  -2  -8   7   -1.18    0.49
  -2  -8   7   -0.50    0.50
  -2  -8   7    0.58    0.62
   1   8  -7   -0.51    0.37
   1   8  -7    0.35    0.41
   1   8  -7    0.01    0.31
   1   8  -7   -0.46    0.30
  -1  -8   7   -0.14    0.49
  -1  -8   7    0.79    0.53
  -1  -8   7    0.14    0.51
   0   8  -7    3.16    0.59
   0   8  -7    2.97    0.47
   0   8  -7    2.41    0.41
   0   8  -7    3.63    0.52
   0   8  -7    2.58    0.46
   0  -8   7    1.94    0.59
   0  -8   7    2.26    0.61
   0  -8   7    2.64    0.56
   0  -8   7    2.73    0.36
  -1   8  -7    2.05    0.53
  -1   8  -7    2.29    0.50
  -1   8  -7    1.66    0.39
   1  -8   7    1.56    0.41
   1  -8   7    1.65    0.44
   1  -8   7    0.71    0.51
   1  -8   7    0.83    0.52
  -2   8  -7   11.29    0.94
  -2   8  -7   12.02    0.87
  -2   8  -7   12.15    0.74
  -2   8  -7   12.00    0.93
   2  -8   7   11.19    0.95
   2  -8   7   12.02    0.76
   2  -8   7   11.78    1.01
   2  -8   7   10.88    0.82
   2  -8   7   11.48    0.88
  -3   8  -7   -0.67    0.51
  -3   8  -7    0.39    0.56
  -3   8  -7   -0.12    0.46
   3  -8   7   -0.52    0.45
   3  -8   7   -0.26    0.48
   3  -8   7    0.56    0.64
   3  -8   7   -0.11    0.51
   3  -8   7    0.19    0.60
  -4   8  -7   11.21    1.08
  -4   8  -7   12.71    1.14
  -4   8  -7   12.65    0.94
   4  -8   7   12.19    1.14
   4  -8   7   11.75    0.96
   4  -8   7   14.61    1.20
   4  -8   7   11.50    1.16
  -5   8  -7   -0.77    0.66
  -5   8  -7    0.30    0.82
   5  -8   7    1.43    0.82
   4   7  -7   -0.46    0.56
   4   7  -7   -0.16    0.62
   4   7  -7    0.60    0.62
   4   7  -7    0.07    0.62
  -4  -7   7   -0.35    0.64
  -4  -7   7    0.36    0.63
   3   7  -7    3.92    0.71
   3   7  -7    3.13    0.67
   3   7  -7    1.84    0.61
   3   7  -7    3.83    0.71
  -3  -7   7    3.98    0.68
  -3  -7   7    3.94    0.74
  -3  -7   7    3.21    0.73
  -3  -7   7    3.28    0.86
   2   7  -7    2.84    0.57
   2   7  -7    2.92    0.55
   2   7  -7    3.99    0.60
   2   7  -7    3.71    0.60
  -2  -7   7    3.14    0.70
  -2  -7   7    3.62    0.64
  -2  -7   7    4.19    0.71
  -2  -7   7    3.74    0.62
  -2  -7   7    3.66    0.67
   1   7  -7   27.14    0.96
   1   7  -7   26.13    0.87
   1   7  -7   26.28    0.93
   1   7  -7   26.75    1.04
   1   7  -7   26.81    1.00
  -1  -7   7   27.31    1.18
  -1  -7   7   27.20    1.19
  -1  -7   7   26.87    1.11
   0   7  -7    1.79    0.36
   0   7  -7    1.19    0.27
   0   7  -7    1.18    0.33
   0   7  -7    1.65    0.29
   0   7  -7    1.96    0.42
   0   7  -7    2.01    0.45
   0  -7   7    0.88    0.45
   0  -7   7    1.86    0.35
   0  -7   7    2.15    0.49
   0  -7   7    1.93    0.53
  -1   7  -7   11.33    0.73
  -1   7  -7   11.03    0.59
  -1   7  -7   11.38    0.48
  -1   7  -7    9.39    0.72
  -1   7  -7   10.89    0.70
   1  -7   7   12.21    0.60
   1  -7   7   11.07    0.71
   1  -7   7   11.02    0.86
   1  -7   7   11.49    0.86
   1  -7   7    9.10    0.69
  -2   7  -7   30.78    0.97
  -2   7  -7   28.72    1.04
  -2   7  -7   28.86    1.16
  -2   7  -7   30.33    1.19
   2  -7   7   29.63    1.09
   2  -7   7   30.59    1.18
   2  -7   7   32.79    1.09
   2  -7   7   29.66    1.24
   2  -7   7   28.71    1.26
  -3   7  -7   15.50    1.01
  -3   7  -7   14.94    0.85
  -3   7  -7   15.80    1.01
   3  -7   7   14.36    1.05
   3  -7   7   13.49    0.91
   3  -7   7   17.20    1.16
   3  -7   7   12.92    1.03
   3  -7   7   14.25    0.91
  -4   7  -7   30.29    1.50
  -4   7  -7   30.40    1.46
   4  -7   7   28.60    1.43
   4  -7   7   29.25    1.53
   4  -7   7   30.02    1.32
  -5   7  -7    1.04    0.69
  -5   7  -7    0.92    0.72
   5  -7   7    0.16    0.84
   5  -7   7    0.80    0.70
   5   6  -7    0.53    0.75
   5   6  -7   -0.10    0.66
  -5  -6   7    1.07    0.77
   4   6  -7    2.22    0.68
   4   6  -7    2.12    0.69
   4   6  -7    1.56    0.67
   4   6  -7    2.70    0.70
  -4  -6   7    1.38    0.73
  -4  -6   7    2.31    0.65
  -4  -6   7    1.75    0.69
   3   6  -7    4.60    0.66
   3   6  -7    5.74    0.72
   3   6  -7    5.79    0.77
   3   6  -7    4.65    0.71
  -3  -6   7    5.27    0.77
  -3  -6   7    4.62    0.76
  -3  -6   7    5.03    0.65
  -3  -6   7    5.26    0.78
   2   6  -7    2.66    0.54
   2   6  -7    3.22    0.56
   2   6  -7    3.45    0.56
   2   6  -7    2.06    0.48
  -2  -6   7    2.44    0.63
  -2  -6   7    3.19    0.61
  -2  -6   7    2.18    0.55
  -2  -6   7    3.18    0.58
  -2  -6   7    1.99    0.51
   1   6  -7    2.13    0.32
   1   6  -7    1.95    0.29
   1   6  -7    1.58    0.39
   1   6  -7    1.84    0.40
   1   6  -7    1.52    0.40
   1   6  -7    1.60    0.38
  -1  -6   7    1.89    0.49
  -1  -6   7    2.03    0.49
  -1  -6   7    3.04    0.51
   0   6  -7    2.24    0.32
   0   6  -7    1.60    0.29
   0   6  -7    2.29    0.35
   0   6  -7    1.61    0.35
   0   6  -7    1.94    0.30
   0  -6   7    1.97    0.34
   0  -6   7    2.06    0.23
   0  -6   7    2.27    0.48
   0  -6   7    1.44    0.45
   0  -6   7    1.60    0.30
   0  -6   7    2.68    0.49
  -1   6  -7    9.94    0.52
  -1   6  -7    9.51    0.66
  -1   6  -7    9.21    0.37
  -1   6  -7    9.29    0.44
  -1   6  -7    9.95    0.65
  -1   6  -7    9.23    0.60
   1  -6   7   10.36    0.75
   1  -6   7   10.26    0.57
   1  -6   7    8.70    0.38
   1  -6   7    9.66    0.73
   1  -6   7    9.67    0.65
   1  -6   7    9.32    0.67
  -2   6  -7    1.56    0.46
  -2   6  -7    2.57    0.50
  -2   6  -7    3.51    0.46
   2  -6   7    3.74    0.52
   2  -6   7    2.30    0.46
   2  -6   7    2.36    0.52
   2  -6   7    2.74    0.55
   2  -6   7    3.06    0.57
  -3   6  -7    4.19    0.64
  -3   6  -7    3.60    0.62
  -3   6  -7    3.91    0.49
   3  -6   7    4.69    0.65
   3  -6   7    4.82    0.62
   3  -6   7    3.74    0.66
  -4   6  -7    7.59    0.89
  -4   6  -7    5.29    0.80
   4  -6   7    5.30    0.81
   4  -6   7    7.20    0.93
  -5   6  -7    1.39    0.72
  -5   6  -7    0.67    0.65
   5  -6   7   -0.45    0.72
   5   5  -7    2.66    0.81
   5   5  -7    2.77    0.91
   5   5  -7    2.15    0.74
  -5  -5   7    1.65    0.71
   4   5  -7    0.40    0.58
   4   5  -7    0.93    0.56
   4   5  -7    0.07    0.55
   4   5  -7    0.65    0.60
  -4  -5   7    0.10    0.57
  -4  -5   7   -0.28    0.50
  -4  -5   7   -0.97    0.50
   3   5  -7    9.27    0.81
   3   5  -7   10.55    0.58
   3   5  -7   10.70    0.90
   3   5  -7    9.01    0.82
   3   5  -7   11.37    0.87
  -3  -5   7   10.51    0.70
  -3  -5   7    9.42    0.85
  -3  -5   7    8.64    0.92
  -3  -5   7    9.37    0.85
   2   5  -7   29.65    1.07
   2   5  -7   29.06    1.07
   2   5  -7   29.53    1.10
   2   5  -7   29.83    1.07
   2   5  -7   28.86    0.89
  -2  -5   7   29.15    1.02
  -2  -5   7   28.72    1.12
  -2  -5   7   29.87    1.14
  -2  -5   7   30.12    1.14
   1   5  -7    9.53    0.51
   1   5  -7    9.39    0.59
   1   5  -7   10.63    0.58
   1   5  -7    8.59    0.58
   1   5  -7   10.69    0.61
   1   5  -7   10.73    0.47
  -1  -5   7    9.34    0.68
  -1  -5   7   10.32    0.67
  -1  -5   7    9.34    0.67
   0   5  -7    1.55    0.25
   0   5  -7    1.66    0.29
   0   5  -7    1.97    0.37
   0   5  -7    1.96    0.29
   0   5  -7    1.89    0.29
   0   5  -7    1.25    0.30
   0  -5   7    2.10    0.36
   0  -5   7    2.23    0.27
   0  -5   7    2.00    0.40
   0  -5   7    1.82    0.40
   0  -5   7    1.64    0.26
   0  -5   7    2.63    0.44
  -1   5  -7    1.55    0.24
  -1   5  -7    1.45    0.33
  -1   5  -7    1.83    0.27
  -1   5  -7    1.31    0.33
  -1   5  -7    0.98    0.34
   1  -5   7    1.34    0.36
   1  -5   7    1.47    0.14
   1  -5   7    1.69    0.43
   1  -5   7    2.38    0.36
   1  -5   7    1.96    0.44
   1  -5   7    1.53    0.38
  -2   5  -7    1.84    0.42
  -2   5  -7    1.92    0.34
  -2   5  -7    1.86    0.18
  -2   5  -7    2.27    0.43
   2  -5   7    2.08    0.46
   2  -5   7    1.77    0.46
   2  -5   7    1.96    0.45
   2  -5   7    1.63    0.50
  -3   5  -7   23.55    1.03
  -3   5  -7   20.60    1.02
  -3   5  -7   20.64    0.79
   3  -5   7   24.05    1.24
   3  -5   7   20.67    1.11
  -4   5  -7    1.27    0.58
  -4   5  -7    1.15    0.61
   4  -5   7    1.06    0.63
   4  -5   7    2.31    0.71
  -5   5  -7    0.64    0.66
  -5   5  -7    0.81    0.60
   5  -5   7   -0.91    0.66
   5   4  -7    2.56    0.77
   5   4  -7    2.77    0.76
   5   4  -7    2.86    0.74
   5   4  -7    1.41    0.71
   5   4  -7    1.98    0.62
  -5  -4   7    1.68    0.71
   4   4  -7    4.07    0.68
   4   4  -7    3.85    0.68
   4   4  -7    3.10    0.56
   4   4  -7    4.83    0.75
   4   4  -7    4.06    0.73
  -4  -4   7    3.96    0.73
  -4  -4   7    3.29    0.68
  -4  -4   7    3.70    0.66
   3   4  -7   12.89    0.86
   3   4  -7   12.70    0.84
   3   4  -7   13.02    0.89
   3   4  -7   12.89    0.93
  -3  -4   7   11.27    0.81
  -3  -4   7   13.57    0.89
  -3  -4   7   12.38    0.88
  -3  -4   7   12.61    0.65
   2   4  -7    2.23    0.16
   2   4  -7    2.84    0.47
   2   4  -7    2.40    0.35
   2   4  -7    1.90    0.40
   2   4  -7    2.35    0.44
   2   4  -7    2.26    0.43
  -2  -4   7    2.49    0.45
  -2  -4   7    2.57    0.45
  -2  -4   7    2.54    0.47
  -2  -4   7    2.89    0.40
   1   4  -7    1.64    0.33
   1   4  -7    2.11    0.27
   1   4  -7    1.99    0.35
   1   4  -7    2.09    0.36
   1   4  -7    2.38    0.37
   1   4  -7    2.51    0.33
  -1  -4   7    2.62    0.43
  -1  -4   7    1.50    0.37
  -1  -4   7    1.67    0.31
  -1  -4   7    1.79    0.39
   0   4  -7    3.22    0.38
   0   4  -7    3.32    0.33
   0   4  -7    2.93    0.29
   0   4  -7    3.02    0.26
   0   4  -7    3.10    0.37
   0   4  -7    3.07    0.36
   0   4  -7    2.80    0.24
   0  -4   7    2.78    0.39
   0  -4   7    2.87    0.31
   0  -4   7    3.39    0.43
   0  -4   7    3.12    0.27
   0  -4   7    2.70    0.43
   0  -4   7    2.59    0.40
  -1   4  -7    1.02    0.33
  -1   4  -7    1.18    0.21
  -1   4  -7    1.64    0.29
  -1   4  -7    1.15    0.22
  -1   4  -7    1.41    0.29
   1  -4   7    0.68    0.32
   1  -4   7    1.07    0.14
   1  -4   7    0.89    0.34
   1  -4   7    1.20    0.35
   1  -4   7    1.24    0.38
   1  -4   7    1.07    0.30
  -2   4  -7    8.50    0.36
  -2   4  -7    9.31    0.61
  -2   4  -7    8.57    0.63
  -2   4  -7    8.49    0.45
   2  -4   7    7.95    0.68
   2  -4   7    8.55    0.64
   2  -4   7    8.93    0.64
  -3   4  -7    0.40    0.40
  -3   4  -7    0.67    0.43
   3  -4   7    0.41    0.18
   3  -4   7   -0.25    0.45
   3  -4   7    0.27    0.45
  -4   4  -7    2.13    0.58
  -4   4  -7    1.62    0.57
   4  -4   7    1.19    0.63
   4  -4   7    1.96    0.73
  -5   4  -7    2.40    0.69
  -5   4  -7    2.12    0.73
   5  -4   7    3.40    0.87
   5  -4   7    1.39    0.83
   6   3  -7    2.49    0.90
   6   3  -7    1.69    0.79
   6   3  -7    1.93    0.77
   6   3  -7    2.36    0.84
  -6  -3   7    2.69    0.74
   5   3  -7    4.69    0.76
   5   3  -7    4.18    0.83
   5   3  -7    3.79    0.76
   5   3  -7    3.75    0.78
   5   3  -7    5.66    0.83
  -5  -3   7    3.24    0.74
  -5  -3   7    4.57    0.76
   4   3  -7   25.54    1.19
   4   3  -7   23.88    1.17
   4   3  -7   26.89    1.27
   4   3  -7   26.99    1.26
  -4  -3   7   26.00    1.22
  -4  -3   7   27.57    1.26
  -4  -3   7   26.38    1.19
   3   3  -7    0.06    0.40
   3   3  -7    0.02    0.40
   3   3  -7    0.31    0.44
   3   3  -7    0.13    0.37
  -3  -3   7    0.23    0.40
  -3  -3   7    0.01    0.23
  -3  -3   7    0.03    0.39
  -3  -3   7    0.28    0.37
   2   3  -7   26.56    0.91
   2   3  -7   28.38    0.89
   2   3  -7   26.66    0.99
   2   3  -7   26.10    0.94
   2   3  -7   28.17    0.47
   2   3  -7   28.02    0.94
  -2  -3   7   25.78    0.95
  -2  -3   7   27.36    0.79
  -2  -3   7   24.05    0.94
  -2  -3   7   27.78    0.93
   1   3  -7  153.07    2.68
   1   3  -7  151.23    2.44
   1   3  -7  150.55    2.68
   1   3  -7  151.67    2.61
   1   3  -7  151.16    2.69
   1   3  -7  147.68    2.60
  -1  -3   7  152.80    2.62
  -1  -3   7  144.70    2.73
  -1  -3   7  152.11    2.70
   0   3  -7    1.40    0.23
   0   3  -7    1.47    0.20
   0   3  -7    2.11    0.34
   0   3  -7    1.52    0.15
   0   3  -7    1.21    0.26
   0   3  -7    1.48    0.22
   0  -3   7    1.57    0.34
   0  -3   7    1.58    0.36
   0  -3   7    1.46    0.29
   0  -3   7    1.54    0.37
   0  -3   7    1.10    0.29
   0  -3   7    1.61    0.21
  -1   3  -7    2.79    0.41
  -1   3  -7    2.17    0.33
  -1   3  -7    2.33    0.28
  -1   3  -7    2.18    0.26
   1  -3   7    2.66    0.40
   1  -3   7    3.18    0.40
   1  -3   7    2.36    0.39
   1  -3   7    2.15    0.37
  -2   3  -7    0.23    0.31
  -2   3  -7   -0.11    0.18
   2  -3   7    0.19    0.35
   2  -3   7   -0.26    0.34
  -3   3  -7    2.78    0.49
  -3   3  -7    2.47    0.50
  -3   3  -7    2.24    0.25
   3  -3   7    1.84    0.51
   3  -3   7    2.31    0.55
  -4   3  -7    2.53    0.62
  -4   3  -7    2.42    0.60
   4  -3   7    2.28    0.67
   4  -3   7    2.60    0.68
  -5   3  -7    0.22    0.61
  -5   3  -7    0.22    0.59
   5  -3   7    0.91    0.73
   5  -3   7    0.00    0.66
  -6   3  -7   -0.97    0.60
  -6   3  -7    0.89    0.87
   6  -3   7    0.07    0.90
   6   2  -7   14.88    1.32
   6   2  -7   14.88    1.36
   6   2  -7   12.88    1.17
   6   2  -7   12.56    1.23
  -6  -2   7   11.13    1.10
   5   2  -7    0.01    0.54
   5   2  -7    0.55    0.57
   5   2  -7   -0.19    0.58
   5   2  -7   -0.29    0.59
   5   2  -7    0.95    0.59
  -5  -2   7    0.41    0.47
  -5  -2   7    0.49    0.54
  -5  -2   7   -0.24    0.48
   4   2  -7   62.07    1.86
   4   2  -7   62.87    1.85
   4   2  -7   62.30    1.79
   4   2  -7   62.83    1.78
  -4  -2   7   65.30    1.75
   3   2  -7    5.12    0.58
   3   2  -7    5.97    0.62
   3   2  -7    5.70    0.64
   3   2  -7    6.44    0.60
  -3  -2   7    5.45    0.59
  -3  -2   7    5.77    0.60
  -3  -2   7    5.29    0.55
  -3  -2   7    5.54    0.33
   2   2  -7   22.56    0.83
   2   2  -7   23.24    0.87
   2   2  -7   20.17    0.73
   2   2  -7   21.20    0.79
   2   2  -7   21.77    0.82
  -2  -2   7   21.57    0.83
  -2  -2   7   22.04    0.58
  -2  -2   7   22.59    0.85
  -2  -2   7   23.89    0.81
   1   2  -7   22.86    0.79
   1   2  -7   23.07    0.75
   1   2  -7   21.46    0.70
   1   2  -7   21.56    0.70
   1   2  -7   22.43    0.75
   1   2  -7   22.40    0.69
  -1  -2   7   22.57    0.68
  -1  -2   7   22.87    0.79
  -1  -2   7   21.68    0.68
  -1  -2   7   23.23    0.40
  -1  -2   7   22.06    0.44
  -1  -2   7   22.90    0.78
   0   2  -7   44.88    0.86
   0   2  -7   43.25    1.00
   0   2  -7   44.65    1.11
   0   2  -7   45.05    1.15
   0   2  -7   44.72    0.88
   0   2  -7   44.69    0.85
   0  -2   7   44.59    1.12
   0  -2   7   44.05    1.03
   0  -2   7   43.80    1.09
   0  -2   7   44.79    1.02
   0  -2   7   42.93    1.05
  -1   2  -7   48.64    0.90
  -1   2  -7   45.12    1.19
  -1   2  -7   46.70    1.06
   1  -2   7   48.68    1.21
   1  -2   7   47.43    1.19
   1  -2   7   47.07    1.15
   1  -2   7   46.34    1.22
  -2   2  -7    0.14    0.13
  -2   2  -7    0.44    0.32
  -2   2  -7    0.01    0.27
   2  -2   7   -0.10    0.36
   2  -2   7   -0.11    0.35
  -3   2  -7    0.47    0.41
  -3   2  -7    0.29    0.21
  -3   2  -7    0.36    0.32
   3  -2   7    0.20    0.45
   3  -2   7   -0.37    0.42
  -4   2  -7    0.03    0.43
  -4   2  -7   -0.07    0.48
   4  -2   7    1.11    0.59
   4  -2   7    0.39    0.35
   4  -2   7    0.35    0.55
  -5   2  -7    0.47    0.51
  -5   2  -7   -0.64    0.55
   5  -2   7    0.39    0.67
   5  -2   7   -0.64    0.65
  -6   2  -7    0.01    0.64
  -6   2  -7    0.14    0.72
   6  -2   7   -0.51    0.89
   6   1  -7    0.27    0.68
   6   1  -7   -0.92    0.77
   6   1  -7   -0.19    0.73
   6   1  -7    0.49    0.60
  -6  -1   7    1.04    0.71
   5   1  -7    1.72    0.66
   5   1  -7    1.28    0.63
   5   1  -7    2.25    0.67
   5   1  -7    1.78    0.67
  -5  -1   7    1.65    0.49
  -5  -1   7    2.19    0.55
  -5  -1   7    1.55    0.66
   4   1  -7   -0.57    0.40
   4   1  -7   -0.27    0.39
   4   1  -7   -0.12    0.47
   4   1  -7   -0.52    0.42
  -4  -1   7   -0.15    0.38
  -4  -1   7   -0.17    0.32
  -4  -1   7   -0.21    0.43
   3   1  -7    1.03    0.40
   3   1  -7    0.70    0.39
   3   1  -7    0.90    0.38
   3   1  -7    0.95    0.38
  -3  -1   7    0.98    0.41
  -3  -1   7    1.09    0.37
  -3  -1   7    0.52    0.33
  -3  -1   7    0.90    0.27
   2   1  -7  112.38    2.17
   2   1  -7  112.48    2.04
   2   1  -7  108.97    2.04
   2   1  -7  112.24    2.20
   2   1  -7  113.90    2.18
  -2  -1   7  111.45    1.90
  -2  -1   7  112.12    1.80
  -2  -1   7  111.96    2.06
  -2  -1   7  112.01    2.19
  -2  -1   7  113.39    1.73
  -2  -1   7  113.99    1.73
  -2  -1   7  115.43    2.19
   1   1  -7  286.19    4.54
   1   1  -7  286.32    4.49
   1   1  -7  285.77    4.60
   1   1  -7  284.75    4.55
   1   1  -7  283.66    4.37
   1   1  -7  288.86    4.48
  -1  -1   7  278.95    4.47
  -1  -1   7  277.71    4.36
  -1  -1   7  288.76    4.52
  -1  -1   7  277.40    4.27
  -1  -1   7  281.51    4.53
   0   1  -7    2.91    0.39
   0   1  -7    2.56    0.37
   0   1  -7    2.24    0.24
   0   1  -7    2.32    0.24
   0  -1   7    2.69    0.34
   0  -1   7    2.48    0.37
   0  -1   7    2.88    0.36
   0  -1   7    2.47    0.36
   0  -1   7    2.93    0.28
  -1   1  -7    0.14    0.10
  -1   1  -7    0.13    0.14
  -1   1  -7    0.21    0.31
  -1   1  -7   -0.19    0.26
  -1   1  -7   -0.02    0.29
   1  -1   7    0.50    0.33
   1  -1   7   -0.18    0.29
  -2   1  -7   15.62    0.52
  -2   1  -7   15.41    0.82
  -2   1  -7   14.29    0.71
   2  -1   7   14.38    0.78
   2  -1   7   14.16    0.78
  -3   1  -7    5.08    0.50
  -3   1  -7    3.94    0.39
  -3   1  -7    4.21    0.64
   3  -1   7    4.93    0.65
   3  -1   7    5.37    0.64
  -4   1  -7    6.37    0.77
  -4   1  -7    5.55    0.52
   4  -1   7    4.82    0.76
   4  -1   7    3.18    0.71
   4  -1   7    5.49    0.69
  -5   1  -7    7.38    0.93
  -5   1  -7    6.79    0.75
   5  -1   7    7.47    0.98
   5  -1   7    8.52    0.94
   5  -1   7    7.14    1.04
  -6   1  -7   -0.54    0.72
   6  -1   7   -0.67    0.80
   6   0  -7    0.92    0.73
   6   0  -7    1.00    0.70
   6   0  -7    0.55    0.80
   6   0  -7   -0.58    0.51
  -6   0   7    0.94    0.67
  -6   0   7   -0.32    1.01
   5   0  -7    5.88    0.78
   5   0  -7    7.08    0.81
   5   0  -7    6.18    0.83
   5   0  -7    6.16    0.89
  -5   0   7    6.61    0.86
  -5   0   7    6.63    0.71
   4   0  -7   33.99    1.18
   4   0  -7   31.32    1.26
   4   0  -7   32.80    1.22
   4   0  -7   29.26    1.22
  -4   0   7   30.80    1.01
  -4   0   7   33.08    1.32
  -4   0   7   30.41    1.01
   3   0  -7   10.05    0.72
   3   0  -7   11.52    0.67
   3   0  -7   13.02    0.74
   3   0  -7   11.80    0.74
   3   0  -7   11.23    0.46
  -3   0   7   11.93    0.52
  -3   0   7   11.93    0.60
   2   0  -7   22.52    0.80
   2   0  -7   24.03    0.85
   2   0  -7   23.12    0.68
   2   0  -7   23.65    0.80
   2   0  -7   22.74    0.69
  -2   0   7   22.74    0.78
  -2   0   7   23.46    0.56
  -2   0   7   23.68    0.81
  -2   0   7   23.76    0.69
  -2   0   7   22.37    0.67
   1   0  -7  272.65    4.37
   1   0  -7  263.55    4.32
   1   0  -7  273.42    4.03
   1   0  -7  272.22    4.08
   1   0  -7  271.62    4.35
   1   0  -7  276.65    4.44
   1   0  -7  274.73    4.32
  -1   0   7  265.54    4.25
  -1   0   7  272.59    4.21
  -1   0   7  267.87    4.08
  -1   0   7  279.47    4.31
   0   0  -7   29.70    0.86
   0   0  -7   29.57    0.89
   0   0  -7   28.59    0.82
   0   0   7   28.91    0.79
   0   0   7   28.93    0.69
   0   0   7   28.28    0.56
   0   0   7   29.76    0.88
   0   0   7   27.92    0.85
  -1   0  -7   52.73    1.31
  -1   0  -7   55.28    1.31
  -1   0  -7   56.15    1.33
   1   0   7   55.45    1.34
   1   0   7   53.89    1.32
  -2   0  -7   39.54    1.21
  -2   0  -7   38.18    0.95
  -2   0  -7   39.44    1.11
  -2   0  -7   38.22    1.19
   2   0   7   37.05    1.18
   2   0   7   38.04    1.17
  -3   0  -7   27.11    0.94
  -3   0  -7   27.94    1.17
  -3   0  -7   27.10    1.13
   3   0   7   27.90    1.09
   3   0   7   28.02    1.16
   3   0   7   24.17    1.09
  -4   0  -7    0.54    0.55
  -4   0  -7    0.51    0.32
  -4   0  -7    0.17    0.53
   4   0   7   -0.33    0.52
   4   0   7   -0.22    0.48
   4   0   7    0.24    0.54
  -5   0  -7    5.31    0.93
  -5   0  -7    4.78    0.70
  -5   0  -7    7.62    0.95
   5   0   7    4.85    0.92
   5   0   7    4.16    0.88
   5   0   7    5.92    0.97
   6  -1  -7    1.69    0.81
   6  -1  -7    0.98    0.73
   6  -1  -7   -0.71    0.79
   6  -1  -7    1.45    0.63
  -6   1   7    0.54    0.58
  -6   1   7   -0.13    0.68
   5  -1  -7    0.40    0.58
   5  -1  -7    0.56    0.56
   5  -1  -7    1.66    0.56
   5  -1  -7    1.74    0.60
  -5   1   7    1.28    0.51
  -5   1   7    1.55    0.67
   4  -1  -7   -0.17    0.42
   4  -1  -7    0.46    0.42
   4  -1  -7    0.05    0.39
   4  -1  -7    0.25    0.45
  -4   1   7    0.17    0.37
  -4   1   7   -0.27    0.43
  -4   1   7    0.04    0.25
   3  -1  -7   23.92    0.80
   3  -1  -7   22.27    0.90
   3  -1  -7   23.52    0.66
   3  -1  -7   22.88    0.95
   3  -1  -7   22.79    0.92
   3  -1  -7   23.52    0.86
  -3   1   7   24.23    0.77
  -3   1   7   23.17    0.84
  -3   1   7   23.76    0.69
  -3   1   7   23.13    0.97
   2  -1  -7  121.77    2.19
   2  -1  -7  120.73    2.31
   2  -1  -7  124.61    2.06
   2  -1  -7  121.40    2.36
   2  -1  -7  120.07    2.26
  -2   1   7  122.84    2.24
  -2   1   7  122.37    2.18
  -2   1   7  119.82    2.19
  -2   1   7  122.29    2.04
   1  -1  -7  153.82    2.71
   1  -1  -7  157.45    2.78
   1  -1  -7  159.96    2.51
   1  -1  -7  150.69    2.71
  -1   1   7  156.17    2.58
  -1   1   7  154.71    2.53
  -1   1   7  156.05    2.63
  -1   1   7  157.32    2.53
   0  -1  -7   19.20    0.75
   0  -1  -7   19.83    0.72
   0  -1  -7   20.97    0.69
   0   1   7   20.63    0.55
   0   1   7   20.25    0.47
   0   1   7   19.85    0.46
   0   1   7   19.63    0.71
   0   1   7   19.69    0.64
   0   1   7   18.44    0.72
  -1  -1  -7    6.77    0.57
  -1  -1  -7    8.84    0.57
  -1  -1  -7    7.51    0.58
  -1  -1  -7    7.98    0.61
   1   1   7    7.68    0.45
   1   1   7    7.26    0.53
   1   1   7    6.89    0.56
  -2  -1  -7   42.00    1.22
  -2  -1  -7   44.02    1.20
  -2  -1  -7   46.47    1.36
  -2  -1  -7   42.72    1.29
   2   1   7   43.76    0.81
   2   1   7   44.29    1.30
   2   1   7   43.60    1.24
  -3  -1  -7   19.83    1.07
  -3  -1  -7   17.67    0.84
  -3  -1  -7   17.67    1.00
   3   1   7   19.68    0.99
   3   1   7   17.90    1.01
   3   1   7   18.55    0.99
  -4  -1  -7    7.61    0.84
  -4  -1  -7    7.47    0.62
  -4  -1  -7    8.39    0.92
   4   1   7    7.89    0.90
   4   1   7    7.59    0.87
   4   1   7    8.16    0.87
  -5  -1  -7   10.20    1.14
  -5  -1  -7    8.78    0.99
   5   1   7    5.51    0.94
   5   1   7    6.87    0.97
   5   1   7    7.68    1.10
   6  -2  -7    0.88    0.88
   6  -2  -7    0.30    0.72
   6  -2  -7    0.26    0.64
  -6   2   7    0.25    0.62
  -6   2   7    1.77    0.79
   5  -2  -7   11.53    0.88
   5  -2  -7   10.58    0.99
   5  -2  -7    8.87    0.90
   5  -2  -7    9.86    0.96
  -5   2   7   10.87    0.87
  -5   2   7   11.76    1.02
   4  -2  -7    0.83    0.48
   4  -2  -7    0.80    0.46
   4  -2  -7    0.00    0.39
   4  -2  -7    0.63    0.48
  -4   2   7    0.52    0.49
  -4   2   7    0.54    0.41
   3  -2  -7    7.09    0.64
   3  -2  -7    6.80    0.60
   3  -2  -7    6.48    0.59
   3  -2  -7    7.08    0.55
   3  -2  -7    8.08    0.51
   3  -2  -7    6.48    0.44
  -3   2   7    7.17    0.31
  -3   2   7    6.36    0.62
  -3   2   7    8.02    0.55
  -3   2   7    6.26    0.58
   2  -2  -7   78.30    1.62
   2  -2  -7   78.01    1.32
   2  -2  -7   75.97    1.67
   2  -2  -7   79.89    1.74
   2  -2  -7   78.76    1.39
   2  -2  -7   79.65    1.61
  -2   2   7   76.58    1.63
  -2   2   7   76.73    1.47
  -2   2   7   78.85    1.50
  -2   2   7   78.36    1.72
   1  -2  -7    0.58    0.28
   1  -2  -7    0.95    0.37
   1  -2  -7    1.18    0.26
  -1   2   7    0.73    0.29
  -1   2   7    0.85    0.24
  -1   2   7    0.83    0.20
  -1   2   7    1.15    0.32
   0  -2  -7    4.39    0.43
   0  -2  -7    4.34    0.51
   0  -2  -7    3.75    0.40
   0  -2  -7    4.17    0.42
   0   2   7    4.26    0.33
   0   2   7    4.52    0.25
   0   2   7    3.44    0.39
   0   2   7    4.77    0.46
   0   2   7    4.50    0.31
  -1  -2  -7    1.29    0.37
  -1  -2  -7    1.65    0.40
  -1  -2  -7    1.14    0.29
  -1  -2  -7    1.56    0.39
   1   2   7    1.36    0.18
   1   2   7    1.32    0.26
   1   2   7    1.33    0.36
   1   2   7    0.99    0.30
  -2  -2  -7   11.12    0.68
  -2  -2  -7   12.06    0.78
  -2  -2  -7   12.79    0.79
   2   2   7   13.17    0.75
   2   2   7   12.32    0.35
   2   2   7   12.34    0.79
  -3  -2  -7    2.97    0.61
  -3  -2  -7    2.70    0.51
  -3  -2  -7    1.58    0.58
   3   2   7    1.59    0.53
   3   2   7    2.92    0.52
   3   2   7    1.89    0.55
  -4  -2  -7    3.95    0.75
  -4  -2  -7    3.16    0.74
   4   2   7    3.32    0.71
   4   2   7    3.64    0.64
   4   2   7    3.77    0.76
  -5  -2  -7    0.91    0.65
  -5  -2  -7    1.02    0.86
   5   2   7   -0.27    0.68
   5   2   7   -0.09    0.62
   5   2   7   -1.38    0.65
   6  -3  -7    0.11    0.71
   6  -3  -7   -0.36    0.75
   6  -3  -7   -0.44    0.64
  -6   3   7   -0.87    0.61
  -6   3   7   -0.73    0.60
   5  -3  -7    0.36    0.55
   5  -3  -7    0.88    0.45
   5  -3  -7    0.04    0.61
   5  -3  -7    0.13    0.54
  -5   3   7   -0.29    0.43
  -5   3   7    0.94    0.60
   4  -3  -7   13.99    0.89
   4  -3  -7   14.37    0.90
   4  -3  -7   13.81    0.94
   4  -3  -7   13.37    0.75
  -4   3   7   14.19    0.84
  -4   3   7   12.57    0.93
   3  -3  -7   20.52    0.79
   3  -3  -7   19.83    0.94
   3  -3  -7   21.42    0.71
   3  -3  -7   19.75    0.88
   3  -3  -7   18.67    0.73
   3  -3  -7   19.31    0.53
  -3   3   7   17.15    0.90
  -3   3   7   18.63    0.79
  -3   3   7   20.12    0.91
   2  -3  -7   21.47    0.77
   2  -3  -7   21.90    0.88
   2  -3  -7   21.03    0.62
   2  -3  -7   22.04    0.80
  -2   3   7   22.10    0.82
  -2   3   7   20.65    0.77
  -2   3   7   21.43    0.75
  -2   3   7   21.23    0.85
   1  -3  -7   10.36    0.26
   1  -3  -7   10.33    0.57
   1  -3  -7   11.38    0.54
   1  -3  -7   11.24    0.68
  -1   3   7   10.05    0.52
  -1   3   7   11.09    0.37
  -1   3   7   10.86    0.59
  -1   3   7   10.52    0.57
   0  -3  -7    5.99    0.56
   0  -3  -7    6.08    0.32
   0  -3  -7    6.61    0.50
   0  -3  -7    6.56    0.55
   0  -3  -7    5.97    0.49
   0   3   7    6.07    0.30
   0   3   7    6.17    0.46
   0   3   7    6.27    0.40
   0   3   7    6.13    0.38
   0   3   7    6.57    0.52
  -1  -3  -7    1.42    0.41
  -1  -3  -7    1.17    0.29
  -1  -3  -7    0.88    0.38
  -1  -3  -7    0.65    0.39
   1   3   7    1.01    0.34
   1   3   7    1.17    0.28
   1   3   7    0.50    0.31
   1   3   7    0.89    0.21
  -2  -3  -7    0.87    0.43
  -2  -3  -7    0.18    0.46
  -2  -3  -7    0.04    0.41
   2   3   7    0.14    0.18
   2   3   7    0.50    0.35
   2   3   7   -0.32    0.33
  -3  -3  -7    3.39    0.66
  -3  -3  -7    4.74    0.62
  -3  -3  -7    3.84    0.71
   3   3   7    4.46    0.59
   3   3   7    4.24    0.70
   3   3   7    2.43    0.59
  -4  -3  -7    3.29    0.75
  -4  -3  -7    4.07    0.84
   4   3   7    3.52    0.77
   4   3   7    3.91    0.69
   4   3   7    4.28    0.84
  -5  -3  -7    1.60    0.84
  -5  -3  -7    1.54    0.83
   5   3   7    1.79    0.81
   5   3   7    0.84    0.81
   6  -4  -7    0.46    0.71
  -6   4   7   -0.40    0.67
  -6   4   7   -0.02    0.66
   5  -4  -7    2.23    0.66
   5  -4  -7    1.44    0.65
   5  -4  -7    2.45    0.61
  -5   4   7    0.89    0.59
  -5   4   7    2.10    0.75
   4  -4  -7   13.24    0.95
   4  -4  -7   13.15    0.85
   4  -4  -7   12.51    0.73
   4  -4  -7   12.49    0.88
   4  -4  -7   11.30    0.99
  -4   4   7   12.87    0.88
  -4   4   7   12.47    0.97
  -4   4   7   13.43    0.97
   3  -4  -7    0.50    0.24
   3  -4  -7    0.04    0.29
   3  -4  -7    0.64    0.39
   3  -4  -7    0.02    0.29
   3  -4  -7    0.59    0.43
  -3   4   7    0.10    0.45
  -3   4   7    0.21    0.37
  -3   4   7    0.24    0.43
   2  -4  -7    7.89    0.50
   2  -4  -7    8.31    0.56
   2  -4  -7    9.08    0.66
   2  -4  -7    8.60    0.59
   2  -4  -7    8.85    0.41
  -2   4   7    9.34    0.32
  -2   4   7    9.20    0.60
  -2   4   7    8.85    0.64
  -2   4   7    8.11    0.62
   1  -4  -7    0.07    0.25
   1  -4  -7   -0.11    0.14
   1  -4  -7    0.12    0.33
   1  -4  -7    0.23    0.26
  -1   4   7   -0.06    0.29
  -1   4   7    0.36    0.26
  -1   4   7    0.34    0.28
  -1   4   7    0.04    0.10
  -1   4   7    0.06    0.30
   0  -4  -7    6.38    0.53
   0  -4  -7    5.60    0.46
   0  -4  -7    6.10    0.38
   0  -4  -7    6.17    0.61
   0  -4  -7    6.38    0.59
   0   4   7    7.00    0.37
   0   4   7    6.66    0.39
   0   4   7    6.50    0.51
   0   4   7    5.74    0.42
  -1  -4  -7    0.61    0.25
  -1  -4  -7    0.25    0.31
  -1  -4  -7    0.54    0.42
  -1  -4  -7    0.39    0.45
  -1  -4  -7    0.76    0.41
   1   4   7    0.91    0.27
   1   4   7    0.33    0.27
   1   4   7    0.49    0.36
   1   4   7    0.76    0.25
  -2  -4  -7   15.44    1.03
  -2  -4  -7   17.26    0.96
  -2  -4  -7   15.11    1.00
   2   4   7   15.61    0.58
   2   4   7   15.43    0.87
   2   4   7   15.87    0.73
  -3  -4  -7   -0.03    0.48
  -3  -4  -7    0.05    0.58
  -3  -4  -7    0.38    0.58
   3   4   7   -0.22    0.39
   3   4   7    0.28    0.49
   3   4   7    0.38    0.52
  -4  -4  -7    0.09    0.70
  -4  -4  -7   -0.76    0.62
   4   4   7   -0.03    0.66
   4   4   7   -0.68    0.66
  -5  -4  -7    0.42    0.71
  -5  -4  -7    0.25    0.86
   5   4   7    1.25    0.81
   5   4   7    0.81    0.85
   6  -5  -7    1.99    0.74
  -6   5   7    1.58    0.85
  -6   5   7    0.67    0.67
   5  -5  -7   17.50    1.23
   5  -5  -7   17.13    1.26
   5  -5  -7   16.72    1.14
  -5   5   7   16.56    1.27
  -5   5   7   17.81    1.10
   4  -5  -7    3.66    0.65
   4  -5  -7    4.26    0.52
   4  -5  -7    4.83    0.59
   4  -5  -7    5.44    0.51
   4  -5  -7    6.45    0.78
  -4   5   7    5.36    0.76
  -4   5   7    4.82    0.76
  -4   5   7    5.12    0.72
   3  -5  -7   20.93    0.79
   3  -5  -7   20.51    0.97
   3  -5  -7   21.49    0.78
   3  -5  -7   20.75    1.03
   3  -5  -7   19.26    0.91
  -3   5   7   21.51    1.05
  -3   5   7   20.89    0.99
  -3   5   7   20.71    1.00
  -3   5   7   20.01    1.00
   2  -5  -7   33.37    0.85
   2  -5  -7   33.93    1.02
   2  -5  -7   33.92    1.14
  -2   5   7   33.30    1.15
  -2   5   7   33.93    1.14
  -2   5   7   33.50    1.10
  -2   5   7   33.81    1.10
   1  -5  -7    0.47    0.14
   1  -5  -7    0.68    0.29
   1  -5  -7    0.40    0.34
   1  -5  -7   -0.18    0.18
   1  -5  -7    0.73    0.39
  -1   5   7    0.03    0.32
  -1   5   7    0.38    0.33
  -1   5   7    0.81    0.36
  -1   5   7    0.08    0.32
   0  -5  -7    4.13    0.40
   0  -5  -7    4.08    0.55
   0  -5  -7    4.34    0.55
   0  -5  -7    4.50    0.60
   0  -5  -7    3.98    0.37
   0   5   7    4.14    0.35
   0   5   7    4.87    0.48
   0   5   7    4.65    0.37
   0   5   7    4.33    0.51
   0   5   7    4.11    0.51
  -1  -5  -7    4.33    0.64
  -1  -5  -7    3.02    0.43
  -1  -5  -7    3.18    0.58
  -1  -5  -7    3.80    0.37
  -1  -5  -7    2.88    0.59
   1   5   7    3.27    0.47
   1   5   7    3.15    0.40
  -2  -5  -7    0.24    0.50
  -2  -5  -7   -0.30    0.52
  -2  -5  -7    0.60    0.54
   2   5   7    1.28    0.34
   2   5   7   -0.30    0.39
   2   5   7    0.28    0.29
  -3  -5  -7   -0.05    0.61
  -3  -5  -7    1.50    0.72
  -3  -5  -7    0.75    0.55
   3   5   7    0.17    0.55
   3   5   7    0.62    0.54
  -4  -5  -7    0.97    0.78
  -4  -5  -7   -0.45    0.86
   4   5   7    0.73    0.68
   4   5   7    0.81    0.73
   6  -6  -7    4.65    0.85
  -6   6   7    3.74    0.85
  -6   6   7    5.42    1.09
   5  -6  -7    2.92    0.81
   5  -6  -7    3.90    0.76
  -5   6   7    2.95    0.80
  -5   6   7    3.69    0.82
   4  -6  -7    0.78    0.59
   4  -6  -7   -0.24    0.37
   4  -6  -7    0.03    0.47
  -4   6   7    0.95    0.53
  -4   6   7    0.18    0.57
  -4   6   7   -0.02    0.51
   3  -6  -7   -0.02    0.33
   3  -6  -7    0.22    0.30
   3  -6  -7    0.55    0.46
   3  -6  -7    0.16    0.31
   3  -6  -7   -0.64    0.34
  -3   6   7    0.60    0.49
  -3   6   7    0.16    0.50
  -3   6   7    0.13    0.44
  -3   6   7    0.13    0.44
   2  -6  -7   -0.31    0.24
   2  -6  -7    0.38    0.46
   2  -6  -7   -0.52    0.29
  -2   6   7   -0.26    0.38
  -2   6   7    0.00    0.37
  -2   6   7   -0.14    0.41
  -2   6   7   -0.14    0.38
   1  -6  -7    5.94    0.30
   1  -6  -7    4.84    0.69
   1  -6  -7    6.25    0.45
   1  -6  -7    6.01    0.54
   1  -6  -7    6.02    0.63
  -1   6   7    5.54    0.56
  -1   6   7    5.62    0.60
  -1   6   7    5.41    0.55
  -1   6   7    5.19    0.61
   0  -6  -7   10.89    0.61
   0  -6  -7    9.55    0.54
   0  -6  -7   11.94    0.87
   0  -6  -7   11.61    0.82
   0  -6  -7   11.81    0.80
   0   6   7   10.11    0.60
   0   6   7   10.67    0.76
   0   6   7    8.74    0.61
   0   6   7    9.60    0.72
  -1  -6  -7    7.78    0.82
  -1  -6  -7    8.66    0.84
  -1  -6  -7    9.28    0.84
  -1  -6  -7    8.31    0.64
   1   6   7    7.13    0.68
   1   6   7    8.70    0.70
   1   6   7    8.95    0.61
  -2  -6  -7    1.22    0.60
  -2  -6  -7    0.61    0.60
  -2  -6  -7    1.40    0.47
  -2  -6  -7    0.95    0.60
   2   6   7    0.34    0.36
   2   6   7    1.11    0.46
  -3  -6  -7    1.79    0.77
  -3  -6  -7   -0.06    0.59
  -3  -6  -7    1.56    0.77
   3   6   7    0.82    0.54
  -4  -6  -7   -0.93    0.80
  -4  -6  -7   -0.56    0.79
   5  -7  -7    1.40    0.62
   5  -7  -7    1.40    0.66
  -5   7   7    0.69    0.75
  -5   7   7    0.20    0.72
   4  -7  -7   10.69    0.85
   4  -7  -7   13.42    1.06
   4  -7  -7   11.88    1.00
  -4   7   7   10.99    1.00
  -4   7   7   11.39    1.09
  -4   7   7   11.48    1.05
   3  -7  -7    3.98    0.68
   3  -7  -7    4.90    0.53
   3  -7  -7    4.10    0.56
   3  -7  -7    4.63    0.62
  -3   7   7    4.68    0.71
  -3   7   7    4.46    0.72
  -3   7   7    4.50    0.66
   2  -7  -7    3.14    0.42
   2  -7  -7    3.94    0.40
   2  -7  -7    3.76    0.67
   2  -7  -7    4.11    0.58
  -2   7   7    2.64    0.58
  -2   7   7    3.02    0.57
  -2   7   7    3.83    0.59
  -2   7   7    3.74    0.58
   1  -7  -7    0.93    0.33
   1  -7  -7    1.36    0.42
   1  -7  -7    0.40    0.49
   1  -7  -7    0.66    0.45
  -1   7   7    0.58    0.43
  -1   7   7    0.94    0.46
  -1   7   7    0.14    0.39
  -1   7   7   -0.29    0.41
   0  -7  -7    2.84    0.59
   0  -7  -7    4.03    0.50
   0  -7  -7    3.08    0.60
   0  -7  -7    3.87    0.69
   0   7   7    3.78    0.56
   0   7   7    3.93    0.53
   0   7   7    2.95    0.55
  -1  -7  -7    3.14    0.71
  -1  -7  -7    1.73    0.62
  -1  -7  -7    2.31    0.50
  -1  -7  -7    1.80    0.66
   1   7   7    1.49    0.50
   1   7   7    1.78    0.46
   1   7   7    1.38    0.56
  -2  -7  -7    2.47    0.76
  -2  -7  -7    1.68    0.73
  -2  -7  -7    3.24    0.86
  -2  -7  -7    1.80    0.58
   2   7   7    2.20    0.50
   2   7   7    1.76    0.46
  -3  -7  -7   21.87    1.38
  -3  -7  -7   25.06    1.75
  -3  -7  -7   20.91    1.62
  -4  -7  -7    1.65    1.10
  -4  -7  -7    0.04    0.95
   5  -8  -7    2.60    0.69
  -5   8   7    0.21    0.82
  -5   8   7    1.30    0.74
   4  -8  -7    5.68    0.88
   4  -8  -7    6.33    0.85
   4  -8  -7    6.38    0.76
  -4   8   7    4.40    0.83
  -4   8   7    5.97    0.91
   3  -8  -7    0.92    0.57
   3  -8  -7    1.54    0.46
   3  -8  -7    1.55    0.58
  -3   8   7    1.53    0.68
  -3   8   7    1.10    0.66
  -3   8   7    1.44    0.60
   2  -8  -7    7.41    0.78
   2  -8  -7    5.49    0.83
  -2   8   7    6.60    0.78
  -2   8   7    7.29    0.74
  -2   8   7    6.98    0.78
  -2   8   7    6.44    0.79
   1  -8  -7   -0.22    0.54
   1  -8  -7    0.40    0.43
   1  -8  -7    0.44    0.34
   1  -8  -7    0.66    0.49
  -1   8   7    0.39    0.45
  -1   8   7    0.24    0.51
  -1   8   7    0.07    0.50
   0  -8  -7   14.07    1.07
   0  -8  -7   15.32    1.14
   0  -8  -7   13.98    1.01
   0  -8  -7   16.66    0.88
   0   8   7   15.55    0.94
   0   8   7   17.38    0.92
   0   8   7   15.11    0.96
  -1  -8  -7    0.08    0.61
  -1  -8  -7    0.13    0.44
  -1  -8  -7    0.45    0.66
  -1  -8  -7   -0.20    0.56
   1   8   7    0.31    0.45
   1   8   7    0.13    0.48
   1   8   7   -0.14    0.51
  -2  -8  -7    2.28    0.82
  -2  -8  -7    2.64    0.87
  -2  -8  -7    2.96    0.66
  -2  -8  -7    2.71    0.85
   2   8   7    3.28    0.58
   2   8   7    2.38    0.64
  -3  -8  -7    9.66    1.11
  -3  -8  -7   11.91    1.41
  -3  -8  -7   12.08    1.36
   4  -9  -7   19.49    1.21
   4  -9  -7   18.61    1.33
   4  -9  -7   20.51    1.37
   4  -9  -7   18.91    1.17
  -4   9   7   22.99    1.49
  -4   9   7   20.07    1.53
   3  -9  -7   -0.66    0.59
   3  -9  -7    0.34    0.45
   3  -9  -7    0.26    0.59
  -3   9   7    0.00    0.59
  -3   9   7    0.41    0.65
  -3   9   7    0.05    0.65
  -3   9   7   -0.92    0.53
   2  -9  -7    3.00    0.73
   2  -9  -7    2.67    0.65
  -2   9   7    5.05    0.77
  -2   9   7    1.91    0.64
  -2   9   7    4.59    0.78
  -2   9   7    3.03    0.65
   1  -9  -7   11.15    1.10
   1  -9  -7   10.34    1.00
  -1   9   7   11.71    0.94
  -1   9   7   12.15    1.00
  -1   9   7   11.82    0.97
   0  -9  -7    1.16    0.57
   0  -9  -7    1.85    0.71
   0  -9  -7    3.34    0.83
   0   9   7    2.24    0.60
   0   9   7    3.06    0.65
   0   9   7    0.44    0.53
  -1  -9  -7    3.17    0.86
  -1  -9  -7    4.65    0.93
  -1  -9  -7    3.11    0.86
  -1  -9  -7    3.29    0.90
   1   9   7    3.66    0.70
   1   9   7    4.01    0.75
   1   9   7    5.12    0.72
  -2  -9  -7   10.14    1.16
  -2  -9  -7    8.69    1.17
  -2  -9  -7   12.43    1.32
   2   9   7   11.53    1.08
   2   9   7   10.36    0.87
   2   9   7    9.25    0.99
  -3  -9  -7    1.03    0.93
  -3  -9  -7   -1.02    0.77
  -3  -9  -7    1.19    1.11
   4 -10  -7    2.16    0.73
   4 -10  -7    2.51    0.70
  -4  10   7    0.69    0.78
  -4  10   7    0.49    0.68
  -4  10   7    0.84    0.89
   3 -10  -7    1.54    0.59
   3 -10  -7    1.68    0.75
  -3  10   7    0.87    0.67
  -3  10   7   -0.48    0.59
  -3  10   7    0.81    0.72
  -3  10   7   -0.37    0.69
   2 -10  -7    0.75    0.65
   2 -10  -7    1.74    0.80
  -2  10   7    0.65    0.62
  -2  10   7   -0.04    0.62
  -2  10   7    1.32    0.62
   1 -10  -7    2.25    0.84
   1 -10  -7    1.01    0.78
  -1  10   7    2.65    0.65
  -1  10   7    1.80    0.71
  -1  10   7    2.40    0.70
   0 -10  -7    0.14    0.64
   0 -10  -7    0.39    0.82
   0 -10  -7    0.29    0.67
   0  10   7   -0.02    0.58
   0  10   7   -0.04    0.56
   0  10   7    0.89    0.58
  -1 -10  -7    3.11    0.96
  -1 -10  -7    3.53    0.97
  -1 -10  -7    2.02    0.82
   1  10   7    3.06    0.74
   1  10   7    1.76    0.69
   1  10   7    3.81    0.83
  -2 -10  -7    1.51    0.83
  -2 -10  -7    2.68    0.97
  -2 -10  -7   -0.51    0.80
   2  10   7    1.28    0.77
   2  10   7    1.46    0.72
   3 -11  -7    0.51    0.80
   3 -11  -7    1.85    0.66
  -3  11   7    0.41    0.73
  -3  11   7    1.00    0.77
  -3  11   7    1.11    0.70
   2 -11  -7    1.65    0.89
   2 -11  -7    1.19    0.67
  -2  11   7    2.58    0.82
  -2  11   7    1.68    0.71
  -2  11   7    1.21    0.68
   1 -11  -7   12.50    1.35
   1 -11  -7    7.07    1.04
  -1  11   7    7.92    0.96
  -1  11   7    9.42    1.07
  -1  11   7    7.55    0.99
   0 -11  -7    0.37    0.77
   0 -11  -7    0.31    0.90
   0  11   7    0.05    0.69
   0  11   7    0.68    0.70
   0  11   7    1.44    0.69
  -1 -11  -7    0.57    0.80
  -1 -11  -7   -0.22    0.90
  -1 -11  -7   -0.50    0.74
   1  11   7    0.77    0.66
   1  11   7   -0.20    0.69
   1  11   7    0.30    0.67
   0  12  -8    0.71    0.70
   0 -12   8   -0.59    0.71
   0 -12   8   -0.44    0.83
   0 -12   8   -0.63    0.67
  -1  12  -8    0.69    0.68
  -1  12  -8    0.00    0.66
   1 -12   8   -0.61    0.68
   1 -12   8    0.10    0.76
   2  11  -8    4.23    0.97
   2  11  -8    3.99    0.80
  -2 -11   8    2.73    0.83
  -2 -11   8    3.92    1.02
  -2 -11   8    1.62    0.87
   1  11  -8    4.47    0.72
   1  11  -8    3.28    0.87
  -1 -11   8    4.75    1.01
  -1 -11   8    5.94    1.07
  -1 -11   8    3.26    0.89
  -1 -11   8    6.25    0.91
   0  11  -8    5.86    0.76
   0  11  -8    5.43    0.90
   0  11  -8    5.55    0.72
   0 -11   8    5.13    0.91
   0 -11   8    5.17    0.80
   0 -11   8    3.46    0.93
  -1  11  -8    0.36    0.62
  -1  11  -8    1.12    0.58
   1 -11   8    0.90    0.78
  -2  11  -8    0.16    0.59
  -2  11  -8   -0.27    0.66
   2 -11   8   -0.06    0.70
  -3  11  -8   11.85    1.12
  -3  11  -8   11.14    1.27
  -3  11  -8   13.51    1.27
   3 -11   8    9.50    1.20
   3  10  -8    1.57    0.71
  -3 -10   8    0.27    0.87
  -3 -10   8    1.10    0.78
  -3 -10   8    0.63    0.80
   2  10  -8    7.69    0.96
   2  10  -8    7.71    0.89
  -2 -10   8    7.61    1.02
  -2 -10   8    6.23    1.03
  -2 -10   8    3.98    0.96
   1  10  -8    0.67    0.69
   1  10  -8    0.64    0.52
  -1 -10   8    1.02    0.72
  -1 -10   8    0.53    0.67
  -1 -10   8    1.23    0.60
  -1 -10   8    1.50    0.86
  -1 -10   8    0.16    0.64
   0  10  -8    6.10    0.69
   0  10  -8    6.09    0.81
   0  10  -8    4.67    0.64
   0 -10   8    5.40    0.94
   0 -10   8    5.60    0.77
   0 -10   8    5.38    0.93
  -1  10  -8    1.08    0.47
  -1  10  -8    0.51    0.63
  -1  10  -8    1.46    0.56
   1 -10   8    0.93    0.66
   1 -10   8    0.61    0.65
   1 -10   8    0.28    0.52
  -2  10  -8    1.43    0.51
  -2  10  -8    1.44    0.62
  -2  10  -8    1.49    0.60
   2 -10   8    1.92    0.72
   2 -10   8    0.39    0.66
  -3  10  -8    4.21    0.72
  -3  10  -8    3.16    0.82
  -3  10  -8    2.94    0.78
   3 -10   8    3.14    0.84
   3   9  -8    1.62    0.71
   3   9  -8    1.58    0.71
  -3  -9   8    1.25    0.81
  -3  -9   8    1.83    0.78
  -3  -9   8    1.86    0.89
   2   9  -8    0.74    0.52
   2   9  -8   -0.30    0.47
   2   9  -8    1.00    0.61
  -2  -9   8   -0.43    0.63
  -2  -9   8    1.01    0.64
  -2  -9   8   -1.05    0.55
  -2  -9   8    0.85    0.64
  -2  -9   8   -0.43    0.61
   1   9  -8   12.92    0.91
   1   9  -8   13.31    0.75
   1   9  -8   11.30    0.97
   1   9  -8   15.37    0.87
  -1  -9   8   13.39    1.06
  -1  -9   8   11.85    1.13
  -1  -9   8   14.38    1.18
  -1  -9   8   12.35    1.10
  -1  -9   8   11.28    1.11
   0   9  -8    5.70    0.65
   0   9  -8    5.29    0.55
   0   9  -8    5.32    0.72
   0   9  -8    5.70    0.59
   0  -9   8    5.86    0.77
   0  -9   8    5.95    0.85
   0  -9   8    6.01    0.82
  -1   9  -8    0.19    0.37
  -1   9  -8   -0.10    0.52
  -1   9  -8    0.06    0.45
   1  -9   8    0.35    0.62
   1  -9   8    0.20    0.56
   1  -9   8    0.48    0.47
  -2   9  -8   11.65    0.93
  -2   9  -8    9.58    0.93
  -2   9  -8    9.36    0.98
  -2   9  -8   11.64    0.80
   2  -9   8   11.61    1.10
   2  -9   8   10.88    1.06
   2  -9   8   10.53    0.88
   2  -9   8   10.30    0.85
  -3   9  -8    1.01    0.62
  -3   9  -8    1.24    0.59
  -3   9  -8    2.30    0.71
   3  -9   8    0.76    0.75
   3  -9   8    2.11    0.82
   3  -9   8    0.73    0.59
   3  -9   8    1.61    0.68
  -4   9  -8   11.49    1.20
  -4   9  -8   11.76    1.22
   4  -9   8   11.95    1.25
   4  -9   8   12.83    1.16
   4   8  -8   -0.86    0.72
   4   8  -8    0.07    0.64
  -4  -8   8   -0.51    0.71
  -4  -8   8    0.32    0.71
   3   8  -8    6.45    0.86
   3   8  -8    5.83    0.80
   3   8  -8    4.91    0.81
  -3  -8   8    5.94    0.90
  -3  -8   8    5.94    0.86
  -3  -8   8    7.48    0.98
  -3  -8   8    4.82    0.92
   2   8  -8    3.84    0.67
   2   8  -8    4.03    0.63
   2   8  -8    4.10    0.70
  -2  -8   8    3.35    0.71
  -2  -8   8    5.45    0.81
  -2  -8   8    4.08    0.77
  -2  -8   8    3.56    0.78
  -2  -8   8    3.85    0.74
   1   8  -8    4.52    0.51
   1   8  -8    3.76    0.51
   1   8  -8    3.98    0.61
   1   8  -8    4.11    0.54
   1   8  -8    4.37    0.58
  -1  -8   8    4.02    0.72
  -1  -8   8    3.83    0.65
  -1  -8   8    4.55    0.73
   0   8  -8    6.59    0.57
   0   8  -8    5.92    0.54
   0   8  -8    5.46    0.56
   0   8  -8    5.29    0.65
   0  -8   8    6.48    0.79
   0  -8   8    5.76    0.50
   0  -8   8    6.44    0.76
   0  -8   8    6.42    0.73
  -1   8  -8    5.46    0.52
  -1   8  -8    6.10    0.71
  -1   8  -8    6.23    0.69
   1  -8   8    5.56    0.76
   1  -8   8    5.29    0.60
   1  -8   8    5.89    0.69
   1  -8   8    6.12    0.77
  -2   8  -8    0.08    0.51
  -2   8  -8   -0.73    0.48
  -2   8  -8   -0.27    0.45
  -2   8  -8   -0.02    0.35
   2  -8   8    0.39    0.44
   2  -8   8    0.60    0.56
   2  -8   8    0.73    0.54
   2  -8   8    0.41    0.49
   2  -8   8    0.58    0.46
  -3   8  -8    0.04    0.48
  -3   8  -8    0.41    0.55
  -3   8  -8   -0.13    0.54
   3  -8   8    0.85    0.58
   3  -8   8    0.66    0.58
   3  -8   8    0.48    0.59
   3  -8   8   -0.08    0.51
   3  -8   8    0.98    0.56
  -4   8  -8    1.70    0.69
  -4   8  -8    0.54    0.64
   4  -8   8    1.80    0.69
   4  -8   8    0.99    0.71
   4  -8   8    2.44    0.68
   4  -8   8    1.42    0.71
   4   7  -8    2.29    0.79
   4   7  -8    0.84    0.69
   4   7  -8    2.01    0.70
   4   7  -8    2.52    0.81
  -4  -7   8   -0.28    0.66
  -4  -7   8    1.86    0.74
   3   7  -8   -0.36    0.45
   3   7  -8    0.04    0.51
   3   7  -8    0.43    0.52
   3   7  -8   -0.07    0.50
  -3  -7   8    0.01    0.55
  -3  -7   8    0.10    0.54
  -3  -7   8   -0.35    0.53
  -3  -7   8   -0.70    0.55
   2   7  -8   -0.79    0.41
   2   7  -8   -0.11    0.40
   2   7  -8   -0.08    0.42
   2   7  -8   -0.56    0.44
  -2  -7   8    0.30    0.52
  -2  -7   8   -0.27    0.54
  -2  -7   8   -0.31    0.50
  -2  -7   8    0.36    0.51
  -2  -7   8   -0.21    0.47
   1   7  -8    9.59    0.69
   1   7  -8    9.89    0.60
   1   7  -8    8.48    0.74
   1   7  -8    8.49    0.59
   1   7  -8    9.82    0.67
  -1  -7   8   10.53    0.91
  -1  -7   8    9.74    0.86
  -1  -7   8    7.83    0.76
   0   7  -8   -0.13    0.26
   0   7  -8   -0.07    0.31
   0   7  -8   -0.05    0.23
   0   7  -8    0.07    0.38
   0   7  -8   -0.31    0.30
   0  -7   8    0.03    0.40
   0  -7   8    0.20    0.44
   0  -7   8    0.36    0.44
   0  -7   8    0.12    0.29
   0  -7   8   -0.01    0.42
  -1   7  -8    2.96    0.33
  -1   7  -8    1.94    0.47
  -1   7  -8    2.54    0.48
  -1   7  -8    3.73    0.40
  -1   7  -8    2.68    0.49
   1  -7   8    1.73    0.51
   1  -7   8    2.32    0.48
   1  -7   8    3.12    0.55
   1  -7   8    1.88    0.56
   1  -7   8    2.84    0.41
  -2   7  -8   29.90    1.19
  -2   7  -8   32.41    1.25
  -2   7  -8   30.11    1.06
   2  -7   8   32.30    1.32
   2  -7   8   32.72    1.14
   2  -7   8   32.74    1.32
   2  -7   8   33.20    1.35
   2  -7   8   31.18    1.22
  -3   7  -8   19.29    1.11
  -3   7  -8   17.30    1.09
  -3   7  -8   18.28    0.90
   3  -7   8   19.53    1.29
   3  -7   8   20.32    1.18
   3  -7   8   19.29    1.07
   3  -7   8   17.41    1.09
   3  -7   8   18.07    1.14
  -4   7  -8   14.08    1.18
  -4   7  -8   15.64    1.16
   4  -7   8   20.47    1.37
   4  -7   8   15.78    1.27
   4  -7   8   17.89    1.14
  -5   7  -8   -0.86    0.62
  -5   7  -8    1.51    0.74
   5  -7   8    0.72    0.61
   5  -7   8   -0.16    0.73
   5   6  -8    0.34    0.66
   5   6  -8    1.91    0.83
   5   6  -8    0.43    0.79
  -5  -6   8    0.57    0.79
   4   6  -8    3.58    0.77
   4   6  -8    2.30    0.70
   4   6  -8    2.79    0.71
   4   6  -8    4.34    0.77
  -4  -6   8    2.03    0.74
  -4  -6   8    1.73    0.70
  -4  -6   8    2.65    0.77
   3   6  -8    7.35    0.81
   3   6  -8    6.23    0.75
   3   6  -8    9.38    0.91
   3   6  -8    7.69    0.83
  -3  -6   8    7.94    0.74
  -3  -6   8    7.12    0.84
  -3  -6   8    6.95    0.92
  -3  -6   8    7.13    0.83
   2   6  -8   29.31    1.12
   2   6  -8   28.77    1.15
   2   6  -8   29.04    1.15
   2   6  -8   29.41    1.12
  -2  -6   8   29.36    1.13
  -2  -6   8   27.51    1.22
  -2  -6   8   28.56    1.21
  -2  -6   8   31.15    1.26
   1   6  -8    0.29    0.28
   1   6  -8    0.79    0.36
   1   6  -8    0.27    0.32
   1   6  -8    0.09    0.34
   1   6  -8    0.28    0.22
   1   6  -8    0.30    0.32
  -1  -6   8    0.46    0.41
  -1  -6   8    1.19    0.46
  -1  -6   8    0.55    0.45
   0   6  -8   -0.01    0.25
   0   6  -8   -0.18    0.27
   0   6  -8   -0.24    0.23
   0   6  -8    0.38    0.23
   0   6  -8   -0.01    0.28
   0  -6   8    0.01    0.36
   0  -6   8   -0.56    0.27
   0  -6   8   -0.41    0.34
   0  -6   8    0.57    0.39
   0  -6   8   -0.14    0.22
   0  -6   8   -0.08    0.20
  -1   6  -8    2.04    0.45
  -1   6  -8    3.12    0.32
  -1   6  -8    3.10    0.46
  -1   6  -8    2.78    0.33
  -1   6  -8    2.21    0.41
   1  -6   8    2.41    0.47
   1  -6   8    3.36    0.43
   1  -6   8    3.86    0.57
   1  -6   8    2.68    0.46
   1  -6   8    3.08    0.55
   1  -6   8    2.88    0.22
  -2   6  -8    6.27    0.66
  -2   6  -8    6.05    0.63
  -2   6  -8    7.65    0.59
   2  -6   8    4.68    0.63
   2  -6   8    5.28    0.65
   2  -6   8    6.02    0.63
   2  -6   8    6.01    0.68
   2  -6   8    6.01    0.67
  -3   6  -8    2.32    0.42
  -3   6  -8    1.17    0.54
  -3   6  -8    1.51    0.52
   3  -6   8    1.30    0.53
   3  -6   8    1.59    0.57
   3  -6   8    1.18    0.56
   3  -6   8    0.58    0.61
  -4   6  -8    0.32    0.56
  -4   6  -8    0.99    0.60
   4  -6   8    1.22    0.69
   4  -6   8   -0.04    0.61
   4  -6   8    2.42    0.69
  -5   6  -8    1.17    0.72
  -5   6  -8    0.64    0.67
   5  -6   8    0.71    0.78
   5   5  -8    0.30    0.64
   5   5  -8   -0.39    0.66
   5   5  -8   -0.54    0.63
  -5  -5   8   -1.17    0.54
   4   5  -8    2.75    0.66
   4   5  -8    1.42    0.65
   4   5  -8    2.17    0.68
   4   5  -8    2.59    0.70
  -4  -5   8    1.09    0.56
  -4  -5   8    1.82    0.65
  -4  -5   8    2.21    0.67
   3   5  -8    7.53    0.82
   3   5  -8    7.77    0.78
   3   5  -8    6.71    0.74
   3   5  -8    7.03    0.75
  -3  -5   8    5.91    0.74
  -3  -5   8    7.13    0.80
  -3  -5   8    6.80    0.80
  -3  -5   8    6.55    0.75
  -3  -5   8    6.95    0.60
   2   5  -8   17.41    0.87
   2   5  -8   16.94    0.88
   2   5  -8   16.75    0.83
   2   5  -8   17.69    0.48
   2   5  -8   17.97    0.91
  -2  -5   8   18.17    0.93
  -2  -5   8   18.25    0.83
  -2  -5   8   17.65    0.94
  -2  -5   8   17.57    0.99
   1   5  -8    8.73    0.60
   1   5  -8    8.82    0.57
   1   5  -8    8.03    0.51
   1   5  -8    7.28    0.57
   1   5  -8    7.91    0.55
   1   5  -8    7.58    0.46
  -1  -5   8    9.29    0.68
  -1  -5   8    8.10    0.68
  -1  -5   8    8.47    0.66
   0   5  -8    0.64    0.27
   0   5  -8    0.48    0.25
   0   5  -8    0.25    0.18
   0   5  -8    0.85    0.25
   0  -5   8    0.16    0.34
   0  -5   8    0.50    0.24
   0  -5   8    0.94    0.38
   0  -5   8    0.30    0.27
   0  -5   8    0.27    0.35
   0  -5   8    0.34    0.21
  -1   5  -8    1.93    0.37
  -1   5  -8    2.40    0.38
  -1   5  -8    2.45    0.42
  -1   5  -8    2.08    0.26
  -1   5  -8    2.01    0.28
   1  -5   8    1.95    0.42
   1  -5   8    2.10    0.47
   1  -5   8    1.80    0.43
   1  -5   8    1.49    0.41
   1  -5   8    1.72    0.37
  -2   5  -8    1.24    0.30
  -2   5  -8    1.03    0.46
  -2   5  -8    1.31    0.20
  -2   5  -8    1.31    0.40
   2  -5   8    0.94    0.46
   2  -5   8    0.96    0.43
   2  -5   8    1.46    0.45
   2  -5   8    1.34    0.47
  -3   5  -8    5.01    0.66
  -3   5  -8    4.60    0.45
  -3   5  -8    3.62    0.60
   3  -5   8    3.72    0.60
   3  -5   8    5.04    0.68
   3  -5   8    5.65    0.75
  -4   5  -8    0.06    0.53
  -4   5  -8   -0.55    0.49
   4  -5   8   -0.05    0.59
   4  -5   8    0.52    0.65
  -5   5  -8    2.05    0.76
  -5   5  -8    0.57    0.70
   5  -5   8    1.62    0.85
   5   4  -8    0.26    0.69
   5   4  -8   -0.03    0.59
   5   4  -8   -0.33    0.60
   5   4  -8    0.61    0.62
  -5  -4   8    0.80    0.68
   4   4  -8    4.35    0.72
   4   4  -8    3.54    0.69
   4   4  -8    4.04    0.77
   4   4  -8    4.28    0.70
   4   4  -8    5.17    0.61
  -4  -4   8    5.10    0.75
  -4  -4   8    4.07    0.75
  -4  -4   8    3.47    0.68
   3   4  -8   23.04    1.05
   3   4  -8   23.82    1.10
   3   4  -8   25.57    1.10
   3   4  -8   25.02    1.10
  -3  -4   8   23.50    1.05
  -3  -4   8   23.65    1.11
  -3  -4   8   25.14    0.84
  -3  -4   8   24.03    1.12
  -3  -4   8   23.16    1.18
   2   4  -8   22.56    0.90
   2   4  -8   24.34    0.95
   2   4  -8   22.59    0.93
   2   4  -8   21.19    0.91
   2   4  -8   21.46    0.49
  -2  -4   8   22.07    0.82
  -2  -4   8   20.27    0.93
  -2  -4   8   22.53    0.96
  -2  -4   8   23.38    0.93
   1   4  -8    0.52    0.29
   1   4  -8    0.33    0.29
   1   4  -8    0.44    0.20
   1   4  -8    0.08    0.28
   1   4  -8    0.06    0.27
   1   4  -8    0.17    0.27
  -1  -4   8   -0.20    0.34
  -1  -4   8    0.54    0.34
  -1  -4   8    0.42    0.28
  -1  -4   8    0.53    0.33
   0   4  -8    0.49    0.24
   0   4  -8    0.20    0.17
   0   4  -8    0.24    0.22
   0   4  -8    0.12    0.31
   0   4  -8    0.43    0.15
   0   4  -8    0.11    0.27
   0   4  -8    0.37    0.21
   0  -4   8    0.51    0.32
   0  -4   8    0.80    0.32
   0  -4   8    0.39    0.26
   0  -4   8    0.56    0.33
   0  -4   8    0.91    0.21
   0  -4   8    0.52    0.34
  -1   4  -8    2.47    0.32
  -1   4  -8    2.33    0.29
  -1   4  -8    1.64    0.34
  -1   4  -8    1.89    0.38
   1  -4   8    1.37    0.40
   1  -4   8    2.80    0.45
   1  -4   8    2.96    0.44
   1  -4   8    2.04    0.40
   1  -4   8    2.32    0.43
  -2   4  -8    3.50    0.30
  -2   4  -8    2.71    0.46
  -2   4  -8    3.59    0.35
  -2   4  -8    3.15    0.46
   2  -4   8    2.70    0.48
   2  -4   8    3.36    0.51
   2  -4   8    3.26    0.55
  -3   4  -8    1.21    0.47
  -3   4  -8    1.38    0.47
   3  -4   8    1.89    0.59
   3  -4   8    1.30    0.52
  -4   4  -8    6.74    0.77
  -4   4  -8    6.24    0.82
   4  -4   8    5.71    0.83
   4  -4   8    6.05    0.87
  -5   4  -8    0.28    0.65
  -5   4  -8    2.00    0.73
   5  -4   8   -0.28    0.75
   6   3  -8    0.66    0.69
   6   3  -8   -1.06    0.67
   6   3  -8   -0.18    0.84
   6   3  -8   -0.59    0.65
  -6  -3   8    0.49    0.69
   5   3  -8    2.76    0.71
   5   3  -8    3.15    0.74
   5   3  -8    2.71    0.78
   5   3  -8    2.16    0.69
   5   3  -8    2.69    0.75
  -5  -3   8    2.32    0.67
  -5  -3   8    1.46    0.62
   4   3  -8    0.33    0.53
   4   3  -8    1.28    0.57
   4   3  -8    0.82    0.53
   4   3  -8    1.28    0.55
  -4  -3   8    1.17    0.57
  -4  -3   8    0.27    0.53
  -4  -3   8    0.88    0.49
   3   3  -8  189.12    3.55
   3   3  -8  188.03    3.61
   3   3  -8  185.26    3.55
   3   3  -8  186.45    3.62
  -3  -3   8  189.01    3.09
  -3  -3   8  188.25    3.52
  -3  -3   8  186.58    3.61
  -3  -3   8  186.32    3.59
  -3  -3   8  186.44    3.62
   2   3  -8   64.73    1.53
   2   3  -8   59.24    1.54
   2   3  -8   59.29    1.52
   2   3  -8   62.32    1.04
   2   3  -8   61.37    1.49
  -2  -3   8   62.53    1.57
  -2  -3   8   62.48    1.60
  -2  -3   8   63.83    1.52
   1   3  -8    5.40    0.46
   1   3  -8    5.26    0.47
   1   3  -8    5.66    0.45
   1   3  -8    5.48    0.44
   1   3  -8    6.12    0.51
  -1  -3   8    5.55    0.47
  -1  -3   8    5.35    0.51
  -1  -3   8    4.78    0.50
  -1  -3   8    5.27    0.43
   0   3  -8    1.97    0.12
   0   3  -8    1.69    0.22
   0   3  -8    2.18    0.38
   0   3  -8    1.77    0.37
   0   3  -8    1.77    0.32
   0   3  -8    2.14    0.25
   0   3  -8    1.93    0.22
   0  -3   8    1.95    0.34
   0  -3   8    1.72    0.38
   0  -3   8    1.74    0.36
   0  -3   8    1.85    0.22
   0  -3   8    2.54    0.34
   0  -3   8    2.03    0.37
  -1   3  -8    2.58    0.35
  -1   3  -8    2.50    0.45
  -1   3  -8    1.98    0.29
  -1   3  -8    2.55    0.28
   1  -3   8    2.25    0.40
   1  -3   8    1.69    0.40
   1  -3   8    2.66    0.40
   1  -3   8    2.31    0.39
  -2   3  -8    2.51    0.46
  -2   3  -8    1.77    0.24
  -2   3  -8    1.78    0.40
   2  -3   8    1.66    0.45
   2  -3   8    2.12    0.49
  -3   3  -8    2.41    0.51
   3  -3   8    1.97    0.55
   3  -3   8    2.53    0.60
  -4   3  -8    3.27    0.65
  -4   3  -8    3.43    0.63
   4  -3   8    2.26    0.72
   4  -3   8    3.07    0.73
  -5   3  -8    0.84    0.58
  -5   3  -8    0.65    0.64
   5  -3   8    0.13    0.74
   5  -3   8    0.08    0.68
   6   2  -8    2.12    0.85
   6   2  -8    0.88    0.67
   6   2  -8    1.38    0.73
   6   2  -8    1.48    0.86
  -6  -2   8    2.35    0.78
   5   2  -8   -0.87    0.51
   5   2  -8    0.05    0.60
   5   2  -8   -0.22    0.54
   5   2  -8    0.77    0.56
   5   2  -8   -0.24    0.53
  -5  -2   8   -0.24    0.47
  -5  -2   8    0.27    0.55
   4   2  -8    0.64    0.49
   4   2  -8    0.61    0.50
   4   2  -8    0.85    0.52
   4   2  -8    0.99    0.48
  -4  -2   8    0.66    0.46
  -4  -2   8    1.04    0.51
  -4  -2   8    0.63    0.35
   3   2  -8   95.68    2.12
   3   2  -8   93.36    2.10
   3   2  -8   90.88    2.15
   3   2  -8   92.52    2.17
  -3  -2   8   93.80    1.56
  -3  -2   8   93.05    2.17
  -3  -2   8   92.28    2.13
  -3  -2   8   93.57    2.05
  -3  -2   8   95.80    2.12
   2   2  -8    0.63    0.33
   2   2  -8   -0.06    0.29
   2   2  -8    0.05    0.29
   2   2  -8    0.28    0.34
   2   2  -8    0.13    0.24
  -2  -2   8    0.38    0.27
  -2  -2   8    0.20    0.34
  -2  -2   8    0.17    0.31
   1   2  -8   -0.07    0.26
   1   2  -8   -0.19    0.22
   1   2  -8    0.26    0.28
   1   2  -8   -0.07    0.30
   1   2  -8    0.31    0.22
   1   2  -8    0.08    0.21
  -1  -2   8    0.45    0.30
  -1  -2   8    0.09    0.13
  -1  -2   8    0.06    0.24
  -1  -2   8    0.06    0.27
  -1  -2   8   -0.06    0.24
   0   2  -8    0.51    0.35
   0   2  -8    0.65    0.25
   0   2  -8    0.81    0.20
   0   2  -8    0.32    0.28
   0   2  -8    0.89    0.18
   0   2  -8    0.96    0.19
   0  -2   8    0.45    0.31
   0  -2   8    0.67    0.32
   0  -2   8    0.58    0.32
   0  -2   8    1.08    0.28
   0  -2   8    0.46    0.31
  -1   2  -8   21.31    0.52
  -1   2  -8   22.18    0.39
  -1   2  -8   21.43    0.70
  -1   2  -8   21.01    0.41
  -1   2  -8   21.45    0.41
  -1   2  -8   22.05    0.87
   1  -2   8   20.55    0.77
   1  -2   8   21.07    0.81
   1  -2   8   21.23    0.86
   1  -2   8   22.00    0.82
  -2   2  -8    6.28    0.55
  -2   2  -8    4.81    0.53
  -2   2  -8    5.31    0.26
   2  -2   8    6.09    0.61
   2  -2   8    4.94    0.57
  -3   2  -8   18.03    0.87
  -3   2  -8   19.42    0.95
  -3   2  -8   17.48    0.60
   3  -2   8   16.00    0.99
   3  -2   8   20.07    1.07
  -4   2  -8    2.11    0.60
   4  -2   8    1.93    0.67
   4  -2   8    1.47    0.63
  -5   2  -8    3.98    0.81
  -5   2  -8    3.18    0.65
   5  -2   8    3.32    0.91
   5  -2   8    5.68    0.93
   6   1  -8    3.58    0.99
   6   1  -8    2.72    0.83
   6   1  -8    1.43    0.73
   6   1  -8    2.56    0.81
  -6  -1   8    3.17    0.85
   5   1  -8   -0.03    0.52
   5   1  -8    0.26    0.59
   5   1  -8   -0.33    0.54
   5   1  -8   -0.15    0.61
  -5  -1   8    0.35    0.43
  -5  -1   8   -0.26    0.40
  -5  -1   8    0.81    0.65
   4   1  -8   69.64    1.85
   4   1  -8   66.10    1.85
   4   1  -8   70.21    1.95
   4   1  -8   69.26    1.97
  -4  -1   8   68.30    1.71
  -4  -1   8   68.54    1.55
   3   1  -8  115.61    2.47
   3   1  -8  115.05    2.40
   3   1  -8  114.27    2.39
   3   1  -8  115.03    2.46
  -3  -1   8  115.09    2.29
  -3  -1   8  116.80    2.40
  -3  -1   8  111.81    2.42
  -3  -1   8  115.20    2.02
  -3  -1   8  116.67    2.32
   2   1  -8   19.17    0.75
   2   1  -8   19.38    0.78
   2   1  -8   18.84    0.77
   2   1  -8   19.20    0.65
   2   1  -8   18.94    0.69
  -2  -1   8   18.37    0.79
  -2  -1   8   18.62    0.66
  -2  -1   8   18.13    0.56
  -2  -1   8   18.96    0.42
  -2  -1   8   19.57    0.42
  -2  -1   8   18.73    0.76
   1   1  -8   13.79    0.61
   1   1  -8   13.27    0.59
   1   1  -8   14.17    0.59
   1   1  -8   13.99    0.48
   1   1  -8   13.46    0.68
   1   1  -8   14.42    0.66
  -1  -1   8   14.10    0.62
  -1  -1   8   13.52    0.60
  -1  -1   8   14.35    0.46
  -1  -1   8   12.85    0.61
  -1  -1   8   13.25    0.48
   0   1  -8   -0.11    0.18
   0   1  -8    0.32    0.29
   0   1  -8   -0.12    0.18
   0   1  -8   -0.71    0.27
   0  -1   8   -0.09    0.20
   0  -1   8   -0.22    0.29
   0  -1   8    0.02    0.28
   0  -1   8    0.19    0.23
   0  -1   8    0.34    0.29
  -1   1  -8    8.37    0.63
  -1   1  -8    7.87    0.24
  -1   1  -8    7.65    0.59
   1  -1   8    7.02    0.57
   1  -1   8    8.19    0.60
   1  -1   8    7.68    0.49
  -2   1  -8    4.21    0.33
  -2   1  -8    3.79    0.46
  -2   1  -8    4.23    0.54
   2  -1   8    4.09    0.55
   2  -1   8    5.75    0.60
  -3   1  -8    0.15    0.23
  -3   1  -8   -0.07    0.33
  -3   1  -8    0.13    0.44
   3  -1   8    0.12    0.46
   3  -1   8    0.34    0.47
  -4   1  -8    1.13    0.37
  -4   1  -8    0.41    0.54
   4  -1   8    0.99    0.60
   4  -1   8    0.13    0.61
  -5   1  -8   -0.08    0.60
  -5   1  -8    0.01    0.55
   5  -1   8   -0.26    0.65
   5  -1   8   -0.97    0.77
   6   0  -8    0.51    0.82
   6   0  -8    0.89    0.69
   6   0  -8   -0.09    0.62
   6   0  -8    1.21    0.84
  -6   0   8    1.42    0.70
   5   0  -8    2.39    0.66
   5   0  -8    0.89    0.65
   5   0  -8    0.56    0.61
   5   0  -8    2.10    0.64
  -5   0   8    1.26    0.49
  -5   0   8    0.07    0.61
   4   0  -8   14.06    0.90
   4   0  -8   13.65    0.91
   4   0  -8   12.30    0.91
   4   0  -8   13.77    0.93
  -4   0   8   13.32    1.00
  -4   0   8   13.95    0.71
  -4   0   8   13.49    0.71
   3   0  -8   12.21    0.72
   3   0  -8   13.36    0.72
   3   0  -8   14.20    0.80
   3   0  -8   12.69    0.55
   3   0  -8   11.55    0.76
  -3   0   8   13.10    0.52
  -3   0   8   12.01    0.72
  -3   0   8   13.56    0.65
   2   0  -8    0.54    0.29
   2   0  -8    0.20    0.29
   2   0  -8    0.81    0.34
   2   0  -8    0.21    0.25
   2   0  -8    0.43    0.21
  -2   0   8    0.61    0.24
  -2   0   8    0.59    0.29
  -2   0   8    1.09    0.32
  -2   0   8    0.54    0.23
   1   0  -8    2.39    0.32
   1   0  -8    2.54    0.34
   1   0  -8    2.31    0.20
   1   0  -8    2.60    0.40
   1   0  -8    2.62    0.16
   1   0  -8    3.11    0.38
   1   0  -8    2.76    0.43
  -1   0   8    2.87    0.33
  -1   0   8    2.41    0.21
  -1   0   8    2.92    0.31
  -1   0   8    2.98    0.37
   0   0  -8   66.05    1.53
   0   0  -8   71.00    1.54
   0   0  -8   69.54    1.45
   0   0   8   67.34    1.50
   0   0   8   70.21    1.15
   0   0   8   68.88    1.43
   0   0   8   69.95    1.31
   0   0   8   67.53    1.52
  -1   0  -8    5.45    0.55
  -1   0  -8    5.29    0.51
   1   0   8    5.01    0.51
   1   0   8    6.50    0.54
  -2   0  -8    0.84    0.24
  -2   0  -8    0.71    0.45
  -2   0  -8    0.80    0.43
  -2   0  -8    1.21    0.38
   2   0   8    0.29    0.37
   2   0   8    1.03    0.42
  -3   0  -8   53.73    1.44
  -3   0  -8   52.43    1.61
  -3   0  -8   53.67    1.64
   3   0   8   56.15    1.66
   3   0   8   54.42    1.66
  -4   0  -8   18.92    1.24
  -4   0  -8   17.11    1.11
  -4   0  -8   16.28    0.82
   4   0   8   16.65    1.16
   4   0   8   18.17    1.17
  -5   0  -8   28.85    1.49
   5   0   8   28.50    1.63
   5   0   8   27.85    1.75
   6  -1  -8   -0.21    0.58
   6  -1  -8    0.64    0.77
   6  -1  -8   -0.15    0.73
   6  -1  -8    0.08    0.67
  -6   1   8    1.26    0.72
   5  -1  -8    3.54    0.65
   5  -1  -8    1.16    0.60
   5  -1  -8    2.63    0.66
   5  -1  -8    2.45    0.66
  -5   1   8    4.80    0.82
  -5   1   8    2.36    0.53
   4  -1  -8   43.51    1.43
   4  -1  -8   42.08    1.49
   4  -1  -8   45.13    1.47
   4  -1  -8   44.48    1.35
  -4   1   8   41.84    1.07
  -4   1   8   43.45    1.20
  -4   1   8   43.89    1.50
   3  -1  -8   24.26    0.74
   3  -1  -8   23.68    0.98
   3  -1  -8   23.86    0.96
   3  -1  -8   23.91    1.01
   3  -1  -8   25.77    0.80
   3  -1  -8   23.55    0.89
  -3   1   8   25.16    0.74
  -3   1   8   22.81    0.85
  -3   1   8   23.84    0.75
  -3   1   8   25.59    1.03
   2  -1  -8   10.12    0.67
   2  -1  -8    9.11    0.57
   2  -1  -8    9.18    0.39
   2  -1  -8    9.23    0.55
   2  -1  -8    9.40    0.59
  -2   1   8    9.91    0.53
  -2   1   8    9.54    0.53
  -2   1   8    9.28    0.54
  -2   1   8   10.14    0.41
   1  -1  -8    2.65    0.28
   1  -1  -8    2.22    0.40
   1  -1  -8    2.03    0.38
  -1   1   8    2.11    0.32
  -1   1   8    2.37    0.32
  -1   1   8    2.28    0.28
  -1   1   8    2.24    0.27
   0  -1  -8    1.99    0.40
   0  -1  -8    1.84    0.35
   0  -1  -8    1.83    0.36
   0   1   8    1.65    0.20
   0   1   8    2.08    0.38
   0   1   8    1.64    0.23
   0   1   8    1.84    0.33
   0   1   8    1.74    0.36
  -1  -1  -8   19.99    0.84
  -1  -1  -8   21.10    0.84
  -1  -1  -8   20.15    0.87
   1   1   8   20.21    0.82
   1   1   8   19.78    0.81
   1   1   8   20.89    0.66
  -2  -1  -8    5.63    0.59
  -2  -1  -8    5.33    0.63
  -2  -1  -8    5.35    0.60
   2   1   8    5.17    0.59
   2   1   8    4.05    0.52
  -3  -1  -8   14.35    0.95
  -3  -1  -8   14.46    0.97
  -3  -1  -8   15.99    0.84
   3   1   8   15.94    0.94
   3   1   8   15.97    1.06
  -4  -1  -8    3.90    0.73
  -4  -1  -8    5.10    0.80
  -4  -1  -8    5.41    0.57
   4   1   8    4.74    0.80
   4   1   8    3.89    0.70
  -5  -1  -8   -0.36    0.67
  -5  -1  -8    0.22    0.72
   5   1   8   -0.22    0.61
   5   1   8   -1.05    0.69
   6  -2  -8    0.14    0.63
   6  -2  -8   -0.36    0.61
  -6   2   8   -0.06    0.71
   5  -2  -8    0.69    0.45
   5  -2  -8    0.89    0.62
   5  -2  -8    1.16    0.59
   5  -2  -8    0.19    0.55
  -5   2   8    0.56    0.49
  -5   2   8    0.87    0.59
   4  -2  -8    6.73    0.74
   4  -2  -8    7.55    0.74
   4  -2  -8    8.99    0.82
   4  -2  -8    6.99    0.63
  -4   2   8    6.78    0.76
  -4   2   8    6.31    0.58
   3  -2  -8    3.58    0.53
   3  -2  -8    4.79    0.41
   3  -2  -8    4.89    0.43
   3  -2  -8    4.21    0.52
   3  -2  -8    5.32    0.54
  -3   2   8    4.99    0.56
  -3   2   8    4.54    0.60
  -3   2   8    4.10    0.42
  -3   2   8    4.32    0.30
   2  -2  -8    1.28    0.34
   2  -2  -8    0.81    0.33
   2  -2  -8    1.43    0.42
   2  -2  -8    0.86    0.31
   2  -2  -8    0.95    0.18
   2  -2  -8    1.42    0.19
  -2   2   8    1.12    0.26
  -2   2   8    1.40    0.43
  -2   2   8    1.07    0.32
   1  -2  -8   32.41    1.00
   1  -2  -8   31.84    0.83
  -1   2   8   32.18    0.82
  -1   2   8   31.84    0.92
  -1   2   8   31.96    0.77
  -1   2   8   30.93    0.91
   0  -2  -8    3.43    0.44
   0  -2  -8    3.05    0.43
   0  -2  -8    3.25    0.48
   0  -2  -8    2.80    0.39
   0   2   8    2.68    0.19
   0   2   8    2.71    0.14
   0   2   8    3.09    0.32
   0   2   8    3.33    0.44
   0   2   8    3.00    0.40
  -1  -2  -8    1.34    0.40
  -1  -2  -8    0.33    0.37
  -1  -2  -8    0.05    0.34
   1   2   8    0.54    0.34
   1   2   8    0.44    0.11
   1   2   8    0.78    0.26
   1   2   8    0.82    0.32
  -2  -2  -8    5.84    0.66
  -2  -2  -8    6.63    0.63
  -2  -2  -8    3.78    0.58
   2   2   8    5.58    0.21
   2   2   8    4.73    0.55
   2   2   8    4.79    0.58
  -3  -2  -8    1.49    0.49
  -3  -2  -8    1.11    0.60
  -3  -2  -8    0.62    0.54
   3   2   8    1.30    0.59
   3   2   8    1.62    0.49
  -4  -2  -8   19.30    1.30
  -4  -2  -8   16.59    1.23
  -4  -2  -8   16.45    1.01
   4   2   8   15.86    1.17
   4   2   8   15.64    1.05
   4   2   8   19.24    1.26
  -5  -2  -8    3.03    0.81
  -5  -2  -8    4.95    1.07
   5   2   8    3.57    0.76
   5   2   8    3.64    1.02
   6  -3  -8    1.89    0.74
   6  -3  -8    1.08    0.67
  -6   3   8    2.64    0.82
  -6   3   8    2.53    0.71
   5  -3  -8    1.40    0.63
   5  -3  -8    0.89    0.62
   5  -3  -8    1.21    0.48
   5  -3  -8    1.42    0.61
  -5   3   8    1.49    0.66
  -5   3   8    0.99    0.56
   4  -3  -8    2.50    0.57
   4  -3  -8    1.33    0.42
   4  -3  -8    2.58    0.65
   4  -3  -8    0.86    0.48
  -4   3   8    1.95    0.56
  -4   3   8    1.21    0.56
  -4   3   8    1.13    0.45
   3  -3  -8   33.82    1.02
   3  -3  -8   33.84    0.90
   3  -3  -8   34.26    0.70
   3  -3  -8   34.22    1.23
   3  -3  -8   33.43    1.17
   3  -3  -8   34.89    1.07
  -3   3   8   32.73    1.12
  -3   3   8   34.94    1.03
  -3   3   8   33.44    1.23
   2  -3  -8   23.80    0.82
   2  -3  -8   22.57    0.91
   2  -3  -8   25.77    0.90
   2  -3  -8   22.96    0.66
   2  -3  -8   23.54    0.55
  -2   3   8   22.03    0.89
  -2   3   8   24.09    0.84
  -2   3   8   23.63    0.87
  -2   3   8   24.03    0.62
   1  -3  -8    0.28    0.25
   1  -3  -8   -0.06    0.32
  -1   3   8   -0.01    0.28
  -1   3   8   -0.45    0.27
  -1   3   8   -0.30    0.16
  -1   3   8   -0.02    0.25
   0  -3  -8    5.60    0.48
   0  -3  -8    5.54    0.56
   0  -3  -8    5.98    0.54
   0  -3  -8    6.07    0.55
   0   3   8    5.90    0.43
   0   3   8    5.83    0.28
   0   3   8    5.70    0.37
   0   3   8    6.16    0.41
   0   3   8    6.05    0.55
  -1  -3  -8    0.17    0.34
  -1  -3  -8    0.17    0.37
  -1  -3  -8    0.17    0.41
   1   3   8   -0.22    0.23
   1   3   8   -0.02    0.30
   1   3   8    0.50    0.19
   1   3   8    0.30    0.32
  -2  -3  -8    0.57    0.46
  -2  -3  -8    0.26    0.45
  -2  -3  -8    0.04    0.43
   2   3   8   -0.03    0.35
   2   3   8   -0.53    0.37
   2   3   8   -0.07    0.17
  -3  -3  -8    0.51    0.55
  -3  -3  -8   -0.26    0.53
  -3  -3  -8    0.68    0.50
   3   3   8    0.30    0.47
   3   3   8    0.38    0.49
  -4  -3  -8   -0.80    0.57
  -4  -3  -8    0.27    0.66
   4   3   8    0.15    0.62
   4   3   8   -0.43    0.52
  -5  -3  -8    1.50    0.77
  -5  -3  -8    1.21    0.87
   5   3   8    0.70    0.77
   6  -4  -8    1.05    0.69
  -6   4   8    2.85    0.86
  -6   4   8    1.78    0.74
   5  -4  -8    2.36    0.74
   5  -4  -8    0.55    0.51
   5  -4  -8    0.36    0.57
  -5   4   8    0.14    0.70
  -5   4   8    0.79    0.57
   4  -4  -8    3.26    0.64
   4  -4  -8    4.40    0.70
   4  -4  -8    2.65    0.54
   4  -4  -8    3.15    0.49
   4  -4  -8    3.65    0.72
  -4   4   8    4.20    0.62
  -4   4   8    2.79    0.64
  -4   4   8    3.74    0.63
   3  -4  -8   -0.36    0.20
   3  -4  -8   -0.44    0.29
   3  -4  -8   -0.26    0.32
   3  -4  -8   -0.10    0.41
   3  -4  -8   -0.08    0.22
   3  -4  -8    0.22    0.40
  -3   4   8   -0.22    0.42
  -3   4   8    0.20    0.39
  -3   4   8   -0.02    0.41
   2  -4  -8   14.04    0.66
   2  -4  -8   14.22    0.80
   2  -4  -8   13.52    0.60
   2  -4  -8   14.83    0.75
   2  -4  -8   14.18    0.45
  -2   4   8   14.48    0.72
  -2   4   8   13.41    0.81
  -2   4   8   13.75    0.75
   1  -4  -8    1.75    0.37
   1  -4  -8    1.49    0.14
   1  -4  -8    2.00    0.34
   1  -4  -8    1.31    0.46
   1  -4  -8    1.58    0.17
  -1   4   8    1.86    0.19
  -1   4   8    2.20    0.39
  -1   4   8    1.54    0.40
  -1   4   8    1.54    0.37
  -1   4   8    1.72    0.36
   0  -4  -8    5.00    0.47
   0  -4  -8    5.18    0.59
   0  -4  -8    4.87    0.53
   0  -4  -8    5.17    0.35
   0  -4  -8    5.14    0.54
   0   4   8    4.82    0.31
   0   4   8    5.15    0.36
   0   4   8    4.82    0.47
   0   4   8    4.90    0.42
  -1  -4  -8    2.70    0.54
  -1  -4  -8    2.95    0.56
  -1  -4  -8    2.97    0.54
   1   4   8    3.75    0.37
   1   4   8    4.69    0.58
   1   4   8    3.20    0.41
   1   4   8    3.09    0.37
  -2  -4  -8    0.24    0.49
  -2  -4  -8    0.55    0.51
  -2  -4  -8   -0.14    0.48
   2   4   8    0.34    0.34
   2   4   8    0.54    0.45
   2   4   8    0.47    0.24
  -3  -4  -8    0.87    0.63
  -3  -4  -8    2.05    0.69
  -3  -4  -8    1.23    0.54
   3   4   8    2.22    0.51
   3   4   8    1.82    0.65
  -4  -4  -8   -0.02    0.73
  -4  -4  -8    0.32    0.68
   4   4   8   -0.35    0.61
  -5  -4  -8    0.77    0.96
  -5  -4  -8   -0.09    0.81
   5   4   8    0.40    0.84
   6  -5  -8    1.73    0.80
  -6   5   8    2.20    0.86
  -6   5   8    2.05    0.79
   5  -5  -8    6.88    0.89
   5  -5  -8    7.95    0.81
   5  -5  -8    9.88    1.01
  -5   5   8    7.93    0.86
  -5   5   8    8.85    1.03
   4  -5  -8   13.48    0.98
   4  -5  -8   13.02    0.79
   4  -5  -8   15.14    0.90
   4  -5  -8   15.61    1.06
   4  -5  -8   15.79    0.78
  -4   5   8   15.32    0.91
  -4   5   8   16.17    1.12
  -4   5   8   15.84    1.04
   3  -5  -8  117.11    2.55
   3  -5  -8  114.56    2.43
   3  -5  -8  118.14    2.20
   3  -5  -8  112.40    2.27
   3  -5  -8  108.44    2.58
   3  -5  -8  113.89    2.13
  -3   5   8  112.41    2.47
  -3   5   8  120.25    2.47
  -3   5   8  116.40    2.61
  -3   5   8  108.78    2.53
   2  -5  -8    2.11    0.27
   2  -5  -8    1.87    0.45
   2  -5  -8    1.65    0.37
  -2   5   8    1.95    0.48
  -2   5   8    2.65    0.46
  -2   5   8    1.75    0.45
   1  -5  -8    5.60    0.23
   1  -5  -8    6.57    0.52
   1  -5  -8    4.15    0.58
   1  -5  -8    7.05    0.62
   1  -5  -8    6.03    0.20
   1  -5  -8    5.09    0.34
  -1   5   8    5.99    0.19
  -1   5   8    5.70    0.51
  -1   5   8    6.11    0.55
  -1   5   8    6.13    0.54
  -1   5   8    6.82    0.66
   0  -5  -8   -0.01    0.23
   0  -5  -8    0.03    0.28
   0  -5  -8   -0.25    0.33
   0  -5  -8   -0.11    0.39
   0  -5  -8   -0.51    0.40
   0   5   8    0.68    0.24
   0   5   8   -0.17    0.29
   0   5   8   -0.04    0.35
   0   5   8    0.07    0.36
   0   5   8    0.16    0.19
  -1  -5  -8   13.04    0.67
  -1  -5  -8   12.62    0.89
  -1  -5  -8   13.12    0.71
  -1  -5  -8   12.98    0.97
  -1  -5  -8   13.30    0.92
   1   5   8   12.87    0.74
   1   5   8   12.84    0.74
   1   5   8   13.04    0.62
  -2  -5  -8    1.71    0.61
  -2  -5  -8    2.10    0.67
  -2  -5  -8    1.79    0.67
   2   5   8    1.51    0.39
   2   5   8    1.17    0.31
   2   5   8    1.05    0.50
  -3  -5  -8   -0.03    0.69
  -3  -5  -8    1.25    0.66
  -3  -5  -8    0.91    0.60
   3   5   8    0.85    0.57
  -4  -5  -8    3.20    0.92
  -4  -5  -8    3.28    0.97
   4   5   8    2.65    0.80
   5  -6  -8    3.40    0.73
   5  -6  -8    2.96    0.81
  -5   6   8    2.71    0.68
  -5   6   8    2.69    0.80
   4  -6  -8    3.46    0.70
   4  -6  -8    2.37    0.67
   4  -6  -8    3.41    0.55
   4  -6  -8    2.96    0.53
  -4   6   8    3.26    0.75
  -4   6   8    3.56    0.72
  -4   6   8    2.49    0.68
   3  -6  -8   22.47    0.90
   3  -6  -8   20.99    0.85
   3  -6  -8   19.91    1.02
   3  -6  -8   22.69    0.81
   3  -6  -8   23.81    1.17
  -3   6   8   20.36    1.04
  -3   6   8   22.36    1.15
  -3   6   8   23.04    1.18
   2  -6  -8    1.31    0.29
   2  -6  -8    2.17    0.42
   2  -6  -8    1.61    0.51
  -2   6   8    1.76    0.47
  -2   6   8    1.41    0.48
  -2   6   8    0.90    0.43
  -2   6   8    1.16    0.49
   1  -6  -8   -0.24    0.41
   1  -6  -8    0.10    0.40
   1  -6  -8    0.15    0.34
   1  -6  -8   -0.48    0.21
  -1   6   8    0.16    0.35
  -1   6   8   -0.63    0.31
  -1   6   8    0.56    0.40
  -1   6   8    0.40    0.42
   0  -6  -8   12.57    0.85
   0  -6  -8    8.84    0.80
   0  -6  -8   10.38    0.87
   0  -6  -8   10.48    0.59
   0   6   8   11.42    0.78
   0   6   8   11.76    0.74
   0   6   8   12.05    0.82
   0   6   8   12.99    0.73
  -1  -6  -8    0.53    0.38
  -1  -6  -8    0.58    0.53
  -1  -6  -8   -0.67    0.46
  -1  -6  -8    0.47    0.54
   1   6   8    0.17    0.33
   1   6   8    0.49    0.41
   1   6   8    0.52    0.42
  -2  -6  -8    0.34    0.62
  -2  -6  -8   -0.55    0.48
  -2  -6  -8    0.18    0.63
   2   6   8    0.07    0.45
   2   6   8    0.05    0.32
  -3  -6  -8    7.14    0.94
  -3  -6  -8    6.34    1.04
  -3  -6  -8    6.68    1.06
   3   6   8    6.99    0.81
  -4  -6  -8    2.31    1.05
  -4  -6  -8    0.97    0.88
   4   6   8    0.11    1.05
   5  -7  -8    1.20    0.73
  -5   7   8    0.63    0.76
  -5   7   8    1.44    0.71
   4  -7  -8   29.61    1.24
   4  -7  -8   30.57    1.40
   4  -7  -8   32.52    1.57
  -4   7   8   30.29    1.52
  -4   7   8   34.55    1.61
  -4   7   8   30.51    1.39
   3  -7  -8   18.12    1.12
   3  -7  -8   17.60    0.82
   3  -7  -8   19.18    1.03
   3  -7  -8   16.76    0.90
  -3   7   8   16.98    1.11
  -3   7   8   19.94    1.07
  -3   7   8   19.42    1.12
   2  -7  -8    2.85    0.53
   2  -7  -8    1.23    0.57
  -2   7   8    1.17    0.53
  -2   7   8    0.97    0.52
  -2   7   8    2.32    0.54
  -2   7   8    1.86    0.52
   1  -7  -8    1.18    0.53
   1  -7  -8    0.47    0.40
   1  -7  -8    0.71    0.51
   1  -7  -8    0.65    0.30
  -1   7   8    0.08    0.42
  -1   7   8    0.10    0.38
  -1   7   8    0.07    0.43
  -1   7   8    1.17    0.48
   0  -7  -8    5.72    0.54
   0  -7  -8    5.49    0.74
   0  -7  -8    5.08    0.71
   0  -7  -8    5.21    0.74
   0   7   8    4.92    0.63
   0   7   8    6.50    0.74
   0   7   8    5.09    0.62
  -1  -7  -8    0.12    0.57
  -1  -7  -8   -0.14    0.55
  -1  -7  -8    0.39    0.41
  -1  -7  -8    0.33    0.62
   1   7   8    0.28    0.37
   1   7   8    0.47    0.48
   1   7   8    0.32    0.46
  -2  -7  -8    4.39    0.95
  -2  -7  -8    4.95    0.86
  -2  -7  -8    3.84    0.85
  -2  -7  -8    4.80    0.66
   2   7   8    4.98    0.56
   2   7   8    3.97    0.61
  -3  -7  -8    0.87    0.72
  -3  -7  -8    0.03    0.81
  -3  -7  -8    1.02    0.82
  -4  -7  -8    3.73    1.28
  -4  -7  -8    4.72    1.13
   5  -8  -8    0.70    0.68
  -5   8   8    1.01    0.81
  -5   8   8    0.17    0.77
   4  -8  -8    1.48    0.63
   4  -8  -8    0.39    0.49
   4  -8  -8    0.29    0.61
  -4   8   8    0.33    0.63
  -4   8   8    2.19    0.81
   3  -8  -8   15.73    0.92
   3  -8  -8   16.00    1.14
   3  -8  -8   14.98    1.04
  -3   8   8   16.42    1.07
  -3   8   8   15.78    1.12
  -3   8   8   17.84    1.18
   2  -8  -8    0.63    0.53
   2  -8  -8    0.45    0.42
  -2   8   8   -0.30    0.53
  -2   8   8    0.12    0.52
  -2   8   8    0.21    0.52
  -2   8   8    0.78    0.49
   1  -8  -8   17.85    0.95
   1  -8  -8   17.38    1.26
   1  -8  -8   15.34    1.04
  -1   8   8   17.86    0.99
  -1   8   8   16.64    0.91
  -1   8   8   16.71    1.04
  -1   8   8   16.26    1.02
   0  -8  -8    8.38    0.97
   0  -8  -8    6.45    0.82
   0  -8  -8    6.46    0.91
   0  -8  -8    8.41    1.02
   0   8   8    6.57    0.83
   0   8   8    6.58    0.77
   0   8   8    7.05    0.75
  -1  -8  -8    8.16    0.73
  -1  -8  -8    9.10    1.06
  -1  -8  -8    7.16    0.94
  -1  -8  -8    7.90    0.96
   1   8   8    7.73    0.85
   1   8   8    6.63    0.79
   1   8   8    6.52    0.70
  -2  -8  -8    3.80    0.90
  -2  -8  -8    6.36    0.79
  -2  -8  -8    5.99    1.04
  -2  -8  -8    7.10    1.14
   2   8   8    4.61    0.77
  -3  -8  -8   13.93    1.54
  -3  -8  -8   11.92    1.25
  -3  -8  -8   11.28    1.43
   4  -9  -8   20.20    1.40
   4  -9  -8   18.01    1.18
   4  -9  -8   15.12    1.11
  -4   9   8   16.15    1.36
  -4   9   8   16.04    1.25
  -4   9   8   18.58    1.42
   3  -9  -8    0.29    0.45
   3  -9  -8   -0.65    0.60
   3  -9  -8    1.20    0.58
  -3   9   8    0.47    0.60
  -3   9   8    0.24    0.62
  -3   9   8    0.38    0.61
   2  -9  -8    0.93    0.57
   2  -9  -8    0.62    0.66
  -2   9   8    1.48    0.62
  -2   9   8    1.25    0.57
  -2   9   8    2.56    0.74
  -2   9   8    1.59    0.61
   1  -9  -8    1.68    0.70
   1  -9  -8    2.44    0.74
  -1   9   8    1.93    0.58
  -1   9   8    2.95    0.66
  -1   9   8    1.35    0.61
   0  -9  -8    0.71    0.65
   0  -9  -8    0.76    0.65
   0  -9  -8   -1.54    0.62
   0   9   8    0.03    0.60
   0   9   8    0.33    0.56
   0   9   8   -0.05    0.51
  -1  -9  -8   -0.11    0.67
  -1  -9  -8    0.43    0.76
  -1  -9  -8   -1.05    0.68
   1   9   8    0.72    0.56
   1   9   8   -0.47    0.51
   1   9   8   -0.47    0.48
  -2  -9  -8    3.17    1.05
  -2  -9  -8    3.68    0.97
  -2  -9  -8    2.54    0.95
   2   9   8    3.28    0.79
   2   9   8    2.24    0.71
   3 -10  -8    1.31    0.75
   3 -10  -8    1.20    0.57
  -3  10   8   -0.63    0.68
  -3  10   8    1.13    0.80
  -3  10   8    1.04    0.82
   2 -10  -8    3.00    0.90
   2 -10  -8    2.60    0.73
  -2  10   8    2.94    0.72
  -2  10   8    1.82    0.69
  -2  10   8    1.73    0.72
   1 -10  -8    3.53    0.88
   1 -10  -8    4.86    0.98
  -1  10   8    5.25    0.92
  -1  10   8    5.35    0.80
  -1  10   8    5.11    0.79
   0 -10  -8    0.12    0.81
   0 -10  -8    0.33    0.73
   0 -10  -8    1.51    0.73
   0  10   8    0.19    0.55
   0  10   8    0.84    0.67
   0  10   8    0.55    0.63
  -1 -10  -8   -0.39    0.82
  -1 -10  -8    1.07    0.94
  -1 -10  -8   -0.11    0.72
   1  10   8   -0.34    0.64
   1  10   8   -0.61    0.56
   1  10   8   -0.63    0.45
   2 -11  -8    0.80    0.81
   2 -11  -8   -0.71    0.64
  -2  11   8    0.99    0.75
  -2  11   8    0.52    0.73
  -2  11   8   -0.11    0.65
   1 -11  -8    3.44    0.96
   1 -11  -8    4.20    0.95
  -1  11   8    1.47    0.69
  -1  11   8    3.46    0.91
  -1  11   8    2.41    0.81
   0 -11  -8    1.15    0.91
   0 -11  -8    1.48    0.88
   0  11   8    0.71    0.72
   0  11   8    0.92    0.65
   0  11   8    0.76    0.69
   0  12  -9    0.79    0.75
   0 -12   9    1.34    0.84
   0 -12   9    2.60    1.09
   0 -12   9    1.97    0.91
  -1  12  -9    0.24    0.67
  -1  12  -9    0.74    0.60
   1 -12   9    0.02    0.73
   1 -12   9   -0.31    0.67
   2  11  -9    7.18    1.09
  -2 -11   9    4.11    0.97
  -2 -11   9    5.26    1.15
  -2 -11   9    6.23    1.11
   1  11  -9    0.51    0.73
  -1 -11   9   -0.70    0.68
  -1 -11   9    1.21    0.89
  -1 -11   9    0.66    0.73
  -1 -11   9   -0.28    0.79
   0  11  -9    1.91    0.76
   0  11  -9    0.41    0.48
   0 -11   9    0.63    0.73
   0 -11   9    0.62    0.78
   0 -11   9    1.12    0.67
  -1  11  -9   -0.65    0.55
  -1  11  -9    0.16    0.59
   1 -11   9   -0.44    0.64
  -2  11  -9    0.15    0.62
  -2  11  -9    0.45    0.66
   2 -11   9    0.72    0.78
   3  10  -9   20.17    1.37
   3  10  -9   22.18    1.46
  -3 -10   9   16.98    1.59
  -3 -10   9   21.16    1.66
  -3 -10   9   21.28    1.59
   2  10  -9    1.87    0.60
  -2 -10   9    1.74    0.80
  -2 -10   9    1.94    0.81
  -2 -10   9    0.42    0.73
   1  10  -9   17.00    1.20
   1  10  -9   18.48    0.99
  -1 -10   9   18.46    1.49
  -1 -10   9   17.80    1.45
  -1 -10   9   18.82    1.51
  -1 -10   9   17.75    1.19
   0  10  -9    0.67    0.49
   0  10  -9    1.88    0.62
   0  10  -9    1.38    0.48
   0 -10   9    1.60    0.67
   0 -10   9    1.49    0.78
   0 -10   9    0.06    0.65
  -1  10  -9    0.00    0.57
  -1  10  -9    0.31    0.61
   1 -10   9    0.22    0.69
   1 -10   9    0.25    0.52
   1 -10   9    0.83    0.75
  -2  10  -9    3.31    0.74
  -2  10  -9    4.61    0.77
   2 -10   9    3.51    0.85
   2 -10   9    3.08    0.69
  -3  10  -9   10.82    1.10
  -3  10  -9    9.56    0.95
  -3  10  -9    9.43    1.09
   3 -10   9    8.28    1.10
   3   9  -9    0.87    0.64
   3   9  -9    0.65    0.66
   3   9  -9   -0.01    0.58
  -3  -9   9    0.15    0.78
  -3  -9   9    1.03    0.81
  -3  -9   9    0.84    0.71
   2   9  -9    1.26    0.56
   2   9  -9    1.81    0.57
   2   9  -9    1.62    0.60
   2   9  -9    1.36    0.56
  -2  -9   9    2.75    0.77
  -2  -9   9    0.96    0.69
  -2  -9   9    1.31    0.74
  -2  -9   9    0.94    0.73
  -2  -9   9    1.63    0.75
   1   9  -9    1.26    0.59
   1   9  -9    0.54    0.40
   1   9  -9    0.52    0.43
   1   9  -9    0.74    0.45
  -1  -9   9   -0.04    0.64
  -1  -9   9    0.11    0.59
  -1  -9   9    0.38    0.64
   0   9  -9   -0.18    0.36
   0   9  -9    0.11    0.44
   0   9  -9    1.16    0.42
   0   9  -9   -1.12    0.43
   0  -9   9    0.15    0.50
   0  -9   9    0.67    0.58
   0  -9   9    0.38    0.60
  -1   9  -9    0.64    0.55
  -1   9  -9    0.83    0.40
  -1   9  -9    0.71    0.49
   1  -9   9    1.41    0.53
   1  -9   9    0.90    0.59
   1  -9   9    0.48    0.58
  -2   9  -9    0.83    0.55
  -2   9  -9    0.31    0.58
  -2   9  -9    0.71    0.58
   2  -9   9    0.48    0.52
   2  -9   9    1.35    0.58
   2  -9   9    0.83    0.65
   2  -9   9    1.14    0.65
  -3   9  -9    0.15    0.60
  -3   9  -9    0.68    0.67
  -3   9  -9    1.55    0.53
   3  -9   9    0.08    0.55
   3  -9   9    0.58    0.66
   3  -9   9    0.57    0.67
  -4   9  -9    0.77    0.69
  -4   9  -9    0.18    0.75
   4  -9   9    1.11    0.76
   4  -9   9   -0.39    1.00
   4   8  -9   -0.60    0.59
   4   8  -9    0.17    0.67
   4   8  -9   -0.25    0.67
  -4  -8   9    1.24    0.85
  -4  -8   9   -0.34    0.80
   3   8  -9   -0.34    0.59
   3   8  -9   -0.18    0.51
   3   8  -9   -0.12    0.57
   3   8  -9   -0.19    0.55
  -3  -8   9   -0.20    0.57
  -3  -8   9   -0.95    0.66
  -3  -8   9    0.16    0.62
  -3  -8   9   -0.21    0.75
   2   8  -9    3.29    0.68
   2   8  -9    3.39    0.63
   2   8  -9    4.41    0.63
  -2  -8   9    3.95    0.80
  -2  -8   9    4.86    0.79
  -2  -8   9    4.37    0.86
  -2  -8   9    2.93    0.70
  -2  -8   9    4.84    0.81
   1   8  -9    0.04    0.36
   1   8  -9    0.35    0.42
   1   8  -9    0.61    0.46
   1   8  -9    0.24    0.35
   1   8  -9   -0.08    0.31
  -1  -8   9    0.17    0.56
  -1  -8   9    0.10    0.53
  -1  -8   9   -0.31    0.51
   0   8  -9    1.65    0.44
   0   8  -9    1.22    0.39
   0   8  -9    1.60    0.38
   0   8  -9    2.25    0.54
   0  -8   9    1.38    0.49
   0  -8   9    1.84    0.61
   0  -8   9    1.73    0.59
   0  -8   9    1.51    0.39
  -1   8  -9    4.84    0.50
  -1   8  -9    3.70    0.59
  -1   8  -9    4.46    0.65
  -1   8  -9    4.95    0.61
   1  -8   9    4.08    0.71
   1  -8   9    4.05    0.77
   1  -8   9    3.04    0.59
   1  -8   9    4.02    0.58
  -2   8  -9    0.90    0.49
  -2   8  -9    0.13    0.52
  -2   8  -9    1.03    0.52
   2  -8   9    0.69    0.49
   2  -8   9    0.70    0.54
   2  -8   9    0.15    0.46
   2  -8   9    0.00    0.55
   2  -8   9    0.19    0.44
  -3   8  -9    2.19    0.67
  -3   8  -9    1.50    0.51
  -3   8  -9    1.95    0.71
   3  -8   9    2.37    0.71
   3  -8   9    1.86    0.65
   3  -8   9    2.84    0.78
   3  -8   9    2.03    0.65
   3  -8   9    1.65    0.64
  -4   8  -9    0.02    0.65
  -4   8  -9   -0.70    0.59
   4  -8   9   -0.57    0.59
   4  -8   9    0.33    0.73
   4  -8   9   -0.05    0.74
   4  -8   9   -0.50    0.58
   4   7  -9    0.19    0.69
   4   7  -9    1.01    0.69
   4   7  -9    1.16    0.71
  -4  -7   9   -0.09    0.66
  -4  -7   9    0.61    0.69
   3   7  -9    0.10    0.53
   3   7  -9    0.38    0.52
   3   7  -9    0.70    0.54
   3   7  -9    0.28    0.54
  -3  -7   9   -0.74    0.54
  -3  -7   9   -0.16    0.68
  -3  -7   9    0.08    0.50
  -3  -7   9    0.04    0.59
   2   7  -9    2.02    0.54
   2   7  -9    1.18    0.53
   2   7  -9    1.73    0.59
   2   7  -9    1.87    0.53
  -2  -7   9    1.39    0.56
  -2  -7   9    1.91    0.62
  -2  -7   9    1.64    0.56
  -2  -7   9    2.59    0.64
   1   7  -9    0.88    0.35
   1   7  -9    1.10    0.43
   1   7  -9    0.43    0.43
   1   7  -9    0.68    0.38
   1   7  -9    0.84    0.35
  -1  -7   9    0.58    0.48
  -1  -7   9    0.16    0.49
  -1  -7   9    0.74    0.51
   0   7  -9    3.38    0.50
   0   7  -9    2.97    0.38
   0   7  -9    3.18    0.52
   0   7  -9    3.08    0.44
   0   7  -9    3.94    0.40
   0  -7   9    2.45    0.57
   0  -7   9    3.50    0.48
   0  -7   9    2.89    0.55
   0  -7   9    3.78    0.63
  -1   7  -9    0.88    0.27
  -1   7  -9    1.11    0.41
  -1   7  -9    0.92    0.28
  -1   7  -9    0.69    0.38
  -1   7  -9    0.73    0.43
   1  -7   9    1.02    0.51
   1  -7   9    0.91    0.52
   1  -7   9    1.22    0.48
   1  -7   9    1.06    0.46
   1  -7   9    1.22    0.36
  -2   7  -9   18.74    0.90
  -2   7  -9   18.43    0.97
  -2   7  -9   18.38    1.02
   2  -7   9   19.34    1.10
   2  -7   9   20.09    1.08
   2  -7   9   18.37    1.10
   2  -7   9   17.89    1.04
   2  -7   9   19.33    0.97
  -3   7  -9   10.08    0.93
  -3   7  -9   11.21    1.03
  -3   7  -9   10.22    0.74
   3  -7   9    9.92    0.98
   3  -7   9   11.01    0.96
   3  -7   9   10.71    1.00
   3  -7   9    8.84    0.91
   3  -7   9    8.44    0.82
  -4   7  -9    7.37    1.03
  -4   7  -9    6.80    0.91
   4  -7   9    6.78    0.95
   4  -7   9    6.15    0.81
   4  -7   9    5.34    0.96
   4  -7   9    7.00    0.94
  -5   7  -9   18.88    1.43
   5  -7   9   19.60    1.40
   5  -7   9   16.63    1.51
   5   6  -9    3.51    0.88
   5   6  -9    2.49    0.85
   5   6  -9    2.82    0.86
  -5  -6   9    2.47    0.89
  -5  -6   9    4.83    0.92
   4   6  -9   11.72    1.08
   4   6  -9   10.01    1.02
   4   6  -9   13.17    1.15
   4   6  -9   13.22    1.15
  -4  -6   9    9.53    1.07
  -4  -6   9    9.03    1.03
  -4  -6   9   12.84    1.16
   3   6  -9    4.82    0.72
   3   6  -9    5.16    0.74
   3   6  -9    6.17    0.75
   3   6  -9    5.57    0.78
  -3  -6   9    4.97    0.79
  -3  -6   9    3.75    0.73
  -3  -6   9    3.53    0.74
  -3  -6   9    4.86    0.75
  -3  -6   9    5.38    0.63
   2   6  -9   10.46    0.78
   2   6  -9   12.94    0.89
   2   6  -9   12.06    0.84
   2   6  -9   11.41    0.83
  -2  -6   9   11.51    0.82
  -2  -6   9   11.43    0.89
  -2  -6   9   12.15    0.92
  -2  -6   9   12.49    0.92
   1   6  -9    0.12    0.31
   1   6  -9   -0.07    0.30
   1   6  -9   -0.51    0.32
   1   6  -9    0.66    0.35
   1   6  -9    0.04    0.25
  -1  -6   9   -0.04    0.42
  -1  -6   9    0.02    0.42
  -1  -6   9    0.12    0.44
   0   6  -9    0.71    0.29
   0   6  -9    1.02    0.33
   0   6  -9    0.82    0.28
   0   6  -9    1.15    0.25
   0   6  -9    0.82    0.36
   0  -6   9    0.83    0.37
   0  -6   9    1.26    0.27
   0  -6   9    1.46    0.47
   0  -6   9    0.40    0.42
   0  -6   9    0.87    0.27
   0  -6   9    1.29    0.44
  -1   6  -9    1.49    0.27
  -1   6  -9    2.02    0.44
  -1   6  -9    1.52    0.37
  -1   6  -9    0.75    0.38
  -1   6  -9    1.44    0.29
   1  -6   9    1.75    0.48
   1  -6   9    1.09    0.38
   1  -6   9    0.99    0.44
   1  -6   9    1.11    0.48
   1  -6   9    1.85    0.44
  -2   6  -9    3.92    0.49
  -2   6  -9    3.46    0.55
  -2   6  -9    3.98    0.56
   2  -6   9    4.20    0.63
   2  -6   9    3.17    0.59
   2  -6   9    4.12    0.60
   2  -6   9    3.94    0.60
   2  -6   9    4.24    0.64
  -3   6  -9    0.44    0.48
  -3   6  -9    0.08    0.30
  -3   6  -9    1.03    0.50
   3  -6   9    0.29    0.59
   3  -6   9   -0.29    0.48
   3  -6   9    0.46    0.47
   3  -6   9    0.48    0.59
  -4   6  -9    1.75    0.68
  -4   6  -9    1.34    0.64
   4  -6   9    1.10    0.67
   4  -6   9    1.40    0.80
   4  -6   9    0.23    0.66
  -5   6  -9    0.34    0.70
  -5   6  -9    1.77    0.73
   5  -6   9    1.45    0.87
   5   5  -9   -0.29    0.70
   5   5  -9    0.37    0.78
   5   5  -9    0.54    0.70
  -5  -5   9    0.43    0.71
   4   5  -9    1.55    0.65
   4   5  -9    2.83    0.72
   4   5  -9    1.37    0.65
   4   5  -9    1.35    0.64
  -4  -5   9    1.68    0.67
  -4  -5   9    1.45    0.58
  -4  -5   9    1.36    0.70
   3   5  -9    0.58    0.50
   3   5  -9   -0.06    0.44
   3   5  -9    0.73    0.49
   3   5  -9    0.01    0.48
  -3  -5   9    1.21    0.52
  -3  -5   9   -0.27    0.57
  -3  -5   9    0.14    0.48
  -3  -5   9    0.08    0.51
  -3  -5   9    0.46    0.37
   2   5  -9    0.91    0.42
   2   5  -9    0.94    0.19
   2   5  -9    0.96    0.47
   2   5  -9    0.55    0.39
   2   5  -9    0.44    0.41
  -2  -5   9    0.21    0.42
  -2  -5   9    1.05    0.40
  -2  -5   9    0.87    0.47
  -2  -5   9    0.64    0.45
   1   5  -9    2.40    0.37
   1   5  -9    1.76    0.31
   1   5  -9    1.99    0.40
   1   5  -9    2.05    0.39
   1   5  -9    2.09    0.38
  -1  -5   9    1.56    0.43
  -1  -5   9    1.19    0.43
  -1  -5   9    2.10    0.49
   0   5  -9    0.33    0.25
   0   5  -9    0.21    0.17
   0   5  -9   -0.17    0.25
   0   5  -9    0.44    0.23
   0   5  -9    0.85    0.32
   0  -5   9    0.46    0.21
   0  -5   9    0.73    0.38
   0  -5   9    0.12    0.29
   0  -5   9    0.42    0.36
   0  -5   9    0.43    0.43
   0  -5   9    0.53    0.27
  -1   5  -9    0.58    0.25
  -1   5  -9    0.24    0.29
  -1   5  -9    0.65    0.28
  -1   5  -9    0.90    0.36
   1  -5   9    0.58    0.44
   1  -5   9    0.82    0.39
   1  -5   9    0.62    0.39
   1  -5   9    0.54    0.36
   1  -5   9    0.27    0.37
  -2   5  -9    0.28    0.40
  -2   5  -9    0.31    0.28
  -2   5  -9    0.91    0.42
  -2   5  -9    0.56    0.20
   2  -5   9    1.03    0.48
   2  -5   9   -0.05    0.46
   2  -5   9    0.64    0.47
   2  -5   9    0.99    0.44
  -3   5  -9   -0.30    0.25
  -3   5  -9   -0.72    0.44
  -3   5  -9    0.25    0.45
   3  -5   9    0.04    0.49
   3  -5   9   -0.79    0.51
   3  -5   9    0.64    0.54
  -4   5  -9    2.76    0.65
  -4   5  -9    2.58    0.68
   4  -5   9    1.58    0.72
   4  -5   9    2.87    0.76
  -5   5  -9   -0.92    0.63
  -5   5  -9    0.53    0.72
   5  -5   9    0.43    0.80
   5   4  -9   12.83    1.23
   5   4  -9   12.72    1.17
   5   4  -9   11.23    1.11
  -5  -4   9   11.61    1.11
   4   4  -9   14.45    1.06
   4   4  -9   17.51    1.15
   4   4  -9   16.56    1.10
   4   4  -9   15.93    1.09
  -4  -4   9   16.06    1.21
  -4  -4   9   15.37    1.15
  -4  -4   9   15.24    1.08
   3   4  -9   10.71    0.88
   3   4  -9   11.83    0.91
   3   4  -9   12.06    0.86
   3   4  -9   11.77    0.84
  -3  -4   9   11.68    0.82
  -3  -4   9   11.94    0.89
  -3  -4   9   11.11    0.61
  -3  -4   9   11.04    0.95
  -3  -4   9   11.21    0.88
   2   4  -9   31.69    1.07
   2   4  -9   30.54    1.10
   2   4  -9   30.43    1.09
   2   4  -9   29.92    1.14
   2   4  -9   31.28    0.66
  -2  -4   9   30.81    1.09
  -2  -4   9   29.77    1.14
  -2  -4   9   31.48    1.16
   1   4  -9   -0.20    0.29
   1   4  -9    0.11    0.29
   1   4  -9    0.07    0.27
   1   4  -9   -0.04    0.21
  -1  -4   9    0.30    0.34
  -1  -4   9   -0.04    0.25
  -1  -4   9    0.21    0.35
  -1  -4   9    0.26    0.33
   0   4  -9    3.60    0.28
   0   4  -9    3.95    0.41
   0   4  -9    3.20    0.30
   0   4  -9    3.50    0.20
   0   4  -9    3.05    0.31
   0   4  -9    3.18    0.38
   0  -4   9    3.52    0.40
   0  -4   9    3.36    0.49
   0  -4   9    3.37    0.45
   0  -4   9    3.33    0.46
   0  -4   9    3.48    0.28
   0  -4   9    3.28    0.45
  -1   4  -9   -0.05    0.21
  -1   4  -9   -0.02    0.25
  -1   4  -9   -0.30    0.24
   1  -4   9    0.08    0.33
   1  -4   9    0.01    0.40
   1  -4   9   -0.45    0.31
   1  -4   9   -0.29    0.30
   1  -4   9   -0.13    0.30
  -2   4  -9    3.89    0.34
  -2   4  -9    4.11    0.36
  -2   4  -9    4.73    0.52
  -2   4  -9    3.06    0.49
   2  -4   9    3.21    0.58
   2  -4   9    3.30    0.53
   2  -4   9    3.91    0.56
   2  -4   9    4.03    0.61
  -3   4  -9    2.31    0.54
  -3   4  -9    2.31    0.53
   3  -4   9    2.81    0.65
   3  -4   9    2.90    0.68
  -4   4  -9    3.45    0.70
  -4   4  -9    4.23    0.77
   4  -4   9    4.86    0.84
   4  -4   9    4.77    0.85
  -5   4  -9    5.11    0.80
  -5   4  -9    5.23    0.93
   5  -4   9    3.72    0.98
   6   3  -9   -0.57    0.76
   6   3  -9    1.31    0.73
   6   3  -9    0.58    0.82
   6   3  -9   -0.83    0.82
  -6  -3   9    0.58    0.73
   5   3  -9    0.32    0.58
   5   3  -9   -0.53    0.63
   5   3  -9   -0.74    0.64
   5   3  -9    0.44    0.64
   5   3  -9    0.76    0.63
  -5  -3   9    0.36    0.57
   4   3  -9    5.16    0.75
   4   3  -9    4.65    0.73
   4   3  -9    4.17    0.70
   4   3  -9    4.12    0.71
  -4  -3   9    4.59    0.67
  -4  -3   9    6.62    0.84
  -4  -3   9    3.96    0.67
   3   3  -9   17.73    0.98
   3   3  -9   18.78    0.97
   3   3  -9   21.36    1.04
   3   3  -9   19.94    0.98
  -3  -3   9   20.31    0.92
  -3  -3   9   19.56    1.01
  -3  -3   9   18.69    0.98
  -3  -3   9   20.71    0.63
   2   3  -9   10.30    0.70
   2   3  -9    9.74    0.35
   2   3  -9    9.78    0.67
   2   3  -9   10.22    0.64
   2   3  -9   10.11    0.70
  -2  -3   9   10.08    0.66
  -2  -3   9   11.25    0.73
  -2  -3   9   10.23    0.69
   1   3  -9    3.33    0.36
   1   3  -9    3.73    0.45
   1   3  -9    2.61    0.41
   1   3  -9    2.32    0.35
  -1  -3   9    3.10    0.37
  -1  -3   9    3.36    0.47
  -1  -3   9    3.43    0.42
  -1  -3   9    3.85    0.48
  -1  -3   9    3.27    0.15
  -1  -3   9    3.34    0.19
   0   3  -9   40.39    1.05
   0   3  -9   39.17    0.84
   0   3  -9   38.09    1.17
   0   3  -9   38.65    0.82
   0   3  -9   38.26    0.86
   0  -3   9   38.48    1.13
   0  -3   9   36.50    1.11
   0  -3   9   39.38    1.11
   0  -3   9   38.50    1.04
   0  -3   9   39.57    1.05
  -1   3  -9    3.17    0.29
  -1   3  -9    2.08    0.43
  -1   3  -9    3.21    0.37
  -1   3  -9    2.91    0.35
   1  -3   9    2.60    0.47
   1  -3   9    2.24    0.40
   1  -3   9    3.01    0.46
   1  -3   9    3.10    0.49
   1  -3   9    2.91    0.29
  -2   3  -9    1.36    0.21
  -2   3  -9    1.33    0.41
  -2   3  -9    1.06    0.39
   2  -3   9    1.35    0.47
   2  -3   9    1.54    0.49
  -3   3  -9    1.83    0.50
   3  -3   9    2.83    0.61
   3  -3   9    1.70    0.59
  -4   3  -9    7.28    0.85
  -4   3  -9    5.60    0.72
   4  -3   9    4.97    0.85
   4  -3   9    5.80    0.88
  -5   3  -9    9.45    0.95
  -5   3  -9    8.27    1.03
   5  -3   9    8.84    1.16
   6   2  -9    1.48    0.80
   6   2  -9    0.91    0.83
   6   2  -9    0.56    0.66
   6   2  -9    1.17    0.70
  -6  -2   9    1.36    0.69
   5   2  -9   13.13    1.19
   5   2  -9   14.73    1.13
   5   2  -9   14.92    1.17
   5   2  -9   15.13    1.21
  -5  -2   9   16.36    1.27
  -5  -2   9   14.51    1.01
   4   2  -9    0.29    0.52
   4   2  -9    1.04    0.58
   4   2  -9    0.59    0.52
   4   2  -9    0.58    0.53
  -4  -2   9    0.39    0.44
  -4  -2   9   -0.11    0.28
  -4  -2   9    0.07    0.46
   3   2  -9   68.23    1.76
   3   2  -9   72.16    1.85
   3   2  -9   69.86    1.84
   3   2  -9   70.51    1.78
  -3  -2   9   72.05    1.70
  -3  -2   9   67.36    1.32
  -3  -2   9   69.58    1.79
  -3  -2   9   71.20    1.83
  -3  -2   9   72.75    1.34
   2   2  -9    8.83    0.63
   2   2  -9    8.30    0.58
   2   2  -9    6.87    0.56
   2   2  -9    8.63    0.56
  -2  -2   9    8.23    0.61
  -2  -2   9    8.27    0.65
  -2  -2   9    8.28    0.55
   1   2  -9    1.75    0.38
   1   2  -9    2.53    0.32
   1   2  -9    2.22    0.38
   1   2  -9    2.32    0.31
   1   2  -9    1.80    0.32
  -1  -2   9    1.77    0.39
  -1  -2   9    1.75    0.31
  -1  -2   9    2.27    0.34
  -1  -2   9    2.24    0.39
  -1  -2   9    2.58    0.23
   0   2  -9    9.03    0.40
   0   2  -9    8.32    0.34
   0   2  -9    8.13    0.60
   0   2  -9    8.65    0.52
   0   2  -9    8.97    0.38
   0  -2   9    8.59    0.60
   0  -2   9    9.10    0.59
   0  -2   9    8.69    0.49
   0  -2   9    8.07    0.57
   0  -2   9    8.68    0.52
  -1   2  -9   23.31    0.48
  -1   2  -9   22.31    0.47
  -1   2  -9   23.08    0.91
  -1   2  -9   23.41    0.72
  -1   2  -9   23.50    0.46
   1  -2   9   23.32    0.92
   1  -2   9   22.68    0.48
   1  -2   9   22.71    0.87
   1  -2   9   21.74    0.79
   1  -2   9   22.56    0.86
  -2   2  -9    0.41    0.34
  -2   2  -9    0.14    0.13
   2  -2   9   -0.36    0.38
   2  -2   9   -0.25    0.38
  -3   2  -9    4.25    0.56
  -3   2  -9    4.53    0.63
   3  -2   9    4.54    0.69
   3  -2   9    5.44    0.73
  -4   2  -9    0.00    0.51
   4  -2   9   -0.28    0.60
   4  -2   9    0.61    0.63
  -5   2  -9    2.90    0.79
  -5   2  -9    2.42    0.67
   5  -2   9    3.10    0.93
   6   1  -9    3.19    0.84
   6   1  -9    3.60    0.92
   6   1  -9    3.53    0.84
   6   1  -9    4.53    0.90
  -6  -1   9    3.90    0.91
   5   1  -9   -0.19    0.54
   5   1  -9    0.34    0.62
   5   1  -9    0.74    0.63
   5   1  -9   -0.25    0.53
  -5  -1   9   -0.03    0.55
   4   1  -9    3.06    0.63
   4   1  -9    3.35    0.63
   4   1  -9    3.39    0.59
   4   1  -9    2.70    0.59
  -4  -1   9    3.17    0.53
  -4  -1   9    3.21    0.41
   3   1  -9    2.02    0.48
   3   1  -9    2.35    0.34
   3   1  -9    2.49    0.47
   3   1  -9    1.62    0.44
   3   1  -9    1.33    0.44
  -3  -1   9    2.61    0.50
  -3  -1   9    1.83    0.25
  -3  -1   9    1.00    0.42
  -3  -1   9    2.69    0.44
   2   1  -9   10.91    0.65
   2   1  -9   12.05    0.62
   2   1  -9   10.87    0.62
   2   1  -9   11.47    0.65
   2   1  -9   11.70    0.53
  -2  -1   9   10.96    0.64
  -2  -1   9   11.72    0.46
  -2  -1   9   12.13    0.65
  -2  -1   9   11.26    0.53
   1   1  -9    2.63    0.43
   1   1  -9    3.55    0.36
   1   1  -9    3.76    0.40
   1   1  -9    2.53    0.37
   1   1  -9    3.37    0.29
  -1  -1   9    2.83    0.37
  -1  -1   9    3.49    0.30
  -1  -1   9    2.92    0.29
  -1  -1   9    2.15    0.38
   0   1  -9   27.94    0.71
   0   1  -9   27.88    0.73
   0   1  -9   27.40    0.95
   0  -1   9   28.92    0.82
   0  -1   9   26.53    0.94
   0  -1   9   28.93    0.91
   0  -1   9   28.30    0.74
   0  -1   9   28.77    0.90
  -1   1  -9   15.20    0.75
  -1   1  -9   13.52    0.77
   1  -1   9   14.73    0.76
   1  -1   9   14.15    0.62
   1  -1   9   15.86    0.75
  -2   1  -9    0.00    0.18
  -2   1  -9    0.42    0.39
  -2   1  -9    0.03    0.36
   2  -1   9    0.55    0.41
   2  -1   9    0.28    0.39
  -3   1  -9    5.50    0.68
  -3   1  -9    5.24    0.59
   3  -1   9    5.21    0.72
   3  -1   9    5.28    0.72
  -4   1  -9    0.21    0.38
   4  -1   9    1.52    0.65
   4  -1   9    1.09    0.66
  -5   1  -9   16.70    1.31
  -5   1  -9   18.11    1.13
   5  -1   9   17.86    1.39
   5  -1   9   18.09    1.50
   6   0  -9   -0.66    0.64
   6   0  -9    0.20    0.70
   6   0  -9    0.07    0.59
   6   0  -9    1.13    0.85
  -6   0   9   -0.75    0.69
   5   0  -9   -1.22    0.53
   5   0  -9   -0.47    0.47
   5   0  -9    0.95    0.58
   5   0  -9    0.17    0.56
  -5   0   9    0.06    0.54
   4   0  -9   -0.26    0.40
   4   0  -9    0.63    0.49
   4   0  -9    0.78    0.51
   4   0  -9   -0.23    0.46
  -4   0   9    0.26    0.48
  -4   0   9    0.25    0.33
  -4   0   9    0.93    0.33
   3   0  -9    3.26    0.38
   3   0  -9    3.56    0.50
   3   0  -9    2.82    0.54
   3   0  -9    3.37    0.53
   3   0  -9    2.68    0.48
  -3   0   9    4.29    0.44
  -3   0   9    4.09    0.33
  -3   0   9    3.65    0.51
  -3   0   9    3.63    0.49
   2   0  -9    5.69    0.53
   2   0  -9    5.74    0.47
   2   0  -9    5.56    0.50
   2   0  -9    5.71    0.36
   2   0  -9    6.47    0.55
  -2   0   9    5.97    0.50
  -2   0   9    6.66    0.50
  -2   0   9    5.57    0.38
  -2   0   9    5.61    0.41
   1   0  -9    0.52    0.30
   1   0  -9    0.65    0.11
   1   0  -9    0.70    0.36
   1   0  -9    1.14    0.30
   1   0  -9    0.60    0.25
  -1   0   9    0.61    0.25
  -1   0   9    1.10    0.32
  -1   0   9    0.64    0.26
  -1   0   9    0.71    0.17
   0   0  -9   34.83    0.97
   0   0  -9   34.13    1.09
   0   0   9   34.09    0.82
   0   0   9   33.81    0.67
   0   0   9   34.27    0.94
   0   0   9   32.93    1.04
   0   0   9   33.16    0.74
   0   0   9   33.40    1.02
  -1   0  -9    1.59    0.40
  -1   0  -9    1.95    0.39
   1   0   9    1.54    0.28
   1   0   9    1.49    0.41
   1   0   9    1.24    0.38
  -2   0  -9    8.25    0.70
  -2   0  -9    7.83    0.66
  -2   0  -9    7.62    0.47
   2   0   9    6.39    0.66
   2   0   9    8.29    0.70
  -3   0  -9   25.72    1.20
  -3   0  -9   23.86    1.01
  -3   0  -9   24.22    1.15
   3   0   9   23.77    1.18
   3   0   9   24.40    1.17
  -4   0  -9    9.22    0.96
  -4   0  -9   10.37    0.77
   4   0   9    9.39    1.05
   4   0   9   10.53    1.01
  -5   0  -9    2.43    0.86
   5   0   9    3.94    0.96
   5   0   9    1.76    0.76
   6  -1  -9    1.26    0.61
   6  -1  -9   -0.13    0.68
   6  -1  -9    0.91    0.73
  -6   1   9   -0.08    0.75
   5  -1  -9    0.08    0.56
   5  -1  -9    0.89    0.57
   5  -1  -9    0.32    0.61
   5  -1  -9    0.08    0.48
  -5   1   9   -0.08    0.55
  -5   1   9    0.14    0.42
   4  -1  -9    1.05    0.55
   4  -1  -9    1.19    0.51
   4  -1  -9    1.38    0.50
   4  -1  -9    1.22    0.50
  -4   1   9    1.59    0.60
  -4   1   9    0.53    0.36
  -4   1   9    1.49    0.52
   3  -1  -9    4.03    0.58
   3  -1  -9    5.24    0.58
   3  -1  -9    4.05    0.40
   3  -1  -9    3.92    0.53
   3  -1  -9    5.23    0.44
  -3   1   9    4.91    0.50
  -3   1   9    5.42    0.41
  -3   1   9    4.51    0.60
   2  -1  -9    3.27    0.44
   2  -1  -9    4.11    0.28
   2  -1  -9    4.18    0.46
   2  -1  -9    3.02    0.42
   2  -1  -9    3.64    0.48
  -2   1   9    3.95    0.41
  -2   1   9    3.32    0.40
  -2   1   9    3.59    0.41
   1  -1  -9    1.51    0.27
   1  -1  -9    1.72    0.35
   1  -1  -9    2.25    0.41
  -1   1   9    1.32    0.31
  -1   1   9    2.27    0.34
  -1   1   9    1.57    0.26
  -1   1   9    1.63    0.26
   0  -1  -9    2.33    0.43
   0  -1  -9    2.11    0.40
   0   1   9    2.50    0.40
   0   1   9    2.55    0.24
   0   1   9    2.65    0.38
   0   1   9    2.82    0.27
   0   1   9    2.94    0.44
  -1  -1  -9    9.64    0.72
  -1  -1  -9    9.78    0.75
   1   1   9   10.66    0.67
   1   1   9   10.00    0.44
   1   1   9   10.41    0.67
   1   1   9   10.54    0.50
  -2  -1  -9   -0.15    0.40
  -2  -1  -9    0.27    0.39
  -2  -1  -9    0.47    0.43
   2   1   9    0.04    0.46
   2   1   9    0.24    0.42
  -3  -1  -9    6.19    0.78
  -3  -1  -9    6.51    0.78
  -3  -1  -9    6.38    0.67
   3   1   9    6.82    0.74
   3   1   9    7.28    0.80
  -4  -1  -9   26.29    1.37
  -4  -1  -9   27.54    1.11
  -4  -1  -9   27.74    1.54
   4   1   9   25.28    1.40
   4   1   9   25.36    1.32
  -5  -1  -9    1.10    0.80
  -5  -1  -9    2.07    0.83
   5   1   9    2.01    0.90
   5   1   9    1.91    0.70
   6  -2  -9   -0.53    0.71
   6  -2  -9    1.90    0.75
  -6   2   9   -0.47    0.66
   5  -2  -9   14.55    0.99
   5  -2  -9   17.12    1.13
   5  -2  -9   15.14    1.16
   5  -2  -9   14.94    1.13
  -5   2   9   14.50    1.15
  -5   2   9   15.19    0.90
   4  -2  -9   11.23    0.77
   4  -2  -9   13.68    0.99
   4  -2  -9   11.55    0.91
   4  -2  -9   13.38    0.91
  -4   2   9   11.00    0.92
  -4   2   9   15.00    0.77
   3  -2  -9   12.62    0.81
   3  -2  -9   12.43    0.65
   3  -2  -9    9.59    0.74
   3  -2  -9    9.90    0.71
   3  -2  -9   10.88    0.52
  -3   2   9   11.00    0.55
  -3   2   9   11.15    0.67
  -3   2   9   10.66    0.79
   2  -2  -9    1.63    0.38
   2  -2  -9    1.87    0.22
   2  -2  -9    1.31    0.35
   2  -2  -9    1.43    0.16
   2  -2  -9    1.50    0.36
   2  -2  -9    0.65    0.36
  -2   2   9    1.26    0.34
  -2   2   9    1.33    0.39
  -2   2   9    1.42    0.30
   1  -2  -9    0.70    0.36
   1  -2  -9    0.85    0.28
  -1   2   9    0.35    0.30
  -1   2   9    0.15    0.24
  -1   2   9    0.49    0.23
   0  -2  -9    6.69    0.60
   0  -2  -9    6.65    0.55
   0   2   9    7.22    0.47
   0   2   9    7.31    0.58
   0   2   9    6.96    0.23
   0   2   9    6.71    0.27
   0   2   9    7.13    0.43
   0   2   9    7.67    0.64
  -1  -2  -9    0.86    0.44
  -1  -2  -9    0.92    0.41
  -1  -2  -9    0.85    0.40
   1   2   9    1.27    0.38
   1   2   9    1.26    0.16
   1   2   9    1.05    0.25
   1   2   9    1.42    0.19
   1   2   9    0.75    0.37
  -2  -2  -9    1.49    0.50
  -2  -2  -9    1.22    0.49
  -2  -2  -9    2.22    0.52
   2   2   9    1.38    0.52
   2   2   9    2.00    0.45
  -3  -2  -9    0.00    0.53
  -3  -2  -9    0.25    0.46
  -3  -2  -9   -0.25    0.51
   3   2   9   -0.61    0.41
   3   2   9    0.71    0.58
  -4  -2  -9   -0.14    0.65
  -4  -2  -9    0.86    0.52
  -4  -2  -9    0.07    0.61
   4   2   9    0.13    0.62
   4   2   9    1.53    0.71
  -5  -2  -9    0.70    0.72
  -5  -2  -9    1.12    0.95
   5   2   9    0.18    0.71
   5   2   9    0.53    0.80
   6  -3  -9    0.28    0.69
   6  -3  -9    0.69    0.76
  -6   3   9    0.38    0.82
   5  -3  -9    0.96    0.61
   5  -3  -9   -0.93    0.46
   5  -3  -9   -0.70    0.57
   5  -3  -9   -0.13    0.43
  -5   3   9   -0.26    0.47
  -5   3   9    0.12    0.63
   4  -3  -9    1.81    0.64
   4  -3  -9    1.59    0.53
   4  -3  -9    1.64    0.52
   4  -3  -9    0.70    0.40
  -4   3   9    2.53    0.49
  -4   3   9    1.90    0.52
  -4   3   9    2.21    0.60
   3  -3  -9    1.49    0.45
   3  -3  -9    1.45    0.49
   3  -3  -9    2.34    0.31
   3  -3  -9    2.11    0.40
   3  -3  -9    1.77    0.40
  -3   3   9    1.75    0.55
  -3   3   9    1.79    0.39
  -3   3   9    1.73    0.44
   2  -3  -9   27.06    0.74
   2  -3  -9   27.46    0.96
   2  -3  -9   27.10    0.53
   2  -3  -9   26.37    0.53
   2  -3  -9   27.86    1.00
   2  -3  -9   28.08    1.04
  -2   3   9   27.56    0.96
  -2   3   9   27.35    1.00
  -2   3   9   26.96    0.93
  -2   3   9   28.02    0.72
   1  -3  -9   20.07    0.76
   1  -3  -9   20.47    0.89
  -1   3   9   20.18    0.76
  -1   3   9   20.78    0.86
  -1   3   9   20.14    0.60
  -1   3   9   19.33    0.72
   0  -3  -9    0.70    0.40
   0  -3  -9    0.23    0.32
   0  -3  -9    0.13    0.34
   0   3   9    0.13    0.13
   0   3   9    0.32    0.28
   0   3   9    0.13    0.21
   0   3   9   -0.18    0.32
  -1  -3  -9    1.26    0.44
  -1  -3  -9    1.33    0.50
  -1  -3  -9    1.06    0.49
   1   3   9    1.93    0.31
   1   3   9    1.38    0.42
   1   3   9    1.91    0.16
   1   3   9    1.59    0.24
   1   3   9    1.10    0.38
  -2  -3  -9    2.79    0.61
  -2  -3  -9    4.13    0.63
  -2  -3  -9    3.45    0.62
   2   3   9    3.57    0.54
   2   3   9    3.02    0.54
   2   3   9    3.42    0.25
  -3  -3  -9    1.44    0.57
  -3  -3  -9    0.94    0.63
  -3  -3  -9    1.10    0.67
   3   3   9    0.75    0.56
   3   3   9    0.49    0.49
  -4  -3  -9   -0.16    0.70
  -4  -3  -9    0.76    0.66
   4   3   9    0.61    0.52
   4   3   9   -0.47    0.63
  -5  -3  -9    4.39    0.96
  -5  -3  -9    4.20    1.09
   5   3   9    2.03    0.96
   6  -4  -9    0.41    1.06
   6  -4  -9    1.28    0.75
  -6   4   9    1.87    0.81
   5  -4  -9   17.93    1.32
   5  -4  -9   17.25    1.19
   5  -4  -9   17.10    1.14
  -5   4   9   17.35    1.28
  -5   4   9   16.66    1.06
   4  -4  -9   14.65    1.00
   4  -4  -9   14.54    0.95
   4  -4  -9   13.30    1.00
   4  -4  -9   15.61    0.85
  -4   4   9   16.60    1.09
  -4   4   9   14.98    0.89
  -4   4   9   13.90    0.95
   3  -4  -9    1.86    0.29
   3  -4  -9    2.03    0.46
   3  -4  -9    2.02    0.54
   3  -4  -9    2.16    0.50
   3  -4  -9    2.46    0.44
  -3   4   9    2.04    0.53
  -3   4   9    1.69    0.48
  -3   4   9    2.47    0.48
   2  -4  -9   36.04    0.99
   2  -4  -9   38.93    1.28
   2  -4  -9   35.47    1.22
   2  -4  -9   36.40    0.71
   2  -4  -9   36.39    0.70
  -2   4   9   37.14    1.22
  -2   4   9   36.00    1.21
  -2   4   9   37.76    1.16
   1  -4  -9    1.61    0.45
   1  -4  -9    1.84    0.38
  -1   4   9    2.92    0.46
  -1   4   9    1.82    0.37
  -1   4   9    2.25    0.40
  -1   4   9    2.11    0.23
   0  -4  -9    1.23    0.42
   0  -4  -9    1.19    0.46
   0  -4  -9    0.45    0.42
   0   4   9    0.86    0.30
   0   4   9    1.61    0.38
   0   4   9    1.04    0.24
   0   4   9    0.91    0.19
  -1  -4  -9    3.12    0.55
  -1  -4  -9    3.48    0.58
  -1  -4  -9    2.52    0.55
   1   4   9    3.50    0.53
   1   4   9    4.17    0.37
   1   4   9    4.01    0.48
   1   4   9    3.40    0.38
  -2  -4  -9    2.93    0.61
  -2  -4  -9    3.12    0.64
  -2  -4  -9    2.83    0.69
   2   4   9    3.08    0.51
   2   4   9    3.31    0.33
   2   4   9    2.39    0.59
  -3  -4  -9    1.28    0.73
  -3  -4  -9    0.53    0.61
  -3  -4  -9    1.16    0.59
   3   4   9    0.09    0.54
   3   4   9    0.43    0.46
  -4  -4  -9    0.18    0.72
  -4  -4  -9   -0.12    0.75
   4   4   9   -0.28    0.74
   6  -5  -9    0.32    0.77
  -6   5   9   -0.11    0.74
   5  -5  -9    4.97    0.73
   5  -5  -9    3.71    0.77
   5  -5  -9    5.39    0.89
  -5   5   9    3.86    0.83
  -5   5   9    4.07    0.75
   4  -5  -9    0.44    0.54
   4  -5  -9   -0.38    0.35
   4  -5  -9    0.61    0.47
   4  -5  -9    0.67    0.40
   4  -5  -9   -0.12    0.49
  -4   5   9   -0.16    0.45
  -4   5   9    1.09    0.55
  -4   5   9    0.79    0.63
   3  -5  -9   11.67    0.56
   3  -5  -9   11.69    0.72
   3  -5  -9   11.54    0.80
   3  -5  -9   12.00    0.87
   3  -5  -9   10.88    0.60
   3  -5  -9   12.72    0.92
  -3   5   9   12.35    0.86
  -3   5   9   12.35    0.92
  -3   5   9   12.30    0.90
   2  -5  -9  158.66    2.91
   2  -5  -9  158.89    2.53
   2  -5  -9  159.80    3.18
  -2   5   9  159.87    3.09
  -2   5   9  153.90    3.03
  -2   5   9  155.36    3.14
   1  -5  -9    4.66    0.66
   1  -5  -9    6.68    0.32
   1  -5  -9    6.37    0.61
   1  -5  -9    5.88    0.53
  -1   5   9    5.42    0.52
  -1   5   9    5.57    0.26
  -1   5   9    5.04    0.53
  -1   5   9    5.36    0.53
  -1   5   9    4.93    0.58
   0  -5  -9    3.93    0.61
   0  -5  -9    5.09    0.40
   0  -5  -9    5.02    0.57
   0  -5  -9    3.52    0.60
   0   5   9    4.38    0.59
   0   5   9    4.35    0.33
   0   5   9    4.47    0.55
   0   5   9    5.23    0.40
   0   5   9    4.39    0.47
  -1  -5  -9    3.95    0.64
  -1  -5  -9    3.51    0.68
  -1  -5  -9    3.87    0.64
   1   5   9    4.31    0.59
   1   5   9    3.87    0.54
   1   5   9    3.98    0.44
  -2  -5  -9    0.94    0.68
  -2  -5  -9    1.55    0.61
  -2  -5  -9    0.98    0.55
   2   5   9    1.74    0.58
   2   5   9    1.41    0.40
   2   5   9    0.95    0.45
  -3  -5  -9    1.12    0.73
  -3  -5  -9    2.27    0.85
  -3  -5  -9    1.50    0.66
   3   5   9    1.35    0.64
  -4  -5  -9    6.54    1.27
  -4  -5  -9   10.00    1.31
   4   5   9    5.56    0.95
   5  -6  -9   12.30    1.12
  -5   6   9   11.87    1.08
  -5   6   9   12.09    1.28
   4  -6  -9   -0.40    0.51
   4  -6  -9    0.33    0.47
   4  -6  -9    0.12    0.40
   4  -6  -9    0.16    0.54
  -4   6   9    0.74    0.60
  -4   6   9   -0.20    0.52
  -4   6   9    0.40    0.69
   3  -6  -9    7.52    0.62
   3  -6  -9    7.68    0.64
   3  -6  -9    8.99    0.87
   3  -6  -9    8.46    0.78
  -3   6   9    8.62    0.85
  -3   6   9    7.65    0.83
  -3   6   9    7.32    0.80
   2  -6  -9    6.98    0.61
   2  -6  -9    5.84    0.72
  -2   6   9    5.85    0.75
  -2   6   9    6.22    0.66
  -2   6   9    5.79    0.68
   1  -6  -9    8.85    0.67
   1  -6  -9   10.15    0.81
   1  -6  -9    9.04    0.44
   1  -6  -9    9.15    0.84
  -1   6   9    7.74    0.68
  -1   6   9    9.19    0.72
  -1   6   9    8.93    0.77
  -1   6   9    7.33    0.63
   0  -6  -9    1.46    0.32
   0  -6  -9    2.00    0.54
   0  -6  -9    1.37    0.61
   0  -6  -9    2.24    0.55
   0   6   9    1.34    0.50
   0   6   9    1.96    0.43
   0   6   9    1.76    0.45
   0   6   9    1.38    0.30
  -1  -6  -9    0.98    0.61
  -1  -6  -9    1.36    0.61
  -1  -6  -9    1.20    0.40
  -1  -6  -9    0.80    0.61
   1   6   9    1.14    0.48
   1   6   9    1.34    0.41
   1   6   9    0.81    0.45
  -2  -6  -9    0.31    0.64
  -2  -6  -9    0.18    0.61
  -2  -6  -9    0.08    0.70
   2   6   9    0.24    0.51
  -3  -6  -9   -0.13    0.63
  -3  -6  -9   -0.32    0.74
  -3  -6  -9    0.31    0.75
   3   6   9   -0.01    0.57
  -4  -6  -9    2.00    1.00
  -4  -6  -9    0.94    1.00
   4   6   9   -0.09    0.76
   5  -7  -9    0.09    0.62
  -5   7   9    0.90    0.74
  -5   7   9    0.09    0.84
   4  -7  -9    7.03    0.77
   4  -7  -9    7.36    0.90
   4  -7  -9    7.37    0.93
  -4   7   9    7.05    0.99
  -4   7   9    5.93    0.94
   3  -7  -9   52.60    1.52
   3  -7  -9   55.71    1.47
   3  -7  -9   53.40    1.83
   3  -7  -9   55.43    1.79
  -3   7   9   51.50    1.79
  -3   7   9   53.44    1.84
  -3   7   9   58.23    1.81
   2  -7  -9   13.35    0.90
   2  -7  -9   12.99    0.99
  -2   7   9   12.50    0.88
  -2   7   9   14.07    0.92
  -2   7   9   10.95    0.87
  -2   7   9   12.20    0.98
   1  -7  -9    8.21    0.69
   1  -7  -9    9.12    0.94
   1  -7  -9   10.25    0.83
  -1   7   9   10.44    0.77
  -1   7   9   10.15    0.90
  -1   7   9    7.42    0.73
  -1   7   9    8.96    0.77
   0  -7  -9    1.80    0.61
   0  -7  -9    2.28    0.41
   0  -7  -9    3.59    0.67
   0  -7  -9    1.51    0.61
   0   7   9    1.99    0.52
   0   7   9    3.34    0.62
   0   7   9    1.43    0.47
  -1  -7  -9    1.84    0.72
  -1  -7  -9    1.04    0.67
  -1  -7  -9    0.55    0.43
  -1  -7  -9    0.60    0.63
   1   7   9    1.28    0.56
   1   7   9    0.79    0.43
   1   7   9    1.19    0.50
  -2  -7  -9    2.03    0.81
  -2  -7  -9    1.64    0.79
  -2  -7  -9    1.53    0.75
   2   7   9    2.44    0.62
  -3  -7  -9    0.63    0.75
  -3  -7  -9    1.60    0.87
  -3  -7  -9    0.29    0.88
   5  -8  -9    0.25    0.67
  -5   8   9    1.56    0.85
  -5   8   9   -0.53    0.83
   4  -8  -9    1.68    0.75
   4  -8  -9    0.73    0.65
   4  -8  -9    0.75    0.52
  -4   8   9    1.32    0.80
  -4   8   9    0.35    0.71
   3  -8  -9    9.69    1.00
   3  -8  -9    8.79    0.98
   3  -8  -9    7.50    0.72
  -3   8   9    7.57    0.94
  -3   8   9    9.91    0.99
  -3   8   9    8.96    0.99
   2  -8  -9    2.40    0.59
   2  -8  -9    3.99    0.79
  -2   8   9    2.03    0.71
  -2   8   9    1.87    0.59
  -2   8   9    1.49    0.56
  -2   8   9    2.53    0.63
   1  -8  -9    0.06    0.48
   1  -8  -9    0.08    0.59
   1  -8  -9    1.14    0.48
  -1   8   9    0.31    0.49
  -1   8   9    0.17    0.51
  -1   8   9    0.19    0.46
  -1   8   9   -0.11    0.42
   0  -8  -9    0.18    0.58
   0  -8  -9    0.01    0.56
   0  -8  -9   -1.02    0.52
   0   8   9    0.28    0.47
   0   8   9    0.24    0.49
   0   8   9    0.43    0.47
  -1  -8  -9    5.72    0.96
  -1  -8  -9    9.10    1.04
  -1  -8  -9    5.89    0.91
   1   8   9    5.24    0.73
   1   8   9    5.25    0.67
   1   8   9    6.67    0.88
  -2  -8  -9    3.81    1.00
  -2  -8  -9    1.86    0.97
  -2  -8  -9    1.40    0.75
   2   8   9    3.57    0.72
  -3  -8  -9   -0.14    0.79
  -3  -8  -9    0.22    0.94
  -3  -8  -9    1.42    0.96
   4  -9  -9    2.50    0.75
   4  -9  -9    1.96    0.72
  -4   9   9    1.24    0.79
  -4   9   9    2.12    0.83
   3  -9  -9   13.75    1.21
   3  -9  -9   13.78    1.21
   3  -9  -9   11.85    1.07
  -3   9   9   14.19    1.20
  -3   9   9   15.24    1.28
  -3   9   9   15.21    1.20
   2  -9  -9    0.17    0.72
   2  -9  -9    1.09    0.57
  -2   9   9    1.22    0.62
  -2   9   9    1.37    0.60
  -2   9   9    1.78    0.70
  -2   9   9    1.87    0.63
   1  -9  -9    1.12    0.74
   1  -9  -9    1.70    0.65
  -1   9   9    1.50    0.58
  -1   9   9    2.11    0.65
  -1   9   9    0.18    0.56
   0  -9  -9    3.32    0.90
   0  -9  -9    1.60    0.71
   0  -9  -9    2.65    0.83
   0   9   9    2.57    0.61
   0   9   9    3.73    0.78
   0   9   9    1.62    0.57
  -1  -9  -9   -0.51    0.71
  -1  -9  -9    0.43    0.79
  -1  -9  -9    0.19    0.80
   1   9   9    0.09    0.60
   1   9   9   -0.68    0.47
   1   9   9    0.52    0.56
  -2  -9  -9   -0.66    0.81
  -2  -9  -9   -1.02    0.74
  -2  -9  -9    1.72    1.05
   2   9   9    0.88    0.62
   2   9   9   -0.26    0.65
   3 -10  -9    1.08    0.75
  -3  10   9   -0.64    0.69
  -3  10   9    0.05    0.72
  -3  10   9    0.43    0.70
   2 -10  -9    3.12    0.91
   2 -10  -9    1.36    0.63
  -2  10   9    0.39    0.72
  -2  10   9    1.81    0.68
  -2  10   9    2.13    0.73
   1 -10  -9    0.54    0.74
   1 -10  -9    0.67    0.80
  -1  10   9    0.08    0.56
  -1  10   9    0.65    0.60
  -1  10   9   -0.43    0.59
   0 -10  -9    0.78    0.82
   0 -10  -9    1.21    0.73
   0 -10  -9    2.00    0.84
   0  10   9    1.20    0.68
   0  10   9    0.99    0.70
   0  10   9    0.85    0.62
  -1 -10  -9    0.98    0.88
  -1 -10  -9    0.10    0.84
  -1 -10  -9   -1.08    0.82
   1  10   9    0.07    0.59
   1  10   9   -0.14    0.57
   1  10   9    0.25    0.57
   2 -11  -9    0.65    0.75
   2 -11  -9    1.27    0.77
  -2  11   9    1.65    0.73
  -2  11   9    2.30    0.84
  -2  11   9    2.72    0.85
   1 -11  -9    0.61    0.76
   1 -11  -9    2.44    0.88
  -1  11   9    1.48    0.71
  -1  11   9    1.66    0.78
  -1  11   9    1.44    0.80
   0 -11  -9    2.80    1.10
   0 -11  -9    1.85    0.88
   0  11   9    2.96    0.84
   0  11   9    2.43    0.76
   0  11   9    2.12    0.77
   1  11 -10    1.50    0.81
  -1 -11  10    1.89    0.89
  -1 -11  10    0.98    0.78
  -1 -11  10    1.27    0.81
  -1 -11  10    0.73    0.67
   0  11 -10   10.91    1.10
   0  11 -10   10.54    0.93
   0 -11  10   13.07    1.28
   0 -11  10    8.82    1.02
  -1  11 -10    4.76    0.76
  -1  11 -10    3.66    0.78
   1 -11  10    3.08    0.89
  -2  11 -10    0.03    0.64
  -2  11 -10    0.43    0.65
   2 -11  10    0.29    0.75
   2  10 -10    2.26    0.66
  -2 -10  10    0.88    0.79
  -2 -10  10    1.39    0.78
  -2 -10  10    1.20    0.80
  -2 -10  10    0.86    0.75
   1  10 -10   10.25    1.07
   1  10 -10   11.06    0.94
  -1 -10  10   12.07    1.20
  -1 -10  10    8.61    1.15
  -1 -10  10   10.88    1.27
  -1 -10  10   10.84    1.10
   0  10 -10    1.96    0.71
   0  10 -10    2.49    0.57
   0 -10  10    2.15    0.76
   0 -10  10    1.42    0.68
   0 -10  10    2.78    0.79
  -1  10 -10    2.48    0.68
  -1  10 -10    3.56    0.68
   1 -10  10    2.37    0.67
   1 -10  10    3.45    0.85
   1 -10  10    3.90    1.33
  -2  10 -10    5.10    0.82
  -2  10 -10    4.37    0.76
  -2  10 -10    4.44    0.86
   2 -10  10    4.31    0.91
   2 -10  10    3.40    0.71
  -3  10 -10    0.83    0.71
  -3  10 -10   -1.16    0.51
  -3  10 -10    0.01    0.63
   3 -10  10    0.56    0.71
   3   9 -10    1.64    0.71
   3   9 -10    2.14    0.82
   3   9 -10    1.67    0.72
  -3  -9  10    2.76    0.82
  -3  -9  10    2.69    0.93
  -3  -9  10    3.03    0.96
   2   9 -10    4.45    0.77
   2   9 -10    3.01    0.61
   2   9 -10    3.24    0.65
   2   9 -10    3.67    0.78
  -2  -9  10    3.46    0.95
  -2  -9  10    5.09    0.90
  -2  -9  10    3.27    0.90
  -2  -9  10    3.55    0.89
  -2  -9  10    2.24    0.83
   1   9 -10    1.82    0.46
   1   9 -10    1.91    0.55
  -1  -9  10    0.75    0.61
  -1  -9  10    2.03    0.69
  -1  -9  10    2.02    0.74
   0   9 -10    3.32    0.55
   0   9 -10    2.38    0.62
   0   9 -10    3.60    0.52
   0  -9  10    2.55    0.72
   0  -9  10    3.32    0.74
   0  -9  10    3.49    0.84
  -1   9 -10    1.72    0.61
  -1   9 -10    3.36    0.68
   1  -9  10    3.87    0.76
   1  -9  10    2.27    0.66
   1  -9  10    4.07    0.79
  -2   9 -10    1.70    0.62
  -2   9 -10    2.13    0.71
  -2   9 -10    2.35    0.61
   2  -9  10    1.48    0.62
   2  -9  10    1.69    0.73
   2  -9  10    0.90    0.62
   2  -9  10    2.19    0.71
  -3   9 -10   -1.07    0.61
  -3   9 -10    0.13    0.68
  -3   9 -10    0.38    0.53
   3  -9  10   -0.41    0.57
   3  -9  10    0.91    0.63
   3  -9  10    0.75    0.69
  -4   9 -10    0.87    0.79
  -4   9 -10   -0.37    0.65
   4  -9  10    0.59    0.82
   4   8 -10    0.61    0.72
   4   8 -10    2.10    0.86
   4   8 -10    0.42    0.69
  -4  -8  10    1.12    0.79
  -4  -8  10    1.66    0.82
   3   8 -10    2.29    0.69
   3   8 -10    3.30    0.77
   3   8 -10    1.74    0.65
   3   8 -10    0.92    0.59
  -3  -8  10    2.08    0.77
  -3  -8  10    0.88    0.63
  -3  -8  10    0.31    0.65
  -3  -8  10    1.20    0.74
   2   8 -10    4.86    0.68
   2   8 -10    6.02    0.75
   2   8 -10    5.56    0.80
  -2  -8  10    4.47    0.82
  -2  -8  10    5.74    0.76
  -2  -8  10    4.56    0.88
  -2  -8  10    4.56    0.82
  -2  -8  10    4.69    0.87
   1   8 -10   -0.34    0.33
   1   8 -10   -0.61    0.44
   1   8 -10   -0.12    0.41
   1   8 -10   -0.22    0.30
   1   8 -10   -0.03    0.36
  -1  -8  10   -0.47    0.51
  -1  -8  10   -0.22    0.50
  -1  -8  10   -0.24    0.58
   0   8 -10    0.16    0.36
   0   8 -10    0.37    0.28
   0   8 -10   -0.47    0.39
   0   8 -10    0.03    0.45
   0  -8  10    0.23    0.55
   0  -8  10   -0.26    0.48
   0  -8  10    0.54    0.52
   0  -8  10   -0.41    0.32
  -1   8 -10    8.45    0.77
  -1   8 -10    8.47    0.83
  -1   8 -10    9.27    0.79
   1  -8  10    9.33    0.94
   1  -8  10    8.96    0.94
   1  -8  10    7.75    0.82
   1  -8  10    9.60    0.81
  -2   8 -10    1.23    0.53
  -2   8 -10    0.18    0.52
  -2   8 -10    0.49    0.45
   2  -8  10    1.89    0.72
   2  -8  10    0.58    0.57
   2  -8  10    0.95    0.59
   2  -8  10   -0.26    0.53
   2  -8  10    0.79    0.49
  -3   8 -10   -0.61    0.56
  -3   8 -10   -1.00    0.51
  -3   8 -10    0.21    0.46
   3  -8  10    0.62    0.62
   3  -8  10    0.12    0.62
   3  -8  10    0.14    0.53
   3  -8  10    0.27    0.61
   3  -8  10   -0.31    0.56
  -4   8 -10   -0.25    0.63
  -4   8 -10   -0.65    0.58
   4  -8  10    1.19    0.74
   4  -8  10    0.35    0.67
   4  -8  10   -0.51    0.64
   4   7 -10    4.19    0.92
   4   7 -10    4.26    0.86
   4   7 -10    5.72    0.93
  -4  -7  10    5.62    1.04
  -4  -7  10    4.08    0.90
   3   7 -10    0.87    0.58
   3   7 -10    1.36    0.63
   3   7 -10    2.28    0.72
   3   7 -10    3.34    0.72
  -3  -7  10    1.63    0.72
  -3  -7  10    1.93    0.57
  -3  -7  10    1.41    0.71
  -3  -7  10    1.67    0.67
  -3  -7  10    2.78    0.76
   2   7 -10   -0.52    0.38
   2   7 -10    0.39    0.48
   2   7 -10   -0.29    0.45
   2   7 -10    0.25    0.44
  -2  -7  10    0.87    0.55
  -2  -7  10    0.34    0.51
  -2  -7  10    0.23    0.59
  -2  -7  10   -0.27    0.52
   1   7 -10    8.37    0.68
   1   7 -10    9.33    0.62
   1   7 -10    9.87    0.71
   1   7 -10    9.37    0.78
   1   7 -10    8.99    0.56
  -1  -7  10    9.59    0.90
  -1  -7  10   11.13    0.96
  -1  -7  10   11.40    0.89
   0   7 -10    2.18    0.33
   0   7 -10    1.96    0.36
   0   7 -10    2.48    0.45
   0   7 -10    2.14    0.41
   0  -7  10    2.13    0.58
   0  -7  10    2.14    0.55
   0  -7  10    2.00    0.55
   0  -7  10    2.94    0.48
  -1   7 -10    0.17    0.41
  -1   7 -10   -0.01    0.24
  -1   7 -10    0.25    0.41
  -1   7 -10    0.33    0.27
  -1   7 -10    0.14    0.39
   1  -7  10    0.02    0.49
   1  -7  10    0.13    0.35
   1  -7  10   -0.36    0.39
   1  -7  10    0.64    0.56
   1  -7  10   -0.37    0.49
  -2   7 -10   16.40    0.99
  -2   7 -10   14.83    0.97
  -2   7 -10   14.71    0.82
   2  -7  10   14.82    1.04
   2  -7  10   15.69    1.04
   2  -7  10   14.59    1.12
   2  -7  10   14.73    1.02
   2  -7  10   13.99    0.91
  -3   7 -10    8.53    0.88
  -3   7 -10    6.25    0.82
  -3   7 -10    9.50    0.68
   3  -7  10    7.08    0.83
   3  -7  10    9.18    0.97
   3  -7  10    7.62    0.91
   3  -7  10    8.52    0.98
   3  -7  10    5.85    0.88
  -4   7 -10    1.64    0.70
  -4   7 -10    1.04    0.66
   4  -7  10    0.10    0.78
   4  -7  10    1.74    0.74
   4  -7  10    0.34    0.69
   4  -7  10    0.69    0.85
   5   6 -10    1.62    0.86
   5   6 -10    1.31    0.79
   5   6 -10    0.79    0.91
  -5  -6  10    1.05    0.80
  -5  -6  10    2.13    0.86
   4   6 -10    3.16    0.77
   4   6 -10    4.27    0.86
   4   6 -10    4.26    0.84
   4   6 -10    1.60    0.67
  -4  -6  10    2.75    0.72
  -4  -6  10    2.26    0.83
  -4  -6  10    1.67    0.82
   3   6 -10    1.29    0.59
   3   6 -10    0.98    0.53
   3   6 -10    1.13    0.57
   3   6 -10    1.10    0.58
  -3  -6  10    1.34    0.49
  -3  -6  10    1.32    0.72
  -3  -6  10    0.23    0.53
  -3  -6  10    1.65    0.65
  -3  -6  10    1.65    0.66
   2   6 -10    1.10    0.55
   2   6 -10    0.69    0.46
   2   6 -10    1.49    0.48
   2   6 -10    1.72    0.46
  -2  -6  10   -0.51    0.42
  -2  -6  10    1.05    0.56
  -2  -6  10    1.17    0.48
  -2  -6  10    1.34    0.58
   1   6 -10    7.75    0.57
   1   6 -10    7.54    0.62
   1   6 -10    7.18    0.51
   1   6 -10    8.50    0.69
   1   6 -10    8.42    0.67
   1   6 -10    6.52    0.44
  -1  -6  10    7.83    0.77
  -1  -6  10    6.31    0.71
  -1  -6  10    7.56    0.75
   0   6 -10    0.27    0.30
   0   6 -10    0.32    0.36
   0   6 -10    0.19    0.19
   0   6 -10    0.12    0.25
   0   6 -10   -0.18    0.31
   0  -6  10    0.58    0.49
   0  -6  10    0.86    0.39
   0  -6  10    0.27    0.26
   0  -6  10    0.07    0.43
   0  -6  10    0.46    0.43
  -1   6 -10   -0.19    0.33
  -1   6 -10   -0.09    0.35
  -1   6 -10    0.39    0.31
  -1   6 -10    0.34    0.26
   1  -6  10    0.08    0.44
   1  -6  10   -1.01    0.41
   1  -6  10    0.60    0.37
   1  -6  10    0.68    0.46
   1  -6  10    0.25    0.43
  -2   6 -10    4.40    0.50
  -2   6 -10    5.45    0.62
  -2   6 -10    4.21    0.62
   2  -6  10    4.20    0.64
   2  -6  10    4.17    0.64
   2  -6  10    5.26    0.70
   2  -6  10    4.36    0.66
   2  -6  10    4.87    0.72
  -3   6 -10    2.73    0.43
  -3   6 -10    3.28    0.63
  -3   6 -10    3.23    0.63
   3  -6  10    3.81    0.77
   3  -6  10    4.03    0.72
   3  -6  10    2.22    0.70
   3  -6  10    4.08    0.69
  -4   6 -10   -0.83    0.56
  -4   6 -10    0.59    0.68
   4  -6  10   -1.27    0.60
   4  -6  10    0.04    0.65
   4  -6  10   -0.82    0.70
  -5   6 -10    0.21    0.68
  -5   6 -10    1.15    0.76
   5  -6  10   -1.62    0.75
   5  -6  10    0.44    0.79
   5   5 -10    7.66    1.01
   5   5 -10    8.63    1.13
   5   5 -10   11.30    1.18
  -5  -5  10    7.60    1.13
  -5  -5  10    9.76    1.10
   4   5 -10    3.06    0.72
   4   5 -10    3.02    0.71
   4   5 -10    1.36    0.63
   4   5 -10    1.61    0.67
  -4  -5  10    2.12    0.67
  -4  -5  10    2.04    0.72
  -4  -5  10    2.82    0.71
   3   5 -10    0.28    0.54
   3   5 -10    0.52    0.47
   3   5 -10   -0.23    0.46
   3   5 -10    0.98    0.53
  -3  -5  10    1.36    0.39
  -3  -5  10   -0.13    0.52
  -3  -5  10   -0.03    0.56
  -3  -5  10    0.90    0.54
  -3  -5  10    0.96    0.50
   2   5 -10   36.14    1.22
   2   5 -10   35.55    1.24
   2   5 -10   32.46    0.82
   2   5 -10   32.60    1.16
   2   5 -10   35.60    1.24
  -2  -5  10   33.87    1.30
  -2  -5  10   32.99    1.28
  -2  -5  10   30.91    1.21
   1   5 -10   14.01    0.76
   1   5 -10   14.28    0.60
   1   5 -10   13.83    0.74
   1   5 -10   14.90    0.69
   1   5 -10   14.69    0.72
  -1  -5  10   14.09    0.81
  -1  -5  10   12.84    0.82
  -1  -5  10   14.09    0.85
   0   5 -10   -0.32    0.20
   0   5 -10    0.27    0.29
   0   5 -10    0.13    0.14
   0   5 -10    0.36    0.28
   0   5 -10   -0.42    0.23
   0  -5  10    0.04    0.36
   0  -5  10    0.10    0.26
   0  -5  10   -0.31    0.30
   0  -5  10    0.06    0.19
   0  -5  10    0.62    0.43
   0  -5  10   -0.24    0.37
  -1   5 -10    5.13    0.43
  -1   5 -10    4.28    0.43
  -1   5 -10    5.35    0.50
  -1   5 -10    3.91    0.51
   1  -5  10    4.80    0.59
   1  -5  10    4.90    0.62
   1  -5  10    5.14    0.54
   1  -5  10    4.28    0.58
   1  -5  10    4.21    0.58
  -2   5 -10    0.46    0.41
  -2   5 -10    0.81    0.30
  -2   5 -10    1.43    0.41
  -2   5 -10    0.37    0.22
   2  -5  10   -0.04    0.41
   2  -5  10    0.76    0.46
   2  -5  10    0.34    0.45
   2  -5  10    0.58    0.46
   2  -5  10    0.41    0.48
  -3   5 -10   -0.30    0.45
  -3   5 -10   -0.06    0.45
   3  -5  10   -0.73    0.49
   3  -5  10    0.30    0.50
   3  -5  10    0.42    0.57
   3  -5  10   -0.66    0.46
  -4   5 -10    0.96    0.61
  -4   5 -10    1.76    0.63
   4  -5  10    1.45    0.81
   4  -5  10    2.58    0.87
  -5   5 -10   10.18    1.08
  -5   5 -10    8.21    1.07
   5  -5  10   10.83    1.26
   5   4 -10    3.74    0.86
   5   4 -10    2.14    0.76
   5   4 -10    2.10    0.78
  -5  -4  10    1.32    0.70
   4   4 -10    0.81    0.57
   4   4 -10    0.30    0.57
   4   4 -10    2.04    0.65
   4   4 -10    0.96    0.58
  -4  -4  10    1.22    0.53
  -4  -4  10    0.53    0.60
  -4  -4  10   -0.49    0.56
   3   4 -10    2.29    0.54
   3   4 -10    1.36    0.54
   3   4 -10    1.75    0.51
   3   4 -10    2.68    0.60
  -3  -4  10    2.22    0.36
  -3  -4  10    2.63    0.58
  -3  -4  10    2.48    0.61
  -3  -4  10    2.30    0.60
   2   4 -10    2.52    0.49
   2   4 -10    2.62    0.45
   2   4 -10    2.71    0.49
   2   4 -10    3.17    0.51
   2   4 -10    2.46    0.24
  -2  -4  10    2.75    0.48
  -2  -4  10    2.19    0.53
  -2  -4  10    2.47    0.49
   1   4 -10    9.04    0.54
   1   4 -10    8.64    0.56
   1   4 -10    7.85    0.61
   1   4 -10    8.46    0.47
  -1  -4  10    8.46    0.69
  -1  -4  10    8.57    0.55
  -1  -4  10    8.82    0.67
  -1  -4  10    7.86    0.67
   0   4 -10    2.23    0.12
   0   4 -10    2.21    0.39
   0   4 -10    2.57    0.25
   0   4 -10    2.19    0.27
   0   4 -10    2.37    0.29
   0  -4  10    2.29    0.38
   0  -4  10    1.92    0.40
   0  -4  10    2.26    0.25
   0  -4  10    1.93    0.46
   0  -4  10    2.25    0.44
   0  -4  10    2.18    0.45
  -1   4 -10    4.87    0.43
  -1   4 -10    4.47    0.39
  -1   4 -10    5.22    0.48
   1  -4  10    3.78    0.58
   1  -4  10    4.01    0.55
   1  -4  10    4.93    0.54
   1  -4  10    4.60    0.53
   1  -4  10    4.53    0.55
  -2   4 -10    0.77    0.40
  -2   4 -10    1.05    0.24
  -2   4 -10    1.04    0.28
   2  -4  10    0.86    0.48
   2  -4  10    0.90    0.43
   2  -4  10    0.95    0.47
   2  -4  10    0.88    0.46
  -3   4 -10    5.76    0.74
  -3   4 -10    5.02    0.68
   3  -4  10    4.23    0.76
   3  -4  10    4.54    0.72
  -4   4 -10    2.74    0.65
  -4   4 -10    3.37    0.71
   4  -4  10    3.21    0.79
   4  -4  10    2.22    0.78
  -5   4 -10    0.40    0.68
  -5   4 -10    0.63    0.70
   5  -4  10    0.77    0.85
   5   3 -10    0.49    0.66
   5   3 -10    0.01    0.60
   5   3 -10    0.22    0.64
   5   3 -10    0.23    0.62
  -5  -3  10    1.18    0.59
   4   3 -10    3.12    0.66
   4   3 -10    4.22    0.74
   4   3 -10    4.18    0.72
   4   3 -10    4.30    0.70
  -4  -3  10    4.54    0.65
  -4  -3  10    3.76    0.70
  -4  -3  10    5.09    0.80
   3   3 -10    1.66    0.51
   3   3 -10    0.80    0.46
   3   3 -10    1.05    0.44
   3   3 -10    0.46    0.41
  -3  -3  10    1.13    0.49
  -3  -3  10    0.59    0.47
  -3  -3  10    1.39    0.46
   2   3 -10  102.68    2.20
   2   3 -10   91.00    2.05
   2   3 -10   97.78    2.10
   2   3 -10   95.47    2.19
  -2  -3  10  101.36    2.21
  -2  -3  10  101.38    2.24
  -2  -3  10   95.28    2.05
   1   3 -10    1.88    0.34
   1   3 -10    1.68    0.38
   1   3 -10    1.60    0.31
   1   3 -10    2.17    0.41
  -1  -3  10    1.35    0.39
  -1  -3  10    1.47    0.31
  -1  -3  10    0.75    0.38
  -1  -3  10    2.01    0.38
  -1  -3  10    1.93    0.17
   0   3 -10   90.72    1.62
   0   3 -10   88.17    1.58
   0   3 -10   91.46    1.58
   0   3 -10   90.22    1.84
   0   3 -10   86.58    2.00
   0  -3  10   88.07    1.93
   0  -3  10   89.10    1.85
   0  -3  10   89.79    1.87
   0  -3  10   88.73    1.96
   0  -3  10   91.44    1.99
  -1   3 -10    0.43    0.28
  -1   3 -10    0.34    0.37
  -1   3 -10   -0.01    0.25
  -1   3 -10    0.39    0.20
   1  -3  10    0.58    0.31
   1  -3  10    0.42    0.32
   1  -3  10    0.32    0.35
   1  -3  10   -0.01    0.34
   1  -3  10   -0.03    0.36
  -2   3 -10    0.38    0.43
  -2   3 -10    0.19    0.32
  -2   3 -10    0.32    0.16
   2  -3  10    0.34    0.37
   2  -3  10    0.26    0.41
   2  -3  10   -0.27    0.43
   2  -3  10    0.39    0.44
  -3   3 -10    2.40    0.55
  -3   3 -10    2.28    0.53
   3  -3  10    3.01    0.64
   3  -3  10    4.10    0.72
  -4   3 -10   13.74    1.07
  -4   3 -10   14.13    1.07
   4  -3  10   12.51    1.15
   4  -3  10   12.66    1.15
  -5   3 -10    0.88    0.69
  -5   3 -10    0.55    0.67
   5  -3  10   -0.18    0.81
   6   2 -10    0.26    0.85
   6   2 -10    1.53    0.83
   6   2 -10    1.19    0.73
   6   2 -10    0.34    0.74
  -6  -2  10   -0.40    0.74
   5   2 -10    3.52    0.76
   5   2 -10    4.47    0.79
   5   2 -10    4.53    0.81
   5   2 -10    3.98    0.85
  -5  -2  10    3.32    0.66
  -5  -2  10    4.49    0.82
   4   2 -10    0.70    0.52
   4   2 -10    1.37    0.55
   4   2 -10    0.84    0.52
   4   2 -10    0.93    0.56
  -4  -2  10    1.02    0.49
  -4  -2  10    0.77    0.53
   3   2 -10    9.99    0.81
   3   2 -10    9.65    0.77
   3   2 -10    9.74    0.77
   3   2 -10   10.27    0.76
  -3  -2  10   10.17    0.69
  -3  -2  10   10.98    0.79
  -3  -2  10    8.66    0.76
  -3  -2  10    8.77    0.37
   2   2 -10   62.63    1.53
   2   2 -10   60.57    1.55
   2   2 -10   61.35    1.52
   2   2 -10   60.27    1.48
  -2  -2  10   61.61    1.58
  -2  -2  10   59.70    1.39
  -2  -2  10   60.57    1.11
  -2  -2  10   60.99    1.58
   1   2 -10    9.85    0.65
   1   2 -10    9.16    0.54
   1   2 -10    9.10    0.60
   1   2 -10    9.72    0.54
   1   2 -10    9.54    0.49
  -1  -2  10    8.45    0.57
  -1  -2  10    9.11    0.63
  -1  -2  10    9.78    0.38
  -1  -2  10    8.56    0.53
  -1  -2  10    8.87    0.50
   0   2 -10   16.59    0.48
   0   2 -10   16.86    0.70
   0   2 -10   17.59    0.87
   0   2 -10   16.34    0.55
   0   2 -10   16.75    0.55
   0  -2  10   17.17    0.78
   0  -2  10   16.13    0.76
   0  -2  10   17.37    0.70
   0  -2  10   16.57    0.64
   0  -2  10   16.14    0.79
  -1   2 -10    5.39    0.24
  -1   2 -10    4.84    0.42
  -1   2 -10    4.87    0.25
  -1   2 -10    4.50    0.54
   1  -2  10    5.37    0.19
   1  -2  10    4.88    0.53
   1  -2  10    5.43    0.56
   1  -2  10    6.44    0.62
   1  -2  10    5.44    0.50
  -2   2 -10    9.89    0.72
  -2   2 -10   10.14    0.34
   2  -2  10   10.18    0.78
   2  -2  10   10.32    0.82
  -3   2 -10    5.96    0.66
  -3   2 -10    6.28    0.71
   3  -2  10    5.43    0.75
   3  -2  10    6.15    0.78
  -4   2 -10    1.18    0.43
  -4   2 -10    0.88    0.58
   4  -2  10   -0.16    0.62
   4  -2  10    1.77    0.71
  -5   2 -10   13.05    1.26
  -5   2 -10   15.90    1.20
   5  -2  10   12.08    1.32
   6   1 -10   -1.23    0.73
   6   1 -10    0.30    0.69
   6   1 -10   -2.20    0.60
   6   1 -10   -0.10    0.74
  -6  -1  10   -0.48    0.63
   5   1 -10   -0.39    0.55
   5   1 -10    0.24    0.63
   5   1 -10    0.53    0.62
   5   1 -10    0.54    0.64
  -5  -1  10    1.27    0.71
   4   1 -10    0.74    0.48
   4   1 -10    0.54    0.52
   4   1 -10    0.10    0.50
   4   1 -10    1.33    0.59
  -4  -1  10    0.46    0.42
   3   1 -10   10.31    0.75
   3   1 -10    9.89    0.77
   3   1 -10   11.10    0.78
   3   1 -10   12.31    0.63
   3   1 -10   10.86    0.81
  -3  -1  10   10.50    0.68
  -3  -1  10   11.23    0.82
  -3  -1  10   11.32    0.40
  -3  -1  10   11.43    0.74
   2   1 -10    2.80    0.47
   2   1 -10    3.90    0.36
   2   1 -10    4.03    0.47
   2   1 -10    3.24    0.45
   2   1 -10    2.78    0.45
  -2  -1  10    3.78    0.47
  -2  -1  10    3.52    0.33
  -2  -1  10    3.75    0.38
  -2  -1  10    3.24    0.45
   1   1 -10   12.55    0.69
   1   1 -10   13.85    0.63
   1   1 -10   13.94    0.68
   1   1 -10   13.73    0.59
  -1  -1  10   13.79    0.52
  -1  -1  10   12.95    0.66
  -1  -1  10   13.31    0.61
  -1  -1  10   13.30    0.50
   0   1 -10   37.94    1.18
   0   1 -10   40.94    0.94
   0   1 -10   42.03    0.96
   0  -1  10   39.46    0.94
   0  -1  10   41.99    1.14
   0  -1  10   38.98    1.18
   0  -1  10   41.42    1.16
   0  -1  10   40.81    1.03
  -1   1 -10    2.45    0.45
  -1   1 -10    3.14    0.51
   1  -1  10    2.55    0.45
   1  -1  10    3.87    0.53
   1  -1  10    4.33    0.44
   1  -1  10    3.22    0.46
  -2   1 -10    0.24    0.40
  -2   1 -10    0.18    0.42
  -2   1 -10    0.13    0.16
   2  -1  10    0.47    0.43
   2  -1  10    0.31    0.43
  -3   1 -10    2.52    0.64
  -3   1 -10    3.27    0.57
   3  -1  10    1.10    0.58
   3  -1  10    3.24    0.65
  -4   1 -10    1.99    0.47
   4  -1  10    0.94    0.68
   4  -1  10    0.72    0.77
  -5   1 -10    0.39    0.69
  -5   1 -10    0.55    0.65
   5  -1  10    1.53    0.90
   6   0 -10    0.85    0.78
   6   0 -10    1.14    0.73
   6   0 -10   -0.02    0.61
  -6   0  10    0.68    0.79
   5   0 -10    0.52    0.65
   5   0 -10    0.49    0.59
   5   0 -10    0.55    0.60
   5   0 -10    1.69    0.60
  -5   0  10    0.10    0.59
   4   0 -10    0.32    0.44
   4   0 -10   -0.25    0.50
   4   0 -10    0.20    0.47
   4   0 -10    0.14    0.49
  -4   0  10    0.99    0.54
  -4   0  10   -0.08    0.33
  -4   0  10    0.06    0.28
   3   0 -10    0.44    0.38
   3   0 -10    0.44    0.44
   3   0 -10    0.60    0.31
   3   0 -10    0.19    0.38
   3   0 -10    0.64    0.42
  -3   0  10    0.56    0.39
  -3   0  10    0.64    0.36
  -3   0  10    0.61    0.30
  -3   0  10    0.42    0.19
   2   0 -10    0.07    0.18
   2   0 -10    0.43    0.35
   2   0 -10    0.01    0.29
   2   0 -10   -0.34    0.28
   2   0 -10    0.17    0.31
  -2   0  10    0.14    0.20
  -2   0  10   -0.18    0.11
  -2   0  10    0.48    0.27
  -2   0  10    0.17    0.28
  -2   0  10    0.07    0.31
   1   0 -10    2.61    0.36
   1   0 -10    2.84    0.43
   1   0 -10    2.04    0.40
   1   0 -10    3.04    0.38
   1   0 -10    2.87    0.18
  -1   0  10    3.27    0.36
  -1   0  10    3.25    0.25
  -1   0  10    2.87    0.36
  -1   0  10    3.23    0.39
   0   0 -10    7.13    0.57
   0   0 -10    6.35    0.57
   0   0  10    6.85    0.59
   0   0  10    6.45    0.58
   0   0  10    7.11    0.56
   0   0  10    6.98    0.41
   0   0  10    6.72    0.29
   0   0  10    6.83    0.35
  -1   0 -10   11.36    0.77
  -1   0 -10   11.62    0.76
   1   0  10   12.44    0.76
   1   0  10   11.82    0.55
   1   0  10   12.94    0.75
  -2   0 -10   11.78    0.54
  -2   0 -10   11.26    0.80
  -2   0 -10   12.02    0.82
   2   0  10   12.79    0.85
   2   0  10   11.34    0.84
  -3   0 -10   11.78    0.84
  -3   0 -10   10.29    0.90
   3   0  10   12.39    0.99
   3   0  10   12.12    1.01
  -4   0 -10    1.22    0.65
  -4   0 -10    0.83    0.43
   4   0  10    0.15    0.58
   4   0  10   -0.64    0.71
  -5   0 -10   25.87    1.55
   5   0  10   27.19    1.75
   6  -1 -10    0.58    0.71
   6  -1 -10    0.10    0.77
   6  -1 -10    0.35    0.58
  -6   1  10    0.25    0.70
   5  -1 -10    2.33    0.67
   5  -1 -10    1.50    0.63
   5  -1 -10    2.13    0.69
   5  -1 -10    1.85    0.65
  -5   1  10    2.76    0.78
   4  -1 -10    2.29    0.53
   4  -1 -10    2.78    0.61
   4  -1 -10    3.01    0.60
   4  -1 -10    2.95    0.61
  -4   1  10    2.22    0.38
  -4   1  10    2.55    0.62
   3  -1 -10    1.07    0.40
   3  -1 -10    0.68    0.41
   3  -1 -10    0.92    0.27
   3  -1 -10    0.61    0.42
   3  -1 -10    0.94    0.33
  -3   1  10    0.41    0.35
  -3   1  10    1.60    0.40
  -3   1  10    0.79    0.46
  -3   1  10    0.84    0.25
   2  -1 -10    1.83    0.40
   2  -1 -10    1.99    0.40
   2  -1 -10    1.41    0.39
   2  -1 -10    1.64    0.39
   2  -1 -10    1.80    0.19
  -2   1  10    1.51    0.35
  -2   1  10    1.50    0.34
  -2   1  10    1.09    0.33
   1  -1 -10    1.29    0.27
   1  -1 -10    1.08    0.33
   1  -1 -10    1.07    0.42
   1  -1 -10    0.84    0.30
  -1   1  10    0.65    0.24
  -1   1  10    0.89    0.24
  -1   1  10    0.91    0.30
  -1   1  10    0.93    0.32
   0  -1 -10    2.82    0.40
   0  -1 -10    2.85    0.47
   0   1  10    2.44    0.44
   0   1  10    3.10    0.24
   0   1  10    3.46    0.46
   0   1  10    3.04    0.26
   0   1  10    2.50    0.27
   0   1  10    2.33    0.35
  -1  -1 -10    4.98    0.59
  -1  -1 -10    5.08    0.59
   1   1  10    5.37    0.36
   1   1  10    5.03    0.57
   1   1  10    4.89    0.40
   1   1  10    4.76    0.56
  -2  -1 -10    0.12    0.41
  -2  -1 -10    0.24    0.39
  -2  -1 -10    0.14    0.43
   2   1  10    0.83    0.45
   2   1  10    0.75    0.51
  -3  -1 -10    5.10    0.66
  -3  -1 -10    5.98    0.81
  -3  -1 -10    3.79    0.72
   3   1  10    4.77    0.75
   3   1  10    3.22    0.69
  -4  -1 -10    5.01    0.67
  -4  -1 -10    4.97    0.89
  -4  -1 -10    4.34    0.88
   4   1  10    5.73    0.84
   4   1  10    3.84    0.82
  -5  -1 -10    8.62    1.18
   5   1  10    6.94    1.18
   6  -2 -10    1.24    0.74
   6  -2 -10    1.22    0.74
   6  -2 -10    0.70    0.70
  -6   2  10   -0.51    0.69
   5  -2 -10    0.52    0.53
   5  -2 -10    0.63    0.61
   5  -2 -10    1.52    0.62
   5  -2 -10   -0.04    0.65
  -5   2  10    0.84    0.67
   4  -2 -10   11.20    0.94
   4  -2 -10   10.90    0.91
   4  -2 -10   10.84    0.79
   4  -2 -10   11.38    0.91
  -4   2  10   12.36    0.97
  -4   2  10   11.05    0.84
  -4   2  10   12.06    0.70
   3  -2 -10    1.82    0.30
   3  -2 -10    1.51    0.42
   3  -2 -10    2.37    0.53
   3  -2 -10    2.39    0.41
   3  -2 -10    1.89    0.46
  -3   2  10    1.79    0.51
  -3   2  10    1.77    0.41
  -3   2  10    3.16    0.38
   2  -2 -10    1.16    0.37
   2  -2 -10    1.55    0.23
   2  -2 -10    1.08    0.11
   2  -2 -10    2.09    0.44
   2  -2 -10    1.26    0.40
   2  -2 -10    0.82    0.35
  -2   2  10    1.08    0.37
  -2   2  10    1.56    0.42
  -2   2  10    1.00    0.28
   1  -2 -10   33.07    0.92
   1  -2 -10   33.96    1.12
  -1   2  10   32.50    1.00
  -1   2  10   32.95    0.89
  -1   2  10   33.22    0.75
  -1   2  10   32.99    0.88
   0  -2 -10    2.87    0.49
   0  -2 -10    3.52    0.46
   0   2  10    4.20    0.52
   0   2  10    3.60    0.42
   0   2  10    3.94    0.50
   0   2  10    3.46    0.22
   0   2  10    3.82    0.20
   0   2  10    2.85    0.33
  -1  -2 -10    4.99    0.62
  -1  -2 -10    4.86    0.64
  -1  -2 -10    4.84    0.60
   1   2  10    4.40    0.57
   1   2  10    5.00    0.29
   1   2  10    5.06    0.55
   1   2  10    5.18    0.41
  -2  -2 -10    0.85    0.47
  -2  -2 -10    1.10    0.52
  -2  -2 -10    0.54    0.48
   2   2  10    0.73    0.47
   2   2  10    1.50    0.52
  -3  -2 -10    0.83    0.53
  -3  -2 -10   -0.25    0.52
  -3  -2 -10    0.04    0.52
   3   2  10    0.38    0.55
   3   2  10    0.62    0.58
  -4  -2 -10    3.80    0.81
  -4  -2 -10    4.57    0.93
  -4  -2 -10    4.51    0.66
   4   2  10    4.24    0.94
   4   2  10    2.37    0.73
  -5  -2 -10    5.80    1.06
  -5  -2 -10    8.08    1.30
   5   2  10    5.92    1.15
   6  -3 -10    3.45    0.86
   6  -3 -10    1.70    0.76
  -6   3  10    2.19    0.84
   5  -3 -10   -0.05    0.62
   5  -3 -10   -0.04    0.55
   5  -3 -10   -0.22    0.57
   5  -3 -10   -0.43    0.46
  -5   3  10   -0.52    0.66
  -5   3  10   -0.27    0.49
   4  -3 -10    4.48    0.75
   4  -3 -10    2.98    0.61
   4  -3 -10    2.65    0.51
   4  -3 -10    2.24    0.62
  -4   3  10    3.04    0.50
  -4   3  10    2.65    0.61
  -4   3  10    2.74    0.66
   3  -3 -10   11.22    0.80
   3  -3 -10   10.87    0.83
   3  -3 -10   11.68    0.71
   3  -3 -10   10.55    0.74
  -3   3  10   11.62    0.86
  -3   3  10   10.36    0.78
   2  -3 -10    9.41    0.74
   2  -3 -10    9.29    0.64
   2  -3 -10   11.67    0.75
   2  -3 -10   11.10    0.52
  -2   3  10    9.77    0.76
  -2   3  10   10.32    0.61
  -2   3  10    9.34    0.69
  -2   3  10    9.88    0.46
   1  -3 -10   12.80    0.65
   1  -3 -10   11.95    0.77
  -1   3  10   12.63    0.52
  -1   3  10   12.43    0.58
  -1   3  10   12.83    0.67
  -1   3  10   12.13    0.69
   0  -3 -10    0.34    0.41
   0  -3 -10    0.64    0.37
   0  -3 -10    0.76    0.38
   0   3  10    0.65    0.30
   0   3  10    0.79    0.15
   0   3  10    0.93    0.40
   0   3  10    0.81    0.29
   0   3  10    1.45    0.27
  -1  -3 -10    2.28    0.57
  -1  -3 -10    2.10    0.52
  -1  -3 -10    2.98    0.58
   1   3  10    1.71    0.14
   1   3  10    1.63    0.30
   1   3  10    1.89    0.43
   1   3  10    2.21    0.49
  -2  -3 -10    1.32    0.56
  -2  -3 -10    0.85    0.55
  -2  -3 -10    1.01    0.50
   2   3  10    0.62    0.54
   2   3  10    0.96    0.43
  -3  -3 -10    0.24    0.62
  -3  -3 -10   -0.64    0.57
  -3  -3 -10    0.60    0.55
   3   3  10   -0.17    0.63
   3   3  10   -0.55    0.49
  -4  -3 -10    0.19    0.77
  -4  -3 -10   -0.12    0.73
   4   3  10    0.05    0.59
   4   3  10   -0.14    0.67
  -5  -3 -10    0.81    0.95
  -5  -3 -10   -0.48    0.81
   5   3  10    1.53    0.86
   6  -4 -10   -0.36    0.74
   6  -4 -10    2.15    0.85
  -6   4  10    0.80    0.80
   5  -4 -10    3.50    0.82
   5  -4 -10    2.75    0.65
   5  -4 -10    2.42    0.79
   5  -4 -10    2.24    0.61
  -5   4  10    0.81    0.68
  -5   4  10    2.50    0.62
   4  -4 -10   12.22    0.90
   4  -4 -10   13.41    1.05
   4  -4 -10   12.81    1.01
   4  -4 -10   12.93    0.84
  -4   4  10   11.93    0.83
  -4   4  10   12.49    1.05
  -4   4  10   10.98    0.92
   3  -4 -10    2.28    0.56
   3  -4 -10    2.43    0.48
   3  -4 -10    1.73    0.42
   3  -4 -10    1.18    0.51
  -3   4  10    2.35    0.57
  -3   4  10    2.41    0.62
   2  -4 -10   13.78    0.83
   2  -4 -10   13.58    0.92
   2  -4 -10   13.70    0.64
   2  -4 -10   14.22    0.75
  -2   4  10   12.89    0.83
  -2   4  10   14.20    0.46
  -2   4  10   14.18    0.87
  -2   4  10   13.93    0.78
   1  -4 -10   29.08    1.01
   1  -4 -10   28.71    1.20
  -1   4  10   29.25    1.07
  -1   4  10   28.03    0.96
  -1   4  10   29.43    0.73
  -1   4  10   29.77    0.97
   0  -4 -10    3.94    0.64
   0  -4 -10    4.92    0.56
   0  -4 -10    5.26    0.58
   0   4  10    4.24    0.46
   0   4  10    4.74    0.43
   0   4  10    4.28    0.28
   0   4  10    3.38    0.34
  -1  -4 -10   10.04    0.84
  -1  -4 -10    9.26    0.83
  -1  -4 -10   11.01    0.85
   1   4  10   10.79    0.66
   1   4  10   10.98    0.78
   1   4  10   10.67    0.73
   1   4  10   10.14    0.54
   1   4  10   11.80    0.52
  -2  -4 -10    1.37    0.61
  -2  -4 -10    2.59    0.66
  -2  -4 -10    1.20    0.61
   2   4  10    1.42    0.46
   2   4  10    1.60    0.60
  -3  -4 -10    2.08    0.81
  -3  -4 -10    0.11    0.57
  -3  -4 -10    0.95    0.69
   3   4  10    0.72    0.51
   3   4  10    0.59    0.57
  -4  -4 -10    0.57    0.82
  -4  -4 -10    0.93    0.78
   4   4  10   -0.12    0.76
   5  -5 -10    0.92    0.66
   5  -5 -10    2.76    0.85
   5  -5 -10    1.62    0.62
  -5   5  10    1.36    0.74
  -5   5  10    2.11    0.65
   4  -5 -10   17.53    1.21
   4  -5 -10   14.55    1.09
   4  -5 -10   13.49    0.86
   4  -5 -10   15.34    0.86
   4  -5 -10   15.19    1.00
  -4   5  10   16.34    1.08
  -4   5  10   14.80    0.98
  -4   5  10   16.29    1.17
   3  -5 -10    0.79    0.44
   3  -5 -10   -0.16    0.43
   3  -5 -10    0.11    0.39
   3  -5 -10   -0.25    0.46
  -3   5  10    0.33    0.44
  -3   5  10   -0.11    0.45
  -3   5  10   -0.02    0.43
   2  -5 -10   65.68    1.81
   2  -5 -10   64.58    1.56
  -2   5  10   64.00    1.72
  -2   5  10   62.63    1.76
  -2   5  10   64.08    1.65
   1  -5 -10   22.91    0.98
   1  -5 -10   21.84    1.08
  -1   5  10   22.04    0.89
  -1   5  10   21.61    0.55
  -1   5  10   20.69    0.87
  -1   5  10   20.61    0.98
   0  -5 -10    0.66    0.56
   0  -5 -10    0.90    0.51
   0  -5 -10    0.98    0.48
   0   5  10   -0.04    0.23
   0   5  10    0.62    0.43
   0   5  10    0.91    0.35
   0   5  10    0.90    0.41
  -1  -5 -10    1.28    0.56
  -1  -5 -10    1.99    0.67
  -1  -5 -10    1.44    0.63
   1   5  10    1.82    0.35
   1   5  10    1.53    0.44
   1   5  10    1.14    0.47
  -2  -5 -10    2.65    0.72
  -2  -5 -10    3.64    0.73
  -2  -5 -10    2.55    0.71
   2   5  10    3.83    0.65
   2   5  10    2.83    0.48
  -3  -5 -10    2.65    0.74
  -3  -5 -10    1.85    0.78
  -3  -5 -10    0.33    0.75
   3   5  10    0.91    0.68
  -4  -5 -10   -0.81    0.84
  -4  -5 -10    0.42    0.90
   4   5  10    0.19    0.76
   5  -6 -10    1.54    0.71
  -5   6  10    1.86    0.81
  -5   6  10    2.59    0.74
   4  -6 -10    4.84    0.81
   4  -6 -10    3.85    0.61
   4  -6 -10    4.50    0.67
   4  -6 -10    5.09    0.85
  -4   6  10    4.51    0.78
  -4   6  10    3.95    0.80
   3  -6 -10    9.53    0.91
   3  -6 -10    8.84    0.72
   3  -6 -10    9.91    0.82
  -3   6  10    7.31    0.79
  -3   6  10    9.90    0.92
  -3   6  10    8.41    0.91
   2  -6 -10   28.42    1.31
   2  -6 -10   29.87    1.09
  -2   6  10   28.68    1.22
  -2   6  10   28.96    1.14
  -2   6  10   27.63    1.20
   1  -6 -10    0.24    0.56
   1  -6 -10    1.13    0.44
   1  -6 -10    1.96    0.52
  -1   6  10    0.68    0.37
  -1   6  10    1.02    0.49
  -1   6  10    1.50    0.50
  -1   6  10    1.15    0.41
   0  -6 -10    1.10    0.51
   0  -6 -10    0.82    0.52
   0  -6 -10    1.59    0.34
   0  -6 -10    0.94    0.54
   0   6  10    1.29    0.42
   0   6  10    1.09    0.32
   0   6  10    1.73    0.55
   0   6  10    1.48    0.46
  -1  -6 -10   12.93    1.08
  -1  -6 -10   12.88    1.07
  -1  -6 -10   13.10    1.06
   1   6  10   13.64    0.89
   1   6  10   13.09    0.90
   1   6  10   13.53    0.70
  -2  -6 -10    1.10    0.63
  -2  -6 -10    2.42    0.82
  -2  -6 -10    1.68    0.72
   2   6  10    1.28    0.52
  -3  -6 -10    1.66    0.87
  -3  -6 -10   -0.64    0.65
  -3  -6 -10   -0.07    0.75
   3   6  10   -0.64    0.58
  -4  -6 -10   -1.22    0.95
  -4  -6 -10   -0.75    0.91
   4   6  10    1.35    0.94
   5  -7 -10    1.06    0.79
  -5   7  10    0.22    0.75
  -5   7  10    0.50    0.72
   4  -7 -10   -1.35    0.50
   4  -7 -10   -0.30    0.43
   4  -7 -10    0.98    0.64
  -4   7  10   -0.26    0.60
  -4   7  10   -0.63    0.60
   3  -7 -10    3.03    0.75
   3  -7 -10    3.24    0.67
   3  -7 -10    2.72    0.52
  -3   7  10    3.72    0.74
  -3   7  10    2.75    0.65
  -3   7  10    2.24    0.64
   2  -7 -10   -0.47    0.57
   2  -7 -10    1.56    0.49
  -2   7  10    0.81    0.52
  -2   7  10    0.32    0.51
  -2   7  10    1.05    0.50
   1  -7 -10    5.41    0.80
   1  -7 -10    5.28    0.63
   1  -7 -10    5.56    0.70
  -1   7  10    5.11    0.63
  -1   7  10    6.74    0.64
  -1   7  10    4.91    0.64
  -1   7  10    4.23    0.69
   0  -7 -10    0.07    0.59
   0  -7 -10   -0.19    0.52
   0  -7 -10    0.27    0.62
   0   7  10    0.84    0.44
   0   7  10    0.09    0.48
   0   7  10   -0.51    0.45
  -1  -7 -10    0.96    0.76
  -1  -7 -10    0.57    0.68
  -1  -7 -10    0.72    0.67
   1   7  10    0.31    0.46
   1   7  10    0.53    0.54
   1   7  10    0.49    0.41
  -2  -7 -10   -0.11    0.73
  -2  -7 -10    1.27    0.78
  -2  -7 -10   -0.12    0.77
   2   7  10   -0.44    0.50
   2   7  10   -0.18    0.52
  -3  -7 -10    3.64    1.11
  -3  -7 -10    4.33    0.90
  -3  -7 -10    5.10    1.16
   4  -8 -10    0.41    0.57
   4  -8 -10    0.75    0.73
  -4   8  10    2.41    0.80
  -4   8  10    0.34    0.72
   3  -8 -10   -0.59    0.54
   3  -8 -10    1.35    0.66
  -3   8  10    0.14    0.58
  -3   8  10    0.19    0.58
  -3   8  10    0.38    0.61
   2  -8 -10    2.76    0.59
   2  -8 -10    2.75    0.71
  -2   8  10    2.05    0.58
  -2   8  10    0.96    0.61
  -2   8  10    2.04    0.63
  -2   8  10    3.11    0.68
   1  -8 -10    0.33    0.52
   1  -8 -10    0.27    0.61
  -1   8  10   -0.65    0.52
  -1   8  10    0.38    0.48
  -1   8  10    0.47    0.44
  -1   8  10    0.00    0.45
   0  -8 -10    2.79    0.75
   0  -8 -10    2.31    0.71
   0  -8 -10    3.65    0.74
   0   8  10    2.75    0.66
   0   8  10    2.86    0.66
   0   8  10    2.88    0.60
  -1  -8 -10    8.37    1.06
  -1  -8 -10    8.79    1.07
  -1  -8 -10   10.54    1.15
   1   8  10    8.80    0.99
   1   8  10    8.24    0.76
   1   8  10    8.12    0.86
  -2  -8 -10    1.40    0.77
  -2  -8 -10    2.96    0.91
  -2  -8 -10    3.48    1.03
   2   8  10    2.36    0.69
  -3  -8 -10   -0.46    0.77
  -3  -8 -10    0.36    0.89
  -3  -8 -10    1.06    1.10
   3   8  10   -0.31    0.60
   4  -9 -10    3.27    0.88
  -4   9  10    2.93    0.93
  -4   9  10    2.06    0.91
   3  -9 -10   -0.53    0.65
  -3   9  10   -0.17    0.61
  -3   9  10   -0.12    0.67
  -3   9  10    0.80    0.74
   2  -9 -10    7.02    0.81
   2  -9 -10    8.93    1.12
  -2   9  10    7.60    0.95
  -2   9  10    7.18    0.96
  -2   9  10    6.61    0.86
  -2   9  10    7.96    0.87
   1  -9 -10   -0.31    0.64
   1  -9 -10    0.64    0.74
  -1   9  10   -0.09    0.55
  -1   9  10    0.57    0.54
  -1   9  10   -0.47    0.50
   0  -9 -10    0.78    0.62
   0  -9 -10    1.60    0.82
   0  -9 -10    0.09    0.75
   0   9  10    0.72    0.56
   0   9  10    1.13    0.62
   0   9  10    0.65    0.55
  -1  -9 -10    0.10    0.80
  -1  -9 -10    0.14    0.70
  -1  -9 -10   -1.30    0.79
   1   9  10   -1.20    0.58
   1   9  10   -0.20    0.55
   1   9  10    0.05    0.82
  -2  -9 -10   -0.01    0.98
  -2  -9 -10    0.09    0.79
  -2  -9 -10   -0.13    0.82
   2   9  10    0.75    0.63
   2   9  10   -0.82    0.55
   3 -10 -10    0.37    0.75
  -3  10  10   -1.16    0.66
  -3  10  10    1.69    0.80
  -3  10  10    0.34    0.81
   2 -10 -10    1.82    0.88
   2 -10 -10    0.87    0.67
  -2  10  10    0.21    0.62
  -2  10  10    0.92    0.82
  -2  10  10   -0.04    0.60
   1 -10 -10    4.41    0.91
   1 -10 -10    3.45    0.95
  -1  10  10    5.35    0.91
  -1  10  10    3.20    0.79
  -1  10  10    2.93    0.72
   0 -10 -10    0.68    0.87
   0 -10 -10    1.75    0.84
   0  10  10    0.14    0.59
   0  10  10    0.19    0.60
   0  10  10    1.15    0.71
  -1 -10 -10   -0.44    0.77
  -1 -10 -10    0.36    0.88
  -1 -10 -10    0.75    0.85
   1  10  10    0.26    0.61
   1  10  10    1.69    0.76
   1  11 -11    0.58    0.72
  -1 -11  11    1.39    0.81
  -1 -11  11    3.09    1.03
  -1 -11  11    0.34    0.83
  -1 -11  11    1.57    0.84
   0  11 -11   -1.27    0.55
   0 -11  11    0.33    0.71
   0 -11  11   -1.16    0.79
  -1  11 -11    0.70    0.65
  -1  11 -11   -0.17    0.66
   1 -11  11    0.81    0.80
   1 -11  11    1.46    0.71
  -2  11 -11   -0.01    0.64
  -2  11 -11   -0.09    0.63
   2 -11  11    0.33    0.76
   2  10 -11    6.55    0.88
  -2 -10  11    7.98    1.16
  -2 -10  11    8.39    1.11
  -2 -10  11    9.48    1.23
  -2 -10  11    5.34    1.04
   1  10 -11    1.77    0.70
   1  10 -11    1.22    0.58
  -1 -10  11    2.20    0.84
  -1 -10  11    4.14    0.85
   0  10 -11   16.30    1.19
   0  10 -11   13.98    0.99
   0 -10  11   14.19    1.28
   0 -10  11   15.55    1.15
  -1  10 -11    0.73    0.59
  -1  10 -11    1.52    0.67
   1 -10  11    0.33    0.73
   1 -10  11    1.14    0.65
  -2  10 -11    2.45    0.72
  -2  10 -11    2.74    0.76
  -2  10 -11    2.07    0.66
   2 -10  11    3.21    0.93
   2 -10  11    1.17    0.64
  -3  10 -11    4.73    0.96
  -3  10 -11    4.08    0.90
   3 -10  11    1.90    0.85
   3   9 -11    2.96    0.79
   3   9 -11    2.72    0.78
   3   9 -11    3.76    0.86
  -3  -9  11    2.62    0.88
  -3  -9  11    3.47    0.94
   2   9 -11    1.38    0.64
   2   9 -11    0.74    0.58
   2   9 -11    1.38    0.59
  -2  -9  11    3.97    0.86
  -2  -9  11    1.55    0.79
  -2  -9  11    1.14    0.77
  -2  -9  11    1.63    0.74
   1   9 -11    4.05    0.64
  -1  -9  11    2.75    0.76
  -1  -9  11    4.44    0.84
  -1  -9  11    4.16    0.88
   0   9 -11    3.01    0.54
   0   9 -11    3.75    0.68
   0  -9  11    2.83    0.74
   0  -9  11    2.41    0.76
   0  -9  11    2.99    0.69
  -1   9 -11    0.02    0.47
  -1   9 -11   -0.38    0.46
   1  -9  11    0.13    0.54
   1  -9  11   -0.72    0.56
   1  -9  11   -0.45    0.57
  -2   9 -11    1.40    0.53
  -2   9 -11    1.74    0.65
  -2   9 -11    0.55    0.63
   2  -9  11    0.54    0.60
   2  -9  11    1.73    0.67
   2  -9  11    0.67    0.66
   2  -9  11   -0.52    0.64
  -3   9 -11    0.80    0.74
  -3   9 -11    1.22    0.71
   3  -9  11    0.32    0.66
   3  -9  11    0.09    0.64
   3  -9  11   -0.05    0.71
   4   8 -11    2.91    0.84
   4   8 -11    3.22    0.85
   4   8 -11    5.66    0.94
  -4  -8  11    3.56    1.03
  -4  -8  11    2.03    0.86
   3   8 -11    1.92    0.73
   3   8 -11    1.21    0.67
   3   8 -11    0.05    0.57
   3   8 -11    2.49    0.74
  -3  -8  11    0.09    0.70
  -3  -8  11    0.56    0.73
  -3  -8  11    0.36    0.70
   2   8 -11    0.20    0.50
   2   8 -11    0.14    0.59
   2   8 -11    0.43    0.55
  -2  -8  11    0.28    0.60
  -2  -8  11    0.78    0.65
  -2  -8  11   -0.01    0.62
  -2  -8  11    0.32    0.59
   1   8 -11    2.39    0.49
   1   8 -11    1.51    0.50
   1   8 -11    1.71    0.43
   1   8 -11    2.27    0.50
  -1  -8  11    1.73    0.71
  -1  -8  11    1.53    0.67
  -1  -8  11    2.57    0.66
   0   8 -11    1.70    0.53
   0   8 -11    0.57    0.40
   0   8 -11    1.78    0.48
   0  -8  11    0.88    0.62
   0  -8  11    0.89    0.61
   0  -8  11    1.17    0.43
   0  -8  11    1.93    0.64
  -1   8 -11    0.08    0.42
  -1   8 -11    0.24    0.44
  -1   8 -11    0.43    0.45
   1  -8  11    0.55    0.53
   1  -8  11    0.55    0.56
   1  -8  11    0.33    0.49
   1  -8  11    0.46    0.56
  -2   8 -11   22.66    1.05
  -2   8 -11   21.42    1.16
  -2   8 -11   20.17    1.19
   2  -8  11   19.80    1.26
   2  -8  11   20.42    1.26
   2  -8  11   19.89    1.24
   2  -8  11   23.10    1.27
  -3   8 -11    1.39    0.68
  -3   8 -11    0.43    0.63
   3  -8  11   -0.04    0.61
   3  -8  11   -0.19    0.61
   3  -8  11    1.06    0.71
   3  -8  11    0.05    0.61
   3  -8  11    0.61    0.63
  -4   8 -11   -0.44    0.65
  -4   8 -11   -0.21    0.73
   4  -8  11   -0.98    0.73
   4  -8  11    1.03    0.77
   4  -8  11   -0.19    0.67
   4   7 -11    1.26    0.71
   4   7 -11    2.18    0.76
   4   7 -11    1.19    0.71
  -4  -7  11    1.82    0.86
  -4  -7  11    2.02    0.80
   3   7 -11   -0.10    0.63
   3   7 -11    0.27    0.53
   3   7 -11   -0.04    0.47
   3   7 -11    0.82    0.69
  -3  -7  11    0.61    0.67
  -3  -7  11    0.47    0.64
  -3  -7  11   -0.17    0.54
  -3  -7  11    0.38    0.66
   2   7 -11    1.74    0.56
   2   7 -11    1.96    0.53
   2   7 -11    0.90    0.53
   2   7 -11    1.58    0.51
  -2  -7  11    1.19    0.54
  -2  -7  11    1.53    0.63
  -2  -7  11    1.72    0.63
  -2  -7  11    1.81    0.64
   1   7 -11   10.57    0.77
   1   7 -11   13.14    0.83
   1   7 -11   13.48    0.60
   1   7 -11   12.37    0.78
   1   7 -11   11.14    0.66
  -1  -7  11   12.89    0.96
  -1  -7  11   11.29    0.97
  -1  -7  11   10.50    0.93
   0   7 -11    0.22    0.32
   0   7 -11    0.00    0.38
   0   7 -11    0.10    0.35
   0  -7  11   -0.49    0.52
   0  -7  11    0.12    0.39
   0  -7  11    0.36    0.55
   0  -7  11    0.33    0.50
  -1   7 -11    2.30    0.37
  -1   7 -11    1.60    0.49
  -1   7 -11    1.35    0.47
  -1   7 -11    1.32    0.46
   1  -7  11    1.46    0.59
   1  -7  11    1.73    0.44
   1  -7  11    1.47    0.55
   1  -7  11    1.27    0.58
   1  -7  11    1.53    0.50
  -2   7 -11    3.92    0.54
  -2   7 -11    3.94    0.61
  -2   7 -11    3.36    0.70
   2  -7  11    3.58    0.69
   2  -7  11    3.43    0.71
   2  -7  11    3.17    0.70
   2  -7  11    3.44    0.64
   2  -7  11    2.97    0.66
  -3   7 -11   16.38    1.15
  -3   7 -11   18.67    1.20
   3  -7  11   16.30    1.22
   3  -7  11   18.82    1.38
   3  -7  11   17.91    1.14
   3  -7  11   17.43    1.22
   3  -7  11   19.35    1.22
  -4   7 -11    8.29    1.00
  -4   7 -11    9.53    1.07
   4  -7  11    7.48    1.10
   4  -7  11    9.55    1.10
   4  -7  11    9.42    1.01
   5   6 -11    0.06    0.76
   5   6 -11   -0.97    0.71
   5   6 -11    0.45    0.72
  -5  -6  11    0.82    0.82
  -5  -6  11   -0.20    0.70
   4   6 -11    6.44    0.92
   4   6 -11    6.37    0.95
   4   6 -11    5.27    0.87
   4   6 -11    7.36    0.93
  -4  -6  11    4.90    0.90
  -4  -6  11    5.83    1.03
  -4  -6  11    7.22    0.94
   3   6 -11    2.96    0.69
   3   6 -11    3.07    0.68
   3   6 -11    3.99    0.72
   3   6 -11    2.19    0.62
  -3  -6  11    3.44    0.75
  -3  -6  11    4.16    0.71
  -3  -6  11    3.79    0.79
  -3  -6  11    4.89    0.82
   2   6 -11    5.27    0.69
   2   6 -11    7.26    0.71
   2   6 -11    7.91    0.76
   2   6 -11    6.21    0.69
  -2  -6  11    7.34    0.84
  -2  -6  11    7.10    0.79
  -2  -6  11    7.55    0.81
   1   6 -11   66.80    1.48
   1   6 -11   67.45    1.62
   1   6 -11   64.50    1.54
   1   6 -11   62.15    1.70
   1   6 -11   63.86    1.33
   1   6 -11   65.32    1.69
  -1  -6  11   66.12    1.87
  -1  -6  11   64.85    1.87
  -1  -6  11   67.09    1.86
   0   6 -11   -0.34    0.29
   0   6 -11    0.34    0.32
   0   6 -11   -0.04    0.25
   0  -6  11    0.19    0.44
   0  -6  11    0.41    0.35
   0  -6  11    0.85    0.49
   0  -6  11    0.55    0.31
   0  -6  11    0.34    0.52
  -1   6 -11   21.86    0.79
  -1   6 -11   22.50    0.98
  -1   6 -11   22.96    0.91
  -1   6 -11   21.14    0.87
   1  -6  11   22.74    0.96
   1  -6  11   22.80    1.13
   1  -6  11   22.04    1.08
   1  -6  11   23.09    1.09
   1  -6  11   21.39    1.06
  -2   6 -11    7.61    0.81
  -2   6 -11    9.02    0.79
  -2   6 -11    7.46    0.59
   2  -6  11    8.89    0.83
   2  -6  11    7.80    0.82
   2  -6  11    7.95    0.84
   2  -6  11    7.67    0.80
   2  -6  11    8.78    0.88
  -3   6 -11   12.44    1.05
  -3   6 -11    9.28    0.89
   3  -6  11    9.15    1.00
   3  -6  11    9.92    0.94
   3  -6  11    9.90    1.01
   3  -6  11    9.26    0.93
  -4   6 -11   -0.62    0.62
  -4   6 -11    0.11    0.60
   4  -6  11   -0.16    0.77
   4  -6  11   -0.88    0.66
   4  -6  11    0.80    0.68
   4  -6  11    0.76    0.66
  -5   6 -11    2.54    0.81
  -5   6 -11    2.49    0.80
   5  -6  11    3.03    0.96
   5  -6  11    1.71    0.97
   5   5 -11    4.72    0.91
   5   5 -11    5.95    1.07
   5   5 -11    4.72    1.00
  -5  -5  11    5.08    1.08
  -5  -5  11    3.59    0.87
   4   5 -11    1.42    0.68
   4   5 -11    1.18    0.66
   4   5 -11    1.50    0.74
   4   5 -11    1.38    0.64
  -4  -5  11    1.56    0.59
  -4  -5  11    0.12    0.61
  -4  -5  11   -0.62    0.54
   3   5 -11    0.99    0.56
   3   5 -11    0.77    0.49
   3   5 -11    0.77    0.49
   3   5 -11    0.97    0.60
  -3  -5  11    0.94    0.61
  -3  -5  11    0.77    0.50
  -3  -5  11    1.41    0.61
   2   5 -11    5.67    0.62
   2   5 -11    8.56    0.76
   2   5 -11    6.34    0.65
   2   5 -11    7.01    0.71
  -2  -5  11    7.00    0.71
  -2  -5  11    6.18    0.74
  -2  -5  11    6.33    0.75
   1   5 -11    1.25    0.37
   1   5 -11    1.43    0.32
   1   5 -11    0.50    0.41
   1   5 -11    1.50    0.34
   1   5 -11    0.51    0.38
  -1  -5  11    1.84    0.50
  -1  -5  11    1.23    0.47
  -1  -5  11    1.25    0.44
   0   5 -11    2.97    0.20
   0   5 -11    3.64    0.38
   0   5 -11    2.72    0.32
   0   5 -11    4.08    0.51
   0   5 -11    3.30    0.28
   0   5 -11    3.43    0.46
   0  -5  11    3.38    0.55
   0  -5  11    3.11    0.44
   0  -5  11    3.04    0.29
   0  -5  11    3.60    0.57
   0  -5  11    3.78    0.55
   0  -5  11    2.93    0.49
  -1   5 -11    0.19    0.37
  -1   5 -11    0.33    0.31
  -1   5 -11    0.44    0.28
  -1   5 -11    0.27    0.31
   1  -5  11    0.44    0.43
   1  -5  11    0.70    0.47
   1  -5  11    0.35    0.40
   1  -5  11   -0.08    0.39
   1  -5  11   -0.50    0.45
  -2   5 -11    2.88    0.37
  -2   5 -11    2.24    0.49
  -2   5 -11    2.11    0.52
  -2   5 -11    2.51    0.34
   2  -5  11    2.20    0.55
   2  -5  11    2.92    0.58
   2  -5  11    1.97    0.61
   2  -5  11    3.00    0.61
   2  -5  11    2.77    0.57
  -3   5 -11   -0.63    0.40
  -3   5 -11   -0.11    0.46
   3  -5  11    0.09    0.56
   3  -5  11    0.52    0.66
   3  -5  11    0.25    0.53
   3  -5  11   -0.07    0.52
  -4   5 -11    8.83    0.95
  -4   5 -11    9.56    1.05
   4  -5  11    9.12    1.10
   4  -5  11   10.37    1.07
   4  -5  11    7.73    1.05
  -5   5 -11    8.73    1.03
  -5   5 -11    7.33    1.05
   5  -5  11    6.24    1.16
   5   4 -11   -1.49    0.70
   5   4 -11   -1.03    0.62
   5   4 -11    1.08    0.73
  -5  -4  11   -1.04    0.48
   4   4 -11    4.31    0.78
   4   4 -11    4.24    0.86
   4   4 -11    2.97    0.74
   4   4 -11    3.45    0.72
  -4  -4  11    3.43    0.76
  -4  -4  11    3.50    0.69
  -4  -4  11    3.38    0.75
   3   4 -11   -0.08    0.47
   3   4 -11    0.40    0.48
   3   4 -11   -0.58    0.38
   3   4 -11    0.23    0.47
  -3  -4  11    0.33    0.51
  -3  -4  11   -0.50    0.47
  -3  -4  11   -0.92    0.35
   2   4 -11   57.15    1.13
   2   4 -11   57.87    1.55
   2   4 -11   57.43    1.61
   2   4 -11   60.49    1.57
   2   4 -11   54.50    1.60
  -2  -4  11   55.35    1.65
  -2  -4  11   55.98    1.66
  -2  -4  11   55.43    1.55
   1   4 -11   22.86    0.92
   1   4 -11   22.86    0.80
   1   4 -11   21.74    0.82
  -1  -4  11   21.06    0.98
  -1  -4  11   24.12    1.01
  -1  -4  11   23.28    0.94
   0   4 -11   33.21    0.77
   0   4 -11   31.78    0.82
   0   4 -11   32.99    0.83
   0   4 -11   34.56    1.02
   0  -4  11   32.76    1.07
   0  -4  11   34.34    1.06
   0  -4  11   31.75    1.13
   0  -4  11   32.88    1.17
   0  -4  11   34.44    1.20
  -1   4 -11   63.95    1.34
  -1   4 -11   61.71    1.72
  -1   4 -11   62.85    1.44
  -1   4 -11   60.11    1.41
   1  -4  11   65.27    1.75
   1  -4  11   60.55    1.63
   1  -4  11   62.22    1.61
   1  -4  11   62.73    1.58
   1  -4  11   57.98    1.62
  -2   4 -11    5.21    0.47
  -2   4 -11    5.74    0.58
  -2   4 -11    5.29    0.38
   2  -4  11    5.44    0.73
   2  -4  11    5.53    0.72
   2  -4  11    6.20    0.69
   2  -4  11    5.12    0.65
  -3   4 -11    5.07    0.73
  -3   4 -11    4.21    0.66
   3  -4  11    5.11    0.80
   3  -4  11    5.35    0.84
  -4   4 -11    0.92    0.60
  -4   4 -11    1.81    0.66
   4  -4  11    0.96    0.75
   4  -4  11    1.58    0.73
  -5   4 -11    3.79    0.79
  -5   4 -11    1.50    0.76
   5  -4  11    0.96    0.92
   5   3 -11   -0.20    0.65
   5   3 -11    0.38    0.65
   5   3 -11   -0.69    0.61
  -5  -3  11    1.06    0.60
   4   3 -11    3.83    0.74
   4   3 -11    3.60    0.67
   4   3 -11    3.51    0.68
   4   3 -11    3.53    0.73
  -4  -3  11    3.51    0.64
  -4  -3  11    3.75    0.73
  -4  -3  11    3.07    0.66
   3   3 -11    1.82    0.50
   3   3 -11    1.57    0.55
   3   3 -11    1.23    0.48
   3   3 -11    1.52    0.51
  -3  -3  11    1.72    0.54
  -3  -3  11    1.61    0.45
  -3  -3  11    1.91    0.55
   2   3 -11   28.35    1.01
   2   3 -11   27.49    1.01
   2   3 -11   25.20    1.05
  -2  -3  11   29.81    1.13
  -2  -3  11   29.15    1.00
  -2  -3  11   28.20    1.09
   1   3 -11   -0.20    0.31
   1   3 -11   -0.01    0.26
   1   3 -11   -0.24    0.26
   1   3 -11    0.17    0.33
  -1  -3  11   -0.19    0.32
  -1  -3  11    0.34    0.40
  -1  -3  11   -0.15    0.30
  -1  -3  11    0.23    0.15
  -1  -3  11    0.05    0.26
   0   3 -11    2.34    0.26
   0   3 -11    2.35    0.26
   0   3 -11    2.38    0.28
   0   3 -11    2.07    0.49
   0   3 -11    1.73    0.36
   0  -3  11    2.23    0.47
   0  -3  11    2.26    0.44
   0  -3  11    2.42    0.40
   0  -3  11    1.90    0.44
   0  -3  11    1.84    0.43
  -1   3 -11    8.39    0.73
  -1   3 -11    8.06    0.22
  -1   3 -11    8.92    0.42
  -1   3 -11    8.35    0.52
  -1   3 -11    8.21    0.57
   1  -3  11    8.94    0.70
   1  -3  11    8.19    0.73
   1  -3  11    9.23    0.69
   1  -3  11    7.85    0.59
   1  -3  11    7.22    0.64
  -2   3 -11    3.88    0.58
  -2   3 -11    3.21    0.47
  -2   3 -11    3.90    0.28
   2  -3  11    4.24    0.61
   2  -3  11    3.89    0.65
   2  -3  11    3.65    0.63
   2  -3  11    3.74    0.57
  -3   3 -11    0.62    0.47
  -3   3 -11   -0.03    0.44
   3  -3  11   -0.03    0.56
   3  -3  11    0.35    0.57
  -4   3 -11    9.79    0.99
  -4   3 -11    8.91    0.91
   4  -3  11    9.04    1.08
   4  -3  11   12.20    1.26
  -5   3 -11   11.71    1.09
  -5   3 -11   17.00    1.44
   5  -3  11   12.26    1.41
   6   2 -11    1.51    0.75
   6   2 -11    1.49    0.83
   6   2 -11    1.11    0.88
   6   2 -11    0.58    0.79
  -6  -2  11    0.48    0.71
   5   2 -11    1.28    0.68
   5   2 -11    0.89    0.61
   5   2 -11    0.62    0.67
   5   2 -11    0.43    0.71
  -5  -2  11    0.80    0.67
  -5  -2  11    1.32    0.61
   4   2 -11    3.63    0.72
   4   2 -11    2.02    0.64
   4   2 -11    1.72    0.59
   4   2 -11    0.97    0.55
  -4  -2  11    1.77    0.55
  -4  -2  11    1.94    0.63
   3   2 -11    0.69    0.43
   3   2 -11    0.54    0.47
   3   2 -11    0.49    0.43
   3   2 -11    0.67    0.46
  -3  -2  11    0.33    0.37
  -3  -2  11    0.74    0.44
  -3  -2  11    0.46    0.44
   2   2 -11   50.94    1.40
   2   2 -11   49.89    1.36
   2   2 -11   47.70    1.41
   2   2 -11   50.04    1.38
  -2  -2  11   49.87    0.99
  -2  -2  11   51.54    1.26
  -2  -2  11   50.88    1.42
  -2  -2  11   52.87    1.45
   1   2 -11   41.29    1.19
   1   2 -11   39.81    1.06
   1   2 -11   41.41    1.25
   1   2 -11   41.75    1.09
  -1  -2  11   40.19    1.22
  -1  -2  11   40.86    0.89
  -1  -2  11   40.57    1.16
  -1  -2  11   39.45    1.02
   0   2 -11   34.48    0.85
   0   2 -11   36.87    0.88
   0   2 -11   35.71    0.79
   0   2 -11   35.39    1.09
   0  -2  11   34.79    1.04
   0  -2  11   37.62    1.15
   0  -2  11   37.25    1.15
   0  -2  11   37.09    0.98
   0  -2  11   33.98    1.16
  -1   2 -11    3.92    0.24
  -1   2 -11    4.23    0.60
  -1   2 -11    4.30    0.42
  -1   2 -11    4.20    0.26
   1  -2  11    3.69    0.52
   1  -2  11    3.81    0.52
   1  -2  11    4.71    0.51
   1  -2  11    4.27    0.60
  -2   2 -11   18.90    0.85
  -2   2 -11   17.51    0.97
  -2   2 -11   18.63    0.49
   2  -2  11   18.88    0.99
   2  -2  11   18.44    1.00
   2  -2  11   17.66    0.85
  -3   2 -11    0.43    0.48
  -3   2 -11   -0.27    0.50
   3  -2  11    0.54    0.59
   3  -2  11    0.23    0.58
  -4   2 -11   -0.09    0.46
  -4   2 -11   -0.27    0.55
   4  -2  11   -0.51    0.61
   4  -2  11    0.68    0.71
  -5   2 -11   -1.37    0.52
  -5   2 -11    0.07    0.68
   5  -2  11   -0.57    0.95
   6   1 -11    1.11    0.79
   6   1 -11    0.94    0.89
   6   1 -11    0.44    0.69
  -6  -1  11    0.49    0.81
   5   1 -11    0.73    0.67
   5   1 -11    0.23    0.63
   5   1 -11    0.41    0.57
   5   1 -11   -0.17    0.56
  -5  -1  11   -0.36    0.58
   4   1 -11    0.42    0.54
   4   1 -11    0.40    0.51
   4   1 -11   -0.71    0.45
   4   1 -11    0.21    0.48
  -4  -1  11    0.26    0.49
  -4  -1  11    0.43    0.43
   3   1 -11    7.60    0.70
   3   1 -11    8.98    0.60
   3   1 -11    7.03    0.75
   3   1 -11    6.18    0.65
   3   1 -11    8.44    0.76
  -3  -1  11    7.99    0.61
  -3  -1  11    6.51    0.66
  -3  -1  11    6.84    0.71
   2   1 -11    2.35    0.32
   2   1 -11    1.75    0.43
   2   1 -11    2.18    0.43
   2   1 -11    1.73    0.44
   2   1 -11    1.67    0.41
  -2  -1  11    1.27    0.28
  -2  -1  11    1.60    0.42
  -2  -1  11    1.31    0.38
  -2  -1  11    1.56    0.29
   1   1 -11    0.34    0.34
   1   1 -11    0.50    0.33
   1   1 -11    0.77    0.31
   1   1 -11    0.41    0.30
  -1  -1  11    0.65    0.35
  -1  -1  11    0.77    0.26
  -1  -1  11    0.91    0.31
  -1  -1  11    0.54    0.22
   0   1 -11    6.09    0.43
   0   1 -11    6.06    0.43
   0   1 -11    5.63    0.58
   0  -1  11    5.60    0.57
   0  -1  11    5.52    0.40
   0  -1  11    6.25    0.60
   0  -1  11    6.15    0.55
   0  -1  11    5.08    0.46
  -1   1 -11   -0.20    0.35
  -1   1 -11   -0.05    0.35
   1  -1  11    0.23    0.29
   1  -1  11   -0.40    0.37
   1  -1  11    0.08    0.37
   1  -1  11   -0.17    0.35
  -2   1 -11    1.21    0.46
  -2   1 -11    2.20    0.53
  -2   1 -11    2.19    0.27
   2  -1  11    2.32    0.55
   2  -1  11    1.33    0.52
  -3   1 -11    1.38    0.58
  -3   1 -11    1.23    0.51
   3  -1  11    1.05    0.61
   3  -1  11    0.81    0.60
  -4   1 -11    8.53    0.81
   4  -1  11    7.50    1.11
   4  -1  11    6.41    0.93
  -5   1 -11    2.47    0.83
   5  -1  11    0.92    0.90
   6   0 -11    0.71    0.89
   6   0 -11    1.49    0.71
   6   0 -11    2.19    0.90
  -6   0  11    2.24    0.90
   5   0 -11    0.25    0.57
   5   0 -11    0.44    0.66
   5   0 -11    1.82    0.76
   5   0 -11    1.48    0.63
  -5   0  11    0.46    0.64
   4   0 -11    0.08    0.52
   4   0 -11    0.25    0.47
   4   0 -11    0.12    0.48
   4   0 -11    1.00    0.51
  -4   0  11    0.17    0.52
  -4   0  11    0.58    0.36
   3   0 -11    2.91    0.53
   3   0 -11    3.58    0.54
   3   0 -11    3.66    0.56
   3   0 -11    3.83    0.46
  -3   0  11    3.34    0.44
  -3   0  11    4.00    0.58
  -3   0  11    3.71    0.52
   2   0 -11   10.75    0.65
   2   0 -11   10.17    0.69
   2   0 -11    9.45    0.65
   2   0 -11    9.66    0.41
   2   0 -11   10.23    0.68
  -2   0  11    9.30    0.52
  -2   0  11    9.92    0.64
  -2   0  11   10.32    0.44
  -2   0  11    8.96    0.60
   1   0 -11    0.78    0.14
   1   0 -11    1.48    0.38
   1   0 -11    1.01    0.33
   1   0 -11    0.76    0.35
   1   0 -11    0.98    0.37
  -1   0  11    1.11    0.30
  -1   0  11    0.40    0.30
  -1   0  11    0.55    0.16
  -1   0  11    1.23    0.31
   0   0 -11    8.09    0.66
   0   0 -11    8.00    0.61
   0   0  11    7.80    0.45
   0   0  11    8.13    0.66
   0   0  11    8.57    0.32
   0   0  11    8.57    0.39
   0   0  11    8.61    0.58
   0   0  11    7.86    0.67
  -1   0 -11   21.42    0.96
  -1   0 -11   23.16    1.00
   1   0  11   21.64    0.74
   1   0  11   22.94    1.01
   1   0  11   23.18    0.99
  -2   0 -11    5.29    0.44
  -2   0 -11    5.09    0.65
  -2   0 -11    4.21    0.63
   2   0  11    4.98    0.67
   2   0  11    5.35    0.67
  -3   0 -11    7.18    0.73
  -3   0 -11    8.70    0.94
   3   0  11    6.53    0.83
   3   0  11    7.20    0.85
  -4   0 -11    9.66    1.05
  -4   0 -11    9.82    0.86
   4   0  11   10.13    1.09
   4   0  11    9.51    1.04
   5   0  11    0.42    0.95
   6  -1 -11   -0.64    0.53
   6  -1 -11    0.03    0.70
   6  -1 -11   -0.74    0.65
  -6   1  11    0.37    0.82
   5  -1 -11    0.54    0.63
   5  -1 -11    0.92    0.53
   5  -1 -11   -0.86    0.52
   5  -1 -11   -0.10    0.57
  -5   1  11   -0.25    0.59
   4  -1 -11    0.15    0.51
   4  -1 -11   -0.35    0.46
   4  -1 -11   -0.53    0.44
   4  -1 -11   -0.03    0.48
  -4   1  11    0.09    0.52
   3  -1 -11    9.86    0.67
   3  -1 -11    9.15    0.75
   3  -1 -11    9.86    0.76
   3  -1 -11    8.57    0.77
  -3   1  11    9.53    0.65
  -3   1  11   10.69    0.69
   2  -1 -11    0.05    0.12
   2  -1 -11    0.38    0.35
   2  -1 -11   -0.03    0.32
   2  -1 -11    0.46    0.36
   2  -1 -11   -0.03    0.36
  -2   1  11    0.17    0.29
  -2   1  11    0.08    0.28
  -2   1  11   -0.01    0.30
   1  -1 -11   10.94    0.65
   1  -1 -11   10.77    0.56
   1  -1 -11    9.38    0.70
   1  -1 -11    9.99    0.61
  -1   1  11   10.52    0.61
  -1   1  11   10.16    0.47
  -1   1  11   10.56    0.57
  -1   1  11    9.70    0.48
   0  -1 -11   33.32    1.04
   0  -1 -11   32.89    1.16
   0   1  11   32.88    0.79
   0   1  11   34.69    1.15
   0   1  11   31.88    1.12
   0   1  11   33.16    0.99
   0   1  11   33.58    0.78
   0   1  11   34.22    0.70
   0   1  11   33.54    0.70
  -1  -1 -11    0.25    0.41
  -1  -1 -11    0.21    0.37
   1   1  11    0.05    0.23
   1   1  11    0.39    0.39
   1   1  11    0.14    0.21
   1   1  11    0.67    0.42
  -2  -1 -11    2.12    0.55
  -2  -1 -11    1.52    0.49
   2   1  11    1.84    0.53
   2   1  11    1.90    0.55
  -3  -1 -11   -1.30    0.49
  -3  -1 -11    0.34    0.58
  -3  -1 -11   -0.09    0.45
   3   1  11    0.11    0.52
   3   1  11   -0.25    0.55
  -4  -1 -11   21.00    1.38
  -4  -1 -11   18.96    1.12
   4   1  11   18.09    1.38
   4   1  11   21.77    1.43
  -5  -1 -11    0.27    0.83
   5   1  11   -0.54    0.84
   6  -2 -11    0.79    0.82
   6  -2 -11   -0.32    0.69
   6  -2 -11    0.91    0.59
  -6   2  11    0.40    0.75
   5  -2 -11    0.16    0.59
   5  -2 -11   -0.18    0.53
   5  -2 -11   -0.32    0.64
   5  -2 -11    0.34    0.58
  -5   2  11    0.30    0.70
   4  -2 -11   20.16    1.14
   4  -2 -11   22.63    1.07
   4  -2 -11   21.62    1.18
   4  -2 -11   19.46    1.12
  -4   2  11   22.91    1.22
  -4   2  11   21.49    0.82
  -4   2  11   21.00    1.03
   3  -2 -11    8.04    0.66
   3  -2 -11    7.42    0.76
   3  -2 -11    7.44    0.67
   3  -2 -11    8.01    0.74
  -3   2  11    8.47    0.70
  -3   2  11    7.59    0.59
  -3   2  11    7.06    0.74
   2  -2 -11    1.74    0.26
   2  -2 -11    1.62    0.40
   2  -2 -11    1.05    0.38
   2  -2 -11    1.24    0.39
   2  -2 -11    0.99    0.40
  -2   2  11    1.29    0.41
  -2   2  11    1.07    0.36
  -2   2  11    1.56    0.34
   1  -2 -11   49.02    1.19
   1  -2 -11   47.54    1.43
  -1   2  11   47.73    0.99
  -1   2  11   46.77    1.15
  -1   2  11   48.94    1.29
  -1   2  11   47.53    1.12
   0  -2 -11   -0.31    0.35
   0  -2 -11   -0.32    0.38
   0   2  11   -0.26    0.28
   0   2  11   -0.13    0.11
   0   2  11   -0.21    0.11
   0   2  11    0.08    0.23
   0   2  11    0.24    0.35
   0   2  11   -0.64    0.34
  -1  -2 -11    0.65    0.44
  -1  -2 -11    0.89    0.46
   1   2  11    1.28    0.21
   1   2  11    1.61    0.49
   1   2  11    1.18    0.27
   1   2  11    1.29    0.46
  -2  -2 -11    0.01    0.48
  -2  -2 -11    0.72    0.53
  -2  -2 -11    0.75    0.54
   2   2  11    0.45    0.45
   2   2  11    0.27    0.51
  -3  -2 -11    2.49    0.65
  -3  -2 -11    1.68    0.66
  -3  -2 -11    1.39    0.69
   3   2  11    1.97    0.66
   3   2  11    1.56    0.63
  -4  -2 -11    0.79    0.79
  -4  -2 -11    1.37    0.80
  -4  -2 -11    1.85    0.65
   4   2  11    1.06    0.75
   4   2  11    0.40    0.61
  -5  -2 -11    1.33    0.94
  -5  -2 -11    2.27    1.08
   5   2  11    2.17    1.01
   6  -3 -11    4.68    0.95
   6  -3 -11    2.50    0.80
  -6   3  11    3.50    1.01
   5  -3 -11    0.86    0.64
   5  -3 -11    0.71    0.67
   5  -3 -11    1.13    0.55
   5  -3 -11    0.44    0.65
  -5   3  11    1.10    0.70
   4  -3 -11    2.98    0.64
   4  -3 -11    4.08    0.63
   4  -3 -11    4.41    0.68
   4  -3 -11    3.22    0.68
  -4   3  11    4.98    0.82
  -4   3  11    3.68    0.63
  -4   3  11    3.37    0.50
   3  -3 -11    0.11    0.42
   3  -3 -11   -0.57    0.34
   3  -3 -11    0.19    0.38
   3  -3 -11   -0.43    0.42
  -3   3  11    0.42    0.45
  -3   3  11    0.35    0.44
   2  -3 -11    1.42    0.46
   2  -3 -11    1.59    0.32
   2  -3 -11    1.27    0.41
   2  -3 -11    1.21    0.44
   2  -3 -11    1.27    0.42
  -2   3  11    0.89    0.42
  -2   3  11    0.97    0.28
  -2   3  11    1.37    0.38
  -2   3  11    1.01    0.44
   1  -3 -11   33.74    1.05
   1  -3 -11   32.29    1.21
  -1   3  11   31.89    0.96
  -1   3  11   33.35    1.15
  -1   3  11   33.84    1.02
  -1   3  11   33.62    0.90
   0  -3 -11   16.21    0.83
   0   3  11   12.77    0.89
   0   3  11   14.94    0.67
   0   3  11   14.62    0.65
   0   3  11   15.45    0.38
   0   3  11   15.31    0.59
  -1  -3 -11    0.23    0.47
  -1  -3 -11    0.52    0.47
  -1  -3 -11    0.45    0.46
   1   3  11   -0.42    0.34
   1   3  11   -0.09    0.23
   1   3  11    0.15    0.33
   1   3  11    0.65    0.49
  -2  -3 -11    1.16    0.59
  -2  -3 -11    1.31    0.60
  -2  -3 -11    0.49    0.50
   2   3  11    1.34    0.59
   2   3  11    3.51    0.63
  -3  -3 -11    0.72    0.68
  -3  -3 -11    0.91    0.62
  -3  -3 -11    1.28    0.67
   3   3  11    1.01    0.65
   3   3  11    0.63    0.59
  -4  -3 -11    9.43    1.31
  -4  -3 -11   11.09    1.26
   4   3  11    5.88    0.87
   4   3  11    9.27    1.17
   5  -4 -11    2.45    0.58
   5  -4 -11    2.64    0.67
   5  -4 -11    3.76    0.81
   5  -4 -11    3.37    0.96
  -5   4  11    3.46    0.85
   4  -4 -11    9.05    0.94
   4  -4 -11    5.85    0.66
   4  -4 -11    7.69    0.90
   4  -4 -11    6.96    0.80
  -4   4  11    7.85    0.94
  -4   4  11    7.75    0.82
  -4   4  11    6.89    0.68
   3  -4 -11    1.92    0.53
   3  -4 -11    2.17    0.51
   3  -4 -11    2.22    0.56
   3  -4 -11    2.91    0.53
  -3   4  11    2.05    0.57
  -3   4  11    2.68    0.60
   2  -4 -11   14.74    0.67
   2  -4 -11   13.00    0.78
   2  -4 -11   13.61    0.93
   2  -4 -11   14.15    0.90
  -2   4  11   10.88    0.75
  -2   4  11   12.40    0.81
  -2   4  11   13.72    0.83
  -2   4  11   12.65    0.48
   1  -4 -11   27.41    1.02
   1  -4 -11   28.51    1.21
  -1   4  11   28.95    1.10
  -1   4  11   30.13    0.97
  -1   4  11   29.39    0.78
  -1   4  11   28.44    0.98
   0  -4 -11    1.27    0.51
   0  -4 -11    0.80    0.42
   0  -4 -11    0.86    0.49
   0   4  11    0.67    0.34
   0   4  11    0.54    0.24
   0   4  11    0.36    0.27
  -1  -4 -11    2.96    0.61
  -1  -4 -11    2.14    0.57
  -1  -4 -11    1.77    0.57
   1   4  11    2.66    0.50
   1   4  11    2.01    0.43
   1   4  11    2.16    0.54
  -2  -4 -11   -0.46    0.61
  -2  -4 -11   -0.81    0.54
  -2  -4 -11   -0.45    0.53
   2   4  11    0.08    0.50
   2   4  11   -0.33    0.42
  -3  -4 -11    5.75    1.02
  -3  -4 -11    5.80    0.98
  -3  -4 -11    8.23    0.94
   3   4  11    6.83    0.89
   3   4  11    4.93    0.74
  -4  -4 -11    0.53    1.01
  -4  -4 -11    1.45    0.86
   4   4  11    0.21    0.80
   5  -5 -11    2.80    0.81
   5  -5 -11    2.51    0.68
  -5   5  11    1.85    0.80
   4  -5 -11    3.65    0.73
   4  -5 -11    3.35    0.56
   4  -5 -11    3.46    0.86
   4  -5 -11    3.45    0.71
   4  -5 -11    3.13    0.67
  -4   5  11    1.55    0.64
  -4   5  11    3.64    0.80
   3  -5 -11    0.84    0.49
   3  -5 -11    0.06    0.37
   3  -5 -11   -0.16    0.46
   3  -5 -11    0.54    0.50
  -3   5  11   -0.40    0.45
  -3   5  11   -0.35    0.47
  -3   5  11   -0.41    0.47
   2  -5 -11   -0.13    0.44
   2  -5 -11    0.68    0.52
   2  -5 -11    0.27    0.33
  -2   5  11   -0.57    0.42
  -2   5  11   -0.73    0.38
  -2   5  11    0.61    0.42
   1  -5 -11   76.49    1.90
   1  -5 -11   78.71    2.11
  -1   5  11   75.48    1.83
  -1   5  11   78.32    1.78
  -1   5  11   77.57    2.01
   0  -5 -11    5.70    0.66
   0  -5 -11    5.89    0.77
   0  -5 -11    5.61    0.67
   0   5  11    6.00    0.54
   0   5  11    6.03    0.48
   0   5  11    6.08    0.70
   0   5  11    5.56    0.57
   0   5  11    6.85    0.46
  -1  -5 -11    7.02    0.84
  -1  -5 -11    7.31    0.93
  -1  -5 -11    8.34    0.87
   1   5  11    8.23    0.83
   1   5  11    8.09    0.57
   1   5  11    7.59    0.68
  -2  -5 -11    1.86    0.72
  -2  -5 -11    1.00    0.66
  -2  -5 -11    1.48    0.73
   2   5  11    1.74    0.48
   2   5  11    1.70    0.59
  -3  -5 -11    8.71    1.18
  -3  -5 -11    6.78    0.96
  -3  -5 -11    7.25    1.06
   3   5  11    6.38    0.87
  -4  -5 -11   10.18    1.29
  -4  -5 -11    7.17    1.24
   4   5  11    6.17    1.06
   5  -6 -11   -0.39    0.61
  -5   6  11   -0.39    0.64
  -5   6  11    1.25    0.78
   4  -6 -11    0.27    0.58
   4  -6 -11    0.08    0.57
   4  -6 -11    0.17    0.46
   4  -6 -11   -0.35    0.51
  -4   6  11   -0.14    0.57
  -4   6  11    0.15    0.62
   3  -6 -11    8.89    0.76
   3  -6 -11    6.46    0.85
   3  -6 -11    9.67    0.89
  -3   6  11    7.21    0.84
  -3   6  11    9.09    0.91
  -3   6  11    6.95    0.85
   2  -6 -11    6.97    0.79
   2  -6 -11    7.38    0.68
  -2   6  11    6.93    0.73
  -2   6  11    8.10    0.81
  -2   6  11    7.66    0.74
   1  -6 -11    1.05    0.44
   1  -6 -11    0.26    0.52
   1  -6 -11    0.71    0.44
  -1   6  11    0.38    0.38
  -1   6  11    0.72    0.47
  -1   6  11    0.86    0.44
   0  -6 -11    3.25    0.61
   0  -6 -11    2.64    0.68
   0  -6 -11    2.37    0.66
   0   6  11    2.55    0.46
   0   6  11    2.74    0.61
   0   6  11    3.09    0.52
  -1  -6 -11    3.96    0.77
  -1  -6 -11    4.68    0.81
  -1  -6 -11    4.50    0.78
   1   6  11    4.66    0.69
   1   6  11    4.39    0.63
   1   6  11    5.04    0.52
  -2  -6 -11   -0.07    0.67
  -2  -6 -11    1.17    0.74
  -2  -6 -11    1.35    0.70
   2   6  11    0.72    0.49
   2   6  11    1.53    0.62
  -3  -6 -11    0.64    0.86
  -3  -6 -11   -0.84    0.70
  -3  -6 -11   -1.56    0.65
   3   6  11    0.20    0.65
   5  -7 -11    1.98    0.85
  -5   7  11    0.98    0.85
  -5   7  11    1.41    0.82
   4  -7 -11   -0.16    0.54
   4  -7 -11    0.55    0.72
  -4   7  11   -0.27    0.61
  -4   7  11    0.18    0.63
   3  -7 -11    1.39    0.50
   3  -7 -11    1.39    0.63
   3  -7 -11    0.88    0.61
  -3   7  11    0.62    0.57
  -3   7  11    1.30    0.68
  -3   7  11    0.96    0.63
   2  -7 -11    2.44    0.67
   2  -7 -11    2.64    0.54
  -2   7  11    2.28    0.59
  -2   7  11    2.30    0.58
  -2   7  11    2.41    0.63
   1  -7 -11    0.33    0.53
   1  -7 -11    0.42    0.58
   1  -7 -11   -0.47    0.41
  -1   7  11    0.40    0.45
  -1   7  11    0.00    0.43
  -1   7  11   -0.12    0.47
  -1   7  11    0.12    0.41
   0  -7 -11    4.17    0.79
   0  -7 -11    3.35    0.71
   0  -7 -11    4.15    0.73
   0   7  11    3.62    0.65
   0   7  11    4.44    0.58
   0   7  11    3.38    0.70
  -1  -7 -11    0.43    0.67
  -1  -7 -11    0.40    0.62
  -1  -7 -11    0.04    0.69
   1   7  11   -0.32    0.41
   1   7  11    0.19    0.55
   1   7  11    0.43    0.49
  -2  -7 -11   -0.08    0.71
  -2  -7 -11   -0.30    0.82
  -2  -7 -11   -0.91    0.73
   2   7  11    0.01    0.50
   2   7  11   -0.09    0.52
  -3  -7 -11    5.29    1.05
  -3  -7 -11    3.09    1.08
  -3  -7 -11    3.74    1.10
   4  -8 -11    1.11    0.73
  -4   8  11    0.19    0.80
  -4   8  11    2.29    0.81
   3  -8 -11    1.89    0.65
   3  -8 -11    1.62    0.67
  -3   8  11    1.58    0.69
  -3   8  11    1.70    0.73
  -3   8  11    1.69    0.66
   2  -8 -11    1.26    0.56
   2  -8 -11    1.56    0.65
  -2   8  11    1.27    0.65
  -2   8  11    0.51    0.54
  -2   8  11    0.93    0.57
   1  -8 -11    1.30    0.74
   1  -8 -11    1.38    0.65
  -1   8  11    0.48    0.58
  -1   8  11    1.41    0.55
  -1   8  11    1.19    0.54
   0  -8 -11    1.14    0.65
   0  -8 -11   -0.71    0.58
   0  -8 -11   -0.02    0.61
   0   8  11    0.77    0.58
   0   8  11    0.07    0.46
   0   8  11    1.02    0.51
  -1  -8 -11    3.86    0.87
  -1  -8 -11    2.05    0.80
  -1  -8 -11    4.30    0.87
   1   8  11    2.73    0.67
   1   8  11    2.22    0.75
  -2  -8 -11    1.59    0.92
  -2  -8 -11    2.29    0.94
  -2  -8 -11    1.52    0.99
   2   8  11    2.03    0.71
   4  -9 -11    0.17    0.71
  -4   9  11    0.39    0.78
  -4   9  11    0.66    0.77
   3  -9 -11   11.87    1.19
  -3   9  11   12.61    1.18
  -3   9  11   13.77    1.25
  -3   9  11   13.76    1.23
   2  -9 -11   -0.55    0.51
   2  -9 -11    0.36    0.75
  -2   9  11    1.04    0.73
  -2   9  11    0.23    0.58
  -2   9  11   -0.21    0.52
   1  -9 -11   -0.04    0.58
   1  -9 -11   -0.34    0.74
  -1   9  11   -0.68    0.48
  -1   9  11    0.97    0.63
  -1   9  11    0.09    0.63
   0  -9 -11    4.97    1.02
   0  -9 -11    4.17    0.79
   0  -9 -11    3.62    0.88
   0   9  11    3.34    0.74
   0   9  11    2.84    0.80
   0   9  11    5.53    0.74
  -1  -9 -11    0.20    0.81
  -1  -9 -11    0.01    0.78
  -1  -9 -11    0.58    0.80
   1   9  11    0.95    0.60
   1   9  11    0.04    0.61
   2 -10 -11    0.50    0.65
   2 -10 -11   -0.35    0.79
  -2  10  11    0.20    0.58
  -2  10  11    0.43    0.82
   1 -10 -11    0.77    0.77
   1 -10 -11   -0.42    0.74
  -1  10  11    1.69    0.70
  -1  10  11    1.60    0.73
  -1  10  11    0.44    0.70
   0 -10 -11    1.11    0.95
   0 -10 -11    1.19    0.83
   0  10  11    0.27    0.66
   0  10  11   -0.68    0.54
   0  10  11    0.17    0.59
   1  11 -12    0.76    0.79
  -1 -11  12    0.60    0.83
  -1 -11  12   -0.72    0.79
  -1 -11  12    1.79    0.89
  -1 -11  12    1.61    0.88
   0  11 -12    1.21    0.75
   0 -11  12    1.82    0.86
   0 -11  12    0.58    0.75
  -1  11 -12    2.05    0.76
  -1  11 -12    1.97    0.76
   1 -11  12    1.87    0.87
   1 -11  12    1.90    0.75
   2  10 -12    2.08    0.74
  -2 -10  12    1.51    0.89
  -2 -10  12    4.01    1.05
  -2 -10  12    0.64    0.90
  -2 -10  12    3.42    0.94
   1  10 -12   -0.36    0.61
   1  10 -12    0.73    0.57
  -1 -10  12    0.46    0.70
  -1 -10  12   -0.41    0.80
   0  10 -12    3.63    0.73
   0  10 -12    3.93    0.68
   0 -10  12    4.56    0.95
   0 -10  12    5.22    0.92
  -1  10 -12   10.85    1.01
  -1  10 -12   10.61    0.97
   1 -10  12   10.02    1.19
   1 -10  12   12.11    1.12
  -2  10 -12    1.54    0.63
  -2  10 -12    0.41    0.65
  -2  10 -12   -0.12    0.62
   2 -10  12    1.54    0.81
   2 -10  12    0.79    0.72
   3   9 -12   14.56    1.33
   3   9 -12   17.35    1.33
   3   9 -12   16.57    1.32
  -3  -9  12   13.30    1.40
  -3  -9  12   16.84    1.47
   2   9 -12    0.08    0.54
   2   9 -12   -0.07    0.51
   2   9 -12   -0.42    0.55
  -2  -9  12    0.08    0.70
  -2  -9  12    0.40    0.74
  -2  -9  12   -0.28    0.72
  -2  -9  12    0.60    0.70
   1   9 -12    0.67    0.48
  -1  -9  12    0.50    0.71
  -1  -9  12   -0.28    0.59
  -1  -9  12   -0.22    0.64
   0   9 -12   22.04    1.12
   0   9 -12   22.87    1.29
   0  -9  12   21.69    1.35
   0  -9  12   21.54    1.35
   0  -9  12   20.30    1.32
  -1   9 -12   20.75    1.22
  -1   9 -12   17.44    1.12
   1  -9  12   19.54    1.41
   1  -9  12   17.15    1.16
   1  -9  12   18.86    1.28
  -2   9 -12    0.21    0.59
  -2   9 -12    0.05    0.59
  -2   9 -12   -0.03    0.48
   2  -9  12   -1.56    0.50
   2  -9  12    0.01    0.55
   2  -9  12    0.49    0.69
  -3   9 -12    2.82    0.79
  -3   9 -12    1.52    0.75
   3  -9  12    1.21    0.86
   3  -9  12    1.29    0.76
   3  -9  12    1.47    0.72
   3   8 -12    1.25    0.65
   3   8 -12    0.67    0.69
   3   8 -12    1.22    0.69
   3   8 -12    0.64    0.61
  -3  -8  12    3.45    0.90
  -3  -8  12    0.43    0.73
  -3  -8  12    0.23    0.79
   2   8 -12    2.52    0.65
   2   8 -12    2.55    0.65
   2   8 -12    2.59    0.63
  -2  -8  12    2.07    0.80
  -2  -8  12    3.86    0.82
  -2  -8  12    2.22    0.68
  -2  -8  12    2.47    0.77
   1   8 -12   -0.27    0.37
   1   8 -12   -0.06    0.38
   1   8 -12   -0.31    0.40
  -1  -8  12    0.01    0.54
  -1  -8  12    0.29    0.59
  -1  -8  12    0.59    0.62
   0   8 -12    6.01    0.67
   0   8 -12    5.12    0.70
   0   8 -12    6.48    0.65
   0  -8  12    6.30    0.83
   0  -8  12    7.31    0.71
   0  -8  12    6.60    0.88
   0  -8  12    7.29    0.91
  -1   8 -12   12.64    0.98
  -1   8 -12   13.74    0.93
  -1   8 -12   14.47    0.89
   1  -8  12   12.48    0.92
   1  -8  12   10.84    0.97
   1  -8  12   13.71    1.19
   1  -8  12   11.91    1.12
  -2   8 -12   -0.68    0.49
  -2   8 -12   -0.37    0.42
  -2   8 -12    0.31    0.56
   2  -8  12   -0.19    0.57
   2  -8  12   -0.08    0.63
   2  -8  12   -0.11    0.60
   2  -8  12    0.29    0.64
  -3   8 -12    2.21    0.74
  -3   8 -12    0.49    0.63
   3  -8  12    2.87    0.76
   3  -8  12    1.75    0.69
   3  -8  12    1.85    0.80
   3  -8  12    1.78    0.74
  -4   8 -12    1.01    0.80
  -4   8 -12   -0.03    0.70
   4  -8  12    1.72    0.81
   4  -8  12   -0.05    0.83
   4  -8  12    0.04    0.76
   4   7 -12   -1.07    0.63
   4   7 -12    0.90    0.72
   4   7 -12    0.34    0.69
  -4  -7  12    0.53    0.72
  -4  -7  12    0.67    0.79
   3   7 -12   14.41    1.10
   3   7 -12   14.42    1.15
   3   7 -12   15.68    1.23
   3   7 -12   13.37    1.13
  -3  -7  12   15.79    1.24
  -3  -7  12   13.33    1.22
  -3  -7  12   14.34    1.21
  -3  -7  12   11.57    1.18
   2   7 -12   -0.36    0.48
   2   7 -12    0.32    0.44
   2   7 -12   -0.15    0.50
   2   7 -12   -0.09    0.47
  -2  -7  12   -0.33    0.63
  -2  -7  12   -0.60    0.54
  -2  -7  12   -0.46    0.50
   1   7 -12   34.13    1.24
   1   7 -12   34.08    1.07
   1   7 -12   33.73    1.18
   1   7 -12   34.94    1.26
  -1  -7  12   35.70    1.43
  -1  -7  12   34.78    1.44
  -1  -7  12   34.37    1.49
   0   7 -12   81.44    1.96
   0   7 -12   84.37    1.94
   0   7 -12   83.40    1.75
   0   7 -12   83.21    1.88
   0  -7  12   81.47    2.05
   0  -7  12   80.11    2.24
   0  -7  12   83.41    2.24
   0  -7  12   80.54    2.20
  -1   7 -12    0.80    0.45
  -1   7 -12    0.94    0.43
  -1   7 -12    1.67    0.51
  -1   7 -12    1.10    0.34
   1  -7  12    1.88    0.46
   1  -7  12    1.49    0.59
   1  -7  12    0.22    0.55
   1  -7  12    1.38    0.52
   1  -7  12    1.77    0.67
  -2   7 -12    3.95    0.74
  -2   7 -12    3.86    0.54
  -2   7 -12    2.96    0.56
   2  -7  12    3.57    0.75
   2  -7  12    2.47    0.68
   2  -7  12    4.44    0.81
   2  -7  12    3.57    0.77
   2  -7  12    3.41    0.66
  -3   7 -12   11.97    1.06
  -3   7 -12   12.24    1.08
   3  -7  12   13.03    1.12
   3  -7  12   14.12    1.20
   3  -7  12   13.11    1.14
   3  -7  12   10.54    1.08
   3  -7  12   11.73    1.08
  -4   7 -12    5.61    1.01
  -4   7 -12    5.45    0.92
   4  -7  12    5.99    0.99
   4  -7  12    5.03    0.94
   4  -7  12    5.38    0.98
   4   6 -12    2.06    0.76
   4   6 -12    3.08    0.81
   4   6 -12    2.87    0.72
   4   6 -12    2.33    0.74
  -4  -6  12    3.70    0.87
  -4  -6  12    3.93    0.79
  -4  -6  12    4.03    0.85
   3   6 -12    4.42    0.77
   3   6 -12    2.75    0.69
   3   6 -12    2.63    0.61
   3   6 -12    4.42    0.76
  -3  -6  12    3.94    0.77
  -3  -6  12    4.51    0.82
  -3  -6  12    3.83    0.75
   2   6 -12   -0.22    0.44
   2   6 -12    0.46    0.48
   2   6 -12   -0.59    0.38
   2   6 -12   -0.29    0.43
  -2  -6  12    0.09    0.57
  -2  -6  12    0.03    0.52
  -2  -6  12    0.25    0.50
   1   6 -12   13.51    0.67
   1   6 -12   13.78    0.81
   1   6 -12   14.38    0.69
   1   6 -12   12.96    0.81
   1   6 -12   13.04    0.76
  -1  -6  12   13.73    0.99
  -1  -6  12   12.55    1.01
  -1  -6  12   14.21    1.04
   0   6 -12    0.98    0.41
   0   6 -12    1.00    0.40
   0   6 -12    1.23    0.28
   0  -6  12    0.50    0.50
   0  -6  12    0.91    0.50
   0  -6  12    1.23    0.39
   0  -6  12    0.55    0.45
   0  -6  12    0.86    0.51
  -1   6 -12   16.96    0.80
  -1   6 -12   16.89    0.83
  -1   6 -12   16.31    0.76
  -1   6 -12   15.74    0.90
   1  -6  12   17.95    0.93
   1  -6  12   15.64    1.03
   1  -6  12   17.02    1.00
   1  -6  12   15.82    1.00
   1  -6  12   16.81    1.00
  -2   6 -12   16.80    1.02
  -2   6 -12   17.29    0.96
  -2   6 -12   15.87    0.75
   2  -6  12   17.87    1.16
   2  -6  12   18.44    1.09
   2  -6  12   16.89    1.06
   2  -6  12   15.99    1.14
   2  -6  12   18.96    1.17
  -3   6 -12    0.51    0.56
  -3   6 -12   -0.11    0.49
   3  -6  12    0.98    0.58
   3  -6  12   -0.15    0.67
   3  -6  12    0.34    0.66
   3  -6  12    0.20    0.57
   3  -6  12    0.97    0.59
  -4   6 -12    0.93    0.65
  -4   6 -12    1.34    0.74
   4  -6  12    1.70    0.76
   4  -6  12    2.44    0.87
   4  -6  12    1.58    0.73
   5   5 -12    2.04    0.84
   5   5 -12    1.87    0.88
   5   5 -12    1.27    0.80
  -5  -5  12    1.25    0.68
  -5  -5  12    1.93    0.80
   4   5 -12   10.74    1.04
   4   5 -12   12.64    1.16
   4   5 -12   11.33    1.05
   4   5 -12    8.93    1.04
  -4  -5  12   10.75    0.98
  -4  -5  12   11.18    1.14
  -4  -5  12    9.93    1.10
   3   5 -12    0.70    0.50
   3   5 -12    0.09    0.52
   3   5 -12    0.92    0.53
   3   5 -12   -0.34    0.48
  -3  -5  12    1.11    0.61
  -3  -5  12    0.84    0.57
  -3  -5  12    0.33    0.61
   2   5 -12   18.55    0.94
   2   5 -12   18.85    1.01
   2   5 -12   17.57    1.05
   2   5 -12   20.42    1.00
  -2  -5  12   18.41    1.09
  -2  -5  12   18.42    1.07
  -2  -5  12   20.41    1.07
   1   5 -12   70.68    1.55
   1   5 -12   69.18    1.62
   1   5 -12   69.10    1.76
   1   5 -12   71.05    1.59
  -1  -5  12   68.52    1.89
  -1  -5  12   69.30    1.82
  -1  -5  12   68.61    1.90
   0   5 -12    9.30    0.63
   0   5 -12    9.60    0.51
   0   5 -12    9.34    0.50
   0   5 -12    9.98    0.41
   0   5 -12   10.25    0.66
   0  -5  12    8.51    0.80
   0  -5  12   10.53    0.77
   0  -5  12   10.12    0.67
   0  -5  12    9.37    0.82
   0  -5  12   11.04    0.84
  -1   5 -12    0.64    0.31
  -1   5 -12    0.81    0.43
  -1   5 -12    0.67    0.33
  -1   5 -12    0.98    0.36
   1  -5  12    0.91    0.46
   1  -5  12    0.99    0.48
   1  -5  12    0.45    0.47
   1  -5  12    1.15    0.50
   1  -5  12    1.35    0.48
  -2   5 -12    1.11    0.50
  -2   5 -12    1.26    0.31
  -2   5 -12    1.54    0.31
  -2   5 -12    1.28    0.47
   2  -5  12    0.30    0.46
   2  -5  12    0.43    0.50
   2  -5  12    1.20    0.61
   2  -5  12    1.19    0.55
   2  -5  12    0.66    0.54
  -3   5 -12   -0.65    0.48
  -3   5 -12    0.43    0.48
   3  -5  12    0.33    0.53
   3  -5  12    0.16    0.55
   3  -5  12   -0.04    0.60
   3  -5  12   -0.25    0.58
  -4   5 -12    0.97    0.63
  -4   5 -12    0.21    0.55
   4  -5  12   -0.12    0.75
   4  -5  12   -1.12    0.59
   4  -5  12    0.28    0.66
  -5   5 -12    0.07    0.67
  -5   5 -12   -0.01    0.69
   5  -5  12    0.12    0.96
   5   4 -12    0.09    0.69
   5   4 -12   -0.15    0.71
   5   4 -12    0.57    0.70
  -5  -4  12    0.52    0.71
  -5  -4  12    0.06    0.63
   4   4 -12    3.02    0.76
   4   4 -12    1.45    0.60
   4   4 -12    1.48    0.63
   4   4 -12    1.48    0.66
  -4  -4  12    2.46    0.78
  -4  -4  12    2.31    0.65
  -4  -4  12    2.08    0.70
   3   4 -12    1.52    0.57
   3   4 -12    2.08    0.58
   3   4 -12    1.19    0.54
   3   4 -12    1.96    0.55
  -3  -4  12    0.59    0.56
  -3  -4  12    1.96    0.55
  -3  -4  12    1.78    0.57
   2   4 -12    4.61    0.65
   2   4 -12    5.31    0.59
   2   4 -12    5.12    0.64
   2   4 -12    4.75    0.37
   2   4 -12    4.33    0.54
  -2  -4  12    4.83    0.63
  -2  -4  12    5.29    0.67
  -2  -4  12    5.82    0.71
   1   4 -12    1.71    0.36
   1   4 -12    1.52    0.33
   1   4 -12    1.81    0.43
  -1  -4  12    1.86    0.49
  -1  -4  12    1.72    0.49
  -1  -4  12    1.58    0.44
   0   4 -12    5.39    0.36
   0   4 -12    4.87    0.39
   0   4 -12    5.37    0.65
   0   4 -12    5.57    0.56
   0   4 -12    5.92    0.35
   0  -4  12    5.86    0.66
   0  -4  12    5.76    0.67
   0  -4  12    4.65    0.62
   0  -4  12    5.06    0.54
   0  -4  12    5.31    0.56
  -1   4 -12   34.84    1.32
  -1   4 -12   34.54    1.01
  -1   4 -12   35.96    0.94
  -1   4 -12   32.96    1.05
   1  -4  12   37.17    1.34
   1  -4  12   36.59    1.22
   1  -4  12   36.02    1.25
   1  -4  12   35.20    1.23
   1  -4  12   36.73    1.40
  -2   4 -12   19.92    0.78
  -2   4 -12   19.34    0.88
   2  -4  12   18.59    1.05
   2  -4  12   19.84    1.16
   2  -4  12   20.42    1.07
   2  -4  12   20.51    1.07
  -3   4 -12   -0.45    0.43
  -3   4 -12    0.55    0.53
   3  -4  12    0.41    0.56
   3  -4  12    0.77    0.58
   3  -4  12   -0.75    0.57
   3  -4  12   -0.09    0.58
  -4   4 -12    0.75    0.64
  -4   4 -12   -0.37    0.57
   4  -4  12   -0.03    0.82
   4  -4  12    0.33    0.73
  -5   4 -12   -0.11    0.84
  -5   4 -12    0.36    0.66
   5  -4  12    0.35    1.05
   5   3 -12    1.20    0.73
   5   3 -12    1.71    0.75
   5   3 -12    2.45    0.80
  -5  -3  12    0.97    0.63
   4   3 -12    1.03    0.58
   4   3 -12   -0.15    0.52
   4   3 -12    0.10    0.51
   4   3 -12   -0.31    0.57
  -4  -3  12    0.76    0.50
  -4  -3  12    0.00    0.54
  -4  -3  12   -0.69    0.50
   3   3 -12   13.89    0.98
   3   3 -12   13.16    0.89
   3   3 -12   12.82    0.93
   3   3 -12   13.12    0.95
  -3  -3  12   12.89    0.95
  -3  -3  12   12.74    0.83
  -3  -3  12   13.04    0.94
   2   3 -12    2.31    0.48
   2   3 -12    2.09    0.49
   2   3 -12    1.12    0.46
  -2  -3  12    1.69    0.42
  -2  -3  12    1.66    0.50
  -2  -3  12    1.82    0.53
   1   3 -12   20.26    0.89
   1   3 -12   21.77    1.02
   1   3 -12   21.51    0.80
   1   3 -12   23.05    0.80
  -1  -3  12   22.97    0.85
  -1  -3  12   22.13    0.99
  -1  -3  12   21.44    0.57
  -1  -3  12   20.29    0.92
   0   3 -12    4.37    0.35
   0   3 -12    5.36    0.67
   0   3 -12    4.13    0.33
   0   3 -12    4.15    0.32
   0   3 -12    4.52    0.50
   0  -3  12    5.20    0.61
   0  -3  12    5.23    0.62
   0  -3  12    4.20    0.49
   0  -3  12    4.66    0.56
   0  -3  12    4.93    0.59
  -1   3 -12   13.57    0.68
  -1   3 -12   13.86    0.66
  -1   3 -12   14.76    0.37
  -1   3 -12   15.02    0.90
   1  -3  12   13.84    0.93
   1  -3  12   13.22    0.77
   1  -3  12   15.41    0.74
   1  -3  12   14.32    0.84
   1  -3  12   15.74    0.88
  -2   3 -12    0.38    0.46
  -2   3 -12    0.48    0.41
   2  -3  12    0.51    0.47
   2  -3  12    1.00    0.55
   2  -3  12    1.26    0.53
   2  -3  12    1.01    0.48
  -3   3 -12    0.11    0.50
  -3   3 -12    0.81    0.52
   3  -3  12    0.23    0.59
   3  -3  12   -0.59    0.55
  -4   3 -12    0.79    0.60
  -4   3 -12    0.18    0.60
   4  -3  12   -0.08    0.68
   4  -3  12    1.28    0.87
  -5   3 -12   -0.93    0.57
  -5   3 -12    1.62    0.79
   5  -3  12   -1.36    0.96
   5   2 -12   -0.52    0.72
   5   2 -12    0.41    0.63
   5   2 -12    1.39    0.76
  -5  -2  12    1.65    0.74
   4   2 -12    6.02    0.84
   4   2 -12    5.68    0.77
   4   2 -12    7.02    0.87
   4   2 -12    6.48    0.87
  -4  -2  12    6.17    0.73
  -4  -2  12    7.48    0.92
   3   2 -12   -0.12    0.40
   3   2 -12    0.63    0.44
   3   2 -12    1.14    0.51
   3   2 -12    0.38    0.45
  -3  -2  12    1.19    0.50
  -3  -2  12    0.63    0.39
  -3  -2  12    0.50    0.48
   2   2 -12   23.36    0.93
   2   2 -12   22.18    0.99
   2   2 -12   23.06    0.97
   2   2 -12   24.03    1.00
  -2  -2  12   22.95    0.81
  -2  -2  12   22.67    0.62
  -2  -2  12   22.21    0.99
  -2  -2  12   23.43    0.98
   1   2 -12   13.51    0.75
   1   2 -12   12.38    0.78
   1   2 -12   13.69    0.66
   1   2 -12   13.09    0.65
  -1  -2  12   13.82    0.60
  -1  -2  12   13.79    0.53
  -1  -2  12   11.62    0.74
  -1  -2  12   13.54    0.79
   0   2 -12   58.94    1.26
   0   2 -12   61.14    1.54
   0   2 -12   61.36    1.70
   0   2 -12   61.02    1.17
   0   2 -12   61.37    1.26
   0  -2  12   62.29    1.67
   0  -2  12   59.63    1.37
   0  -2  12   61.50    1.60
   0  -2  12   61.33    1.50
   0  -2  12   59.49    1.58
  -1   2 -12   65.13    1.17
  -1   2 -12   64.67    1.19
  -1   2 -12   61.95    1.74
  -1   2 -12   64.13    1.44
   1  -2  12   64.47    1.69
   1  -2  12   65.85    1.80
   1  -2  12   63.44    1.70
   1  -2  12   64.24    1.58
  -2   2 -12    0.34    0.40
  -2   2 -12    0.56    0.43
   2  -2  12    1.03    0.52
   2  -2  12    0.43    0.42
   2  -2  12    0.56    0.51
  -3   2 -12    1.44    0.55
  -3   2 -12    2.00    0.55
   3  -2  12    1.89    0.68
   3  -2  12    1.52    0.64
  -4   2 -12   -0.30    0.56
  -4   2 -12    0.02    0.49
   4  -2  12   -1.09    0.64
   4  -2  12   -0.82    0.65
  -5   2 -12    0.55    0.67
  -5   2 -12    0.41    0.71
   5  -2  12    1.05    0.96
   6   1 -12    2.85    0.90
   6   1 -12    2.60    0.87
   6   1 -12    3.16    0.94
  -6  -1  12    4.13    1.01
   5   1 -12   -0.36    0.58
   5   1 -12    0.27    0.63
   5   1 -12    0.70    0.67
   5   1 -12    1.44    0.71
  -5  -1  12    0.80    0.74
   4   1 -12    1.83    0.59
   4   1 -12    0.63    0.53
   4   1 -12    0.53    0.54
   4   1 -12    0.93    0.61
  -4  -1  12    0.91    0.45
  -4  -1  12    0.47    0.58
   3   1 -12    7.06    0.73
   3   1 -12    5.76    0.68
   3   1 -12    5.38    0.69
   3   1 -12    6.34    0.60
   3   1 -12    6.91    0.73
  -3  -1  12    5.50    0.51
  -3  -1  12    5.52    0.46
  -3  -1  12    5.99    0.69
  -3  -1  12    7.19    0.70
   2   1 -12    4.54    0.56
   2   1 -12    2.95    0.51
   2   1 -12    2.08    0.45
   2   1 -12    2.72    0.45
   2   1 -12    2.80    0.33
  -2  -1  12    3.04    0.49
  -2  -1  12    3.76    0.38
  -2  -1  12    2.98    0.50
  -2  -1  12    3.37    0.36
   1   1 -12    1.60    0.43
   1   1 -12    1.85    0.36
   1   1 -12    2.22    0.38
   1   1 -12    1.73    0.42
  -1  -1  12    1.60    0.26
  -1  -1  12    2.20    0.41
  -1  -1  12    1.32    0.30
  -1  -1  12    1.67    0.42
   0   1 -12   16.41    0.63
   0   1 -12   16.80    0.87
   0   1 -12   16.34    0.64
   0  -1  12   15.23    0.86
   0  -1  12   16.46    0.70
   0  -1  12   16.70    0.60
   0  -1  12   15.97    0.88
   0  -1  12   15.92    0.80
  -1   1 -12    0.58    0.19
  -1   1 -12    0.16    0.38
  -1   1 -12    0.01    0.39
   1  -1  12    0.43    0.39
   1  -1  12    0.35    0.32
   1  -1  12    0.13    0.44
   1  -1  12    0.25    0.39
   1  -1  12    0.28    0.14
  -2   1 -12    0.33    0.49
  -2   1 -12   -0.50    0.42
   2  -1  12    0.26    0.33
   2  -1  12    0.05    0.46
   2  -1  12   -0.13    0.47
  -3   1 -12    1.01    0.53
  -3   1 -12    0.68    0.62
   3  -1  12   -0.19    0.58
   3  -1  12   -0.10    0.57
  -4   1 -12    1.39    0.56
   4  -1  12    0.65    0.72
   4  -1  12    0.03    0.67
  -5   1 -12    1.57    0.78
   5  -1  12    2.53    1.00
   6   0 -12   -0.76    0.72
   6   0 -12    0.66    0.75
   6   0 -12    1.07    0.91
  -6   0  12    0.72    0.78
   5   0 -12    1.18    0.75
   5   0 -12    0.91    0.65
   5   0 -12    1.33    0.74
   5   0 -12    1.99    0.71
  -5   0  12    1.45    0.72
   4   0 -12   -0.03    0.51
   4   0 -12    0.25    0.56
   4   0 -12    0.66    0.54
   4   0 -12    0.32    0.48
  -4   0  12    0.86    0.58
  -4   0  12   -0.36    0.33
   3   0 -12    0.10    0.42
   3   0 -12    0.23    0.40
   3   0 -12    0.55    0.37
   3   0 -12    0.44    0.42
  -3   0  12   -0.13    0.31
  -3   0  12    0.29    0.43
  -3   0  12   -0.28    0.37
   2   0 -12   -0.30    0.37
   2   0 -12   -0.30    0.15
   2   0 -12    0.29    0.38
   2   0 -12   -0.42    0.34
   2   0 -12   -0.03    0.33
  -2   0  12    0.10    0.27
  -2   0  12    0.46    0.19
  -2   0  12    0.32    0.32
  -2   0  12    0.16    0.32
   1   0 -12    6.94    0.67
   1   0 -12    6.82    0.55
   1   0 -12    6.15    0.58
   1   0 -12    6.28    0.54
  -1   0  12    6.63    0.31
  -1   0  12    6.73    0.58
  -1   0  12    7.04    0.53
  -1   0  12    6.72    0.50
   0   0 -12   36.35    1.24
   0   0 -12   36.24    0.97
   0   0 -12   35.99    1.13
   0   0 -12   35.76    1.01
   0   0  12   34.20    1.21
   0   0  12   35.50    0.72
   0   0  12   36.67    1.21
   0   0  12   34.72    0.92
   0   0  12   37.28    0.83
   0   0  12   36.57    1.13
  -1   0 -12    0.74    0.46
  -1   0 -12    0.42    0.41
   1   0  12    0.82    0.28
   1   0  12    0.53    0.46
   1   0  12    0.45    0.42
   1   0  12    0.87    0.22
   1   0  12    0.72    0.41
  -2   0 -12    4.80    0.64
  -2   0 -12    6.20    0.72
   2   0  12    5.26    0.51
   2   0  12    6.13    0.75
   2   0  12    5.39    0.73
  -3   0 -12    5.26    0.72
  -3   0 -12    5.39    0.82
   3   0  12    6.63    0.86
   3   0  12    4.75    0.82
  -4   0 -12   14.00    1.06
  -4   0 -12   16.23    1.35
   4   0  12   16.85    1.31
   4   0  12   18.12    1.40
   5   0  12   -0.39    0.88
   6  -1 -12    3.41    0.82
   6  -1 -12    1.45    0.80
   6  -1 -12    3.35    0.95
  -6   1  12    3.58    1.00
   5  -1 -12    0.98    0.75
   5  -1 -12   -1.07    0.64
   5  -1 -12   -1.11    0.52
   5  -1 -12    0.53    0.56
  -5   1  12    0.19    0.64
   4  -1 -12   -0.85    0.47
   4  -1 -12   -0.24    0.46
   4  -1 -12   -0.16    0.57
   4  -1 -12    0.52    0.52
  -4   1  12   -0.17    0.39
  -4   1  12    0.14    0.55
   3  -1 -12   21.38    0.91
   3  -1 -12   20.06    1.06
   3  -1 -12   20.73    0.99
   3  -1 -12   20.68    1.04
  -3   1  12   18.61    0.84
  -3   1  12   21.14    0.92
   2  -1 -12    1.78    0.46
   2  -1 -12    0.80    0.40
   2  -1 -12    1.08    0.41
   2  -1 -12    1.49    0.45
  -2   1  12    1.12    0.36
  -2   1  12    1.54    0.37
  -2   1  12    0.83    0.37
   1  -1 -12   18.47    0.71
   1  -1 -12   18.10    0.97
   1  -1 -12   18.25    0.80
   1  -1 -12   18.62    0.77
  -1   1  12   17.29    0.63
  -1   1  12   17.57    0.78
  -1   1  12   17.83    0.77
  -1   1  12   18.01    0.61
   0  -1 -12   29.32    1.06
   0  -1 -12   30.43    1.17
   0   1  12   30.96    0.67
   0   1  12   30.37    1.14
   0   1  12   30.58    0.67
   0   1  12   30.71    0.77
   0   1  12   31.38    0.76
   0   1  12   30.47    1.14
  -1  -1 -12    3.09    0.55
  -1  -1 -12    2.86    0.55
   1   1  12    4.23    0.60
   1   1  12    3.77    0.37
   1   1  12    4.04    0.37
   1   1  12    2.85    0.32
   1   1  12    3.77    0.59
  -2  -1 -12    0.58    0.50
  -2  -1 -12    1.77    0.53
   2   1  12    1.25    0.54
   2   1  12    1.01    0.52
   2   1  12    0.63    0.29
  -3  -1 -12    1.07    0.63
  -3  -1 -12    1.57    0.59
   3   1  12    0.98    0.65
   3   1  12    1.39    0.59
  -4  -1 -12   -1.15    0.69
  -4  -1 -12   -0.56    0.53
   4   1  12    0.31    0.74
   4   1  12    0.72    0.86
  -5  -1 -12   11.14    1.36
   5   1  12    9.73    1.33
   6  -2 -12    1.80    0.70
   6  -2 -12    2.82    0.86
   6  -2 -12    3.56    0.87
  -6   2  12    1.10    0.81
   5  -2 -12    0.01    0.60
   5  -2 -12   -1.71    0.62
   5  -2 -12    0.89    0.55
   5  -2 -12    0.69    0.70
  -5   2  12    0.97    0.76
   4  -2 -12    4.88    0.73
   4  -2 -12    5.62    0.82
   4  -2 -12    4.36    0.66
   4  -2 -12    4.74    0.74
  -4   2  12    5.02    0.79
  -4   2  12    4.94    0.66
   3  -2 -12    4.60    0.70
   3  -2 -12    4.78    0.64
   3  -2 -12    4.51    0.64
   3  -2 -12    3.89    0.54
  -3   2  12    4.95    0.52
  -3   2  12    4.23    0.65
  -3   2  12    4.58    0.58
   2  -2 -12    3.21    0.51
   2  -2 -12    2.97    0.52
   2  -2 -12    2.00    0.47
   2  -2 -12    2.79    0.32
   2  -2 -12    3.17    0.51
  -2   2  12    2.20    0.51
  -2   2  12    2.82    0.50
  -2   2  12    2.22    0.37
   1  -2 -12    0.53    0.35
   1  -2 -12    0.37    0.31
   1  -2 -12    0.43    0.42
  -1   2  12    0.16    0.28
  -1   2  12    0.18    0.19
  -1   2  12    0.30    0.37
  -1   2  12   -0.31    0.26
   0  -2 -12    2.82    0.51
   0  -2 -12    3.53    0.62
   0   2  12    3.10    0.35
   0   2  12    2.95    0.20
   0   2  12    3.25    0.24
   0   2  12    3.13    0.44
   0   2  12    3.93    0.58
  -1  -2 -12   18.69    1.04
  -1  -2 -12   20.27    1.02
   1   2  12   19.98    1.02
   1   2  12   20.28    1.00
   1   2  12   20.84    0.57
   1   2  12   20.42    0.74
   1   2  12   20.17    0.70
  -2  -2 -12   11.06    1.00
  -2  -2 -12   12.41    0.99
  -2  -2 -12   11.14    0.93
   2   2  12   10.08    0.91
   2   2  12   12.14    0.97
  -3  -2 -12    0.47    0.63
  -3  -2 -12    0.96    0.64
  -3  -2 -12    0.23    0.57
   3   2  12   -0.98    0.53
   3   2  12    0.15    0.61
  -4  -2 -12    0.50    0.78
  -4  -2 -12   -0.99    0.64
  -4  -2 -12    0.38    0.57
   4   2  12   -0.28    0.56
   4   2  12   -1.17    0.68
   5  -3 -12    1.96    0.79
   5  -3 -12    2.75    0.67
   5  -3 -12    1.68    0.68
  -5   3  12    1.39    0.75
   4  -3 -12    1.72    0.68
   4  -3 -12    1.96    0.53
   4  -3 -12    0.50    0.56
   4  -3 -12    1.57    0.66
  -4   3  12    0.45    0.48
  -4   3  12    0.42    0.68
   3  -3 -12    0.58    0.44
   3  -3 -12    0.29    0.41
   3  -3 -12   -0.28    0.43
   3  -3 -12    0.67    0.42
  -3   3  12   -0.52    0.42
  -3   3  12   -0.74    0.43
   2  -3 -12    0.41    0.40
   2  -3 -12    0.15    0.45
   2  -3 -12    0.59    0.43
   2  -3 -12    0.83    0.30
   2  -3 -12    0.50    0.41
  -2   3  12    0.41    0.39
  -2   3  12    0.38    0.36
  -2   3  12    0.08    0.24
  -2   3  12   -0.10    0.39
   1  -3 -12   29.24    1.19
   1  -3 -12   28.33    1.01
  -1   3  12   30.18    1.05
  -1   3  12   28.07    1.07
  -1   3  12   31.03    0.91
  -1   3  12   29.13    0.91
   0  -3 -12    3.15    0.56
   0  -3 -12    2.16    0.56
   0   3  12    1.94    0.57
   0   3  12    3.02    0.39
   0   3  12    2.94    0.17
   0   3  12    3.01    0.36
   0   3  12    3.62    0.45
  -1  -3 -12    4.97    0.67
  -1  -3 -12    3.35    0.64
  -1  -3 -12    3.81    0.67
   1   3  12    5.16    0.54
   1   3  12    4.85    0.72
   1   3  12    4.00    0.58
  -2  -3 -12    3.44    0.74
  -2  -3 -12    4.23    0.74
  -2  -3 -12    3.74    0.74
   2   3  12    3.65    0.68
   2   3  12    4.16    0.68
  -3  -3 -12    1.11    0.69
  -3  -3 -12    1.88    0.77
  -3  -3 -12    0.91    0.66
   3   3  12    1.02    0.68
   3   3  12    0.82    0.56
  -4  -3 -12    4.27    1.03
  -4  -3 -12    4.07    1.02
   4   3  12    2.59    0.87
   5  -4 -12   -0.05    0.71
   5  -4 -12    0.35    0.64
   5  -4 -12   -0.65    0.48
  -5   4  12    1.54    0.75
   4  -4 -12    0.09    0.58
   4  -4 -12    0.50    0.63
   4  -4 -12    0.27    0.45
   4  -4 -12    0.28    0.55
  -4   4  12    0.31    0.66
  -4   4  12    0.93    0.54
   3  -4 -12    3.14    0.59
   3  -4 -12    3.36    0.62
   3  -4 -12    4.12    0.67
   3  -4 -12    3.23    0.60
  -3   4  12    2.78    0.63
  -3   4  12    3.06    0.59
   2  -4 -12    3.44    0.65
   2  -4 -12    3.07    0.53
   2  -4 -12    2.86    0.43
   2  -4 -12    3.03    0.63
  -2   4  12    2.87    0.35
  -2   4  12    4.33    0.55
  -2   4  12    3.34    0.56
  -2   4  12    2.62    0.54
   1  -4 -12    1.18    0.52
   1  -4 -12    1.16    0.43
  -1   4  12    0.73    0.39
  -1   4  12    0.90    0.35
  -1   4  12    1.25    0.29
  -1   4  12    0.90    0.45
   0  -4 -12    0.52    0.51
   0  -4 -12   -0.29    0.43
   0   4  12    0.11    0.25
   0   4  12    0.52    0.31
   0   4  12    0.62    0.36
  -1  -4 -12   24.55    1.22
  -1  -4 -12   24.08    1.25
  -1  -4 -12   24.65    1.23
   1   4  12   25.37    0.99
   1   4  12   25.51    1.13
   1   4  12   24.97    1.24
  -2  -4 -12   14.91    1.22
  -2  -4 -12   14.30    1.16
  -2  -4 -12   14.46    1.19
   2   4  12   14.66    0.99
   2   4  12   14.23    1.15
  -3  -4 -12    0.70    0.73
  -3  -4 -12    0.35    0.69
  -3  -4 -12    1.66    0.83
   3   4  12    1.47    0.69
   3   4  12    0.90    0.60
  -4  -4 -12    1.53    0.89
  -4  -4 -12    0.93    0.93
   4   4  12    0.96    0.85
   5  -5 -12    2.17    0.66
   5  -5 -12    3.04    0.81
  -5   5  12    0.98    0.80
  -5   5  12    1.11    0.68
   4  -5 -12    6.27    0.71
   4  -5 -12    7.59    0.84
   4  -5 -12    6.39    0.89
   4  -5 -12    6.28    0.90
  -4   5  12    7.68    0.89
  -4   5  12    6.07    0.96
   3  -5 -12    0.72    0.49
   3  -5 -12    1.82    0.58
   3  -5 -12    0.37    0.51
   3  -5 -12    0.96    0.55
  -3   5  12    0.82    0.49
  -3   5  12    1.25    0.61
  -3   5  12    1.47    0.57
   2  -5 -12    0.35    0.55
   2  -5 -12    0.19    0.51
   2  -5 -12    0.88    0.39
  -2   5  12    0.31    0.45
  -2   5  12    0.56    0.43
  -2   5  12   -0.01    0.46
   1  -5 -12   32.00    1.38
   1  -5 -12   31.15    1.19
  -1   5  12   30.57    1.24
  -1   5  12   29.59    1.05
  -1   5  12   30.56    1.12
   0  -5 -12   28.79    1.25
   0  -5 -12   27.24    1.34
   0  -5 -12   27.96    1.23
   0   5  12   25.49    1.18
   0   5  12   27.48    0.89
   0   5  12   29.73    1.07
  -1  -5 -12    5.87    0.87
  -1  -5 -12    5.72    0.81
  -1  -5 -12    4.44    0.83
   1   5  12    4.28    0.58
   1   5  12    5.18    0.74
  -2  -5 -12    1.75    0.79
  -2  -5 -12    1.89    0.68
  -2  -5 -12    1.28    0.75
   2   5  12    1.92    0.51
   2   5  12    1.86    0.63
  -3  -5 -12    0.31    0.84
  -3  -5 -12    0.69    0.65
  -3  -5 -12   -1.07    0.87
   3   5  12   -0.48    0.64
  -4  -5 -12    3.74    1.25
  -4  -5 -12    4.04    1.07
   4   5  12    3.81    1.01
   5  -6 -12   -0.68    0.74
  -5   6  12    0.40    0.76
  -5   6  12   -0.62    0.73
   4  -6 -12    2.26    0.72
   4  -6 -12    1.16    0.67
  -4   6  12    0.91    0.75
  -4   6  12    0.12    0.61
   3  -6 -12    1.12    0.60
   3  -6 -12    0.74    0.50
   3  -6 -12    0.45    0.54
   3  -6 -12    0.47    0.55
  -3   6  12    0.08    0.56
  -3   6  12    1.67    0.67
  -3   6  12    0.63    0.57
   2  -6 -12    0.68    0.41
   2  -6 -12    0.39    0.59
  -2   6  12   -0.25    0.43
  -2   6  12   -0.04    0.47
  -2   6  12    0.44    0.51
   1  -6 -12    0.04    0.56
   1  -6 -12    0.12    0.51
  -1   6  12   -0.53    0.32
  -1   6  12   -0.73    0.43
  -1   6  12   -0.46    0.39
   0  -6 -12   23.18    1.15
   0  -6 -12   21.69    1.29
   0  -6 -12   24.25    1.21
   0   6  12   21.43    0.99
   0   6  12   23.58    1.18
   0   6  12   23.71    0.95
  -1  -6 -12    2.32    0.73
  -1  -6 -12    0.34    0.69
  -1  -6 -12    1.63    0.75
   1   6  12    0.87    0.53
   1   6  12    1.29    0.54
  -2  -6 -12    1.70    0.83
  -2  -6 -12    0.73    0.79
  -2  -6 -12    0.67    0.75
   2   6  12    2.40    0.73
   2   6  12    2.33    0.59
  -3  -6 -12    0.09    0.79
  -3  -6 -12    2.14    1.08
  -3  -6 -12    1.95    1.00
   3   6  12    1.25    0.66
   4  -7 -12    0.01    0.65
  -4   7  12   -0.29    0.63
  -4   7  12    0.15    0.65
   3  -7 -12    1.62    0.56
   3  -7 -12    0.96    0.63
   3  -7 -12    1.12    0.64
  -3   7  12    0.90    0.65
  -3   7  12    0.88    0.62
  -3   7  12    1.33    0.66
   2  -7 -12   -0.05    0.45
   2  -7 -12    0.24    0.57
  -2   7  12    0.55    0.51
  -2   7  12   -0.01    0.51
  -2   7  12    0.61    0.53
   1  -7 -12    2.63    0.72
   1  -7 -12    2.07    0.64
  -1   7  12    2.68    0.69
  -1   7  12    3.96    0.68
  -1   7  12    3.40    0.54
   0  -7 -12    7.28    0.96
   0  -7 -12    5.08    0.79
   0  -7 -12    6.55    0.84
   0   7  12    4.80    0.72
   0   7  12    4.63    0.78
   0   7  12    5.28    0.64
  -1  -7 -12    0.27    0.74
  -1  -7 -12    0.38    0.76
  -1  -7 -12   -0.81    0.63
   1   7  12    0.07    0.53
   1   7  12    0.12    0.56
  -2  -7 -12    0.14    0.73
  -2  -7 -12    1.00    0.93
  -2  -7 -12   -0.07    0.76
   2   7  12   -0.46    0.59
   2   7  12   -0.15    0.50
  -3  -7 -12    0.45    0.84
  -3  -7 -12    0.51    0.96
  -3  -7 -12    0.44    0.91
   3   7  12   -0.21    0.60
   4  -8 -12    0.11    0.77
  -4   8  12    0.87    0.72
  -4   8  12    0.18    0.69
   3  -8 -12    0.24    0.58
  -3   8  12   -0.69    0.61
  -3   8  12    0.79    0.73
  -3   8  12    0.13    0.65
   2  -8 -12   10.05    1.08
   2  -8 -12   10.20    0.92
  -2   8  12   11.76    0.97
  -2   8  12    8.37    0.89
  -2   8  12   11.24    1.11
   1  -8 -12    2.49    0.71
   1  -8 -12    2.64    0.85
  -1   8  12    0.61    0.59
  -1   8  12    3.14    0.76
  -1   8  12    1.66    0.57
   0  -8 -12    1.88    0.72
   0  -8 -12    2.56    0.80
   0  -8 -12    1.83    0.77
   0   8  12    1.15    0.52
   0   8  12    0.76    0.66
   0   8  12    2.11    0.60
  -1  -8 -12    0.53    0.81
  -1  -8 -12    1.85    0.82
  -1  -8 -12    0.29    0.83
   1   8  12    0.53    0.68
   1   8  12    0.20    0.53
  -2  -8 -12    5.71    1.04
  -2  -8 -12    7.12    1.28
  -2  -8 -12    5.43    1.10
   2   8  12    8.08    0.99
   3  -9 -12    6.72    1.05
  -3   9  12    8.11    1.04
  -3   9  12    9.42    1.10
  -3   9  12    9.17    1.13
   2  -9 -12    0.05    0.77
   2  -9 -12   -0.31    0.53
  -2   9  12    0.43    0.67
  -2   9  12    0.44    0.59
   1  -9 -12    3.02    0.84
   1  -9 -12    2.81    0.82
  -1   9  12    2.98    0.75
  -1   9  12    3.46    0.81
  -1   9  12    5.47    0.82
   0  -9 -12   -1.60    0.73
   0  -9 -12    0.86    0.76
   0  -9 -12   -0.67    0.75
   0   9  12   -0.74    0.48
   0   9  12   -0.94    0.55
   0   9  12   -0.84    0.47
  -1  -9 -12    1.30    0.87
  -1  -9 -12    1.39    0.81
  -1  -9 -12   -0.66    0.88
   1   9  12    0.01    0.64
   1   9  12    0.02    0.55
   2 -10 -12   -0.17    0.64
   2 -10 -12   -0.29    0.69
  -2  10  12   -0.27    0.60
  -2  10  12   -0.36    0.76
   1 -10 -12    2.05    0.89
   1 -10 -12    1.60    0.87
  -1  10  12    2.65    0.73
  -1  10  12    3.29    0.87
  -1  10  12    2.61    0.74
   0  11 -13    3.63    0.85
   0 -11  13    0.79    0.93
   0 -11  13    3.08    0.90
   2  10 -13   17.39    1.18
   2  10 -13   15.83    1.19
  -2 -10  13   16.38    1.45
  -2 -10  13   16.21    1.55
  -2 -10  13   23.08    1.60
  -2 -10  13   15.54    1.47
   1  10 -13   -0.06    0.63
  -1 -10  13   -0.41    0.77
  -1 -10  13    1.04    0.80
   0  10 -13   10.23    1.00
   0  10 -13    9.61    0.88
   0 -10  13    8.78    1.19
   0 -10  13   10.28    1.11
  -1  10 -13    0.84    0.58
  -1  10 -13    0.76    0.60
   1 -10  13    0.63    0.77
   1 -10  13    1.32    0.71
  -2  10 -13   -0.05    0.55
  -2  10 -13    0.53    0.70
  -2  10 -13    0.79    0.59
   2 -10  13   -0.71    0.69
   2 -10  13   -0.12    0.64
   3   9 -13    5.04    0.91
   3   9 -13    4.88    0.84
   3   9 -13    5.10    0.96
  -3  -9  13    4.02    0.99
  -3  -9  13    4.56    1.02
  -3  -9  13    2.84    0.95
   2   9 -13    0.60    0.59
   2   9 -13    0.16    0.56
   2   9 -13    0.41    0.54
  -2  -9  13    0.31    0.82
  -2  -9  13   -0.87    0.69
  -2  -9  13    1.94    0.76
   1   9 -13    6.65    0.79
  -1  -9  13    9.03    1.13
  -1  -9  13    7.66    1.07
  -1  -9  13    6.82    0.97
   0   9 -13   -1.04    0.44
   0   9 -13    0.58    0.63
   0  -9  13   -0.77    0.61
   0  -9  13   -0.38    0.59
   0  -9  13   -0.68    0.59
  -1   9 -13   -0.08    0.52
  -1   9 -13    0.69    0.60
   1  -9  13    0.30    0.63
   1  -9  13    0.62    0.75
   1  -9  13    0.13    0.63
  -2   9 -13    4.69    0.69
  -2   9 -13    6.37    0.96
  -2   9 -13    5.87    0.84
   2  -9  13    5.04    1.04
   2  -9  13    4.60    0.87
   2  -9  13    4.86    0.78
  -3   9 -13   -0.26    0.62
  -3   9 -13   -0.25    0.64
   3  -9  13   -1.26    0.59
   3  -9  13   -0.64    0.79
   3   8 -13    1.93    0.71
   3   8 -13    1.05    0.65
   3   8 -13    1.78    0.72
   3   8 -13    0.79    0.62
  -3  -8  13    1.78    0.84
  -3  -8  13    1.80    0.82
  -3  -8  13    2.40    0.92
   2   8 -13    2.12    0.63
   2   8 -13    1.63    0.61
   2   8 -13    2.39    0.70
  -2  -8  13    0.26    0.78
  -2  -8  13    2.30    0.71
  -2  -8  13    3.15    0.82
  -2  -8  13    0.55    0.69
   1   8 -13    4.89    0.61
   1   8 -13    4.88    0.71
   1   8 -13    5.15    0.65
  -1  -8  13    5.68    0.91
  -1  -8  13    5.71    0.89
  -1  -8  13    4.25    0.83
   0   8 -13   20.87    1.15
   0   8 -13   17.79    1.02
   0   8 -13   21.11    0.99
   0  -8  13   18.19    1.23
   0  -8  13   19.76    1.21
   0  -8  13   19.62    1.31
   0  -8  13   19.99    1.05
  -1   8 -13    3.39    0.60
  -1   8 -13    3.48    0.59
  -1   8 -13    3.90    0.67
   1  -8  13    4.56    0.79
   1  -8  13    4.35    0.79
   1  -8  13    4.62    0.81
   1  -8  13    4.43    0.73
  -2   8 -13    0.37    0.53
  -2   8 -13    0.12    0.46
  -2   8 -13    0.07    0.55
   2  -8  13    0.45    0.67
   2  -8  13   -0.81    0.55
   2  -8  13    0.13    0.61
   2  -8  13   -0.27    0.59
  -3   8 -13    5.88    0.92
  -3   8 -13    6.59    0.94
   3  -8  13    6.85    0.96
   3  -8  13    8.09    1.02
   3  -8  13    8.35    1.16
   3  -8  13    7.04    1.15
   4   7 -13   -0.28    0.76
   4   7 -13    0.24    0.71
   4   7 -13   -1.29    0.60
  -4  -7  13    0.62    0.74
  -4  -7  13   -1.40    0.67
   3   7 -13    2.24    0.70
   3   7 -13    0.96    0.65
   3   7 -13    1.20    0.62
   3   7 -13    2.71    0.67
  -3  -7  13    1.76    0.75
  -3  -7  13    0.40    0.72
  -3  -7  13    1.19    0.68
  -3  -7  13    0.52    0.72
   2   7 -13   -0.34    0.46
   2   7 -13   -0.40    0.41
   2   7 -13   -0.01    0.55
   2   7 -13    0.30    0.51
  -2  -7  13    1.06    0.65
  -2  -7  13   -0.45    0.60
  -2  -7  13   -0.22    0.54
   1   7 -13    0.11    0.48
   1   7 -13   -0.34    0.42
   1   7 -13   -0.63    0.33
   1   7 -13   -0.46    0.33
  -1  -7  13   -0.42    0.55
  -1  -7  13   -0.38    0.57
  -1  -7  13   -1.01    0.49
   0   7 -13    0.00    0.39
   0   7 -13   -0.25    0.33
   0   7 -13    0.01    0.38
   0  -7  13   -0.90    0.51
   0  -7  13   -0.02    0.43
   0  -7  13    0.45    0.53
   0  -7  13    0.42    0.55
  -1   7 -13   14.39    1.07
  -1   7 -13   16.17    0.88
  -1   7 -13   18.20    1.02
  -1   7 -13   16.64    0.87
   1  -7  13   16.60    1.19
   1  -7  13   16.15    1.16
   1  -7  13   16.00    0.94
   1  -7  13   18.33    1.09
   1  -7  13   18.57    1.16
  -2   7 -13    1.26    0.58
  -2   7 -13    2.21    0.54
  -2   7 -13    1.90    0.51
   2  -7  13    2.83    0.66
   2  -7  13    2.50    0.70
   2  -7  13    2.97    0.73
   2  -7  13    2.43    0.73
   2  -7  13    2.34    0.69
  -3   7 -13    3.88    0.78
  -3   7 -13    5.88    0.86
   3  -7  13    3.50    0.86
   3  -7  13    4.66    0.85
   3  -7  13    6.21    0.95
   3  -7  13    4.23    0.80
   3  -7  13    6.41    0.95
  -4   7 -13    7.38    1.02
  -4   7 -13    8.94    1.08
   4  -7  13    7.85    1.07
   4  -7  13    6.99    1.08
   4  -7  13    8.62    1.13
   4   6 -13    4.70    0.87
   4   6 -13    2.82    0.82
   4   6 -13    3.47    0.88
  -4  -6  13    3.04    0.82
  -4  -6  13    3.63    0.91
  -4  -6  13    3.98    0.92
   3   6 -13   -0.21    0.53
   3   6 -13   -0.53    0.49
   3   6 -13    0.45    0.51
   3   6 -13    0.44    0.62
  -3  -6  13   -0.88    0.58
  -3  -6  13    0.19    0.63
  -3  -6  13    0.21    0.58
   2   6 -13    0.69    0.49
   2   6 -13    0.99    0.57
   2   6 -13    0.53    0.44
   2   6 -13    1.60    0.56
  -2  -6  13    1.49    0.61
  -2  -6  13    0.41    0.51
  -2  -6  13    0.09    0.59
   1   6 -13   11.66    0.66
   1   6 -13   11.00    0.81
   1   6 -13   11.88    0.74
   1   6 -13   12.03    0.87
   1   6 -13   12.03    0.71
  -1  -6  13   12.90    0.91
  -1  -6  13   12.21    0.96
  -1  -6  13   11.45    1.00
   0   6 -13   44.37    1.35
   0   6 -13   43.49    1.42
   0   6 -13   45.37    1.36
   0  -6  13   45.09    1.50
   0  -6  13   45.79    1.59
   0  -6  13   46.63    1.54
   0  -6  13   41.48    1.54
   0  -6  13   44.09    1.30
  -1   6 -13    1.89    0.52
  -1   6 -13    1.26    0.42
  -1   6 -13    0.54    0.34
  -1   6 -13    2.21    0.44
   1  -6  13    1.39    0.50
   1  -6  13    0.75    0.54
   1  -6  13    0.72    0.57
   1  -6  13    0.83    0.51
   1  -6  13   -0.04    0.51
  -2   6 -13   13.07    0.88
  -2   6 -13   11.21    0.94
   2  -6  13   10.59    0.97
   2  -6  13   11.39    1.02
   2  -6  13   10.56    1.01
   2  -6  13   11.75    0.97
   2  -6  13   10.99    1.00
  -3   6 -13    0.14    0.50
  -3   6 -13    0.60    0.64
   3  -6  13   -0.25    0.70
   3  -6  13    0.21    0.58
   3  -6  13    0.18    0.54
   3  -6  13   -1.75    0.58
   3  -6  13    0.33    0.62
  -4   6 -13    6.18    0.93
  -4   6 -13    4.73    0.94
   4  -6  13    3.38    0.93
   4  -6  13    5.31    0.96
   4  -6  13    5.44    0.94
   5   5 -13    0.84    0.75
   5   5 -13    2.43    0.91
   5   5 -13    3.03    0.88
  -5  -5  13    1.93    0.85
  -5  -5  13    0.17    0.67
   4   5 -13    3.02    0.80
   4   5 -13    2.09    0.72
   4   5 -13    2.08    0.73
   4   5 -13    2.92    0.71
  -4  -5  13    2.25    0.77
  -4  -5  13    3.81    0.69
  -4  -5  13    4.05    0.88
   3   5 -13    6.26    0.80
   3   5 -13    4.89    0.77
   3   5 -13    5.41    0.79
   3   5 -13    5.96    0.76
  -3  -5  13    5.90    0.85
  -3  -5  13    4.25    0.82
  -3  -5  13    5.93    0.78
   2   5 -13    1.83    0.55
   2   5 -13    1.44    0.47
   2   5 -13    0.88    0.50
   2   5 -13    1.18    0.47
  -2  -5  13    1.52    0.60
  -2  -5  13    1.89    0.59
  -2  -5  13    1.80    0.55
   1   5 -13    2.98    0.43
   1   5 -13    2.84    0.45
   1   5 -13    2.92    0.53
   1   5 -13    2.99    0.41
  -1  -5  13    3.14    0.60
  -1  -5  13    2.38    0.61
  -1  -5  13    2.58    0.61
   0   5 -13   28.26    0.82
   0   5 -13   29.90    1.06
   0   5 -13   29.25    0.83
   0   5 -13   27.63    1.02
   0  -5  13   28.29    1.19
   0  -5  13   29.29    1.18
   0  -5  13   28.64    1.23
   0  -5  13   31.22    1.24
   0  -5  13   28.96    1.07
  -1   5 -13    4.30    0.50
  -1   5 -13    4.98    0.51
  -1   5 -13    4.42    0.60
  -1   5 -13    4.07    0.45
   1  -5  13    3.47    0.62
   1  -5  13    4.78    0.75
   1  -5  13    3.22    0.66
   1  -5  13    3.42    0.60
   1  -5  13    3.53    0.63
  -2   5 -13    1.05    0.45
  -2   5 -13    0.74    0.51
  -2   5 -13    0.60    0.32
   2  -5  13    0.41    0.48
   2  -5  13    0.25    0.49
   2  -5  13    0.19    0.58
   2  -5  13   -1.23    0.58
   2  -5  13    0.63    0.53
  -3   5 -13    0.74    0.50
  -3   5 -13    0.03    0.54
   3  -5  13    0.58    0.72
   3  -5  13    0.71    0.67
   3  -5  13    0.64    0.65
   3  -5  13    1.43    0.63
  -4   5 -13    0.79    0.62
  -4   5 -13   -0.98    0.65
   4  -5  13    0.97    0.76
   4  -5  13    0.20    0.68
   4  -5  13   -0.42    0.75
   5   4 -13    0.29    0.70
   5   4 -13   -1.71    0.71
   5   4 -13   -0.74    0.70
  -5  -4  13    0.04    0.61
  -5  -4  13   -1.02    0.67
   4   4 -13    2.51    0.76
   4   4 -13    2.09    0.69
   4   4 -13    3.98    0.81
   4   4 -13    2.06    0.65
  -4  -4  13    2.05    0.72
  -4  -4  13    1.55    0.62
  -4  -4  13    1.72    0.70
   3   4 -13    2.63    0.59
   3   4 -13    2.89    0.66
   3   4 -13    3.14    0.59
   3   4 -13    3.51    0.69
  -3  -4  13    2.91    0.58
  -3  -4  13    1.32    0.63
  -3  -4  13    2.00    0.64
   2   4 -13    0.10    0.46
   2   4 -13    0.22    0.45
   2   4 -13   -0.02    0.23
   2   4 -13    0.31    0.40
   2   4 -13    0.84    0.43
  -2  -4  13    0.20    0.47
  -2  -4  13    0.34    0.50
  -2  -4  13    0.44    0.44
   1   4 -13   10.81    0.76
   1   4 -13   10.89    0.66
   1   4 -13   10.80    0.63
  -1  -4  13   11.22    0.76
  -1  -4  13   12.26    0.93
  -1  -4  13   11.24    0.84
   0   4 -13    9.17    0.85
   0   4 -13    8.60    0.44
   0   4 -13    9.05    0.47
   0   4 -13    9.07    0.65
   0   4 -13    8.42    0.41
   0  -4  13    9.65    0.79
   0  -4  13    7.25    0.65
   0  -4  13    7.62    0.77
   0  -4  13   10.09    0.84
   0  -4  13    9.01    0.67
  -1   4 -13    1.23    0.30
  -1   4 -13    0.80    0.40
  -1   4 -13    1.35    0.36
  -1   4 -13    1.28    0.55
   1  -4  13    1.09    0.46
   1  -4  13    2.03    0.55
   1  -4  13    1.02    0.52
   1  -4  13    1.47    0.55
   1  -4  13    1.62    0.53
  -2   4 -13    1.92    0.48
  -2   4 -13    1.77    0.62
  -2   4 -13    1.99    0.42
   2  -4  13    1.70    0.59
   2  -4  13    2.54    0.62
   2  -4  13    1.30    0.52
   2  -4  13    2.34    0.66
  -3   4 -13    0.91    0.51
   3  -4  13   -0.57    0.54
   3  -4  13    0.24    0.71
   3  -4  13    0.54    0.70
   3  -4  13   -0.95    0.47
  -4   4 -13    1.56    0.70
  -4   4 -13    1.48    0.74
   4  -4  13    0.73    0.66
   4  -4  13    1.27    0.91
   5   3 -13    1.29    0.72
   5   3 -13    0.80    0.75
   5   3 -13   -0.08    0.69
  -5  -3  13    1.03    0.70
   4   3 -13    0.81    0.66
   4   3 -13    2.97    0.68
   4   3 -13    3.13    0.70
   4   3 -13    2.19    0.67
  -4  -3  13    2.90    0.72
  -4  -3  13    1.67    0.64
  -4  -3  13    2.76    0.55
   3   3 -13   13.63    0.93
   3   3 -13   14.36    1.03
   3   3 -13   15.03    1.00
   3   3 -13   13.05    0.97
  -3  -3  13   13.99    1.06
  -3  -3  13   13.78    0.84
  -3  -3  13   11.68    0.97
   2   3 -13   11.77    0.81
   2   3 -13   12.02    0.85
   2   3 -13   12.91    0.81
   2   3 -13   14.05    0.88
  -2  -3  13   11.30    0.83
  -2  -3  13   11.73    0.88
  -2  -3  13   12.61    0.75
   1   3 -13    1.84    0.38
   1   3 -13    1.35    0.35
   1   3 -13    1.35    0.43
   1   3 -13    1.30    0.51
  -1  -3  13    1.82    0.52
  -1  -3  13    2.71    0.44
  -1  -3  13    1.36    0.44
  -1  -3  13    1.87    0.26
   0   3 -13   22.82    0.63
   0   3 -13   23.22    0.72
   0   3 -13   23.65    0.97
   0   3 -13   23.37    0.68
   0   3 -13   23.15    1.09
   0  -3  13   24.82    1.06
   0  -3  13   24.21    1.03
   0  -3  13   22.80    1.01
   0  -3  13   21.41    1.05
   0  -3  13   24.89    0.92
  -1   3 -13   24.13    1.14
  -1   3 -13   24.91    0.84
  -1   3 -13   25.67    0.97
   1  -3  13   24.65    0.99
   1  -3  13   24.95    1.19
   1  -3  13   25.52    1.03
   1  -3  13   25.18    1.14
   1  -3  13   24.12    1.09
  -2   3 -13    0.73    0.54
  -2   3 -13   -0.08    0.34
   2  -3  13   -0.10    0.49
   2  -3  13   -0.70    0.51
   2  -3  13    0.30    0.49
   2  -3  13   -0.21    0.39
  -3   3 -13   -0.17    0.54
  -3   3 -13    0.16    0.47
   3  -3  13    0.58    0.51
   3  -3  13   -0.07    0.64
   3  -3  13   -0.58    0.59
  -4   3 -13    2.21    0.70
   4  -3  13    1.21    0.80
  -5   3 -13    0.26    0.66
  -5   3 -13   -0.78    0.79
   5  -3  13   -0.32    0.90
   5   2 -13    2.70    0.84
   5   2 -13    3.55    0.89
   5   2 -13    2.62    0.78
   4   2 -13    8.64    0.95
   4   2 -13   10.36    1.04
   4   2 -13   10.16    1.02
   4   2 -13    8.21    0.91
  -4  -2  13    8.02    0.93
  -4  -2  13    8.09    0.83
   3   2 -13    0.63    0.47
   3   2 -13    0.61    0.50
   3   2 -13   -0.16    0.42
   3   2 -13   -0.20    0.46
  -3  -2  13   -0.18    0.32
  -3  -2  13   -0.53    0.39
  -3  -2  13    0.30    0.49
   2   2 -13   26.53    1.11
   2   2 -13   24.76    1.09
   2   2 -13   27.86    1.08
   2   2 -13   28.81    1.09
  -2  -2  13   27.99    1.09
  -2  -2  13   27.33    0.90
  -2  -2  13   26.65    1.11
  -2  -2  13   26.04    0.70
   1   2 -13   34.85    1.28
   1   2 -13   33.02    1.02
   1   2 -13   33.78    1.03
   1   2 -13   31.08    1.13
  -1  -2  13   33.03    1.14
  -1  -2  13   32.59    0.86
  -1  -2  13   33.90    1.20
  -1  -2  13   31.22    0.93
   0   2 -13    1.95    0.25
   0   2 -13    1.50    0.29
   0   2 -13    1.54    0.48
   0   2 -13    1.91    0.44
   0   2 -13    2.01    0.29
   0  -2  13    1.49    0.39
   0  -2  13    1.76    0.50
   0  -2  13    2.48    0.53
   0  -2  13    2.25    0.37
   0  -2  13    1.46    0.48
  -1   2 -13   13.19    0.46
  -1   2 -13   12.99    0.44
  -1   2 -13   13.20    0.63
  -1   2 -13   13.76    0.90
   1  -2  13   13.67    0.88
   1  -2  13   13.18    0.85
   1  -2  13   11.87    0.71
   1  -2  13   13.47    0.72
   1  -2  13   12.84    0.94
  -2   2 -13   14.33    0.85
  -2   2 -13   14.01    0.95
   2  -2  13   12.99    0.94
   2  -2  13   14.91    1.01
   2  -2  13   15.31    0.83
   2  -2  13   15.61    1.08
  -3   2 -13    5.37    0.73
  -3   2 -13    4.35    0.73
   3  -2  13    4.10    0.63
   3  -2  13    4.13    0.81
   3  -2  13    4.38    0.82
  -4   2 -13    0.97    0.72
  -4   2 -13    0.02    0.52
   4  -2  13    0.01    0.76
   4  -2  13   -0.10    0.72
  -5   2 -13    0.45    0.79
  -5   2 -13   -0.70    0.60
   5  -2  13   -0.24    0.92
   5   1 -13    1.12    0.84
   5   1 -13    1.47    0.67
   5   1 -13    0.47    0.69
  -5  -1  13    1.94    0.75
   4   1 -13    1.23    0.57
   4   1 -13    2.33    0.62
   4   1 -13    0.63    0.57
   4   1 -13    1.12    0.62
  -4  -1  13    1.22    0.50
  -4  -1  13    0.72    0.54
   3   1 -13   -0.27    0.43
   3   1 -13    0.07    0.42
   3   1 -13   -0.08    0.39
   3   1 -13    0.44    0.44
  -3  -1  13   -0.59    0.39
  -3  -1  13    0.13    0.27
  -3  -1  13   -0.08    0.29
  -3  -1  13    0.51    0.45
   2   1 -13    0.82    0.38
   2   1 -13    0.11    0.38
   2   1 -13    0.27    0.37
   2   1 -13   -0.14    0.33
   2   1 -13    0.54    0.23
  -2  -1  13    0.34    0.27
  -2  -1  13   -0.18    0.39
  -2  -1  13    0.62    0.40
  -2  -1  13    0.41    0.24
   1   1 -13   14.15    0.80
   1   1 -13   12.97    0.89
   1   1 -13   12.64    0.65
   1   1 -13   13.59    0.71
  -1  -1  13   13.04    0.53
  -1  -1  13   14.41    0.62
  -1  -1  13   13.55    0.73
  -1  -1  13   15.40    0.86
   0   1 -13   35.38    0.96
   0   1 -13   34.83    0.94
   0   1 -13   33.52    1.26
   0  -1  13   36.51    1.29
   0  -1  13   32.74    1.16
   0  -1  13   35.08    1.03
   0  -1  13   33.86    0.90
   0  -1  13   33.71    1.21
  -1   1 -13   32.85    0.82
  -1   1 -13   34.81    1.34
   1  -1  13   33.10    1.04
   1  -1  13   31.83    1.25
   1  -1  13   32.45    1.32
   1  -1  13   32.19    1.19
  -2   1 -13   -0.71    0.44
  -2   1 -13    0.33    0.48
   2  -1  13    0.43    0.61
   2  -1  13   -0.05    0.35
   2  -1  13    0.62    0.52
  -3   1 -13    1.02    0.58
   3  -1  13    0.63    0.65
   3  -1  13    1.15    0.67
  -4   1 -13    0.09    0.52
   4  -1  13    0.31    0.80
   4  -1  13    0.27    0.71
  -5   1 -13   -0.23    0.81
   5  -1  13   -1.15    0.89
   5   0 -13    0.69    0.68
   5   0 -13    1.43    0.74
   5   0 -13    1.64    0.69
  -5   0  13    0.79    0.80
   4   0 -13    0.64    0.58
   4   0 -13   -0.25    0.48
   4   0 -13    0.51    0.54
   4   0 -13    0.82    0.62
   3   0 -13    2.86    0.56
   3   0 -13    3.56    0.63
   3   0 -13    3.23    0.54
   3   0 -13    3.38    0.60
  -3   0  13    2.52    0.52
  -3   0  13    3.50    0.45
  -3   0  13    3.87    0.58
   2   0 -13    2.03    0.48
   2   0 -13    1.65    0.46
   2   0 -13    1.58    0.48
   2   0 -13    1.07    0.46
  -2   0  13    2.13    0.48
  -2   0  13    2.06    0.38
  -2   0  13    1.88    0.44
  -2   0  13    1.54    0.23
   1   0 -13    9.01    0.74
   1   0 -13    8.57    0.69
   1   0 -13    8.56    0.63
   1   0 -13    9.87    0.67
  -1   0  13    9.52    0.56
  -1   0  13    8.72    0.34
  -1   0  13    8.36    0.63
  -1   0  13    8.14    0.53
   0   0 -13   82.99    1.73
   0   0 -13   81.70    2.07
   0   0 -13   83.29    1.93
   0   0 -13   84.11    1.79
   0   0  13   83.51    1.68
   0   0  13   83.78    1.55
   0   0  13   83.68    2.08
   0   0  13   84.36    2.05
   0   0  13   87.42    1.95
   0   0  13   84.27    1.41
  -1   0 -13   85.82    2.13
  -1   0 -13   83.12    2.15
   1   0  13   91.57    2.23
   1   0  13   84.36    2.04
   1   0  13   86.57    1.77
   1   0  13   86.94    2.17
   1   0  13   85.30    1.53
  -2   0 -13    0.29    0.46
  -2   0 -13    0.32    0.52
   2   0  13    1.38    0.59
   2   0  13    0.74    0.35
   2   0  13    0.42    0.51
  -3   0 -13    7.45    0.86
  -3   0 -13    8.31    0.99
   3   0  13    7.51    0.91
   3   0  13    7.40    1.00
  -4   0 -13    4.11    0.74
  -4   0 -13    4.08    1.02
   4   0  13    1.54    0.78
   4   0  13    3.28    0.94
   5  -1 -13    0.91    0.71
   5  -1 -13    0.55    0.59
   5  -1 -13   -1.00    0.58
  -5   1  13    1.27    0.73
   4  -1 -13    2.67    0.66
   4  -1 -13    2.49    0.65
   4  -1 -13    1.86    0.59
   4  -1 -13    1.11    0.62
  -4   1  13    2.45    0.51
  -4   1  13    1.39    0.71
   3  -1 -13    0.67    0.40
   3  -1 -13    0.50    0.44
   3  -1 -13    0.29    0.50
   3  -1 -13    0.31    0.52
  -3   1  13   -0.19    0.35
  -3   1  13    0.26    0.39
   2  -1 -13    0.45    0.43
   2  -1 -13    0.21    0.37
   2  -1 -13    0.14    0.42
   2  -1 -13    0.81    0.44
  -2   1  13    0.16    0.35
  -2   1  13   -0.07    0.35
  -2   1  13   -0.01    0.30
   1  -1 -13   19.09    0.99
   1  -1 -13   21.26    0.86
   1  -1 -13   21.14    0.82
   1  -1 -13   21.55    0.92
   1  -1 -13   21.63    0.96
  -1   1  13   18.49    0.81
  -1   1  13   20.52    0.66
  -1   1  13   19.91    0.69
  -1   1  13   21.00    0.86
   0  -1 -13   54.22    1.63
   0  -1 -13   54.14    1.49
   0   1  13   53.90    1.01
   0   1  13   53.17    1.60
   0   1  13   53.25    1.11
   0   1  13   54.30    1.46
   0   1  13   53.34    1.14
   0   1  13   52.63    1.01
   0   1  13   53.81    1.61
  -1  -1 -13   20.09    1.01
  -1  -1 -13   19.60    1.13
   1   1  13   21.18    0.69
   1   1  13   20.58    0.67
   1   1  13   18.90    0.93
   1   1  13   18.72    1.04
   1   1  13   18.08    1.03
  -2  -1 -13   15.28    1.01
  -2  -1 -13   11.38    0.97
   2   1  13   15.59    1.06
   2   1  13   14.73    0.68
   2   1  13   14.14    1.04
  -3  -1 -13    1.57    0.68
  -3  -1 -13    0.95    0.58
   3   1  13    1.97    0.72
   3   1  13    1.85    0.74
  -4  -1 -13    2.12    0.68
  -4  -1 -13    2.66    0.86
   4   1  13   -0.12    0.81
   4   1  13    1.32    0.79
   5  -2 -13    0.49    0.55
   5  -2 -13    0.11    0.63
   5  -2 -13    0.12    0.64
  -5   2  13    1.30    0.73
   4  -2 -13    0.10    0.50
   4  -2 -13    1.48    0.70
   4  -2 -13    1.03    0.58
   4  -2 -13    0.98    0.59
  -4   2  13    1.76    0.66
  -4   2  13    0.84    0.51
   3  -2 -13    8.53    0.73
   3  -2 -13    9.70    0.91
   3  -2 -13    8.89    0.79
   3  -2 -13    7.77    0.79
  -3   2  13    8.57    0.73
  -3   2  13    9.00    0.65
  -3   2  13    7.34    0.82
   2  -2 -13    1.83    0.47
   2  -2 -13    2.07    0.49
   2  -2 -13    1.87    0.48
   2  -2 -13    2.01    0.55
   2  -2 -13    2.82    0.34
  -2   2  13    2.30    0.40
  -2   2  13    2.57    0.49
  -2   2  13    2.23    0.57
   1  -2 -13   63.76    1.80
   1  -2 -13   66.30    1.70
   1  -2 -13   63.87    1.55
  -1   2  13   65.49    1.27
  -1   2  13   63.71    1.39
  -1   2  13   64.85    1.65
  -1   2  13   61.94    1.51
   0  -2 -13  129.42    2.65
   0  -2 -13  130.04    2.88
   0   2  13  126.88    2.30
   0   2  13  127.98    2.81
   0   2  13  129.05    1.97
   0   2  13  124.24    2.09
   0   2  13  128.25    2.53
  -1  -2 -13    3.09    0.64
  -1  -2 -13    3.90    0.63
   1   2  13    4.99    0.69
   1   2  13    5.33    0.74
   1   2  13    5.14    0.47
  -2  -2 -13   -0.03    0.60
  -2  -2 -13    0.63    0.60
   2   2  13    0.34    0.53
   2   2  13    1.26    0.58
  -3  -2 -13    1.01    0.71
  -3  -2 -13    0.28    0.53
   3   2  13    1.52    0.65
   3   2  13    0.49    0.73
  -4  -2 -13    1.27    0.81
   4   2  13    2.59    0.98
   4   2  13    0.49    0.74
   5  -3 -13    1.03    0.68
   5  -3 -13    1.37    0.74
   5  -3 -13    1.89    0.67
  -5   3  13    0.51    0.73
   4  -3 -13    1.45    0.59
   4  -3 -13    1.09    0.68
   4  -3 -13    0.96    0.59
   4  -3 -13    1.15    0.62
  -4   3  13    1.28    0.65
  -4   3  13    0.77    0.55
   3  -3 -13    3.37    0.58
   3  -3 -13    3.62    0.58
   3  -3 -13    2.06    0.57
   3  -3 -13    4.12    0.72
  -3   3  13    3.21    0.56
  -3   3  13    2.19    0.60
  -3   3  13    3.17    0.44
   2  -3 -13    9.21    0.77
   2  -3 -13   11.10    0.90
   2  -3 -13   11.31    0.60
   2  -3 -13   10.65    0.85
   2  -3 -13    9.08    0.84
  -2   3  13    9.66    0.78
  -2   3  13    9.07    0.67
  -2   3  13   11.36    0.88
  -2   3  13    9.38    0.57
   1  -3 -13   18.00    1.03
   1  -3 -13   20.22    0.89
  -1   3  13   19.36    0.78
  -1   3  13   18.95    0.88
  -1   3  13   18.28    0.92
  -1   3  13   18.89    0.75
   0  -3 -13   20.36    1.10
   0  -3 -13   17.56    0.99
   0   3  13   18.66    0.75
   0   3  13   18.45    1.10
   0   3  13   18.53    0.82
   0   3  13   18.65    0.71
  -1  -3 -13   -0.02    0.52
  -1  -3 -13    0.22    0.50
   1   3  13    0.04    0.34
   1   3  13    0.64    0.47
   1   3  13    0.26    0.49
  -2  -3 -13    7.37    0.91
  -2  -3 -13    7.97    0.97
  -2  -3 -13    7.43    0.97
   2   3  13    6.70    0.83
   2   3  13    6.84    0.86
  -3  -3 -13    3.53    0.85
  -3  -3 -13    3.16    0.80
  -3  -3 -13    2.15    0.84
   3   3  13    1.86    0.71
   3   3  13    3.24    0.82
  -4  -3 -13    0.19    0.78
  -4  -3 -13    1.40    0.97
   4   3  13    0.33    0.80
   5  -4 -13    0.64    0.64
   5  -4 -13    1.69    0.84
   5  -4 -13   -0.04    0.49
  -5   4  13    0.28    0.73
   4  -4 -13   -0.30    0.61
   4  -4 -13   -0.21    0.55
   4  -4 -13   -0.34    0.49
  -4   4  13   -0.43    0.53
  -4   4  13    0.25    0.69
   3  -4 -13   -0.70    0.52
   3  -4 -13    0.27    0.47
   3  -4 -13   -0.61    0.42
   3  -4 -13    0.57    0.45
  -3   4  13    0.38    0.57
  -3   4  13    0.38    0.52
   2  -4 -13   26.82    1.20
   2  -4 -13   27.27    1.28
   2  -4 -13   27.71    1.24
   2  -4 -13   27.98    0.97
  -2   4  13   28.13    1.15
  -2   4  13   26.24    1.04
  -2   4  13   25.67    1.14
   1  -4 -13   27.87    1.30
   1  -4 -13   29.76    1.13
  -1   4  13   31.11    1.10
  -1   4  13   30.26    0.89
  -1   4  13   30.73    1.06
  -1   4  13   29.70    1.20
   0  -4 -13   25.84    1.35
   0  -4 -13   24.73    1.20
   0   4  13   24.29    0.80
   0   4  13   26.59    0.95
   0   4  13   26.00    0.91
  -1  -4 -13    0.08    0.59
  -1  -4 -13   -0.60    0.51
  -1  -4 -13    0.23    0.63
   1   4  13   -0.04    0.50
   1   4  13   -0.02    0.34
   1   4  13    1.15    0.47
  -2  -4 -13    1.62    0.76
  -2  -4 -13    1.09    0.65
  -2  -4 -13    1.53    0.76
   2   4  13    2.44    0.61
   2   4  13    1.35    0.64
  -3  -4 -13   -0.45    0.88
  -3  -4 -13    0.58    0.76
  -3  -4 -13    0.52    0.84
   3   4  13    0.51    0.70
  -4  -4 -13    2.58    1.07
  -4  -4 -13    2.75    1.05
   4   4  13    0.25    0.86
   5  -5 -13   -0.80    0.62
   5  -5 -13   -0.63    0.59
  -5   5  13    0.12    0.64
  -5   5  13    0.66    0.78
   4  -5 -13    9.08    1.01
   4  -5 -13    7.05    1.00
   4  -5 -13    8.90    0.85
  -4   5  13    7.47    0.90
  -4   5  13    7.23    1.02
   3  -5 -13    6.68    0.81
   3  -5 -13    5.82    0.82
   3  -5 -13    6.70    0.74
   3  -5 -13    6.11    0.82
  -3   5  13    5.97    0.79
  -3   5  13    6.03    0.79
   2  -5 -13    4.84    0.57
   2  -5 -13    4.23    0.69
   2  -5 -13    5.71    0.82
  -2   5  13    4.68    0.66
  -2   5  13    3.50    0.65
  -2   5  13    3.37    0.63
   1  -5 -13    7.58    0.74
   1  -5 -13    5.54    0.80
  -1   5  13    7.43    0.63
  -1   5  13    7.25    0.78
  -1   5  13    7.09    0.68
   0  -5 -13   18.47    1.08
   0  -5 -13   18.61    1.20
   0   5  13   18.76    0.78
   0   5  13   19.19    1.09
   0   5  13   19.41    0.91
  -1  -5 -13    5.76    0.83
  -1  -5 -13    5.14    0.87
  -1  -5 -13    4.55    0.85
   1   5  13    5.08    0.61
   1   5  13    6.69    0.87
  -2  -5 -13    9.06    1.09
  -2  -5 -13    7.34    1.05
  -2  -5 -13    7.82    1.10
   2   5  13    7.70    0.99
   2   5  13    8.23    0.83
  -3  -5 -13    0.99    0.78
  -3  -5 -13    0.82    0.85
  -3  -5 -13    2.35    1.00
   3   5  13    1.44    0.82
   5  -6 -13    0.99    0.79
  -5   6  13    3.05    0.91
  -5   6  13    2.02    0.79
   4  -6 -13    0.39    0.53
   4  -6 -13    0.67    0.67
  -4   6  13    0.21    0.62
  -4   6  13    0.76    0.67
   3  -6 -13   -0.13    0.49
   3  -6 -13    0.79    0.66
   3  -6 -13    0.81    0.62
   3  -6 -13    0.38    0.57
  -3   6  13    0.27    0.58
  -3   6  13   -0.33    0.58
  -3   6  13    0.67    0.65
   2  -6 -13    7.32    0.95
   2  -6 -13    5.94    0.66
   2  -6 -13    6.82    0.85
  -2   6  13    6.73    0.76
  -2   6  13    6.68    0.77
  -2   6  13    7.67    0.85
   1  -6 -13   10.56    0.91
   1  -6 -13    9.06    0.98
  -1   6  13    7.46    0.84
  -1   6  13    9.64    0.71
  -1   6  13    8.10    0.76
   0  -6 -13   -0.99    0.52
   0  -6 -13   -1.15    0.50
   0  -6 -13    0.27    0.63
   0   6  13    0.62    0.54
   0   6  13    0.23    0.46
  -1  -6 -13   10.63    1.10
  -1  -6 -13    9.15    1.00
  -1  -6 -13    9.44    1.11
   1   6  13   12.32    1.07
   1   6  13    9.42    0.85
  -2  -6 -13    1.28    0.81
  -2  -6 -13    1.52    0.78
  -2  -6 -13    0.72    0.79
   2   6  13    1.93    0.61
   2   6  13    0.93    0.71
  -3  -6 -13    1.85    0.92
  -3  -6 -13    2.40    1.02
  -3  -6 -13    1.69    0.93
   3   6  13    2.46    0.85
   4  -7 -13    0.32    0.67
  -4   7  13   -0.25    0.69
  -4   7  13   -1.09    0.60
   3  -7 -13    0.52    0.67
   3  -7 -13   -0.05    0.64
   3  -7 -13    0.47    0.52
  -3   7  13    0.06    0.61
  -3   7  13    0.31    0.62
  -3   7  13    0.50    0.63
   2  -7 -13    6.45    0.90
   2  -7 -13    6.76    0.77
  -2   7  13    7.52    0.80
  -2   7  13    7.43    0.84
  -2   7  13    7.75    0.92
   1  -7 -13    0.70    0.59
   1  -7 -13    1.40    0.67
  -1   7  13    0.57    0.57
  -1   7  13    0.37    0.48
   0  -7 -13    1.17    0.64
   0  -7 -13   -0.08    0.74
   0  -7 -13    0.59    0.68
   0   7  13    1.15    0.56
   0   7  13    1.33    0.63
  -1  -7 -13   -0.09    0.77
  -1  -7 -13    2.01    0.77
  -1  -7 -13    0.18    0.74
   1   7  13   -0.12    0.58
   1   7  13   -0.78    0.44
  -2  -7 -13   -0.50    0.77
  -2  -7 -13    0.18    0.80
  -2  -7 -13   -1.75    0.76
   2   7  13    1.56    0.72
   2   7  13    0.15    0.61
   4  -8 -13    0.10    0.78
  -4   8  13   -0.67    0.65
  -4   8  13   -0.10    0.70
   3  -8 -13    2.02    0.73
  -3   8  13    1.15    0.77
  -3   8  13    1.06    0.70
  -3   8  13    1.39    0.66
   2  -8 -13    1.26    0.71
   2  -8 -13    2.19    0.63
  -2   8  13    0.91    0.63
  -2   8  13    1.47    0.70
  -2   8  13    0.30    0.56
   1  -8 -13    4.34    0.88
   1  -8 -13    3.46    0.74
  -1   8  13    4.45    0.76
  -1   8  13    3.15    0.79
   0  -8 -13   13.88    1.18
   0  -8 -13    9.50    1.15
   0  -8 -13   11.34    1.19
   0   8  13    9.56    1.09
   0   8  13   10.66    0.88
   0   8  13   11.40    0.97
  -1  -8 -13    1.61    0.86
  -1  -8 -13    0.34    0.80
  -1  -8 -13   -0.82    0.69
   1   8  13    1.36    0.70
   1   8  13    0.81    0.64
  -2  -8 -13    4.59    1.08
  -2  -8 -13    5.64    1.20
  -2  -8 -13    7.16    1.24
   2   8  13    4.23    0.80
   3  -9 -13    0.75    0.71
  -3   9  13    0.36    0.72
  -3   9  13    0.17    0.69
  -3   9  13    1.36    0.80
   2  -9 -13   14.40    1.38
  -2   9  13   12.50    1.11
  -2   9  13   13.92    1.30
   1  -9 -13    1.32    0.70
   1  -9 -13    1.93    0.86
  -1   9  13    2.42    0.83
  -1   9  13    2.80    0.71
   0  -9 -13    5.45    1.05
   0  -9 -13    4.77    1.09
   0   9  13    5.13    0.88
   0   9  13    4.84    0.82
   1  10 -14    0.18    0.73
  -1 -10  14    0.89    0.88
  -1 -10  14    0.69    0.76
   0  10 -14    8.48    0.96
   0 -10  14    7.89    1.13
   0 -10  14    9.26    1.11
  -1  10 -14    0.49    0.55
  -1  10 -14   -0.84    0.58
   1 -10  14   -0.14    0.76
   1 -10  14   -0.91    0.67
  -2  10 -14    4.92    0.89
   2 -10  14    3.49    0.95
   2 -10  14    5.55    1.02
   2   9 -14   21.15    1.39
   2   9 -14   19.81    1.25
  -2  -9  14   23.42    1.45
  -2  -9  14   21.61    1.57
  -2  -9  14   20.38    1.49
   1   9 -14   -0.11    0.53
  -1  -9  14    0.18    0.72
  -1  -9  14   -0.80    0.68
   0   9 -14    2.76    0.64
   0   9 -14    3.02    0.74
   0  -9  14    1.58    0.77
   0  -9  14    1.38    0.71
  -1   9 -14   16.20    1.09
  -1   9 -14   13.80    1.15
   1  -9  14   14.83    1.25
   1  -9  14   11.44    1.20
  -2   9 -14    4.58    0.74
  -2   9 -14    3.83    0.80
   2  -9  14    4.29    0.94
   2  -9  14    3.44    0.76
   2  -9  14    4.55    0.90
  -3   9 -14    5.34    0.97
  -3   9 -14    4.50    0.87
   3  -9  14    6.35    1.07
   3  -9  14    4.31    1.08
   3   8 -14   16.23    1.27
   3   8 -14   17.64    1.32
  -3  -8  14   16.68    1.42
  -3  -8  14   14.52    1.41
  -3  -8  14   15.30    1.41
   2   8 -14    0.80    0.59
   2   8 -14    1.13    0.59
   2   8 -14    0.57    0.57
  -2  -8  14    1.24    0.77
  -2  -8  14   -0.03    0.67
  -2  -8  14    0.68    0.70
  -2  -8  14    1.37    0.66
   1   8 -14    6.56    0.73
   1   8 -14    3.71    0.65
  -1  -8  14    3.38    0.92
  -1  -8  14    3.34    0.89
  -1  -8  14    5.46    0.84
   0   8 -14    7.66    0.77
   0   8 -14    7.31    0.81
   0   8 -14    6.94    0.70
   0  -8  14    7.60    0.90
   0  -8  14    6.76    0.93
   0  -8  14    7.90    0.81
   0  -8  14    6.27    0.93
  -1   8 -14    2.14    0.68
  -1   8 -14    2.53    0.59
   1  -8  14    1.97    0.74
   1  -8  14    2.59    0.72
   1  -8  14    1.37    0.61
   1  -8  14    2.60    0.75
  -2   8 -14    2.30    0.56
  -2   8 -14    2.62    0.71
   2  -8  14    2.95    0.84
   2  -8  14    2.66    0.80
   2  -8  14    2.51    0.85
   2  -8  14    2.06    0.71
  -3   8 -14    0.81    0.61
  -3   8 -14    0.46    0.77
   3  -8  14    0.23    1.04
   3  -8  14    0.46    0.75
   3  -8  14    0.33    0.72
   4   7 -14    0.37    0.70
   4   7 -14    0.35    0.72
   4   7 -14    1.04    0.74
  -4  -7  14    0.45    0.79
  -4  -7  14    1.14    0.84
   3   7 -14   -0.13    0.57
   3   7 -14    0.58    0.64
   3   7 -14    0.49    0.55
   3   7 -14    0.46    0.60
  -3  -7  14    0.73    0.82
  -3  -7  14    0.51    0.66
  -3  -7  14   -1.32    0.64
   2   7 -14    3.36    0.66
   2   7 -14    3.73    0.67
   2   7 -14    5.57    0.79
  -2  -7  14    3.03    0.70
  -2  -7  14    5.26    0.96
  -2  -7  14    3.86    0.84
   1   7 -14    1.08    0.43
   1   7 -14    0.76    0.41
   1   7 -14    0.74    0.48
   1   7 -14    0.96    0.48
  -1  -7  14    1.09    0.68
  -1  -7  14    0.08    0.50
  -1  -7  14    0.54    0.62
   0   7 -14    6.90    0.73
   0   7 -14    6.91    0.67
   0   7 -14    7.51    0.69
   0  -7  14    7.28    0.90
   0  -7  14    7.73    0.91
   0  -7  14    8.29    0.82
   0  -7  14    6.62    0.84
  -1   7 -14   11.26    0.79
  -1   7 -14   11.03    0.93
  -1   7 -14   12.55    0.81
   1  -7  14   11.00    1.03
   1  -7  14   12.69    1.09
   1  -7  14   11.30    0.89
   1  -7  14   12.96    1.19
   1  -7  14   10.30    0.99
  -2   7 -14    5.40    0.71
  -2   7 -14    6.60    0.90
   2  -7  14    5.45    0.88
   2  -7  14    6.61    0.93
   2  -7  14    3.95    0.77
   2  -7  14    6.44    0.83
   2  -7  14    6.58    0.92
  -3   7 -14   13.54    1.20
  -3   7 -14   14.89    1.07
   3  -7  14   15.74    1.36
   3  -7  14   15.64    1.24
   3  -7  14   14.65    1.29
  -4   7 -14    4.70    0.93
  -4   7 -14    5.66    0.98
   4  -7  14    5.20    1.03
   4  -7  14    6.83    1.13
   4  -7  14    5.99    1.04
   4   6 -14    6.33    0.97
   4   6 -14    5.19    0.89
   4   6 -14    5.19    0.96
  -4  -6  14    6.76    1.09
  -4  -6  14    6.63    1.04
   3   6 -14    7.57    0.88
   3   6 -14    7.71    0.86
   3   6 -14    7.30    0.99
   3   6 -14    7.15    0.91
  -3  -6  14    7.87    1.03
  -3  -6  14    7.67    1.00
  -3  -6  14    7.38    0.92
   2   6 -14   -0.22    0.39
   2   6 -14   -0.36    0.47
   2   6 -14    0.03    0.49
   2   6 -14    0.14    0.46
  -2  -6  14    0.36    0.57
  -2  -6  14    0.13    0.59
  -2  -6  14    0.61    0.52
   1   6 -14    3.07    0.59
   1   6 -14    4.96    0.65
   1   6 -14    4.52    0.52
   1   6 -14    2.94    0.48
  -1  -6  14    5.19    0.74
  -1  -6  14    4.61    0.81
  -1  -6  14    3.62    0.73
   0   6 -14   12.52    0.86
   0   6 -14   12.66    0.79
   0  -6  14   13.17    1.03
   0  -6  14   13.88    1.00
   0  -6  14   13.12    0.83
   0  -6  14   12.83    0.91
   0  -6  14   13.03    1.00
  -1   6 -14    1.34    0.40
  -1   6 -14    0.47    0.39
  -1   6 -14    0.92    0.49
  -1   6 -14    1.27    0.40
   1  -6  14    0.60    0.53
   1  -6  14    0.08    0.53
   1  -6  14    1.10    0.51
   1  -6  14    0.57    0.59
   1  -6  14    1.11    0.60
  -2   6 -14    0.51    0.43
  -2   6 -14    0.88    0.56
   2  -6  14    0.60    0.62
   2  -6  14    0.69    0.63
   2  -6  14    1.14    0.66
   2  -6  14    0.28    0.61
   2  -6  14    1.08    0.65
  -3   6 -14    1.39    0.66
  -3   6 -14    2.49    0.68
   3  -6  14    1.08    0.62
   3  -6  14    1.90    0.70
   3  -6  14    2.68    0.84
   3  -6  14    1.85    0.79
   3  -6  14    1.67    0.82
  -4   6 -14    5.16    0.97
  -4   6 -14    4.51    0.84
   4  -6  14    3.42    0.96
   4  -6  14    3.96    0.91
   4  -6  14    4.93    0.98
   4   5 -14    3.18    0.83
   4   5 -14    4.16    0.87
   4   5 -14    4.75    0.80
   4   5 -14    3.53    0.81
  -4  -5  14    2.61    0.82
  -4  -5  14    3.91    0.73
  -4  -5  14    3.32    0.86
  -4  -5  14    2.34    0.72
   3   5 -14    3.29    0.69
   3   5 -14    2.25    0.61
   3   5 -14    2.83    0.70
   3   5 -14    3.45    0.74
  -3  -5  14    3.85    0.78
  -3  -5  14    2.54    0.64
  -3  -5  14    4.01    0.79
   2   5 -14   -0.25    0.43
   2   5 -14   -0.60    0.38
   2   5 -14    0.81    0.52
   2   5 -14   -0.34    0.47
  -2  -5  14    0.73    0.46
  -2  -5  14   -0.04    0.54
  -2  -5  14   -0.33    0.57
   1   5 -14   -0.07    0.42
   1   5 -14    0.14    0.29
   1   5 -14    0.42    0.34
   1   5 -14   -0.57    0.30
  -1  -5  14    0.07    0.45
  -1  -5  14    0.22    0.51
  -1  -5  14    0.20    0.51
   0   5 -14    0.61    0.39
   0   5 -14    0.44    0.43
   0  -5  14    0.39    0.42
   0  -5  14    0.17    0.52
   0  -5  14    0.54    0.48
   0  -5  14    0.47    0.45
   0  -5  14   -0.36    0.44
  -1   5 -14    8.12    0.59
  -1   5 -14    8.65    0.59
  -1   5 -14    7.47    0.64
   1  -5  14    8.11    0.85
   1  -5  14    9.04    0.83
   1  -5  14    8.60    0.90
   1  -5  14    8.45    0.83
   1  -5  14    8.47    0.87
  -2   5 -14    3.33    0.64
  -2   5 -14    3.10    0.54
  -2   5 -14    2.47    0.44
   2  -5  14    2.07    0.68
   2  -5  14    2.95    0.72
   2  -5  14    2.56    0.60
   2  -5  14    1.38    0.70
   2  -5  14    2.30    0.64
  -3   5 -14    1.42    0.57
  -3   5 -14   -0.50    0.53
   3  -5  14    0.26    0.65
   3  -5  14   -0.69    0.62
   3  -5  14   -0.32    0.68
   3  -5  14   -0.05    0.60
  -4   5 -14    0.05    0.65
  -4   5 -14    1.28    0.72
   4  -5  14    1.47    0.89
   4  -5  14    1.36    0.82
   4  -5  14    0.41    0.83
   5   4 -14   15.71    1.44
   5   4 -14   11.92    1.24
   5   4 -14   14.92    1.34
  -5  -4  14   15.55    1.45
  -5  -4  14   12.55    1.17
   4   4 -14    8.00    0.93
   4   4 -14    8.90    1.06
   4   4 -14    8.55    0.97
   4   4 -14    8.46    1.00
  -4  -4  14    9.59    0.89
  -4  -4  14    8.72    1.03
  -4  -4  14    7.11    0.91
  -4  -4  14   10.13    1.09
   3   4 -14    2.26    0.55
   3   4 -14    0.77    0.57
   3   4 -14    2.35    0.58
   3   4 -14    2.79    0.68
  -3  -4  14    2.00    0.55
  -3  -4  14    1.77    0.64
  -3  -4  14    1.85    0.66
   2   4 -14    0.92    0.49
   2   4 -14    0.56    0.43
   2   4 -14    1.53    0.49
  -2  -4  14    0.10    0.54
  -2  -4  14    1.45    0.56
  -2  -4  14    0.51    0.44
   1   4 -14    5.95    0.54
   1   4 -14    6.98    0.56
   1   4 -14    5.70    0.65
  -1  -4  14    7.21    0.66
  -1  -4  14    5.36    0.76
  -1  -4  14    5.76    0.74
   0   4 -14    1.01    0.34
   0   4 -14    0.99    0.54
   0   4 -14    1.28    0.27
   0   4 -14    1.20    0.43
   0  -4  14    0.70    0.51
   0  -4  14    0.76    0.43
   0  -4  14    1.11    0.55
   0  -4  14    1.58    0.49
   0  -4  14    0.98    0.52
  -1   4 -14    0.38    0.41
  -1   4 -14    0.02    0.26
  -1   4 -14    0.79    0.50
  -1   4 -14    0.22    0.30
   1  -4  14    0.67    0.53
   1  -4  14    0.17    0.44
   1  -4  14    0.20    0.52
   1  -4  14   -0.01    0.43
   1  -4  14    0.04    0.50
  -2   4 -14    0.40    0.39
  -2   4 -14    0.11    0.56
  -2   4 -14    0.24    0.37
   2  -4  14   -0.03    0.51
   2  -4  14    0.27    0.45
   2  -4  14    0.00    0.53
   2  -4  14   -1.39    0.51
   2  -4  14   -0.27    0.47
  -3   4 -14    0.23    0.49
   3  -4  14   -0.10    0.63
   3  -4  14   -0.05    0.67
   3  -4  14    0.31    0.61
   3  -4  14    0.31    0.62
  -4   4 -14    0.77    0.66
  -4   4 -14   -0.87    0.58
   4  -4  14    1.01    0.85
   4  -4  14   -1.60    0.70
   4  -4  14    0.40    0.72
   5   3 -14   -0.51    0.68
   5   3 -14    0.42    0.71
   5   3 -14   -0.45    0.71
   4   3 -14    0.27    0.58
   4   3 -14    0.69    0.68
   4   3 -14    1.07    0.64
   4   3 -14    1.93    0.70
  -4  -3  14    2.17    0.69
  -4  -3  14    0.33    0.57
  -4  -3  14    0.20    0.60
  -4  -3  14    0.73    0.50
   3   3 -14   -0.72    0.48
   3   3 -14    0.22    0.48
   3   3 -14    0.09    0.50
   3   3 -14    0.54    0.53
  -3  -3  14   -0.12    0.40
  -3  -3  14    0.55    0.54
  -3  -3  14    0.01    0.53
   2   3 -14    1.29    0.49
   2   3 -14    0.65    0.48
   2   3 -14    0.53    0.42
   2   3 -14    0.20    0.37
  -2  -3  14    0.59    0.39
  -2  -3  14    0.65    0.57
  -2  -3  14    0.62    0.47
   1   3 -14   67.97    1.76
   1   3 -14   64.27    1.52
   1   3 -14   63.13    1.54
   1   3 -14   63.92    1.87
  -1  -3  14   64.48    1.76
  -1  -3  14   65.46    1.83
  -1  -3  14   66.32    1.58
  -1  -3  14   63.01    1.28
   0   3 -14   10.22    0.48
   0   3 -14    9.53    0.70
   0   3 -14    9.73    0.52
   0   3 -14    9.44    0.43
   0   3 -14   10.85    0.92
   0  -3  14   10.84    0.69
   0  -3  14    9.78    0.83
   0  -3  14   10.52    0.84
   0  -3  14   11.10    0.87
   0  -3  14   10.07    0.74
  -1   3 -14    3.51    0.54
  -1   3 -14    3.76    0.33
  -1   3 -14    3.44    0.44
  -1   3 -14    3.50    0.67
   1  -3  14    3.80    0.68
   1  -3  14    4.32    0.59
   1  -3  14    3.42    0.63
   1  -3  14    3.06    0.53
   1  -3  14    3.96    0.71
  -2   3 -14   -0.06    0.35
  -2   3 -14   -0.14    0.47
   2  -3  14    0.04    0.43
   2  -3  14    0.42    0.59
   2  -3  14    1.13    0.64
   2  -3  14    0.87    0.54
  -3   3 -14    0.98    0.51
  -3   3 -14    0.42    0.54
   3  -3  14    1.01    0.55
   3  -3  14   -0.26    0.66
   3  -3  14   -0.02    0.59
   3  -3  14    0.93    0.77
  -4   3 -14   -0.46    0.65
   4  -3  14    0.55    0.68
   4  -3  14    1.94    0.90
   5   2 -14   22.11    1.45
   5   2 -14   20.86    1.40
   5   2 -14   24.56    1.57
   4   2 -14    1.27    0.64
   4   2 -14    1.37    0.70
   4   2 -14    2.54    0.69
   4   2 -14    1.43    0.66
  -4  -2  14    0.33    0.60
  -4  -2  14    1.71    0.72
  -4  -2  14    2.04    0.62
   3   2 -14   12.01    0.89
   3   2 -14   12.07    0.81
   3   2 -14   12.76    1.03
   3   2 -14   11.36    0.94
   3   2 -14   10.85    0.96
  -3  -2  14   13.46    1.05
  -3  -2  14   12.37    0.73
  -3  -2  14   12.34    1.00
   2   2 -14    5.01    0.58
   2   2 -14    4.80    0.60
   2   2 -14    4.77    0.65
   2   2 -14    4.48    0.66
  -2  -2  14    5.06    0.48
  -2  -2  14    5.57    0.65
  -2  -2  14    4.96    0.69
   1   2 -14   40.73    1.17
   1   2 -14   42.41    1.47
   1   2 -14   39.30    1.32
   1   2 -14   41.78    1.17
  -1  -2  14   40.84    1.41
  -1  -2  14   41.10    1.07
  -1  -2  14   40.44    1.29
  -1  -2  14   41.93    1.04
   0   2 -14   17.32    0.66
   0   2 -14   16.95    0.65
   0   2 -14   17.01    0.53
   0   2 -14   17.62    1.07
   0   2 -14   15.78    0.85
   0  -2  14   14.77    0.89
   0  -2  14   15.56    0.97
   0  -2  14   16.95    0.73
   0  -2  14   16.53    0.85
   0  -2  14   17.07    1.00
  -1   2 -14    1.48    0.23
  -1   2 -14    2.46    0.39
  -1   2 -14    1.33    0.54
   1  -2  14    1.30    0.55
   1  -2  14    1.10    0.50
   1  -2  14    1.88    0.55
   1  -2  14    1.04    0.39
   1  -2  14    1.76    0.46
  -2   2 -14    1.94    0.64
  -2   2 -14    2.06    0.51
   2  -2  14    2.23    0.69
   2  -2  14    2.64    0.63
   2  -2  14    1.12    0.44
   2  -2  14    0.99    0.58
  -3   2 -14    4.11    0.68
  -3   2 -14    3.42    0.73
   3  -2  14    2.93    0.81
   3  -2  14    3.48    0.88
   3  -2  14    3.61    0.66
  -4   2 -14    0.55    0.61
  -4   2 -14    0.19    0.70
   4  -2  14   -0.46    0.78
   5   1 -14    8.68    1.16
   5   1 -14    9.54    1.16
   5   1 -14    8.11    1.01
  -5  -1  14    8.03    1.06
   4   1 -14   -0.09    0.51
   4   1 -14   -0.11    0.56
   4   1 -14    0.58    0.63
   4   1 -14   -0.30    0.60
  -4  -1  14    0.71    0.61
  -4  -1  14    1.36    0.66
   3   1 -14    0.18    0.50
   3   1 -14   -0.01    0.40
   3   1 -14   -0.64    0.40
   3   1 -14    0.02    0.50
  -3  -1  14   -0.23    0.50
  -3  -1  14    0.52    0.45
  -3  -1  14    0.94    0.32
   2   1 -14   31.12    1.14
   2   1 -14   32.83    1.23
   2   1 -14   31.44    1.18
   2   1 -14   31.31    1.22
  -2  -1  14   31.21    0.91
  -2  -1  14   31.01    0.86
  -2  -1  14   32.41    1.17
  -2  -1  14   30.52    1.16
   1   1 -14   37.78    1.14
   1   1 -14   37.00    1.35
   1   1 -14   38.47    1.29
   1   1 -14   38.59    1.16
  -1  -1  14   38.55    0.93
  -1  -1  14   35.73    1.14
  -1  -1  14   37.13    1.05
  -1  -1  14   37.27    1.26
   0   1 -14    0.59    0.41
   0   1 -14    0.53    0.28
   0   1 -14    0.68    0.46
   0   1 -14    0.06    0.27
   0  -1  14    0.30    0.45
   0  -1  14    0.78    0.27
   0  -1  14    0.44    0.35
   0  -1  14    0.30    0.47
   0  -1  14   -0.39    0.40
  -1   1 -14   33.26    1.40
  -1   1 -14   33.39    0.86
  -1   1 -14   32.29    0.90
   1  -1  14   31.84    1.24
   1  -1  14   35.17    1.36
   1  -1  14   33.84    1.09
   1  -1  14   35.40    1.40
  -2   1 -14    0.29    0.51
   2  -1  14    0.39    0.59
   2  -1  14    0.78    0.60
   2  -1  14    0.66    0.41
   2  -1  14   -0.08    0.52
  -3   1 -14    1.40    0.64
   3  -1  14    0.04    0.63
   3  -1  14    0.90    0.78
   3  -1  14    0.13    0.48
  -4   1 -14   -0.56    0.53
   4  -1  14    0.57    0.82
   5   0 -14    8.48    1.12
   5   0 -14    9.01    0.99
   5   0 -14    7.83    1.01
  -5   0  14    8.98    1.10
   4   0 -14   10.75    1.03
   4   0 -14   10.78    1.00
   4   0 -14    9.68    1.02
   4   0 -14    9.94    0.97
   3   0 -14    1.77    0.58
   3   0 -14    1.84    0.51
   3   0 -14    1.13    0.51
   3   0 -14    2.95    0.60
  -3   0  14    2.25    0.43
  -3   0  14    1.71    0.53
  -3   0  14    1.88    0.50
   2   0 -14    2.93    0.59
   2   0 -14    1.57    0.50
   2   0 -14    1.32    0.44
   2   0 -14    1.78    0.46
  -2   0  14    2.64    0.52
  -2   0  14    2.16    0.41
  -2   0  14    3.52    0.52
   1   0 -14   -0.14    0.39
   1   0 -14    0.02    0.34
   1   0 -14   -0.21    0.34
   1   0 -14    0.52    0.48
  -1   0  14    0.28    0.31
  -1   0  14    0.39    0.37
  -1   0  14    0.10    0.15
  -1   0  14    0.37    0.34
   0   0 -14    8.46    0.69
   0   0 -14    9.24    0.83
   0   0 -14   10.43    0.61
   0   0 -14   11.04    0.64
   0   0  14    9.75    0.49
   0   0  14   10.40    0.85
   0   0  14   10.10    0.55
   0   0  14   10.39    0.45
   0   0  14    9.80    0.89
   0   0  14   10.76    0.75
  -1   0 -14    3.27    0.63
  -1   0 -14    2.21    0.58
   1   0  14    3.18    0.63
   1   0  14    3.28    0.64
   1   0  14    3.43    0.58
   1   0  14    2.38    0.40
  -2   0 -14    4.08    0.71
  -2   0 -14    5.23    0.79
   2   0  14    4.57    0.77
   2   0  14    4.74    0.53
   2   0  14    4.10    0.76
  -3   0 -14   -0.78    0.58
  -3   0 -14   -0.59    0.48
   3   0  14    0.54    0.71
   3   0  14    0.58    0.66
   3   0  14   -0.29    0.41
  -4   0 -14    3.96    0.79
  -4   0 -14    5.27    1.02
   4   0  14    4.60    1.04
   5  -1 -14    0.91    0.64
   5  -1 -14    0.95    0.72
   5  -1 -14   -0.24    0.73
  -5   1  14   -0.45    0.67
   4  -1 -14    0.23    0.60
   4  -1 -14    0.48    0.59
   4  -1 -14    0.11    0.60
   4  -1 -14    0.20    0.56
  -4   1  14    0.92    0.45
  -4   1  14   -0.19    0.61
   3  -1 -14    0.11    0.51
   3  -1 -14   -0.12    0.45
   3  -1 -14    0.01    0.45
   3  -1 -14    0.57    0.45
  -3   1  14    0.30    0.39
  -3   1  14    0.11    0.36
   2  -1 -14   28.49    1.18
   2  -1 -14   28.53    1.14
   2  -1 -14   33.03    1.22
   2  -1 -14   31.57    1.27
  -2   1  14   33.83    1.12
  -2   1  14   30.02    0.99
  -2   1  14   29.65    1.05
   1  -1 -14    4.93    0.52
   1  -1 -14    3.34    0.57
   1  -1 -14    4.69    0.65
   1  -1 -14    3.39    0.49
   1  -1 -14    3.75    0.53
  -1   1  14    4.15    0.55
  -1   1  14    4.18    0.40
  -1   1  14    4.70    0.56
   0  -1 -14   11.29    0.81
   0  -1 -14    9.97    0.88
   0   1  14   10.25    0.38
   0   1  14   10.73    0.72
   0   1  14   10.89    0.51
   0   1  14   10.80    0.87
   0   1  14   10.49    0.48
   0   1  14   11.72    0.89
  -1  -1 -14   12.71    0.97
  -1  -1 -14   13.91    0.93
   1   1  14   14.97    0.95
   1   1  14   14.71    0.61
   1   1  14   14.28    1.00
   1   1  14   15.40    1.02
   1   1  14   14.52    0.59
  -2  -1 -14    5.29    0.84
  -2  -1 -14    4.27    0.73
   2   1  14    5.38    0.86
   2   1  14    4.55    0.77
  -3  -1 -14    0.25    0.61
  -3  -1 -14   -0.37    0.58
   3   1  14   -0.36    0.67
   3   1  14   -0.27    0.59
  -4  -1 -14    0.83    0.89
  -4  -1 -14    0.42    0.70
   4   1  14   -0.93    0.79
   5  -2 -14   -1.74    0.66
   5  -2 -14    1.12    0.63
   5  -2 -14    1.60    0.77
  -5   2  14   -0.33    0.68
   4  -2 -14    0.64    0.62
   4  -2 -14    0.17    0.57
   4  -2 -14    0.31    0.60
   4  -2 -14    0.73    0.58
  -4   2  14    0.15    0.47
  -4   2  14    1.86    0.76
   3  -2 -14    6.44    0.75
   3  -2 -14    7.48    0.73
   3  -2 -14    6.46    0.78
   3  -2 -14    7.18    0.76
  -3   2  14    6.23    0.67
  -3   2  14    7.07    0.64
  -3   2  14    6.51    0.87
   2  -2 -14    1.35    0.31
   2  -2 -14    1.24    0.48
   2  -2 -14    1.57    0.53
   2  -2 -14    0.63    0.45
   2  -2 -14    1.50    0.57
  -2   2  14    0.87    0.37
  -2   2  14    2.06    0.50
  -2   2  14    0.87    0.53
   1  -2 -14    2.66    0.47
   1  -2 -14    2.46    0.52
   1  -2 -14    2.53    0.60
  -1   2  14    2.18    0.37
  -1   2  14    2.28    0.47
  -1   2  14    1.98    0.45
  -1   2  14    2.52    0.29
   0  -2 -14    9.12    0.79
   0  -2 -14    8.60    0.85
   0   2  14    8.59    0.70
   0   2  14    8.92    0.52
   0   2  14    9.73    0.88
  -1  -2 -14   16.32    1.02
  -1  -2 -14   18.11    1.22
   1   2  14   17.81    1.06
   1   2  14   16.01    1.07
   1   2  14   17.14    0.98
   1   2  14   17.60    0.72
  -2  -2 -14    1.36    0.63
  -2  -2 -14    1.61    0.64
   2   2  14    2.45    0.64
   2   2  14    1.99    0.67
  -3  -2 -14    3.46    0.84
  -3  -2 -14    4.43    0.81
   3   2  14    3.01    0.82
   3   2  14    2.67    0.82
  -4  -2 -14    0.45    0.90
   4   2  14    0.30    0.84
   5  -3 -14    9.47    0.96
   5  -3 -14   10.20    1.12
   5  -3 -14   11.39    1.15
  -5   3  14   10.90    1.25
   4  -3 -14    1.34    0.56
   4  -3 -14    0.32    0.58
   4  -3 -14    0.26    0.56
  -4   3  14   -0.29    0.61
  -4   3  14    0.41    0.49
   3  -3 -14    4.55    0.73
   3  -3 -14    4.68    0.75
   3  -3 -14    4.95    0.69
   3  -3 -14    4.53    0.70
  -3   3  14    4.48    0.78
  -3   3  14    5.47    0.73
   2  -3 -14    0.00    0.42
   2  -3 -14   -0.19    0.41
   2  -3 -14    0.00    0.45
   2  -3 -14    0.48    0.33
   2  -3 -14    0.54    0.56
  -2   3  14    0.33    0.38
  -2   3  14    0.43    0.50
  -2   3  14    1.23    0.51
  -2   3  14    0.39    0.32
   1  -3 -14    2.08    0.47
   1  -3 -14    2.62    0.67
  -1   3  14    1.82    0.42
  -1   3  14    2.25    0.41
  -1   3  14    1.84    0.51
  -1   3  14    2.83    0.50
   0  -3 -14    0.16    0.52
   0  -3 -14    0.18    0.48
   0   3  14   -0.61    0.44
   0   3  14   -0.53    0.27
   0   3  14   -0.27    0.31
   0   3  14   -0.53    0.33
  -1  -3 -14    0.02    0.54
  -1  -3 -14   -0.11    0.57
   1   3  14   -0.08    0.53
   1   3  14   -0.07    0.32
   1   3  14    0.62    0.48
  -2  -3 -14    0.83    0.62
  -2  -3 -14   -0.15    0.58
   2   3  14   -0.66    0.57
   2   3  14    1.09    0.61
  -3  -3 -14    0.13    0.69
  -3  -3 -14   -0.47    0.67
   3   3  14    0.31    0.71
   3   3  14   -0.36    0.63
  -4  -3 -14    0.25    0.82
   4   3  14    0.04    0.84
   5  -4 -14   -0.02    0.51
   5  -4 -14    0.88    0.68
   5  -4 -14    1.70    0.87
  -5   4  14    0.01    0.80
  -5   4  14    0.72    0.66
   4  -4 -14    1.04    0.66
   4  -4 -14    0.99    0.68
   4  -4 -14    1.17    0.55
  -4   4  14    1.01    0.65
  -4   4  14    2.39    0.77
   3  -4 -14    2.44    0.65
   3  -4 -14    2.95    0.62
   3  -4 -14    3.60    0.68
   3  -4 -14    4.02    0.74
  -3   4  14    2.98    0.68
  -3   4  14    2.29    0.66
   2  -4 -14    0.32    0.36
   2  -4 -14    0.07    0.45
   2  -4 -14    0.30    0.49
   2  -4 -14   -0.03    0.46
  -2   4  14   -0.39    0.42
  -2   4  14    0.36    0.50
  -2   4  14   -0.24    0.36
   1  -4 -14    6.79    0.86
   1  -4 -14    5.19    0.63
  -1   4  14    6.06    0.61
  -1   4  14    5.70    0.50
  -1   4  14    4.49    0.67
  -1   4  14    4.81    0.57
   0  -4 -14    1.45    0.58
   0  -4 -14    1.10    0.60
   0   4  14    1.16    0.41
   0   4  14    2.26    0.45
  -1  -4 -14    1.76    0.68
  -1  -4 -14    1.67    0.64
   1   4  14    3.13    0.54
   1   4  14    2.14    0.66
  -2  -4 -14    0.64    0.67
  -2  -4 -14   -0.12    0.69
  -2  -4 -14   -0.45    0.70
   2   4  14    0.08    0.51
   2   4  14    0.26    0.60
   2   4  14    0.22    0.47
  -3  -4 -14    3.11    0.90
  -3  -4 -14    2.19    0.95
  -3  -4 -14    0.71    0.78
   3   4  14    1.49    0.86
   5  -5 -14    1.51    0.88
   5  -5 -14   -1.60    0.57
  -5   5  14    0.51    0.85
  -5   5  14    0.78    0.74
   4  -5 -14    6.00    0.94
   4  -5 -14    4.22    0.74
  -4   5  14    4.03    0.84
  -4   5  14    4.94    0.88
   3  -5 -14    3.80    0.66
   3  -5 -14    4.59    0.77
   3  -5 -14    3.57    0.74
   3  -5 -14    3.86    0.71
  -3   5  14    2.56    0.68
  -3   5  14    3.61    0.73
   2  -5 -14    6.13    0.86
   2  -5 -14    6.40    0.64
   2  -5 -14    5.05    0.76
  -2   5  14    5.33    0.69
  -2   5  14    8.64    0.90
  -2   5  14    5.33    0.73
   1  -5 -14   43.79    1.71
   1  -5 -14   41.51    1.45
  -1   5  14   42.36    1.36
  -1   5  14   42.89    1.31
  -1   5  14   41.59    1.52
   0  -5 -14    5.70    0.91
   0  -5 -14    5.34    0.80
   0   5  14    3.78    0.55
   0   5  14    5.52    0.79
  -1  -5 -14    2.39    0.77
  -1  -5 -14    3.31    0.88
  -1  -5 -14    3.27    0.83
   1   5  14    2.61    0.72
   1   5  14    4.05    0.62
  -2  -5 -14   -0.64    0.73
  -2  -5 -14   -0.86    0.73
  -2  -5 -14   -0.13    0.78
   2   5  14   -0.11    0.52
   2   5  14    0.76    0.74
  -3  -5 -14    3.15    1.17
  -3  -5 -14    2.62    0.83
  -3  -5 -14    2.47    1.02
   3   5  14    3.37    0.90
   4  -6 -14    1.64    0.80
   4  -6 -14    0.44    0.53
  -4   6  14    0.30    0.70
  -4   6  14    0.12    0.62
   3  -6 -14    3.86    0.80
   3  -6 -14    6.55    0.90
   3  -6 -14    4.81    0.75
   3  -6 -14    3.52    0.77
  -3   6  14    3.98    0.86
  -3   6  14    4.21    0.76
  -3   6  14    4.16    0.80
   2  -6 -14    0.90    0.63
   2  -6 -14    0.62    0.53
   2  -6 -14    0.98    0.63
  -2   6  14    0.15    0.54
  -2   6  14   -0.23    0.48
  -2   6  14    1.28    0.54
   1  -6 -14    0.34    0.56
   1  -6 -14    1.40    0.67
  -1   6  14   -0.26    0.51
  -1   6  14    0.79    0.45
   0  -6 -14    9.11    0.98
   0  -6 -14    9.08    1.05
   0   6  14    7.57    0.89
   0   6  14    9.71    0.82
  -1  -6 -14    0.01    0.68
  -1  -6 -14   -0.20    0.63
  -1  -6 -14   -0.87    0.63
   1   6  14    0.32    0.50
  -2  -6 -14    7.40    1.12
  -2  -6 -14    5.86    1.05
  -2  -6 -14    4.56    1.11
   2   6  14    5.07    0.88
   2   6  14    6.28    0.78
   4  -7 -14    0.41    0.80
  -4   7  14    1.34    0.74
  -4   7  14    1.05    0.83
   3  -7 -14    1.48    0.76
   3  -7 -14    1.69    0.72
   3  -7 -14    1.25    0.54
  -3   7  14    1.16    0.77
  -3   7  14    1.74    0.69
  -3   7  14    2.23    0.69
   2  -7 -14   19.54    1.37
  -2   7  14   21.85    1.37
  -2   7  14   21.75    1.18
  -2   7  14   19.55    1.12
   1  -7 -14    3.65    0.76
   1  -7 -14    4.75    0.91
  -1   7  14    5.56    0.84
  -1   7  14    5.24    0.70
   0  -7 -14   -0.41    0.68
   0  -7 -14   -0.08    0.71
   0  -7 -14   -0.19    0.64
   0   7  14    0.22    0.58
   0   7  14    0.10    0.49
  -1  -7 -14    2.12    0.83
  -1  -7 -14    0.72    0.86
  -1  -7 -14    1.02    0.79
   1   7  14    1.59    0.62
   1   7  14    0.37    0.74
  -2  -7 -14    1.08    0.94
  -2  -7 -14    2.58    0.96
  -2  -7 -14    1.54    0.93
   2   7  14    2.51    0.81
   2   7  14    1.51    0.66
   3  -8 -14   -0.22    0.74
  -3   8  14    0.33    0.70
  -3   8  14   -0.77    0.57
  -3   8  14    0.03    0.67
   2  -8 -14    0.37    0.81
  -2   8  14    0.33    0.56
  -2   8  14    0.38    0.68
   1  -8 -14   -0.70    0.68
   1  -8 -14   -0.62    0.59
  -1   8  14    0.41    0.53
  -1   8  14    0.19    0.68
   0  -8 -14    5.37    1.02
   0  -8 -14    6.37    0.94
   0  -8 -14    6.03    1.11
   0   8  14    6.98    0.95
   0   8  14    8.13    0.90
  -1  -8 -14   18.03    1.44
  -1  -8 -14   17.61    1.62
   1   8  14   18.36    1.43
   1   8  14   19.05    1.15
   2  -9 -14    9.92    1.21
  -2   9  14   14.52    1.43
  -2   9  14   11.92    1.16
   1  -9 -14    1.79    0.78
   1  -9 -14    0.99    0.90
  -1   9  14    1.92    0.68
  -1   9  14    1.98    0.80
   0  -9 -14   -0.78    0.76
   0  -9 -14    0.01    0.75
   0   9  14   -0.32    0.55
   0   9  14    1.12    0.73
   1  10 -15   14.57    1.30
  -1 -10  15   15.20    1.42
  -1 -10  15   14.79    1.48
   0  10 -15    0.82    0.61
   0 -10  15   -0.01    0.72
   0 -10  15    0.74    0.83
  -1  10 -15   22.19    1.42
  -1  10 -15   23.94    1.35
   1 -10  15   24.17    1.52
   1 -10  15   24.70    1.64
   2   9 -15    9.79    1.10
  -2  -9  15   10.19    1.25
  -2  -9  15   10.93    1.33
   1   9 -15    2.46    0.69
  -1  -9  15    2.61    0.87
  -1  -9  15    3.52    0.92
   0   9 -15    0.66    0.52
   0   9 -15   -0.02    0.60
   0  -9  15   -0.22    0.73
   0  -9  15    1.60    0.81
  -1   9 -15    2.34    0.60
  -1   9 -15    2.73    0.70
   1  -9  15    2.11    0.80
   1  -9  15    3.10    0.84
  -2   9 -15    3.25    0.87
   2  -9  15    1.02    0.74
   2  -9  15    1.81    0.84
   3   8 -15    1.99    0.75
   3   8 -15   -0.01    0.64
   3   8 -15    0.44    0.73
  -3  -8  15   -0.34    0.75
  -3  -8  15    1.22    0.85
  -3  -8  15    0.73    0.81
   2   8 -15    1.61    0.65
   2   8 -15    3.09    0.71
   2   8 -15    2.82    0.67
  -2  -8  15    1.96    0.84
  -2  -8  15    1.99    0.85
   1   8 -15    0.20    0.53
   1   8 -15    0.15    0.54
  -1  -8  15    0.39    0.77
  -1  -8  15    0.08    0.64
  -1  -8  15   -0.85    0.65
   0   8 -15   12.71    1.00
   0   8 -15   10.79    0.91
   0   8 -15   11.51    0.87
   0  -8  15   10.60    1.05
   0  -8  15   11.32    1.14
   0  -8  15   10.99    1.03
   0  -8  15   11.16    1.16
  -1   8 -15    7.47    0.75
  -1   8 -15    7.51    0.87
   1  -8  15    6.49    0.92
   1  -8  15    8.42    1.04
   1  -8  15    7.18    1.00
   1  -8  15    8.46    0.98
  -2   8 -15    3.13    0.82
   2  -8  15    1.88    0.72
   2  -8  15    2.34    0.80
   2  -8  15    1.79    0.79
  -3   8 -15    4.40    0.89
  -3   8 -15    3.22    0.79
   3  -8  15    5.52    1.05
   3  -8  15    2.45    0.90
   3   7 -15    0.45    0.62
   3   7 -15   -0.19    0.65
   3   7 -15    0.68    0.65
  -3  -7  15    0.95    0.74
  -3  -7  15   -0.17    0.61
  -3  -7  15   -0.73    0.69
   2   7 -15   -0.23    0.50
   2   7 -15   -0.22    0.48
   2   7 -15   -0.43    0.51
  -2  -7  15    0.09    0.68
  -2  -7  15   -0.68    0.60
  -2  -7  15    0.75    0.72
   1   7 -15    1.63    0.54
   1   7 -15    0.62    0.53
  -1  -7  15    1.31    0.68
  -1  -7  15    1.21    0.64
  -1  -7  15    0.46    0.66
   0   7 -15    0.54    0.47
   0   7 -15    0.68    0.44
   0  -7  15    0.51    0.47
   0  -7  15   -0.12    0.57
   0  -7  15   -0.23    0.52
   0  -7  15    0.85    0.67
  -1   7 -15    1.70    0.63
  -1   7 -15    1.68    0.49
   1  -7  15    1.81    0.62
   1  -7  15    0.14    0.64
   1  -7  15    1.81    0.75
   1  -7  15    0.61    0.58
   1  -7  15    0.61    0.80
  -2   7 -15    2.73    0.72
  -2   7 -15    2.59    0.59
   2  -7  15    5.27    0.91
   2  -7  15    2.48    0.74
   2  -7  15    4.29    0.86
   2  -7  15    3.69    0.84
   2  -7  15    3.31    0.73
  -3   7 -15    1.75    0.76
  -3   7 -15    2.68    0.71
   3  -7  15    1.94    0.79
   3  -7  15    1.39    0.80
   3  -7  15    2.09    0.75
   4   6 -15    5.13    0.92
   4   6 -15    4.87    0.88
   4   6 -15    5.24    0.97
  -4  -6  15    6.98    1.08
   3   6 -15    1.03    0.65
   3   6 -15   -0.89    0.55
   3   6 -15    0.56    0.70
   3   6 -15   -0.21    0.52
  -3  -6  15   -0.50    0.49
  -3  -6  15    1.16    0.81
  -3  -6  15    0.35    0.70
   2   6 -15   -0.58    0.45
   2   6 -15   -0.46    0.50
   2   6 -15   -0.22    0.48
   2   6 -15    0.41    0.50
  -2  -6  15   -0.24    0.62
  -2  -6  15    0.59    0.64
  -2  -6  15    0.63    0.58
   1   6 -15    3.09    0.63
   1   6 -15    2.20    0.57
   1   6 -15    2.79    0.47
   1   6 -15    2.17    0.46
  -1  -6  15    1.60    0.65
  -1  -6  15    2.66    0.59
  -1  -6  15    2.15    0.69
   0   6 -15    0.63    0.49
   0   6 -15   -0.77    0.36
   0  -6  15    0.22    0.41
   0  -6  15    0.88    0.50
   0  -6  15   -0.02    0.48
   0  -6  15    0.25    0.58
   0  -6  15    0.93    0.64
  -1   6 -15    1.37    0.55
  -1   6 -15    2.06    0.47
  -1   6 -15    2.58    0.44
   1  -6  15    1.18    0.56
   1  -6  15    2.18    0.65
   1  -6  15    1.66    0.64
   1  -6  15    2.82    0.73
   1  -6  15    2.61    0.69
  -2   6 -15    6.46    0.85
  -2   6 -15    7.82    0.79
   2  -6  15    7.32    1.00
   2  -6  15    8.14    1.02
   2  -6  15    6.78    0.91
   2  -6  15    8.19    0.96
   2  -6  15    7.46    0.92
  -3   6 -15    7.11    0.86
  -3   6 -15    5.77    0.97
   3  -6  15    5.95    0.97
   3  -6  15    4.49    0.94
   3  -6  15    4.62    0.97
  -4   6 -15    1.59    0.72
  -4   6 -15    1.58    0.84
   4  -6  15    1.46    0.77
   4  -6  15    1.50    0.92
   4  -6  15    2.93    0.91
   4   5 -15    8.85    1.04
   4   5 -15    7.66    1.06
   4   5 -15    7.47    1.02
  -4  -5  15    7.28    1.04
  -4  -5  15    6.64    1.03
  -4  -5  15    8.59    0.93
  -4  -5  15    6.44    1.04
   3   5 -15    3.26    0.66
   3   5 -15    2.60    0.70
   3   5 -15    3.51    0.68
   3   5 -15    3.58    0.74
  -3  -5  15    3.53    0.83
  -3  -5  15    3.38    0.66
  -3  -5  15    4.14    0.84
   2   5 -15    1.00    0.57
   2   5 -15    0.87    0.55
   2   5 -15    0.62    0.45
   2   5 -15    1.29    0.51
  -2  -5  15    0.47    0.56
  -2  -5  15    1.95    0.58
  -2  -5  15    0.21    0.59
   1   5 -15    0.03    0.35
   1   5 -15    0.26    0.34
   1   5 -15   -0.14    0.41
  -1  -5  15    0.34    0.54
  -1  -5  15    0.05    0.55
  -1  -5  15    0.32    0.48
   0   5 -15    0.15    0.45
   0  -5  15    0.26    0.53
   0  -5  15   -0.06    0.41
   0  -5  15    0.31    0.47
   0  -5  15    0.62    0.51
   0  -5  15    0.06    0.44
  -1   5 -15    7.26    0.56
  -1   5 -15    7.65    0.68
  -1   5 -15    5.76    0.55
   1  -5  15    5.85    0.78
   1  -5  15    5.60    0.70
   1  -5  15    5.13    0.79
   1  -5  15    5.77    0.83
   1  -5  15    7.02    0.87
  -2   5 -15    0.28    0.40
  -2   5 -15   -0.19    0.42
  -2   5 -15    0.36    0.53
   2  -5  15   -0.26    0.59
   2  -5  15   -0.29    0.61
   2  -5  15   -0.53    0.44
   2  -5  15    0.42    0.57
   2  -5  15    0.49    0.60
  -3   5 -15    0.68    0.55
  -3   5 -15   -0.16    0.61
   3  -5  15   -0.78    0.66
   3  -5  15    0.64    0.69
   3  -5  15    0.22    0.70
   3  -5  15    1.48    0.66
   3  -5  15    1.59    0.61
  -4   5 -15    1.41    0.74
  -4   5 -15    0.13    0.68
   4  -5  15    0.05    0.97
   4  -5  15    1.55    0.76
   4  -5  15    1.31    0.78
   4   4 -15   15.99    1.25
   4   4 -15   17.88    1.28
   4   4 -15   18.71    1.28
   4   4 -15   18.15    1.37
  -4  -4  15   14.42    1.31
  -4  -4  15   15.86    1.17
  -4  -4  15   18.30    1.41
   3   4 -15    1.03    0.60
   3   4 -15    1.21    0.61
   3   4 -15    0.30    0.56
   3   4 -15    0.20    0.53
  -3  -4  15    1.49    0.64
  -3  -4  15    0.46    0.47
  -3  -4  15    0.73    0.69
   2   4 -15    2.67    0.54
   2   4 -15    1.79    0.59
   2   4 -15    2.57    0.52
  -2  -4  15    0.63    0.55
  -2  -4  15    1.87    0.66
  -2  -4  15    2.16    0.53
   1   4 -15    8.54    0.64
   1   4 -15    8.97    0.87
   1   4 -15    7.87    0.77
   1   4 -15    8.71    0.60
  -1  -4  15    7.35    0.82
  -1  -4  15    7.16    0.67
  -1  -4  15    8.81    0.84
   0   4 -15    2.56    0.55
   0   4 -15    3.62    0.67
   0  -4  15    3.23    0.63
   0  -4  15    3.73    0.56
   0  -4  15    3.71    0.68
   0  -4  15    2.85    0.66
   0  -4  15    3.72    0.66
  -1   4 -15    0.80    0.46
  -1   4 -15    0.69    0.33
  -1   4 -15    1.03    0.54
   1  -4  15    1.75    0.56
   1  -4  15    0.12    0.54
   1  -4  15    0.65    0.48
   1  -4  15    1.06    0.58
   1  -4  15    1.07    0.52
  -2   4 -15    1.13    0.60
  -2   4 -15    1.99    0.46
  -2   4 -15    1.09    0.46
   2  -4  15    0.92    0.60
   2  -4  15    1.22    0.61
   2  -4  15    1.51    0.58
   2  -4  15    0.61    0.64
   2  -4  15    1.28    0.62
  -3   4 -15   -0.73    0.51
   3  -4  15    1.04    0.74
   3  -4  15    1.39    0.71
   3  -4  15   -0.40    0.52
   3  -4  15    0.65    0.75
  -4   4 -15    1.80    0.73
  -4   4 -15   -0.21    0.61
   4  -4  15   -0.80    0.77
   4  -4  15    0.02    0.73
   4  -4  15    0.56    0.66
   5   3 -15    5.75    1.14
   5   3 -15    5.11    0.95
   5   3 -15    4.10    1.01
   4   3 -15    3.51    0.76
   4   3 -15    3.03    0.78
   4   3 -15    1.88    0.68
   4   3 -15    2.06    0.73
  -4  -3  15    1.95    0.61
  -4  -3  15    2.06    0.74
  -4  -3  15   -0.01    0.70
   3   3 -15    0.20    0.55
   3   3 -15    0.63    0.59
   3   3 -15   -0.23    0.43
   3   3 -15    0.47    0.50
  -3  -3  15    0.58    0.61
  -3  -3  15    0.80    0.41
  -3  -3  15    0.37    0.57
   2   3 -15    4.33    0.67
   2   3 -15    3.44    0.57
   2   3 -15    4.56    0.67
   2   3 -15    3.99    0.57
  -2  -3  15    4.21    0.54
  -2  -3  15    4.60    0.72
  -2  -3  15    3.28    0.67
   1   3 -15    9.23    0.88
   1   3 -15   10.47    0.64
   1   3 -15   10.27    0.68
   1   3 -15    9.44    0.80
  -1  -3  15   10.55    0.84
  -1  -3  15   11.45    0.70
  -1  -3  15   10.70    0.91
   0   3 -15    0.16    0.24
   0   3 -15    0.29    0.22
   0   3 -15   -0.43    0.42
   0   3 -15   -0.20    0.49
   0  -3  15    0.43    0.47
   0  -3  15    0.14    0.41
   0  -3  15    0.84    0.55
   0  -3  15    0.38    0.36
   0  -3  15    0.02    0.45
  -1   3 -15   -0.62    0.39
  -1   3 -15   -0.04    0.51
  -1   3 -15    0.01    0.30
   1  -3  15    0.58    0.50
   1  -3  15   -0.34    0.54
   1  -3  15   -0.48    0.37
   1  -3  15    0.06    0.47
   1  -3  15    1.05    0.57
  -2   3 -15    6.39    0.84
  -2   3 -15    6.44    0.67
   2  -3  15    5.42    0.80
   2  -3  15    6.60    0.77
   2  -3  15    7.02    0.87
   2  -3  15    7.68    0.97
  -3   3 -15    0.11    0.49
  -3   3 -15   -0.91    0.54
   3  -3  15   -0.70    0.68
   3  -3  15    0.87    0.67
   3  -3  15    0.29    0.58
   3  -3  15   -0.70    0.66
  -4   3 -15    0.79    0.76
   4  -3  15   -0.59    0.85
   4  -3  15    0.60    0.67
   4  -3  15   -0.45    0.68
   5   2 -15   18.67    1.49
   5   2 -15   14.95    1.32
   5   2 -15   17.88    1.35
   4   2 -15   37.73    1.67
   4   2 -15   37.59    1.70
   4   2 -15   38.46    1.62
   4   2 -15   35.33    1.58
  -4  -2  15   35.39    1.55
  -4  -2  15   35.51    1.57
   3   2 -15    1.62    0.54
   3   2 -15    1.60    0.57
   3   2 -15    1.60    0.59
   3   2 -15    1.42    0.49
  -3  -2  15    1.59    0.62
  -3  -2  15    0.80    0.57
   2   2 -15    0.88    0.52
   2   2 -15   -0.66    0.39
   2   2 -15    0.13    0.38
   2   2 -15   -0.65    0.41
  -2  -2  15    0.40    0.30
  -2  -2  15    0.43    0.46
  -2  -2  15   -0.49    0.46
   1   2 -15   51.77    1.56
   1   2 -15   50.64    1.69
   1   2 -15   52.93    1.37
   1   2 -15   51.83    1.37
  -1  -2  15   49.88    1.58
  -1  -2  15   51.11    1.24
  -1  -2  15   49.88    1.47
  -1  -2  15   49.25    1.22
   0   2 -15   22.97    0.77
   0   2 -15   19.58    1.12
   0   2 -15   21.00    0.75
   0   2 -15   21.91    1.01
   0  -2  15   19.83    1.04
   0  -2  15   21.27    0.92
   0  -2  15   20.44    1.06
   0  -2  15   21.66    0.80
   0  -2  15   21.27    1.14
  -1   2 -15    9.89    0.60
  -1   2 -15   11.61    0.98
   1  -2  15   11.69    0.70
   1  -2  15   10.91    0.94
   1  -2  15    9.34    0.86
   1  -2  15   10.59    0.80
   1  -2  15   11.50    0.99
  -2   2 -15    3.52    0.69
  -2   2 -15    3.12    0.55
   2  -2  15    2.51    0.56
   2  -2  15    3.62    0.76
   2  -2  15    3.07    0.75
   2  -2  15    2.95    0.74
  -3   2 -15    3.76    0.76
  -3   2 -15    3.46    0.73
   3  -2  15    2.31    0.63
   3  -2  15    2.62    0.82
   3  -2  15    3.03    0.90
   3  -2  15    3.01    0.78
  -4   2 -15    2.50    0.84
  -4   2 -15    2.98    0.75
   4  -2  15    0.68    0.93
   4  -2  15    2.91    0.76
   5   1 -15    1.09    0.71
   5   1 -15    3.39    0.92
   5   1 -15    1.96    0.79
  -5  -1  15    0.95    0.78
   4   1 -15    0.63    0.67
   4   1 -15   -0.01    0.52
   4   1 -15   -0.40    0.57
   4   1 -15    0.07    0.55
  -4  -1  15    1.04    0.60
  -4  -1  15    0.75    0.56
   3   1 -15   -0.41    0.43
   3   1 -15    0.42    0.45
   3   1 -15   -0.24    0.48
   3   1 -15    0.21    0.52
  -3  -1  15   -0.18    0.43
  -3  -1  15    0.18    0.49
   2   1 -15    2.57    0.50
   2   1 -15    2.42    0.60
   2   1 -15    2.05    0.54
   2   1 -15    2.06    0.48
  -2  -1  15    2.32    0.38
  -2  -1  15    2.45    0.54
  -2  -1  15    1.67    0.54
   1   1 -15    1.34    0.42
   1   1 -15    1.89    0.43
   1   1 -15    1.87    0.50
   1   1 -15    1.14    0.53
  -1  -1  15    1.50    0.27
  -1  -1  15    1.87    0.54
  -1  -1  15    2.12    0.47
  -1  -1  15    2.08    0.41
   0   1 -15    0.03    0.22
   0   1 -15    0.46    0.49
   0   1 -15    0.04    0.28
   0   1 -15    0.48    0.30
   0   1 -15    0.12    0.41
   0  -1  15   -0.25    0.44
   0  -1  15    0.18    0.24
   0  -1  15    0.41    0.36
   0  -1  15    0.37    0.48
   0  -1  15   -0.05    0.46
  -1   1 -15    1.44    0.32
  -1   1 -15    1.59    0.31
  -1   1 -15    0.64    0.60
   1  -1  15    1.24    0.63
   1  -1  15    1.31    0.57
   1  -1  15    1.40    0.41
   1  -1  15    1.40    0.55
   1  -1  15    1.20    0.35
  -2   1 -15    7.52    0.88
   2  -1  15    6.46    0.89
   2  -1  15    7.27    0.93
   2  -1  15    7.13    0.90
   2  -1  15    6.30    0.65
  -3   1 -15    1.57    0.70
   3  -1  15    1.09    0.76
   3  -1  15    0.42    0.48
   3  -1  15    0.59    0.79
  -4   1 -15    4.03    0.85
  -4   1 -15    3.54    0.75
   4  -1  15    4.16    0.75
   4  -1  15    0.96    0.92
   5   0 -15   27.40    1.59
   5   0 -15   27.92    1.58
   5   0 -15   27.22    1.63
  -5   0  15   30.35    1.81
   4   0 -15    6.45    0.87
   4   0 -15    6.36    0.84
   4   0 -15    6.72    0.94
   4   0 -15    5.41    0.81
  -4   0  15    7.18    0.87
   3   0 -15    2.13    0.57
   3   0 -15    1.17    0.55
   3   0 -15    1.66    0.53
   3   0 -15    2.16    0.54
  -3   0  15    1.79    0.57
  -3   0  15    1.78    0.42
  -3   0  15    1.50    0.49
   2   0 -15    1.40    0.56
   2   0 -15    1.43    0.44
   2   0 -15    1.60    0.52
   2   0 -15    2.36    0.54
  -2   0  15    2.56    0.55
  -2   0  15    1.67    0.42
  -2   0  15    1.86    0.45
   1   0 -15    1.14    0.38
   1   0 -15    1.22    0.42
   1   0 -15    1.38    0.50
   1   0 -15    1.86    0.50
  -1   0  15    1.44    0.40
  -1   0  15    1.15    0.45
  -1   0  15    0.88    0.38
   0   0 -15   17.61    0.77
   0   0 -15   17.62    0.79
   0   0 -15   19.62    0.94
   0   0 -15   17.44    1.04
   0   0  15   18.14    0.95
   0   0  15   18.03    1.07
   0   0  15   17.89    0.59
   0   0  15   17.14    1.05
   0   0  15   18.70    0.73
  -1   0 -15   11.16    1.02
  -1   0 -15   12.72    1.02
   1   0  15   12.45    0.65
   1   0  15   13.85    1.03
   1   0  15   11.70    1.06
   1   0  15   11.47    0.86
  -2   0 -15    4.39    0.84
  -2   0 -15    5.26    0.78
   2   0  15    5.39    0.80
   2   0  15    5.42    0.83
   2   0  15    6.07    0.88
   2   0  15    5.67    0.58
  -3   0 -15    4.00    0.83
  -3   0 -15    3.76    0.85
   3   0  15    3.35    0.93
   3   0  15    2.87    0.82
  -4   0 -15    6.57    0.90
   4   0  15    7.70    1.28
   5  -1 -15   -0.23    0.68
   5  -1 -15    0.79    0.71
   5  -1 -15   -0.20    0.60
  -5   1  15    0.23    0.81
   4  -1 -15    1.10    0.64
   4  -1 -15    0.18    0.55
   4  -1 -15   -0.63    0.54
   4  -1 -15   -0.03    0.63
  -4   1  15    0.54    0.65
  -4   1  15    0.33    0.50
   3  -1 -15   -0.07    0.44
   3  -1 -15    0.29    0.49
   3  -1 -15    0.47    0.49
   3  -1 -15    0.13    0.46
  -3   1  15   -0.05    0.43
  -3   1  15   -0.69    0.35
   2  -1 -15    1.00    0.45
   2  -1 -15    1.29    0.48
   2  -1 -15    0.76    0.49
   2  -1 -15    1.14    0.55
  -2   1  15    0.74    0.36
  -2   1  15    1.70    0.44
  -2   1  15    0.64    0.44
   1  -1 -15    2.96    0.58
   1  -1 -15    4.01    0.53
   1  -1 -15    2.85    0.61
   1  -1 -15    3.59    0.54
   1  -1 -15    3.64    0.50
  -1   1  15    3.24    0.38
  -1   1  15    2.72    0.52
  -1   1  15    2.42    0.50
   0  -1 -15    0.46    0.39
   0  -1 -15    0.64    0.51
   0   1  15    0.28    0.25
   0   1  15    0.12    0.41
   0   1  15    0.76    0.54
  -1  -1 -15    3.69    0.71
  -1  -1 -15    2.80    0.67
   1   1  15    3.51    0.71
   1   1  15    2.96    0.63
   1   1  15    3.79    0.69
  -2  -1 -15    2.32    0.68
  -2  -1 -15    1.82    0.63
   2   1  15    3.01    0.77
   2   1  15    2.72    0.69
  -3  -1 -15   14.17    1.22
  -3  -1 -15   14.27    1.29
   3   1  15   12.32    1.17
   3   1  15   12.12    1.23
  -4  -1 -15    4.34    1.04
  -4  -1 -15    3.22    1.13
   4   1  15    3.51    1.12
   5  -2 -15   21.33    1.46
   5  -2 -15   20.23    1.39
   5  -2 -15   19.81    1.44
  -5   2  15   24.13    1.70
   4  -2 -15    6.51    0.88
   4  -2 -15    7.54    0.92
   4  -2 -15    6.85    0.95
  -4   2  15    6.94    0.95
  -4   2  15    5.54    0.71
   3  -2 -15    2.37    0.61
   3  -2 -15    1.97    0.58
   3  -2 -15    2.78    0.59
   3  -2 -15    2.40    0.68
  -3   2  15    2.65    0.50
  -3   2  15    1.84    0.52
  -3   2  15    2.15    0.70
   2  -2 -15   -0.03    0.42
   2  -2 -15    0.21    0.43
   2  -2 -15   -0.31    0.46
   2  -2 -15    0.59    0.48
  -2   2  15    0.42    0.39
  -2   2  15   -0.60    0.50
  -2   2  15   -0.49    0.36
   1  -2 -15    7.27    0.70
   1  -2 -15    8.07    0.68
   1  -2 -15    7.25    0.74
   1  -2 -15    8.52    0.92
  -1   2  15    8.38    0.74
  -1   2  15    7.47    0.68
  -1   2  15    8.18    0.55
   0  -2 -15    3.70    0.72
   0  -2 -15    3.54    0.58
   0   2  15    3.17    0.52
   0   2  15    3.65    0.69
   0   2  15    2.91    0.38
  -1  -2 -15    1.89    0.60
  -1  -2 -15    2.70    0.68
   1   2  15    2.04    0.53
   1   2  15    2.52    0.63
   1   2  15    2.50    0.40
   1   2  15    3.20    0.69
  -2  -2 -15    6.53    0.96
  -2  -2 -15    7.05    0.96
   2   2  15    5.52    0.82
   2   2  15    6.20    0.98
  -3  -2 -15    2.75    0.91
  -3  -2 -15    1.71    0.75
   3   2  15    1.40    0.80
   3   2  15    1.96    0.74
  -4  -2 -15   -0.17    0.91
   4   2  15   -0.42    0.87
   5  -3 -15    7.61    1.09
   5  -3 -15    9.08    1.04
   5  -3 -15    6.86    1.00
  -5   3  15    8.62    1.12
   4  -3 -15    5.06    0.88
   4  -3 -15    5.18    0.89
   4  -3 -15    4.75    0.76
  -4   3  15    4.90    0.77
  -4   3  15    3.89    0.83
   3  -3 -15    0.68    0.51
   3  -3 -15    1.47    0.59
   3  -3 -15    0.17    0.53
   3  -3 -15    0.20    0.59
  -3   3  15    0.65    0.57
  -3   3  15    0.74    0.54
   2  -3 -15    8.08    0.83
   2  -3 -15    6.97    0.89
   2  -3 -15    7.03    0.79
   2  -3 -15    6.68    0.79
  -2   3  15    6.95    0.65
  -2   3  15    5.78    0.70
  -2   3  15    8.02    0.62
  -2   3  15    6.17    0.71
   1  -3 -15    0.05    0.41
   1  -3 -15   -0.50    0.48
   1  -3 -15    0.03    0.42
  -1   3  15    0.04    0.33
  -1   3  15   -0.15    0.48
  -1   3  15   -0.10    0.35
  -1   3  15   -0.63    0.39
   0  -3 -15   -0.38    0.56
   0  -3 -15    1.25    0.55
   0   3  15    0.40    0.42
   0   3  15   -0.13    0.32
   0   3  15    0.48    0.33
  -1  -3 -15   -0.40    0.56
  -1  -3 -15    0.01    0.59
   1   3  15    0.20    0.55
   1   3  15    0.33    0.49
   1   3  15    0.41    0.38
   1   3  15    0.78    0.50
  -2  -3 -15    1.44    0.70
  -2  -3 -15    0.90    0.69
   2   3  15    0.82    0.67
   2   3  15    1.54    0.61
   2   3  15    0.78    0.46
  -3  -3 -15    0.55    0.78
  -3  -3 -15    1.15    0.90
   3   3  15    1.29    0.65
   3   3  15   -0.01    0.73
   5  -4 -15    5.97    0.89
   5  -4 -15    4.70    0.92
   5  -4 -15    4.38    0.96
  -5   4  15    5.14    0.88
  -5   4  15    4.33    0.99
   4  -4 -15    4.68    0.85
   4  -4 -15    4.07    0.72
  -4   4  15    5.12    0.98
  -4   4  15    4.18    0.79
   3  -4 -15    0.24    0.58
   3  -4 -15    1.15    0.60
   3  -4 -15    1.23    0.55
   3  -4 -15    0.97    0.60
  -3   4  15    1.36    0.70
  -3   4  15    1.33    0.63
   2  -4 -15    1.07    0.52
   2  -4 -15    0.16    0.54
   2  -4 -15    0.61    0.62
   2  -4 -15    0.85    0.51
  -2   4  15    1.04    0.45
  -2   4  15    0.95    0.52
  -2   4  15    0.22    0.52
   1  -4 -15   -0.17    0.55
   1  -4 -15    0.83    0.47
  -1   4  15    1.27    0.45
  -1   4  15   -0.43    0.39
  -1   4  15    0.16    0.49
   0  -4 -15    6.21    0.94
   0  -4 -15    4.64    0.74
   0   4  15    5.97    0.62
   0   4  15    4.28    0.55
  -1  -4 -15    1.19    0.63
  -1  -4 -15    0.95    0.68
   1   4  15    1.18    0.67
   1   4  15    1.24    0.50
   1   4  15    1.80    0.47
  -2  -4 -15   -0.38    0.71
  -2  -4 -15    1.17    0.73
   2   4  15    1.10    0.62
   2   4  15    1.25    0.80
   2   4  15   -0.38    0.45
  -3  -4 -15    1.81    0.95
  -3  -4 -15    0.03    0.78
   3   4  15    1.34    0.79
   4  -5 -15    2.27    0.67
   4  -5 -15    1.04    0.71
  -4   5  15    2.26    0.75
  -4   5  15    2.49    0.88
   3  -5 -15    9.55    0.93
   3  -5 -15   10.00    1.05
   3  -5 -15   10.15    1.03
   3  -5 -15    5.69    0.87
  -3   5  15    9.12    0.99
  -3   5  15    9.35    1.03
   2  -5 -15   -0.09    0.58
   2  -5 -15    0.41    0.52
   2  -5 -15    0.31    0.57
  -2   5  15   -0.19    0.46
  -2   5  15    0.87    0.55
  -2   5  15    0.37    0.53
   1  -5 -15   -0.09    0.48
   1  -5 -15    0.34    0.62
  -1   5  15   -0.61    0.38
  -1   5  15    0.41    0.44
  -1   5  15    0.03    0.52
   0  -5 -15   35.25    1.58
   0  -5 -15   35.57    1.65
   0   5  15   35.44    1.22
   0   5  15   35.28    1.55
  -1  -5 -15    9.95    1.12
  -1  -5 -15    8.98    1.01
   1   5  15    9.30    0.82
   1   5  15    9.18    0.80
   1   5  15    9.41    1.12
  -2  -5 -15    2.59    0.87
  -2  -5 -15    2.94    0.95
  -2  -5 -15    1.93    0.99
   2   5  15    2.78    0.62
   2   5  15    1.89    0.87
  -3  -5 -15    0.28    0.85
  -3  -5 -15   -0.02    0.82
  -3  -5 -15    0.75    0.99
   3   5  15    1.08    0.62
   3   5  15   -0.32    0.71
   4  -6 -15    5.21    0.79
   4  -6 -15    4.92    0.93
  -4   6  15    5.42    0.91
  -4   6  15    5.30    1.01
   3  -6 -15    0.89    0.68
   3  -6 -15    2.12    0.61
   3  -6 -15    0.97    0.68
  -3   6  15    2.88    0.77
  -3   6  15    1.25    0.67
  -3   6  15    0.57    0.56
   2  -6 -15    2.05    0.75
   2  -6 -15    1.84    0.69
  -2   6  15    3.87    0.77
  -2   6  15    2.30    0.63
  -2   6  15    3.23    0.61
   1  -6 -15    4.99    0.96
   1  -6 -15    5.03    0.76
  -1   6  15    5.34    0.70
  -1   6  15    5.71    0.84
   0  -6 -15    0.86    0.78
   0  -6 -15    0.90    0.71
   0   6  15    0.35    0.44
   0   6  15    0.24    0.57
  -1  -6 -15    2.94    0.88
  -1  -6 -15    4.41    0.94
  -1  -6 -15    6.17    1.07
   1   6  15    4.86    0.70
  -2  -6 -15    3.30    1.01
  -2  -6 -15    1.18    0.93
  -2  -6 -15    2.78    1.09
   2   6  15    3.32    0.86
   2   6  15    1.86    0.63
   4  -7 -15    3.15    0.97
  -4   7  15    4.04    0.89
  -4   7  15    3.00    0.84
   3  -7 -15   -0.04    0.59
   3  -7 -15    0.15    0.65
   3  -7 -15    0.41    0.78
  -3   7  15   -0.56    0.61
  -3   7  15   -0.51    0.65
  -3   7  15   -0.40    0.55
   2  -7 -15    0.78    0.81
  -2   7  15    2.03    0.72
  -2   7  15    1.88    0.61
  -2   7  15    1.80    0.68
   1  -7 -15   16.88    1.28
   1  -7 -15   14.15    1.36
  -1   7  15   15.67    1.27
  -1   7  15   13.98    1.08
   0  -7 -15    0.18    0.76
   0  -7 -15   -0.16    0.70
   0   7  15    0.15    0.63
   0   7  15    0.27    0.56
  -1  -7 -15   17.58    1.54
  -1  -7 -15   17.86    1.42
  -1  -7 -15   16.44    1.48
   1   7  15   13.13    1.23
   1   7  15   15.77    1.08
   3  -8 -15   -0.71    0.72
  -3   8  15    0.16    0.66
  -3   8  15    1.15    0.68
  -3   8  15    0.66    0.73
   2  -8 -15    0.06    0.79
  -2   8  15    0.31    0.62
  -2   8  15   -0.13    0.74
   1  -8 -15    3.08    0.81
   1  -8 -15    3.68    1.02
  -1   8  15    3.10    0.67
  -1   8  15    4.27    0.96
   0  -8 -15   -0.49    0.71
   0  -8 -15    0.33    0.79
   0   8  15    0.06    0.59
   0   8  15    0.62    0.68
   1   9 -16    9.40    0.99
  -1  -9  16   11.53    1.41
  -1  -9  16   10.72    1.22
   0   9 -16    6.55    0.83
   0   9 -16    8.60    0.97
   0  -9  16    7.35    1.05
   0  -9  16    6.20    1.07
  -1   9 -16   11.15    1.09
   1  -9  16    8.23    1.15
   1  -9  16   11.63    1.24
  -2   9 -16    1.29    0.80
   2  -9  16    2.36    0.92
   2  -9  16    1.47    0.88
   2   8 -16    6.70    1.24
   2   8 -16    5.11    0.82
   2   8 -16    5.95    0.92
  -2  -8  16    5.74    1.06
  -2  -8  16    4.83    1.00
   1   8 -16    1.14    0.56
  -1  -8  16    2.36    0.85
  -1  -8  16    0.88    0.63
  -1  -8  16    1.86    0.81
   0   8 -16    8.15    0.83
   0   8 -16    6.73    0.80
   0  -8  16    6.28    0.99
   0  -8  16    7.52    1.05
   0  -8  16    6.39    0.89
  -1   8 -16    3.96    0.78
   1  -8  16    4.31    0.90
   1  -8  16    1.78    0.80
   1  -8  16    4.51    1.22
   1  -8  16    4.03    0.73
  -2   8 -16    0.00    0.72
   2  -8  16   -0.92    0.68
   2  -8  16    0.53    0.74
   3   7 -16   -0.44    0.62
   3   7 -16   -0.25    0.57
   3   7 -16   -0.75    0.57
  -3  -7  16    0.34    0.83
  -3  -7  16    0.11    0.75
   2   7 -16   -0.28    0.55
   2   7 -16   -0.50    0.47
   2   7 -16    0.13    0.55
  -2  -7  16   -0.62    0.50
  -2  -7  16   -0.27    0.75
  -2  -7  16    0.14    0.72
   1   7 -16   -0.67    0.51
   1   7 -16    0.00    0.51
  -1  -7  16   -0.54    0.70
  -1  -7  16   -0.75    0.63
  -1  -7  16    0.12    0.59
   0   7 -16    0.86    0.52
   0   7 -16    0.95    0.54
   0  -7  16    1.16    0.60
   0  -7  16    0.40    0.68
   0  -7  16    1.54    0.71
   0  -7  16    1.48    0.63
  -1   7 -16   -0.63    0.52
   1  -7  16   -0.25    0.58
   1  -7  16   -0.18    0.62
   1  -7  16   -0.63    0.67
   1  -7  16   -0.39    0.53
  -2   7 -16   -0.23    0.57
   2  -7  16    0.90    0.71
   2  -7  16    1.51    0.74
   2  -7  16    2.90    0.84
   2  -7  16    0.61    0.62
   2  -7  16    0.68    0.65
  -3   7 -16    1.70    0.66
  -3   7 -16    2.62    0.80
   3  -7  16    2.57    0.97
   3  -7  16    1.46    0.88
   3  -7  16    2.08    0.88
   4   6 -16    0.52    0.77
   4   6 -16    1.02    0.76
   4   6 -16    0.01    0.66
  -4  -6  16    0.88    0.80
  -4  -6  16    0.87    0.80
  -4  -6  16    0.31    0.82
   3   6 -16   -0.82    0.56
   3   6 -16   -0.31    0.54
   3   6 -16    0.60    0.67
   3   6 -16    0.65    0.67
  -3  -6  16   -0.22    0.68
  -3  -6  16   -0.17    0.71
  -3  -6  16   -0.28    0.56
   2   6 -16    0.33    0.62
   2   6 -16   -0.82    0.50
   2   6 -16   -0.39    0.45
  -2  -6  16   -1.31    0.51
  -2  -6  16    0.05    0.62
  -2  -6  16   -0.99    0.61
   1   6 -16    1.74    0.47
   1   6 -16    2.36    0.61
  -1  -6  16    1.74    0.56
  -1  -6  16    2.87    0.81
  -1  -6  16    0.62    0.65
   0   6 -16   -0.49    0.45
   0   6 -16   -0.36    0.40
   0  -6  16   -0.23    0.55
   0  -6  16   -0.15    0.47
   0  -6  16    0.31    0.52
   0  -6  16    0.21    0.63
  -1   6 -16    4.07    0.69
  -1   6 -16    4.99    0.63
   1  -6  16    5.86    0.94
   1  -6  16    6.86    0.81
   1  -6  16    3.39    0.72
   1  -6  16    5.07    0.81
   1  -6  16    6.28    0.94
  -2   6 -16   -0.24    0.57
   2  -6  16    0.45    0.71
   2  -6  16    0.33    0.76
   2  -6  16   -0.29    0.54
   2  -6  16    0.77    0.70
   2  -6  16   -0.62    0.61
  -3   6 -16    0.84    0.56
  -3   6 -16    1.09    0.70
   3  -6  16    0.50    0.81
   3  -6  16    2.20    0.85
   3  -6  16    1.12    0.82
   4   5 -16    2.76    0.83
   4   5 -16    0.46    0.65
   4   5 -16    0.82    0.77
  -4  -5  16    1.62    0.79
  -4  -5  16    1.82    0.82
  -4  -5  16    2.31    0.95
   3   5 -16    2.04    0.72
   3   5 -16    2.21    0.64
   3   5 -16    3.91    0.78
   3   5 -16    2.99    0.77
  -3  -5  16    2.35    0.64
  -3  -5  16    3.13    0.85
  -3  -5  16    2.85    0.86
   2   5 -16    0.88    0.44
   2   5 -16    1.20    0.60
   2   5 -16   -0.05    0.62
   2   5 -16    0.02    0.40
  -2  -5  16    0.38    0.65
  -2  -5  16    2.17    0.68
  -2  -5  16    0.83    0.54
   1   5 -16    2.82    0.66
   1   5 -16    2.03    0.46
   1   5 -16    1.66    0.43
  -1  -5  16    2.27    0.69
  -1  -5  16    1.72    0.55
  -1  -5  16    2.08    0.66
   0   5 -16    5.70    0.72
   0  -5  16    6.78    0.78
   0  -5  16    7.18    0.83
   0  -5  16    5.90    0.73
   0  -5  16    7.31    0.90
   0  -5  16    6.88    0.87
  -1   5 -16   -0.14    0.41
   1  -5  16   -0.01    0.45
   1  -5  16    1.06    0.68
   1  -5  16   -0.14    0.54
   1  -5  16   -0.65    0.61
   1  -5  16   -0.90    0.49
  -2   5 -16   -0.27    0.55
  -2   5 -16    0.65    0.45
   2  -5  16    0.90    0.68
   2  -5  16    0.68    0.70
   2  -5  16   -1.43    0.67
   2  -5  16   -0.26    0.69
   2  -5  16   -0.05    0.54
  -3   5 -16   -0.14    0.54
  -3   5 -16   -1.01    0.66
   3  -5  16   -0.37    0.70
   3  -5  16   -0.43    0.59
   3  -5  16   -0.05    0.70
   3  -5  16    1.35    0.68
   4   4 -16    6.31    1.00
   4   4 -16    6.36    0.91
   4   4 -16    5.70    0.94
   4   4 -16    5.87    0.98
  -4  -4  16    5.99    1.05
  -4  -4  16    5.29    0.99
  -4  -4  16    5.25    0.91
   3   4 -16    1.42    0.67
   3   4 -16    0.43    0.61
   3   4 -16    1.30    0.54
   3   4 -16    0.67    0.52
  -3  -4  16   -0.24    0.61
  -3  -4  16    0.25    0.69
   2   4 -16    0.82    0.56
   2   4 -16    1.04    0.49
   2   4 -16    1.20    0.49
  -2  -4  16    2.08    0.71
  -2  -4  16    1.33    0.50
  -2  -4  16    1.51    0.66
   1   4 -16    1.36    0.42
   1   4 -16    1.54    0.66
   1   4 -16    1.77    0.61
  -1  -4  16    1.65    0.49
  -1  -4  16    2.85    0.63
  -1  -4  16    1.90    0.62
   0   4 -16    1.77    0.54
   0   4 -16    1.63    0.66
   0  -4  16    1.68    0.61
   0  -4  16    3.09    0.66
   0  -4  16    2.48    0.61
   0  -4  16    1.79    0.48
   0  -4  16    1.55    0.59
  -1   4 -16    2.89    0.68
  -1   4 -16    3.14    0.54
   1  -4  16    2.75    0.69
   1  -4  16    3.31    0.73
   1  -4  16    3.89    0.69
   1  -4  16    2.54    0.62
   1  -4  16    2.88    0.59
  -2   4 -16    0.64    0.61
  -2   4 -16   -0.31    0.37
  -2   4 -16    0.32    0.43
   2  -4  16   -0.90    0.64
   2  -4  16    0.11    0.44
   2  -4  16    0.85    0.57
   2  -4  16    0.44    0.66
   2  -4  16    0.57    0.59
  -3   4 -16   -0.45    0.52
   3  -4  16    1.05    0.67
   3  -4  16   -0.91    0.63
   3  -4  16   -1.13    0.69
  -4   4 -16    0.30    0.70
  -4   4 -16    0.86    0.66
   4  -4  16   -0.45    0.83
   4  -4  16    0.21    0.75
   4  -4  16   -1.13    0.96
   5   3 -16    0.79    0.79
   5   3 -16   -0.26    0.68
   5   3 -16   -0.09    0.80
   4   3 -16   -1.44    0.58
   4   3 -16    0.10    0.70
   4   3 -16    0.04    0.65
   4   3 -16    0.23    0.64
  -4  -3  16   -0.65    0.68
  -4  -3  16    1.16    0.70
   3   3 -16    1.01    0.60
   3   3 -16    0.75    0.56
   3   3 -16    1.77    0.69
   3   3 -16    1.49    0.62
  -3  -3  16    2.01    0.70
  -3  -3  16    1.96    0.68
   2   3 -16    6.81    0.84
   2   3 -16    7.61    0.72
   2   3 -16    7.78    0.84
   2   3 -16    8.01    0.77
  -2  -3  16    7.65    0.81
  -2  -3  16    7.15    0.64
  -2  -3  16    6.76    0.84
   1   3 -16    0.26    0.36
   1   3 -16    0.37    0.50
   1   3 -16   -0.44    0.42
   1   3 -16    0.66    0.34
  -1  -3  16    0.23    0.52
  -1  -3  16    1.19    0.55
  -1  -3  16    0.01    0.34
   0   3 -16   19.27    1.00
   0   3 -16   16.45    1.11
   0  -3  16   19.64    1.15
   0  -3  16   19.72    0.90
   0  -3  16   18.68    1.13
   0  -3  16   20.63    1.07
   0  -3  16   17.12    1.07
  -1   3 -16    3.28    0.50
  -1   3 -16    2.83    0.59
  -1   3 -16    3.43    0.71
   1  -3  16    2.36    0.69
   1  -3  16    4.13    0.67
   1  -3  16    3.58    0.71
   1  -3  16    3.75    0.56
   1  -3  16    5.50    0.83
  -2   3 -16   29.86    1.48
  -2   3 -16   28.86    1.17
   2  -3  16   27.19    1.44
   2  -3  16   30.37    1.33
   2  -3  16   30.57    1.45
   2  -3  16   29.54    1.56
   2  -3  16   31.42    1.28
  -3   3 -16    0.06    0.65
  -3   3 -16    0.28    0.51
   3  -3  16    0.41    0.60
   3  -3  16   -0.15    0.82
   3  -3  16   -0.21    0.64
  -4   3 -16    4.95    0.95
   4  -3  16    2.49    0.81
   4  -3  16    4.61    1.09
   4  -3  16    3.76    1.02
   5   2 -16    0.00    0.71
   5   2 -16    0.55    0.88
   5   2 -16   -0.27    0.75
   4   2 -16    5.16    0.91
   4   2 -16    5.97    0.88
   4   2 -16    5.42    0.89
   4   2 -16    3.13    0.75
  -4  -2  16    5.88    0.92
  -4  -2  16    4.91    0.86
   3   2 -16    5.96    0.77
   3   2 -16    4.92    0.69
   3   2 -16    4.41    0.70
   3   2 -16    6.37    0.83
  -3  -2  16    5.71    0.82
  -3  -2  16    5.30    0.75
   2   2 -16    1.32    0.53
   2   2 -16    0.82    0.49
   2   2 -16    0.70    0.56
   2   2 -16    0.55    0.46
  -2  -2  16    0.34    0.51
  -2  -2  16    0.80    0.53
   1   2 -16    6.97    0.75
   1   2 -16    7.10    0.63
   1   2 -16    5.65    0.76
   1   2 -16    8.21    0.66
  -1  -2  16    8.64    0.86
  -1  -2  16    7.98    0.57
  -1  -2  16    8.09    0.77
  -1  -2  16    8.05    0.56
   0   2 -16   43.28    1.44
   0   2 -16   41.88    1.12
   0   2 -16   43.20    1.67
   0   2 -16   41.41    1.12
   0  -2  16   42.45    1.18
   0  -2  16   42.44    1.59
   0  -2  16   42.34    1.35
   0  -2  16   42.84    1.51
   0  -2  16   42.21    1.53
  -1   2 -16    4.06    0.47
  -1   2 -16    4.50    0.77
   1  -2  16    2.45    0.66
   1  -2  16    3.42    0.50
   1  -2  16    2.97    0.56
   1  -2  16    4.24    0.71
   1  -2  16    3.83    0.75
  -2   2 -16    3.41    0.57
  -2   2 -16    3.69    0.83
   2  -2  16    4.24    0.83
   2  -2  16    3.84    0.64
   2  -2  16    4.58    0.79
   2  -2  16    4.34    0.82
  -3   2 -16    1.55    0.74
  -3   2 -16    1.26    0.64
   3  -2  16    1.28    0.57
   3  -2  16    0.42    0.81
   3  -2  16    2.23    0.77
   3  -2  16    0.26    0.75
  -4   2 -16    1.28    0.71
  -4   2 -16    0.03    0.63
   4  -2  16    1.81    0.97
   4  -2  16    0.53    0.63
   5   1 -16    2.28    0.80
   5   1 -16    1.65    0.85
   5   1 -16    0.96    0.77
  -5  -1  16    2.75    0.89
   4   1 -16    6.95    0.99
   4   1 -16    5.54    0.85
   4   1 -16    5.33    0.89
   4   1 -16    5.37    0.93
  -4  -1  16    7.04    0.93
  -4  -1  16    4.71    0.78
   3   1 -16    0.31    0.50
   3   1 -16    0.01    0.53
   3   1 -16   -0.04    0.46
   3   1 -16    0.43    0.51
  -3  -1  16    0.21    0.49
  -3  -1  16    0.27    0.48
   2   1 -16    0.84    0.50
   2   1 -16    1.04    0.47
   2   1 -16    1.07    0.52
   2   1 -16    0.66    0.49
  -2  -1  16    1.78    0.54
  -2  -1  16    1.16    0.36
  -2  -1  16    1.25    0.45
   1   1 -16   10.47    0.94
   1   1 -16   11.50    0.75
   1   1 -16   12.26    0.88
   1   1 -16   12.17    0.77
  -1  -1  16   11.69    0.68
  -1  -1  16   10.48    0.91
  -1  -1  16   11.00    0.76
   0   1 -16    1.52    0.58
   0   1 -16    1.16    0.48
   0   1 -16    1.58    0.36
   0   1 -16    1.31    0.36
   0  -1  16    2.86    0.65
   0  -1  16    1.33    0.31
   0  -1  16    1.74    0.59
   0  -1  16    0.92    0.39
   0  -1  16    0.79    0.62
  -1   1 -16   14.82    1.11
   1  -1  16   15.59    0.83
   1  -1  16   17.02    0.76
   1  -1  16   14.33    1.07
   1  -1  16   16.92    1.15
   1  -1  16   14.83    1.01
  -2   1 -16   18.18    1.24
   2  -1  16   16.64    1.15
   2  -1  16   17.78    1.30
   2  -1  16   19.25    1.30
   2  -1  16   19.29    0.96
  -3   1 -16    4.14    0.86
   3  -1  16    2.61    0.96
   3  -1  16    2.97    0.89
   3  -1  16    2.27    0.75
   3  -1  16    3.54    0.64
  -4   1 -16    8.04    1.04
  -4   1 -16    8.60    1.03
   4  -1  16    9.05    1.36
   5   0 -16    0.19    0.73
   5   0 -16    0.60    0.69
   5   0 -16   -1.55    0.75
  -5   0  16   -0.94    0.79
   4   0 -16    4.28    0.84
   4   0 -16    1.64    0.68
   4   0 -16    2.49    0.68
   4   0 -16    2.34    0.77
  -4   0  16    2.15    0.62
   3   0 -16   -0.36    0.52
   3   0 -16   -0.40    0.48
   3   0 -16    0.02    0.50
   3   0 -16    0.97    0.52
  -3   0  16   -0.41    0.50
  -3   0  16    0.17    0.48
   2   0 -16   -0.24    0.46
   2   0 -16    0.50    0.40
   2   0 -16    0.87    0.51
   2   0 -16   -0.03    0.39
  -2   0  16    0.52    0.42
  -2   0  16   -0.24    0.34
  -2   0  16    0.56    0.45
   1   0 -16    4.85    0.68
   1   0 -16    6.56    0.84
   1   0 -16    5.43    0.60
   1   0 -16    4.67    0.61
  -1   0  16    6.23    0.60
  -1   0  16    4.36    0.66
  -1   0  16    5.22    0.54
   0   0 -16    0.91    0.39
   0   0 -16    0.17    0.33
   0   0 -16    0.64    0.51
   0   0  16    1.09    0.35
   0   0  16    0.49    0.56
   0   0  16    1.20    0.50
   0   0  16    0.43    0.53
  -1   0 -16    4.41    0.44
  -1   0 -16    4.52    0.75
  -1   0 -16    4.48    0.75
   1   0  16    4.69    0.75
   1   0  16    4.56    0.76
   1   0  16    4.02    0.48
   1   0  16    4.25    0.75
  -2   0 -16   -0.29    0.61
  -2   0 -16   -0.19    0.63
   2   0  16   -0.13    0.63
   2   0  16   -0.35    0.62
   2   0  16    0.72    0.60
  -3   0 -16   -0.84    0.64
  -3   0 -16    0.28    0.77
   3   0  16    0.15    0.75
   3   0  16   -0.76    0.67
  -4   0 -16    1.57    0.72
   4   0  16   -0.66    0.90
   5  -1 -16    3.06    0.88
   5  -1 -16    4.65    0.96
   5  -1 -16    4.10    0.87
  -5   1  16    4.87    0.97
   4  -1 -16    1.38    0.64
   4  -1 -16   -0.29    0.60
   4  -1 -16    1.19    0.71
   4  -1 -16   -0.56    0.62
  -4   1  16    1.42    0.73
   3  -1 -16    3.20    0.65
   3  -1 -16    2.88    0.65
   3  -1 -16    2.01    0.60
   3  -1 -16    2.39    0.62
  -3   1  16    2.69    0.52
  -3   1  16    2.94    0.58
   2  -1 -16    0.38    0.49
   2  -1 -16   -0.04    0.50
   2  -1 -16    0.04    0.48
   2  -1 -16    0.38    0.45
  -2   1  16    0.10    0.43
  -2   1  16    0.10    0.34
  -2   1  16    0.11    0.39
   1  -1 -16    0.56    0.58
   1  -1 -16    1.16    0.48
   1  -1 -16    0.97    0.41
   1  -1 -16    1.86    0.50
   1  -1 -16   -0.19    0.45
  -1   1  16    1.08    0.41
  -1   1  16    0.49    0.44
  -1   1  16    0.96    0.33
   0  -1 -16    4.22    0.78
   0  -1 -16    4.66    0.55
   0  -1 -16    4.34    0.65
   0  -1 -16    3.56    0.55
   0   1  16    3.93    0.65
   0   1  16    4.72    0.76
  -1  -1 -16    4.60    0.71
  -1  -1 -16    3.93    0.74
   1   1  16    4.38    0.78
   1   1  16    3.74    0.73
   1   1  16    4.60    0.74
  -2  -1 -16    1.50    0.67
  -2  -1 -16    0.85    0.62
   2   1  16    1.07    0.64
   2   1  16    0.69    0.65
   2   1  16    1.05    0.72
  -3  -1 -16   10.79    1.10
  -3  -1 -16   14.16    1.33
   3   1  16   14.53    1.41
   3   1  16   12.15    1.24
   5  -2 -16   -0.30    0.62
   5  -2 -16   -0.99    0.66
   5  -2 -16   -0.26    0.72
  -5   2  16   -0.62    0.79
   4  -2 -16    3.18    0.76
   4  -2 -16    2.46    0.76
   4  -2 -16    2.61    0.74
  -4   2  16    4.09    0.88
  -4   2  16    3.65    0.67
   3  -2 -16    2.08    0.63
   3  -2 -16    2.93    0.66
   3  -2 -16    3.07    0.64
   3  -2 -16    3.12    0.72
  -3   2  16    2.37    0.77
  -3   2  16    3.49    0.57
  -3   2  16    2.89    0.59
   2  -2 -16    2.39    0.58
   2  -2 -16    2.16    0.69
   2  -2 -16    2.15    0.56
   2  -2 -16    2.65    0.62
  -2   2  16    2.29    0.55
  -2   2  16    1.70    0.45
  -2   2  16    2.03    0.57
   1  -2 -16    0.64    0.58
   1  -2 -16    1.31    0.44
   1  -2 -16    1.30    0.45
   1  -2 -16    1.19    0.51
  -1   2  16    1.53    0.49
  -1   2  16    1.16    0.35
  -1   2  16    0.75    0.46
   0  -2 -16    0.13    0.49
   0  -2 -16   -0.32    0.53
   0   2  16    0.29    0.55
   0   2  16   -0.99    0.42
  -1  -2 -16    0.73    0.71
  -1  -2 -16    0.39    0.54
   1   2  16    0.47    0.60
   1   2  16    0.23    0.55
   1   2  16    0.47    0.54
  -2  -2 -16    0.80    0.68
  -2  -2 -16    1.50    0.72
   2   2  16    2.89    0.82
   2   2  16    2.96    0.71
  -3  -2 -16    0.18    0.66
  -3  -2 -16    0.41    0.84
   3   2  16    0.09    0.79
   3   2  16    0.21    0.66
   5  -3 -16   -0.35    0.73
   5  -3 -16    0.91    0.73
   5  -3 -16   -0.17    0.67
  -5   3  16    0.20    0.75
   4  -3 -16    0.12    0.57
   4  -3 -16    1.38    0.69
  -4   3  16    0.18    0.56
  -4   3  16    1.72    0.82
   3  -3 -16    5.87    0.82
   3  -3 -16    5.62    0.79
   3  -3 -16    7.32    0.91
   3  -3 -16    6.14    0.81
  -3   3  16    6.06    0.85
  -3   3  16    6.14    0.75
   2  -3 -16    1.93    0.58
   2  -3 -16    3.43    0.68
   2  -3 -16    3.54    0.70
   2  -3 -16    3.97    0.82
  -2   3  16    3.63    0.63
  -2   3  16    3.73    0.51
  -2   3  16    2.80    0.67
   1  -3 -16    2.53    0.68
   1  -3 -16    2.02    0.55
   1  -3 -16    1.74    0.52
  -1   3  16    3.07    0.55
  -1   3  16    2.40    0.46
  -1   3  16    2.66    0.60
  -1   3  16    2.80    0.50
   0  -3 -16    3.11    0.76
   0  -3 -16    2.44    0.62
   0   3  16    2.27    0.53
   0   3  16    2.41    0.44
  -1  -3 -16    0.19    0.67
  -1  -3 -16    0.37    0.57
   1   3  16    1.09    0.55
   1   3  16    0.37    0.45
   1   3  16   -0.35    0.60
  -2  -3 -16   -0.44    0.74
  -2  -3 -16    0.87    0.71
   2   3  16    0.58    0.72
   2   3  16    0.11    0.56
  -3  -3 -16    0.51    0.70
  -3  -3 -16   -0.61    0.73
   3   3  16    0.24    0.60
   3   3  16   -0.04    0.89
   4  -4 -16    1.06    0.77
   4  -4 -16    0.87    0.68
  -4   4  16    1.31    0.74
  -4   4  16    1.21    0.67
   3  -4 -16    0.41    0.59
   3  -4 -16    0.24    0.56
   3  -4 -16   -0.16    0.60
   3  -4 -16    0.09    0.58
  -3   4  16    0.61    0.56
  -3   4  16    0.02    0.64
   2  -4 -16    2.94    0.65
   2  -4 -16    0.95    0.55
   2  -4 -16    2.39    0.75
   2  -4 -16    1.86    0.59
  -2   4  16    2.27    0.62
  -2   4  16    2.76    0.68
  -2   4  16    1.93    0.51
   1  -4 -16    1.26    0.66
   1  -4 -16    1.68    0.52
  -1   4  16    0.97    0.44
  -1   4  16    2.82    0.54
  -1   4  16    0.90    0.61
   0  -4 -16    3.43    0.73
   0  -4 -16    2.86    0.83
   0   4  16    3.01    0.52
   0   4  16    2.89    0.50
  -1  -4 -16    1.07    0.75
  -1  -4 -16    1.46    0.75
   1   4  16    2.97    0.87
   1   4  16    1.91    0.48
   1   4  16    1.84    0.58
  -2  -4 -16    5.72    0.97
  -2  -4 -16    3.47    0.98
   2   4  16    4.03    0.92
   2   4  16    4.49    0.79
  -3  -4 -16    5.32    1.11
  -3  -4 -16    4.84    1.10
   3   4  16    4.59    1.01
   4  -5 -16    8.03    0.93
   4  -5 -16    6.99    1.07
  -4   5  16    6.63    0.98
  -4   5  16    5.28    0.87
   3  -5 -16   21.08    1.39
   3  -5 -16   21.53    1.37
   3  -5 -16   21.92    1.33
  -3   5  16   24.88    1.35
  -3   5  16   23.41    1.43
   2  -5 -16    1.62    0.76
   2  -5 -16    2.08    0.68
   2  -5 -16    1.98    0.65
  -2   5  16    2.42    0.67
  -2   5  16    1.67    0.56
  -2   5  16    1.56    0.62
   1  -5 -16    0.30    0.62
   1  -5 -16    1.37    0.57
  -1   5  16    1.60    0.52
  -1   5  16    0.35    0.55
   0  -5 -16   26.23    1.40
   0  -5 -16   29.26    1.67
   0   5  16   27.23    1.45
   0   5  16   25.10    1.08
  -1  -5 -16   11.95    1.17
  -1  -5 -16   11.18    1.21
   1   5  16   14.60    1.29
   1   5  16   14.08    0.88
  -2  -5 -16   -0.05    0.76
  -2  -5 -16    1.16    0.89
   2   5  16    0.23    0.92
   2   5  16    1.41    0.87
   4  -6 -16   -0.43    0.55
   4  -6 -16    0.06    0.74
  -4   6  16   -0.27    0.76
  -4   6  16    2.39    0.90
   3  -6 -16   -0.47    0.72
   3  -6 -16   -0.77    0.60
   3  -6 -16   -0.30    0.66
  -3   6  16    1.08    0.64
  -3   6  16    0.03    0.72
   2  -6 -16    2.24    0.83
  -2   6  16    3.16    0.68
  -2   6  16    3.68    0.79
  -2   6  16    1.75    0.61
   1  -6 -16    8.10    0.92
   1  -6 -16    4.76    0.92
  -1   6  16    5.50    0.76
  -1   6  16    7.19    0.92
   0  -6 -16    8.19    1.04
   0  -6 -16    7.64    1.08
   0   6  16    9.41    1.03
   0   6  16    7.86    0.81
  -1  -6 -16   12.12    1.20
  -1  -6 -16   10.45    1.27
   1   6  16   11.69    0.96
  -2  -6 -16    3.54    1.09
  -2  -6 -16    3.55    1.09
   2   6  16    3.71    0.74
   2   6  16    3.22    0.96
   3  -7 -16    0.77    0.74
   3  -7 -16   -0.03    0.75
   3  -7 -16    1.44    0.61
  -3   7  16   -0.25    0.65
  -3   7  16    0.95    0.70
  -3   7  16   -0.16    0.75
   2  -7 -16   -0.34    0.74
  -2   7  16    0.47    0.67
  -2   7  16   -0.10    0.59
   1  -7 -16    2.98    0.86
   1  -7 -16    3.49    0.78
  -1   7  16    4.80    0.96
  -1   7  16    4.55    0.77
   0  -7 -16    0.24    0.84
   0  -7 -16   -0.91    0.68
   0   7  16    0.83    0.70
   0   7  16    0.03    0.46
  -1  -7 -16    4.81    0.96
  -1  -7 -16    7.43    1.23
   1   7  16    7.16    0.83
   1   7  16    5.92    0.99
   2  -8 -16    0.99    0.83
  -2   8  16    0.69    0.71
  -2   8  16    0.44    0.83
   1  -8 -16   -0.53    0.75
   1  -8 -16    0.14    0.71
  -1   8  16    0.89    0.76
  -1   8  16    0.81    0.65
   0  -8 -16   -0.14    0.79
   0  -8 -16   -0.49    0.90
   0   8  16    0.29    0.77
   0   8  16   -0.61    0.50
   1   9 -17    6.64    0.85
  -1  -9  17    6.43    1.21
  -1  -9  17    5.31    1.07
   0   9 -17    6.81    0.85
   0  -9  17    6.16    1.12
   0  -9  17    6.51    1.06
  -1   9 -17    0.02    0.65
   1  -9  17   -0.98    0.70
   1  -9  17    0.20    0.80
   2   8 -17    3.54    0.80
   2   8 -17    2.64    0.75
  -2  -8  17    1.31    0.95
  -2  -8  17    1.66    0.91
   1   8 -17    1.29    0.65
  -1  -8  17    1.55    0.84
  -1  -8  17    1.93    0.83
   0   8 -17    0.73    0.59
   0   8 -17    1.24    0.57
   0  -8  17    1.85    0.81
   0  -8  17    0.46    0.84
  -1   8 -17    0.62    0.66
   1  -8  17    0.46    0.83
   1  -8  17    0.88    0.65
   1  -8  17   -0.88    0.77
  -2   8 -17    5.00    0.93
   2  -8  17    3.94    1.00
   2  -8  17    4.23    0.99
   3   7 -17   -1.11    0.60
   3   7 -17    0.00    0.63
   3   7 -17   -1.16    0.71
  -3  -7  17    0.57    0.82
  -3  -7  17   -0.55    0.71
   2   7 -17   -0.21    0.64
   2   7 -17    0.09    0.56
   2   7 -17    0.42    0.64
  -2  -7  17   -0.38    0.51
  -2  -7  17    1.16    0.79
  -2  -7  17   -0.15    0.72
   1   7 -17   -0.03    0.48
   1   7 -17    0.20    0.51
  -1  -7  17   -0.30    0.76
  -1  -7  17    0.66    0.61
  -1  -7  17    0.25    0.70
   0   7 -17   -0.19    0.43
   0   7 -17    0.98    0.53
   0  -7  17   -0.30    0.68
   0  -7  17    0.61    0.60
   0  -7  17   -0.12    0.57
   0  -7  17    0.61    0.69
  -1   7 -17    5.14    0.83
   1  -7  17    3.94    0.87
   1  -7  17    4.71    0.98
   1  -7  17    2.23    0.67
   1  -7  17    3.50    0.76
  -2   7 -17    0.70    0.74
   2  -7  17    0.10    0.71
   2  -7  17    0.65    0.68
   2  -7  17    0.38    0.72
   3   6 -17    0.73    0.67
   3   6 -17    2.30    0.75
   3   6 -17    0.26    0.64
  -3  -6  17    2.33    0.90
  -3  -6  17    1.84    0.90
   2   6 -17   -0.62    0.62
   2   6 -17    0.14    0.49
   2   6 -17    0.88    0.59
  -2  -6  17    1.49    0.81
  -2  -6  17   -0.57    0.54
  -2  -6  17    0.30    0.69
   1   6 -17    0.56    0.51
   1   6 -17   -0.64    0.50
  -1  -6  17   -0.45    0.51
  -1  -6  17   -0.07    0.63
  -1  -6  17    0.62    0.66
   0   6 -17    1.50    0.50
   0   6 -17    1.05    0.57
   0  -6  17    2.25    0.66
   0  -6  17    0.96    0.68
   0  -6  17    1.18    0.68
   0  -6  17    1.55    0.65
  -1   6 -17    7.17    0.74
  -1   6 -17    5.72    0.83
   1  -6  17    7.98    0.90
   1  -6  17    8.03    0.92
   1  -6  17    7.71    0.97
   1  -6  17    7.34    0.97
   1  -6  17    7.75    1.05
  -2   6 -17    9.63    1.09
   2  -6  17    9.15    1.13
   2  -6  17    9.73    1.07
   2  -6  17   10.48    1.05
   2  -6  17    8.35    1.07
  -3   6 -17   10.91    1.14
   3  -6  17    9.83    1.16
   3  -6  17   10.85    1.27
   3  -6  17   11.83    1.28
   4   5 -17    0.05    0.77
   4   5 -17    1.69    0.72
   4   5 -17    1.11    0.76
  -4  -5  17    1.33    0.87
  -4  -5  17    0.47    0.72
  -4  -5  17    1.46    0.93
   3   5 -17    1.10    0.64
   3   5 -17    0.05    0.63
   3   5 -17    0.78    0.54
   3   5 -17    0.08    0.63
  -3  -5  17    1.18    0.73
  -3  -5  17    1.00    0.77
   2   5 -17    5.33    0.82
   2   5 -17    5.60    0.71
   2   5 -17    6.28    0.93
  -2  -5  17    5.61    0.76
  -2  -5  17    8.07    1.07
  -2  -5  17    4.32    0.90
   1   5 -17    1.31    0.56
   1   5 -17    1.13    0.44
  -1  -5  17    2.62    0.76
  -1  -5  17    1.29    0.65
  -1  -5  17    1.01    0.51
   0   5 -17    2.25    0.57
   0  -5  17    3.45    0.75
   0  -5  17    2.06    0.72
   0  -5  17    3.20    0.67
   0  -5  17    2.30    0.79
   0  -5  17    3.02    0.65
  -1   5 -17   -0.28    0.43
   1  -5  17   -0.13    0.58
   1  -5  17   -0.30    0.59
   1  -5  17   -0.16    0.58
   1  -5  17    0.41    0.50
   1  -5  17    0.62    0.66
   2  -5  17   -0.15    0.63
   2  -5  17   -0.15    0.56
   2  -5  17    0.03    0.70
   2  -5  17    0.76    0.70
   2  -5  17    0.29    0.71
  -3   5 -17    3.68    0.84
  -3   5 -17    3.44    0.74
   3  -5  17    2.68    0.90
   3  -5  17    3.93    1.02
   3  -5  17    3.71    0.84
   4   4 -17   -0.17    0.73
   4   4 -17    0.62    0.71
   4   4 -17   -0.06    0.64
  -4  -4  17    0.06    0.76
  -4  -4  17    0.55    0.81
   3   4 -17    6.07    0.89
   3   4 -17    3.48    0.69
   3   4 -17    5.57    0.90
   3   4 -17    4.88    0.76
  -3  -4  17    5.56    0.98
  -3  -4  17    5.26    0.87
   2   4 -17    0.94    0.60
   2   4 -17    0.11    0.43
   2   4 -17    0.31    0.46
  -2  -4  17    0.89    0.66
  -2  -4  17    0.17    0.60
   1   4 -17    0.66    0.54
   1   4 -17    0.21    0.37
   1   4 -17    1.06    0.58
  -1  -4  17    0.70    0.44
  -1  -4  17    0.49    0.56
  -1  -4  17    0.67    0.59
   0   4 -17   15.01    1.13
   0   4 -17   18.78    1.08
   0  -4  17   17.56    0.94
   0  -4  17   14.54    1.09
   0  -4  17   14.65    1.11
   0  -4  17   17.21    1.05
   0  -4  17   15.82    1.12
  -1   4 -17   -0.38    0.44
  -1   4 -17    0.84    0.61
   1  -4  17   -0.47    0.43
   1  -4  17   -0.42    0.57
   1  -4  17    0.44    0.64
   1  -4  17   -0.12    0.59
   1  -4  17   -0.07    0.50
  -2   4 -17   34.95    1.31
  -2   4 -17   34.85    1.67
   2  -4  17   32.06    1.59
   2  -4  17   34.64    1.72
   2  -4  17   35.05    1.47
   2  -4  17   34.10    1.74
   2  -4  17   34.70    1.43
  -3   4 -17   30.11    1.36
   3  -4  17   32.56    1.87
   3  -4  17   31.82    1.75
   3  -4  17   31.06    1.49
   4   3 -17    1.10    0.66
   4   3 -17    1.47    0.87
   4   3 -17    0.39    0.68
  -4  -3  17    1.20    0.77
  -4  -3  17   -0.12    0.66
   3   3 -17    2.75    0.68
   3   3 -17    2.16    0.67
   3   3 -17    2.43    0.72
   3   3 -17    1.99    0.76
  -3  -3  17    3.19    0.74
  -3  -3  17    2.51    0.74
   2   3 -17    5.66    0.81
   2   3 -17    3.57    0.68
   2   3 -17    4.83    0.65
   2   3 -17    5.86    0.71
  -2  -3  17    4.90    0.81
  -2  -3  17    4.01    0.69
   1   3 -17   -0.56    0.51
   1   3 -17    0.68    0.54
   1   3 -17    0.01    0.35
   1   3 -17    0.59    0.56
  -1  -3  17    1.27    0.61
  -1  -3  17   -0.02    0.48
   0   3 -17    5.77    0.71
   0   3 -17    6.75    0.88
   0  -3  17    7.81    0.67
   0  -3  17    6.92    0.73
   0  -3  17    7.91    0.91
   0  -3  17    8.14    0.91
   0  -3  17    5.84    0.81
  -1   3 -17    0.03    0.45
  -1   3 -17    0.46    0.59
   1  -3  17   -0.11    0.57
   1  -3  17    0.77    0.64
   1  -3  17   -0.57    0.63
   1  -3  17    0.49    0.43
   1  -3  17    0.75    0.50
  -2   3 -17    4.52    0.92
  -2   3 -17    1.83    0.55
  -2   3 -17    2.07    0.54
   2  -3  17    2.66    0.59
   2  -3  17    3.48    0.84
   2  -3  17    2.73    0.61
   2  -3  17    2.43    0.79
   2  -3  17    2.72    0.79
  -3   3 -17   -0.58    0.59
  -3   3 -17   -0.09    0.58
   3  -3  17    1.40    0.83
   3  -3  17    1.03    0.66
   3  -3  17    1.58    0.86
   4   2 -17    0.63    0.65
   4   2 -17   -0.06    0.63
   4   2 -17   -1.00    0.61
   4   2 -17    0.31    0.79
  -4  -2  17   -1.34    0.64
  -4  -2  17    0.66    0.72
   3   2 -17    9.93    0.94
   3   2 -17    9.22    0.86
   3   2 -17   11.38    0.99
   3   2 -17    8.87    0.97
  -3  -2  17   10.49    1.00
  -3  -2  17    9.41    0.98
   2   2 -17    2.05    0.55
   2   2 -17    3.41    0.71
   2   2 -17    3.96    0.75
   2   2 -17    3.03    0.58
  -2  -2  17    2.55    0.62
  -2  -2  17    1.82    0.59
   1   2 -17    0.62    0.61
   1   2 -17    0.39    0.38
   1   2 -17    1.19    0.51
   1   2 -17    1.31    0.41
  -1  -2  17    0.61    0.60
  -1  -2  17    1.03    0.53
  -1  -2  17    0.89    0.53
   0   2 -17   34.14    1.33
   0   2 -17   30.70    1.44
   0  -2  17   30.12    1.39
   0  -2  17   34.30    1.41
   0  -2  17   29.95    1.19
   0  -2  17   32.91    1.48
  -1   2 -17   45.67    1.55
  -1   2 -17   48.20    1.87
   1  -2  17   47.57    1.40
   1  -2  17   46.97    1.81
   1  -2  17   43.10    1.71
   1  -2  17   46.79    1.49
   1  -2  17   46.08    1.74
  -2   2 -17   37.91    1.69
  -2   2 -17   38.51    1.37
   2  -2  17   37.47    1.77
   2  -2  17   38.00    1.41
   2  -2  17   37.42    1.73
   2  -2  17   38.24    1.63
  -3   2 -17    2.38    0.67
  -3   2 -17    0.73    0.67
   3  -2  17    1.90    0.64
   3  -2  17    3.12    0.96
   3  -2  17    0.64    0.74
   5   1 -17   -0.75    0.79
   5   1 -17    0.89    0.85
   5   1 -17   -0.08    0.83
  -5  -1  17    0.26    0.79
   4   1 -17    2.32    0.82
   4   1 -17    1.86    0.74
   4   1 -17    2.43    0.80
   4   1 -17    1.69    0.67
  -4  -1  17    2.87    0.78
  -4  -1  17    3.46    0.79
   3   1 -17   -0.07    0.54
   3   1 -17    0.04    0.52
   3   1 -17    2.00    0.63
   3   1 -17    1.26    0.59
  -3  -1  17    0.96    0.59
  -3  -1  17    0.91    0.57
   2   1 -17    0.72    0.61
   2   1 -17    0.46    0.52
   2   1 -17    1.73    0.53
   2   1 -17    0.87    0.51
  -2  -1  17    0.75    0.58
  -2  -1  17    0.37    0.42
   1   1 -17    4.11    0.69
   1   1 -17    3.22    0.51
   1   1 -17    3.25    0.72
   1   1 -17    3.47    0.53
  -1  -1  17    3.24    0.50
  -1  -1  17    3.28    0.54
  -1  -1  17    2.98    0.65
   0   1 -17    0.84    0.51
   0   1 -17   -0.19    0.30
   0   1 -17    0.06    0.56
   0   1 -17    0.90    0.34
   0  -1  17    0.95    0.65
   0  -1  17    0.59    0.56
   0  -1  17    1.58    0.58
   0  -1  17    0.39    0.40
  -1   1 -17    0.71    0.63
   1  -1  17    0.68    0.58
   1  -1  17   -0.31    0.58
   1  -1  17    0.27    0.43
   1  -1  17    0.24    0.61
  -2   1 -17    2.07    0.74
   2  -1  17    3.14    0.81
   2  -1  17    3.40    0.85
   2  -1  17    3.83    0.66
   2  -1  17    4.08    0.80
  -3   1 -17    5.57    0.95
   3  -1  17    3.15    0.84
   3  -1  17    2.93    0.95
   5   0 -17    0.91    0.73
   5   0 -17    1.78    0.85
   5   0 -17    1.34    0.83
  -5   0  17    2.62    0.99
   4   0 -17    0.10    0.63
   4   0 -17    1.13    0.63
   4   0 -17   -0.30    0.65
   4   0 -17    0.27    0.64
  -4   0  17    0.69    0.63
   3   0 -17    1.33    0.64
   3   0 -17    2.03    0.72
   3   0 -17    0.55    0.58
   3   0 -17    1.25    0.59
  -3   0  17    0.98    0.59
  -3   0  17    0.87    0.54
   2   0 -17    0.13    0.58
   2   0 -17    0.39    0.50
   2   0 -17   -0.15    0.49
   2   0 -17    0.02    0.46
  -2   0  17    0.71    0.38
  -2   0  17    0.12    0.40
  -2   0  17    0.68    0.48
   1   0 -17    0.51    0.43
   1   0 -17    0.40    0.41
   1   0 -17    0.90    0.51
   1   0 -17   -0.21    0.52
  -1   0  17    0.63    0.37
  -1   0  17    0.27    0.39
  -1   0  17    0.42    0.53
   0   0 -17    5.27    0.81
   0   0 -17    4.67    0.54
   0   0 -17    4.75    0.54
   0   0  17    5.25    0.78
   0   0  17    4.74    0.80
  -1   0 -17   12.70    1.12
  -1   0 -17   10.66    0.97
   1   0  17   11.28    1.00
   1   0  17   11.41    1.15
   1   0  17   11.68    1.06
  -2   0 -17   -0.19    0.58
  -2   0 -17    0.99    0.71
   2   0  17    0.90    0.68
   2   0  17    0.86    0.65
   2   0  17    0.13    0.68
  -3   0 -17    1.46    0.79
  -3   0 -17    0.63    0.77
   3   0  17    0.41    0.70
   3   0  17   -0.96    0.76
   5  -1 -17   -0.04    0.77
   5  -1 -17   -0.07    0.73
   5  -1 -17    0.90    0.72
  -5   1  17    0.14    0.80
   4  -1 -17    0.45    0.70
   4  -1 -17   -0.14    0.70
   4  -1 -17    0.61    0.70
  -4   1  17    0.90    0.58
  -4   1  17   -0.30    0.68
   3  -1 -17    0.69    0.58
   3  -1 -17    0.97    0.56
   3  -1 -17   -0.49    0.51
   3  -1 -17    0.42    0.58
  -3   1  17    0.35    0.48
  -3   1  17    0.73    0.44
   2  -1 -17    0.42    0.52
   2  -1 -17    0.29    0.52
   2  -1 -17   -1.17    0.37
   2  -1 -17   -0.74    0.47
  -2   1  17   -0.13    0.43
  -2   1  17    0.15    0.42
   1  -1 -17    2.58    0.56
   1  -1 -17    3.26    0.75
   1  -1 -17    1.55    0.52
   1  -1 -17    3.02    0.63
  -1   1  17    2.24    0.51
  -1   1  17    2.38    0.57
   0  -1 -17   -0.29    0.53
   0  -1 -17    0.02    0.39
   0  -1 -17    0.90    0.53
   0  -1 -17    0.71    0.39
   0   1  17    0.39    0.54
   0   1  17    0.56    0.56
  -1  -1 -17    1.58    0.68
  -1  -1 -17    0.11    0.60
   1   1  17    1.82    0.67
   1   1  17    1.40    0.71
   1   1  17    1.29    0.69
  -2  -1 -17    6.08    0.90
  -2  -1 -17    6.48    0.95
   2   1  17    7.78    0.96
   2   1  17    6.89    1.03
   2   1  17    6.98    0.99
  -3  -1 -17    2.27    0.84
  -3  -1 -17    1.69    0.82
   3   1  17    0.46    0.95
   5  -2 -17   40.47    1.93
   5  -2 -17   40.00    1.91
   5  -2 -17   39.74    1.80
  -5   2  17   41.32    2.02
   4  -2 -17    0.59    0.64
   4  -2 -17    1.63    0.73
  -4   2  17    1.79    0.78
   3  -2 -17    1.58    0.60
   3  -2 -17    2.81    0.73
   3  -2 -17    2.91    0.74
   3  -2 -17    3.47    0.72
  -3   2  17    2.23    0.58
  -3   2  17    1.96    0.69
  -3   2  17    0.93    0.52
   2  -2 -17    2.13    0.63
   2  -2 -17    2.21    0.59
   2  -2 -17    2.52    0.72
   2  -2 -17    1.65    0.59
  -2   2  17    3.02    0.54
  -2   2  17    2.32    0.68
  -2   2  17    3.15    0.62
   1  -2 -17    0.82    0.49
   1  -2 -17    0.47    0.44
   1  -2 -17    0.06    0.42
   1  -2 -17    0.04    0.52
   1  -2 -17   -0.51    0.52
  -1   2  17    0.24    0.49
  -1   2  17    0.32    0.45
   0  -2 -17    0.26    0.60
   0  -2 -17    0.03    0.51
   0   2  17    0.10    0.44
  -1  -2 -17    3.83    0.73
  -1  -2 -17    4.80    0.84
   1   2  17    6.13    0.89
   1   2  17    4.62    0.76
   1   2  17    4.89    0.92
  -2  -2 -17    0.02    0.73
  -2  -2 -17   -0.01    0.68
   2   2  17   -0.86    0.62
   2   2  17    0.88    0.64
   2   2  17    0.30    0.74
  -3  -2 -17   -0.88    0.67
  -3  -2 -17   -0.61    0.70
   3   2  17   -0.16    0.80
   4  -3 -17   11.15    1.10
   4  -3 -17   10.37    1.12
  -4   3  17   11.32    1.23
  -4   3  17    8.16    0.87
   3  -3 -17    1.03    0.64
   3  -3 -17    0.36    0.61
   3  -3 -17    1.04    0.63
   3  -3 -17    0.68    0.67
  -3   3  17    0.30    0.57
  -3   3  17    0.50    0.69
   2  -3 -17    2.02    0.68
   2  -3 -17    2.68    0.64
   2  -3 -17    2.60    0.67
   2  -3 -17    2.17    0.61
  -2   3  17    1.92    0.64
  -2   3  17    2.29    0.60
   1  -3 -17    0.59    0.48
   1  -3 -17    0.12    0.72
   1  -3 -17    1.20    0.55
  -1   3  17    1.13    0.50
  -1   3  17    2.21    0.59
  -1   3  17    1.01    0.45
   0  -3 -17   -0.70    0.68
   0  -3 -17   -0.17    0.55
   0   3  17   -0.50    0.45
  -1  -3 -17    5.65    0.96
  -1  -3 -17    4.03    0.79
   1   3  17    5.64    0.96
   1   3  17    4.70    0.75
  -2  -3 -17    1.70    0.83
  -2  -3 -17    2.24    0.88
   2   3  17    1.35    0.82
   2   3  17    1.91    0.74
   2   3  17    2.07    0.74
  -3  -3 -17    1.16    0.87
  -3  -3 -17    0.63    0.93
   3   3  17    1.83    0.88
   4  -4 -17   -0.44    0.75
   4  -4 -17   -0.09    0.57
  -4   4  17   -0.74    0.65
  -4   4  17    1.25    0.66
   3  -4 -17    4.07    0.82
   3  -4 -17    5.49    0.85
   3  -4 -17    6.02    1.01
   3  -4 -17    5.62    0.91
  -3   4  17    4.53    0.82
  -3   4  17    4.73    0.87
   2  -4 -17    0.32    0.60
   2  -4 -17    1.50    0.61
   2  -4 -17    0.04    0.70
   2  -4 -17    0.17    0.66
  -2   4  17    0.33    0.52
  -2   4  17    1.25    0.62
  -2   4  17    0.18    0.45
   1  -4 -17    1.19    0.54
   1  -4 -17    0.94    0.53
   1  -4 -17    1.94    0.81
  -1   4  17    0.88    0.57
  -1   4  17    0.72    0.42
   0  -4 -17    6.16    0.98
   0  -4 -17    7.85    0.91
   0   4  17    7.07    0.82
   0   4  17    7.48    0.92
  -1  -4 -17    5.45    0.90
  -1  -4 -17    2.81    0.88
   1   4  17    4.71    0.93
   1   4  17    4.74    0.72
  -2  -4 -17    1.02    0.90
  -2  -4 -17    2.28    0.85
   2   4  17    1.00    0.59
   2   4  17    1.28    0.80
   4  -5 -17   -0.01    0.82
   4  -5 -17    0.98    0.60
  -4   5  17   -0.44    0.67
  -4   5  17    1.51    0.77
   3  -5 -17    1.25    0.65
   3  -5 -17    0.19    0.61
   3  -5 -17    0.28    0.67
  -3   5  17    0.39    0.71
  -3   5  17    0.94    0.73
   2  -5 -17    3.22    0.77
   2  -5 -17    4.21    0.93
   2  -5 -17    3.24    0.73
   2  -5 -17    4.70    0.83
  -2   5  17    3.85    0.73
  -2   5  17    4.24    0.67
  -2   5  17    4.89    0.83
   1  -5 -17    0.47    0.70
   1  -5 -17   -0.05    0.51
  -1   5  17   -0.11    0.46
  -1   5  17   -0.26    0.58
   0  -5 -17    1.16    0.69
   0  -5 -17    0.00    0.81
   0   5  17   -0.10    0.68
   0   5  17    0.62    0.46
  -1  -5 -17   19.78    1.49
  -1  -5 -17   16.88    1.44
  -2  -5 -17    6.61    1.18
  -2  -5 -17    5.43    1.13
   2   5  17    6.83    1.16
   3  -6 -17    2.59    0.80
   3  -6 -17    1.36    0.66
   3  -6 -17    1.71    0.84
  -3   6  17    2.39    0.78
  -3   6  17    2.75    0.79
   2  -6 -17    0.82    0.66
   2  -6 -17    0.31    0.76
  -2   6  17    0.57    0.67
  -2   6  17    0.62    0.52
   1  -6 -17    6.34    0.84
   1  -6 -17    5.74    1.07
  -1   6  17    7.06    0.78
  -1   6  17    6.09    0.94
   0  -6 -17    3.80    0.92
   0  -6 -17    3.59    0.83
   0   6  17    4.10    0.87
   0   6  17    3.14    0.62
  -1  -6 -17    4.64    0.97
  -1  -6 -17    5.44    1.09
   1   6  17    7.52    1.04
   3  -7 -17    1.92    0.74
   3  -7 -17    3.50    0.94
   3  -7 -17    1.35    0.77
  -3   7  17    2.50    0.84
  -3   7  17    2.44    0.76
  -3   7  17    2.47    0.78
   2  -7 -17   -0.30    0.79
   2  -7 -17    0.13    0.62
  -2   7  17   -0.92    0.54
  -2   7  17   -0.34    0.64
   1  -7 -17    1.30    0.73
   1  -7 -17   -0.55    0.82
  -1   7  17    0.35    0.70
  -1   7  17    0.82    0.54
   0  -7 -17    2.11    0.82
   0  -7 -17    2.59    1.02
   0   7  17    0.93    0.57
   0   7  17    0.77    0.74
   1   8 -18    2.24    0.64
  -1  -8  18    3.52    0.96
  -1  -8  18    1.62    0.98
   0   8 -18    1.32    0.61
   0   8 -18    0.63    0.56
   0  -8  18    0.48    0.80
   0  -8  18    1.42    0.83
  -1   8 -18    0.53    0.68
   1  -8  18   -0.37    0.83
   1  -8  18   -1.49    0.70
   2   7 -18    1.08    0.63
   2   7 -18    0.06    0.69
  -2  -7  18   -0.50    0.77
  -2  -7  18    0.40    0.78
   1   7 -18    2.72    0.65
   1   7 -18    3.25    0.71
  -1  -7  18    0.96    0.76
  -1  -7  18    3.85    0.79
  -1  -7  18    3.71    0.91
   0   7 -18   -0.36    0.44
   0   7 -18    0.10    0.53
   0  -7  18    0.28    0.69
   0  -7  18    0.73    0.55
   0  -7  18    0.13    0.53
   0  -7  18    0.27    0.80
  -1   7 -18    1.71    0.64
   1  -7  18    1.33    0.78
   1  -7  18    0.70    0.68
   1  -7  18    1.12    0.80
  -2   7 -18    4.95    0.89
   2  -7  18    5.64    1.01
   2  -7  18    5.24    1.06
   3   6 -18    9.02    1.13
   3   6 -18    7.79    0.99
   3   6 -18    8.80    1.10
  -3  -6  18    8.83    1.18
  -3  -6  18    8.90    1.16
   2   6 -18    0.65    0.71
   2   6 -18    1.09    0.66
   2   6 -18    1.15    0.59
  -2  -6  18    1.25    0.85
  -2  -6  18    2.05    0.83
   1   6 -18    0.44    0.56
  -1  -6  18    1.85    0.84
  -1  -6  18   -0.66    0.66
  -1  -6  18    0.44    0.51
   0   6 -18    0.24    0.53
   0   6 -18    0.11    0.53
   0  -6  18    1.26    0.72
   0  -6  18    0.02    0.70
   0  -6  18    0.32    0.57
   0  -6  18    1.62    0.69
  -1   6 -18    5.74    1.09
  -1   6 -18    6.53    0.84
   1  -6  18    6.17    0.82
   1  -6  18    5.75    0.93
   1  -6  18    6.00    0.92
   1  -6  18    6.44    0.89
   1  -6  18    8.22    1.15
  -2   6 -18   -0.27    0.60
   2  -6  18    0.09    0.86
   2  -6  18    0.26    0.70
   2  -6  18    1.82    0.78
   2  -6  18   -0.31    0.74
   3   5 -18    7.94    0.93
   3   5 -18    8.32    1.05
   3   5 -18   10.78    1.11
  -3  -5  18    8.33    1.20
  -3  -5  18    8.78    1.17
   2   5 -18    4.32    0.88
   2   5 -18    4.48    0.68
   2   5 -18    4.89    0.82
  -2  -5  18    4.51    0.89
  -2  -5  18    6.43    1.05
   1   5 -18    0.99    0.47
   1   5 -18    0.32    0.55
  -1  -5  18    0.20    0.62
  -1  -5  18    0.55    0.68
   0   5 -18    2.73    0.61
   0  -5  18    1.96    0.59
   0  -5  18    2.76    0.76
   0  -5  18    1.81    0.75
   0  -5  18    1.44    0.70
  -1   5 -18   10.63    0.90
   1  -5  18    9.47    0.95
   1  -5  18   10.68    1.05
   1  -5  18    9.80    1.06
   1  -5  18   11.09    1.14
   1  -5  18    9.79    1.06
   2  -5  18    2.26    0.63
   2  -5  18    4.45    0.91
   2  -5  18    5.08    0.99
   2  -5  18    4.73    0.98
  -3   5 -18   13.74    1.27
   3  -5  18   13.72    1.30
   3  -5  18   13.79    1.37
   3  -5  18   15.35    1.44
   4   4 -18   -0.48    0.73
   4   4 -18    0.47    0.73
   4   4 -18   -0.36    0.78
  -4  -4  18    1.17    0.85
  -4  -4  18    0.07    0.70
   3   4 -18    8.33    0.90
   3   4 -18    8.31    0.92
   3   4 -18   10.03    1.10
   3   4 -18    8.96    1.08
  -3  -4  18    9.67    1.08
  -3  -4  18    9.39    1.13
   2   4 -18    0.69    0.62
   2   4 -18    0.41    0.49
  -2  -4  18    0.40    0.65
  -2  -4  18    0.71    0.70
   1   4 -18    3.32    0.67
   1   4 -18    2.90    0.74
  -1  -4  18    3.73    0.79
  -1  -4  18    3.81    0.85
   0   4 -18    2.88    0.80
   0   4 -18    1.17    0.59
   0  -4  18    1.78    0.63
   0  -4  18    1.80    0.61
   0  -4  18    2.04    0.72
   0  -4  18    1.61    0.64
   0  -4  18    2.16    0.70
  -1   4 -18    0.12    0.62
  -1   4 -18    0.05    0.50
   1  -4  18    0.41    0.65
   1  -4  18    0.54    0.63
   1  -4  18    1.54    0.57
   1  -4  18   -0.49    0.51
   1  -4  18    0.31    0.70
  -2   4 -18    3.79    0.66
  -2   4 -18    3.81    0.85
   2  -4  18    4.13    0.93
   2  -4  18    4.09    0.87
   2  -4  18    2.81    0.66
   2  -4  18    2.67    0.77
   3  -4  18   10.24    1.28
   3  -4  18   10.95    1.25
   3  -4  18    9.94    1.13
   4   3 -18    0.80    0.72
   4   3 -18    2.42    0.95
   4   3 -18    0.59    0.65
  -4  -3  18    3.10    0.86
  -4  -3  18    1.87    0.75
   3   3 -18   -0.33    0.65
   3   3 -18   -0.39    0.51
   3   3 -18    0.94    0.65
   3   3 -18    0.37    0.60
  -3  -3  18    0.14    0.59
  -3  -3  18   -0.08    0.70
   2   3 -18    0.44    0.44
   2   3 -18    1.94    0.64
   2   3 -18    1.26    0.49
   2   3 -18    1.31    0.59
  -2  -3  18    1.70    0.73
  -2  -3  18    1.05    0.63
   1   3 -18    1.22    0.44
   1   3 -18    1.14    0.64
   1   3 -18    2.10    0.61
  -1  -3  18    1.13    0.60
  -1  -3  18    1.64    0.66
   0   3 -18    0.90    0.52
   0   3 -18   -0.34    0.57
   0  -3  18    0.64    0.55
   0  -3  18    0.90    0.65
   0  -3  18    0.14    0.55
   0  -3  18    0.91    0.63
  -1   3 -18   -0.17    0.62
  -1   3 -18    0.34    0.48
   1  -3  18   -0.24    0.50
   1  -3  18   -0.03    0.63
   1  -3  18    0.74    0.64
   1  -3  18   -0.17    0.63
  -2   3 -18   13.21    1.23
  -2   3 -18   14.55    0.96
   2  -3  18   12.81    1.24
   2  -3  18   11.68    1.19
   2  -3  18   11.12    0.99
  -3   3 -18   30.64    1.74
  -3   3 -18   26.70    1.39
   3  -3  18   27.50    1.77
   3  -3  18   26.64    1.61
   3  -3  18   27.43    1.46
   4   2 -18   -0.47    0.79
   4   2 -18    1.21    0.67
   4   2 -18   -0.38    0.69
  -4  -2  18   -0.20    0.62
  -4  -2  18    0.21    0.66
   3   2 -18    3.70    0.79
   3   2 -18    3.92    0.71
   3   2 -18    3.41    0.76
   3   2 -18    2.72    0.67
  -3  -2  18    4.51    0.76
  -3  -2  18    3.45    0.83
   2   2 -18    7.26    0.86
   2   2 -18    7.92    0.95
   2   2 -18    7.93    0.78
   2   2 -18    7.23    0.78
  -2  -2  18    8.47    0.86
  -2  -2  18    6.11    0.84
   1   2 -18    1.94    0.62
   1   2 -18    1.86    0.46
   1   2 -18    2.26    0.69
  -1  -2  18    1.49    0.63
  -1  -2  18    2.25    0.60
   0   2 -18   10.47    1.06
   0   2 -18   11.31    0.95
   0  -2  18   10.96    1.05
   0  -2  18   11.26    0.88
   0  -2  18   11.17    1.02
   0  -2  18   11.52    1.14
  -1   2 -18    6.61    1.00
  -1   2 -18    6.82    0.81
   1  -2  18    7.04    0.98
   1  -2  18    7.35    0.76
   1  -2  18    6.21    0.91
   1  -2  18    8.39    1.06
  -2   2 -18   18.63    1.38
   2  -2  18   14.54    1.47
   2  -2  18   21.24    1.47
   2  -2  18   20.19    1.16
   2  -2  18   20.18    1.34
  -3   2 -18   22.61    1.25
  -3   2 -18   23.48    1.60
   3  -2  18   24.51    1.70
   3  -2  18   22.40    1.61
   4   1 -18    3.42    0.88
   4   1 -18    3.96    0.94
   4   1 -18    3.05    0.78
  -4  -1  18    2.51    0.78
  -4  -1  18    3.18    0.78
   3   1 -18    0.93    0.59
   3   1 -18    0.17    0.56
   3   1 -18    1.15    0.65
   3   1 -18    1.70    0.69
  -3  -1  18    0.12    0.56
  -3  -1  18    0.82    0.66
   2   1 -18    0.97    0.49
   2   1 -18    0.21    0.62
   2   1 -18    0.10    0.47
   2   1 -18    0.19    0.54
  -2  -1  18   -0.35    0.45
  -2  -1  18    0.64    0.61
   1   1 -18    1.16    0.47
   1   1 -18    0.15    0.56
   1   1 -18    1.33    0.46
   1   1 -18    1.27    0.59
  -1  -1  18    0.83    0.42
  -1  -1  18    0.27    0.55
  -1  -1  18    0.30    0.44
   0   1 -18   -1.02    0.60
   0   1 -18    0.43    0.54
   0   1 -18   -0.78    0.53
   0  -1  18   -0.35    0.37
   0  -1  18    0.26    0.58
   0  -1  18    0.03    0.56
   0  -1  18    0.24    0.53
  -1   1 -18   11.19    1.13
   1  -1  18   11.08    1.16
   1  -1  18   10.56    1.09
   1  -1  18   11.57    1.11
  -2   1 -18    3.16    0.81
   2  -1  18    3.03    0.88
   2  -1  18    3.07    0.84
   2  -1  18    3.63    0.85
  -3   1 -18    6.12    0.88
  -3   1 -18    8.21    1.10
   3  -1  18    6.48    1.11
   3  -1  18    7.19    1.19
   4   0 -18    2.25    0.79
   4   0 -18    0.72    0.67
   4   0 -18   -0.04    0.76
  -4   0  18    1.34    0.79
  -4   0  18    0.90    0.64
   3   0 -18    2.97    0.75
   3   0 -18    3.29    0.66
   3   0 -18    4.37    0.80
   3   0 -18    3.01    0.76
  -3   0  18    4.39    0.68
  -3   0  18    4.09    0.71
   2   0 -18    0.29    0.56
   2   0 -18   -0.01    0.50
   2   0 -18   -1.00    0.43
   2   0 -18   -0.11    0.63
  -2   0  18    0.28    0.50
  -2   0  18    0.46    0.44
  -2   0  18    0.53    0.40
   1   0 -18    1.00    0.65
   1   0 -18    0.11    0.43
   1   0 -18   -0.39    0.48
   1   0 -18    0.32    0.44
  -1   0  18    0.31    0.56
  -1   0  18   -1.08    0.35
   0   0 -18    1.88    0.44
   0   0 -18    0.64    0.56
   0   0 -18    0.78    0.70
   0   0 -18    0.80    0.39
   0   0  18    1.19    0.65
   0   0  18    2.04    0.69
  -1   0 -18    3.57    0.88
   1   0  18    2.71    0.72
   1   0  18    2.32    0.67
   1   0  18    2.40    0.78
  -2   0 -18   16.69    1.39
   2   0  18   16.20    1.37
   2   0  18   11.68    1.12
   2   0  18   11.91    1.18
  -3   0 -18    2.84    0.89
   3   0  18    2.25    0.88
   3   0  18    2.90    1.01
   4  -1 -18    7.30    0.99
   4  -1 -18    8.67    1.03
  -4   1  18    7.71    1.14
   3  -1 -18    0.92    0.67
   3  -1 -18    1.40    0.66
   3  -1 -18    0.57    0.62
   3  -1 -18    0.58    0.62
  -3   1  18    1.22    0.56
   2  -1 -18    3.48    0.67
   2  -1 -18    4.08    0.75
   2  -1 -18    3.76    0.65
   2  -1 -18    4.77    0.77
  -2   1  18    4.46    0.64
  -2   1  18    3.33    0.64
   1  -1 -18    1.69    0.54
   1  -1 -18    1.57    0.53
   1  -1 -18    1.18    0.58
   1  -1 -18    2.07    0.74
  -1   1  18    2.67    0.61
  -1   1  18    2.31    0.56
   0  -1 -18    0.63    0.63
   0  -1 -18    0.95    0.44
   0  -1 -18    0.88    0.45
   0  -1 -18    0.23    0.51
   0   1  18   -0.12    0.55
   0   1  18    0.08    0.63
  -1  -1 -18    0.29    0.57
  -1  -1 -18    0.19    0.62
   1   1  18    0.31    0.61
   1   1  18   -0.54    0.65
   1   1  18    0.28    0.65
  -2  -1 -18    0.32    0.68
  -2  -1 -18   -0.56    0.70
   2   1  18    1.22    0.77
   2   1  18   -0.71    0.60
   2   1  18    1.31    0.88
  -3  -1 -18   10.32    1.31
  -3  -1 -18   11.86    1.35
   3   1  18   12.02    1.49
   3   1  18    9.50    1.19
   4  -2 -18    0.34    0.76
   4  -2 -18    0.55    0.74
  -4   2  18    0.98    0.85
   3  -2 -18   -0.47    0.57
   3  -2 -18   -0.27    0.58
   3  -2 -18    0.52    0.58
   3  -2 -18    1.18    0.69
  -3   2  18    0.01    0.49
  -3   2  18   -0.35    0.66
   2  -2 -18    4.12    0.77
   2  -2 -18    4.12    0.68
   2  -2 -18    3.87    0.74
   2  -2 -18    3.47    0.71
  -2   2  18    3.54    0.62
  -2   2  18    2.16    0.69
  -2   2  18    5.32    0.67
   1  -2 -18   -0.07    0.50
   1  -2 -18    0.74    0.62
   1  -2 -18    0.04    0.55
   1  -2 -18    0.11    0.43
   1  -2 -18    0.55    0.43
  -1   2  18   -0.07    0.52
  -1   2  18    1.44    0.51
   0  -2 -18   -0.35    0.58
   0  -2 -18   -0.63    0.51
   0  -2 -18    0.22    0.47
   0   2  18   -0.29    0.51
  -1  -2 -18    1.92    0.85
  -1  -2 -18    1.61    0.74
   1   2  18    1.37    0.73
   1   2  18    1.77    0.63
   1   2  18   -0.16    0.78
  -2  -2 -18   -0.42    0.65
  -2  -2 -18    0.76    0.81
   2   2  18    0.85    0.66
   2   2  18   -2.55    0.56
   2   2  18   -0.10    0.75
  -3  -2 -18    9.20    1.26
  -3  -2 -18   10.48    1.27
   3   2  18    6.70    1.31
   4  -3 -18    2.16    0.81
   4  -3 -18    3.57    0.88
  -4   3  18    4.36    1.00
  -4   3  18    2.88    0.72
   3  -3 -18    1.03    0.65
   3  -3 -18    0.47    0.62
   3  -3 -18   -0.03    0.60
   3  -3 -18    1.22    0.74
  -3   3  18    1.82    0.68
  -3   3  18    0.72    0.60
   2  -3 -18    2.19    0.68
   2  -3 -18    2.33    0.66
   2  -3 -18    2.03    0.67
   2  -3 -18    3.04    0.78
  -2   3  18    3.21    0.72
  -2   3  18    2.58    0.66
   1  -3 -18    2.97    0.67
   1  -3 -18    2.35    0.58
   1  -3 -18    2.67    0.85
   1  -3 -18    3.34    0.68
  -1   3  18    2.54    0.59
  -1   3  18    3.55    0.74
  -1   3  18    3.41    0.61
   0  -3 -18    0.25    0.55
   0  -3 -18   -0.77    0.61
   0   3  18    0.07    0.47
  -1  -3 -18    2.06    0.93
  -1  -3 -18    1.42    0.68
   1   3  18    1.06    0.78
   1   3  18    1.76    0.66
  -2  -3 -18    4.53    0.95
  -2  -3 -18    3.90    1.04
   2   3  18    4.88    0.89
   2   3  18    6.16    1.15
   4  -4 -18    1.19    0.84
   4  -4 -18   -0.10    0.63
  -4   4  18    1.36    0.70
  -4   4  18    1.04    0.87
   3  -4 -18    0.62    0.68
   3  -4 -18    0.07    0.60
   3  -4 -18   -0.95    0.62
  -3   4  18    0.26    0.71
  -3   4  18   -0.16    0.63
   2  -4 -18    1.59    0.62
   2  -4 -18    2.21    0.72
   2  -4 -18    2.89    0.88
   2  -4 -18    2.52    0.70
  -2   4  18    1.39    0.61
  -2   4  18    2.74    0.66
   1  -4 -18    0.09    0.56
   1  -4 -18    1.56    0.83
   1  -4 -18    0.38    0.52
  -1   4  18    0.66    0.60
   0  -4 -18    0.73    0.56
   0  -4 -18    0.43    0.80
   0   4  18   -1.26    0.53
  -1  -4 -18    0.35    0.66
  -1  -4 -18   -1.19    0.70
   1   4  18    0.63    0.78
   1   4  18    0.44    0.58
  -2  -4 -18    1.75    0.98
  -2  -4 -18    2.82    0.90
   2   4  18    2.25    0.81
   2   4  18    1.88    0.99
   3  -5 -18    2.66    0.82
   3  -5 -18    3.56    0.85
   3  -5 -18    2.91    0.81
  -3   5  18    2.21    0.81
  -3   5  18    2.37    0.82
   2  -5 -18   13.11    1.21
   2  -5 -18   14.31    1.18
   2  -5 -18   16.23    1.38
  -2   5  18   13.74    1.22
  -2   5  18   13.80    1.09
   1  -5 -18   -0.37    0.70
   1  -5 -18    0.16    0.91
   1  -5 -18    1.14    0.66
  -1   5  18    0.04    0.70
   0  -5 -18    1.17    0.69
   0  -5 -18   -0.48    0.74
   0   5  18    1.18    0.77
  -1  -5 -18    3.17    0.95
  -1  -5 -18    1.67    0.77
   3  -6 -18   -0.38    0.60
   3  -6 -18    0.52    0.74
   3  -6 -18   -1.17    0.73
  -3   6  18    0.65    0.73
  -3   6  18   -0.85    0.63
   2  -6 -18    3.18    0.89
   2  -6 -18    1.76    0.77
  -2   6  18    2.43    0.78
  -2   6  18    3.15    0.71
   1  -6 -18    0.61    0.89
  -1   6  18    1.80    0.73
   0  -6 -18    1.32    0.96
   0  -6 -18   -0.08    0.66
   0   6  18   -0.23    0.67
   1  -7 -18   -0.37    0.78
  -1   7  18    0.88    0.72
  -1   7  18   -0.46    0.85
   0  -8  19    0.25    0.92
   0  -8  19    1.95    0.86
   2   7 -19   14.51    1.32
   2   7 -19   14.51    1.23
  -2  -7  19   16.06    1.50
  -2  -7  19   14.65    1.44
   1   7 -19   12.35    1.09
   1   7 -19    9.83    1.00
  -1  -7  19   12.74    1.30
  -1  -7  19    9.35    1.17
   0   7 -19    3.99    0.73
   0   7 -19    5.16    0.80
   0  -7  19    3.40    0.94
   0  -7  19    2.90    0.76
   0  -7  19    2.21    0.87
  -1   7 -19   -0.75    0.63
   1  -7  19    1.96    0.83
   1  -7  19    1.90    0.87
   2   6 -19   11.87    1.15
   2   6 -19   12.20    1.14
  -2  -6  19    9.30    1.16
  -2  -6  19   11.47    1.33
   1   6 -19    0.98    0.61
  -1  -6  19    0.39    0.70
  -1  -6  19    0.41    0.83
   0   6 -19    1.33    0.60
   0   6 -19    1.81    0.65
   0  -6  19    1.46    0.74
   0  -6  19    1.58    0.65
   0  -6  19    1.60    0.84
  -1   6 -19    5.87    0.91
   1  -6  19    3.99    0.75
   1  -6  19    6.51    1.10
   1  -6  19    5.25    1.00
   1  -6  19    4.35    0.82
  -2   6 -19   12.69    1.21
   2  -6  19   10.62    1.19
   2  -6  19   12.93    1.36
   2  -6  19   12.93    1.27
   3   5 -19   22.99    1.50
   3   5 -19   22.45    1.46
   3   5 -19   18.94    1.32
  -3  -5  19   20.27    1.44
  -3  -5  19   23.16    1.55
   2   5 -19    4.27    0.85
   2   5 -19    4.75    0.82
   2   5 -19    3.76    0.80
  -2  -5  19    6.12    0.98
  -2  -5  19    4.86    0.96
   1   5 -19   16.20    1.15
  -1  -5  19   15.47    1.34
  -1  -5  19   20.05    1.30
   0   5 -19    6.68    0.83
   0  -5  19    8.63    0.98
   0  -5  19    5.85    0.88
   0  -5  19    7.53    1.06
  -1   5 -19    0.42    0.48
   1  -5  19    1.24    0.67
   1  -5  19   -0.29    0.63
   1  -5  19   -0.16    0.69
   2  -5  19    8.05    1.12
   2  -5  19    8.20    1.12
   2  -5  19    7.15    1.03
   3   4 -19    0.65    0.71
   3   4 -19    1.81    0.80
   3   4 -19    0.43    0.56
  -3  -4  19    1.69    0.84
  -3  -4  19    0.06    0.80
   2   4 -19    2.60    0.60
   2   4 -19    4.00    0.81
  -2  -4  19    3.39    0.83
  -2  -4  19    2.05    0.85
   1   4 -19    2.35    0.75
   1   4 -19    3.06    0.70
  -1  -4  19    3.14    0.80
  -1  -4  19    2.17    0.71
   0   4 -19   -1.02    0.65
   0   4 -19   -0.32    0.49
   0  -4  19   -0.79    0.58
   0  -4  19   -0.44    0.57
   0  -4  19    0.03    0.72
  -1   4 -19    9.10    1.15
  -1   4 -19    7.44    0.84
   1  -4  19    6.89    1.11
   1  -4  19    8.91    1.04
   1  -4  19    7.56    0.93
   1  -4  19   10.43    1.19
  -2   4 -19    1.29    0.73
  -2   4 -19   -0.30    0.50
   2  -4  19   -0.46    0.71
   2  -4  19    0.05    0.58
   2  -4  19    0.27    0.72
   4   3 -19    2.14    0.98
   4   3 -19    3.27    0.87
   4   3 -19    5.21    1.00
  -4  -3  19    2.80    0.86
  -4  -3  19    4.90    0.95
   3   3 -19    1.56    0.61
   3   3 -19    2.85    0.67
   3   3 -19    1.95    0.77
   3   3 -19    2.07    0.78
  -3  -3  19    1.06    0.74
  -3  -3  19    2.11    0.77
   2   3 -19    9.61    0.88
   2   3 -19    8.76    0.98
   2   3 -19    7.70    0.97
  -2  -3  19   11.42    1.07
  -2  -3  19    9.68    1.13
   1   3 -19   25.17    1.53
   1   3 -19   23.69    1.29
  -1  -3  19   25.09    1.40
  -1  -3  19   26.18    1.32
   0   3 -19   -0.52    0.46
   0   3 -19    0.94    0.66
   0  -3  19   -0.03    0.54
   0  -3  19    0.60    0.62
   0  -3  19    0.57    0.60
   0  -3  19    0.52    0.65
  -1   3 -19    0.55    0.69
  -1   3 -19   -0.16    0.55
   1  -3  19    0.40    0.66
   1  -3  19    0.24    0.56
   1  -3  19   -1.42    0.61
   1  -3  19    0.05    0.65
  -2   3 -19    3.04    0.66
  -2   3 -19    3.47    0.93
   2  -3  19    1.15    0.66
   2  -3  19    2.23    0.83
   2  -3  19    3.16    0.91
  -3   3 -19    1.23    0.81
   3  -3  19    0.31    1.01
   3  -3  19    0.01    0.88
   4   2 -19    0.32    0.70
   4   2 -19    0.13    0.76
   4   2 -19    0.49    0.78
  -4  -2  19    1.34    0.76
  -4  -2  19    0.45    0.69
   3   2 -19    3.31    0.71
   3   2 -19    2.85    0.77
   3   2 -19    2.76    0.70
   3   2 -19    3.21    0.71
  -3  -2  19    2.27    0.68
  -3  -2  19    2.90    0.82
   2   2 -19    8.90    0.85
   2   2 -19    6.94    0.79
   2   2 -19    9.59    1.06
   2   2 -19    9.43    1.02
  -2  -2  19    6.10    0.87
  -2  -2  19    9.03    0.90
   1   2 -19    0.34    0.40
   1   2 -19    0.10    0.61
   1   2 -19    0.34    0.54
  -1  -2  19    0.03    0.61
  -1  -2  19   -1.08    0.46
   0   2 -19    6.68    0.82
   0   2 -19    7.11    0.95
   0  -2  19    5.17    0.85
   0  -2  19    5.88    0.91
   0  -2  19    6.05    0.89
   0  -2  19    4.97    0.70
  -1   2 -19   23.20    1.58
  -1   2 -19   22.46    1.22
   1  -2  19   24.27    1.50
   1  -2  19   22.75    1.46
   1  -2  19   24.10    1.41
   1  -2  19   22.52    1.13
  -2   2 -19    0.41    0.73
   2  -2  19    0.26    0.72
   2  -2  19    1.76    0.87
  -3   2 -19    0.09    0.79
   3  -2  19    1.02    0.81
   3  -2  19   -0.46    0.99
   4   1 -19    0.59    0.80
   4   1 -19    0.85    0.69
   4   1 -19    2.66    0.84
  -4  -1  19    2.55    0.83
  -4  -1  19    2.11    0.73
   3   1 -19    2.36    0.74
   3   1 -19    2.20    0.66
   3   1 -19    3.06    0.78
   3   1 -19    3.09    0.77
  -3  -1  19    3.47    0.77
  -3  -1  19    2.99    0.70
   2   1 -19    5.06    0.73
   2   1 -19    5.22    0.73
   2   1 -19    3.47    0.82
   2   1 -19    5.89    0.92
  -2  -1  19    6.12    0.75
  -2  -1  19    5.98    0.82
   1   1 -19   11.08    1.16
   1   1 -19    6.08    0.84
   1   1 -19    7.75    0.73
  -1  -1  19   10.06    1.00
  -1  -1  19    8.74    0.78
   0   1 -19    2.46    0.69
   0   1 -19    2.41    0.76
   0  -1  19    1.91    0.72
   0  -1  19    2.31    0.66
  -1   1 -19    6.90    1.06
   1  -1  19    6.18    0.89
   1  -1  19    4.87    0.93
   1  -1  19    4.95    0.89
  -2   1 -19    0.48    0.80
   2  -1  19   -0.82    0.63
   2  -1  19   -0.57    0.74
  -3   1 -19    1.32    0.85
   3  -1  19    0.82    0.89
   3  -1  19   -0.05    0.92
   4   0 -19   10.20    1.14
   4   0 -19   15.05    1.44
   4   0 -19   11.63    1.22
  -4   0  19   11.48    1.34
  -4   0  19   11.71    1.10
   3   0 -19    1.41    0.65
   3   0 -19    0.27    0.65
   3   0 -19    1.14    0.66
   3   0 -19    0.76    0.53
  -3   0  19    0.30    0.62
   2   0 -19   -0.19    0.47
   2   0 -19   -0.65    0.53
   2   0 -19   -0.03    0.44
   2   0 -19   -0.40    0.56
  -2   0  19    0.38    0.58
   1   0 -19    0.35    0.54
   1   0 -19   -0.23    0.42
   1   0 -19    0.16    0.44
   1   0 -19    0.56    0.71
  -1   0  19    0.14    0.43
  -1   0  19    0.12    0.60
   0   0 -19    1.81    0.70
   0   0 -19    1.01    0.61
   0   0  19    1.20    0.70
   0   0  19    1.38    0.73
  -1   0 -19    5.30    0.91
   1   0  19    4.81    0.89
   1   0  19    5.57    0.90
   1   0  19    4.86    0.93
  -2   0 -19   11.46    1.33
   2   0  19   11.28    1.29
  -3   0 -19    8.84    1.22
   3   0  19    9.09    1.21
   3   0  19   11.06    1.44
   4  -1 -19    2.39    0.82
   4  -1 -19    3.24    0.93
  -4   1  19    2.61    0.93
   3  -1 -19    3.34    0.79
   3  -1 -19    2.03    0.74
   3  -1 -19    2.08    0.71
   3  -1 -19    3.10    0.76
  -3   1  19    2.34    0.65
  -3   1  19    4.34    0.87
   2  -1 -19    9.09    0.93
   2  -1 -19    8.92    0.99
   2  -1 -19    8.45    0.89
   2  -1 -19   10.39    1.05
  -2   1  19    9.49    0.84
  -2   1  19    9.96    0.90
   1  -1 -19    1.29    0.49
   1  -1 -19    1.05    0.62
   1  -1 -19    2.31    0.78
   1  -1 -19    1.62    0.54
  -1   1  19    2.18    0.66
  -1   1  19    1.81    0.59
   0  -1 -19    1.66    0.49
   0  -1 -19    1.93    0.62
   0  -1 -19    1.52    0.73
   0   1  19    1.07    0.59
  -1  -1 -19    0.37    0.69
  -1  -1 -19   -0.36    0.65
   1   1  19    0.29    0.74
   1   1  19    0.07    0.64
   1   1  19    0.00    0.60
  -2  -1 -19    0.41    0.84
  -2  -1 -19    2.06    0.87
   2   1  19    1.70    0.74
   2   1  19    0.84    0.88
   4  -2 -19   31.05    1.64
   4  -2 -19   34.60    1.87
  -4   2  19   32.47    1.78
   3  -2 -19   -0.42    0.59
   3  -2 -19   -0.25    0.60
   3  -2 -19    0.41    0.73
  -3   2  19    1.01    0.70
  -3   2  19    0.28    0.52
   2  -2 -19    9.18    0.96
   2  -2 -19    7.78    0.95
   2  -2 -19   10.90    1.14
   2  -2 -19   10.01    1.00
  -2   2  19   10.76    0.91
  -2   2  19   10.21    0.94
  -2   2  19   10.93    1.02
   1  -2 -19    0.21    0.73
   1  -2 -19   -0.01    0.60
   1  -2 -19    0.41    0.47
   1  -2 -19    0.25    0.47
  -1   2  19    0.52    0.52
  -1   2  19   -0.40    0.49
  -1   2  19    0.23    0.52
   0  -2 -19    4.62    0.90
   0  -2 -19    4.18    0.67
   0  -2 -19    3.42    0.61
   0  -2 -19    5.10    0.79
   0   2  19    4.06    0.70
  -1  -2 -19   19.48    1.40
  -1  -2 -19   15.62    1.37
   1   2  19   18.52    1.53
   1   2  19   18.67    1.20
  -2  -2 -19   22.54    1.71
  -2  -2 -19   23.38    1.68
   2   2  19   25.83    1.55
   2   2  19   20.49    1.65
   4  -3 -19    8.48    1.11
   4  -3 -19    9.25    1.14
  -4   3  19    9.98    1.19
   3  -3 -19    0.38    0.72
   3  -3 -19    0.52    0.64
   3  -3 -19    0.11    0.68
  -3   3  19    0.51    0.72
  -3   3  19   -0.18    0.57
   2  -3 -19    3.33    0.89
   2  -3 -19    3.58    0.80
   2  -3 -19    2.60    0.69
   2  -3 -19    3.13    0.72
  -2   3  19    3.35    0.75
  -2   3  19    4.15    0.77
   1  -3 -19    7.22    0.95
   1  -3 -19    5.59    0.75
   1  -3 -19    8.27    1.06
   1  -3 -19    7.53    0.83
  -1   3  19    8.36    0.96
   0  -3 -19    0.61    0.75
   0  -3 -19    0.55    0.61
   0  -3 -19    0.63    0.49
   0   3  19    1.91    0.62
   0   3  19    0.74    0.65
  -1  -3 -19   -0.90    0.58
  -1  -3 -19    0.27    0.76
   1   3  19   -0.82    0.54
   1   3  19    1.16    0.91
  -2  -3 -19   -0.44    0.72
  -2  -3 -19   -0.29    0.80
   2   3  19    0.33    0.84
   2   3  19   -0.08    0.74
   3  -4 -19   -0.01    0.68
   3  -4 -19   -0.06    0.71
   3  -4 -19    0.72    0.75
  -3   4  19    1.13    0.73
  -3   4  19    1.18    0.70
   2  -4 -19    3.21    0.93
   2  -4 -19    4.20    0.89
   2  -4 -19    3.41    0.76
  -2   4  19    4.35    0.77
  -2   4  19    5.40    0.88
   1  -4 -19    0.14    0.51
   1  -4 -19   -0.22    0.78
  -1   4  19    0.83    0.62
   0  -4 -19    5.23    0.90
   0  -4 -19    6.29    1.17
   0   4  19    4.10    0.84
  -1  -4 -19   14.32    1.44
  -1  -4 -19   12.47    1.27
   1   4  19   13.49    1.38
   3  -5 -19    0.89    0.75
   3  -5 -19    0.52    0.78
   3  -5 -19   -0.26    0.74
  -3   5  19   -0.15    0.67
  -3   5  19   -0.94    0.67
   2  -5 -19    8.41    1.05
   2  -5 -19    9.72    1.11
   2  -5 -19    6.20    1.03
  -2   5  19    6.81    0.96
   1  -5 -19    0.94    0.80
  -1   5  19    0.24    0.75
   0  -5 -19   -0.05    0.65
   0  -5 -19    1.06    0.84
   0   5  19    0.06    0.66
  -1  -5 -19    5.01    1.00
  -1  -5 -19    3.17    1.02
   2  -6 -19   -1.02    0.79
   2  -6 -19   -1.14    0.72
   2  -6 -19   -0.08    0.66
  -2   6  19   -0.13    0.76
   1  -6 -19    0.68    0.86
  -1   6  19   -0.67    0.65
   1   7 -20    0.82    0.73
   1   7 -20    4.30    0.85
  -1  -7  20    2.27    0.89
  -1  -7  20    2.70    1.00
   0   7 -20    0.87    0.60
   0  -7  20   -0.29    0.86
   0  -7  20   -0.56    0.80
   2   6 -20    1.02    0.79
   2   6 -20    2.07    0.80
  -2  -6  20    0.06    0.76
  -2  -6  20    0.16    0.74
   1   6 -20    2.75    0.71
  -1  -6  20    2.01    0.83
  -1  -6  20    1.36    0.86
   0   6 -20    0.75    0.62
   0   6 -20    0.06    0.59
   0  -6  20    0.85    0.77
   0  -6  20   -0.95    0.64
  -1   6 -20    1.16    0.73
   1  -6  20    1.69    0.73
   1  -6  20    1.12    0.83
   1  -6  20   -0.23    0.67
   2   5 -20   22.62    1.43
  -2  -5  20   26.15    1.52
  -2  -5  20   23.50    1.56
   1   5 -20    1.18    0.68
  -1  -5  20   -0.92    0.75
  -1  -5  20   -0.72    0.70
   0   5 -20    0.30    0.55
   0  -5  20    0.29    0.61
   0  -5  20   -0.50    0.70
  -1   5 -20    0.72    0.57
   1  -5  20    0.75    0.79
   1  -5  20   -0.02    0.70
   1  -5  20    0.72    0.74
   2  -5  20    0.85    0.90
   2  -5  20    0.29    0.66
   2  -5  20   -0.05    0.84
   3   4 -20   14.26    1.19
   3   4 -20   10.31    1.17
   3   4 -20   12.70    1.36
  -3  -4  20   14.63    1.35
  -3  -4  20   11.52    1.27
   2   4 -20    4.74    0.85
   2   4 -20    5.41    0.97
  -2  -4  20    4.50    0.95
  -2  -4  20    4.29    0.82
   1   4 -20    1.02    0.70
   1   4 -20    0.53    0.61
  -1  -4  20   -0.24    0.65
  -1  -4  20    0.29    0.60
   0   4 -20    1.34    0.67
   0   4 -20    1.05    0.73
   0  -4  20    0.60    0.69
   0  -4  20    0.97    0.62
  -1   4 -20    1.09    0.62
  -1   4 -20    0.88    0.73
   1  -4  20    0.71    0.60
   1  -4  20   -0.18    0.70
   1  -4  20    0.72    0.77
  -2   4 -20    0.83    0.82
   2  -4  20    0.27    0.69
   2  -4  20    0.63    0.78
   2  -4  20   -0.92    0.73
   3   3 -20    2.33    0.75
   3   3 -20    4.36    0.91
   3   3 -20    1.51    0.82
  -3  -3  20    3.00    0.87
  -3  -3  20    4.45    0.91
   2   3 -20    4.85    0.70
   2   3 -20    5.25    0.93
   2   3 -20    4.92    0.84
  -2  -3  20    3.32    0.86
  -2  -3  20    5.94    0.82
   1   3 -20    2.08    0.77
   1   3 -20    0.60    0.62
  -1  -3  20    2.14    0.78
  -1  -3  20    2.44    0.72
   0   3 -20    3.63    0.88
   0   3 -20    4.70    0.84
   0  -3  20    3.98    0.73
   0  -3  20    4.17    0.96
  -1   3 -20    3.93    0.91
  -1   3 -20    2.88    0.69
   1  -3  20    1.90    0.80
   1  -3  20    3.37    0.70
   1  -3  20    4.59    0.91
  -2   3 -20    2.29    0.65
  -2   3 -20    1.76    0.91
   2  -3  20    1.24    0.86
   2  -3  20    3.99    0.95
   3   2 -20   34.67    1.60
   3   2 -20   34.79    1.62
   3   2 -20   32.16    1.64
  -3  -2  20   30.42    1.57
  -3  -2  20   26.83    1.39
   2   2 -20    0.97    0.69
   2   2 -20    1.44    0.70
   2   2 -20    1.50    0.59
  -2  -2  20    0.82    0.72
  -2  -2  20    2.11    0.65
   1   2 -20    4.75    0.89
   1   2 -20    4.97    0.81
  -1  -2  20    4.37    0.86
  -1  -2  20    4.59    0.72
   0   2 -20    2.73    0.70
   0   2 -20    1.27    0.73
   0  -2  20    2.80    0.78
  -1   2 -20    9.88    1.03
  -1   2 -20   10.25    1.24
   1  -2  20   13.21    1.25
   1  -2  20   10.96    1.27
  -2   2 -20    6.33    1.04
  -2   2 -20    6.57    0.89
   2  -2  20    6.48    1.06
   2  -2  20    9.03    1.22
   4   1 -20    0.81    0.83
   4   1 -20    0.47    0.72
   4   1 -20    0.17    0.76
  -4  -1  20   -0.72    0.65
   3   1 -20    1.61    0.66
   3   1 -20    1.90    0.75
   3   1 -20    1.37    0.58
   3   1 -20    2.44    0.74
  -3  -1  20    2.80    0.71
  -3  -1  20    2.08    0.73
   2   1 -20   14.81    1.03
   2   1 -20   16.68    1.39
   2   1 -20   18.85    1.17
   2   1 -20   14.95    1.25
  -2  -1  20   14.44    1.18
   1   1 -20   11.04    1.07
   1   1 -20   11.43    1.14
   1   1 -20   10.19    0.83
  -1  -1  20   10.30    1.04
   0   1 -20   -0.65    0.73
   0   1 -20    0.20    0.65
   0  -1  20   -0.59    0.66
  -1   1 -20   -0.46    0.54
  -1   1 -20    0.01    0.69
   1  -1  20   -0.51    0.70
   1  -1  20    0.23    0.71
  -2   1 -20    3.03    0.90
   2  -1  20    1.41    0.89
   2  -1  20    2.33    0.94
   4   0 -20   26.96    1.76
   4   0 -20   23.83    1.57
   4   0 -20   24.00    1.65
  -4   0  20   24.17    1.80
  -4   0  20   24.60    1.43
   3   0 -20   10.93    1.13
   3   0 -20   11.63    1.10
   3   0 -20   14.05    1.20
   3   0 -20   10.52    1.00
  -3   0  20   12.90    1.16
   2   0 -20    6.29    0.85
   2   0 -20    6.88    1.03
   2   0 -20    6.08    0.92
   2   0 -20    4.41    0.75
  -2   0  20    6.13    0.82
   1   0 -20    0.78    0.50
   1   0 -20   -0.40    0.64
   1   0 -20    0.02    0.60
  -1   0  20    0.10    0.47
  -1   0  20    0.42    0.58
   0   0 -20    1.24    0.72
   0   0 -20    1.80    0.76
   0   0  20    2.74    0.77
  -1   0 -20   -0.46    0.71
   1   0  20    0.54    0.77
   1   0  20    0.46    0.68
  -2   0 -20    0.43    0.80
   2   0  20   -0.28    0.71
   2   0  20    1.03    0.98
   3  -1 -20    0.60    0.70
   3  -1 -20    0.88    0.67
   3  -1 -20   -0.46    0.60
  -3   1  20    0.44    0.71
   2  -1 -20   23.78    1.30
   2  -1 -20   23.03    1.34
   2  -1 -20   25.54    1.44
   2  -1 -20   25.01    1.57
  -2   1  20   21.36    1.27
  -2   1  20   24.46    1.25
   1  -1 -20   18.86    1.28
   1  -1 -20   19.56    1.13
   1  -1 -20   19.88    1.16
   1  -1 -20   19.85    1.50
  -1   1  20   19.12    1.12
  -1   1  20   18.79    1.21
   0  -1 -20    0.58    0.71
   0   1  20    0.92    0.66
  -1  -1 -20    0.43    0.82
  -1  -1 -20    0.82    0.64
   1   1  20   -0.60    0.60
   1   1  20    0.68    0.91
  -2  -1 -20    2.73    1.02
  -2  -1 -20    3.17    0.89
   2   1  20    3.24    0.92
   2   1  20    5.21    1.15
   3  -2 -20    0.95    0.69
   3  -2 -20    0.27    0.65
   3  -2 -20   -0.50    0.64
  -3   2  20    0.05    0.68
   2  -2 -20    1.07    0.60
   2  -2 -20    1.13    0.72
   2  -2 -20    0.71    0.76
   2  -2 -20    0.93    0.61
  -2   2  20    0.67    0.67
  -2   2  20    0.94    0.58
   1  -2 -20    1.46    0.62
   1  -2 -20    1.14    0.68
   1  -2 -20    1.90    0.60
   1  -2 -20    1.73    0.76
  -1   2  20    2.15    0.62
  -1   2  20    0.23    0.56
   0  -2 -20   -0.05    0.79
   0  -2 -20    1.90    0.56
   0  -2 -20    1.88    0.69
   0   2  20    0.83    0.63
  -1  -2 -20    1.63    0.71
  -1  -2 -20    1.81    0.81
   1   2  20    0.94    0.67
   1   2  20    0.64    0.86
  -2  -2 -20    0.47    0.77
  -2  -2 -20    2.31    0.89
   2   2  20    1.08    0.76
   2   2  20    2.05    0.97
   3  -3 -20   33.14    1.70
   3  -3 -20   35.01    1.74
   3  -3 -20   33.25    1.68
  -3   3  20   36.03    1.57
  -3   3  20   37.02    1.71
   2  -3 -20   14.73    1.31
   2  -3 -20   14.50    1.19
   2  -3 -20   14.17    1.27
  -2   3  20   17.04    1.24
  -2   3  20   18.53    1.23
   1  -3 -20    1.59    0.82
   1  -3 -20    1.17    0.83
   1  -3 -20    2.28    0.68
   1  -3 -20    1.09    0.61
  -1   3  20    1.34    0.63
   0  -3 -20    1.46    0.66
   0  -3 -20    3.48    0.98
   0  -3 -20    2.29    0.61
   0   3  20    3.40    0.87
  -1  -3 -20    0.59    0.91
  -1  -3 -20   -0.17    0.62
   1   3  20   -0.78    0.89
   1   3  20   -0.74    0.63
   3  -4 -20   -0.50    0.67
   3  -4 -20    0.90    0.68
   3  -4 -20   -0.16    0.73
  -3   4  20    0.02    0.66
  -3   4  20   -0.03    0.74
   2  -4 -20    0.07    0.75
   2  -4 -20   -0.23    0.65
   2  -4 -20    0.20    0.73
  -2   4  20    0.63    0.62
   1  -4 -20   -0.62    0.73
   1  -4 -20    0.84    0.60
  -1   4  20    0.80    0.67
   0  -4 -20   -0.37    0.61
   0  -4 -20   -0.75    0.86
   0   4  20   -0.34    0.66
  -1  -4 -20    1.70    0.86
  -1  -4 -20    0.88    1.00
   2  -5 -20    1.04    0.73
   2  -5 -20    1.07    0.81
   2  -5 -20    0.16    0.76
  -2   5  20    0.44    0.74
   1  -5 -20    4.33    1.02
  -1   5  20    7.84    1.07
   0  -5 -20   -0.56    0.93
   0  -5 -20   -0.39    0.70
   0   5  20   -0.09    0.67
   1   6 -21    0.40    0.69
  -1  -6  21    0.54    0.80
  -1  -6  21   -0.09    0.81
   0   6 -21    0.30    0.65
   0   6 -21    0.95    0.62
   0  -6  21    0.05    0.88
   0  -6  21   -0.34    0.77
   2   5 -21    6.28    1.04
  -2  -5  21    4.33    0.99
  -2  -5  21    5.65    1.03
   1   5 -21    2.49    0.74
  -1  -5  21    2.42    0.88
  -1  -5  21    2.15    0.88
   0   5 -21    1.95    0.73
   0  -5  21    0.98    0.80
   0  -5  21    0.90    0.82
  -1   5 -21   -0.01    0.56
   1  -5  21    0.80    0.77
   1  -5  21    1.15    0.85
   1  -5  21   -0.56    0.74
   2   4 -21    8.76    1.13
  -2  -4  21   10.17    1.23
  -2  -4  21   11.09    1.20
   1   4 -21    3.15    0.92
   1   4 -21    0.25    0.65
  -1  -4  21    0.69    0.83
  -1  -4  21    1.43    0.74
   0   4 -21    2.13    0.91
   0   4 -21    1.54    0.71
   0  -4  21    2.50    0.87
   0  -4  21    3.87    0.83
  -1   4 -21   -0.51    0.78
  -1   4 -21    0.72    0.63
   1  -4  21    0.21    0.76
   1  -4  21    0.32    0.60
   1  -4  21   -0.60    0.69
   3   3 -21    1.76    0.71
   3   3 -21   -0.43    0.77
   3   3 -21    0.85    0.75
  -3  -3  21    0.43    0.64
  -3  -3  21    0.54    0.75
   2   3 -21    5.21    0.94
   2   3 -21    4.87    0.89
  -2  -3  21    6.56    0.93
  -2  -3  21    4.28    0.92
   1   3 -21    0.95    0.66
   1   3 -21    1.25    0.83
  -1  -3  21    1.80    0.68
  -1  -3  21    1.34    0.75
   0   3 -21    2.87    0.71
   0   3 -21    3.23    0.89
   0  -3  21    2.91    0.72
   0  -3  21    2.17    0.84
  -1   3 -21    2.54    0.74
  -1   3 -21    2.02    0.86
   1  -3  21    1.13    0.79
   1  -3  21    0.93    0.73
   3   2 -21   26.80    1.53
   3   2 -21   24.42    1.51
   3   2 -21   24.48    1.54
  -3  -2  21   28.86    1.47
  -3  -2  21   27.16    1.54
   2   2 -21   32.84    1.43
   2   2 -21   30.85    1.74
   2   2 -21   32.73    1.63
  -2  -2  21   31.22    1.45
  -2  -2  21   32.92    1.60
   1   2 -21    2.74    0.78
   1   2 -21    3.30    0.87
  -1  -2  21    4.41    0.90
   0   2 -21    3.99    0.86
   0   2 -21    4.81    0.97
   0  -2  21    3.27    0.89
  -1   2 -21    7.78    1.20
  -1   2 -21    6.72    0.96
   1  -2  21    8.46    1.12
   1  -2  21    9.04    1.19
  -2   2 -21    9.66    1.06
  -2   2 -21    8.62    1.18
   2  -2  21    9.92    1.39
   2  -2  21    9.93    1.29
   3   1 -21   19.98    1.43
   3   1 -21   22.71    1.50
   3   1 -21   21.98    1.46
  -3  -1  21   22.50    1.38
   2   1 -21    0.64    0.75
   2   1 -21    1.15    0.60
   2   1 -21    2.86    0.87
  -2  -1  21    1.73    0.68
   1   1 -21    0.30    0.71
   1   1 -21   -0.47    0.59
  -1  -1  21    0.93    0.75
   0   1 -21   -0.45    0.58
   0   1 -21    0.11    0.69
   0  -1  21    0.90    0.77
  -1   1 -21    0.81    0.66
  -1   1 -21    1.26    0.87
   1  -1  21    1.59    0.87
   1  -1  21    1.85    0.87
  -2   1 -21    3.76    1.03
   2  -1  21    3.67    0.96
   2  -1  21    3.20    1.08
   3   0 -21   47.64    1.94
   3   0 -21   45.57    1.97
   3   0 -21   50.58    1.99
  -3   0  21   44.54    1.81
   2   0 -21    1.32    0.73
   2   0 -21    0.57    0.71
   2   0 -21    1.74    0.65
  -2   0  21    0.81    0.67
   1   0 -21    4.49    0.69
   1   0 -21    3.63    0.84
   1   0 -21    4.17    0.99
  -1   0  21    4.57    0.85
   0   0 -21    1.14    0.68
   0   0 -21    1.34    0.81
   0   0  21    2.59    0.83
  -1   0 -21    2.06    0.89
   1   0  21    3.44    0.93
   1   0  21    2.96    1.00
   3  -1 -21    5.38    0.94
   3  -1 -21    5.63    0.98
   3  -1 -21    9.04    1.13
  -3   1  21    5.69    0.97
   2  -1 -21    0.11    0.67
   2  -1 -21   -0.89    0.42
   2  -1 -21   -0.45    0.57
   2  -1 -21    0.25    0.77
  -2   1  21    0.31    0.54
   1  -1 -21   -0.55    0.48
   1  -1 -21    0.70    0.81
   1  -1 -21    0.91    0.71
  -1   1  21    1.39    0.61
  -1   1  21    0.96    0.66
   0  -1 -21   -0.27    0.64
   0  -1 -21    0.02    0.73
   0   1  21   -0.70    0.63
  -1  -1 -21    0.11    0.87
   1   1  21   -0.81    0.82
   1   1  21   -0.93    0.60
   3  -2 -21   24.82    1.59
   3  -2 -21   24.28    1.64
   3  -2 -21   25.20    1.62
  -3   2  21   20.20    1.57
   2  -2 -21   -0.70    0.52
   2  -2 -21   -0.49    0.63
   2  -2 -21    0.13    0.77
  -2   2  21   -0.43    0.53
  -2   2  21    0.20    0.64
   1  -2 -21    9.80    1.19
   1  -2 -21   11.53    1.00
   1  -2 -21   12.76    1.21
   1  -2 -21   11.73    1.24
  -1   2  21   15.42    1.16
   0  -2 -21    1.68    0.67
   0  -2 -21    0.56    0.77
   0   2  21   -0.40    0.59
   0   2  21    0.44    0.72
  -1  -2 -21    5.11    1.14
  -1  -2 -21    5.10    0.93
   1   2  21    4.92    0.89
   1   2  21    3.29    1.06
   2  -3 -21    6.61    0.94
   2  -3 -21    6.04    1.09
   2  -3 -21    8.41    1.08
  -2   3  21    5.71    0.86
  -2   3  21    5.32    1.36
   1  -3 -21    0.95    0.88
   1  -3 -21    1.97    0.76
   1  -3 -21    2.06    0.71
  -1   3  21    1.91    0.68
   0  -3 -21    4.46    0.84
   0  -3 -21    2.33    0.74
   0  -3 -21    1.66    0.88
   0   3  21    2.32    0.85
   2  -4 -21    1.12    0.77
   2  -4 -21    1.63    0.78
   2  -4 -21    1.46    0.89
  -2   4  21    0.62    0.64
   1  -4 -21    3.26    0.88
   1  -4 -21    3.18    0.74
   1  -4 -21    1.78    0.86
  -1   4  21    3.96    0.83
   1   4 -22    3.69    0.92
   1   4 -22    3.57    0.89
  -1  -4  22    3.04    0.83
  -1  -4  22    3.77    0.95
   0   4 -22    2.37    0.87
   0   4 -22    1.92    0.71
   0  -4  22    1.81    0.89
   0  -4  22    2.44    0.79
   2   3 -22    1.70    0.88
   2   3 -22    2.86    0.86
  -2  -3  22    4.19    0.84
  -2  -3  22    3.10    0.87
   1   3 -22   -0.74    0.76
   1   3 -22    0.22    0.71
  -1  -3  22   -0.86    0.68
   0   3 -22   -1.54    0.74
   0   3 -22   -0.45    0.57
   0  -3  22    0.03    0.83
  -1   3 -22    0.08    0.78
  -1   3 -22    2.52    0.72
   1  -3  22    0.19    0.78
   1  -3  22    0.54    0.86
   2   2 -22   15.71    1.45
   2   2 -22   14.38    1.34
  -2  -2  22   16.64    1.43
   1   2 -22    3.75    0.96
   1   2 -22    2.88    0.81
  -1  -2  22    4.21    0.91
   0   2 -22    2.30    0.76
   0   2 -22    0.43    0.86
   0  -2  22    0.25    0.72
  -1   2 -22    3.07    0.96
  -1   2 -22    1.31    0.68
   1  -2  22    1.72    1.01
   1  -2  22    2.62    0.87
   2   1 -22   10.21    1.00
   2   1 -22   11.80    1.23
   2   1 -22   10.03    1.14
  -2  -1  22   10.56    1.20
   1   1 -22    1.93    0.74
   1   1 -22    3.07    0.97
  -1  -1  22    2.48    0.86
   0   1 -22    3.65    0.93
   0   1 -22    2.99    0.81
   0  -1  22    1.92    0.79
  -1   1 -22   -0.03    0.63
  -1   1 -22    1.05    0.82
   1  -1  22    1.37    0.91
   1  -1  22    0.89    0.77
   2   0 -22    0.07    0.55
   2   0 -22    3.83    0.98
   2   0 -22    2.07    0.82
  -2   0  22    0.93    0.72
   1   0 -22   -0.17    0.80
   1   0 -22   -0.38    0.72
  -1   0  22    0.11    0.69
   0   0 -22    0.93    0.91
   0   0 -22   -0.79    0.63
   0   0  22    0.21    0.73
  -1   0 -22    1.84    1.01
  -1   0 -22    2.50    0.78
   1   0  22    3.16    0.88
   1   0  22    4.36    1.08
   2  -1 -22    0.83    0.68
   2  -1 -22    0.33    0.72
   2  -1 -22    0.99    0.87
   1  -1 -22    2.07    0.86
   1  -1 -22    0.61    0.76
  -1   1  22    1.54    0.80
  -1   1  22    0.86    0.70
   0  -1 -22    1.18    0.74
   0  -1 -22    1.75    0.87
   0   1  22    3.18    0.81
   0   1  22    2.02    0.81
   2  -2 -22    2.11    0.77
   2  -2 -22    3.05    0.90
   2  -2 -22    3.29    0.86
  -2   2  22    2.05    0.74
   1  -2 -22    0.55    0.62
   1  -2 -22    2.09    0.93
   1  -2 -22    1.68    0.80
  -1   2  22    1.12    0.66
   0  -2 -22    1.50    0.86
   0  -2 -22    0.98    0.76
   0   2  22    1.47    0.73
   0   2  22    3.04    0.87
   1   2 -23    5.40    0.96
   1   2 -23    6.41    1.10
  -1  -2  23    6.20    1.07
   1   1 -23    3.26    0.85
   1   1 -23    3.35    0.95
  -1  -1  23    2.33    0.80
   1   0 -23    4.06    0.93
   1   0 -23    2.37    0.90
  -1   0  23    3.44    0.88
   0   0   0    0.00    0.00
;
_shelx_hkl_checksum              39414
loop_
_space_group_symop_operation_xyz
'x, y, z'
'-x, -y, -z'
loop_
_atom_site_type_symbol
_atom_site_label
_atom_site_fract_x
_atom_site_fract_y
_atom_site_fract_z
_atom_site_U_iso_or_equiv
_atom_site_adp_type
_atom_site_calc_flag
_atom_site_refinement_flags_adp
_atom_site_refinement_flags_posn
_atom_site_occupancy
N N1 0.7777(2) 0.75853(10) 0.08657(6) 0.0135(2) Uani d . . 1
N N2 0.8020(2) 1.41391(11) 0.05517(6) 0.0189(2) Uani d . . 1
C C1 0.9331(2) 1.14458(12) 0.01678(6) 0.0115(2) Uani d . . 1
C C2 0.8247(2) 1.02763(12) 0.06162(7) 0.0121(2) Uani d . . 1
H H2 0.705567 1.049667 0.103349 0.015 Uiso calc U R 1
C C3 0.8882(2) 0.87889(12) 0.04628(6) 0.0115(2) Uani d . . 1
C C4 0.8605(2) 1.29435(12) 0.03767(7) 0.0132(2) Uani d . . 1
C C5 0.6505(2) 0.76733(12) 0.16087(7) 0.0125(2) Uani d . . 1
C C6 0.7478(3) 0.88086(13) 0.22681(7) 0.0148(2) Uani d . . 1
H H6 0.90056 0.959279 0.221593 0.018 Uiso calc U R 1
C C7 0.6216(3) 0.87931(13) 0.29998(7) 0.0156(2) Uani d . . 1
H H7 0.68778 0.958386 0.343903 0.019 Uiso calc U R 1
C C8 0.4003(2) 0.76483(13) 0.31077(7) 0.0150(2) Uani d . . 1
C C9 0.3072(3) 0.65221(13) 0.24470(7) 0.0168(2) Uani d . . 1
H H9 0.156875 0.572796 0.250372 0.02 Uiso calc U R 1
C C10 0.4282(2) 0.65274(13) 0.17065(7) 0.0147(2) Uani d . . 1
H H10 0.359076 0.574634 0.126409 0.018 Uiso calc U R 1
C C11 0.2706(3) 0.76168(15) 0.39145(7) 0.0188(2) Uani d . . 1
H H11A 0.107648 0.677027 0.384843 0.023 Uiso calc U R 1
H H11B 0.189559 0.858351 0.402402 0.023 Uiso calc U R 1
C C12 0.4864(3) 0.74141(15) 0.46692(7) 0.0199(2) Uani d . . 1
H H12A 0.581265 0.649893 0.454256 0.024 Uiso calc U R 1
H H12B 0.639306 0.831162 0.47725 0.024 Uiso calc U R 1
C C13 0.3424(3) 0.72370(14) 0.54568(7) 0.0181(2) Uani d . . 1
H H13A 0.216016 0.804531 0.551894 0.022 Uiso calc U R 1
H H13B 0.216898 0.623801 0.538957 0.022 Uiso calc U R 1
C C14 0.5569(3) 0.73313(14) 0.62496(7) 0.0182(2) Uani d . . 1
H H14A 0.67279 0.835841 0.633987 0.022 Uiso calc U R 1
H H14B 0.69245 0.657269 0.617284 0.022 Uiso calc U R 1
C C15 0.4118(3) 0.70415(14) 0.70252(7) 0.0177(2) Uani d . . 1
H H15A 0.245461 0.763104 0.703264 0.021 Uiso calc U R 1
H H15B 0.334595 0.594365 0.699429 0.021 Uiso calc U R 1
C C16 0.6189(3) 0.74865(14) 0.78342(7) 0.0196(2) Uani d . . 1
H H16A 0.795751 0.700838 0.780141 0.029 Uiso calc U R 1
H H16B 0.524291 0.713734 0.830441 0.029 Uiso calc U R 1
H H16C 0.669673 0.860007 0.791695 0.029 Uiso calc U R 1
H H1 0.784(3) 0.6672(18) 0.0653(9) 0.021(4) Uiso d . . 1
loop_
_atom_site_aniso_label
_atom_site_aniso_U_11
_atom_site_aniso_U_22
_atom_site_aniso_U_33
_atom_site_aniso_U_12
_atom_site_aniso_U_13
_atom_site_aniso_U_23
N1 0.0212(5) 0.0083(4) 0.0124(4) 0.0016(3) 0.0076(4) 0.0019(3)
N2 0.0255(5) 0.0144(5) 0.0189(5) 0.0035(4) 0.0098(4) 0.0032(4)
C1 0.0147(5) 0.0102(5) 0.0096(5) 0.0019(4) 0.0010(4) 0.0007(4)
C2 0.0155(5) 0.0114(5) 0.0101(5) 0.0024(4) 0.0035(4) 0.0010(4)
C3 0.0140(5) 0.0111(5) 0.0095(5) 0.0010(4) 0.0018(4) 0.0022(4)
C4 0.0165(5) 0.0132(5) 0.0106(5) 0.0008(4) 0.0042(4) 0.0029(4)
C5 0.0154(5) 0.0128(5) 0.0109(5) 0.0038(4) 0.0041(4) 0.0041(4)
C6 0.0173(5) 0.0142(5) 0.0131(5) 0.0010(4) 0.0029(4) 0.0035(4)
C7 0.0197(6) 0.0162(5) 0.0113(5) 0.0043(4) 0.0019(4) 0.0012(4)
C8 0.0150(5) 0.0207(5) 0.0117(5) 0.0070(4) 0.0040(4) 0.0050(4)
C9 0.0159(5) 0.0187(5) 0.0168(5) 0.0008(4) 0.0054(4) 0.0055(4)
C10 0.0171(5) 0.0139(5) 0.0132(5) 0.0007(4) 0.0031(4) 0.0018(4)
C11 0.0170(6) 0.0286(6) 0.0130(5) 0.0067(5) 0.0056(4) 0.0050(4)
C12 0.0182(6) 0.0312(6) 0.0127(5) 0.0069(5) 0.0054(4) 0.0059(5)
C13 0.0164(5) 0.0260(6) 0.0133(5) 0.0042(5) 0.0043(4) 0.0046(4)
C14 0.0169(6) 0.0269(6) 0.0122(5) 0.0039(5) 0.0042(4) 0.0055(4)
C15 0.0171(6) 0.0235(6) 0.0134(5) 0.0017(4) 0.0043(4) 0.0053(4)
C16 0.0212(6) 0.0246(6) 0.0135(5) 0.0024(5) 0.0037(5) 0.0038(4)
loop_
_atom_type_symbol
_atom_type_description
_atom_type_scat_dispersion_real
_atom_type_scat_dispersion_imag
_atom_type_scat_source
C C 0.0033 0.0016 'International Tables Vol C Tables 4.2.6.8 and 6.1.1.4'
H H 0.0000 0.0000 'International Tables Vol C Tables 4.2.6.8 and 6.1.1.4'
N N 0.0061 0.0033 'International Tables Vol C Tables 4.2.6.8 and 6.1.1.4'
loop_
_geom_angle_atom_site_label_1
_geom_angle_atom_site_label_2
_geom_angle_atom_site_label_3
_geom_angle_site_symmetry_1
_geom_angle_site_symmetry_3
_geom_angle
C3 N1 C5 . . 126.94(9)
C3 N1 H1 . . 118.6(10)
C5 N1 H1 . . 114.5(10)
C2 C1 C3 . 2_775 122.84(9)
C2 C1 C4 . . 117.35(9)
C3 C1 C4 2_775 . 119.80(9)
C1 C2 C3 . . 121.20(9)
C1 C2 H2 . . 119.4
C3 C2 H2 . . 119.4
N1 C3 C2 . . 123.39(9)
N1 C3 C1 . 2_775 120.61(9)
C2 C3 C1 . 2_775 115.96(9)
N2 C4 C1 . . 179.33(11)
C10 C5 C6 . . 118.69(10)
C10 C5 N1 . . 118.34(10)
C6 C5 N1 . . 122.87(10)
C7 C6 C5 . . 120.09(10)
C7 C6 H6 . . 120.0
C5 C6 H6 . . 120.0
C6 C7 C8 . . 121.79(11)
C6 C7 H7 . . 119.1
C8 C7 H7 . . 119.1
C9 C8 C7 . . 117.36(10)
C9 C8 C11 . . 121.25(10)
C7 C8 C11 . . 121.38(11)
C10 C9 C8 . . 121.73(10)
C10 C9 H9 . . 119.1
C8 C9 H9 . . 119.1
C9 C10 C5 . . 120.33(11)
C9 C10 H10 . . 119.8
C5 C10 H10 . . 119.8
C8 C11 C12 . . 113.98(10)
C8 C11 H11A . . 108.8
C12 C11 H11A . . 108.8
C8 C11 H11B . . 108.8
C12 C11 H11B . . 108.8
H11A C11 H11B . . 107.7
C13 C12 C11 . . 112.62(10)
C13 C12 H12A . . 109.1
C11 C12 H12A . . 109.1
C13 C12 H12B . . 109.1
C11 C12 H12B . . 109.1
H12A C12 H12B . . 107.8
C14 C13 C12 . . 113.84(10)
C14 C13 H13A . . 108.8
C12 C13 H13A . . 108.8
C14 C13 H13B . . 108.8
C12 C13 H13B . . 108.8
H13A C13 H13B . . 107.7
C13 C14 C15 . . 113.51(10)
C13 C14 H14A . . 108.9
C15 C14 H14A . . 108.9
C13 C14 H14B . . 108.9
C15 C14 H14B . . 108.9
H14A C14 H14B . . 107.7
C16 C15 C14 . . 112.82(10)
C16 C15 H15A . . 109.0
C14 C15 H15A . . 109.0
C16 C15 H15B . . 109.0
C14 C15 H15B . . 109.0
H15A C15 H15B . . 107.8
C15 C16 H16A . . 109.5
C15 C16 H16B . . 109.5
H16A C16 H16B . . 109.5
C15 C16 H16C . . 109.5
H16A C16 H16C . . 109.5
H16B C16 H16C . . 109.5
loop_
_geom_bond_atom_site_label_1
_geom_bond_atom_site_label_2
_geom_bond_site_symmetry_2
_geom_bond_distance
N1 C3 . 1.3766(13)
N1 C5 . 1.4074(14)
N1 H1 . 0.858(16)
N2 C4 . 1.1481(15)
C1 C2 . 1.3953(14)
C1 C3 2_775 1.4146(14)
C1 C4 . 1.4338(15)
C2 C3 . 1.3954(15)
C2 H2 . 0.95
C5 C10 . 1.3942(15)
C5 C6 . 1.3961(16)
C6 C7 . 1.3877(15)
C6 H6 . 0.95
C7 C8 . 1.3948(16)
C7 H7 . 0.95
C8 C9 . 1.3899(17)
C8 C11 . 1.5081(15)
C9 C10 . 1.3878(15)
C9 H9 . 0.95
C10 H10 . 0.95
C11 C12 . 1.5266(17)
C11 H11A . 0.99
C11 H11B . 0.99
C12 C13 . 1.5245(16)
C12 H12A . 0.99
C12 H12B . 0.99
C13 C14 . 1.5208(17)
C13 H13A . 0.99
C13 H13B . 0.99
C14 C15 . 1.5252(16)
C14 H14A . 0.99
C14 H14B . 0.99
C15 C16 . 1.5243(17)
C15 H15A . 0.99
C15 H15B . 0.99
C16 H16A . 0.98
C16 H16B . 0.98
C16 H16C . 0.98
loop_
_geom_hbond_atom_site_label_D
_geom_hbond_atom_site_label_H
_geom_hbond_atom_site_label_A
_geom_hbond_site_symmetry_A
_geom_hbond_distance_DH
_geom_hbond_distance_HA
_geom_hbond_distance_DA
_geom_hbond_angle_DHA
N1 H1 N2 1_545 0.858(16) 2.250(16) 3.0722(14) 160.6(14)
loop_
_geom_torsion_atom_site_label_1
_geom_torsion_atom_site_label_2
_geom_torsion_atom_site_label_3
_geom_torsion_atom_site_label_4
_geom_torsion_site_symmetry_1
_geom_torsion_site_symmetry_4
_geom_torsion
C3 C1 C2 C3 2_775 . -0.01(19)
C4 C1 C2 C3 . . -179.03(11)
C5 N1 C3 C2 . . -16.94(18)
C5 N1 C3 C1 . 2_775 165.70(11)
C1 C2 C3 N1 . . -177.47(11)
C1 C2 C3 C1 . 2_775 0.01(18)
C3 N1 C5 C10 . . 147.38(11)
C3 N1 C5 C6 . . -36.21(17)
C10 C5 C6 C7 . . -0.70(16)
N1 C5 C6 C7 . . -177.10(10)
C5 C6 C7 C8 . . 1.13(17)
C6 C7 C8 C9 . . -0.74(17)
C6 C7 C8 C11 . . 178.22(10)
C7 C8 C9 C10 . . -0.05(17)
C11 C8 C9 C10 . . -179.02(11)
C8 C9 C10 C5 . . 0.45(17)
C6 C5 C10 C9 . . -0.08(16)
N1 C5 C10 C9 . . 176.49(10)
C9 C8 C11 C12 . . 115.96(13)
C7 C8 C11 C12 . . -62.97(15)
C8 C11 C12 C13 . . -174.61(10)
C11 C12 C13 C14 . . -169.17(11)
C12 C13 C14 C15 . . -175.93(10)
C13 C14 C15 C16 . . -167.05(10)
