#------------------------------------------------------------------------------
#$Date: 2019-11-11 21:12:43 +0200 (Mon, 11 Nov 2019) $
#$Revision: 227381 $
#$URL: file:///home/coder/svn-repositories/cod/cif/4/03/60/4036007.cif $
#------------------------------------------------------------------------------
#
# This file is available in the Crystallography Open Database (COD),
# http://www.crystallography.net/
#
# All data on this site have been placed in the public domain by the
# contributors.
#
data_4036007
loop_
_publ_author_name
'Wan, Yameng'
'Zhang, Zhiguo'
'Ma, Nana'
'Bi, Jingjing'
'Zhang, Guisheng'
_publ_section_title
;
 Acylamino-Directed Specific Sequential Difunctionalizations of Anilides
 via Metal-Free Relay Reactions for p-Oxygen and o-Nitrogen Incorporation.
;
_journal_issue                   2
_journal_name_full               'The Journal of organic chemistry'
_journal_page_first              780
_journal_page_last               791
_journal_paper_doi               10.1021/acs.joc.8b02636
_journal_volume                  84
_journal_year                    2019
_chemical_formula_moiety         'C10 H9 F3 N2 O4'
_chemical_formula_sum            'C10 H9 F3 N2 O4'
_chemical_formula_weight         278.19
_space_group_crystal_system      triclinic
_space_group_IT_number           2
_space_group_name_Hall           '-P 1'
_space_group_name_H-M_alt        'P -1'
_atom_sites_solution_hydrogens   geom
_atom_sites_solution_primary     direct
_audit_creation_date             2017-02-28
_audit_creation_method
;
Olex2 1.2
(compiled 2017.01.04 svn.r3372 for OlexSys, GUI svn.r5292)
;
_cell_angle_alpha                81.641(9)
_cell_angle_beta                 82.204(10)
_cell_angle_gamma                80.603(10)
_cell_formula_units_Z            2
_cell_length_a                   4.6612(6)
_cell_length_b                   8.2732(9)
_cell_length_c                   15.4139(18)
_cell_measurement_reflns_used    888
_cell_measurement_temperature    293(2)
_cell_measurement_theta_max      69.6810
_cell_measurement_theta_min      5.4440
_cell_volume                     576.37(12)
_computing_cell_refinement
;
CrysAlisPro, Agilent Technologies,
Version 1.171.37.35 (release 13-08-2014 CrysAlis171 .NET)
(compiled Aug 13 2014,18:06:01)
;
_computing_data_collection
;
CrysAlisPro, Agilent Technologies,
Version 1.171.37.35 (release 13-08-2014 CrysAlis171 .NET)
(compiled Aug 13 2014,18:06:01)
;
_computing_data_reduction
;
CrysAlisPro, Agilent Technologies,
Version 1.171.37.35 (release 13-08-2014 CrysAlis171 .NET)
(compiled Aug 13 2014,18:06:01)
;
_computing_molecular_graphics    'Olex2 (Dolomanov et al., 2009)'
_computing_publication_material  'Olex2 (Dolomanov et al., 2009)'
_computing_structure_refinement  'ShelXL (Sheldrick, 2015)'
_computing_structure_solution    'ShelXS (Sheldrick, 2008)'
_diffrn_ambient_temperature      293(2)
_diffrn_detector                 'CCD plate'
_diffrn_detector_area_resol_mean 16.2312
_diffrn_detector_type            Eos
_diffrn_measured_fraction_theta_full 0.995
_diffrn_measured_fraction_theta_max 0.971
_diffrn_measurement_details
;
#__ type_ start__ end____ width___ exp.time_
  1 omega  -49.00   37.00   1.0000    1.5000
omega____ theta____ kappa____ phi______ frames
    -      -33.5000   37.0000 -180.0000 86

#__ type_ start__ end____ width___ exp.time_
  2 omega -108.00  -32.00   1.0000    1.5000
omega____ theta____ kappa____ phi______ frames
    -      -33.5000  178.0000 -120.0000 76

#__ type_ start__ end____ width___ exp.time_
  3 omega -102.00  -15.00   1.0000    1.5000
omega____ theta____ kappa____ phi______ frames
    -      -33.5000  -57.0000   30.0000 87

#__ type_ start__ end____ width___ exp.time_
  4 omega    6.00   83.00   1.0000    1.5000
omega____ theta____ kappa____ phi______ frames
    -       36.4734 -110.0000  159.0000 77

#__ type_ start__ end____ width___ exp.time_
  5 omega  -32.00   55.00   1.0000    1.5000
omega____ theta____ kappa____ phi______ frames
    -       36.4734  -57.0000  -90.0000 87

#__ type_ start__ end____ width___ exp.time_
  6 omega   57.00  110.00   1.0000    1.5000
omega____ theta____ kappa____ phi______ frames
    -       36.4734  178.0000  -30.0000 53

#__ type_ start__ end____ width___ exp.time_
  7 omega   14.00  107.00   1.0000    1.5000
omega____ theta____ kappa____ phi______ frames
    -       36.4734   37.0000  -90.0000 93

#__ type_ start__ end____ width___ exp.time_
  8 omega  -34.00   59.00   1.0000    1.5000
omega____ theta____ kappa____ phi______ frames
    -       36.4734  -37.0000  -30.0000 93

#__ type_ start__ end____ width___ exp.time_
  9 omega   -4.00   77.00   1.0000    1.5000
omega____ theta____ kappa____ phi______ frames
    -       36.4734  -99.0000   30.0000 81

#__ type_ start__ end____ width___ exp.time_
 10 omega   37.00  115.00   1.0000   11.5000
omega____ theta____ kappa____ phi______ frames
    -      108.0000 -111.0000   30.0000 78

#__ type_ start__ end____ width___ exp.time_
 11 omega   38.00  109.00   1.0000   11.5000
omega____ theta____ kappa____ phi______ frames
    -      108.0000  -94.0000  120.0000 71

#__ type_ start__ end____ width___ exp.time_
 12 omega   37.00   91.00   1.0000   11.5000
omega____ theta____ kappa____ phi______ frames
    -      108.0000  -30.0000 -120.0000 54

#__ type_ start__ end____ width___ exp.time_
 13 omega   57.00  150.00   1.0000   11.5000
omega____ theta____ kappa____ phi______ frames
    -      108.0000  178.0000  -90.0000 93

#__ type_ start__ end____ width___ exp.time_
 14 omega   38.00   83.00   1.0000   11.5000
omega____ theta____ kappa____ phi______ frames
    -      108.0000  -45.0000  -30.0000 45

#__ type_ start__ end____ width___ exp.time_
 15 omega   85.00  155.00   1.0000   11.5000
omega____ theta____ kappa____ phi______ frames
    -      108.0000   30.0000   60.0000 70

#__ type_ start__ end____ width___ exp.time_
 16 omega   48.00   77.00   1.0000   11.5000
omega____ theta____ kappa____ phi______ frames
    -      108.0000  -30.0000  120.0000 29

#__ type_ start__ end____ width___ exp.time_
 17 omega   50.00  119.00   1.0000   11.5000
omega____ theta____ kappa____ phi______ frames
    -      108.0000  -61.0000   60.0000 69

#__ type_ start__ end____ width___ exp.time_
 18 omega  110.00  137.00   1.0000   11.5000
omega____ theta____ kappa____ phi______ frames
    -      108.0000  -77.0000 -180.0000 27

#__ type_ start__ end____ width___ exp.time_
 19 omega   91.00  122.00   1.0000   11.5000
omega____ theta____ kappa____ phi______ frames
    -      108.0000  -61.0000  -30.0000 31

#__ type_ start__ end____ width___ exp.time_
 20 omega   45.00   71.00   1.0000   11.5000
omega____ theta____ kappa____ phi______ frames
    -      108.0000  -61.0000  -30.0000 26

#__ type_ start__ end____ width___ exp.time_
 21 omega   46.00  104.00   1.0000   11.5000
omega____ theta____ kappa____ phi______ frames
    -      108.0000  -94.0000  -90.0000 58

#__ type_ start__ end____ width___ exp.time_
 22 omega   45.00   88.00   1.0000   11.5000
omega____ theta____ kappa____ phi______ frames
    -      108.0000  -30.0000  150.0000 43

#__ type_ start__ end____ width___ exp.time_
 23 omega   37.00   75.00   1.0000   11.5000
omega____ theta____ kappa____ phi______ frames
    -      108.0000  -30.0000 -150.0000 38

#__ type_ start__ end____ width___ exp.time_
 24 omega   41.00   90.00   1.0000   11.5000
omega____ theta____ kappa____ phi______ frames
    -      108.0000  -77.0000 -180.0000 49

#__ type_ start__ end____ width___ exp.time_
 25 omega   63.00  178.00   1.0000   11.5000
omega____ theta____ kappa____ phi______ frames
    -      108.0000   15.0000  150.0000 115
;
_diffrn_measurement_device       'four-circle diffractometer'
_diffrn_measurement_device_type  'Xcalibur, Eos, Gemini'
_diffrn_measurement_method       '\w scans'
_diffrn_orient_matrix_UB_11      0.0502963000
_diffrn_orient_matrix_UB_12      -0.1055520000
_diffrn_orient_matrix_UB_13      0.0890454000
_diffrn_orient_matrix_UB_21      -0.0276743000
_diffrn_orient_matrix_UB_22      0.1582956000
_diffrn_orient_matrix_UB_23      0.0440868000
_diffrn_orient_matrix_UB_31      -0.3323043000
_diffrn_orient_matrix_UB_32      -0.0008815000
_diffrn_orient_matrix_UB_33      0.0216380000
_diffrn_radiation_monochromator  graphite
_diffrn_radiation_probe          x-ray
_diffrn_radiation_type           CuK\a
_diffrn_radiation_wavelength     1.54184
_diffrn_reflns_av_R_equivalents  0.0376
_diffrn_reflns_av_unetI/netI     0.0515
_diffrn_reflns_Laue_measured_fraction_full 0.995
_diffrn_reflns_Laue_measured_fraction_max 0.971
_diffrn_reflns_limit_h_max       3
_diffrn_reflns_limit_h_min       -5
_diffrn_reflns_limit_k_max       8
_diffrn_reflns_limit_k_min       -9
_diffrn_reflns_limit_l_max       17
_diffrn_reflns_limit_l_min       -18
_diffrn_reflns_number            4165
_diffrn_reflns_point_group_measured_fraction_full 0.995
_diffrn_reflns_point_group_measured_fraction_max 0.971
_diffrn_reflns_theta_full        67.684
_diffrn_reflns_theta_max         70.821
_diffrn_reflns_theta_min         5.463
_diffrn_source                   'Enhance (Cu) X-ray Source'
_exptl_absorpt_coefficient_mu    1.374
_exptl_absorpt_correction_T_max  1.00000
_exptl_absorpt_correction_T_min  0.90656
_exptl_absorpt_correction_type   multi-scan
_exptl_absorpt_process_details
;
CrysAlisPro, Agilent Technologies,
Version 1.171.37.35 (release 13-08-2014 CrysAlis171 .NET)
(compiled Aug 13 2014,18:06:01)
Empirical absorption correction using spherical harmonics,
 implemented in SCALE3 ABSPACK scaling algorithm.
;
_exptl_crystal_colour            yellow
_exptl_crystal_colour_primary    yellow
_exptl_crystal_density_diffrn    1.603
_exptl_crystal_description       needle
_exptl_crystal_F_000             284
_exptl_crystal_size_max          0.18
_exptl_crystal_size_mid          0.08
_exptl_crystal_size_min          0.06
_refine_diff_density_max         0.199
_refine_diff_density_min         -0.200
_refine_diff_density_rms         0.047
_refine_ls_extinction_method     none
_refine_ls_goodness_of_fit_ref   1.015
_refine_ls_hydrogen_treatment    constr
_refine_ls_matrix_type           full
_refine_ls_number_parameters     183
_refine_ls_number_reflns         2162
_refine_ls_number_restraints     1
_refine_ls_restrained_S_all      1.015
_refine_ls_R_factor_all          0.0752
_refine_ls_R_factor_gt           0.0503
_refine_ls_shift/su_max          0.001
_refine_ls_shift/su_mean         0.000
_refine_ls_structure_factor_coef Fsqd
_refine_ls_weighting_details
'w=1/[\s^2^(Fo^2^)+(0.0731P)^2^] where P=(Fo^2^+2Fc^2^)/3'
_refine_ls_weighting_scheme      calc
_refine_ls_wR_factor_gt          0.1320
_refine_ls_wR_factor_ref         0.1524
_reflns_Friedel_coverage         0.000
_reflns_number_gt                1480
_reflns_number_total             2162
_reflns_threshold_expression     'I > 2\s(I)'
_iucr_refine_instructions_details
;

    20170213.res created by SHELXL-2014/7

TITL 20170213 in P-1 #2
REM reset to P-1 #2
CELL 1.54184 4.66121 8.273225 15.413868 81.6407 82.2037 80.6027
ZERR 2 0.000572 0.000921 0.001796 0.0094 0.01 0.0098
LATT 1
SFAC C H F N O
UNIT 20 18 6 4 8
DFIX 2.1 F1A F3A
EADP F2 F2A
EADP F3 F3A
EADP F1 F1A
 
L.S. 4 0 0
PLAN  20
HTAB N1 O2
BOND $h
conf
fmap 2
acta
REM <olex2.extras>
REM <HklSrc "%.\\20170213.hkl">
REM </olex2.extras>
 
WGHT    0.073100
FVAR       9.78008   0.85957
C1    1   -0.123748    0.872845    0.705290    11.00000    0.05009    0.03989 =
         0.04677   -0.00694   -0.00706   -0.00796
C2    1   -0.049208    1.030857    0.674686    11.00000    0.04692    0.03741 =
         0.04252   -0.00562   -0.00704   -0.00341
C3    1    0.094408    1.114652    0.723923    11.00000    0.05351    0.03609 =
         0.05086   -0.00410   -0.00713   -0.00945
AFIX  43
H3    2    0.141828    1.218697    0.701377    11.00000   -1.20000
AFIX   0
C4    1    0.165284    1.043108    0.805579    11.00000    0.05580    0.04498 =
         0.05278   -0.00841   -0.01380   -0.00973
C5    1    0.096883    0.885352    0.837470    11.00000    0.08347    0.04918 =
         0.04709    0.00084   -0.02285   -0.01599
AFIX  43
H5    2    0.148090    0.835030    0.892314    11.00000   -1.20000
AFIX   0
C6    1   -0.045723    0.803497    0.788493    11.00000    0.07779    0.04246 =
         0.05381    0.00174   -0.01458   -0.02058
AFIX  43
H6    2   -0.091183    0.699249    0.811505    11.00000   -1.20000
AFIX   0
C7    1   -0.288222    0.625679    0.664849    11.00000    0.04969    0.04486 =
         0.04893   -0.00435   -0.00870   -0.01255
C8    1   -0.467687    0.578683    0.601592    11.00000    0.07084    0.04727 =
         0.07054   -0.00651   -0.02090   -0.01663
AFIX 137
H8A   2   -0.342166    0.515824    0.559898    11.00000   -1.50000
H8B   2   -0.566653    0.676731    0.570779    11.00000   -1.50000
H8C   2   -0.609373    0.513346    0.633520    11.00000   -1.50000
AFIX   0
C9    1    0.332895    1.280307    0.838488    11.00000    0.06065    0.05174 =
         0.05513   -0.00796   -0.01289   -0.01714
AFIX  23
H9A   2    0.150177    1.344527    0.822340    11.00000   -1.20000
H9B   2    0.482786    1.293752    0.788881    11.00000   -1.20000
AFIX   0
C10   1    0.418317    1.337126    0.917868    11.00000    0.05833    0.06615 =
         0.06105   -0.01224   -0.00972   -0.02481
PART 1
F1    3    0.229651    1.315940    0.990166    21.00000    0.08575    0.11982 =
         0.05617   -0.02248    0.00234   -0.04239
PART 0
PART 2
F1A   3    0.191178    1.358818    0.968463   -21.00000    0.08575    0.11982 =
         0.05617   -0.02248    0.00234   -0.04239
PART 0
PART 1
F2    3    0.676886    1.257065    0.938796    21.00000    0.05713    0.12998 =
         0.09055   -0.03004   -0.02652   -0.01415
PART 0
PART 2
F2A   3    0.591828    1.235497    0.961479   -21.00000    0.05713    0.12998 =
         0.09055   -0.03004   -0.02652   -0.01415
PART 0
PART 1
F3    3    0.440345    1.499690    0.901304    21.00000    0.13533    0.06309 =
         0.08514   -0.01899   -0.02828   -0.03667
PART 0
PART 2
F3A   3    0.563866    1.446249    0.902527   -21.00000    0.13533    0.06309 =
         0.08514   -0.01899   -0.02828   -0.03667
PART 0
N1    4   -0.273460    0.791471    0.656513    11.00000    0.05962    0.04116 =
         0.05084   -0.00092   -0.01548   -0.01089
AFIX  43
H1    2   -0.367636    0.852596    0.616473    11.00000   -1.20000
AFIX   0
N2    4   -0.114240    1.117946    0.588706    11.00000    0.05899    0.04032 =
         0.04627   -0.00626   -0.01097   -0.00365
O1    5   -0.164257    0.524412    0.717350    11.00000    0.09417    0.04427 =
         0.07165   -0.00033   -0.03417   -0.01146
O2    5   -0.296236    1.072950    0.549905    11.00000    0.08306    0.05468 =
         0.06396    0.00408   -0.03420   -0.01189
O3    5    0.013347    1.234524    0.557529    11.00000    0.09620    0.05182 =
         0.05235    0.00520   -0.01313   -0.02772
O4    5    0.300872    1.112830    0.860516    11.00000    0.08218    0.05045 =
         0.06131   -0.00321   -0.03100   -0.01659
HKLF 4
 
REM  20170213 in P-1 #2
REM R1 =  0.0503 for    1480 Fo > 4sig(Fo)  and  0.0752 for all    2162 data
REM    183 parameters refined using      1 restraints
 
END  
     
WGHT      0.0736      0.0000 

REM Highest difference peak  0.199,  deepest hole -0.200,  1-sigma level  0.047
Q1    1  -0.0026  0.9418  0.6679  11.00000  0.05    0.20
Q2    1  -0.1397  1.0002  0.7007  11.00000  0.05    0.20
Q3    1   0.2765  1.4607  0.9403  11.00000  0.05    0.20
Q4    1   0.0547  1.0351  0.6966  11.00000  0.05    0.19
Q5    1  -0.4042  0.6369  0.5380  11.00000  0.05    0.17
Q6    1   0.1892  1.0634  0.7446  11.00000  0.05    0.17
Q7    1  -0.1870  0.5252  0.7791  11.00000  0.05    0.16
Q8    1  -0.1462  0.8601  0.7600  11.00000  0.05    0.16
Q9    1   0.0160  0.8955  0.8030  11.00000  0.05    0.16
Q10   1  -0.3197  0.5742  0.7201  11.00000  0.05    0.15
Q11   1  -0.0926  0.8474  0.7433  11.00000  0.05    0.15
Q12   1   0.1621  1.1630  0.5829  11.00000  0.05    0.15
Q13   1  -0.0452  0.5924  0.6876  11.00000  0.05    0.15
Q14   1   0.2878  1.0805  0.9176  11.00000  0.05    0.15
Q15   1  -0.3100  1.0963  0.4820  11.00000  0.05    0.15
Q16   1  -0.6919  0.6142  0.6431  11.00000  0.05    0.15
Q17   1  -0.1089  0.8335  0.6200  11.00000  0.05    0.14
Q18   1   0.0124  0.8621  0.9178  11.00000  0.05    0.14
Q19   1   0.1063  1.1850  0.5984  11.00000  0.05    0.14
Q20   1   0.3081  1.3324  0.7920  11.00000  0.05    0.14

  REM The information below was added by Olex2.
  REM
  REM R1 = 0.0503 for 1480 Fo > 4sig(Fo) and 0.0752 for all 4165 data
  REM n/a parameters refined using n/a restraints
  REM Highest difference peak 0.20, deepest hole -0.20
  REM Mean Shift 0, Max Shift -0.001.

  REM +++ Tabular Listing of Refinement Information +++
  REM R1_all = 0.0752
  REM R1_gt = 0.0503
  REM wR_ref = 0.1524
  REM GOOF = 1.015
  REM Shift_max = -0.001
  REM Shift_mean = 0
  REM Reflections_all = 4165
  REM Reflections_gt = 1480
  REM Parameters = n/a
  REM Hole = -0.20
  REM Peak = 0.20
  REM Flack = n/a

  
;
_cod_data_source_file            jo8b02636_si_002.cif
_cod_data_source_block           20170213
_cod_original_cell_volume        576.38(12)
_cod_database_code               4036007
_shelx_shelxl_version_number     2014/7
_chemical_oxdiff_formula         C54H82N2O1
_shelx_space_group_comment
;
The symmetry employed for this shelxl refinement is uniquely defined
by the following loop, which should always be used as a source of
symmetry information in preference to the above space-group names.
They are only intended as comments.
;
_reflns_odcompleteness_completeness 99.71
_reflns_odcompleteness_iscentric 1
_reflns_odcompleteness_theta     66.97
_olex2_refinement_description
;
1. Fixed Uiso
 At 1.2 times of:
  All C(H) groups, All C(H,H) groups, All N(H) groups
 At 1.5 times of:
  All C(H,H,H) groups
2. Restrained distances
 F1A-F3A
 2.1 with sigma of 0.02
3. Uiso/Uaniso restraints and constraints
Uanis(F2) = Uanis(F2A)
Uanis(F3) = Uanis(F3A)
Uanis(F1) = Uanis(F1A)
4. Others
 Sof(F1A)=Sof(F2A)=Sof(F3A)=1-FVAR(1)
 Sof(F1)=Sof(F2)=Sof(F3)=FVAR(1)
5.a Secondary CH2 refined with riding coordinates:
 C9(H9A,H9B)
5.b Aromatic/amide H refined with riding coordinates:
 C3(H3), C5(H5), C6(H6), N1(H1)
5.c Idealised Me refined as rotating group:
 C8(H8A,H8B,H8C)
;
_olex2_submission_special_instructions 'No special instructions were received'
loop_
_space_group_symop_operation_xyz
'x, y, z'
'-x, -y, -z'
loop_
_atom_site_label
_atom_site_type_symbol
_atom_site_fract_x
_atom_site_fract_y
_atom_site_fract_z
_atom_site_U_iso_or_equiv
_atom_site_adp_type
_atom_site_occupancy
_atom_site_site_symmetry_order
_atom_site_calc_flag
_atom_site_refinement_flags_posn
_atom_site_refinement_flags_occupancy
_atom_site_disorder_assembly
_atom_site_disorder_group
C1 C -0.1237(5) 0.8728(3) 0.70529(16) 0.0451(5) Uani 1 1 d . . . .
C2 C -0.0492(5) 1.0309(3) 0.67469(15) 0.0424(5) Uani 1 1 d . . . .
C3 C 0.0944(5) 1.1147(3) 0.72392(17) 0.0465(5) Uani 1 1 d . . . .
H3 H 0.1418 1.2187 0.7014 0.056 Uiso 1 1 calc R . . .
C4 C 0.1653(6) 1.0431(3) 0.80558(17) 0.0500(6) Uani 1 1 d . . . .
C5 C 0.0969(7) 0.8854(3) 0.83747(18) 0.0585(7) Uani 1 1 d . . . .
H5 H 0.1481 0.8350 0.8923 0.070 Uiso 1 1 calc R . . .
C6 C -0.0457(7) 0.8035(3) 0.78849(19) 0.0568(6) Uani 1 1 d . . . .
H6 H -0.0912 0.6992 0.8115 0.068 Uiso 1 1 calc R . . .
C7 C -0.2882(5) 0.6257(3) 0.66485(16) 0.0471(5) Uani 1 1 d . . . .
C8 C -0.4677(7) 0.5787(3) 0.6016(2) 0.0609(7) Uani 1 1 d . . . .
H8A H -0.3422 0.5158 0.5599 0.091 Uiso 1 1 calc GR . . .
H8B H -0.5667 0.6767 0.5708 0.091 Uiso 1 1 calc GR . . .
H8C H -0.6094 0.5133 0.6335 0.091 Uiso 1 1 calc GR . . .
C9 C 0.3329(6) 1.2803(3) 0.83849(18) 0.0541(6) Uani 1 1 d . . . .
H9A H 0.1502 1.3445 0.8223 0.065 Uiso 1 1 calc R . . .
H9B H 0.4828 1.2938 0.7889 0.065 Uiso 1 1 calc R . . .
C10 C 0.4183(6) 1.3371(4) 0.9179(2) 0.0594(7) Uani 1 1 d . . . .
F1 F 0.2297(10) 1.3159(8) 0.9902(3) 0.0840(12) Uani 0.860(17) 1 d . P A 1
F1A F 0.191(6) 1.359(5) 0.968(2) 0.0840(12) Uani 0.140(17) 1 d D P A 2
F2 F 0.6769(12) 1.2571(6) 0.9388(4) 0.0892(12) Uani 0.860(17) 1 d . P A 1
F2A F 0.592(6) 1.235(4) 0.961(2) 0.0892(12) Uani 0.140(17) 1 d . P A 2
F3 F 0.4403(16) 1.4997(7) 0.9013(2) 0.0896(14) Uani 0.860(17) 1 d . P A 1
F3A F 0.564(7) 1.446(4) 0.9025(16) 0.0896(14) Uani 0.140(17) 1 d D P A 2
N1 N -0.2735(5) 0.7915(2) 0.65651(14) 0.0498(5) Uani 1 1 d . . . .
H1 H -0.3676 0.8526 0.6165 0.060 Uiso 1 1 calc R . . .
N2 N -0.1142(5) 1.1179(2) 0.58871(14) 0.0484(5) Uani 1 1 d . . . .
O1 O -0.1643(5) 0.5244(2) 0.71735(15) 0.0683(6) Uani 1 1 d . . . .
O2 O -0.2962(5) 1.0729(2) 0.54991(14) 0.0658(6) Uani 1 1 d . . . .
O3 O 0.0133(5) 1.2345(2) 0.55753(13) 0.0656(6) Uani 1 1 d . . . .
O4 O 0.3009(5) 1.1128(2) 0.86052(13) 0.0621(5) Uani 1 1 d . . . .
loop_
_atom_site_aniso_label
_atom_site_aniso_U_11
_atom_site_aniso_U_22
_atom_site_aniso_U_33
_atom_site_aniso_U_23
_atom_site_aniso_U_13
_atom_site_aniso_U_12
C1 0.0501(12) 0.0399(12) 0.0468(12) -0.0069(9) -0.0071(10) -0.0080(9)
C2 0.0469(11) 0.0374(11) 0.0425(11) -0.0056(9) -0.0070(9) -0.0034(9)
C3 0.0535(13) 0.0361(11) 0.0509(13) -0.0041(9) -0.0071(10) -0.0094(9)
C4 0.0558(13) 0.0450(13) 0.0528(14) -0.0084(10) -0.0138(11) -0.0097(10)
C5 0.0835(19) 0.0492(14) 0.0471(14) 0.0008(11) -0.0229(13) -0.0160(13)
C6 0.0778(17) 0.0425(13) 0.0538(14) 0.0017(11) -0.0146(13) -0.0206(12)
C7 0.0497(12) 0.0449(12) 0.0489(13) -0.0043(10) -0.0087(10) -0.0126(10)
C8 0.0708(17) 0.0473(14) 0.0705(18) -0.0065(12) -0.0209(14) -0.0166(12)
C9 0.0607(15) 0.0517(14) 0.0551(14) -0.0080(11) -0.0129(12) -0.0171(11)
C10 0.0583(15) 0.0661(17) 0.0611(16) -0.0122(13) -0.0097(13) -0.0248(13)
F1 0.0858(18) 0.120(3) 0.056(2) -0.0225(18) 0.0023(15) -0.042(2)
F1A 0.0858(18) 0.120(3) 0.056(2) -0.0225(18) 0.0023(15) -0.042(2)
F2 0.057(2) 0.130(2) 0.091(3) -0.030(2) -0.0265(18) -0.0141(18)
F2A 0.057(2) 0.130(2) 0.091(3) -0.030(2) -0.0265(18) -0.0141(18)
F3 0.135(4) 0.063(2) 0.0851(14) -0.0190(14) -0.0283(18) -0.037(2)
F3A 0.135(4) 0.063(2) 0.0851(14) -0.0190(14) -0.0283(18) -0.037(2)
N1 0.0596(12) 0.0412(10) 0.0508(11) -0.0009(8) -0.0155(9) -0.0109(9)
N2 0.0590(12) 0.0403(10) 0.0463(11) -0.0063(8) -0.0110(9) -0.0037(9)
O1 0.0942(15) 0.0443(10) 0.0716(13) -0.0003(9) -0.0342(11) -0.0115(9)
O2 0.0831(13) 0.0547(11) 0.0640(12) 0.0041(9) -0.0342(11) -0.0119(9)
O3 0.0962(15) 0.0518(11) 0.0523(11) 0.0052(8) -0.0131(10) -0.0277(10)
O4 0.0822(13) 0.0505(10) 0.0613(11) -0.0032(8) -0.0310(10) -0.0166(9)
loop_
_atom_type_symbol
_atom_type_description
_atom_type_scat_dispersion_real
_atom_type_scat_dispersion_imag
_atom_type_scat_source
C C 0.0181 0.0091 'International Tables Vol C Tables 4.2.6.8 and 6.1.1.4'
H H 0.0000 0.0000 'International Tables Vol C Tables 4.2.6.8 and 6.1.1.4'
F F 0.0727 0.0534 'International Tables Vol C Tables 4.2.6.8 and 6.1.1.4'
N N 0.0311 0.0180 'International Tables Vol C Tables 4.2.6.8 and 6.1.1.4'
O O 0.0492 0.0322 'International Tables Vol C Tables 4.2.6.8 and 6.1.1.4'
loop_
_geom_angle_atom_site_label_1
_geom_angle_atom_site_label_2
_geom_angle_atom_site_label_3
_geom_angle
C6 C1 C2 116.1(2)
N1 C1 C2 122.1(2)
N1 C1 C6 121.8(2)
C1 C2 N2 122.2(2)
C3 C2 C1 122.5(2)
C3 C2 N2 115.3(2)
C2 C3 H3 120.1
C4 C3 C2 119.8(2)
C4 C3 H3 120.1
C3 C4 C5 119.2(2)
O4 C4 C3 125.4(2)
O4 C4 C5 115.4(2)
C4 C5 H5 119.6
C6 C5 C4 120.7(2)
C6 C5 H5 119.6
C1 C6 H6 119.1
C5 C6 C1 121.8(2)
C5 C6 H6 119.1
N1 C7 C8 114.1(2)
O1 C7 C8 122.2(2)
O1 C7 N1 123.7(2)
C7 C8 H8A 109.5
C7 C8 H8B 109.5
C7 C8 H8C 109.5
H8A C8 H8B 109.5
H8A C8 H8C 109.5
H8B C8 H8C 109.5
H9A C9 H9B 108.5
C10 C9 H9A 110.2
C10 C9 H9B 110.2
O4 C9 H9A 110.2
O4 C9 H9B 110.2
O4 C9 C10 107.3(2)
F1 C10 C9 114.0(3)
F1 C10 F2 106.2(3)
F1 C10 F3 107.4(3)
F1A C10 C9 105.7(15)
F1A C10 F2A 105.1(17)
F2 C10 C9 111.6(3)
F2 C10 F3 107.6(3)
F2A C10 C9 116.0(15)
F3 C10 C9 109.7(3)
F3A C10 C9 115.2(12)
F3A C10 F1A 117(2)
F3A C10 F2A 97.3(17)
C1 N1 H1 116.1
C7 N1 C1 127.7(2)
C7 N1 H1 116.1
O2 N2 C2 119.5(2)
O3 N2 C2 118.5(2)
O3 N2 O2 121.9(2)
C4 O4 C9 117.8(2)
loop_
_geom_bond_atom_site_label_1
_geom_bond_atom_site_label_2
_geom_bond_distance
C1 C2 1.406(3)
C1 C6 1.397(4)
C1 N1 1.396(3)
C2 C3 1.395(4)
C2 N2 1.459(3)
C3 H3 0.9300
C3 C4 1.370(4)
C4 C5 1.398(4)
C4 O4 1.362(3)
C5 H5 0.9300
C5 C6 1.379(4)
C6 H6 0.9300
C7 C8 1.496(4)
C7 N1 1.371(3)
C7 O1 1.209(3)
C8 H8A 0.9600
C8 H8B 0.9600
C8 H8C 0.9600
C9 H9A 0.9700
C9 H9B 0.9700
C9 C10 1.496(4)
C9 O4 1.405(3)
C10 F1 1.332(5)
C10 F1A 1.23(3)
C10 F2 1.333(5)
C10 F2A 1.25(3)
C10 F3 1.350(5)
C10 F3A 1.19(2)
N1 H1 0.8600
N2 O2 1.233(3)
N2 O3 1.221(3)
loop_
_geom_hbond_atom_site_label_D
_geom_hbond_atom_site_label_H
_geom_hbond_atom_site_label_A
_geom_hbond_distance_DH
_geom_hbond_distance_HA
_geom_hbond_distance_DA
_geom_hbond_angle_DHA
N1 H1 O2 0.86 2.01 2.644(3) 129.5
loop_
_geom_torsion_atom_site_label_1
_geom_torsion_atom_site_label_2
_geom_torsion_atom_site_label_3
_geom_torsion_atom_site_label_4
_geom_torsion
C1 C2 C3 C4 -0.6(4)
C1 C2 N2 O2 17.3(3)
C1 C2 N2 O3 -163.1(2)
C2 C1 C6 C5 -0.2(4)
C2 C1 N1 C7 160.1(2)
C2 C3 C4 C5 1.2(4)
C2 C3 C4 O4 -178.9(2)
C3 C2 N2 O2 -163.3(2)
C3 C2 N2 O3 16.3(3)
C3 C4 C5 C6 -1.4(4)
C3 C4 O4 C9 10.0(4)
C4 C5 C6 C1 0.9(5)
C5 C4 O4 C9 -170.1(3)
C6 C1 C2 C3 0.0(4)
C6 C1 C2 N2 179.4(2)
C6 C1 N1 C7 -21.5(4)
C8 C7 N1 C1 -179.8(2)
C10 C9 O4 C4 166.5(2)
N1 C1 C2 C3 178.5(2)
N1 C1 C2 N2 -2.2(4)
N1 C1 C6 C5 -178.6(3)
N2 C2 C3 C4 -180.0(2)
O1 C7 N1 C1 -1.0(4)
O4 C4 C5 C6 178.7(3)
O4 C9 C10 F1 -57.1(5)
O4 C9 C10 F1A -77.8(19)
O4 C9 C10 F2 63.3(4)
O4 C9 C10 F2A 38.2(18)
O4 C9 C10 F3 -177.5(4)
O4 C9 C10 F3A 151(2)
loop_
_refln_index_h
_refln_index_k
_refln_index_l
_refln_F_squared_meas
_refln_F_squared_sigma
_refln_scale_group_code
0 0 2 10334.8 475.401 2
0 0 -2 9479.74 586.497 3
0 0 3 10871.2 678.429 7
0 0 -3 11097.4 774.348 3
0 0 3 10730 603.047 2
0 0 -4 45527.3 1858.32 3
0 0 4 45228.4 1653.14 7
0 0 4 43561.9 1505.47 2
0 0 5 1601.1 334.178 2
0 0 5 1807.24 461.875 8
0 0 -5 2331.34 516.143 3
0 0 -6 360.247 271.715 3
0 0 6 477.493 231.298 2
0 0 6 644.733 299.287 7
0 0 6 79.5764 231.688 8
0 0 7 55923.4 2524.26 7
0 0 -7 55425.8 2835.95 3
0 0 7 61189 2323.61 2
0 0 7 56400.4 2973.12 8
0 0 8 63245.8 3385.96 8
0 0 8 67517.4 3296.46 9
0 0 8 60808.9 2812.75 7
0 0 -8 59793.5 3216.33 3
0 0 9 3529.25 900.788 8
0 0 9 4036.85 814.609 7
0 0 9 3564.81 813.312 9
0 0 -9 3871.18 918.119 3
0 0 -10 1218.52 552.483 3
0 0 10 -37.8926 257.566 9
0 0 10 814.724 488.923 8
0 0 -11 4834.67 1125.15 3
0 0 11 6320.66 1318.24 8
0 0 11 4877.56 1104.08 9
0 0 12 1245.63 228.149 25
0 0 13 137.11 150.114 14
0 0 14 2019.9 313.39 14
0 0 15 1903.7 291.135 14
0 0 16 2756.34 322.822 14
0 0 -16 3011.06 336.523 15
0 0 -17 372.252 141.791 15
0 0 -18 1462.71 186.199 15
0 1 -18 94.7686 77.9545 15
0 1 -17 1308.92 197.208 15
0 -1 16 133.579 119.056 14
0 1 -16 302.541 149.239 15
0 -1 15 619.716 199.972 14
0 -1 14 917.671 231.046 25
0 -1 13 170.631 150.285 25
0 -1 12 3040.02 349.573 25
0 -1 11 -243.714 494.657 8
0 -1 11 -1212.53 643.056 9
0 -1 10 7634.22 1392.3 9
0 1 -10 5802.38 1108.93 3
0 -1 10 6345.75 1329.86 8
0 1 -9 -36.9185 369.647 3
0 -1 9 118.498 396.225 8
0 1 -8 77289.8 3716.55 3
0 -1 8 76100.4 3298.3 7
0 -1 8 83683.4 3393.78 2
0 -1 8 71092.4 3766.13 8
0 -1 7 3666.21 661.865 7
0 1 -7 3636.37 769.328 3
0 -1 7 3373.8 650.349 2
0 -1 7 3285.12 767.624 8
0 -1 6 75756.1 3314.01 8
0 1 -6 80265.9 3246.7 3
0 -1 6 81568.6 2968.27 2
0 -1 5 53512.1 2213.17 2
0 1 -5 49804.4 2323.13 3
0 -1 5 52929.6 2489.58 8
0 -1 4 14146.4 1013.97 2
0 1 -4 14019.7 1086.03 3
0 -1 3 501352 8194.84 5
0 1 -3 505186 8249.3 3
0 1 -2 273415 4805.45 3
0 -1 2 269225 4729.54 5
0 1 -1 107145 2284.95 1
0 -1 1 101659 2170.15 5
0 1 0 43934 1240.59 1
0 1 1 37969.7 916.08 9
0 1 1 38975.4 1209.02 1
0 1 2 16560.5 647.736 9
0 -1 -2 15681.2 796.019 3
0 1 3 42222.6 1525.35 7
0 -1 -3 38884.4 1509.56 3
0 1 3 40099.5 1292.29 9
0 1 4 6202.04 595.313 9
0 1 4 7437.88 782.658 8
0 -1 -4 6363.06 695.871 3
0 1 5 243027 5133.12 9
0 1 5 258956 5893.71 8
0 1 5 262196 5377.42 7
0 -1 -5 247455 5557.3 3
0 1 5 249180 4187.68 2
0 1 6 3084.28 641.55 8
0 1 6 3727.08 610.346 7
0 -1 -6 3631.48 679.789 3
0 1 6 4148.68 419.619 2
0 1 6 4173.99 633.632 9
0 1 7 31605.2 2209.09 8
0 1 7 34508.6 1975.82 7
0 1 7 34265 1981.35 9
0 -1 -7 35795.2 2215.83 3
0 1 8 302.124 283.406 7
0 1 8 177.48 339.156 8
0 -1 -8 359.992 324.321 3
0 1 8 103.918 219.393 9
0 1 9 297.015 316.413 7
0 1 9 761.53 479.493 8
0 -1 -9 750.63 426.512 3
0 1 9 1191.79 522.872 9
0 -1 -10 10670 1533.97 3
0 1 10 10892 1612.42 8
0 1 11 11452.6 1743.16 8
0 -1 -11 12475.8 1774.88 3
0 1 12 744.019 198.85 14
0 1 13 417 173.194 14
0 -1 -14 2774.53 338.199 15
0 1 14 2467.1 332.355 14
0 1 15 380.002 171.475 14
0 -1 -15 227.435 142.422 15
0 -1 -16 2297.25 295.799 15
0 -1 -17 594.016 158.018 15
0 -1 -18 132.304 109.286 15
0 2 -17 231.659 104.019 15
0 -2 16 1412.39 226.526 14
0 -2 15 1174.78 219.391 14
0 -2 14 817.569 224.194 25
0 -2 13 -75.2478 127.879 25
0 -2 12 482.389 184.421 25
0 -2 11 692.245 175.056 25
0 -2 10 1658.78 831.426 8
0 -2 9 2414.64 752.274 8
0 2 -9 2282.41 701.587 3
0 2 -8 281.22 390.221 3
0 -2 8 586.816 416.705 8
0 -2 8 526.807 371.328 2
0 -2 7 14053.6 1633.92 8
0 2 -7 14037.1 1537.97 3
0 -2 7 16486.9 1601.04 2
0 2 -6 4136.75 772.806 3
0 -2 6 4088.51 787.072 2
0 -2 6 5510.03 972.425 8
0 -2 5 68918.6 2940.9 2
0 -2 5 68079.7 3169.18 8
0 2 -5 65400.9 2875.09 3
0 -2 4 11191.9 1180.18 8
0 -2 4 12515.9 1115.64 5
0 -2 3 29021 1560.17 5
0 2 -3 31579.7 1670.17 1
0 -2 2 16461.5 1073.92 5
0 2 -2 18191.4 1171.29 1
0 2 -1 108832 2935.44 1
0 -2 1 105365 2771.12 5
0 -2 0 3232.36 440.288 5
0 2 0 3201.07 467.91 1
0 2 1 825.784 283.358 1
0 -2 -1 524.096 247.494 5
0 2 2 395410 7062.5 1
0 2 3 10552.7 918.807 1
0 2 3 12269.4 999.734 7
0 2 3 9961.15 614.816 9
0 -2 -3 11560.1 897.512 3
0 -2 -4 89849.1 2888.65 3
0 2 4 92121.7 3013.2 7
0 2 4 91593.5 3194.19 8
0 2 4 84537 2231.59 9
0 2 5 34447.9 1884.09 7
0 -2 -5 35029.2 1879.92 3
0 2 5 31784.2 1432.08 9
0 2 5 36149.2 2091.8 8
0 2 6 83386.1 3475.54 8
0 -2 -6 77210 3174.74 3
0 2 6 78488.5 3105.26 7
0 2 6 74154.9 2529.04 9
0 2 7 90.4391 262.941 7
0 -2 -7 91.105 242.32 3
0 2 7 13.4699 327.972 8
0 -2 -8 10819 1346.79 3
0 2 8 10838.3 1282.79 7
0 2 8 9652.96 1354.88 8
0 2 9 -575.873 465.417 8
0 2 9 257.088 314.412 7
0 -2 -9 660.075 391.221 3
0 2 10 32246.1 2809.52 8
0 -2 -10 34381.3 2785.88 3
0 -2 -11 53.2887 163.503 3
0 2 11 249.509 430.802 8
0 -2 -12 1498.38 253.371 15
0 2 12 1600.62 259.612 14
0 2 13 1949.52 291.335 14
0 -2 -13 2121.42 299.827 15
0 -2 -14 22770.4 960.866 15
0 2 14 23278 1002.39 14
0 -2 -15 509.094 179.92 15
0 2 15 336.127 144.402 14
0 -2 -16 716.643 191.355 15
0 -2 -17 627.65 162.114 15
0 -2 -18 235.725 107.761 15
0 -3 16 206.667 112.845 14
0 -3 15 209.008 147.717 25
0 -3 14 233.045 150.771 25
0 -3 13 1544.52 272.136 25
0 -3 12 1964.45 295.139 25
0 -3 11 576.206 186.309 25
0 -3 10 4804.26 435.584 12
0 -3 10 5307.27 446.804 25
0 -3 9 625.187 450.468 2
0 3 -9 1556.75 816.905 1
0 -3 9 2445.16 857.817 8
0 -3 8 3568.35 925.931 2
0 3 -8 3075.53 839.478 1
0 -3 8 3133.95 924.822 8
0 -3 7 3164.79 860.709 2
0 3 -7 2271.55 732.336 1
0 -3 7 2179.37 757.795 8
0 3 -6 32074.3 2367.61 1
0 -3 6 28695.5 2433.11 8
0 -3 6 37240.6 2577.62 2
0 3 -5 34108.6 2303.14 1
0 -3 5 32552.1 2187.27 5
0 -3 5 38351.4 2480.42 2
0 -3 5 31661.8 2410.69 8
0 3 -4 27479.8 1935.76 1
0 -3 4 27019.6 1870.68 5
0 -3 3 10842.1 1093.84 5
0 3 -3 9771.24 1090.42 1
0 -3 2 36251.5 1928.32 5
0 3 -2 40936.3 2142.49 1
0 -3 1 9786.1 944.657 5
0 3 -1 9689.07 992.814 1
0 -3 0 50711.2 2174 5
0 3 0 52653.4 2299.44 1
0 3 1 23298 1513.12 1
0 3 1 21406.5 1538.24 7
0 -3 -1 20354.1 1374.08 5
0 3 2 38915.2 2092.79 7
0 -3 -2 36221.5 1896.74 5
0 3 2 35451.9 1926.13 1
0 3 3 313.385 312.582 1
0 3 3 -15.3294 307.617 7
0 3 4 41.2103 330.355 7
0 -3 -4 -106.974 263.146 3
0 -3 -5 12782.9 1237.68 3
0 3 5 12432.3 1319.18 7
0 3 6 28543.6 2071.88 7
0 -3 -6 28862.2 2006.64 3
0 3 7 26662.3 2085.79 7
0 -3 -7 27963.2 2106.95 3
0 -3 -8 25653.2 2163.98 3
0 3 8 23855.5 2101.12 7
0 3 8 23446.8 2233.85 8
0 3 9 8988.53 1477.59 8
0 3 9 10157.6 1436.22 7
0 -3 -9 9698.26 1407.18 3
0 3 10 2056.18 726.02 7
0 3 10 1600.61 648.76 8
0 -3 -10 2320.87 748.703 3
0 -3 -11 1172.39 215.414 15
0 -3 -12 10861.4 637.014 15
0 3 12 11458.9 686.726 14
0 3 13 929.806 204.859 14
0 -3 -13 938.484 209.678 15
0 -3 -14 10082.7 625.142 15
0 3 14 10849.1 661.773 14
0 -3 -15 2080.55 290.614 15
0 -3 -16 6624.57 464.548 15
0 -3 -17 63.9764 98.7969 15
0 -3 -18 40.1862 79.5797 15
0 4 -16 86.5552 72.4675 13
0 -4 15 1485.26 211.355 25
0 -4 14 15.0736 115.913 25
0 -4 13 115.686 138.232 25
0 -4 12 668.665 198.089 25
0 -4 11 878.542 195.839 12
0 -4 11 1058.49 237.423 25
0 -4 10 426.401 180.945 25
0 -4 10 288.557 146.421 12
0 -4 9 6461.44 499.23 25
0 -4 9 5971.89 496.042 12
0 -4 8 1710.71 260.359 12
0 -4 8 1911.79 273.406 25
0 -4 7 21444.7 2432.65 8
0 -4 7 22731.5 2398.92 2
0 4 -7 19291.4 2091.01 1
0 4 -6 1772.5 611.87 1
0 -4 6 2452.2 792.639 2
0 -4 6 3384.59 983.52 8
0 4 -5 2640.95 755.258 1
0 -4 5 1789.86 736.5 8
0 -4 5 1962.47 658.476 2
0 4 -4 5404.16 962.457 1
0 -4 4 5579.55 959.685 5
0 -4 3 99.7769 241.583 5
0 4 -3 502.849 395.977 1
0 -4 2 9448.92 1138.75 5
0 4 -2 9491.65 1196.83 1
0 -4 1 73778.7 3177.11 5
0 4 -1 72569.5 3276.27 1
0 -4 0 -131.991 235.005 5
0 4 0 26.5323 227.242 1
0 4 1 161550 5083.9 1
0 -4 -1 165175 4904.75 5
0 -4 -2 171.221 228.611 5
0 4 2 426.159 277.379 1
0 -4 -3 2044.63 571.196 5
0 4 3 2026.68 590.594 1
0 4 3 3209.66 737.742 7
0 -4 -4 2708.63 662.481 5
0 4 4 2223.73 648.954 7
0 -4 -4 1871.55 559.642 3
0 4 4 2134.21 647.528 1
0 4 5 3775.3 862.502 7
0 -4 -5 4620.11 804.613 3
0 -4 -6 -309.354 301.091 3
0 4 6 154.832 310.734 7
0 -4 -7 4332.26 894.064 3
0 4 7 4806.29 997.91 7
0 -4 -8 9789.49 1401.92 3
0 4 8 9755.25 1468.03 7
0 -4 -9 2302.97 746.525 3
0 4 9 3859.14 998.326 7
0 -4 -10 50.1969 105.469 15
0 4 10 599.678 540.408 7
0 -4 -11 5365.09 447.52 15
0 4 11 4672.2 446.94 14
0 4 12 80.826 113.224 14
0 -4 -12 78.7479 127.246 15
0 4 13 37.6404 131.357 14
0 -4 -13 -108.264 123.936 15
0 -4 -14 1193.6 241.757 15
0 -4 -15 176.641 132.68 15
0 -4 -16 6485.18 437.234 15
0 -4 -17 639.751 149.521 15
0 -5 14 2561.49 255.617 25
0 5 -14 2493.89 240.835 13
0 -5 13 106.26 131.663 25
0 -5 12 -1.4011 126.815 25
0 -5 11 99.3678 141.131 25
0 -5 10 1011.61 233.998 25
0 -5 10 1052.06 224.795 12
0 -5 9 10398.4 655.996 25
0 -5 9 11929.8 703.867 12
0 -5 8 1375.57 251.147 25
0 -5 8 1371.13 251.651 12
0 -5 7 74059.4 1893.09 12
0 -5 7 76234.5 1891.27 25
0 -5 6 4949.73 423.245 25
0 -5 6 5092.83 432.717 12
0 5 -5 4906.18 1045.12 1
0 -5 5 3487.34 1022.11 2
0 -5 5 3377.07 977.239 8
0 5 -4 2529.69 832.635 1
0 -5 4 4510.45 1020.22 2
0 -5 3 4036.67 962.262 2
0 5 -3 4892.5 1031.38 1
0 5 -2 -268.626 336.815 1
0 5 -1 45272.2 2954.04 1
0 -5 1 46803.6 2862.36 5
0 -5 0 44742.9 2776.29 5
0 5 0 42558.7 2839.74 1
0 5 1 4771 959.303 1
0 -5 -1 4731.74 903.238 5
0 5 2 1477.8 533.337 1
0 -5 -2 1174.51 505.207 5
0 5 3 18753.9 1907.42 1
0 -5 -3 22694.6 2021.36 5
0 -5 -4 2330.11 684.022 5
0 5 4 2900.8 843.68 1
0 5 5 10477.7 1547.37 7
0 -5 -5 9372.69 1405.86 5
0 5 6 2862 883.801 7
0 -5 -6 529.523 436.181 5
0 5 7 642.761 538.523 7
0 -5 -7 890.421 509.183 5
0 5 8 12070.3 1797.28 7
0 -5 -9 5492.94 451.139 15
0 -5 -10 278.825 133.581 15
0 -5 -11 8881.64 581.722 15
0 -5 -12 -35.0294 116.189 15
0 -5 -13 3055.35 344.399 15
0 -5 -14 530.595 187.798 15
0 -5 -15 414.63 141.352 15
0 -5 -16 263.984 120.556 15
0 -5 -17 848.428 136.866 15
0 6 -13 -39.5714 64.0318 13
0 -6 13 -14.7233 97.1117 25
0 6 -12 120.147 79.6355 13
0 -6 12 -1.48405 99.5978 25
0 -6 11 584.826 174.613 25
0 -6 10 8221.36 550.675 25
0 -6 10 7541.3 522.429 12
0 -6 9 2503.54 320.195 12
0 -6 9 2318.43 319.098 25
0 -6 8 78.2092 129.962 25
0 -6 8 128.953 120.182 12
0 -6 7 9274.2 614.923 12
0 -6 7 9057.62 600.934 25
0 -6 6 2870.11 346.596 25
0 -6 6 2967.15 352.863 12
0 -6 5 11700.6 679.443 12
0 -6 5 11253 667.661 25
0 -6 4 471.167 156.089 12
0 -6 4 330.19 158.112 25
0 -6 3 10219.4 616.207 12
0 -6 3 10544.3 622.417 25
0 -6 2 1166.42 216.265 25
0 -6 1 12397.3 1748.8 2
0 6 0 1434.21 646.404 1
0 -6 0 1111.86 557.05 2
0 6 1 7007.04 1297.56 1
0 6 2 4090.71 1016.97 1
0 -6 -3 612.122 431.752 5
0 6 3 -171.217 376.273 1
0 -6 -4 500.492 150.98 25
0 -6 -4 509.754 467.37 5
0 -6 -5 -26.4453 93.9248 25
0 -6 -5 259.117 124.633 15
0 -6 -6 1872.25 258.966 15
0 -6 -7 -18.5273 119.584 15
0 6 7 323.062 169.804 19
0 -6 -8 1527.98 250.48 15
0 6 8 2219.43 287.94 19
0 -6 -9 206.07 136.839 15
0 -6 -10 1181.34 229.277 15
0 -6 -11 5368.07 448.597 15
0 -6 -12 1114.99 217.565 15
0 -6 -13 120.997 115.298 15
0 -6 -14 1913.31 245.948 15
0 -6 -15 2373.87 245.881 15
0 -6 -16 205.416 89.3293 15
0 -7 11 836.858 147.487 25
0 -7 10 803.74 166.329 25
0 -7 9 3305.39 331.789 25
0 -7 9 3568.31 325.968 12
0 -7 8 3860 358.552 12
0 -7 8 4026.42 377.009 25
0 -7 7 -31.8338 115.691 12
0 -7 7 251.495 151.304 25
0 -7 6 918.026 195.481 12
0 -7 6 1284.21 253 25
0 -7 5 6205.33 487.447 12
0 -7 5 6322.03 503.836 25
0 -7 4 2032.86 299.612 25
0 -7 4 2656.19 328.834 12
0 -7 3 69.7329 104.607 12
0 -7 3 148.094 134.845 25
0 -7 2 1074.04 229.685 25
0 -7 2 1116.32 221.288 12
0 -7 1 1952 281.609 25
0 -7 1 1881.94 272.482 12
0 -7 0 2572.06 306.656 23
0 -7 0 2460.35 314.177 25
0 -7 -1 17.5345 121.426 23
0 -7 -1 -55.1258 142.009 25
0 -7 -2 -58.3005 113.784 25
0 -7 -3 164.767 131.78 25
0 -7 -4 607.4 185.424 25
0 -7 -5 707.971 191.466 25
0 -7 -6 2982.2 346.122 15
0 -7 -6 2893.81 336.58 25
0 -7 -7 13830.6 719.04 15
0 -7 -7 13039.9 715.432 25
0 -7 -8 887.282 204.759 15
0 -7 -8 871.233 210.511 25
0 -7 -9 14451 728 15
0 -7 -9 14704.5 746.683 25
0 -7 -10 661.345 189.269 15
0 -7 -10 547.196 169.376 25
0 -7 -11 1601.49 242.168 15
0 -7 -11 1394.8 240.417 25
0 -7 -12 -26.5139 85.8356 15
0 -7 -12 -47.5261 129.191 25
0 -7 -13 5285.35 368.977 15
0 -7 -13 4943.04 365.882 25
0 -7 -14 528.967 140.301 25
0 -7 -14 544.316 124.966 15
0 -8 9 551.289 117.016 25
0 -8 8 -150.804 100.057 25
0 -8 7 568.736 168.57 25
0 -8 7 306.97 107.02 12
0 -8 6 443.635 131.685 12
0 -8 6 657.855 162.337 25
0 -8 5 -44.5608 124.798 25
0 -8 5 90.7133 112.332 12
0 -8 4 2399.6 282.647 12
0 -8 4 2100.69 284.934 25
0 -8 3 5071.2 419.696 12
0 -8 3 4759.86 427.732 25
0 -8 2 669.166 206.48 25
0 -8 2 562.547 157.988 12
0 -8 1 1715.5 273.043 25
0 -8 1 1493.9 231.115 12
0 -8 0 3768.26 390.05 25
0 -8 0 3984.83 375.823 12
0 -8 -1 1654.03 250.23 12
0 -8 -1 1324.61 251.271 25
0 -8 -2 101.937 87.8238 12
0 -8 -2 291.06 138.305 25
0 -8 -3 2182.92 298.33 25
0 -8 -4 -0.29529 118.254 25
0 -8 -5 13717.5 706.566 25
0 -8 -6 125.295 131.256 25
0 -8 -7 13401.3 684.161 25
0 -8 -8 610.16 170.58 25
0 -8 -9 1147.64 200.771 25
0 -8 -10 -31.5853 109.194 25
0 -8 -11 310.549 120.347 25
0 -8 -12 99.5022 83.0174 25
0 -8 -13 11.4987 71.4444 25
0 -9 5 108.078 86.0998 25
0 -9 4 260.921 116.09 25
0 -9 3 210.378 114.288 25
0 -9 2 54.3913 110.809 25
0 -9 1 872.429 177.619 25
0 -9 0 1480.89 231.582 25
0 -9 -1 -45.7547 114.476 25
0 -9 -2 -72.6322 108.468 25
0 -9 -3 973.02 184.373 25
0 -9 -4 729.353 162.665 25
0 -9 -5 19.4365 112.508 25
0 -9 -6 371.712 138.207 25
0 -9 -7 1884.64 230.097 25
0 -9 -8 432.179 137.602 25
0 -9 -9 1195.23 168.576 25
0 -9 -10 284.966 98.2635 25
1 -9 -7 3141 239.156 25
1 -9 -6 153.41 93.8027 25
1 -9 -5 470.193 124.925 25
1 -9 -4 -70.3047 97.9396 25
1 -9 -3 -53.7374 90.4354 25
1 -9 -2 855.99 163.142 25
1 -9 -1 -149.855 112.17 25
1 -9 0 1975.76 232.679 25
1 -9 1 775.069 159.769 25
1 -9 2 74.3216 83.2995 25
1 -9 3 102.424 98.7822 25
1 -9 4 1701.88 184.601 25
1 -8 -11 181.096 85.1519 25
1 -8 -10 336.27 114.459 25
1 -8 -9 6279.41 393.347 25
1 -8 -8 633.498 148.174 25
1 -8 -7 3786.44 338.092 25
1 -8 -6 171.821 131.327 25
1 -8 -5 674.444 178.587 25
1 -8 -4 1107.4 211.03 25
1 -8 -3 1483.05 240.992 25
1 -8 -2 -37.2972 130.706 25
1 -8 -1 -17.5023 135.495 25
1 -8 0 269.057 142.619 25
1 -8 1 4210.13 397.232 25
1 -8 2 1445.3 248.624 25
1 -8 3 69.3966 119.663 25
1 -8 4 1199.93 206.298 25
1 -8 5 1986.54 259.693 25
1 -8 6 1848.5 238.004 25
1 -8 7 1573.17 203.996 25
1 -8 8 434.064 115.512 25
1 -7 -13 19.8592 78.9838 25
1 -7 -12 62.5301 104.164 25
1 -7 -11 2213.17 252.254 25
1 -7 -10 1167.98 205.389 25
1 -7 -9 861.847 206.171 25
1 -7 -8 48.3732 127.894 25
1 -7 -7 65.7178 135.98 25
1 -7 -6 30.3214 105.164 25
1 -7 -5 745.648 191.893 25
1 -7 -4 1287.77 238.696 25
1 -7 -3 123.001 142.474 25
1 -7 -2 4282.75 406.97 25
1 -7 -1 683.098 198.532 25
1 -7 0 665.752 183.847 25
1 -7 1 3341.69 365.797 25
1 -7 2 1430.12 245.42 25
1 -7 3 704.115 204.458 25
1 -7 4 96.8978 122.91 25
1 -7 5 1008.25 222.045 25
1 -7 6 1146.39 230.807 25
1 -7 7 91.8844 133.467 25
1 -7 8 795.302 185.311 25
1 -7 9 -53.4728 103.038 25
1 -7 10 106.114 94.3827 25
1 -6 -14 -4.39447 85.5285 25
1 -6 -13 1061.22 177.62 25
-1 6 13 964.099 166.152 19
-1 6 12 208.46 110.934 19
-1 6 11 2758.03 306.374 19
-1 6 10 38.5308 121.625 19
-1 6 9 650.104 194.561 19
-1 6 8 -125.741 147.536 19
1 -6 -8 69.7119 128.007 25
-1 6 7 507.503 188.7 19
1 -6 -7 965.99 210.379 25
-1 6 6 89.1626 151.55 19
1 -6 -6 229.559 140.095 25
-1 6 5 240.916 146.383 19
1 -6 -5 78.357 97.2736 25
1 -6 -4 -72.5318 120.247 25
-1 6 4 117.536 147.182 19
1 -6 -3 769.048 183.457 25
1 -6 -2 -10.4118 110.135 25
1 -6 -1 1030.22 212.209 25
1 -6 0 -42.9901 122.905 25
1 -6 1 12384.7 672.814 25
1 -6 2 1152.74 227.553 25
1 -6 3 11754.5 678.518 25
1 -6 4 4136.9 406.762 25
1 -6 5 25228.3 1026.55 25
1 -6 6 8455.07 585.094 25
1 -6 7 18564 874.879 25
-1 6 -8 2170.76 267.239 13
1 -6 8 1566.9 269.36 25
1 -6 9 131.572 125.15 25
-1 6 -9 315.303 129.987 13
1 -6 10 335.913 147.059 25
-1 6 -10 278.177 108.602 13
-1 6 -11 190.97 97.8372 13
1 -6 11 215.039 139.34 25
-1 6 -12 1153.34 159.258 13
1 -6 12 1325.36 190.32 25
1 -6 13 630.838 127.359 25
1 -5 -15 55.8724 73.6422 15
1 -5 -14 -74.7076 103.963 15
-1 5 13 305.941 143.639 19
1 -5 -13 332.855 111.769 15
1 -5 -12 28.2838 90.8799 15
-1 5 12 -56.5873 111.024 19
1 -5 -11 710.106 180.741 15
-1 5 11 597.213 178.802 19
-1 5 10 1225.85 230.73 19
-1 5 9 3576.24 369.925 19
-1 5 8 4039.84 387.794 19
-1 5 7 3.34974 112.13 19
-1 5 6 40.239 115.928 19
1 -5 -6 -1281.15 610.978 3
-1 5 5 12415.2 1783.8 4
1 -5 -5 12525.2 1718.92 3
-1 5 4 -330.228 430.026 4
-1 5 4 150.891 283.54 1
-1 5 3 8571.77 1455.52 1
-1 5 2 809.132 490.928 1
-1 5 1 26616.9 2484.84 1
-1 5 0 1853.03 711.365 1
-1 5 -1 4705.16 1096.79 1
-1 5 -2 5557.1 1191.33 1
-1 5 -3 20554 2253.28 1
-1 5 -3 21379.1 2305.98 4
-1 5 -4 2237.74 746.752 4
1 -5 5 25544.6 989.484 25
1 -5 6 -52.37 108.095 25
-1 5 -6 -82.3537 104.89 13
-1 5 -7 12884.5 672.586 13
1 -5 7 10076.4 632.739 25
1 -5 8 886.846 201.708 25
-1 5 -9 301.568 143.36 13
1 -5 9 331.633 163.164 25
1 -5 10 344.699 153.98 25
-1 5 -10 499.011 161.934 13
1 -5 11 2203.54 296.079 25
-1 5 -11 2504.5 295.265 13
1 -5 12 1.34001 133.191 25
-1 5 -12 22.8024 93.6417 13
1 -5 13 965.182 186.191 25
-1 5 -13 853.219 165.83 13
-1 5 -14 -24.0614 74.7905 13
1 -5 14 254.395 117.974 25
1 -4 -16 3004.83 244.792 15
1 -4 -15 703.976 153.568 15
1 -4 -14 596.533 157.671 15
-1 4 14 542.96 161.403 19
-1 4 13 167.366 170.369 14
-1 4 13 98.4973 117.478 19
1 -4 -13 162.363 128.386 15
-1 4 12 39.8278 109.731 19
1 -4 -12 225.669 118.942 15
-1 4 12 165.298 143.631 14
-1 4 11 333.834 145.603 19
-1 4 11 498.184 196.785 14
1 -4 -11 458.944 154.631 15
-1 4 10 217.024 141.766 14
1 -4 -10 571.734 155.047 15
-1 4 9 8938.2 616.725 14
1 -4 -8 1649.77 720.482 3
1 -4 -7 533.438 373.71 3
-1 4 6 9550.57 1420.8 4
1 -4 -6 6547.11 1184.34 3
1 -4 -5 10539.5 1489.45 3
-1 4 5 10910.2 1496.66 4
-1 4 4 25408.1 2300.8 1
-1 4 3 29323.8 2435.83 1
-1 4 2 17157.5 1807.01 1
-1 4 1 23833.5 2103.19 1
-1 4 0 6497.91 1096.69 1
-1 4 -1 40.3859 252.57 1
-1 4 -2 8069.99 1258.93 1
-1 4 -3 8937.3 1359.42 1
-1 4 -4 6986.14 1209.89 4
-1 4 -4 7877.53 1316.88 1
-1 4 -5 4821.17 1047.58 1
-1 4 -6 4095.13 1032.73 1
1 -4 6 3196.71 976.629 8
1 -4 7 275.647 403.788 8
1 -4 8 -138.626 150.508 25
1 -4 9 101.061 123.937 25
1 -4 10 177.072 128.975 25
1 -4 11 1145.17 236.654 25
1 -4 12 150.606 128.367 25
1 -4 13 1899.21 282.944 25
-1 4 -13 2331.75 292.624 13
-1 4 -14 875.324 183.128 13
1 -4 14 815.262 186.252 25
-1 4 -15 150.62 91.8193 13
1 -4 15 4.88273 95.5327 25
1 -3 -17 969.367 143.201 15
1 -3 -16 2404.54 249.501 15
-1 3 16 2452.37 281.428 14
1 -3 -15 -29.267 103.565 15
-1 3 15 -81.3218 130.254 14
1 -3 -14 7283 497.214 15
-1 3 14 7284.39 551.588 14
1 -3 -13 41.3526 123.853 15
-1 3 13 -54.5252 118.793 14
1 -3 -12 7580.7 523.322 15
-1 3 12 6845.57 552.606 14
1 -3 -11 3125.91 342.839 15
-1 3 11 2994.76 366.216 14
1 -3 -10 1026.14 191.603 15
-1 3 10 1514.09 262.218 14
1 -3 -9 1140.99 561.196 3
1 -3 -8 509.392 376.199 3
1 -3 -7 23155.9 2169.98 3
1 -3 -6 9966.05 1377.55 3
-1 3 6 11637.9 1345.14 4
-1 3 5 38989.7 2335.9 9
-1 3 5 44410.5 2634.42 4
1 -3 -5 42714.1 2727.23 3
-1 3 4 1319.42 452.366 9
-1 3 4 705.065 462.063 1
-1 3 4 1651.72 556.867 4
-1 3 3 12638.5 1403.74 1
-1 3 2 125.211 290.302 1
-1 3 1 35349.7 2225.89 1
1 -3 -1 37571.4 1731.5 5
-1 3 0 5640.16 891.885 1
-1 3 -1 65788.9 3089.89 1
-1 3 -2 5898.95 922.816 1
-1 3 -3 1630.84 557.097 4
-1 3 -3 1820.87 537.531 1
-1 3 -4 7676.44 1093 4
-1 3 -4 8403.58 1188.07 1
-1 3 -5 2806 707.968 4
-1 3 -5 2841.76 754.717 1
1 -3 6 3982.83 962.776 8
-1 3 -6 4121.77 938.041 1
-1 3 -7 314.796 349.863 1
1 -3 7 141.279 311.097 8
-1 3 -8 7096.75 1242.55 1
1 -3 8 7975.11 1452.4 8
1 -3 9 290.325 127.354 25
1 -3 9 1748.86 775.845 8
1 -3 10 166.487 132.19 25
1 -3 11 1552.97 269.078 25
1 -3 12 1241.71 246.759 25
1 -3 13 4907.43 448.134 25
1 -3 14 981.52 220.566 25
1 -3 15 2159.82 264.527 25
-1 3 -15 2021.43 253.487 13
-1 3 -16 262.245 110.499 13
1 -2 -17 261.731 104.765 15
-1 2 17 29.4598 97.3528 14
1 -2 -16 431.691 132.064 15
-1 2 16 512.62 152.837 14
-1 2 15 739.939 192.116 14
1 -2 -15 865.874 186.382 15
-1 2 14 1814.39 296.698 14
1 -2 -14 1868.93 280.138 15
1 -2 -13 105.295 134.482 15
-1 2 13 194.111 147.821 14
-1 2 12 209.915 136.797 14
1 -2 -12 -4.40619 97.838 15
-1 2 11 3421.62 374.458 20
-1 2 11 2476.75 336.091 14
1 -2 -11 2591.03 297.853 15
1 -2 -10 1060.62 572.859 3
-1 2 10 984.361 485.499 8
1 -2 -9 25560.9 2490.09 3
-1 2 9 27932.3 2681.91 8
1 -2 -8 5826.33 1096.43 3
-1 2 8 5947.55 1206.91 8
-1 2 8 6327.26 1101.77 9
-1 2 7 9349.61 1233.14 9
1 -2 -7 10656.5 1392.91 3
-1 2 7 8533.91 1327.85 8
1 -2 -6 4121.06 837.802 3
-1 2 6 2923.47 776.873 8
-1 2 6 2956.89 652.071 9
-1 2 5 1900.58 640.188 8
1 -2 -5 1131.85 470.925 3
-1 2 5 940.209 265.733 7
-1 2 5 1641.37 515.57 9
-1 2 5 652.292 298.847 4
-1 2 4 10.966 188.832 4
-1 2 4 -93.3676 255.47 9
1 -2 -4 -79.1392 192.386 3
-1 2 4 -77.7199 370.476 8
-1 2 3 1566.82 435.736 9
-1 2 3 1814.9 478.066 4
-1 2 3 1183.03 451.533 1
-1 2 2 290674 6515.15 1
-1 2 2 288513 6343.27 9
-1 2 2 280796 6428.91 4
-1 2 1 17082.1 1330.32 1
-1 2 1 17970.7 1396.99 4
-1 2 0 29858.7 1742.6 1
1 -2 0 28787 1097.86 5
-1 2 0 30923.5 1832.11 4
-1 2 -1 27992.5 1701.21 1
1 -2 1 24876.7 870.58 5
-1 2 -1 29268.1 1763.5 4
-1 2 -2 52317.7 2432.97 1
-1 2 -2 52701.2 2438.73 4
-1 2 -3 18073.2 1468.41 1
-1 2 -3 20315.5 1503.13 4
-1 2 -4 224.111 248.683 4
-1 2 -4 81.7437 265.106 1
-1 2 -5 127548 4495.33 1
1 -2 5 117385 4332.05 8
-1 2 -5 127715 4008.11 4
-1 2 -6 110648 4384.5 1
1 -2 6 111101 4396.58 8
1 -2 7 -565.566 423.258 8
-1 2 -7 -115.191 253.253 1
-1 2 -8 3336.59 853.988 1
1 -2 8 3908.06 915.158 8
-1 2 -9 10041 1566.16 1
1 -2 9 13103.7 1762.04 8
1 -2 10 487.089 496.924 7
1 -2 10 575.524 503.99 8
1 -2 11 3491.66 369.673 25
1 -2 12 5207.61 461.965 25
1 -2 13 2167.81 313.845 25
-1 2 -14 -48.8554 101.896 16
1 -2 14 3.48959 131.967 25
1 -2 15 313.891 164.856 25
-1 2 -16 79.8806 92.6236 15
-1 2 -16 261.5 117.788 13
-1 2 -17 128.341 75.4916 13
1 -1 -17 175.548 99.4877 15
-1 1 17 45.9948 101.21 14
1 -1 -16 1655.18 236.281 15
-1 1 16 1155.27 217.316 14
-1 1 15 -41.9146 116.702 14
1 -1 -15 -56.1541 125.26 15
1 -1 -14 884.956 202.125 15
-1 1 14 955.435 230.606 14
-1 1 13 839.809 191.732 20
-1 1 13 999.361 222.667 14
1 -1 -13 1155.38 228.578 15
-1 1 12 12756.4 720.047 20
-1 1 12 11532.9 708.895 14
-1 1 11 501.271 169.428 20
-1 1 11 601.183 173.201 14
1 -1 -10 33963.6 2930.39 3
-1 1 10 35347.8 3110.32 8
-1 1 10 32868.4 2807.81 9
1 -1 -9 5791.06 1167.99 3
-1 1 9 4413.5 1086.98 8
-1 1 9 4786.76 1042.77 9
-1 1 8 -140.259 498.352 8
1 -1 -8 -8.02443 266.66 3
-1 1 8 136.297 272.24 9
-1 1 7 729.984 347.741 9
1 -1 -7 1888.49 574.137 3
-1 1 7 2160.79 682.213 8
1 -1 -6 18264.5 1620.76 3
-1 1 6 16701.8 1553.61 9
-1 1 6 18116.5 1705.28 8
-1 1 5 28499.4 1909.25 9
-1 1 5 28063.2 1992.73 8
-1 1 5 30589.1 1564.05 4
1 -1 -5 28046.5 1881.76 3
-1 1 4 80718.3 2379.35 7
1 -1 -4 82432.5 3110.26 3
-1 1 4 77310.2 3035.41 9
-1 1 4 86895.8 2768.43 4
-1 1 4 79678.6 3188.62 8
1 -1 -3 223917 5263.08 3
-1 1 3 220222 5268.73 9
-1 1 3 232346 5395.96 8
-1 1 3 224341 4979.31 4
-1 1 2 652921 10608.3 1
-1 1 2 668599 10907.6 9
-1 1 2 657191 10681.3 4
-1 1 1 27063.1 1395.13 1
-1 1 0 749029 11395.8 1
-1 1 -1 105087 2927.81 1
-1 1 -2 76899.5 2549.61 1
-1 1 -2 78209.4 2605.04 4
-1 1 -3 27456.9 1496.65 4
-1 1 -3 27301.2 1552.96 1
-1 1 -4 6493.72 707.633 6
-1 1 -4 5561.27 766.841 1
-1 1 -4 7091.23 759.579 4
1 -1 4 6352.01 774.655 8
-1 1 -5 56240.7 2244.94 6
1 -1 5 51064.8 2383.12 8
-1 1 -5 53582.3 2130.63 4
-1 1 -6 65782.3 2641.56 6
1 -1 6 62943.1 2896.98 8
-1 1 -7 2178.45 550.36 6
1 -1 7 2594.16 653.792 8
1 -1 8 8423.35 1217.8 8
1 -1 9 7307.79 1237.84 7
1 -1 9 8884.2 1366.38 8
1 -1 10 -133.283 294.977 7
1 -1 10 -221.562 358.369 8
1 -1 11 2087.84 788.627 7
1 -1 11 1733.05 268.933 25
1 -1 12 914.858 208.314 25
-1 1 -13 1980.13 280.186 16
1 -1 13 1818.22 284.795 25
-1 1 -14 193.542 120.105 16
1 -1 14 -20.9387 113.734 25
-1 1 -16 2459.6 274.703 15
-1 1 -16 2305.05 258.121 13
-1 1 -17 236.882 105.121 15
1 0 -17 1438.92 195.56 15
-1 0 17 1243.36 194.615 14
1 0 -16 161.592 124.739 15
-1 0 16 143.287 129.674 14
-1 0 15 -55.7182 130.507 14
-1 0 15 -26.4088 106.825 20
1 0 -15 242.475 144.545 15
-1 0 14 664.591 197.233 14
-1 0 14 575.086 184.031 20
-1 0 13 2957.46 353.735 20
-1 0 13 3248.07 391.119 14
-1 0 12 2864.9 361.531 14
-1 0 12 3040.19 358.381 20
-1 0 11 2363.75 313.222 20
1 0 -10 2221.37 794.519 3
-1 0 10 546.367 477.81 8
-1 0 10 1794.08 708.7 9
1 0 -9 3749.12 917.595 3
-1 0 9 3446.21 901.005 9
-1 0 9 3376.08 983.925 8
1 0 -8 52128.2 3144.35 3
-1 0 8 52393.3 2810.91 2
-1 0 8 52521.5 3239.93 9
-1 0 8 49268.7 3239.86 8
-1 0 7 53419 2697.61 2
1 0 -7 55794.4 3023.21 3
-1 0 7 52407.3 3108.21 8
-1 0 7 55958.6 3113.8 9
-1 0 6 8070.27 1141.49 8
-1 0 6 6636.07 995.359 9
-1 0 6 7521.05 948.555 2
1 0 -6 7144.04 989.612 3
-1 0 5 63953 2654.73 2
-1 0 5 62563.5 2934.53 8
-1 0 5 60765.1 2860.25 9
1 0 -5 64306.2 2758.73 3
-1 0 5 61584.8 2002.59 4
-1 0 4 264232 5727.32 2
1 0 -4 254462 5682.61 3
-1 0 4 252828 5931.24 8
1 0 -3 6821.55 746.534 3
-1 0 3 6967.8 763.845 8
-1 0 3 7105.18 780.903 2
-1 0 2 999999 14686.4 2
1 0 -2 995230 14346.8 3
-1 0 1 36949.6 1586.62 2
-1 0 1 36050.8 1380.43 5
-1 0 1 33895.3 1237.6 1
-1 0 1 35698.9 1347.09 8
-1 0 0 38598.2 1202.73 5
-1 0 0 35176 1196.97 1
-1 0 0 36278 1102.73 8
-1 0 -1 187924 3957.33 9
-1 0 -1 184945 2958.95 5
1 0 2 86279.9 1740.04 8
-1 0 -2 82297.7 2218.58 1
-1 0 -2 82699.6 1674.13 5
-1 0 -3 1064.67 278.376 4
1 0 3 973.782 220.41 8
-1 0 -4 4813.18 626.689 6
-1 0 -4 3902.24 503.37 4
1 0 4 3900.52 498.985 8
1 0 5 14284.1 1078.32 8
-1 0 -5 12787.6 1155.95 3
-1 0 -5 14280.9 940.287 4
-1 0 -6 18422.7 1524.64 3
1 0 6 20515.3 1624.42 7
1 0 6 20366 1453.57 8
-1 0 -7 20258.3 1691.44 3
1 0 7 20132.5 1727.25 7
1 0 7 18336.5 1543.72 8
1 0 8 142.889 260.321 8
1 0 8 -262.741 460.88 7
-1 0 -8 362.407 390.198 3
1 0 9 7607.22 1248.88 7
-1 0 -9 9831.01 1382.87 3
1 0 9 8939.82 1300.67 8
-1 0 -10 9.17835 179.145 3
1 0 10 190.484 326.193 7
-1 0 -11 1509.09 630.285 3
1 0 11 1715.16 762.684 7
-1 0 -12 1162.23 220.834 16
1 0 12 941.23 206.236 25
-1 0 -13 28.8821 108.425 16
1 0 13 -106.157 102.696 25
-1 0 -14 9654.08 612.067 16
-1 0 -15 154.876 127.828 15
-1 0 -16 150.625 121.304 15
-1 0 -17 1583.41 206.634 15
-1 0 -18 69.4368 93.1886 15
1 1 -17 -34.5408 92.967 15
-1 -1 17 -12.6646 85.8442 14
-1 -1 16 302.65 143.759 14
1 1 -16 393.142 140.329 15
-1 -1 15 -4.56988 105.321 20
-1 -1 15 204.805 147.283 14
-1 -1 14 69.9873 112.76 20
-1 -1 14 176.181 126.123 14
-1 -1 13 32.3625 112.235 20
-1 -1 12 752.095 203.242 20
-1 -1 11 586.464 162.106 25
1 1 -10 3597.3 1026.59 3
-1 -1 10 1483.23 689.073 9
-1 -1 10 3797.08 1102.61 8
1 1 -9 7303.36 1294.1 3
-1 -1 9 5611.36 1190.15 9
-1 -1 9 8994.81 1503.56 8
1 1 -8 46213.1 2981 3
-1 -1 8 48711.8 3289.48 8
-1 -1 8 50128.9 3290.11 9
-1 -1 8 48522.4 2899.25 2
-1 -1 7 4370.75 811.221 2
1 1 -7 3499.47 798.544 3
-1 -1 7 4030.09 880.543 9
-1 -1 7 3231.6 809.546 8
1 1 -6 43129.1 2463.7 3
-1 -1 6 43138.5 2651.14 9
-1 -1 6 44152 2692.97 8
-1 -1 6 43904.1 2461.16 2
-1 -1 5 219.622 239.788 2
1 1 -5 890.124 343.002 3
-1 -1 5 871.121 414.07 9
-1 -1 5 498.96 359.283 8
1 1 -4 6526.11 785.448 3
-1 -1 4 7256.38 908.052 8
-1 -1 4 6588.38 884.633 9
-1 -1 4 7370.96 952.51 5
-1 -1 4 8114.94 934.697 2
-1 -1 3 152.353 298.016 2
1 1 -3 75.3766 155.293 3
-1 -1 3 65.9566 240.638 9
-1 -1 3 -122.887 189.355 8
-1 -1 3 83.7633 208.705 5
1 1 -2 180087 3684.6 3
-1 -1 2 173359 4276.77 5
-1 -1 2 175768 4261.96 2
1 1 -1 23357.3 901.785 3
-1 -1 1 23924.6 1070.66 8
-1 -1 1 20987.6 1202.44 2
-1 -1 1 19905.4 1125.18 6
1 1 -1 17975.7 646.974 7
-1 -1 0 15322.2 954.118 6
-1 -1 0 17631 1024.48 2
1 1 0 16113.8 749.368 7
-1 -1 0 16620.8 964.471 9
-1 -1 0 16116 976.996 5
-1 -1 0 18832.1 752.196 8
1 1 0 16715.3 606.415 3
-1 -1 -1 310.04 127.394 9
1 1 1 248.006 175.828 7
-1 -1 -1 484.808 209.574 2
-1 -1 -1 211.323 134.389 5
-1 -1 -1 208.94 67.5421 8
1 1 2 19152 1085.63 7
-1 -1 -2 17081.7 978.892 5
-1 -1 -2 18766 1101.12 4
-1 -1 -2 18456.8 915.503 2
1 1 3 83384.3 2620.93 7
-1 -1 -3 81133.8 2107.51 3
-1 -1 -3 84788.7 2482.89 4
1 1 3 77652.5 1808.39 8
1 1 4 77953.4 2766.94 7
-1 -1 -4 76283.4 2350.77 3
1 1 4 77421.9 2172.77 8
-1 -1 -5 18176.6 1237.88 3
1 1 5 16950.3 1363.95 7
1 1 5 16173.3 1095.79 8
-1 -1 -6 283094 6267.07 3
1 1 6 274982 6659.04 7
1 1 6 266431 5989.54 8
1 1 7 46524.9 2623.03 7
-1 -1 -7 46156.1 2460.71 3
1 1 7 44976.9 2368.71 8
1 1 8 2661.75 710.246 7
-1 -1 -8 1553.39 508.528 3
1 1 8 1143.42 417.863 8
-1 -1 -9 1106.89 492.969 3
1 1 9 1177.89 560.578 7
1 1 9 1000.48 475.57 8
-1 -1 -10 9168.58 1385.53 3
1 1 10 7416.26 1269.15 7
1 1 11 2878.16 902.338 7
-1 -1 -11 3227.93 862.794 3
-1 -1 -12 5980.09 460.613 15
-1 -1 -12 5764.92 455.816 16
-1 -1 -13 141.258 124.74 15
-1 -1 -13 72.2831 107.91 16
-1 -1 -14 23699.4 977.101 16
-1 -1 -14 22777.2 955.888 15
-1 -1 -15 470.768 161.421 15
-1 -1 -16 472.505 148.694 15
-1 -1 -17 116.18 103.988 15
-1 -1 -18 60.8322 92.5571 15
1 2 -17 15.2039 71.2951 15
-1 -2 17 43.0689 84.957 14
-1 -2 16 269.409 128.916 14
-1 -2 15 313.87 137.066 20
-1 -2 15 337.799 133.71 10
-1 -2 15 194.359 133.17 14
-1 -2 14 966.46 208.237 20
-1 -2 14 825.713 187.601 10
-1 -2 13 9.41633 107.568 25
-1 -2 12 5086.55 448.552 25
-1 -2 11 632.683 173.705 25
-1 -2 10 -3.64405 111.111 25
-1 -2 10 199.978 127.05 12
-1 -2 9 -434.8 344.461 2
-1 -2 9 662.598 542.485 9
1 2 -9 515.179 371.489 3
-1 -2 9 430.217 451.381 8
-1 -2 8 2739.94 753.406 2
1 2 -8 3491.25 891.062 3
-1 -2 8 2329.37 812.925 9
-1 -2 8 3507.29 922.537 8
-1 -2 7 3391.88 777.957 2
1 2 -7 3051.18 755.735 3
-1 -2 7 3994.59 974.826 9
-1 -2 7 2607.72 804.944 8
1 2 -6 16.7012 248.17 3
-1 -2 6 -68.1201 354.283 9
-1 -2 6 -18.6685 274.384 2
-1 -2 6 97.6725 281.264 8
-1 -2 5 1309.15 431.965 2
-1 -2 5 2020.52 606.57 5
1 2 -5 1573 475.437 3
-1 -2 5 1563.25 532.773 9
-1 -2 5 1221.96 450.415 8
1 2 -4 5189.17 722.144 3
-1 -2 4 4875.78 842.252 5
-1 -2 4 6258.59 952.228 9
-1 -2 4 6601.46 953.174 2
-1 -2 4 4843.29 797.252 8
1 2 -3 23383.5 1327.59 3
-1 -2 3 22358.3 1660.92 5
-1 -2 3 19311.6 1514.24 9
-1 -2 3 22411.1 1567.5 8
-1 -2 3 22215.5 1616.97 2
-1 -2 2 98.4929 198.937 8
-1 -2 2 52.3607 253.832 2
-1 -2 2 273.677 298.47 5
1 2 -2 -121.549 157.807 3
-1 -2 2 5.40856 192.342 9
1 2 -1 2723 406.595 7
1 2 -1 1961.94 265.081 3
-1 -2 1 2266.4 486.185 5
-1 -2 1 2973.47 517.637 2
-1 -2 1 3036.65 420.388 6
1 2 -1 1856.94 270.987 1
-1 -2 0 10029.6 775.784 6
1 2 0 8918.06 451.964 1
-1 -2 0 11899.1 815.476 9
1 2 0 9811.78 776.019 7
-1 -2 0 8918.96 880.092 5
-1 -2 0 9586.2 867.213 2
-1 -2 -1 1703.17 353.206 2
-1 -2 -1 1615.07 267.903 9
1 2 1 2014.39 398.417 7
-1 -2 -1 1528.41 398.171 5
-1 -2 -1 1831.9 373.947 6
-1 -2 -2 27005.4 1492.16 5
-1 -2 -2 23818.9 809.162 9
1 2 2 25287.8 1421.09 7
-1 -2 -2 27719.3 1220.81 2
-1 -2 -3 119433 2443.2 3
-1 -2 -3 128300 3577.54 5
-1 -2 -3 124163 2669.55 2
1 2 3 124522 3600.99 7
1 2 4 125903 3817.95 7
-1 -2 -4 117364 2877.28 3
1 2 5 9637.96 1078.38 7
-1 -2 -5 10348.7 889.618 3
-1 -2 -6 145241 4111.17 3
1 2 6 148780 4787.67 7
1 2 6 145525 4258.69 8
1 2 7 6340.65 1024.41 7
-1 -2 -7 5649.37 862.107 3
1 2 7 6261.48 898.707 8
1 2 8 71271.4 3588.13 7
1 2 8 78482.6 3543.16 8
-1 -2 -8 77276.6 3439.99 3
1 2 9 30261.4 2442.05 7
-1 -2 -9 28542.7 2248.72 3
1 2 9 29114.4 2284.45 8
-1 -2 -10 3066.47 788.188 3
1 2 10 3721.69 914.891 7
-1 -2 -11 2338.18 758.349 3
1 2 11 4377.09 1119.39 7
-1 -2 -12 20550.1 883.694 15
-1 -2 -12 19851.5 877.038 16
-1 -2 -13 715.534 186.405 15
-1 -2 -13 557.648 195.43 16
-1 -2 -14 20128.3 905.184 22
-1 -2 -14 19928.7 883.345 15
-1 -2 -15 432.464 158.796 15
-1 -2 -15 625.31 170.207 22
-1 -2 -16 224.198 140.464 15
-1 -2 -17 1618.34 229.284 15
-1 -2 -18 201.336 109.319 15
-1 -3 16 36.8903 99.3888 14
-1 -3 15 2185.87 252.348 20
-1 -3 15 2475.34 259.826 10
-1 -3 15 2439.1 288.858 14
-1 -3 14 -63.0019 101.657 20
-1 -3 13 551.866 177.062 25
-1 -3 12 3458.64 369.181 25
-1 -3 11 2643.49 329.682 25
-1 -3 10 344.875 162.258 12
-1 -3 10 176.69 107.647 25
-1 -3 9 29508.2 1090.9 12
-1 -3 9 28170 1016.61 25
-1 -3 8 -468.23 412.336 2
-1 -3 8 1961.56 801.444 9
-1 -3 8 2024.54 825.496 8
-1 -3 7 237.654 326.63 2
-1 -3 7 236.166 337.632 9
-1 -3 7 -277.349 390.645 8
-1 -3 6 11807.1 1589.79 9
-1 -3 6 13011 1656.39 5
-1 -3 6 10816.1 1538.03 8
-1 -3 6 11849.2 1538.47 2
-1 -3 5 2531.11 699.751 2
-1 -3 5 2096.34 665.737 5
1 3 -5 1648.56 496.21 1
-1 -3 5 2701.54 738.329 9
-1 -3 5 1216.93 570.229 8
-1 -3 4 28380 2154.39 9
-1 -3 4 27803.5 2166.72 5
-1 -3 4 32114.8 2290.06 2
1 3 -4 27415.7 1759.6 1
-1 -3 4 28255.9 2170.2 8
-1 -3 3 4317.49 829.077 8
-1 -3 3 3451.87 732.317 5
1 3 -3 3363.73 694.267 1
-1 -3 3 3140.58 689.67 9
-1 -3 3 3201.85 735.583 2
-1 -3 2 85683.5 3238.56 9
-1 -3 2 79089.9 3366.77 5
-1 -3 2 79666.3 3320.58 2
1 3 -2 88492.1 2812.58 1
-1 -3 1 68559.2 3013.44 5
-1 -3 1 76071.5 2776.22 9
1 3 -1 75155.2 2335.87 1
-1 -3 1 69969 2932.45 2
-1 -3 0 18955.8 1500.05 5
1 3 0 21546.1 1429.88 7
1 3 0 23050.1 1157.46 1
-1 -3 0 19000.8 1118.48 6
-1 -3 0 21696.2 1492.92 2
-1 -3 -1 6633.46 713.288 6
1 3 1 8521.62 685.298 1
-1 -3 -1 9014.53 649.244 9
-1 -3 -1 8427.76 990.515 5
1 3 1 7925.56 913.729 7
-1 -3 -1 7510.3 816.758 2
1 3 2 14024.8 1261.53 7
-1 -3 -2 13395.9 1245.07 5
-1 -3 -2 14765.6 1070.33 2
1 3 3 20213 1558.12 7
-1 -3 -3 21959.6 1165.04 2
-1 -3 -3 19560.2 1541.46 5
1 3 4 5588.51 880.509 7
-1 -3 -4 6322.47 900.416 5
1 3 5 31339.8 2126.36 7
1 3 6 197991 5997.12 7
1 3 7 2929.18 761.502 7
1 3 8 29191.9 2381.75 7
1 3 9 10439.1 1497.74 7
1 3 10 1313.92 641.78 7
-1 -3 -11 16512.9 777.551 15
-1 -3 -12 7250.97 527.648 22
-1 -3 -12 7132.19 536.603 15
-1 -3 -13 3777.71 387.143 22
-1 -3 -13 3878.6 405.068 15
-1 -3 -14 24404 1001.45 22
-1 -3 -14 25205.5 1006.14 15
-1 -3 -15 614.656 175.189 15
-1 -3 -16 60.2683 109.103 15
-1 -3 -17 134.7 109.727 15
-1 -3 -18 944.919 156.452 15
-1 -4 15 386.803 124.455 10
-1 -4 15 425.693 130.008 14
-1 -4 14 83.455 101.124 20
-1 -4 14 196.028 124.815 10
-1 -4 13 496.275 168.435 25
-1 -4 12 1342.84 244.474 25
-1 -4 11 2275.45 301.128 25
-1 -4 11 2752.47 348.396 12
-1 -4 10 13898.6 768.737 12
-1 -4 10 13553 730.589 25
-1 -4 9 25129.6 987.17 25
-1 -4 9 24787.7 1027.72 12
-1 -4 8 185.695 139.617 12
-1 -4 8 196.843 133.918 25
-1 -4 7 2323.83 790.655 2
-1 -4 7 2294.57 824.042 9
-1 -4 7 2709.59 903.227 8
-1 -4 6 5279.21 1171.28 5
-1 -4 6 3553.06 948.734 2
-1 -4 6 3681.03 981.099 9
-1 -4 6 3225.1 999.87 8
-1 -4 5 1064.56 517.023 2
-1 -4 5 1201.44 629.263 9
-1 -4 5 216.057 360.79 5
-1 -4 5 586.75 475.548 8
-1 -4 4 1991.73 676.449 2
-1 -4 4 1405.55 615.991 8
-1 -4 4 1348.62 582.988 5
-1 -4 4 1134.72 451.675 9
-1 -4 3 27036.1 2135.37 9
-1 -4 3 27189.3 2271.15 5
-1 -4 3 29591.5 2339.32 2
-1 -4 3 26719.9 2266.22 8
-1 -4 2 9675.94 1305.54 5
-1 -4 2 10683.4 1229.27 9
-1 -4 2 8999.84 1246.17 2
-1 -4 1 124958 4662.46 5
-1 -4 1 107358 4239.84 2
-1 -4 0 31.073 251.407 2
-1 -4 0 200.905 297.635 5
1 4 1 182219 5433.84 7
-1 -4 -1 166525 5376.01 5
-1 -4 -1 167157 4946.74 2
1 4 2 16334.2 1561.19 7
-1 -4 -2 15779.9 1269.44 6
-1 -4 -2 16214.3 1568.11 5
-1 -4 -2 18194.3 1410.84 2
-1 -4 -3 7917.27 1129.8 5
1 4 3 7971.82 1146.42 7
1 4 4 912.18 486.746 7
-1 -4 -4 311.897 275.179 5
-1 -4 -5 3319.75 786.192 5
1 4 5 3633.91 860.514 7
1 4 6 814.66 531.862 7
-1 -4 -6 303.046 366.448 5
1 4 7 325.61 398.322 7
1 4 8 34894.7 2837.8 7
1 4 9 -161.154 389.176 7
-1 -4 -10 2742.98 324.573 15
-1 -4 -11 2183.13 300.534 15
-1 -4 -11 2139.32 294.336 22
-1 -4 -12 598.488 171.945 22
-1 -4 -12 482.8 172.429 15
-1 -4 -13 1204.95 238.729 15
-1 -4 -13 1235.79 228.881 22
-1 -4 -14 307.801 150.569 15
-1 -4 -14 379.187 145.915 22
-1 -4 -15 373.548 141.622 15
-1 -4 -16 -103.136 119.501 15
-1 -4 -17 1159.69 187.502 15
-1 -4 -18 41.9813 75.2361 15
-1 -5 14 655.619 139.572 10
-1 -5 13 2619.35 253.944 25
-1 -5 12 404.188 150.948 25
-1 -5 11 715.955 175.55 25
-1 -5 11 813.384 206.409 12
-1 -5 10 787.545 201.19 25
-1 -5 10 661.677 190.94 12
-1 -5 9 35354.6 1262.86 12
-1 -5 9 34633.1 1188.57 25
-1 -5 8 635.704 193.315 12
-1 -5 8 299.411 150.057 25
-1 -5 7 4752.84 420.141 25
-1 -5 7 4494.01 431.951 12
-1 -5 6 1493.12 237.633 25
-1 -5 6 1392.24 254.361 12
-1 -5 5 32137.7 2920.8 5
-1 -5 5 34204 3110.11 8
-1 -5 4 2090.23 852.758 8
-1 -5 4 2878.17 845.281 2
-1 -5 4 2000.03 723.181 5
-1 -5 3 1607.71 658.533 8
-1 -5 3 1593.89 625.601 2
-1 -5 3 1302.68 640.772 5
-1 -5 2 46855.7 3226.25 5
-1 -5 2 46355.4 3186.17 2
-1 -5 1 22295.7 2163.25 5
-1 -5 1 20669.7 2036.73 2
-1 -5 0 10533.6 1469.9 5
-1 -5 0 10244.3 1358.58 2
-1 -5 -1 4653.63 984.021 5
-1 -5 -1 5234.9 938.068 2
1 5 2 48.77 294.011 7
-1 -5 -2 14.8103 288.326 5
1 5 3 2689.05 780.037 7
-1 -5 -3 1819.45 681.851 5
-1 -5 -4 11381.4 1536.61 5
1 5 4 11397.6 1564.25 7
-1 -5 -5 1795.8 703.153 5
1 5 5 639.011 337.796 7
-1 -5 -6 3067.88 828.398 5
1 5 6 2623.56 859.106 7
1 5 7 8922.94 1524.5 7
-1 -5 -7 9483.54 1533.55 5
1 5 8 2536.45 888.954 7
-1 -5 -8 3595.77 987.862 5
-1 -5 -9 2029.04 286.21 22
-1 -5 -9 2498.91 310.93 15
-1 -5 -10 4564.56 427.68 22
-1 -5 -10 4131.7 400.111 15
-1 -5 -11 2274.41 308.277 15
-1 -5 -11 1859.49 280.462 22
-1 -5 -12 745.175 193.742 22
-1 -5 -12 630.603 176.934 15
-1 -5 -13 121.797 134.215 15
-1 -5 -13 120.319 104.757 22
-1 -5 -14 782.616 184.094 22
-1 -5 -14 242.62 137.522 15
-1 -5 -15 1626.9 245.14 15
-1 -5 -16 724.863 169.152 15
-1 -5 -17 476.35 118.345 15
-1 -6 13 393.914 115.298 10
-1 -6 12 1961.08 203.612 25
-1 -6 11 -27.373 104.088 25
-1 -6 10 157.19 120.492 25
-1 -6 10 161.776 155.736 12
-1 -6 9 2559.36 312.197 25
-1 -6 9 2586.63 332.447 12
-1 -6 8 4221.25 427.898 12
-1 -6 8 4972.48 428.14 25
-1 -6 7 380.518 154.977 12
-1 -6 7 332.473 147.89 25
-1 -6 6 2548.55 333.059 12
-1 -6 6 2063.75 289.697 25
-1 -6 5 614.784 189.224 12
-1 -6 5 308.89 137.916 25
-1 -6 4 1911.95 274.219 25
-1 -6 4 1693.22 293.058 18
-1 -6 4 1447.87 246.024 12
-1 -6 3 5481.74 466.748 12
-1 -6 3 5259.81 431.247 25
-1 -6 3 4875.7 432.447 23
-1 -6 2 3357.48 363.346 12
-1 -6 2 3760.24 372.196 23
-1 -6 2 3491.32 378.741 18
-1 -6 2 3403.62 343.573 25
-1 -6 1 599.853 482.83 2
-1 -6 1 942.078 650.539 5
-1 -6 0 366.203 427.152 5
-1 -6 -1 3491.37 972.492 5
-1 -6 -2 733.554 608.574 5
-1 -6 -3 13526 1862.26 5
-1 -6 -4 14242.8 1922.34 5
-1 -6 -5 76.9061 101.971 15
-1 -6 -6 74.4454 101.046 15
-1 -6 -7 56704.1 1562.94 15
-1 -6 -7 56760.9 1643.84 22
-1 -6 -8 -85.4206 130.9 15
-1 -6 -8 93.8278 123.782 22
-1 -6 -9 10655.1 671.04 22
-1 -6 -9 11300.1 669.6 15
-1 -6 -10 -53.6395 103.865 22
-1 -6 -10 -123.13 135.923 15
-1 -6 -11 3328.7 369.166 22
-1 -6 -11 3400.84 369.403 15
-1 -6 -12 3019.91 347.752 15
-1 -6 -12 3087.71 351.735 22
-1 -6 -13 5266.68 442.086 15
-1 -6 -14 3462.72 343.682 15
-1 -6 -15 286.123 133.94 15
-1 -6 -16 345.194 113.529 15
-1 -7 11 553.873 127.677 10
-1 -7 10 428.373 121.315 25
-1 -7 9 1394.81 197.627 25
-1 -7 9 1512.33 237.85 12
-1 -7 8 931.311 193.843 25
-1 -7 8 1008.06 216.242 12
-1 -7 7 4078.97 372.451 25
-1 -7 7 3627.2 381.39 12
-1 -7 6 788.853 192.969 25
-1 -7 6 346.287 152.34 12
-1 -7 5 60.0139 115.496 25
-1 -7 5 -7.97165 117.478 12
-1 -7 4 1904.04 274.459 25
-1 -7 4 2310.95 321.588 12
-1 -7 3 1939.57 277.687 25
-1 -7 3 2134.93 305.476 12
-1 -7 2 269.458 119.477 25
-1 -7 2 503.837 186.606 12
-1 -7 2 669.065 190.967 23
-1 -7 2 360.801 179.86 18
-1 -7 1 43.2952 97.1278 12
-1 -7 1 -31.8247 105.651 25
-1 -7 1 177.694 168.729 18
-1 -7 1 149.622 143.169 23
-1 -7 0 509.13 170.711 25
-1 -7 0 425.1 175.389 18
-1 -7 0 621.627 188.34 23
-1 -7 -1 1472.34 238.604 25
-1 -7 -1 1426.47 249.312 23
-1 -7 -1 1541.54 263.379 18
-1 -7 -2 -45.0549 157.626 18
-1 -7 -2 -28.7214 116.592 25
-1 -7 -2 58.0919 110.04 23
-1 -7 -3 231.252 131.384 25
-1 -7 -3 60.873 139.064 23
-1 -7 -4 2813 327.893 25
-1 -7 -4 2711.21 326.807 23
-1 -7 -5 60469.5 1639.97 23
-1 -7 -5 65233.1 1664.64 25
-1 -7 -6 -61.938 120.795 25
-1 -7 -6 32.6629 118.36 23
-1 -7 -6 5.65291 117.349 15
-1 -7 -7 16241.6 788.461 25
-1 -7 -7 17375.7 832.68 15
-1 -7 -8 232.783 137.526 25
-1 -7 -8 176.848 120.222 15
-1 -7 -9 11777.7 656.633 25
-1 -7 -9 12050.5 678.983 15
-1 -7 -10 -59.3061 133.107 25
-1 -7 -10 89.4002 113.527 15
-1 -7 -11 3693.29 365.586 25
-1 -7 -11 3373.54 351.278 15
-1 -7 -12 -35.143 114.716 25
-1 -7 -12 3.63752 118.337 15
-1 -7 -13 1.04797 92.7103 25
-1 -7 -13 -31.5757 100.467 15
-1 -7 -14 131.432 109.674 25
-1 -7 -14 0.58252 90.7827 15
-1 -7 -15 475.406 106.987 25
-1 -7 -15 914.529 145.468 15
-1 -8 8 366.935 124.222 12
-1 -8 7 2236.92 256.263 12
-1 -8 7 2233.04 230.137 25
-1 -8 6 388.291 140.654 25
-1 -8 6 132.24 129.017 12
-1 -8 5 459.597 153.273 25
-1 -8 5 269.685 132.252 12
-1 -8 4 107.299 109.936 25
-1 -8 4 51.4314 110.05 12
-1 -8 3 2424.76 319.288 12
-1 -8 3 2190.14 279.459 25
-1 -8 2 1684.99 252.862 25
-1 -8 2 1632.58 272.948 12
-1 -8 1 6168.62 498.683 12
-1 -8 1 6462 478.363 25
-1 -8 0 3852.08 383.224 25
-1 -8 0 4032.71 404.338 12
-1 -8 0 3549.46 380.94 23
-1 -8 -1 199.076 124.969 25
-1 -8 -1 240.745 153.461 23
-1 -8 -2 493.915 144.351 25
-1 -8 -2 548.164 177.999 23
-1 -8 -3 8430.71 552.352 25
-1 -8 -3 7803.18 535.907 23
-1 -8 -4 -92.4219 115.851 23
-1 -8 -4 -4.81211 132.921 25
-1 -8 -5 5682.94 438.815 25
-1 -8 -5 5319.35 438.797 23
-1 -8 -6 1103.28 200.494 25
-1 -8 -6 1134.26 217.285 23
-1 -8 -7 2383.51 292.489 25
-1 -8 -7 2568.64 301.6 23
-1 -8 -8 634.736 174.082 23
-1 -8 -8 879.323 197.991 25
-1 -8 -9 278.371 122.174 25
-1 -8 -9 171.972 115.099 23
-1 -8 -10 340.656 136.093 25
-1 -8 -10 320.356 124.459 23
-1 -8 -11 -12.0423 87.9748 25
-1 -8 -11 36.2066 82.6287 23
-1 -8 -12 102.433 85.0298 25
-1 -8 -13 -74.2361 71.8411 25
-1 -9 5 -60.3869 78.0732 12
-1 -9 4 -16.6983 81.9822 12
-1 -9 3 54.8476 93.1127 12
-1 -9 3 -158.968 107.937 25
-1 -9 2 -64.7244 89.3556 25
-1 -9 2 68.9022 109.995 12
-1 -9 1 372.222 124.384 25
-1 -9 1 323.912 135.04 12
-1 -9 0 686.127 152.263 25
-1 -9 0 357.166 139.459 12
-1 -9 -1 339.092 143.406 25
-1 -9 -1 135.414 102.846 12
-1 -9 -2 363.412 147.859 12
-1 -9 -2 327.26 118.695 25
-1 -9 -3 24.9506 100.481 12
-1 -9 -3 90.7198 101.15 23
-1 -9 -3 -104.409 102.403 25
-1 -9 -4 949.756 179.028 25
-1 -9 -4 782.181 164.454 23
-1 -9 -5 856.236 171.755 25
-1 -9 -5 968.83 184.595 23
-1 -9 -6 625.145 155.559 25
-1 -9 -6 565.244 135.278 23
-1 -9 -7 2099.39 231.292 23
-1 -9 -7 2250.93 244.499 25
-1 -9 -8 442.009 129.778 25
-1 -9 -8 443.189 115.564 23
-1 -9 -9 315.933 106.213 25
-1 -9 -10 385.889 102.613 25
-2 8 8 73.4725 74.0883 11
-2 8 7 37.5577 71.72 11
-2 8 6 613.003 137.803 11
-2 8 5 109.395 88.0435 11
2 -8 -5 181.913 90.9341 25
-2 8 4 51.7811 100.386 11
2 -8 -4 157.954 93.9625 25
2 -8 -3 279.577 110.091 25
-2 8 3 7.50571 75.2099 11
2 -8 -2 279.068 104.977 25
2 -8 -1 46.2518 86.4125 25
2 -8 0 66.0739 85.3425 25
2 -8 1 64.0332 82.8461 25
2 -8 2 833.479 151.333 25
2 -8 3 843.63 144.073 25
2 -8 4 58.3412 69.4771 25
-2 7 10 58.7557 82.1227 11
-2 7 10 12.0334 73.7464 17
-2 7 9 -33.985 88.3057 17
-2 7 8 120.915 92.5636 17
-2 7 7 495.5 141.892 17
2 -7 -7 757.94 158.831 25
2 -7 -6 177.333 97.6736 25
-2 7 6 121.45 95.9592 17
2 -7 -5 54.5108 102.052 25
-2 7 5 140.325 108.334 17
2 -7 -4 395.965 135.304 25
-2 7 4 108.438 96.9281 17
2 -7 -3 -109.287 128.81 25
-2 7 3 19.9598 97.3539 17
2 -7 -2 458.885 142.539 25
-2 7 2 561.741 162.149 17
2 -7 -1 57.6174 111.723 25
-2 7 1 319.783 149.68 11
-2 7 1 228.141 122.08 17
2 -7 0 2146.12 274.493 25
-2 7 0 2236.79 263.652 17
2 -7 1 3269.18 343.918 25
2 -7 2 74.9803 113.069 25
2 -7 3 233.72 131.103 25
2 -7 4 1588.47 231.411 25
2 -7 5 4805.79 373.998 25
2 -7 6 1698.4 217.11 25
2 -7 7 149.759 97.8376 25
2 -7 8 311.94 99.6657 25
-2 6 12 -31.8071 89.5965 19
-2 6 11 2044.22 241.364 19
-2 6 10 54.6509 108.379 19
-2 6 9 146.444 121.168 19
-2 6 8 1208.14 230.317 19
2 -6 -7 42.6153 100.229 25
-2 6 7 178.243 144.915 19
2 -6 -6 353.563 123.389 25
-2 6 6 342.036 160.93 19
2 -6 -5 720.51 168.615 25
-2 6 5 684.177 200.12 19
2 -6 -4 176.378 113.334 25
-2 6 4 -19.121 122.026 19
-2 6 3 4172.34 397.17 17
2 -6 -3 4834.44 409.613 25
2 -6 -2 106.228 114.047 25
-2 6 2 62.9754 107.424 17
-2 6 1 9573.06 603.262 17
2 -6 -1 10813.1 616.597 25
2 -6 0 185.108 128.196 25
-2 6 0 354.324 141.072 17
2 -6 1 771.574 178.665 25
-2 6 -1 560.17 161.329 17
2 -6 2 3485.32 363.047 25
-2 6 -2 3224.42 340.236 17
2 -6 3 24353.1 975.363 25
-2 6 -3 25822.3 957.83 17
-2 6 -4 11368.2 612.298 17
2 -6 4 10524.9 623.311 25
2 -6 5 8645.2 624.498 25
2 -6 6 1141.86 211.786 25
-2 6 -7 3335.41 316.911 13
2 -6 7 2591.74 296.603 25
2 -6 8 75.0868 107.259 25
-2 6 -8 18.5461 84.6292 13
2 -6 9 -77.3445 114.35 25
-2 6 -9 59.8299 81.023 13
2 -6 10 601.177 131.851 25
-2 6 -10 886.541 145.905 13
2 -6 11 427.284 114.47 25
-2 6 -11 661.612 121.865 13
-2 5 14 133.754 95.7363 19
-2 5 13 -125.666 109.018 19
-2 5 12 140.399 132.792 19
-2 5 11 114.745 131.398 19
-2 5 10 437.163 161.742 19
-2 5 9 924.228 212.613 19
-2 5 8 844.343 200.415 19
-2 5 7 1379.59 246.175 19
-2 5 6 1617.4 270.074 19
-2 5 5 3593.52 376.685 19
-2 5 4 -12.5563 127.936 19
-2 5 3 13344.9 694.817 19
-2 5 2 2889.01 329.505 19
-2 5 1 577.941 166.477 17
-2 5 0 8404.2 544.549 17
-2 5 -1 3294.33 338.87 17
-2 5 -2 1838.85 265.051 17
-2 5 -3 347.037 143.29 17
2 -5 4 218.583 129.997 25
-2 5 -4 302.114 137.2 17
-2 5 -4 250.82 113.599 13
2 -5 5 1280.32 226.864 25
-2 5 -5 1463.31 236.961 17
-2 5 -5 1325.19 221.951 13
2 -5 6 862.989 198.165 25
-2 5 -6 980.65 203.463 13
-2 5 -6 1044.09 216.602 17
-2 5 -7 99.3236 88.632 13
2 -5 7 62.9243 99.4463 25
-2 5 -7 -108.064 118.992 17
2 -5 8 159.712 79.3028 25
-2 5 -8 58.4 115.304 17
-2 5 -8 73.2732 101.628 13
-2 5 -9 954.367 201.007 13
2 -5 9 718.517 179.691 25
-2 5 -9 781.13 164.432 17
-2 5 -10 336.8 138.493 13
2 -5 10 255.505 124.825 25
-2 5 -11 187.284 117.405 13
2 -5 11 63.0122 95.9113 25
-2 5 -12 1545.32 202.053 13
2 -5 12 1373.99 190.133 25
-2 5 -13 538.722 135.978 16
-2 5 -13 689.428 126.62 13
-2 4 14 180.039 116.54 19
-2 4 13 -127.402 123.321 19
-2 4 12 400.336 150.461 19
-2 4 11 -130.901 140.013 19
-2 4 10 728.696 189.586 19
-2 4 9 4443.51 411.347 19
-2 4 8 -58.612 125.128 19
-2 4 7 598.996 190.348 19
-2 4 6 403.45 160.041 19
-2 4 5 1652.91 714.922 4
-2 4 5 564.457 180.506 19
-2 4 4 601.556 574.843 4
-2 4 3 10969.4 1724.64 4
-2 4 3 10870.3 1664.07 1
-2 4 2 4882.86 1194.66 4
-2 4 2 4838.16 1145.07 1
-2 4 1 2634.08 783.799 4
-2 4 1 2233.85 784.663 1
-2 4 0 98.4872 346.733 4
-2 4 0 922.122 481.959 1
-2 4 -1 2218.42 790.699 4
-2 4 -1 3167.97 895.214 1
-2 4 -2 2444.96 778.418 4
-2 4 -2 2018.15 736.164 1
-2 4 -3 5635.64 1267.19 4
-2 4 -3 6461.43 1259.6 1
-2 4 -4 3144.32 954.261 4
-2 4 -5 3253.99 333.444 17
-2 4 -5 3974.91 364.245 13
-2 4 -6 18.1954 94.8603 13
-2 4 -6 52.3912 99.9761 17
2 -4 7 1308.06 215.804 25
-2 4 -7 1536.44 246.867 17
-2 4 -7 2112.27 280.322 13
-2 4 -8 204.928 137.373 13
2 -4 8 448.764 160.019 25
-2 4 -8 169.659 121.986 17
2 -4 9 11061.1 644.454 25
-2 4 -9 10929.9 625.047 17
-2 4 -9 11095.2 657.743 13
-2 4 -10 -93.6787 118.14 13
2 -4 10 -124.751 147.489 25
-2 4 -10 128.935 116.11 17
2 -4 11 45.9468 105.648 25
-2 4 -11 165.195 117.635 13
-2 4 -12 135.151 115.866 13
2 -4 12 142.062 102.714 25
2 -4 13 1614.24 214.843 25
-2 4 -13 1788.97 231.655 13
2 -4 14 506.871 114.414 25
-2 4 -14 374.109 125.052 16
-2 4 -14 277.032 104.134 13
-2 3 15 131.042 90.1339 19
-2 3 14 -8.23746 110.627 19
-2 3 14 209.307 146.195 14
-2 3 13 350.03 163.459 14
-2 3 12 2289.98 324.473 14
-2 3 11 155.493 144.279 14
-2 3 10 1478.92 276.313 14
-2 3 9 605.955 169.516 14
-2 3 8 551.391 192.222 14
-2 3 7 249.935 125.94 14
-2 3 6 2991.97 848.957 9
2 -3 -6 2937.27 876.598 3
2 -3 -5 22572.6 2317.45 3
-2 3 5 21205.2 2177.63 4
2 -3 -4 24189.4 2354.97 3
-2 3 4 23947.8 2287.58 4
-2 3 3 1920.65 693.908 4
-2 3 3 1866.85 659.237 1
-2 3 2 5596.8 1077.33 4
-2 3 2 6456.91 1150.36 1
-2 3 1 24999.8 2211.43 1
-2 3 1 23557.7 2251.09 4
-2 3 0 6675.65 1196.53 4
-2 3 0 7240.37 1196 1
-2 3 -1 172.533 330.802 4
-2 3 -1 293.108 321.193 1
-2 3 -2 44866.7 2976.81 1
-2 3 -2 42192.6 3027.89 4
-2 3 -3 13587.1 1710.5 4
-2 3 -3 15167.2 1749.91 1
-2 3 -4 8650.59 1435.31 1
-2 3 -4 9845.1 1459.94 4
-2 3 -5 6680.08 1247.79 4
-2 3 -5 7998.95 1392.65 1
-2 3 -6 2344.13 764.952 1
-2 3 -7 974.19 195.528 17
-2 3 -7 856.652 180.686 13
-2 3 -8 195.479 119.905 17
-2 3 -8 372.319 141.204 13
-2 3 -9 603.062 175.337 13
-2 3 -9 383.107 153.268 17
-2 3 -10 301.07 142.549 13
2 -3 10 316.136 133.302 25
-2 3 -10 177.792 130.198 17
-2 3 -11 7385.04 524.132 17
-2 3 -11 7871.18 547.258 13
2 -3 11 7416.31 526.03 25
2 -3 12 22.5676 107.372 25
-2 3 -12 26.7047 101.05 13
-2 3 -13 4334.13 388.683 13
2 -3 13 4283.47 382.161 25
-2 3 -14 163.819 110.704 13
-2 3 -14 287.112 135.484 16
2 -3 14 127.059 100.958 25
-2 3 -15 123.342 89.7243 13
-2 3 -15 127.467 103.61 16
-2 2 16 3.31261 78.0474 19
-2 2 16 190.716 99.9604 14
-2 2 15 257.1 144.992 14
-2 2 14 -4.65871 113.659 14
-2 2 13 948.158 220.278 14
-2 2 12 495.875 173.033 14
-2 2 11 1659.39 281.692 14
-2 2 10 1931.72 296.939 14
-2 2 9 45.6646 125.434 14
-2 2 8 2856.87 899.879 9
-2 2 8 2927.94 342.011 14
2 -2 -7 5778.05 1201.18 3
-2 2 7 5102.07 1127.7 9
2 -2 -6 3900.47 951.432 3
-2 2 6 3061.85 887.766 9
-2 2 5 3666.51 834.101 4
2 -2 -5 2316.23 716.575 3
-2 2 5 2353.9 747.125 9
2 -2 -4 47003.4 3009.88 3
-2 2 4 44029.4 2962.24 9
-2 2 4 43490.3 2857.21 4
-2 2 3 53246.1 3197.85 9
-2 2 3 56776.4 3137.46 1
-2 2 3 50755.3 3082.07 4
-2 2 2 33409.8 2318.88 1
-2 2 2 29354.9 2326.89 9
-2 2 2 31246.2 2396.03 4
-2 2 1 3226.48 783.042 4
-2 2 1 3697.35 775.674 1
-2 2 0 6629.06 1026.35 1
-2 2 0 8792.52 1257.28 4
-2 2 -1 9152.49 1266.38 4
-2 2 -1 10267.2 1250.37 1
-2 2 -2 10476.7 1265.72 1
-2 2 -2 7937.63 1181.62 4
-2 2 -3 32755 2440.22 4
-2 2 -3 29312 2222.2 1
-2 2 -4 47989.8 3002.56 4
-2 2 -4 73775.5 3572.54 1
-2 2 -5 38711.3 2695.26 4
-2 2 -5 38183 2713.17 1
-2 2 -6 168.848 244.1 1
-2 2 -7 2591.7 781.803 1
-2 2 -8 3475.87 997.808 1
-2 2 -9 104.478 101.101 13
-2 2 -9 109.475 118.966 17
-2 2 -10 929.915 202.444 13
-2 2 -10 798.858 196.261 17
-2 2 -11 5.80977 85.2945 13
-2 2 -11 13.1079 112.684 17
2 -2 12 455.675 167.781 25
-2 2 -12 390.763 152.027 13
2 -2 13 749.985 185.867 25
-2 2 -13 851.087 188.938 13
-2 2 -14 -25.778 115.17 13
-2 2 -14 -43.8203 117.175 16
2 -2 14 97.7517 109.224 25
-2 2 -15 26.8856 78.3271 13
-2 2 -15 142.823 103.147 16
-2 2 -16 236.131 110.065 16
-2 2 -16 74.081 66.4058 13
-2 1 16 -124.745 107.793 14
-2 1 15 -35.3326 120.182 14
-2 1 14 120.253 117.065 14
-2 1 13 1.34049 124.973 14
-2 1 12 3134.41 380.542 20
-2 1 12 2909.4 368.721 14
-2 1 11 1596.67 273.935 14
-2 1 11 1188.68 240.867 20
-2 1 10 7800.45 575.668 20
-2 1 10 8242.58 590.83 14
-2 1 9 294.518 126.219 20
-2 1 9 170.658 115.749 14
2 -1 -8 9452.4 1517.72 3
-2 1 8 11636.3 1738.21 9
-2 1 8 7690.2 1477.75 8
2 -1 -7 595.139 419.085 3
-2 1 7 -210.726 314.074 9
-2 1 7 435.953 488.99 8
2 -1 -6 338.71 305.092 3
-2 1 6 323.784 350.162 9
-2 1 6 42.4193 369.04 8
2 -1 -5 14625.8 1624.45 3
-2 1 5 12092.7 1570.33 9
-2 1 5 15315.7 1553.46 4
-2 1 5 13895.5 1618.35 8
2 -1 -4 113962 4615.58 3
-2 1 4 113325 4749.13 9
-2 1 4 123213 4636.5 8
-2 1 4 125019 4595.9 4
2 -1 -3 82199 3585.12 3
-2 1 3 76813.4 3726.74 9
-2 1 3 74443.1 3491.38 4
-2 1 2 165079 5460.83 9
-2 1 2 162733 4837.69 1
-2 1 1 1490.77 539.092 4
-2 1 1 1406.4 424.125 1
-2 1 1 1339.35 545.82 9
-2 1 0 121.066 233.446 4
-2 1 0 587.939 338.768 1
-2 1 0 -181.295 269.715 9
-2 1 -1 12179.4 1191.07 1
-2 1 -1 11767.2 1342.67 4
-2 1 -2 49028.8 2476.21 1
-2 1 -2 53135.5 2760.5 6
-2 1 -2 50067.7 2788.38 4
-2 1 -3 46390.3 2631.25 6
-2 1 -3 48605.5 2772.88 4
-2 1 -3 52829.4 2585.89 1
-2 1 -4 66581.3 3144.79 6
-2 1 -4 59191.2 3068.46 4
-2 1 -4 59294.9 2926.34 1
-2 1 -5 2793.42 720.031 4
-2 1 -5 2031.49 616.149 1
-2 1 -5 1674.11 527 6
-2 1 -6 1867 614.144 1
-2 1 -6 1684.85 616.154 4
-2 1 -6 1239.02 543.078 6
-2 1 -7 623.981 377.81 6
-2 1 -7 36.2183 234.553 1
2 -1 8 507.086 466.138 7
-2 1 -8 923.685 497.226 1
2 -1 9 364.804 581.11 7
-2 1 -9 145.867 296.158 1
-2 1 -10 8354.14 533.319 17
-2 1 -10 7753.34 515.252 13
-2 1 -11 5394.67 440.089 13
-2 1 -12 1211.78 227.385 13
-2 1 -13 4287.99 424.069 16
-2 1 -13 4446.4 403.456 13
2 -1 13 4362.58 403.69 25
-2 1 -14 4022.4 403.854 16
-2 1 -14 3649.88 352.637 13
-2 1 -15 82.7004 88.7686 13
-2 1 -15 50.0323 121.39 16
-2 1 -16 391.832 122.92 16
-2 0 16 283.451 121.688 14
-2 0 15 76.5303 116.26 14
-2 0 14 -100.438 106.358 20
2 0 -14 -5.66294 95.4329 15
-2 0 14 -101.286 121.55 14
-2 0 13 120.642 139.4 20
2 0 -13 119.477 97.6283 15
-2 0 13 197.835 132.836 14
-2 0 12 2622.85 339.287 20
-2 0 12 2147.39 317.358 14
-2 0 11 -2.04075 119.424 20
-2 0 11 94.6723 115.445 10
-2 0 11 -166.047 155.79 14
-2 0 10 4034.82 408.622 20
-2 0 10 4641.24 414.992 10
-2 0 10 4803.01 450.647 14
-2 0 9 4353.26 388.77 10
-2 0 9 4792.76 440.069 14
-2 0 9 4692.44 436.354 20
2 0 -8 -504.455 396.356 3
-2 0 8 610.42 373.463 9
-2 0 8 581.284 500.69 8
2 0 -7 13333.7 1650.67 3
-2 0 7 12856.6 1771 9
-2 0 7 12467.7 1709.15 8
-2 0 6 65130.7 3611.49 2
2 0 -6 68516.5 3568.11 3
-2 0 6 69845.3 3919.37 9
-2 0 6 65393.8 3682.24 8
2 0 -5 5212.82 926.63 3
-2 0 5 6026.79 1051.42 2
-2 0 5 5160.01 1045.64 9
-2 0 5 5030.63 941.903 8
-2 0 5 5895.93 901.584 4
-2 0 4 -41.6372 275.025 2
2 0 -4 250.072 332.323 3
-2 0 4 276.219 344.823 9
-2 0 4 513.336 357.123 8
-2 0 4 81.7622 220.135 4
2 0 -3 17564.7 1481.04 3
-2 0 3 17799.7 1724.85 9
-2 0 3 15023.1 1351.21 8
-2 0 3 16152.2 1506.54 4
2 0 -2 1123.57 385.012 3
-2 0 2 1385.17 568.642 9
-2 0 2 1133.36 381.244 8
-2 0 2 848.142 452.239 4
-2 0 1 1617.22 514.29 4
-2 0 1 1329.57 478.546 9
-2 0 0 16457.6 1087.44 1
-2 0 0 14869.8 1438.21 9
-2 0 0 12888.6 1354.49 4
-2 0 -1 41221.8 1771.36 1
-2 0 -1 39861.1 2308.56 9
-2 0 -1 37428.4 2271.29 4
-2 0 -1 38938.4 2289.61 6
-2 0 -2 2738.05 619.874 4
-2 0 -2 2312.85 577.835 6
-2 0 -2 2753.01 477.398 1
-2 0 -3 4498.86 827.199 4
-2 0 -3 4720.96 816.028 6
-2 0 -3 4342.28 647.274 1
-2 0 -4 8995.51 970.511 1
-2 0 -4 8727.6 1097.83 4
-2 0 -4 9876.51 1197.74 6
2 0 5 6120.62 1032.8 7
-2 0 -5 8247.07 1138.62 6
-2 0 -5 8163.2 982.4 1
-2 0 -5 7670.11 1049.83 4
2 0 6 5773.22 1026.33 7
-2 0 -6 6987.82 1091.73 6
-2 0 -6 5093.71 822.994 1
-2 0 -6 5143.73 872.518 4
2 0 7 5819.96 1058.14 7
-2 0 -7 5401.85 983.958 6
-2 0 -7 6078.72 997.469 1
-2 0 -8 7351.02 1194.37 6
2 0 8 6318.23 1196.42 7
-2 0 -8 6903.98 1144.65 1
2 0 9 3794.06 1002.15 7
-2 0 -9 4471.03 975.283 6
-2 0 -9 5017.5 1033.42 1
2 0 10 6958.59 1415.09 7
-2 0 -10 4904.78 1183.19 1
-2 0 -11 3380.91 366.562 16
-2 0 -12 2327.59 318.611 16
-2 0 -13 -72.2702 112.753 16
-2 0 -14 2572.21 342.708 16
-2 0 -15 9382.81 597.119 16
-2 0 -16 89.0053 99.9113 16
-2 0 -17 1900.09 233.136 22
-2 -1 16 380.971 123.39 14
-2 -1 15 307.946 149.797 20
2 1 -15 216.568 91.2235 15
-2 -1 15 299.528 134.629 14
-2 -1 14 -71.6704 116.759 20
2 1 -14 101.42 100.786 15
-2 -1 14 82.6745 117.507 14
-2 -1 13 437.594 172.535 20
-2 -1 13 427.887 148.862 10
-2 -1 13 375.689 158.216 14
-2 -1 12 161.887 129.938 20
-2 -1 12 43.0328 103.079 10
-2 -1 12 231.163 135.262 14
-2 -1 11 71.4883 125.933 20
-2 -1 11 171.748 120.931 10
-2 -1 11 126.637 132.613 14
-2 -1 10 1815.25 286.488 20
-2 -1 10 1818.98 279.295 10
-2 -1 9 850.098 199.923 10
-2 -1 8 10201.6 1587.17 2
-2 -1 8 13122.4 1926.91 9
-2 -1 8 13426.3 1878.89 8
-2 -1 7 -123.316 303.221 2
2 1 -7 312.556 327.76 3
-2 -1 7 445.876 334.804 9
-2 -1 7 806.949 604.515 8
-2 -1 6 46304.6 3072.73 2
2 1 -6 48118.3 2892.14 3
-2 -1 6 50375.5 3420.99 9
-2 -1 6 50651.9 3209.44 8
2 1 -5 -70.4353 209.646 3
-2 -1 5 117.629 290.985 2
-2 -1 5 442.196 411.883 9
-2 -1 5 172.168 275.127 8
-2 -1 4 15259.5 1616.06 2
2 1 -4 17876.4 1494.95 3
-2 -1 4 16574.9 1751.88 9
-2 -1 4 17867.5 1604.17 8
-2 -1 3 13757.4 1459.03 2
2 1 -3 13456 1189.63 3
-2 -1 3 14964 1574.09 9
-2 -1 3 13821.5 1372.98 4
-2 -1 3 13315.5 1246.75 8
2 1 -2 124.928 201.581 3
-2 -1 2 242.587 256.846 5
-2 -1 2 397.142 403.398 9
-2 -1 2 -320.348 215.356 8
-2 -1 2 127.179 229.369 2
-2 -1 2 119.515 218.714 4
-2 -1 1 12561.1 1335.27 2
2 1 -1 16693.6 1115.17 3
-2 -1 1 14448.4 1266.31 5
-2 -1 1 14624.4 1442.78 9
-2 -1 1 14337.4 1391.23 4
-2 -1 0 6125.71 905.853 2
-2 -1 0 6094.12 915.35 6
-2 -1 0 6779.11 799.421 5
-2 -1 0 7568.98 976.851 9
-2 -1 0 6235.33 929.638 4
2 1 1 1781.53 391.049 7
-2 -1 -1 1602.07 516.052 6
-2 -1 -1 1578.82 377.116 5
-2 -1 -1 1985.21 486.769 9
-2 -1 -1 1111.67 430.796 4
2 1 2 55431.4 2371.16 7
-2 -1 -2 57464.1 2824.95 6
-2 -1 -2 62552.8 2249.74 5
-2 -1 -2 54761.6 2745.12 4
2 1 3 221.199 284.234 7
-2 -1 -3 90.8796 245.643 6
-2 -1 -3 236.65 187.496 5
-2 -1 -3 174.547 211.684 4
2 1 4 160.139 240.281 7
-2 -1 -4 581.81 354.12 6
-2 -1 -4 84.5865 239.636 4
2 1 5 6359.21 1006.43 7
-2 -1 -5 6485.23 1009.62 6
-2 -1 -5 7518.93 989.916 4
-2 -1 -6 3409.23 796.636 6
-2 -1 -6 2797.76 631.842 4
2 1 6 3464.76 827.909 7
2 1 7 1456.6 551.448 7
-2 -1 -7 2411.4 691.035 6
2 1 8 8711.01 1404.52 7
-2 -1 -8 10589.2 1465.51 6
-2 -1 -9 3104.32 801.537 6
2 1 9 3690.34 964.689 7
2 1 10 18023.4 2178.02 7
-2 -1 -10 19443.7 2159.81 6
-2 -1 -11 12141.1 687.913 16
-2 -1 -12 81272.6 2028.91 16
-2 -1 -13 33.6144 105.662 16
-2 -1 -14 -93.2786 141.53 16
-2 -1 -15 11.3503 111.169 16
-2 -1 -16 1973.72 275.543 22
-2 -1 -17 1287.42 197.728 22
-2 -2 15 -100.924 94.6686 20
-2 -2 15 10.7607 93.1501 10
2 2 -15 107.433 88.5491 15
-2 -2 15 39.2982 112.749 14
-2 -2 14 1535.42 219.012 10
-2 -2 14 1253.09 226.699 20
-2 -2 14 1305.56 239.187 14
-2 -2 13 193.955 143.73 20
-2 -2 13 279.696 130.522 10
-2 -2 13 122.748 127.591 14
-2 -2 12 5593.77 487.094 20
-2 -2 12 6483.52 484.804 10
-2 -2 12 6204.12 521.791 14
-2 -2 11 6080.14 483.95 10
-2 -2 10 187.167 159.968 10
-2 -2 9 225.112 140.151 10
-2 -2 8 2248.08 313.272 21
-2 -2 8 2718.74 922.068 8
-2 -2 7 245.141 327.487 2
-2 -2 7 -2.21772 264.822 9
-2 -2 7 74.3127 331.904 8
-2 -2 6 1657.52 626.859 2
-2 -2 6 1183.53 564.433 9
-2 -2 6 1808.55 633.712 8
-2 -2 5 2323.48 741.869 2
-2 -2 5 2262.43 698.646 9
-2 -2 5 3478.95 790.287 8
-2 -2 4 1498.56 579.443 2
-2 -2 4 2817.58 790.301 5
-2 -2 4 1717.83 626.992 9
-2 -2 4 1808.59 555.32 8
-2 -2 3 34544.7 2432.85 9
-2 -2 3 29665.1 2235.35 5
-2 -2 3 28925.5 1950.93 8
-2 -2 3 28594.5 2205.77 2
-2 -2 2 28097.3 2068.28 5
-2 -2 2 26859.8 2039 9
-2 -2 2 24266.8 1943.99 2
-2 -2 1 87097.6 3587.32 5
-2 -2 1 98493.7 3731.46 9
-2 -2 0 2274.15 549.549 6
-2 -2 0 2229.11 576.382 2
-2 -2 0 1705.05 511.886 5
-2 -2 0 1589.92 481.205 9
2 2 1 9016.64 867.145 7
-2 -2 -1 9070.62 1076.51 2
-2 -2 -1 8560.26 1028.46 5
-2 -2 -1 10172.8 1048.52 9
-2 -2 -1 9609.18 1120.14 6
-2 -2 -2 954.3 444.072 6
2 2 2 1750.84 432.109 7
-2 -2 -2 1715.04 485.772 2
-2 -2 -2 1639.3 505.023 5
-2 -2 -2 1195.53 360.783 9
2 2 3 7784.43 977.412 7
-2 -2 -3 9365.57 1161.36 6
-2 -2 -3 9463.93 1062.21 5
2 2 4 196766 5731.67 7
-2 -2 -4 216852 6271.51 6
2 2 5 403.989 362.067 7
-2 -2 -5 231.688 364.217 6
-2 -2 -5 337.252 260.73 5
2 2 6 77841 3793.97 7
-2 -2 -6 86416.9 4012.55 6
-2 -2 -6 86890.9 3502.85 5
-2 -2 -7 347.444 399.774 6
2 2 7 825.031 492.128 7
-2 -2 -7 960.473 416.43 5
2 2 8 40439.2 2956.33 7
-2 -2 -8 42654.1 3029.95 6
-2 -2 -9 2212.51 733.667 6
2 2 9 1356.43 717.683 7
-2 -2 -10 1170.64 565.482 6
2 2 10 -98.0615 533.209 7
-2 -2 -11 6098.79 488.318 16
-2 -2 -12 30919.9 1162.17 16
-2 -2 -13 4077.73 424.56 16
-2 -2 -14 359.573 173.152 22
-2 -2 -14 634.974 198.788 16
-2 -2 -15 143 109.112 22
-2 -2 -16 1195.29 220.258 22
-2 -2 -17 1910.7 235.666 22
-2 -3 15 126.723 88.6604 20
-2 -3 15 45.6764 75.7759 10
-2 -3 15 188.757 114.421 14
-2 -3 14 240.919 119.018 10
-2 -3 14 177.563 123.979 20
-2 -3 14 162.919 123.253 14
-2 -3 13 -27.1433 120.294 20
-2 -3 13 7.68477 106.484 10
-2 -3 13 51.1309 130.724 14
-2 -3 12 1417 268.239 20
-2 -3 12 1750.57 259.539 10
-2 -3 11 16554 797.922 10
-2 -3 10 2830.83 339.457 10
-2 -3 9 466.403 148.115 12
-2 -3 8 748.915 188.304 12
-2 -3 8 703.384 202.198 21
-2 -3 7 338.688 449.809 8
-2 -3 6 3570.97 902.806 2
-2 -3 6 2779.63 922.48 9
-2 -3 6 3631.87 945.442 8
-2 -3 5 1872.33 715.129 5
-2 -3 5 2627.52 767.279 2
-2 -3 5 2242.49 801.225 9
-2 -3 5 2356.96 738.439 8
-2 -3 4 79675.3 4219.22 5
-2 -3 4 84755.8 4235.49 9
-2 -3 4 79353.1 3891.82 8
-2 -3 4 75674.9 4049.05 2
-2 -3 3 27981.1 2388.16 5
-2 -3 3 28936.8 2301.5 9
-2 -3 3 23183.7 2122.92 2
-2 -3 2 808.786 502.902 2
-2 -3 2 787.893 437.257 5
-2 -3 2 118.062 268.256 9
-2 -3 1 7105.7 1111.97 5
-2 -3 1 7871.16 1083.07 9
-2 -3 1 8139.69 1157.06 2
-2 -3 0 3871.51 734.538 6
-2 -3 0 5558.56 829.261 9
-2 -3 0 4874.92 895.739 5
-2 -3 0 4284.32 822.023 2
-2 -3 -1 30.9798 199.453 6
-2 -3 -1 403.861 354.581 2
-2 -3 -1 3.77448 258.566 5
2 3 2 9305.05 1073.51 7
-2 -3 -2 9163.32 1083.29 2
-2 -3 -2 8471.42 1111.66 6
-2 -3 -2 9339.69 1199.6 5
2 3 3 17662.3 1561.13 7
-2 -3 -3 15367.1 1542.68 6
-2 -3 -3 17307.3 1637.09 5
-2 -3 -4 -336.514 299.335 6
2 3 4 319.621 327.23 7
-2 -3 -4 130.304 271.113 5
2 3 5 119.755 269.906 7
-2 -3 -5 -127.917 348.01 6
-2 -3 -5 60.6304 221.643 5
2 3 6 1447.51 596.541 7
-2 -3 -6 1578.25 615.977 6
-2 -3 -6 1734.54 562.647 5
2 3 7 10842.9 1487.34 7
-2 -3 -7 9427.37 1430.08 6
-2 -3 -7 9814.42 1339.82 5
2 3 8 287.39 344.651 7
-2 -3 -8 56.3327 382.73 6
2 3 9 20099.6 2245.69 7
-2 -3 -9 18039.9 2157.9 6
-2 -3 -9 20468.6 2234.68 5
-2 -3 -10 8316.72 566.373 22
-2 -3 -10 8280.27 567.491 16
-2 -3 -11 3663.53 391.163 22
-2 -3 -12 1750.48 289.519 22
-2 -3 -13 257.28 141.988 22
-2 -3 -13 315.76 132.481 15
-2 -3 -14 1764.88 281.603 22
-2 -3 -14 1491.77 231.425 15
-2 -3 -15 5348.48 459.792 22
-2 -3 -15 5568.58 412.452 15
-2 -3 -16 486.021 157.272 22
-2 -3 -17 286.901 118.947 22
-2 -4 14 283.65 116.381 20
-2 -4 14 244.385 110.625 10
-2 -4 14 245.132 118.853 14
-2 -4 13 501.72 142.742 10
-2 -4 13 597.873 165.534 20
-2 -4 13 445.146 164.504 14
-2 -4 12 3349.67 337.892 10
-2 -4 11 3934.31 384.43 10
-2 -4 10 1746.55 266.691 12
-2 -4 10 2147.92 302.696 10
-2 -4 9 18785.2 876.068 12
-2 -4 8 179.623 139.766 12
-2 -4 7 7828.89 547.26 12
-2 -4 6 3741.41 368.744 12
-2 -4 5 8568.35 1516.85 2
-2 -4 5 7806.17 1471.97 5
-2 -4 5 8636.46 1468.13 9
-2 -4 4 2504.97 827.258 2
-2 -4 4 4159.01 1057.84 5
-2 -4 4 3802.49 959.377 9
-2 -4 3 3701.73 912.049 2
-2 -4 3 3042.12 864.28 5
-2 -4 2 550.423 396.23 2
-2 -4 2 171.355 335.137 5
-2 -4 1 8962.24 1404.67 5
-2 -4 1 8386.63 1285.73 2
-2 -4 0 10972.8 1491.83 5
-2 -4 0 9221.75 1289.72 2
-2 -4 -1 4618.51 879.507 2
-2 -4 -1 3244.76 820.479 5
2 4 2 169.6 392.165 7
-2 -4 -2 113.488 278.078 5
2 4 3 591.601 333.661 7
-2 -4 -3 550.812 337.68 6
-2 -4 -3 1087.03 575.958 5
2 4 4 5763.3 1060.33 7
-2 -4 -4 5443.61 996.489 6
-2 -4 -4 6134.31 1134.6 5
2 4 5 4095.95 942.876 7
-2 -4 -5 4730.79 973.246 6
-2 -4 -5 3450.35 825.873 5
2 4 6 19649.7 2074.72 7
-2 -4 -6 20768.6 2111.69 6
-2 -4 -6 24195 2227.04 5
2 4 7 2267.13 794.983 7
-2 -4 -7 1741.96 690.19 6
-2 -4 -7 1680.71 640.25 5
2 4 8 278.407 566.271 7
-2 -4 -8 -321.186 390.367 6
-2 -4 -8 -254.156 422.419 5
-2 -4 -9 1438.16 680.249 5
-2 -4 -9 -23.5235 115.454 22
-2 -4 -10 351.152 159.427 22
-2 -4 -10 236.326 114.688 15
-2 -4 -11 82.6098 117.654 22
-2 -4 -11 -259.467 139.566 15
-2 -4 -12 12598.3 749.698 22
-2 -4 -12 13262.3 705.743 15
-2 -4 -13 -48.422 117.572 22
-2 -4 -13 183.598 112.242 15
-2 -4 -14 2913.53 354.946 22
-2 -4 -14 2592.95 301.605 15
-2 -4 -15 797.528 205.368 22
-2 -4 -15 725.786 166.589 15
-2 -4 -16 380.929 125.307 15
-2 -4 -16 198.488 118.833 22
-2 -4 -17 -73.4984 76.7178 22
-2 -5 13 742.78 148.839 20
-2 -5 13 1050.72 160.426 10
-2 -5 13 1260.81 185.085 14
-2 -5 12 857.771 169.606 10
-2 -5 11 289.283 139.046 10
-2 -5 10 209.614 123.163 12
-2 -5 10 219.588 126.725 10
-2 -5 9 144.3 125.976 12
-2 -5 8 -70.5412 106.617 12
-2 -5 7 6310.52 503.563 12
-2 -5 6 5579.35 478.032 12
-2 -5 6 6016.49 504.201 18
-2 -5 5 4251.86 406.602 12
-2 -5 5 4496.47 448.84 18
-2 -5 4 1959.02 284.497 12
-2 -5 4 1690.97 293.785 18
-2 -5 3 3436.35 353.461 12
-2 -5 3 3107.79 337.217 23
-2 -5 3 3080.12 350.148 18
-2 -5 2 -348.917 380.124 2
-2 -5 2 317.319 453.745 5
-2 -5 1 8102.18 1353.44 2
-2 -5 1 10489.8 1648.28 5
-2 -5 0 912.693 499.766 2
-2 -5 0 637.482 448.686 5
-2 -5 -1 4182.59 1054.15 5
-2 -5 -2 564.658 442.888 5
2 5 3 2365.84 761.735 7
-2 -5 -3 1490.75 631.918 5
-2 -5 -4 15698.2 1915.47 5
2 5 4 16112.2 1912.4 7
2 5 5 1609.45 678.264 7
-2 -5 -5 1791.96 763.959 5
2 5 6 797.297 585.462 7
-2 -5 -6 757.224 514.683 6
-2 -5 -6 198.264 356.07 5
-2 -5 -7 12811.3 709.456 22
-2 -5 -7 11089.4 632.07 15
-2 -5 -8 9830.5 637.789 22
-2 -5 -8 9395.46 588.667 15
-2 -5 -9 -91.2536 106.794 22
-2 -5 -9 69.9493 105.414 15
-2 -5 -10 3342.77 390.615 22
-2 -5 -10 3692.08 374.539 15
-2 -5 -11 492.029 184.056 22
-2 -5 -11 412.212 161.663 15
-2 -5 -12 513.608 187.32 22
-2 -5 -12 610.594 183.738 15
-2 -5 -13 4663.17 435.435 22
-2 -5 -13 4683.35 415.147 15
-2 -5 -14 278.787 158.155 22
-2 -5 -14 258.601 134.713 15
-2 -5 -15 425.805 131.014 22
-2 -5 -15 548.248 138.799 15
-2 -5 -16 41.3213 81.7187 22
-2 -5 -16 -50.5415 89.007 15
-2 -6 12 -76.7535 97.1185 20
-2 -6 11 3084.03 272.982 10
-2 -6 10 1370.24 213.338 10
-2 -6 9 812.074 190.02 12
-2 -6 9 760.121 179.656 10
-2 -6 8 30.5747 117.497 12
-2 -6 8 26.5453 112.547 10
-2 -6 7 5343.21 461.678 12
-2 -6 6 64.0819 125.245 12
-2 -6 5 746.468 191.25 12
-2 -6 5 1136.44 244.798 18
-2 -6 4 564.662 176.036 12
-2 -6 4 726.433 249.275 18
-2 -6 3 2968.93 355.563 12
-2 -6 3 3118.12 375.708 18
-2 -6 2 50.9069 98.4087 12
-2 -6 2 68.935 106.64 23
-2 -6 2 187.604 200.01 18
-2 -6 1 683.789 167.029 23
-2 -6 1 969.639 235.72 18
-2 -6 0 138.475 128.931 23
-2 -6 0 -121.955 174.445 18
-2 -6 -1 -78.6431 127.788 23
-2 -6 -2 10219.7 610.606 23
-2 -6 -3 15536.2 750.421 23
-2 -6 -4 261.202 149.513 23
-2 -6 -5 140733 2774.31 15
-2 -6 -6 585.642 197.594 22
-2 -6 -6 358.102 157.689 15
-2 -6 -7 25.1654 123.64 15
-2 -6 -7 128.225 144.066 22
-2 -6 -8 51.018 132.837 22
-2 -6 -8 -25.4799 105.733 15
-2 -6 -9 14822.3 808.025 22
-2 -6 -9 13156.3 718.713 15
-2 -6 -10 6033.42 518.872 22
-2 -6 -10 6330.22 492.998 15
-2 -6 -11 1857.4 297.912 22
-2 -6 -11 1302.61 238.003 15
-2 -6 -12 2650.8 341.432 22
-2 -6 -12 2490.94 303.84 15
-2 -6 -13 1027.02 221.754 22
-2 -6 -13 1042.74 218.577 15
-2 -6 -14 -30.1085 112.816 22
-2 -6 -14 -174.992 115.09 15
-2 -6 -15 63.8258 81.8944 15
-2 -7 9 -5.49882 86.6391 12
-2 -7 9 141.254 95.6845 10
-2 -7 8 107.487 102.056 12
-2 -7 8 267.808 114.347 10
-2 -7 7 473.719 163.538 12
-2 -7 6 172.533 154.423 12
-2 -7 5 1149.43 230.639 12
-2 -7 4 1343.34 253.908 12
-2 -7 4 1581.01 294.384 18
-2 -7 3 6612.96 524.768 12
-2 -7 3 6751.92 545.888 18
-2 -7 2 2303.08 322.69 12
-2 -7 2 2493.08 344.661 18
-2 -7 1 3661.65 404.069 12
-2 -7 1 3695.85 390.681 23
-2 -7 1 4125.31 429.113 18
-2 -7 0 365.733 157.87 12
-2 -7 0 237.918 151.849 23
-2 -7 0 427.611 206.116 18
-2 -7 -1 4445.69 419.538 23
-2 -7 -1 3806.03 393.915 18
-2 -7 -2 4379.22 413.257 23
-2 -7 -2 3889.19 397.477 18
-2 -7 -3 21497.5 924.597 23
-2 -7 -3 19956.3 879.823 18
-2 -7 -4 9624.49 616.197 23
-2 -7 -4 9766.98 594.279 18
-2 -7 -5 6611.38 516.061 23
-2 -7 -6 273.117 139.946 23
-2 -7 -8 567.038 174.957 15
-2 -7 -9 -36.8513 108.235 15
-2 -7 -10 4890.15 414.237 15
-2 -7 -11 -88.82 107.88 15
-2 -7 -12 1167.2 207.164 15
-2 -7 -13 82.932 101.15 15
-2 -7 -14 265.476 111.148 15
-2 -8 7 487.076 129.026 12
-2 -8 6 314.32 135.645 12
-2 -8 5 -31.9099 97.8995 12
-2 -8 4 488.837 168.194 12
-2 -8 3 2042.81 283.691 12
-2 -8 2 360.536 157.721 12
-2 -8 1 43.1565 124.957 12
-2 -8 1 8.0784 168.381 18
-2 -8 0 707.223 202.091 12
-2 -8 0 909.741 218.511 23
-2 -8 0 614.212 203.613 18
-2 -8 -1 4790.87 438.961 12
-2 -8 -1 4817.5 435.427 23
-2 -8 -1 4257.12 413.15 18
-2 -8 -2 1986.64 301.716 18
-2 -8 -2 1846.36 279.255 23
-2 -8 -3 976.326 229.336 18
-2 -8 -3 1026.2 219.507 23
-2 -8 -4 2535.95 316.305 23
-2 -8 -4 2155.36 282.928 18
-2 -8 -5 1275.77 239.528 23
-2 -8 -6 438.106 157.595 23
-2 -8 -7 7762.69 524.178 23
-2 -8 -8 385.272 150.172 23
-2 -8 -9 2589.48 299.287 23
-2 -8 -10 -39.116 98.6926 23
-2 -8 -11 1105.96 181.397 23
-2 -8 -12 725.215 152.29 23
-2 -8 -13 -52.3742 74.3143 23
-2 -9 4 49.7265 75.7876 12
-2 -9 3 181.337 103.207 12
-2 -9 2 601.624 147.291 12
-2 -9 1 3225.98 308.545 12
-2 -9 0 12.8743 95.8854 12
-2 -9 -1 118.762 106.902 12
-2 -9 -2 24.3039 100.856 12
-2 -9 -2 168.934 129.665 23
-2 -9 -3 889.162 184.575 12
-2 -9 -3 697.753 169.405 23
-2 -9 -4 22.1985 100.682 12
-2 -9 -4 -37.8474 106.837 23
-2 -9 -5 1518.64 219.372 23
-2 -9 -6 975.734 182.424 23
-2 -9 -7 172.082 123.932 23
-2 -9 -8 736.906 153.418 23
-2 -9 -9 748.569 142.129 23
-2 -9 -10 646.453 119.825 23
-3 7 6 47.949 74.5727 11
-3 7 6 28.7036 66.3151 17
-3 7 5 54.009 77.6716 11
-3 7 5 130.984 85.058 17
-3 7 4 255.859 103.136 11
-3 7 4 305.85 106.021 17
-3 7 3 336.423 117.065 11
-3 7 3 332.937 109.927 17
-3 7 2 1227.65 183.434 11
-3 7 2 1398.64 183.515 17
-3 7 1 1565.35 196.145 11
-3 7 1 1850.72 205.268 17
-3 7 0 120.304 90.027 17
-3 7 -1 150.276 83.2611 17
-3 7 -2 3133 245.088 17
-3 7 -3 2434.94 210.261 17
-3 6 9 -15.6929 62.2346 11
-3 6 9 81.3458 83.7456 17
-3 6 8 140.33 93.4146 11
-3 6 8 129.354 96.8439 17
-3 6 7 5.08375 89.0499 11
-3 6 7 -0.59387 87.4691 17
-3 6 6 811.154 177.097 11
-3 6 6 741.938 168.792 17
-3 6 5 5017.01 414.984 11
-3 6 5 4480.6 366.365 17
-3 6 4 420.506 175.938 11
-3 6 4 396.252 143.137 17
-3 6 3 1241.84 234.202 11
-3 6 3 1352.45 224.291 17
-3 6 2 -5.41712 108.101 11
-3 6 2 208.706 132.906 17
-3 6 1 480.162 148.008 11
-3 6 1 722.885 174.976 17
-3 6 0 851.071 195.338 11
-3 6 0 1459.18 232.292 17
-3 6 -1 2229.19 275.883 11
-3 6 -1 2111.19 268.689 17
-3 6 -2 2858.05 306.681 17
-3 6 -3 2763.15 293.668 17
-3 6 -4 53.5626 80.2809 17
-3 6 -5 432.617 129.864 17
-3 6 -6 16.787 88.0939 17
-3 6 -7 185.706 87.4746 17
-3 6 -7 116.874 69.3494 13
-3 6 -8 803.751 118.237 13
-3 5 11 300.734 110.567 19
-3 5 11 78.4586 70.3199 17
-3 5 10 95.9811 101.573 19
-3 5 10 -110.205 78.1093 17
-3 5 9 340.039 119.572 11
-3 5 9 205.211 116.42 19
-3 5 8 -10.6747 88.9477 11
-3 5 8 64.6683 111.512 19
-3 5 7 63.0429 103.477 11
-3 5 7 141.123 124.284 19
-3 5 7 201.998 120.536 17
-3 5 6 92.5853 102.833 11
-3 5 6 297.543 144.05 19
-3 5 6 3.82351 121.759 17
-3 5 5 2035.18 303.301 11
-3 5 5 2034.93 275.987 19
-3 5 5 1897.56 284.988 17
-3 5 4 14.191 118.281 11
-3 5 4 141.012 134.661 19
-3 5 4 -122.685 135.637 17
-3 5 3 1134.91 235.119 11
-3 5 3 1135.62 219.784 19
-3 5 3 976.958 223.685 17
-3 5 2 -43.779 102.884 11
-3 5 2 -81.7542 116.936 17
-3 5 1 239.216 137.123 11
-3 5 1 41.0646 105.062 17
-3 5 0 391.813 150.129 11
-3 5 0 524.386 171.288 17
-3 5 -1 3471.56 375.476 11
-3 5 -1 3469.51 371.558 17
-3 5 -2 -27.0909 96.92 11
-3 5 -2 -119.273 135.253 17
-3 5 -2 -31.3456 87.0712 13
-3 5 -3 -68.0015 122.916 17
-3 5 -3 -44.4781 95.2121 13
-3 5 -4 184.896 116.021 17
-3 5 -4 238.774 110.119 13
-3 5 -5 1015.41 194.912 17
-3 5 -5 1019.74 195.919 13
-3 5 -6 439.586 165.158 17
-3 5 -6 309.022 124.94 13
-3 5 -7 -81.1917 123.744 17
-3 5 -7 -103.434 106.555 13
-3 5 -8 83.1643 90.2331 17
-3 5 -8 108.166 81.3558 13
-3 5 -9 427.325 129.564 17
-3 5 -9 286.261 109.053 13
-3 5 -10 629.455 128.523 13
-3 5 -11 53.2245 65.3524 13
-3 4 12 151.975 104.437 19
-3 4 11 598.574 154.58 19
-3 4 10 463.819 145.935 19
-3 4 9 -247.764 110.335 11
-3 4 9 35.6589 125.669 19
-3 4 8 3252.08 350.468 11
-3 4 8 2497.59 300.114 19
-3 4 7 652.457 171.129 11
-3 4 7 834.335 204.088 19
-3 4 6 1482.57 261.432 11
-3 4 6 1233.98 231.136 19
-3 4 5 1417.42 268.618 11
-3 4 5 1515.09 246.749 19
-3 4 4 225.195 132.927 11
-3 4 4 358.099 163.449 19
-3 4 3 233.805 143.402 11
-3 4 3 79.886 131.532 19
-3 4 3 265.51 139.067 17
-3 4 2 1440.16 256.665 11
-3 4 2 1420.19 249.898 17
-3 4 1 149.189 145.404 11
-3 4 1 -73.0394 132.832 17
-3 4 0 704.532 191.716 11
-3 4 0 1146.3 237.528 17
-3 4 0 739.342 175.326 13
-3 4 -1 878.125 206.315 11
-3 4 -1 1037.65 214.788 17
-3 4 -1 1135.47 211.407 13
-3 4 -2 697.459 194.981 11
-3 4 -2 417.068 154.883 17
-3 4 -2 579.145 157.614 13
-3 4 -3 1004.01 214.404 11
-3 4 -3 917.602 206.484 17
-3 4 -3 1434.47 245.619 13
-3 4 -4 831.845 213.817 17
-3 4 -4 834.283 197.444 13
-3 4 -5 63.6538 122.53 17
-3 4 -5 44.0556 105.849 13
-3 4 -6 69.4564 105.818 17
-3 4 -6 76.7825 134.384 13
-3 4 -7 4258.58 399.002 17
-3 4 -7 4060.23 385.333 13
-3 4 -8 57.6391 121.904 17
-3 4 -8 34.3931 102.265 13
-3 4 -9 1029.92 211.54 17
-3 4 -9 1228.23 215.18 13
-3 4 -10 677.49 169.754 17
-3 4 -10 555.978 152.9 13
-3 4 -11 4315.45 352.345 13
-3 4 -12 209.756 112.569 16
-3 4 -12 303.907 107.235 13
-3 4 -13 -29.3972 84.8802 16
-3 4 -13 97.169 75.2536 13
-3 3 13 107.188 94.6914 19
-3 3 12 25.3719 117.871 19
-3 3 11 693.483 172.563 19
-3 3 10 133.125 116.113 19
-3 3 9 29.9805 123.856 19
-3 3 8 92.3943 122.365 19
-3 3 7 1174.63 228.004 11
-3 3 7 963.276 202.594 19
-3 3 6 1921.99 289.202 11
-3 3 6 1507.17 247.157 19
-3 3 5 8847.58 550.988 10
-3 3 5 8878.55 564.21 19
-3 3 5 8210.79 592.72 11
-3 3 4 2658.93 345.71 11
-3 3 4 2907.92 326.369 10
-3 3 4 3097.18 336.344 19
-3 3 4 3427.1 353.896 13
-3 3 3 687.257 188.391 11
-3 3 3 686.951 191.63 10
-3 3 3 380.309 143.756 13
-3 3 2 4178.51 415.785 11
-3 3 2 3731.52 369.242 10
-3 3 2 3397.92 389.189 17
-3 3 2 3412.67 343.823 13
-3 3 1 1239.16 245.405 11
-3 3 1 1955.84 277.52 10
-3 3 1 1274.9 223.013 17
-3 3 1 1425.55 231.744 13
-3 3 0 871.133 203.217 11
-3 3 0 1447.91 268.991 10
-3 3 0 782.67 192.772 17
-3 3 0 778.78 174.085 13
-3 3 -1 2738.13 338.293 11
-3 3 -1 3808.55 393.474 10
-3 3 -1 2947.84 338.973 17
-3 3 -1 2969.16 326.567 13
-3 3 -2 299.083 122.967 11
-3 3 -2 329.172 146.676 17
-3 3 -2 351.095 141.55 13
-3 3 -3 14431.1 762.736 11
-3 3 -3 16032 771.559 17
-3 3 -3 15854.1 764.739 13
-3 3 -4 83.2528 93.902 11
-3 3 -4 75.119 107.59 17
-3 3 -4 122.831 120.747 13
-3 3 -5 886.726 195.68 17
-3 3 -5 1108.5 219.9 13
-3 3 -6 472.11 180.126 17
-3 3 -6 465.818 160.347 13
-3 3 -7 1403.16 245.996 17
-3 3 -7 1599.18 254.138 13
-3 3 -8 -23.0411 109.667 17
-3 3 -8 75.0994 103.133 13
-3 3 -9 5523.41 456.333 17
-3 3 -9 5748.81 464.382 13
-3 3 -10 20.325 117.774 17
-3 3 -10 95.8805 120.535 13
-3 3 -11 736.554 179.319 17
-3 3 -11 899.665 195.654 13
-3 3 -12 324.988 143.112 16
-3 3 -12 254.303 120.896 13
-3 3 -13 127.831 117.026 16
-3 3 -13 -102.405 99.48 13
-3 3 -14 150.612 98.8332 16
-3 3 -14 237.847 94.3395 13
-3 2 14 -35.696 82.7478 19
-3 2 13 -112.738 121.018 19
-3 2 12 935.56 196.274 14
-3 2 11 282.779 155.102 14
-3 2 10 778.484 200.93 14
-3 2 9 1934.48 292.174 14
-3 2 8 -4.83348 132.078 14
-3 2 7 5026.28 422.204 10
-3 2 6 91.4869 86.2314 11
-3 2 6 96.0035 114.23 10
-3 2 6 84.1267 96.0984 13
-3 2 5 5741.09 475.254 11
-3 2 5 5294.16 432.259 10
-3 2 5 6099.05 469.873 13
-3 2 4 24369.3 994.287 11
-3 2 4 24197.8 936.118 10
-3 2 4 24100.3 953.933 13
-3 2 3 6907.14 517.014 11
-3 2 3 7490.5 502.074 10
-3 2 3 8011.72 525.291 13
-3 2 2 1678.53 727.57 4
-3 2 1 -95.0798 330.5 4
-3 2 0 14022.3 1938.42 4
-3 2 -1 6111.12 1318.28 4
-3 2 -2 1451.03 567.202 4
-3 2 -3 1981.13 810.67 4
-3 2 -4 1175.25 210.556 17
-3 2 -4 1557.27 246.91 13
-3 2 -5 210.132 115.463 11
-3 2 -5 206.514 128.331 17
-3 2 -5 516.376 157.848 13
-3 2 -6 9836.73 597.581 17
-3 2 -6 9844.37 595.424 13
-3 2 -7 1291.74 231.089 17
-3 2 -7 1026.95 207.579 13
-3 2 -8 3395.46 362.451 17
-3 2 -8 3348.86 356.863 13
-3 2 -9 1349.91 254.85 17
-3 2 -9 1529.08 269.304 13
-3 2 -10 1009.77 220.89 17
-3 2 -10 617.505 177.597 13
-3 2 -11 5185.67 435.805 17
-3 2 -11 4946.64 421.22 13
-3 2 -12 255.314 126.689 16
-3 2 -12 319.665 145.876 13
-3 2 -13 85.1143 119.677 16
-3 2 -13 162.123 112.711 13
-3 2 -14 498.608 150.807 16
-3 2 -14 409.911 115.091 13
-3 2 -15 -9.81075 81.9744 16
-3 2 -15 144.613 74.9489 13
-3 1 14 197.064 102.019 14
-3 1 13 241.477 113.305 14
-3 1 12 3801.14 361.773 14
-3 1 11 -3.53374 118.795 14
-3 1 10 -13.585 97.4555 10
-3 1 10 33.6498 124.35 14
-3 1 9 1762.36 261.599 10
-3 1 9 2052.46 317.117 14
-3 1 8 15.7753 99.1226 10
-3 1 8 -22.7733 129.458 14
-3 1 7 296.528 142.798 10
-3 1 6 17257 791.756 10
-3 1 6 17139.8 821.049 13
-3 1 5 5405 431.035 10
-3 1 5 5277.55 440.893 13
-3 1 4 2362.23 808.621 4
-3 1 3 2222.73 833.224 9
-3 1 3 3319.45 932.999 4
-3 1 2 1656.11 716.398 9
-3 1 2 1447.61 634.968 4
-3 1 1 1073.64 559.589 4
-3 1 0 1288.24 657.162 4
-3 1 -1 7071.93 1282.61 4
-3 1 -2 3892.74 984.085 4
-3 1 -3 20864.2 2257.69 4
-3 1 -4 540.61 411.179 4
3 -1 5 8349.58 1445.04 7
-3 1 -5 10784.6 1617.58 4
3 -1 6 2745.5 842.687 7
-3 1 -6 2179.14 781.614 6
-3 1 -6 2866.24 318.316 17
-3 1 -6 2774.27 312.181 13
-3 1 -7 435.324 149.404 11
-3 1 -7 307.031 143.028 17
-3 1 -7 435.273 146.362 13
-3 1 -8 978.291 207.184 17
-3 1 -8 566.939 149.086 13
-3 1 -9 310.549 161.193 17
-3 1 -9 168.58 106.38 13
-3 1 -10 -4.5344 124.937 17
-3 1 -10 -42.5309 95.2135 13
-3 1 -11 5154.53 446.268 17
-3 1 -11 4258.23 428.641 16
-3 1 -11 4274.29 399.719 13
-3 1 -12 513.956 168.415 16
-3 1 -12 455.22 148.011 13
-3 1 -13 3669.33 384.921 16
-3 1 -13 3532.29 335.736 13
-3 1 -14 -95.2964 219.961 24
-3 1 -14 -41.3635 110.847 16
-3 1 -14 16.5528 73.8754 13
-3 1 -15 109.769 113.699 16
-3 1 -16 125.234 93.4253 22
-3 1 -16 114.548 85.3944 16
-3 0 14 38.0398 99.1455 14
-3 0 13 274.411 118.212 14
-3 0 12 19.5232 94.6421 10
-3 0 12 64.219 108.686 14
-3 0 11 506.205 159.83 10
-3 0 11 667.632 182.294 14
-3 0 10 1225.75 247.514 20
-3 0 10 1021.19 205.047 10
-3 0 10 1011.97 210.476 14
-3 0 9 844.983 218.309 20
-3 0 9 700.135 177.507 10
-3 0 9 1020.09 212.368 14
-3 0 8 537.076 195.049 20
-3 0 8 471.663 155.26 10
-3 0 7 1412.79 249.17 20
-3 0 7 1134.33 224.305 10
-3 0 6 5423.34 462.203 21
-3 0 6 4859.7 434.127 20
-3 0 6 4136.36 390.994 10
-3 0 6 4752.38 432.193 13
-3 0 5 738.956 197.342 21
-3 0 5 416.327 145.714 10
-3 0 5 769.336 189.533 13
-3 0 4 6515.3 1304.34 9
-3 0 4 7587.94 1364.97 4
-3 0 3 4441.92 1144.34 9
-3 0 3 2752.06 811.688 4
-3 0 2 1805.58 691.862 9
-3 0 2 2025.23 711.806 4
-3 0 1 740.757 478.13 9
-3 0 1 247.78 338.95 4
-3 0 0 4797.27 1062.02 4
-3 0 -1 531.825 421.437 4
-3 0 -2 12311.4 1694.04 4
-3 0 -3 -113.744 271.963 6
-3 0 -3 32.5092 288.564 4
-3 0 -4 1231.45 614.113 6
-3 0 -4 481.424 415.303 4
3 0 5 690.78 389.444 7
-3 0 -5 923.496 522.431 6
-3 0 -5 891.32 466.223 4
3 0 6 -118.315 283.83 7
-3 0 -6 632.277 466.64 6
-3 0 -6 -427.168 367.869 4
-3 0 -7 944.949 571.982 6
3 0 7 -184.536 415.713 7
-3 0 -8 23552.1 932.569 11
-3 0 -8 22350 892.161 17
-3 0 -8 22744.4 904.447 13
-3 0 -9 9314.92 579.36 17
-3 0 -9 8920.08 592.921 16
-3 0 -9 9540.06 580.253 13
-3 0 -10 58648.6 1601.26 17
-3 0 -10 60700.9 1688.02 16
-3 0 -10 57288.9 1573.69 13
-3 0 -11 14428.7 785.993 16
-3 0 -12 4982.02 459.495 16
-3 0 -13 1023.85 349.136 24
-3 0 -13 1100.11 229.492 16
-3 0 -14 421.671 265.836 24
-3 0 -14 745.992 190.688 16
-3 0 -15 80.1267 111.371 16
-3 0 -16 392.183 131.907 22
-3 -1 14 1101.3 164.04 14
-3 -1 13 507.768 135.044 10
-3 -1 13 730.659 165.419 14
-3 -1 12 740.032 195.488 20
-3 -1 12 364.856 131.879 10
-3 -1 12 770.319 177.676 14
-3 -1 11 39.8424 128.01 20
-3 -1 11 -132.019 131.895 10
-3 -1 11 -94.0197 107.186 14
-3 -1 10 373.95 164.489 20
-3 -1 10 137.88 112.583 10
-3 -1 9 85.8669 115.897 20
-3 -1 9 46.1812 121.515 10
-3 -1 9 241.463 131.273 14
-3 -1 8 69.6261 99.3114 20
-3 -1 8 97.7062 113.739 10
-3 -1 7 250.031 181.052 21
-3 -1 7 -156.154 153.166 20
-3 -1 7 200.539 115.24 10
-3 -1 6 14825.7 780.491 21
-3 -1 6 13496.8 716.299 20
-3 -1 6 13275.8 703.123 10
-3 -1 5 1760.04 275.426 21
-3 -1 5 1382.96 216.151 10
-3 -1 5 1095.14 239.105 13
-3 -1 4 -265.167 352.708 9
-3 -1 3 214.713 401.381 9
-3 -1 3 806.058 553.407 4
-3 -1 2 977.553 536.94 9
-3 -1 2 1084.92 542.872 4
-3 -1 1 296.756 348.679 9
-3 -1 1 542.751 465.303 4
-3 -1 0 10383.8 1486.99 9
-3 -1 0 9886.57 1498.24 4
-3 -1 -1 -117.65 273.653 4
-3 -1 -2 13781.4 1723.57 6
-3 -1 -2 13549.3 1720.36 4
-3 -1 -3 17381.7 1992.78 6
-3 -1 -3 18496.8 2004.6 4
-3 -1 -4 19361.4 2091.13 4
-3 -1 -4 17879 2035.08 6
3 1 5 10514.7 1482.44 7
-3 -1 -5 14238.7 1826.46 6
-3 -1 -5 11375.4 1602.77 4
3 1 6 456.643 410.362 7
-3 -1 -6 921.018 545.103 6
3 1 7 20747.3 2279.07 7
-3 -1 -7 23605.8 2453.84 6
-3 -1 -8 32271.6 1121.49 11
-3 -1 -8 31067.7 1042.72 17
-3 -1 -8 34272.5 1151.91 16
-3 -1 -9 13427.4 705.751 11
-3 -1 -9 13174 675.793 17
-3 -1 -9 13384.9 722.498 16
-3 -1 -10 30438.2 1570.07 24
-3 -1 -10 21792.1 963.253 16
-3 -1 -11 9137.52 853.978 24
-3 -1 -11 6766.54 535.647 16
-3 -1 -12 869.397 351.453 24
-3 -1 -12 569.177 193.197 16
-3 -1 -13 3422.49 552.225 24
-3 -1 -13 3707.09 405.442 16
-3 -1 -14 2222.61 305.545 16
-3 -1 -15 372.404 157.198 22
-3 -1 -15 118.926 128.174 16
-3 -1 -16 1192.2 199.652 22
-3 -1 -17 1053.84 151.718 22
-3 -2 13 861.46 176.273 20
-3 -2 13 468.332 126.858 10
-3 -2 13 603.122 146.263 14
-3 -2 12 619.884 171.827 20
-3 -2 12 594.645 151.891 10
-3 -2 12 709.719 177.473 14
-3 -2 11 4309.23 403.151 20
-3 -2 11 3848.16 358.494 10
-3 -2 11 4210.05 386.624 14
-3 -2 10 331.136 149.194 20
-3 -2 10 210.904 110.208 10
-3 -2 10 317.488 162.45 14
-3 -2 9 912.848 223.644 20
-3 -2 9 598.243 164.062 10
-3 -2 8 378.242 186.821 21
-3 -2 8 1.64421 133.915 20
-3 -2 8 205.7 140.992 10
-3 -2 7 2909.95 371.036 21
-3 -2 7 2193.15 304.84 10
-3 -2 7 2115.82 302.043 20
-3 -2 6 2040.52 312.229 21
-3 -2 6 2116.83 289.424 10
-3 -2 6 2243.98 296.138 20
-3 -2 5 585.566 201.512 21
-3 -2 5 397.612 151.843 10
-3 -2 4 9283.93 1564.61 9
-3 -2 3 814.99 443.4 2
-3 -2 3 824.314 614.955 9
-3 -2 2 625.278 425.053 2
-3 -2 2 1450.7 659.621 9
-3 -2 1 -20.4038 367.654 9
-3 -2 0 28579.6 2412.51 9
-3 -2 -1 1737.15 734.934 6
-3 -2 -2 17875.1 2012.56 6
-3 -2 -3 397.517 411.029 6
-3 -2 -4 23966.7 2367.34 6
-3 -2 -5 2375.59 814.56 6
3 2 6 3291.86 907.183 7
-3 -2 -6 3315.5 935.812 6
3 2 7 2345.74 831.15 7
-3 -2 -7 2200.68 793.361 6
-3 -2 -8 3967.7 392.441 11
-3 -2 -8 4186.8 405.922 16
-3 -2 -9 13201.3 1025.95 24
-3 -2 -9 9661.5 607.649 16
-3 -2 -10 274.758 267.113 24
-3 -2 -10 133.094 118.676 16
-3 -2 -11 2402.82 486.947 24
-3 -2 -11 1858.59 294.822 16
-3 -2 -12 10371.4 906.611 24
-3 -2 -12 9750.42 655.08 22
-3 -2 -12 9705.8 646.077 16
-3 -2 -13 -109.739 123.115 22
-3 -2 -13 -73.3922 122.325 16
-3 -2 -14 840.65 221.368 22
-3 -2 -15 113.84 123.254 22
-3 -2 -16 216.553 119.171 22
-3 -2 -17 15.8821 78.5484 22
-3 -3 13 482.66 141.096 20
-3 -3 13 466.434 119.964 10
-3 -3 12 3688.5 330.702 20
-3 -3 12 3504.81 307.613 10
-3 -3 12 3292.97 295.968 14
-3 -3 11 3101.2 336.967 20
-3 -3 11 3073.92 317.531 10
-3 -3 11 3230.5 322.903 14
-3 -3 10 27.6832 107.224 20
-3 -3 10 65.0673 124.669 10
-3 -3 10 222.748 128.243 14
-3 -3 9 38.0561 128.081 20
-3 -3 9 111.118 120.99 10
-3 -3 8 388.578 207.544 21
-3 -3 8 525.533 170.199 10
-3 -3 7 2816.18 372.059 21
-3 -3 7 3113.27 355.861 10
-3 -3 6 221.631 156.022 21
-3 -3 6 534.592 175.301 10
-3 -3 5 1973.76 305.35 21
-3 -3 5 1449.53 257.593 10
-3 -3 4 3463.29 377.266 21
-3 -3 4 3301.92 355.229 10
-3 -3 3 74.836 119.175 21
-3 -3 3 209.161 113.897 10
-3 -3 2 689.011 493.08 2
-3 -3 2 693.229 511.499 5
-3 -3 1 990.998 530.704 2
-3 -3 1 -738.564 505.872 5
-3 -3 0 1667.89 604.724 2
-3 -3 0 1617.29 592.11 5
-3 -3 -1 32.2567 232.462 6
-3 -3 -2 9047.11 1438.87 6
-3 -3 -3 1312.07 618.81 6
-3 -3 -4 11390.3 1661.07 6
-3 -3 -5 10092.8 1575.19 6
-3 -3 -6 4302.83 1043.93 6
-3 -3 -7 1862.91 433.846 24
-3 -3 -7 882.581 197.069 22
-3 -3 -8 843.548 331.507 24
-3 -3 -8 816.855 193.087 22
-3 -3 -9 3488.15 537.578 24
-3 -3 -9 2458.32 324.229 22
-3 -3 -10 570.331 288.223 24
-3 -3 -10 493.761 162.062 22
-3 -3 -11 220.837 256.833 24
-3 -3 -11 5.23794 115.146 22
-3 -3 -12 -22.7441 124.327 22
-3 -3 -13 1100.19 242.425 22
-3 -3 -14 67.1775 125.581 22
-3 -3 -15 149.626 129.42 22
-3 -3 -16 112.084 112.763 22
-3 -3 -17 146.955 88.8175 22
-3 -4 12 428.415 123.925 20
-3 -4 12 170.89 99.4843 10
-3 -4 11 424.611 148.61 20
-3 -4 11 482.78 140.56 10
-3 -4 10 17.2433 112.032 20
-3 -4 10 -69.6731 121.156 10
-3 -4 9 75.184 114.601 10
-3 -4 8 571.41 198.637 21
-3 -4 8 128.316 123.614 10
-3 -4 7 2923 366.264 21
-3 -4 7 2378.11 319.65 10
-3 -4 6 640.241 200.443 21
-3 -4 6 454.982 186.703 10
-3 -4 5 7567.19 575.014 21
-3 -4 5 6479.28 501.79 10
-3 -4 4 2042.12 303.98 21
-3 -4 4 2046.32 278.553 10
-3 -4 3 879.758 210.054 21
-3 -4 3 761.058 186.67 10
-3 -4 2 1250.33 232.251 21
-3 -4 1 -21.4832 112.162 21
-3 -4 0 4186.9 410.418 21
-3 -4 0 3969.21 1009.23 2
-3 -4 0 3743.86 1016.12 5
-3 -4 -1 -1428.29 663.456 5
-3 -4 -2 4045.23 997.722 5
-3 -4 -3 14321.3 1877.7 6
-3 -4 -3 17271.2 2045.1 5
-3 -4 -4 967.976 591.486 6
-3 -4 -5 12599.8 986.568 24
-3 -4 -6 786.294 315.326 24
-3 -4 -6 670.446 190.166 22
-3 -4 -7 175.816 236.109 24
-3 -4 -7 721.333 194.427 22
-3 -4 -8 6034.77 707.917 24
-3 -4 -8 5136.49 464.313 22
-3 -4 -9 -26.2495 250.714 24
-3 -4 -9 195.552 108.181 22
-3 -4 -10 4830.37 631.367 24
-3 -4 -10 4987.51 463.269 22
-3 -4 -11 5473.53 492.356 22
-3 -4 -12 -97.2299 123.394 22
-3 -4 -13 181.092 154.312 22
-3 -4 -14 182.525 149.668 22
-3 -4 -15 -27.7572 103.599 22
-3 -4 -16 133.871 105.178 22
-3 -5 11 1484.41 194.812 20
-3 -5 11 1267.43 174.869 10
-3 -5 10 -49.5962 86.95 20
-3 -5 10 112.675 98.5078 10
-3 -5 9 -75.1221 108.758 10
-3 -5 8 650.143 180.142 10
-3 -5 7 3114.18 353.59 21
-3 -5 7 2439.62 296.236 10
-3 -5 6 56.716 124.498 21
-3 -5 6 -0.8629 106.51 10
-3 -5 5 4506.36 434.216 21
-3 -5 5 3865.71 382.318 10
-3 -5 5 4470.48 414.322 18
-3 -5 4 223.828 121.092 21
-3 -5 4 219.825 164.225 18
-3 -5 3 408.422 149.612 21
-3 -5 3 238.165 176 18
-3 -5 2 638.732 178.228 21
-3 -5 1 448.881 163.516 21
-3 -5 0 1404.91 250.167 21
-3 -5 -1 78.2733 115.757 21
-3 -5 -2 36158.7 1270.56 21
-3 -5 -3 41851.2 1894.15 24
-3 -5 -4 7610.92 815.058 24
-3 -5 -4 4547.35 401.618 23
-3 -5 -5 10111.6 909.228 24
-3 -5 -5 7078.93 526.899 22
-3 -5 -6 1314.14 382.207 24
-3 -5 -6 1122.67 233.492 22
-3 -5 -7 -35.7965 238.61 24
-3 -5 -7 -67.0808 128.049 22
-3 -5 -8 334.999 260.174 24
-3 -5 -8 382.863 168.213 22
-3 -5 -9 3437.78 559.282 24
-3 -5 -9 4026.89 425.37 22
-3 -5 -10 11650.2 709.758 22
-3 -5 -11 264.45 163.969 22
-3 -5 -12 105.228 126.414 22
-3 -5 -13 1559.53 259.647 22
-3 -5 -14 38.2985 124.905 22
-3 -5 -15 -26.6142 95.8577 22
-3 -5 -16 220.755 92.9434 22
-3 -6 9 151.57 113.419 20
-3 -6 9 -90.3243 84.7856 10
-3 -6 8 51.306 88.876 10
-3 -6 7 299.891 126.396 10
-3 -6 6 819.576 185.314 10
-3 -6 5 4312.4 378.031 12
-3 -6 5 5046.64 428.997 18
-3 -6 4 274.76 132.318 12
-3 -6 4 194.557 186.601 18
-3 -6 3 296.874 125.513 12
-3 -6 3 464.46 153.146 21
-3 -6 3 565.616 209.557 18
-3 -6 2 2843.81 325.072 12
-3 -6 2 3171.56 358.531 21
-3 -6 2 3180.67 382.745 18
-3 -6 1 287.932 128.491 12
-3 -6 1 260.609 141.406 23
-3 -6 1 291.336 148.524 21
-3 -6 1 418.507 203.527 18
-3 -6 0 2401.76 303.227 12
-3 -6 0 2224.88 287.975 23
-3 -6 0 2807.94 349.983 21
-3 -6 -1 17138.1 815.075 12
-3 -6 -1 17283.6 788.803 23
-3 -6 -1 16424.4 836.72 21
-3 -6 -2 9814.5 590.897 23
-3 -6 -2 9103.17 621.463 21
-3 -6 -3 45004 1341.89 23
-3 -6 -3 40848.8 1396.86 21
-3 -6 -4 85.0911 111.713 23
-3 -6 -5 -25.0186 136.365 23
-3 -6 -6 1364.78 256.499 23
-3 -6 -7 26689.8 1082.8 22
-3 -6 -8 850.18 218.279 22
-3 -6 -9 1917.73 301.183 22
-3 -6 -10 1446.97 263.228 22
-3 -6 -11 1049.95 225.087 22
-3 -6 -12 219.233 155.197 22
-3 -6 -13 -104.092 115.401 22
-3 -6 -14 398.527 141.222 22
-3 -7 6 -54.6654 76.7665 12
-3 -7 5 888.1 175.042 12
-3 -7 4 179.569 124.54 12
-3 -7 4 -163.573 185.012 18
-3 -7 3 5974.93 436.221 12
-3 -7 3 6280.45 486.998 18
-3 -7 2 239.305 143.544 12
-3 -7 2 23.3981 167.151 18
-3 -7 1 8613.61 551.097 12
-3 -7 1 8961.7 593.346 18
-3 -7 0 722.584 181.05 12
-3 -7 0 808.893 188.399 23
-3 -7 0 745.219 236.303 18
-3 -7 -1 209.621 134.145 12
-3 -7 -1 179.552 132.825 23
-3 -7 -1 261.953 165.242 18
-3 -7 -2 1671.17 259.041 12
-3 -7 -2 1365.85 242.908 23
-3 -7 -2 1351.07 234.192 21
-3 -7 -2 1319.24 264.231 18
-3 -7 -3 3067.4 336.615 23
-3 -7 -3 2613.85 341.624 21
-3 -7 -4 3609.46 370.285 23
-3 -7 -4 2849.86 337.958 21
-3 -7 -5 909.413 198.813 23
-3 -7 -5 725.519 194.331 21
-3 -7 -6 1041.86 210.452 23
-3 -7 -7 6.11282 127.802 23
-3 -7 -8 2853.86 326.848 23
-3 -7 -9 120.606 125.076 23
-3 -7 -10 11.2238 112.923 23
-3 -7 -11 1430.5 214.706 23
-3 -7 -12 91.3245 98.9027 23
-3 -7 -13 -16.8783 79.9507 23
-3 -8 4 110.379 82.7578 12
-3 -8 3 91.1144 90.7662 12
-3 -8 2 -48.795 94.9842 12
-3 -8 2 -133.604 149.805 18
-3 -8 1 232.769 107.146 12
-3 -8 1 267.482 169.223 18
-3 -8 0 -45.0657 106.56 12
-3 -8 0 -19.0769 151.93 18
-3 -8 -1 685.023 161.445 12
-3 -8 -1 1055.72 241.467 18
-3 -8 -2 888.477 184.499 12
-3 -8 -2 774.758 190.533 23
-3 -8 -2 697.734 204.46 18
-3 -8 -3 -26.7107 100.127 12
-3 -8 -3 24.6314 106.053 23
-3 -8 -3 -16.2655 145.68 18
-3 -8 -4 608.363 175.195 12
-3 -8 -4 591.76 163.362 23
-3 -8 -4 420.262 183.583 18
-3 -8 -5 1463.91 231.084 23
-3 -8 -5 1302.29 227.526 18
-3 -8 -6 1322.53 218.911 23
-3 -8 -6 1045.23 190.428 21
-3 -8 -6 1284.7 205.065 18
-3 -8 -7 771.251 185.236 23
-3 -8 -7 638.719 158.473 21
-3 -8 -8 864.735 174.134 23
-3 -8 -8 696.792 159.396 21
-3 -8 -9 108.592 101.342 23
-3 -8 -9 67.3833 71.2736 21
-3 -8 -10 209.857 100.192 23
-3 -8 -10 81.4748 87.2241 21
-3 -8 -11 265.869 98.3841 23
-3 -8 -11 -47.2907 68.2871 21
-3 -9 0 143.707 83.871 12
-3 -9 -1 210.805 86.9705 12
-3 -9 -2 -40.184 87.7032 12
-3 -9 -3 4735.16 315.295 12
-3 -9 -3 3882.65 286.926 18
-3 -9 -4 378.957 118.167 12
-3 -9 -4 369.494 113.91 23
-3 -9 -4 318.365 114.108 18
-3 -9 -5 896.903 151.347 12
-3 -9 -5 483.982 132.564 23
-3 -9 -6 311.293 93.2516 12
-3 -9 -6 313.941 103.402 23
-3 -9 -7 -59.7359 72.7739 12
-3 -9 -7 46.621 79.0931 23
-4 5 5 48.3725 70.5413 11
-4 5 5 174.004 77.3196 17
-4 5 4 -47.1838 81.6858 11
-4 5 4 82.6118 86.5682 17
-4 5 3 165.54 104.192 11
-4 5 3 35.6799 88.2723 17
-4 5 2 45.8697 96.463 11
-4 5 2 70.1501 88.48 17
-4 5 1 453.67 138.828 11
-4 5 1 340.501 128.259 17
-4 5 0 254.424 108.826 11
-4 5 0 200.626 110.08 17
-4 5 -1 1324.87 198.034 11
-4 5 -1 1582.52 213.874 17
-4 5 -2 -58.1404 89.3136 11
-4 5 -2 7.97239 100.161 17
-4 5 -2 21.6504 72.406 13
-4 5 -3 341.383 107.202 11
-4 5 -3 318.497 125.68 17
-4 5 -3 524.203 124.35 13
-4 5 -4 608.982 142.66 17
-4 5 -4 694.244 129.999 13
-4 5 -5 305.429 115.774 17
-4 5 -5 201.424 84.8745 13
-4 5 -6 -97.9466 88.3752 17
-4 5 -6 -83.4835 74.9195 13
-4 4 7 1176.83 158.885 11
-4 4 7 1237.66 161.339 17
-4 4 6 125.739 98.323 11
-4 4 6 246.525 107.172 17
-4 4 5 242.089 111.318 11
-4 4 5 213.487 108.421 17
-4 4 4 50.8909 103.359 11
-4 4 4 88.2787 110.86 17
-4 4 3 132.707 124.54 11
-4 4 3 81.9762 105.099 17
-4 4 2 -9.23492 113.097 11
-4 4 2 194.519 135.54 17
-4 4 2 391.602 148.635 13
-4 4 1 -23.6942 114.097 11
-4 4 1 4.43513 97.5099 17
-4 4 1 126.466 104.873 13
-4 4 0 -108.646 148.317 11
-4 4 0 -123.887 129.235 17
-4 4 0 227.369 125.046 13
-4 4 -1 1116.13 222.799 11
-4 4 -1 836.08 184.642 17
-4 4 -1 1542.18 230.823 13
-4 4 -2 23.6367 109.395 11
-4 4 -2 -58.6286 130.765 17
-4 4 -2 123.932 113.626 13
-4 4 -3 31.0822 103.379 11
-4 4 -3 -43.866 106.494 17
-4 4 -3 -17.3139 112.308 13
-4 4 -4 233.296 122.993 11
-4 4 -4 200.076 130.357 17
-4 4 -4 158.313 109.107 13
-4 4 -5 174.528 135.304 17
-4 4 -5 107.954 90.2332 13
-4 4 -6 955.502 191.863 17
-4 4 -6 865.574 157.088 13
-4 4 -7 979.437 248.059 24
-4 4 -7 1366.41 203.624 17
-4 4 -7 1494.01 201.065 13
-4 4 -8 258.676 199.4 24
-4 4 -8 608.562 139.601 17
-4 4 -8 653.035 132.067 13
-4 4 -9 2677.24 228.487 17
-4 4 -9 2752.18 234.577 13
-4 3 9 116.899 85.6358 19
-4 3 8 -20.5373 89.6139 19
-4 3 6 631.853 158.21 11
-4 3 6 821.01 194.026 10
-4 3 6 411.813 139.421 17
-4 3 5 1743.56 254.838 11
-4 3 5 2240.2 277.645 10
-4 3 5 1671.16 228.546 17
-4 3 5 1779.52 247.122 13
-4 3 4 3181.02 344.976 11
-4 3 4 3626.3 346.347 10
-4 3 4 3488.05 334.566 17
-4 3 4 3290.69 328.173 13
-4 3 3 543.402 165.026 11
-4 3 3 593.946 162.143 17
-4 3 3 651.075 173.868 13
-4 3 2 292.143 152.309 11
-4 3 2 201.264 148.254 17
-4 3 2 135.53 109.288 13
-4 3 1 2020.7 301.551 11
-4 3 1 2388.4 297.956 17
-4 3 1 2071.03 283.233 13
-4 3 0 -193.962 137.064 11
-4 3 0 -7.49168 98.9904 17
-4 3 0 -12.4763 105.568 13
-4 3 -1 257.58 143.793 11
-4 3 -1 319.525 139.963 17
-4 3 -1 433.684 151.282 13
-4 3 -2 252.11 126.918 11
-4 3 -2 304.845 150.087 17
-4 3 -2 390.147 140.656 13
-4 3 -3 3284.91 366.945 11
-4 3 -3 3063.26 339.55 17
-4 3 -3 3757.21 373.818 13
-4 3 -4 945.379 201.461 11
-4 3 -4 1037.61 213.969 17
-4 3 -4 1285.2 226.771 13
-4 3 -5 701.961 235.856 24
-4 3 -5 368.678 143.738 11
-4 3 -5 452.868 171.045 17
-4 3 -5 608.727 174.991 13
-4 3 -6 185.824 114.936 11
-4 3 -6 203.966 150.846 17
-4 3 -6 337.495 145.63 13
-4 3 -7 103.08 125.907 17
-4 3 -7 317.002 144.387 13
-4 3 -8 446.975 146.07 17
-4 3 -8 410.225 136.587 13
-4 3 -9 1472.4 208.751 17
-4 3 -9 1358.7 206.998 13
-4 3 -10 266.961 255.198 24
-4 3 -10 277.13 97.5465 16
-4 3 -10 364.987 121.122 13
-4 3 -11 238.47 203.903 24
-4 3 -11 -6.83913 70.2658 13
-4 2 10 133.492 84.7286 19
-4 2 9 418.955 129.734 19
-4 2 8 6.21681 110.835 19
-4 2 8 104.066 110.418 10
-4 2 7 830.546 170.991 10
-4 2 6 2879.91 306.98 10
-4 2 5 2217.16 287.767 11
-4 2 5 2498.26 294.155 10
-4 2 5 2459.26 304.773 13
-4 2 4 101.189 109.741 11
-4 2 4 171.455 127.433 10
-4 2 4 215.147 124.876 13
-4 2 3 -7.46662 106.434 11
-4 2 3 55.9058 155.269 10
-4 2 3 -94.9141 148.472 13
-4 2 2 -27.3698 113.721 11
-4 2 2 99.2309 151.381 10
-4 2 2 82.6006 104.375 17
-4 2 2 107.344 114.892 13
-4 2 1 1835.43 291.928 11
-4 2 1 2591.18 324.504 10
-4 2 1 2311.92 304.701 17
-4 2 1 2225.29 299.324 13
-4 2 0 -90.5957 151.963 11
-4 2 0 353.243 201.732 10
-4 2 0 -24.2581 118.435 17
-4 2 0 264.115 124.453 13
-4 2 -1 763.986 199.793 11
-4 2 -1 763.795 184.736 17
-4 2 -1 865.725 190.368 13
-4 2 -2 -31.9331 119.272 11
-4 2 -2 -148.271 162.638 17
-4 2 -2 2.8081 102.735 13
-4 2 -3 73.7174 102.57 11
-4 2 -3 4.8803 106.262 17
-4 2 -3 99.1043 130.36 13
-4 2 -4 324.611 153.653 11
-4 2 -4 416.29 167.797 17
-4 2 -4 219.263 133.408 13
-4 2 -5 216.397 257.391 24
-4 2 -5 372.59 152.722 11
-4 2 -5 649.748 191.41 17
-4 2 -5 520.026 168.016 13
-4 2 -6 75.817 85.2512 11
-4 2 -6 8.95171 107.916 17
-4 2 -6 193.107 103.025 13
-4 2 -7 1495.03 232.989 11
-4 2 -7 1651.12 257.413 17
-4 2 -7 1899.82 272.011 13
-4 2 -8 2434.36 302.353 17
-4 2 -8 2326.54 286.763 13
-4 2 -9 1280.43 353.354 24
-4 2 -9 1488.12 239.869 17
-4 2 -9 1509.82 230.861 13
-4 2 -10 37.2567 293.803 24
-4 2 -10 64.9682 124.928 17
-4 2 -10 -56.6821 110.836 16
-4 2 -10 -6.16113 91.1202 13
-4 2 -11 142.756 200.638 24
-4 2 -11 143.569 101.587 16
-4 2 -11 116.453 90.0931 13
-4 2 -12 87.5308 202.239 24
-4 2 -12 41.8475 84.2022 16
-4 2 -12 55.3001 76.1084 13
-4 1 10 258.948 104.239 19
-4 1 10 431.344 126.388 10
-4 1 9 23.2566 102.128 19
-4 1 9 79.0809 104.685 10
-4 1 8 -216.43 147.18 10
-4 1 7 116.74 128.759 10
-4 1 6 -114.605 156.385 10
-4 1 5 -403.054 191.707 10
-4 1 5 92.2679 115.657 13
-4 1 4 1382.01 236.141 11
-4 1 4 934.262 208.835 10
-4 1 4 1247.3 245.815 13
-4 1 3 1122.82 211.433 10
-4 1 3 1183.78 245.482 13
-4 1 2 4065.4 414.485 11
-4 1 2 3322.51 357.258 10
-4 1 2 3787.57 396.6 13
-4 1 1 412.818 161.952 11
-4 1 1 241.738 159.074 10
-4 1 1 676.053 189.723 13
-4 1 0 899.943 213.937 11
-4 1 0 1148.44 241.654 10
-4 1 0 1146.57 232.517 13
-4 1 -1 -9.92044 119.419 11
-4 1 -1 367.51 181.966 10
-4 1 -1 69.1416 103.745 13
-4 1 -2 15.0679 102.031 11
-4 1 -2 -42.6795 117.975 13
-4 1 -3 -99.8088 115.431 11
-4 1 -3 -101.864 107.741 17
-4 1 -3 -21.1048 100.332 13
-4 1 -4 664.851 276.708 24
-4 1 -4 896.907 213.169 11
-4 1 -4 1309.92 237.085 17
-4 1 -4 1010.67 214.095 13
-4 1 -5 2240.15 479.944 24
-4 1 -5 2808.07 346.464 11
-4 1 -5 3325.35 343.583 17
-4 1 -5 3092.04 350.426 13
-4 1 -6 5713.7 721.029 24
-4 1 -6 5829.07 487.263 11
-4 1 -6 7652.32 521.644 17
-4 1 -6 5739.16 479.895 13
-4 1 -7 1077.85 404.188 24
-4 1 -7 952.058 203.365 11
-4 1 -7 1214.25 237.526 17
-4 1 -7 1280.51 234.338 13
-4 1 -8 225.897 255.739 24
-4 1 -8 553.09 146.031 11
-4 1 -8 636.116 176.569 17
-4 1 -8 468.051 159.409 13
-4 1 -9 4062.34 585.594 24
-4 1 -9 4410.94 396.071 17
-4 1 -9 3623.19 360.061 13
-4 1 -10 1671 426.582 24
-4 1 -10 1834.55 261.645 17
-4 1 -10 2173.5 272.196 16
-4 1 -10 1993.12 263.888 13
-4 1 -11 923.811 354.247 24
-4 1 -11 1183.39 205.16 16
-4 1 -11 1064.81 183.024 13
-4 1 -12 708.9 301.323 24
-4 1 -12 645.175 148.206 16
-4 1 -12 634.85 142.529 13
-4 1 -13 -52.0253 204.902 24
-4 1 -13 60.6023 66.3781 22
-4 1 -13 142.781 89.9512 16
-4 0 10 -233.852 135.661 10
-4 0 9 527.189 150.811 10
-4 0 8 1777.57 248.246 10
-4 0 7 230.471 152.158 10
-4 0 6 4023.94 386.432 10
-4 0 5 1152.2 226.463 10
-4 0 5 1055.72 232.599 13
-4 0 4 1744.18 275.637 21
-4 0 4 1428.68 245.74 10
-4 0 4 1223.69 246.442 13
-4 0 3 3090.88 347.273 11
-4 0 3 2587.48 319.63 10
-4 0 3 2985.89 355.085 13
-4 0 2 630.037 168.817 11
-4 0 2 432.787 134.286 10
-4 0 2 414.477 197.062 13
-4 0 1 12.8576 97.4984 11
-4 0 1 -241.704 188.889 10
-4 0 1 127.698 146.694 13
-4 0 0 221.467 124.824 11
-4 0 0 217.109 138.934 10
-4 0 0 186.136 158.699 13
-4 0 -1 2900.17 353.11 11
-4 0 -1 2182.86 303.292 10
-4 0 -1 2744.34 338.623 13
-4 0 -2 3058.13 368.817 11
-4 0 -2 3386.83 359.339 10
-4 0 -2 2167.29 286.377 13
-4 0 -3 800.642 308.759 24
-4 0 -3 515.862 164.243 11
-4 0 -3 676.063 215.625 10
-4 0 -3 712.352 183.297 13
-4 0 -4 2753.3 517.353 24
-4 0 -4 3304.03 380.155 11
-4 0 -4 4092.08 420.241 10
-4 0 -4 3592.34 376.508 13
-4 0 -5 -51.1689 249.006 24
-4 0 -5 190.27 141.529 11
-4 0 -5 178.082 104.867 13
-4 0 -6 294.849 272.953 24
-4 0 -6 265.88 141.132 11
-4 0 -6 303.691 134.907 13
-4 0 -7 5805.44 710.349 24
-4 0 -7 7102.06 541.045 11
-4 0 -7 7462.03 495.441 17
-4 0 -7 7284.36 521.065 13
-4 0 -8 19228.5 871.163 11
-4 0 -8 19326.5 816.457 17
-4 0 -8 18901.1 838.87 13
-4 0 -9 20207.3 862.096 11
-4 0 -9 19124.8 814.506 17
-4 0 -9 20760.5 849.456 13
-4 0 -10 3626.74 593.83 24
-4 0 -10 4535.17 388.354 16
-4 0 -10 4316.56 369.193 13
-4 0 -11 38.7334 211.299 24
-4 0 -11 -20.5373 96.9163 16
-4 0 -12 -26.4125 206.415 24
-4 0 -12 30.7662 92.8014 22
-4 0 -12 32.1076 95.2173 16
-4 0 -13 -30.0361 204.411 24
-4 0 -13 88.192 81.5359 22
-4 0 -13 151.828 102.19 16
-4 0 -14 192.957 188.069 24
-4 0 -14 -16.3572 71.1602 22
-4 -1 11 -266.417 131.2 10
-4 -1 10 -72.7854 99.1024 10
-4 -1 9 149.704 116.3 10
-4 -1 8 329.533 144.847 10
-4 -1 7 258.041 131.253 10
-4 -1 6 147.357 167.298 21
-4 -1 6 209.055 144.446 10
-4 -1 5 957.668 229.17 21
-4 -1 5 938.316 208.923 10
-4 -1 4 94.2813 152.157 21
-4 -1 4 30.2391 112.561 10
-4 -1 4 80.3793 106.373 13
-4 -1 3 -36.0084 126.821 21
-4 -1 3 5.08504 113.51 10
-4 -1 3 194.307 147.45 13
-4 -1 2 202.702 127.614 21
-4 -1 2 426.011 170.812 10
-4 -1 2 197.967 132.083 13
-4 -1 1 6004.95 481.727 11
-4 -1 1 6274.58 495.028 21
-4 -1 1 5465.96 456.373 10
-4 -1 1 5256.21 455.442 13
-4 -1 0 1018.16 220.91 11
-4 -1 0 1198.78 229.705 21
-4 -1 0 1024.53 218.868 13
-4 -1 -1 178.241 147.793 11
-4 -1 -1 -99.2953 171.35 10
-4 -1 -1 160.291 101.285 13
-4 -1 -2 16407.4 1164.16 24
-4 -1 -2 17090.8 855.443 11
-4 -1 -2 20065.9 840.37 10
-4 -1 -2 17790.6 824.119 13
-4 -1 -3 -64.3195 263.179 24
-4 -1 -3 124.152 123.24 11
-4 -1 -3 96.3896 137.435 10
-4 -1 -3 32.5715 88.8708 13
-4 -1 -4 776.145 354.929 24
-4 -1 -4 1052.85 219.868 11
-4 -1 -4 793.064 188.508 13
-4 -1 -5 702.477 333.811 24
-4 -1 -5 1201.31 233.846 11
-4 -1 -5 1393.7 228.416 13
-4 -1 -6 8550.91 888.957 24
-4 -1 -6 10307.5 655.344 11
-4 -1 -6 10744 619.945 13
-4 -1 -7 1958.08 458.965 24
-4 -1 -7 3056.98 357.759 11
-4 -1 -8 -55.1557 236.432 24
-4 -1 -8 233.719 156.416 11
-4 -1 -9 704.795 323.066 24
-4 -1 -9 2114.6 293.197 11
-4 -1 -10 69.9048 242.328 24
-4 -1 -11 46.5331 240.742 24
-4 -1 -11 332.285 123.02 22
-4 -1 -11 542.254 155.535 16
-4 -1 -12 35.9531 213.918 24
-4 -1 -12 242.031 128.716 22
-4 -1 -13 117.729 226.769 24
-4 -1 -13 157.998 102.964 22
-4 -1 -14 442.206 250.952 24
-4 -1 -14 2472.31 234.017 22
-4 -2 11 401.965 113.544 10
-4 -2 10 4.65558 90.1133 10
-4 -2 9 42.2395 108.417 10
-4 -2 8 121.863 114.711 10
-4 -2 7 175.697 143.583 10
-4 -2 6 453.818 203.195 21
-4 -2 6 121.102 114.249 10
-4 -2 5 362.817 184.959 21
-4 -2 5 499.682 178.575 10
-4 -2 4 5392.68 483.878 21
-4 -2 4 4759.59 430.798 10
-4 -2 3 729.736 217.876 21
-4 -2 3 750.191 175.963 10
-4 -2 2 209.858 137.11 21
-4 -2 2 135.797 114.572 10
-4 -2 2 449.037 160.678 13
-4 -2 1 1423.19 253.637 21
-4 -2 1 1785.3 275.089 10
-4 -2 1 1259.15 228.537 13
-4 -2 0 2083.53 284.091 11
-4 -2 0 2076.89 305.95 21
-4 -2 0 2034.98 281.892 10
-4 -2 0 1928.18 267.53 13
-4 -2 -1 4.95292 293.972 24
-4 -2 -1 -62.7082 139.819 11
-4 -2 -1 74.955 123.172 21
-4 -2 -1 -257.928 179.854 10
-4 -2 -1 67.7219 123.405 13
-4 -2 -2 323.504 282.92 24
-4 -2 -2 326.454 138.546 11
-4 -2 -2 871.028 211.018 21
-4 -2 -2 790.063 185.123 13
-4 -2 -3 -172.033 177.893 11
-4 -2 -3 139.921 113.015 21
-4 -2 -4 1362.9 409.329 24
-4 -2 -4 1035.04 224.648 11
-4 -2 -4 1216.88 228.879 21
-4 -2 -5 -398.113 293.501 24
-4 -2 -5 -11.0315 124.958 11
-4 -2 -6 349.331 292.12 24
-4 -2 -6 583.229 203.363 11
-4 -2 -7 434.646 299.688 24
-4 -2 -7 927.528 221.043 11
-4 -2 -8 569.089 303.265 24
-4 -2 -8 1344.56 281.956 11
-4 -2 -9 123.778 261.873 24
-4 -2 -10 1798.11 443.528 24
-4 -2 -11 392.413 308.505 24
-4 -2 -11 748.475 181.476 22
-4 -2 -12 309.763 262.893 24
-4 -2 -12 494.53 162.036 22
-4 -2 -13 44.0318 209.623 24
-4 -2 -13 355.083 121.151 22
-4 -2 -14 432.585 243.979 24
-4 -2 -14 2722.26 253.382 22
-4 -3 10 330.822 112.37 10
-4 -3 9 259.037 120.108 10
-4 -3 8 164.806 124.141 10
-4 -3 7 916.903 198.856 10
-4 -3 6 491.583 219.278 21
-4 -3 6 155.668 133.728 10
-4 -3 5 4082.34 436.963 21
-4 -3 5 2575.53 305.396 10
-4 -3 4 602.312 191.75 21
-4 -3 4 679.798 178.666 10
-4 -3 3 1134.77 249.122 21
-4 -3 3 1368.24 236.606 10
-4 -3 2 2223.41 317.474 21
-4 -3 2 2030.74 283.325 10
-4 -3 1 552.892 183.521 21
-4 -3 1 346.344 147.549 10
-4 -3 0 2970.69 569.392 24
-4 -3 0 4162.78 423.939 21
-4 -3 -1 7551.39 537.315 11
-4 -3 -1 7503.86 562.223 21
-4 -3 -2 456.921 368.186 24
-4 -3 -2 384.78 179.812 11
-4 -3 -2 513.074 190.298 21
-4 -3 -3 -95.1735 331.979 24
-4 -3 -3 142.346 140.102 11
-4 -3 -3 -247.595 143.606 21
-4 -3 -4 373.745 278.47 24
-4 -3 -4 957.103 235.205 11
-4 -3 -4 1168.61 231.773 21
-4 -3 -5 122.892 246.389 24
-4 -3 -5 347.22 173.188 11
-4 -3 -5 6.70919 108.803 21
-4 -3 -6 1123.83 345.839 24
-4 -3 -6 1134.36 265.744 11
-4 -3 -6 1336.36 243.27 21
-4 -3 -7 3916.45 649.353 24
-4 -3 -8 903.06 382.673 24
-4 -3 -9 669.798 345.54 24
-4 -3 -10 363.654 279.134 24
-4 -3 -11 52.4651 273.926 24
-4 -3 -11 293.588 130.365 22
-4 -3 -12 -132.063 228.8 24
-4 -3 -12 41.3345 93.1544 22
-4 -3 -13 432.769 255.418 24
-4 -3 -13 143.306 107.674 22
-4 -3 -14 46.7096 93.1044 22
-4 -4 9 230.795 106.393 10
-4 -4 8 498.963 135.144 10
-4 -4 7 88.9723 112.952 10
-4 -4 6 605.331 202.976 21
-4 -4 6 360.816 139.453 10
-4 -4 5 489.717 193.144 21
-4 -4 5 20.5178 107.211 10
-4 -4 4 139.657 152.195 21
-4 -4 4 126.778 114.395 10
-4 -4 3 101.222 132.136 21
-4 -4 3 72.1923 105.909 10
-4 -4 2 2145.56 299.529 21
-4 -4 1 64.075 136.62 21
-4 -4 0 8585.69 612.051 21
-4 -4 -1 1806.42 288.056 21
-4 -4 -2 2670.78 543.789 24
-4 -4 -2 2911.55 357.303 21
-4 -4 -3 226.549 326.978 24
-4 -4 -3 19.9244 137.239 21
-4 -4 -4 327.674 309.124 24
-4 -4 -4 124.226 139.105 21
-4 -4 -5 49.0599 270.007 24
-4 -4 -5 -49.4477 145.237 21
-4 -4 -6 -38.0366 273.366 24
-4 -4 -6 -53.7894 136.188 21
-4 -4 -7 -37.4712 269.401 24
-4 -4 -8 2099.86 461.259 24
-4 -4 -9 3206.17 563.71 24
-4 -4 -10 689.92 317.462 24
-4 -4 -10 1997.96 263.244 22
-4 -4 -11 377.637 271.153 24
-4 -4 -11 1922.02 258.909 22
-4 -4 -12 127.998 235.822 24
-4 -4 -12 847.021 172.124 22
-4 -4 -13 613.052 148.686 22
-4 -4 -14 1231.08 168.849 22
-4 -5 7 582.389 136.104 10
-4 -5 6 493.166 157.594 21
-4 -5 6 260.333 109.747 10
-4 -5 5 3885.5 361.666 21
-4 -5 5 3276.63 297.272 10
-4 -5 4 315.584 158.696 21
-4 -5 3 771.297 200.623 21
-4 -5 3 628.523 180.251 18
-4 -5 2 1289.65 246.452 21
-4 -5 2 1181.9 227.588 18
-4 -5 1 15.2137 134.108 21
-4 -5 0 9483.96 633.999 21
-4 -5 -1 14322.8 783.53 21
-4 -5 -2 9387.81 633.9 21
-4 -5 -3 11067.4 687.253 21
-4 -5 -4 422.101 166.782 21
-4 -5 -5 3138.17 563.548 24
-4 -5 -5 3870.1 411.47 21
-4 -5 -6 261.904 324.181 24
-4 -5 -6 195.476 142.044 21
-4 -5 -7 1055.76 390.373 24
-4 -5 -7 2148.68 315.287 21
-4 -5 -8 4680.59 657.37 24
-4 -5 -9 1517.68 431.205 24
-4 -5 -10 -19.0878 205.566 24
-4 -5 -10 -2.94497 88.9801 22
-4 -5 -11 434.985 137.182 22
-4 -5 -12 204.856 105.896 22
-4 -5 -13 187.339 97.2224 22
-4 -5 -13 106.917 93.4952 21
-4 -6 5 1211.07 186.263 21
-4 -6 4 1020.9 189.965 21
-4 -6 3 217.063 117.313 21
-4 -6 3 467.125 165.322 18
-4 -6 2 13.6004 101.487 21
-4 -6 2 -65.817 145.775 18
-4 -6 1 6821.89 490.768 21
-4 -6 1 7182.33 491.357 18
-4 -6 0 -47.3095 143.508 21
-4 -6 0 -90.1832 165.025 18
-4 -6 -1 353.6 168.109 21
-4 -6 -2 1736.44 274.162 21
-4 -6 -3 442.296 176.808 21
-4 -6 -4 616.975 190.404 21
-4 -6 -5 2781.59 340.816 21
-4 -6 -6 480.104 181.175 21
-4 -6 -7 311.451 158.447 21
-4 -6 -8 1198.13 228.772 21
-4 -6 -9 147.881 118.237 21
-4 -6 -10 99.0719 119.396 21
-4 -6 -11 406.593 136.105 21
-4 -6 -12 -110.835 100.066 21
-4 -7 3 119.401 95.7676 18
-4 -7 2 94.7904 94.8139 21
-4 -7 2 -20.4339 107.879 18
-4 -7 1 252.548 103.71 21
-4 -7 1 37.3325 121.384 18
-4 -7 0 -73.2928 91.7489 21
-4 -7 0 135.472 140.798 18
-4 -7 -1 3320.65 312.337 21
-4 -7 -1 3471.36 341.756 18
-4 -7 -2 123.305 96.5485 21
-4 -7 -2 319.042 164.269 18
-4 -7 -3 808.816 171.134 21
-4 -7 -3 905.257 209.53 18
-4 -7 -4 189.647 116.439 21
-4 -7 -5 664.734 173.873 21
-4 -7 -6 88.1665 101.855 21
-4 -7 -7 -75.5035 93.7775 21
-4 -7 -8 136.413 108.016 21
-4 -7 -9 49.2856 95.0963 21
-4 -7 -10 727.562 152.96 21
-4 -8 0 340.988 118.949 18
-4 -8 -1 21.2651 103.008 18
-4 -8 -2 -139.831 109.986 18
-4 -8 -3 668.37 150.867 18
-4 -8 -4 58.3938 110.836 18
-4 -8 -5 302.687 122.477 18
-5 3 1 219.593 92.7183 11
-5 3 0 -2.10441 76.4615 11
-5 3 0 84.3113 71.5676 13
-5 3 -1 337.304 112.552 11
-5 3 -1 89.4297 70.3219 13
-5 3 -2 -81.4863 81.1358 11
-5 3 -2 35.7539 71.4268 13
-5 3 -3 -126.941 86.0651 11
-5 3 -3 35.8325 72.8727 13
-5 3 -4 815.029 133.401 13
-5 2 3 288.746 99.3952 11
-5 2 2 40.0414 82.0928 11
-5 2 2 112.237 95.3523 13
-5 2 1 125.406 101.384 11
-5 2 1 100.569 104.426 13
-5 2 0 57.2287 115.633 11
-5 2 0 55.4082 94.3341 13
-5 2 -1 448.565 141.284 11
-5 2 -1 216.12 114.293 13
-5 2 -2 296.322 129.346 11
-5 2 -2 197.219 102.237 13
-5 2 -3 -153.999 125.693 11
-5 2 -3 73.6698 100.172 13
-5 2 -4 73.8615 99.9727 11
-5 2 -4 189.11 99.5125 13
-5 2 -5 -6.51463 88.009 11
-5 2 -5 -64.2056 84.4929 13
-5 2 -6 261.162 94.3144 11
-5 2 -6 152.889 86.632 13
-5 2 -7 1055 150.135 13
-5 1 5 541.955 147.612 10
-5 1 4 697.948 162.955 10
-5 1 3 -46.5923 84.1929 11
-5 1 3 382.352 157.234 10
-5 1 2 212.369 105.993 11
-5 1 2 94.7144 101.791 13
-5 1 1 202.696 107.857 11
-5 1 1 362.546 141.593 13
-5 1 0 242.121 122.823 11
-5 1 0 31.737 103.763 13
-5 1 -1 188.362 136.586 11
-5 1 -1 123.186 102.091 13
-5 1 -2 499.456 162.294 11
-5 1 -2 234.026 114.548 13
-5 1 -3 815.417 182.299 11
-5 1 -3 1017.94 192.996 13
-5 1 -4 868.769 187.107 11
-5 1 -4 730.257 167.796 13
-5 1 -5 1387.61 213.647 11
-5 1 -5 1495.9 206.911 13
-5 1 -6 6.45213 219.12 24
-5 1 -6 39.8291 96.5797 11
-5 1 -6 153.095 104.597 13
-5 1 -7 6949.26 398.227 11
-5 1 -7 6271.25 374.885 13
-5 1 -8 160.576 203.072 24
-5 1 -8 1015.7 147.854 13
-5 1 -9 251.747 191.45 24
-5 0 6 44.522 96.543 10
-5 0 5 916.502 162.666 10
-5 0 4 114.095 128.61 10
-5 0 3 743.132 169.164 10
-5 0 2 -0.20867 98.2636 11
-5 0 2 33.4741 101.197 13
-5 0 1 1286.62 200.565 11
-5 0 1 1103.95 205.661 13
-5 0 0 2381.23 279.273 11
-5 0 0 2989.86 310.849 10
-5 0 0 2069.89 265.06 13
-5 0 -1 -124.946 128.932 11
-5 0 -1 -20.3659 113.131 13
-5 0 -2 611.948 167.298 11
-5 0 -2 571.305 161.732 13
-5 0 -3 -129.363 158.05 11
-5 0 -3 109.103 110.336 13
-5 0 -4 2479.41 302.02 11
-5 0 -4 2101.86 254.705 13
-5 0 -5 3251.67 335.069 11
-5 0 -5 2416.86 263.242 13
-5 0 -6 1018.46 205.196 11
-5 0 -6 1019 181.695 13
-5 0 -7 2318.45 268.9 11
-5 0 -7 1594.63 201.603 13
-5 0 -8 78.1712 193.331 24
-5 0 -8 1100.86 155.253 13
-5 0 -9 84.8393 204.203 24
-5 0 -10 -115.127 194.852 24
-5 -1 6 496.88 121.522 10
-5 -1 5 -76.3884 111.58 10
-5 -1 4 33.1557 104.522 10
-5 -1 3 631.161 153.081 10
-5 -1 2 20.6353 122.089 10
-5 -1 1 -9.23963 87.6147 11
-5 -1 1 18.61 119.729 10
-5 -1 1 -49.1795 102.203 13
-5 -1 0 2831.79 302.435 11
-5 -1 0 2863 299.45 10
-5 -1 0 3110.87 317.198 13
-5 -1 -1 112.379 128.36 11
-5 -1 -1 257.585 131.708 13
-5 -1 -2 2332.24 293.815 11
-5 -1 -2 3179.66 327.519 10
-5 -1 -2 2327.41 276.55 13
-5 -1 -3 74.7081 118.406 11
-5 -1 -3 89.3069 93.2857 13
-5 -1 -4 -121.695 242.126 24
-5 -1 -4 30.202 130.791 11
-5 -1 -4 -17.5261 94.1071 13
-5 -1 -5 -103.713 256.82 24
-5 -1 -5 7.73537 142.377 11
-5 -1 -5 20.8488 84.3023 13
-5 -1 -6 332.558 289.766 24
-5 -1 -6 1299.72 233.631 11
-5 -1 -7 110.836 221.953 24
-5 -1 -7 320.611 152.346 11
-5 -1 -8 -269.647 234.659 24
-5 -1 -9 -11.446 206.949 24
-5 -1 -10 -82.5202 213.358 24
-5 -1 -11 160.264 214.849 24
-5 -2 6 115.596 92.0926 10
-5 -2 5 13.4213 101.204 10
-5 -2 4 -43.7866 110.719 10
-5 -2 3 2294.53 258.219 21
-5 -2 3 1829.26 217.33 10
-5 -2 2 1024.54 188.255 21
-5 -2 2 701.273 153.325 10
-5 -2 1 829.409 175.482 21
-5 -2 1 905.448 184.893 10
-5 -2 0 456.132 145.926 21
-5 -2 0 458.067 151.523 10
-5 -2 -1 119.386 122.876 11
-5 -2 -1 294.12 161.179 10
-5 -2 -1 140.024 113.322 13
-5 -2 -2 109.672 143.052 11
-5 -2 -2 81.4228 89.5921 13
-5 -2 -3 -96.7081 232.604 24
-5 -2 -3 635.168 178.493 11
-5 -2 -4 251.407 282.537 24
-5 -2 -4 662.536 200.352 11
-5 -2 -5 518.189 300.876 24
-5 -2 -5 2518.87 313.163 11
-5 -2 -6 62.8027 262.645 24
-5 -2 -7 63.1705 255.342 24
-5 -2 -8 -73.5686 227.676 24
-5 -2 -9 -92.6422 219.146 24
-5 -2 -10 -220.181 207.598 24
-5 -2 -11 -35.4026 183.493 24
-5 -3 5 -123.757 105.007 10
-5 -3 4 -157.223 122.406 10
-5 -3 3 152.974 120.511 21
-5 -3 3 -124.622 126.743 10
-5 -3 2 1205.29 209.293 21
-5 -3 2 756.976 153.076 10
-5 -3 1 1157.54 214.114 21
-5 -3 0 2528.32 289.36 21
-5 -3 -1 -103.094 134.728 21
-5 -3 -2 539.591 152.996 21
-5 -3 -3 182.831 310.393 24
-5 -3 -3 402.965 140.988 21
-5 -3 -4 470.415 293.713 24
-5 -3 -4 856.108 171.702 21
-5 -3 -5 -33.132 251.836 24
-5 -3 -5 220.046 125.855 21
-5 -3 -6 633.25 317.493 24
-5 -3 -7 -28.4441 227.346 24
-5 -3 -8 522.652 310.623 24
-5 -3 -9 37.6537 198.973 24
-5 -3 -10 61.227 188.738 24
-5 -3 -11 -47.8235 175.013 24
-5 -4 3 81.9416 106.427 21
-5 -4 2 4078.97 336.792 21
-5 -4 1 419.625 153.707 21
-5 -4 0 3557.66 333.859 21
-5 -4 -1 5307.75 405.105 21
-5 -4 -2 471.467 147.555 21
-5 -4 -3 -144.568 138.877 21
-5 -4 -4 -194.874 148.477 21
-5 -4 -5 1498.5 218.242 21
-5 -4 -6 596.478 304.265 24
-5 -4 -6 1961.25 240.489 21
-5 -4 -7 86.7401 253.928 24
-5 -4 -7 389.381 128.731 21
-5 -4 -8 -87.3259 209.519 24
-5 -4 -8 436.758 123.466 21
-5 -4 -9 135.949 216.664 24
-5 -5 3 518.909 136.293 21
-5 -5 2 515.04 127.667 21
-5 -5 1 1892.52 221.681 21
-5 -5 0 1479.41 210.324 21
-5 -5 0 966.515 161.862 18
-5 -5 -1 777.27 168.981 21
-5 -5 -1 759.17 152.056 18
-5 -5 -2 -30.4637 128.241 21
-5 -5 -3 2164.99 249.919 21
-5 -5 -4 2119.32 250.237 21
-5 -5 -5 98.7627 96.0025 21
-5 -5 -6 -13.0991 82.713 21
-5 -5 -7 491.076 131.832 21
-5 -5 -8 81.9601 79.6119 21
-5 -6 -1 1985.35 204.254 21
-5 -6 -2 240.147 96.7508 21
-5 -6 -2 195.377 108.543 18
-5 -6 -3 431.143 121.393 21
-5 -6 -3 363.82 118.706 18
-5 -6 -4 -28.311 92.5621 21
-5 -6 -5 -85.8469 89.9959 21
-5 -6 -6 151.637 84.8635 21
