#------------------------------------------------------------------------------
#$Date: 2019-11-23 20:16:24 +0200 (Sat, 23 Nov 2019) $
#$Revision: 234808 $
#$URL: file:///home/coder/svn-repositories/cod/cif/4/03/65/4036520.cif $
#------------------------------------------------------------------------------
#
# This file is available in the Crystallography Open Database (COD),
# http://www.crystallography.net/
#
# All data on this site have been placed in the public domain by the
# contributors.
#
data_4036520
loop_
_publ_author_name
'\<Senica, Luka'
'Stopar, Karmen'
'Friedrich, Miha'
'Gro\<selj, Uro\<s'
'Plavec, Janez'
'Po\<ckaj, Marta'
'Podlipnik, \<Crtomir'
'\<Stefane, Bogdan'
'Svete, Jurij'
_publ_section_title
;
 Synthesis and Rotational Isomerism of 1-Substituted Methyl
 (S)-[5-(2-Nitrophenyl)-1H-pyrazole-4-carbonyl]alaninates.
;
_journal_issue                   1
_journal_name_full               'The Journal of organic chemistry'
_journal_page_first              146
_journal_page_last               161
_journal_paper_doi               10.1021/acs.joc.5b02467
_journal_volume                  81
_journal_year                    2016
_chemical_formula_moiety         'C17 H10 Cl3 N3 O4'
_chemical_formula_sum            'C17 H10 Cl3 N3 O4'
_chemical_formula_weight         426.63
_space_group_crystal_system      triclinic
_space_group_IT_number           2
_space_group_name_Hall           '-P 1'
_space_group_name_H-M_alt        'P -1'
_atom_sites_solution_hydrogens   geom
_audit_creation_method           SHELXL-2013
_cell_angle_alpha                89.649(4)
_cell_angle_beta                 83.896(4)
_cell_angle_gamma                77.526(3)
_cell_formula_units_Z            2
_cell_length_a                   8.1048(3)
_cell_length_b                   9.4611(4)
_cell_length_c                   11.8699(6)
_cell_measurement_reflns_used    4435
_cell_measurement_temperature    293(2)
_cell_measurement_theta_max      30.2026
_cell_measurement_theta_min      2.8183
_cell_volume                     883.53(7)
_computing_cell_refinement
;
CrysAlisPro, Agilent Technologies,
Version 1.171.36.20 (release 27-06-2012 CrysAlis171 .NET)
(compiled Jul 11 2012,15:38:31)
;
_computing_data_collection
;
CrysAlisPro, Agilent Technologies,
Version 1.171.36.20 (release 27-06-2012 CrysAlis171 .NET)
(compiled Jul 11 2012,15:38:31)
;
_computing_data_reduction
;
CrysAlisPro, Agilent Technologies,
Version 1.171.36.20 (release 27-06-2012 CrysAlis171 .NET)
(compiled Jul 11 2012,15:38:31)
;
_computing_structure_refinement  'SHELXL-2013 (Sheldrick, 2013)'
_computing_structure_solution    'SIR97 (Altomare et al., 1999)'
_diffrn_ambient_temperature      293(2)
_diffrn_detector_area_resol_mean 10.4933
_diffrn_measured_fraction_theta_full 0.998
_diffrn_measured_fraction_theta_max 0.999
_diffrn_measurement_device_type  'SuperNova, Dual, Cu at zero, Atlas'
_diffrn_measurement_method       '\w scans'
_diffrn_radiation_monochromator  mirror
_diffrn_radiation_source         'SuperNova (Mo) X-ray Source'
_diffrn_radiation_type           MoK\a
_diffrn_radiation_wavelength     0.71073
_diffrn_reflns_av_R_equivalents  0.0206
_diffrn_reflns_av_unetI/netI     0.0322
_diffrn_reflns_Laue_measured_fraction_full 0.998
_diffrn_reflns_Laue_measured_fraction_max 0.999
_diffrn_reflns_limit_h_max       10
_diffrn_reflns_limit_h_min       -10
_diffrn_reflns_limit_k_max       12
_diffrn_reflns_limit_k_min       -11
_diffrn_reflns_limit_l_max       15
_diffrn_reflns_limit_l_min       -15
_diffrn_reflns_number            8768
_diffrn_reflns_point_group_measured_fraction_full 0.998
_diffrn_reflns_point_group_measured_fraction_max 0.999
_diffrn_reflns_theta_full        25.242
_diffrn_reflns_theta_max         27.484
_diffrn_reflns_theta_min         2.824
_exptl_absorpt_coefficient_mu    0.549
_exptl_absorpt_correction_T_max  1.00000
_exptl_absorpt_correction_T_min  0.72543
_exptl_absorpt_correction_type   multi-scan
_exptl_absorpt_process_details
;
CrysAlisPro, Agilent Technologies,
Version 1.171.36.20 (release 27-06-2012 CrysAlis171 .NET)
(compiled Jul 11 2012,15:38:31)
Empirical absorption correction using spherical harmonics,
 implemented in SCALE3 ABSPACK scaling algorithm.
;
_exptl_crystal_colour            colourless
_exptl_crystal_density_diffrn    1.604
_exptl_crystal_description       prism
_exptl_crystal_F_000             432
_exptl_crystal_size_max          0.4
_exptl_crystal_size_mid          0.1
_exptl_crystal_size_min          0.1
_refine_diff_density_max         0.286
_refine_diff_density_min         -0.292
_refine_diff_density_rms         0.052
_refine_ls_extinction_method     none
_refine_ls_goodness_of_fit_ref   1.103
_refine_ls_hydrogen_treatment    constr
_refine_ls_matrix_type           full
_refine_ls_number_parameters     245
_refine_ls_number_reflns         4059
_refine_ls_number_restraints     0
_refine_ls_restrained_S_all      1.103
_refine_ls_R_factor_all          0.0527
_refine_ls_R_factor_gt           0.0407
_refine_ls_shift/su_max          0.000
_refine_ls_shift/su_mean         0.000
_refine_ls_structure_factor_coef Fsqd
_refine_ls_weighting_details
'w=1/[\s^2^(Fo^2^)+(0.0313P)^2^+0.6382P] where P=(Fo^2^+2Fc^2^)/3'
_refine_ls_weighting_scheme      calc
_refine_ls_wR_factor_gt          0.0986
_refine_ls_wR_factor_ref         0.1054
_reflns_Friedel_coverage         0.000
_reflns_number_gt                3320
_reflns_number_total             4059
_reflns_threshold_expression     'I > 2\s(I)'
_cod_data_source_file            jo5b02467_si_001.cif
_cod_data_source_block           crystr5f
_cod_database_code               4036520
_shelx_space_group_comment
;
The symmetry employed for this shelxl refinement is uniquely defined
by the following loop, which should always be used as a source of
symmetry information in preference to the above space-group names.
They are only intended as comments.
;
_shelxl_version_number           2013-4
_shelx_res_file
;
TITL mo417 in P-1
CELL  0.71073   8.1048   9.4611  11.8699   89.649   83.896   77.526
ZERR     2.00   0.0003   0.0004   0.0006    0.004    0.004    0.003
LATT   1
SFAC  C    H    N    O    CL
UNIT  34   20   6    8    6
MERG   2
FMAP   2
PLAN   25
L.S.   8
acta
bond $h
conf
shel 50 0.77
WGHT    0.031300    0.638200
FVAR       6.37269
CL1   5   -0.013126    0.472257    0.793891    11.00000    0.04257    0.04521 =
         0.04316    0.01080   -0.00364   -0.00392
CL2   5   -0.099935    0.120248    1.139624    11.00000    0.04541    0.05393 =
         0.05452    0.01512    0.01143   -0.01314
CL3   5    0.526195    0.187398    0.995599    11.00000    0.02970    0.05728 =
         0.06039    0.00195   -0.00669   -0.00700
O1    4    0.800179    0.182307    0.766712    11.00000    0.04149    0.05878 =
         0.05754   -0.01050   -0.01491   -0.01065
O2    4    0.905057    0.040397    0.623177    11.00000    0.02827    0.08623 =
         0.07255   -0.02023    0.00681    0.00228
O3    4    0.724928    0.564218    0.582741    11.00000    0.06872    0.04002 =
         0.07427    0.00101    0.02736   -0.02140
O4    4    0.719451    0.335779    0.539434    11.00000    0.04963    0.04482 =
         0.04243   -0.00637    0.01647   -0.01901
N1    3    0.356876    0.389668    0.826785    11.00000    0.03138    0.02843 =
         0.03630   -0.00589    0.00803   -0.00815
N2    3    0.364319    0.528012    0.854369    11.00000    0.04771    0.02913 =
         0.04990   -0.01034    0.01174   -0.01099
N6    3    0.786483    0.102697    0.689774    11.00000    0.02831    0.04422 =
         0.04301    0.00070   -0.00549   -0.00149
C1    1    0.476100    0.560265    0.775822    11.00000    0.04653    0.03010 =
         0.04995   -0.00390    0.00922   -0.01273
AFIX  43
H1    2    0.507367    0.649288    0.772254    11.00000   -1.20000
AFIX   0
C2    1    0.543545    0.446515    0.697783    11.00000    0.03046    0.03098 =
         0.03704    0.00077    0.00197   -0.00761
C3    1    0.465327    0.335049    0.733694    11.00000    0.02474    0.02883 =
         0.03093   -0.00057    0.00080   -0.00292
C4    1    0.670087    0.457323    0.602031    11.00000    0.03527    0.03525 =
         0.04104    0.00375    0.00368   -0.00847
C5    1    0.852861    0.335806    0.447841    11.00000    0.06429    0.06646 =
         0.05401   -0.01112    0.03047   -0.02298
AFIX 137
H5A   2    0.811631    0.405510    0.392663    11.00000   -1.50000
H5B   2    0.886430    0.241309    0.412816    11.00000   -1.50000
H5C   2    0.948875    0.360617    0.477386    11.00000   -1.50000
AFIX   0
C6    1    0.320200    0.150139    0.669879    11.00000    0.02691    0.03877 =
         0.03491   -0.00351    0.00247   -0.00628
AFIX  43
H6    2    0.219966    0.220712    0.678033    11.00000   -1.20000
AFIX   0
C7    1    0.471962    0.186618    0.692429    11.00000    0.02778    0.02965 =
         0.02606   -0.00019    0.00393   -0.00709
C8    1    0.618283    0.076910    0.674571    11.00000    0.02759    0.03431 =
         0.02887   -0.00012    0.00014   -0.00521
C9    1    0.614569   -0.062017    0.639696    11.00000    0.04397    0.03157 =
         0.03648   -0.00074    0.00103    0.00033
AFIX  43
H9    2    0.714526   -0.132662    0.628566    11.00000   -1.20000
AFIX   0
C10   1    0.461681   -0.094391    0.621712    11.00000    0.05606    0.03290 =
         0.03936   -0.00244    0.00029   -0.01708
AFIX  43
H10   2    0.457314   -0.187728    0.600129    11.00000   -1.20000
AFIX   0
C11   1    0.315731    0.011895    0.635821    11.00000    0.03917    0.04640 =
         0.04017   -0.00235    0.00157   -0.02096
AFIX  43
H11   2    0.212759   -0.009464    0.622290    11.00000   -1.20000
AFIX   0
C12   1    0.247624    0.321708    0.899948    11.00000    0.03034    0.02894 =
         0.03039   -0.00540    0.00547   -0.00574
C13   1    0.311673    0.226659    0.982545    11.00000    0.02827    0.03365 =
         0.03636   -0.00468    0.00066   -0.00369
C14   1    0.205228    0.163910    1.056254    11.00000    0.03648    0.03530 =
         0.03547    0.00264   -0.00048   -0.00370
AFIX  43
H14   2    0.248975    0.099505    1.110679    11.00000   -1.20000
AFIX   0
C15   1    0.032785    0.198947    1.047269    11.00000    0.03316    0.03304 =
         0.03280   -0.00162    0.00748   -0.00853
C16   1   -0.036159    0.294964    0.968464    11.00000    0.02717    0.03529 =
         0.03621   -0.00322    0.00307   -0.00609
AFIX  43
H16   2   -0.152963    0.319091    0.964968    11.00000   -1.20000
AFIX   0
C17   1    0.072761    0.354562    0.894685    11.00000    0.03378    0.02915 =
         0.03048   -0.00207    0.00030   -0.00303
HKLF    4

REM  mo417 in P-1
REM R1 =  0.0407 for    3320 Fo > 4sig(Fo)  and  0.0527 for all    4059 data
REM    245 parameters refined using      0 restraints

END

WGHT      0.0311      0.6394

REM Highest difference peak  0.286,  deepest hole -0.292,  1-sigma level  0.052
Q1    1   0.1147  0.2182  1.0715  11.00000  0.05    0.29
Q2    1   0.4924  0.5138  0.7172  11.00000  0.05    0.27
Q3    1   0.6403  0.5563  0.5506  11.00000  0.05    0.26
Q4    1   0.4811  0.2653  0.7052  11.00000  0.05    0.26
Q5    1   0.0268  0.2161  0.9883  11.00000  0.05    0.26
Q6    1   0.3028  0.3507  0.8618  11.00000  0.05    0.24
Q7    1   0.5754  0.4500  0.6449  11.00000  0.05    0.24
Q8    1   0.2804  0.3023  0.9636  11.00000  0.05    0.24
Q9    1   0.5219  0.3820  0.7044  11.00000  0.05    0.24
Q10   1   0.2457  0.1796  0.9939  11.00000  0.05    0.23
Q11   1   0.4891  0.2787  0.9943  11.00000  0.05    0.23
Q12   1  -0.0023  0.2563  1.0238  11.00000  0.05    0.23
Q13   1   0.6794  0.4280  0.7839  11.00000  0.05    0.22
Q14   1   0.5541  0.1548  0.6640  11.00000  0.05    0.22
Q15   1   0.3906  0.1523  0.7103  11.00000  0.05    0.21
Q16   1   0.4003 -0.0111  0.6083  11.00000  0.05    0.21
Q17   1   0.3873  0.2012  0.9799  11.00000  0.05    0.21
Q18   1  -0.0154  0.1781  1.0852  11.00000  0.05    0.21
Q19   1   0.5310 -0.0780  0.6619  11.00000  0.05    0.20
Q20   1   0.6799  0.0965  0.6749  11.00000  0.05    0.20
Q21   1   0.0667  0.5278  0.8043  11.00000  0.05    0.19
Q22   1  -0.0545  0.1830  1.1801  11.00000  0.05    0.19
Q23   1   1.0301  0.0578  0.6532  11.00000  0.05    0.18
Q24   1   0.0295  0.4366  0.7005  11.00000  0.05    0.18
Q25   1   0.8651 -0.0288  0.6769  11.00000  0.05    0.18
;
_shelx_res_checksum              9414
_shelx_hkl_file
;
   0   0   2 3966.54 144.088   2
   0   0   3 69322.6 723.992   2
   0   0   4 9769.08 311.822   2
   0   0   5 65411.8 910.067   2
   0   0   6 32363.8 706.487   2
   0   0   6 30982.4 812.428   5
   0   0   7 4532.41 289.195   2
   0   0   7 4683.43 346.235   5
   0   0  -8 2561.49 238.438   2
   0   0   8 2449.46 269.349   5
   0   0   8 2813.19 266.074   6
   0   0   9 11763.6 649.570   5
   0   0  -9 11897.0 544.217   2
   0   0  10 1979.02 294.285   5
   0   0 -10 1907.10 247.394   2
   0   0 -11 918.336 144.966   7
   0   0  11 1099.96 230.216   5
   0   0 -11 761.210 169.510   2
   0   0  12 3869.04 443.732   5
   0   0 -12 3538.79 364.414   1
   0   0 -12 3541.77 360.615   2
   0   0  13 2358.05 376.770   5
   0   0 -13 2423.17 322.250   2
   0   0 -13 2234.54 306.414   1
   0   0 -14 147.119 120.836   2
   0   0  14 77.9562 73.0190   5
   0   0 -14 209.839 115.785   1
   0   0 -15 192.317 144.247   1
   0   0 -15 301.382 146.395   2
   0   1 -15-44.3454 74.0090   1
   0  -1  15 62.9312 124.272   5
   0   1 -15 124.672 123.355   2
   0   1 -14 663.038 172.528   2
   0   1 -14 838.043 208.866   1
   0  -1  14 877.492 252.062   5
   0   1 -13 2672.99 336.169   2
   0  -1  13 2759.36 412.696   5
   0  -1  12 866.305 209.849   5
   0   1 -12 674.911 160.582   2
   0   1 -11 7696.43 490.790   2
   0  -1  11 7539.10 575.687   5
   0  -1  10 18349.8 843.457   5
   0   1 -10 16821.5 678.236   2
   0   1  -9 565.672 119.724   2
   0  -1   9 665.083 172.791   5
   0   1  -8 40827.0 916.024   2
   0  -1   8 39521.6 1085.65   5
   0  -1   8 42294.7 1038.83   6
   0  -1   7 5933.15 393.404   5
   0  -1   7 5915.94 333.130   2
   0  -1   7 5888.68 364.730   6
   0  -1   6 50729.2 989.614   6
   0  -1   6 47559.3 867.758   2
   0  -1   5 49481.1 804.748   2
   0  -1   5 46840.0 862.520   6
   0  -1   4 184272. 1525.88   6
   0  -1   4 177019. 1363.00   2
   0  -1   3 598248. 2162.51   2
   0  -1   3 566510. 2436.84   6
   0  -1   2 44157.8 558.007   6
   0  -1   2 43833.0 492.751   2
   0   1   1 73238.2 446.425   7
   0   1   2 391.581 42.5640   7
   0   1   2 326.211 48.6935   2
   0  -1  -3 116820. 774.510   7
   0  -1  -3 115388. 1155.33   5
   0  -1  -4 1834.60 173.461   5
   0   1   4 1685.38 135.333   2
   0  -1  -4 1715.48 106.454   7
   0  -1  -5 948.661 136.956   5
   0  -1  -5 930.219 88.0227   7
   0   1   5 1041.70 144.691   5
   0   1   5 1112.02 122.303   2
   0   1   6 22138.0 587.093   2
   0  -1  -6 22731.5 703.917   5
   0   1   6 21513.9 687.672   5
   0  -1  -6 21079.0 461.168   7
   0   1   7 6045.71 332.096   2
   0  -1  -7 5719.41 260.584   7
   0   1   7 5990.05 391.903   5
   0  -1  -8 6161.18 284.599   7
   0   1   8 5955.21 430.435   5
   0   1   9 3707.19 352.427   5
   0  -1  -9 3619.56 316.633   2
   0  -1  -9 3947.28 240.522   7
   0  -1 -10 2357.22 193.682   7
   0  -1 -10 2492.41 284.728   2
   0  -1 -10 2548.32 275.698   1
   0   1  10 2094.56 286.450   5
   0  -1 -11 3421.22 239.127   7
   0  -1 -11 3660.58 352.692   1
   0  -1 -11 4058.90 382.939   2
   0  -1 -12 5183.55 444.502   1
   0  -1 -12 5166.66 454.982   2
   0  -1 -13 14657.8 805.134   2
   0  -1 -13 13761.5 760.499   1
   0  -1 -14 2346.87 339.125   1
   0  -1 -15-62.0867 85.3748   1
   0   2 -15 353.737 143.974   2
   0  -2  15 458.032 200.223   5
   0   2 -15 299.675 162.680   1
   0  -2  14 150.382 100.001   5
   0   2 -14 108.218 95.2679   2
   0  -2  13 2817.22 424.615   5
   0   2 -13 2395.44 311.611   2
   0   2 -12 1358.97 219.312   2
   0  -2  12 1371.28 263.035   5
   0   2 -11-90.6427 79.6403   2
   0  -2  11 24.3962 85.6332   5
   0   2 -10 1570.32 202.709   2
   0  -2  10 1558.65 274.229   5
   0  -2   9 2173.13 288.730   5
   0   2  -9 2216.64 229.267   2
   0  -2   8 295.886 90.7802   6
   0   2  -8 382.197 104.919   2
   0  -2   7 39756.3 884.388   2
   0   2  -7 38705.4 826.462   2
   0  -2   7 37921.3 941.197   6
   0  -2   6 1432.74 172.806   6
   0  -2   6 1386.32 155.165   2
   0   2  -5 4601.22 292.580   6
   0   2  -5 5022.99 252.202   2
   0  -2   5 5138.14 271.774   2
   0  -2   5 5220.48 303.717   6
   0  -2   4 196376. 1503.83   2
   0  -2   3 3504.61 181.082   2
   0  -2   2 123.019 35.0583   2
   0  -2   1 66948.6 773.387   4
   0  -2   0 13276.7 261.141   1
   0   2   0 13347.0 265.283   1
   0  -2   0 14071.6 200.189   8
   0  -2   0 13831.9 343.505   4
   0  -2  -1 316593. 1428.10   1
   0   2   1 315816. 1323.31   1
   0   2   2 816974. 2264.34   1
   0  -2  -2 816329. 2487.07   1
   0  -2  -3 202383. 1366.88   1
   0  -2  -3 191274. 998.703   3
   0   2   3 197183. 1168.09   7
   0  -2  -3 194590. 1023.16   7
   0   2   3 204096. 1448.01   2
   0   2   4 96770.1 1070.85   2
   0   2   4 92385.8 874.778   7
   0  -2  -4 96685.4 1063.56   1
   0  -2  -4 93855.8 765.589   7
   0  -2  -4 91859.6 1238.32   5
   0   2   5 32915.6 678.100   2
   0  -2  -5 31634.5 824.230   5
   0  -2  -5 32187.4 491.233   7
   0  -2  -5 33053.9 689.977   1
   0   2   6 106.989 41.0881   2
   0  -2  -6 149.688 40.1125   7
   0  -2  -6 143.463 60.2772   1
   0  -2  -6 154.332 78.7403   5
   0   2   7 8214.61 394.945   2
   0  -2  -7 8752.83 420.817   1
   0  -2  -7 8180.94 282.832   7
   0  -2  -7 7791.49 461.060   5
   0  -2  -8 5811.46 370.920   1
   0  -2  -8 6359.78 261.621   7
   0  -2  -8 6001.42 397.726   2
   0  -2  -9 13795.2 403.541   7
   0  -2  -9 13225.8 630.449   2
   0  -2  -9 13957.7 607.813   1
   0  -2 -10 13728.4 681.259   2
   0  -2 -10 13270.5 640.667   1
   0  -2 -10 13235.9 402.877   7
   0  -2 -11 3553.18 352.162   1
   0  -2 -12 4490.25 422.640   1
   0  -2 -13 1059.23 231.645   1
   0  -2 -14 3715.09 432.867   1
   0  -2 -15 150.527 122.912   1
   0   3 -15 147.603 63.5507   2
   0  -3  15 141.632 85.6982   5
   0   3 -15 354.001 153.960   1
   0  -3  14 1418.82 317.267   5
   0   3 -14 1618.69 270.350   2
   0  -3  13 4254.95 515.030   5
   0   3 -13 4350.45 416.043   2
   0   3 -12 268.493 106.282   2
   0  -3  12 239.712 128.590   5
   0   3 -11 9757.95 544.689   2
   0  -3  11 11488.6 744.096   5
   0   3 -10 1043.17 171.409   2
   0   3  -9 9204.21 468.392   2
   0   3  -8 8709.34 425.639   2
   0   3  -7 22416.7 641.305   2
   0  -3   7 22447.7 688.991   2
   0   3  -6 29205.2 829.946   6
   0  -3   6 26778.8 699.660   2
   0   3  -5 32728.7 807.869   6
   0   3  -5 34917.3 693.258   2
   0  -3   5 32279.1 714.245   2
   0  -3   4 41506.5 750.876   2
   0   3  -4 44447.2 729.523   2
   0   3  -3 8447.65 300.571   2
   0  -3   3 8875.75 328.199   2
   0  -3   2 66967.9 987.663   4
   0   3  -2 66576.6 799.113   2
   0  -3   1 124044. 1256.25   4
   0   3  -1 123466. 1033.07   1
   0  -3   0 137517. 1018.71   1
   0   3   0 135574. 1029.57   1
   0  -3   0 138773. 1309.79   4
   0  -3   0 137366. 798.875   8
   0   3   1 96512.8 849.348   1
   0  -3  -1 95626.9 922.836   1
   0   3   2 1487.48 111.797   1
   0   3   2 1553.61 113.166   3
   0  -3  -2 1526.15 131.912   1
   0   3   2 1581.13 117.386   7
   0   3   3 53164.6 710.381   7
   0  -3  -3 56544.7 820.225   1
   0   3   3 54332.1 824.601   2
   0  -3  -4 4042.18 162.657   3
   0  -3  -4 4293.38 247.551   1
   0   3   4 4017.45 237.861   2
   0   3   4 4121.35 211.834   7
   0  -3  -5 35051.9 513.309   3
   0   3   5 36635.5 649.132   7
   0  -3  -5 36065.0 770.858   1
   0  -3  -5 36241.3 535.395   7
   0   3   5 36847.0 761.282   2
   0  -3  -6 13994.4 350.658   3
   0  -3  -6 13975.8 596.203   5
   0   3   6 14494.2 423.506   7
   0  -3  -6 13676.4 515.548   1
   0   3   6 14524.1 507.610   2
   0  -3  -6 13980.1 342.065   7
   0  -3  -7 439.730 119.931   5
   0  -3  -7 538.633 116.295   1
   0  -3  -7 655.782 77.7041   7
   0  -3  -8 840.580 92.6545   7
   0  -3  -8 963.564 161.852   1
   0  -3  -9 30746.7 947.544   1
   0  -3  -9 29170.8 527.607   7
   0  -3 -10 9432.42 299.176   7
   0  -3 -10 9393.26 564.095   1
   0  -3 -11 18454.9 834.452   1
   0  -3 -12 242.100 115.228   1
   0  -3 -13 658.998 183.433   1
   0  -3 -14 5963.64 564.436   1
   0  -3 -15 5171.60 547.099   1
   0   4 -15 330.243 145.070   2
   0   4 -14 1693.19 282.546   2
   0  -4  14 2275.19 409.742   5
   0   4 -13 1564.40 253.340   2
   0  -4  13 2335.77 396.534   5
   0  -4  12 1165.62 258.982   5
   0   4 -12 967.585 180.368   2
   0   4 -11 4793.86 387.902   2
   0   4 -10 7039.46 445.221   2
   0   4  -9 869.572 145.612   2
   0   4  -8 1469.63 221.542   6
   0   4  -8 1798.85 199.003   2
   0  -4   7 9094.02 463.833   2
   0   4  -7 8388.69 500.497   6
   0   4  -7 9402.75 429.763   2
   0   4  -6 1418.97 192.103   6
   0  -4   6 1208.30 156.070   2
   0   4  -5 12141.6 529.520   6
   0  -4   5 11977.1 473.449   2
   0   4  -4 2392.65 191.034   2
   0  -4   4 2337.28 195.379   2
   0   4  -3 12709.4 405.913   2
   0  -4   3 12411.9 496.714   4
   0   4  -2 1937.75 158.676   1
   0  -4   2 1731.88 173.660   4
   0   4  -2 1873.98 157.228   2
   0  -4   1 1899.81 119.148   8
   0  -4   1 1761.43 177.387   4
   0   4  -1 1732.25 139.357   1
   0   4  -1 1818.88 183.222   4
   0  -4   0 22567.6 384.012   8
   0  -4   0 21830.0 614.497   4
   0  -4   0 21526.2 472.781   1
   0   4   0 22290.9 471.482   1
   0   4   1 1601.75 128.063   1
   0  -4  -1 1640.99 137.547   1
   0   4   2 4739.24 215.212   1
   0   4   2 4525.35 229.677   7
   0   4   2 4241.93 105.320   8
   0   4   2 4566.52 223.296   3
   0  -4  -2 4325.92 236.736   1
   0   4   3 83564.4 927.234   1
   0   4   3 82835.5 957.808   3
   0   4   3 79549.7 984.371   7
   0  -4  -3 80467.1 1097.28   1
   0   4   4 25853.7 582.457   7
   0   4   4 26801.9 669.697   2
   0  -4  -4 27121.1 667.388   1
   0   4   5 72530.1 1019.66   7
   0   4   5 72366.6 1153.63   2
   0  -4  -5 71014.8 1163.65   1
   0  -4  -6 5375.09 344.258   1
   0   4   6 5278.49 281.794   7
   0   4   6 5337.31 324.772   2
   0  -4  -7 12245.9 322.314   3
   0   4   7 12302.9 437.006   7
   0  -4  -7 11946.2 552.123   1
   0  -4  -8 716.298 87.0355   3
   0  -4  -8 853.586 160.942   1
   0  -4  -9 837.834 168.822   1
   0  -4  -9 687.488 84.2804   3
   0  -4 -10 1032.45 105.910   3
   0  -4 -10 1168.13 211.342   1
   0  -4 -11 813.506 192.075   1
   0  -4 -12 769.985 199.774   1
   0  -4 -13 56.7681 86.9982   1
   0  -4 -14 59.9782 103.219   1
   0   5 -15 846.222 220.957   2
   0  -5  14-129.437 153.391   5
   0   5 -14 81.2282 70.6753   2
   0   5 -13 3763.66 385.566   2
   0  -5  13 4170.10 529.969   5
   0   5 -12 8929.36 566.862   2
   0   5 -11 74.0624 77.4652   2
   0   5 -10-27.2768 43.5754   2
   0   5  -9 530.370 161.532   6
   0   5  -9 376.292 106.887   2
   0   5  -8 700.207 132.600   2
   0   5  -8 725.293 163.923   6
   0   5  -7 976.332 147.599   2
   0   5  -7 923.700 174.943   6
   0  -5   6 5405.14 354.480   2
   0   5  -6 4715.51 379.671   6
   0   5  -6 5399.68 328.492   2
   0  -5   5 19700.4 641.987   2
   0   5  -5 19635.6 726.479   6
   0   5  -4 28479.7 683.928   2
   0  -5   4 29444.2 862.626   4
   0   5  -3 32668.6 725.147   2
   0  -5   3 32757.2 865.206   4
   0   5  -2 9221.57 380.988   2
   0   5  -2 8567.52 362.641   1
   0  -5   2 8876.86 452.983   4
   0  -5   1 3437.13 276.036   4
   0   5  -1 3287.33 216.567   1
   0   5  -1 3025.78 264.871   4
   0  -5   1 3383.57 179.513   8
   0   5   0 1619.21 143.072   1
   0  -5   0 1419.47 110.541   8
   0   5   0 1633.93 195.109   4
   0   5   1 3211.22 198.389   1
   0  -5  -1 3104.25 205.639   1
   0   5   2 16440.8 432.997   1
   0   5   2 16122.9 486.169   7
   0  -5  -2 15892.4 502.149   1
   0   5   2 16655.1 480.127   3
   0  -5  -3 23350.8 641.324   1
   0   5   3 22923.5 592.815   7
   0   5   3 22962.0 517.234   1
   0   5   3 23404.0 581.848   3
   0   5   4 18916.6 597.497   2
   0  -5  -4 18449.6 601.790   1
   0   5   4 17882.9 543.030   7
   0   5   5 5727.22 319.340   7
   0   5   5 5765.60 344.701   2
   0  -5  -5 5571.71 353.036   1
   0   5   6 9838.27 430.454   7
   0  -5  -6 9776.18 489.412   1
   0   5   7 3028.06 241.541   7
   0  -5  -7 3075.85 298.326   1
   0   5   8 3088.50 244.108   7
   0  -5  -8 3279.67 323.218   1
   0  -5  -9 733.639 181.984   1
   0  -5 -10 388.779 128.791   1
   0  -5 -11 3643.19 406.644   1
   0  -5 -12 402.896 154.265   1
   0  -5 -13 390.924 167.120   1
   0  -5 -14 47.9247 86.4055   1
   0   6 -14 295.428 119.717   2
   0   6 -13 501.311 149.981   2
   0   6 -12 121.065 83.0220   2
   0   6 -11 5735.57 435.294   2
   0   6 -10 0.80745 52.0188   2
   0   6  -9 2654.33 342.927   6
   0   6  -9 2358.81 249.934   2
   0   6  -8 3481.90 295.047   2
   0   6  -8 3170.59 360.477   6
   0   6  -7 858.414 144.983   2
   0   6  -7 822.508 181.575   6
   0   6  -6 8084.98 412.881   2
   0   6  -6 7424.90 501.439   6
   0   6  -5 10709.7 584.240   6
   0   6  -5 10891.8 464.751   2
   0  -6   3 9565.58 366.777   8
   0  -6   3 9271.28 505.821   4
   0   6  -3 9543.96 442.886   1
   0   6  -2 895.175 128.427   1
   0  -6   2 992.348 114.233   8
   0   6  -2 1190.95 154.598   2
   0  -6   2 868.138 161.948   4
   0  -6   1 1878.52 152.914   8
   0   6  -1 1946.99 177.065   1
   0  -6   1 1627.85 204.683   4
   0   6   0 25722.6 608.989   1
   0   6   0 25548.8 851.719   4
   0   6   1 21891.9 534.738   1
   0   6   1 21374.8 779.328   4
   0  -6  -1 21375.1 576.995   1
   0   6   1 21444.2 627.344   7
   0   6   2 17346.9 545.661   3
   0  -6  -2 16897.7 545.238   1
   0   6   2 16159.6 546.966   7
   0   6   2 16823.7 464.252   1
   0   6   2 18014.3 731.897   4
   0   6   3 1851.98 192.799   7
   0  -6  -3 1591.06 182.533   1
   0   6   3 1571.10 169.171   3
   0   6   3 1748.92 151.345   1
   0   6   3 1784.85 252.152   4
   0   6   4 1062.66 144.122   7
   0   6   4 1086.03 142.097   3
   0  -6  -4 1350.31 178.218   1
   0   6   4 1432.30 226.727   4
   0   6   5 7804.43 401.006   7
   0  -6  -5 7581.79 436.070   1
   0  -6  -6 10238.8 538.944   1
   0   6   6 10491.6 477.985   7
   0  -6  -7 3563.85 333.271   1
   0   6   7 3073.35 266.906   7
   0  -6  -8 3008.16 324.836   1
   0   6   8 3534.44 286.733   7
   0   6   9 12731.4 527.829   7
   0  -6  -9 12631.7 705.544   1
   0  -6 -10-79.8508 94.8515   1
   0  -6 -11-67.3554 80.3495   1
   0  -6 -12 656.772 187.905   1
   0  -6 -13 59.8266 126.533   1
   0  -6 -14 703.557 217.062   1
   0   7 -14-23.3178 87.9237   2
   0   7 -13 734.505 180.813   2
   0   7 -12 14.1279 60.7242   2
   0   7 -11 12347.7 651.721   2
   0   7 -10 3347.49 326.903   2
   0   7 -10 2796.96 384.984   6
   0   7  -9 1509.34 269.731   6
   0   7  -9 1364.90 201.664   2
   0   7  -8 458.960 106.275   2
   0   7  -8 762.869 185.947   6
   0   7  -7 4077.58 417.139   6
   0   7  -7 4954.85 354.907   2
   0   7  -6 754.473 165.848   6
   0   7  -6 1038.03 157.525   2
   0   7  -5-30.5564 57.4655   6
   0   7  -5 46.3518 46.4637   2
   0   7  -5-8.52715 53.1226   1
   0   7  -4 15.5285 42.8770   2
   0  -7   4 99.8423 63.7122   8
   0   7  -4 110.432 81.0792   1
   0  -7   3 134.516 64.0948   8
   0   7  -3 30.8784 42.6109   1
   0  -7   2 440.625 88.5074   8
   0   7  -2 382.442 95.0887   1
   0   7  -1 23675.3 652.388   1
   0  -7   1 23646.5 584.589   8
   0   7   0 2606.52 203.024   1
   0   7   0 2711.98 303.858   4
   0  -7  -1 11364.4 450.072   1
   0   7   1 10838.7 603.126   4
   0   7   1 10655.8 396.040   1
   0   7   1 10759.2 492.305   7
   0   7   2 785.719 180.284   4
   0   7   2 697.630 102.740   1
   0   7   2 808.835 142.433   7
   0   7   2 791.789 140.973   3
   0  -7  -2 842.803 134.417   1
   0   7   3 644.766 95.8862   1
   0  -7  -3 715.388 135.600   1
   0   7   3 582.657 123.072   7
   0   7   3 1008.35 202.241   4
   0   7   3 856.543 142.883   3
   0  -7  -4 4423.30 335.152   1
   0   7   4 4358.12 307.428   3
   0   7   4 4066.19 311.898   7
   0   7   4 5037.12 440.973   4
   0   7   5 17.4699 83.8082   4
   0   7   5-44.7847 70.2790   7
   0  -7  -5-12.6749 60.3731   1
   0  -7  -6 1.37868 47.3691   1
   0   7   6 86.0565 67.4294   7
   0   7   7 3727.26 321.439   7
   0  -7  -7 2912.75 319.178   1
   0  -7  -8 2008.87 284.645   1
   0   7   8 2106.73 237.586   7
   0  -7  -9 460.085 148.561   1
   0   7   9 555.163 127.981   7
   0  -7 -10 72.5256 62.7378   1
   0  -7 -11 423.949 161.233   1
   0  -7 -12-12.6249 69.0045   1
   0  -7 -13 136.127 111.605   1
   0   8 -13 37.8435 72.2575   2
   0   8 -12 3.55226 54.6841   2
   0  -8  12 221.121 120.143   8
   0   8 -11 961.910 239.466   6
   0   8 -11 996.154 186.496   2
   0  -8  11 1217.68 231.507   8
   0   8 -10 178.297 116.951   6
   0   8 -10 485.755 131.661   2
   0   8  -9 6822.10 457.279   2
   0   8  -9 6956.88 608.966   6
   0   8  -8 782.244 153.106   2
   0   8  -8 915.641 220.692   6
   0  -8   8 970.512 179.339   8
   0  -8   7 400.102 123.945   8
   0   8  -7 41.4494 46.3005   2
   0   8  -7 317.767 135.470   6
   0   8  -6 1887.87 224.835   2
   0   8  -6 1387.44 248.740   6
   0  -8   6 1756.75 213.792   8
   0   8  -5 632.316 143.081   1
   0   8  -5 854.730 143.980   2
   0  -8   5 914.197 147.910   8
   0   8  -4 10013.9 527.952   1
   0  -8   4 9873.08 455.239   8
   0   8  -4 10755.0 516.366   2
   0   8  -3 31287.5 881.548   2
   0  -8   3 30047.1 766.712   8
   0   8  -3 30239.4 870.006   1
   0  -8   2 1948.58 189.136   8
   0   8  -2 1823.07 214.745   2
   0   8  -2 1995.70 208.461   1
   0   8  -1 3620.50 262.559   1
   0   8  -1 3772.57 317.955   2
   0   8   0 11392.2 562.189   7
   0   8   0 10776.9 662.342   4
   0   8   0 11281.7 445.669   1
   0   8   1 587.680 93.3699   1
   0   8   1 729.800 155.696   7
   0   8   1 525.277 157.215   4
   0   8   2 3054.24 215.666   1
   0   8   2 3475.25 377.703   4
   0  -8  -2 3620.47 276.521   1
   0   8   2 3398.33 304.315   7
   0   8   3 6523.18 413.663   3
   0   8   3 6877.38 542.909   4
   0  -8  -3 6436.84 396.102   1
   0   8   3 6044.38 299.248   1
   0   8   3 6226.22 414.757   7
   0   8   4 8650.82 472.680   3
   0   8   4 9279.80 516.912   7
   0   8   4 9035.31 642.832   4
   0  -8  -4 9523.12 510.516   1
   0  -8  -5 8776.67 517.715   1
   0   8   5 8713.41 511.111   7
   0   8   5 9682.93 683.152   4
   0  -8  -6 1054.90 186.732   1
   0   8   6 947.001 175.483   7
   0   8   6 1121.33 239.489   4
   0   8   7-76.2570 66.3575   7
   0  -8  -7-45.2323 65.0790   1
   0   8   8 1767.96 240.460   7
   0  -8  -8 1514.30 266.886   1
   0  -8  -9-39.2391 95.4293   1
   0  -8 -10 999.327 223.521   1
   0  -8 -11 779.804 198.012   1
   0  -8 -12 107.712 127.772   1
   0  -8 -13 612.391 219.918   1
   0  -9  11 1686.99 284.268   8
   0   9 -10 308.203 101.393   2
   0  -9  10 380.753 120.827   8
   0   9 -10 290.450 137.673   6
   0   9  -9 1294.28 208.704   2
   0   9  -9 1661.11 311.397   6
   0  -9   9 1459.31 240.216   8
   0  -9   8 5770.97 445.614   8
   0   9  -8 5302.12 399.811   2
   0   9  -8 5815.77 572.624   6
   0   9  -7 4338.41 484.810   6
   0   9  -7 3925.12 339.116   2
   0  -9   7 4093.78 358.634   8
   0   9  -6 13069.8 808.128   6
   0   9  -6 12567.7 591.041   2
   0  -9   6 12796.6 601.984   8
   0   9  -5 2593.14 265.812   2
   0  -9   5 2814.25 272.148   8
   0   9  -4 364.239 99.7932   2
   0  -9   4 284.366 89.9842   8
   0   9  -3 1154.60 181.169   2
   0  -9   3 1553.85 190.480   8
   0   9  -2 297.802 84.4818   2
   0   9  -1 2932.76 307.292   7
   0   9  -1 2955.43 297.984   2
   0   9   0 6821.42 461.801   7
   0   9   1 105.479 104.560   4
   0   9   1-2.54905 58.1090   7
   0   9   2 670.314 181.446   4
   0   9   2 1095.56 191.561   7
   0   9   3 423.145 145.209   4
   0   9   3 573.366 131.728   7
   0  -9  -3 666.756 134.628   1
   0   9   4 3299.98 424.524   4
   0  -9  -4 2967.80 291.332   1
   0   9   4 2650.25 304.533   7
   0   9   5 174.218 124.139   4
   0  -9  -5 82.6737 65.1409   1
   0   9   5 107.021 78.5224   7
   0   9   6 1276.29 274.389   4
   0   9   6 652.945 159.864   7
   0  -9  -6 893.417 173.855   1
   0   9   7 115.217 118.122   4
   0  -9  -7 179.139 93.7242   1
   0   9   7 179.614 97.9260   7
   0   9   8 423.124 180.196   4
   0  -9  -8 154.009 114.832   1
   0   9   9-11.8439 86.0801   4
   0  -9  -9-54.4037 87.3141   1
   0   9  10 170.055 151.993   4
   0 -10  10 1249.04 260.917   8
   0 -10   9 991.584 209.825   8
   0 -10   8 17.0740 64.4685   8
   0  10  -8 166.304 155.168   6
   0 -10   7 1422.53 230.744   8
   0  10  -7 1431.35 291.810   6
   0  10  -7 1370.36 209.481   2
   0  10  -6 2458.83 270.148   2
   0  10  -6 2572.31 388.984   6
   0 -10   6 2507.45 287.211   8
   0 -10   5 39.4675 52.5931   8
   0  10  -5-63.0285 71.2983   2
   0  10  -4 2218.44 262.311   2
   0 -10   4 2123.52 241.339   8
   0 -10   3-68.6634 74.9538   8
   0  10  -3 95.3855 59.3820   2
   0  10  -2 2600.00 324.266   7
   0  10  -2 2654.66 290.329   2
   0  10  -1 9517.59 560.782   2
   0  10  -1 10206.9 611.242   7
   0  10   0 74.4070 70.2234   2
   0  10   0-21.9187 62.0042   7
   0  10   1-69.9141 89.5451   4
   0  10   1 106.497 92.5849   7
   0  10   2 39.3331 92.4112   4
   0  10   2-23.2250 66.8643   7
   0  10   3 3293.65 356.144   7
   0  10   3 3167.98 429.897   4
   0  10   4 3008.93 348.622   7
   0  10   4 3751.44 475.634   4
   0  10   5 685.449 231.338   4
   0  10   5 631.575 169.203   7
   0  10   6 647.050 223.084   4
   0  10   6 766.165 183.285   7
   0  10   7 127.914 137.296   4
   0  10   7 96.9355 90.9337   7
   0  10   8 43.2972 100.023   4
   0 -11   9 1342.56 257.961   8
   0 -11   8 196.362 123.122   8
   0 -11   7 395.183 132.144   8
   0 -11   6 4208.52 392.165   8
   0  11  -6 4168.52 506.022   6
   0  11  -5 361.456 168.171   6
   0  11  -4 2169.24 321.830   7
   0  11  -3 2844.87 305.452   2
   0  11  -3 3272.99 380.061   7
   0  11  -2 121.995 108.839   7
   0  11  -2-133.854 88.2201   2
   0  11  -1 241.323 126.614   7
   0  11  -1 130.893 74.0162   2
   0  11   0 2563.85 336.322   7
   0  11   0 3150.27 348.921   2
   0  11   1 252.365 120.296   7
   0  11   2 890.438 256.576   4
   0  11   2 678.962 180.156   7
   0  11   3 457.678 144.426   7
   0  11   3 383.546 166.645   4
   0  11   4 333.419 183.397   4
   0  11   4 410.295 119.849   7
   0  11   5 1238.86 300.177   4
   0  11   5 1108.33 255.960   7
   0  11   6 4668.33 586.622   4
   0  11   6 4772.15 481.816   7
   0  12  -2 943.657 220.468   7
   0  12  -1 263.959 160.749   7
   0  12   0 386.718 158.242   7
   0  12   1 1457.23 281.529   7
   0  12   2 233.742 127.782   7
   0  12   3 105.943 94.6211   7
   0  12   4 1462.49 288.690   7
   0  12   5 1427.54 281.161   7
  -1  12   4 149.003 68.9649   7
  -1  12   3 254.484 144.208   7
  -1  12   2 398.320 148.424   7
  -1  12   1 1308.84 253.734   2
  -1  12   1 1268.40 256.222   7
  -1  12   0 2800.72 373.722   2
  -1  12   0 2864.64 371.125   7
  -1  12  -1 330.439 153.884   7
  -1  11   5 193.525 80.1363   7
  -1  11   5 326.970 192.230   4
  -1  11   4 921.233 255.987   4
  -1  11   4 920.755 196.269   7
  -1  11   3 3236.70 459.362   4
  -1  11   3 3180.36 369.242   7
  -1  11   2 35.9791 78.5177   4
  -1  11   2 137.063 109.790   7
  -1  11   1 465.682 216.497   4
  -1  11   1 626.773 172.214   7
  -1  11   0 3258.88 368.409   7
  -1  11   0 3748.60 424.569   2
  -1  11  -1 1971.67 297.325   7
  -1  11  -1 1921.87 287.801   2
  -1  11  -2-74.4901 95.0639   2
  -1  11  -2 63.3442 81.9149   7
  -1  11  -3 40.7395 63.9288   2
  -1  11  -4 289.476 94.9674   2
  -1  11  -5 522.048 145.238   2
   1 -11   7 2109.44 308.346   8
   1 -11   8-43.2746 111.335   8
  -1  10   7 442.116 184.588   4
  -1  10   6 1274.35 232.660   7
  -1  10   6 1683.25 341.649   4
  -1  10   5 276.056 163.806   4
  -1  10   5 88.9220 70.9574   7
  -1  10   4 4486.79 530.761   4
  -1  10   4 4235.61 395.704   7
  -1  10   3-0.33525 81.1397   7
  -1  10   3-56.5364 82.6895   4
  -1  10   2 1557.51 242.910   7
  -1  10   2 1781.72 315.741   4
  -1  10   1 2424.83 294.852   7
  -1  10   1 2200.58 345.719   4
  -1  10   0 642.186 168.906   7
  -1  10   0 439.046 139.651   2
  -1  10  -1 2966.58 347.155   2
  -1  10  -2 201.709 99.7511   2
  -1  10  -3 2101.09 282.086   2
  -1  10  -4 2231.87 287.942   2
  -1  10  -5 177.080 49.9095   2
   1 -10   5 160.496 64.2498   8
  -1  10  -6-5.57514 64.5778   2
   1 -10   6 74.5522 70.3760   8
  -1  10  -6-135.761 113.697   6
  -1  10  -7 233.927 99.7830   2
  -1  10  -7 210.934 126.318   6
   1 -10   7 43.2271 74.8041   8
  -1  10  -8 14.3115 74.9024   6
  -1  10  -8-11.4485 47.1463   2
   1 -10   8-23.2624 95.2910   8
  -1  10  -9 25.3933 55.3845   2
   1 -10   9 240.936 113.570   8
   1 -10  10 191.827 129.639   8
   1  -9 -10-4.34164 129.234   1
   1  -9  -9 539.660 187.076   1
  -1   9   9 683.569 227.097   4
   1  -9  -8 229.126 93.0642   1
  -1   9   8 191.534 143.088   4
  -1   9   7 3169.88 449.170   4
   1  -9  -7 2370.76 330.697   1
  -1   9   6 1449.63 222.040   7
   1  -9  -6 1215.61 224.395   1
  -1   9   6 1395.98 292.614   4
  -1   9   5 269.465 147.091   4
   1  -9  -5 102.166 87.7788   1
  -1   9   5 51.3795 58.3660   7
  -1   9   4 1028.59 180.899   7
  -1   9   4 1136.48 259.968   4
   1  -9  -4 1315.07 213.166   1
  -1   9   3 191.735 87.8657   7
   1  -9  -3 333.271 109.512   1
  -1   9   3 155.053 63.7456   4
   1  -9  -2 18.9905 52.0387   1
  -1   9   2-21.2756 61.1967   4
  -1   9   1 2667.20 290.678   7
  -1   9   1 2305.74 334.995   4
  -1   9   0-9.42875 108.313   4
  -1   9  -1-22.7483 52.2215   2
  -1   9  -2 243.167 94.9031   2
  -1   9  -3 3986.26 366.928   2
  -1   9  -4 375.196 97.7799   2
   1  -9   4 656.623 130.821   8
  -1   9  -5 1453.97 217.766   2
   1  -9   5 1287.12 204.857   8
   1  -9   6 1987.22 258.554   8
  -1   9  -6 2133.24 270.140   2
  -1   9  -7 1522.16 286.183   6
  -1   9  -7 1366.20 226.262   2
   1  -9   7 1401.98 225.818   8
  -1   9  -8 367.063 136.418   6
  -1   9  -8 812.090 179.345   2
   1  -9   8 710.513 178.953   8
   1  -9   9 11163.4 686.524   8
  -1   9  -9 10837.5 628.458   2
  -1   9  -9 11636.1 830.240   6
  -1   9 -10 288.025 103.099   2
  -1   9 -10 316.739 147.673   6
   1  -9  10 188.004 109.232   8
   1  -9  11 696.284 193.186   8
  -1   9 -11 658.865 164.184   2
   1  -8 -12-77.4080 132.466   1
   1  -8 -11 137.247 113.640   1
   1  -8 -10-93.7286 113.428   1
   1  -8  -9 1337.95 270.056   1
   1  -8  -8 152.223 92.9186   1
  -1   8   7 1376.43 197.968   7
   1  -8  -7 915.423 198.265   1
  -1   8   6 143.052 88.1370   4
  -1   8   6 239.666 94.5201   7
  -1   8   5 1805.88 298.381   4
   1  -8  -5 1608.15 243.771   1
  -1   8   5 1711.82 213.083   7
  -1   8   4 2760.29 257.583   3
   1  -8  -4 2873.78 309.420   1
  -1   8   4 3240.17 388.413   4
  -1   8   4 3048.82 286.103   7
   1  -8  -3-14.8930 58.9771   1
  -1   8   3 111.444 101.150   4
  -1   8   3 23.7163 37.8909   3
  -1   8   3 50.0005 47.6546   7
  -1   8   3-48.0856 65.0589   1
  -1   8   2 3946.69 302.222   1
   1  -8  -2 4638.03 370.264   1
  -1   8   2 4233.58 333.260   7
  -1   8   2 4605.30 446.629   4
  -1   8   1 16098.5 813.454   4
  -1   8   1 15430.4 608.934   1
   1  -8  -1 15727.6 656.158   1
  -1   8   0 34551.9 936.184   1
  -1   8   0 34611.7 1173.35   4
  -1   8  -1 9500.43 561.173   2
  -1   8  -1 8907.96 489.983   1
  -1   8  -2-48.5750 78.0631   2
  -1   8  -2-36.6528 46.7210   1
  -1   8  -3 859.790 161.190   2
   1  -8   3 684.057 117.135   8
  -1   8  -3 846.144 167.760   1
   1  -8   4 10507.7 527.450   8
  -1   8  -4 10479.0 598.379   1
  -1   8  -4 10630.4 568.529   2
   1  -8   5 2931.06 292.637   8
  -1   8  -5 3167.75 313.074   2
  -1   8  -6 17045.2 720.367   2
   1  -8   6 16475.7 700.268   8
   1  -8   7 3758.70 348.550   8
  -1   8  -7 3977.53 441.831   6
  -1   8  -7 4040.53 358.914   2
   1  -8   8 697.145 164.733   8
  -1   8  -8 864.123 200.358   6
  -1   8  -8 840.187 166.870   2
  -1   8  -9 407.168 112.703   2
  -1   8  -9 404.663 172.260   6
   1  -8   9 391.875 134.208   8
   1  -8  10 862.443 201.846   8
  -1   8 -10 749.406 228.489   6
  -1   8 -10 755.466 167.207   2
  -1   8 -11 106.504 115.839   2
  -1   8 -11-12.7793 117.549   6
   1  -8  11 108.322 94.9949   8
  -1   8 -12 310.030 128.946   2
  -1   8 -13-61.8842 113.543   2
   1  -7 -13 92.9253 101.718   1
   1  -7 -12 451.194 162.999   1
   1  -7 -11-183.389 144.974   1
   1  -7 -10-29.4353 130.437   1
   1  -7  -9 391.123 163.462   1
   1  -7  -8 1506.69 262.030   1
  -1   7   8 1493.46 177.292   7
  -1   7   7 287.441 87.5928   7
   1  -7  -7 251.098 113.025   1
   1  -7  -6 6810.73 504.082   1
  -1   7   6 6483.70 387.438   7
  -1   7   5 4250.07 170.887   8
   1  -7  -5 4448.76 391.544   1
  -1   7   5 3924.09 298.170   7
  -1   7   4 28747.8 724.638   3
  -1   7   4 27110.7 750.952   1
   1  -7  -4 28745.0 952.605   1
  -1   7   4 30412.3 1100.68   4
  -1   7   4 29098.6 795.308   7
  -1   7   4 29258.5 421.614   8
  -1   7   3 7402.93 376.259   3
  -1   7   3 8017.35 559.909   4
  -1   7   3 7815.25 410.377   7
  -1   7   3 7814.32 406.316   1
   1  -7  -3 8487.65 496.291   1
   1  -7  -2 25365.6 819.558   1
  -1   7   2 26372.1 985.359   4
  -1   7   2 25628.7 735.894   7
  -1   7   2 24631.5 730.295   1
   1  -7  -1 7896.35 444.636   1
  -1   7   1 7727.63 416.362   1
  -1   7   1 7779.46 515.825   4
  -1   7   0 28.2174 60.6356   1
  -1   7   0 55.4880 66.8914   4
  -1   7  -1 67.9866 66.7802   1
  -1   7  -1-24.4825 58.3461   4
  -1   7  -2 13380.1 604.650   1
  -1   7  -2 14001.5 626.251   2
   1  -7   3 5669.28 353.902   8
  -1   7  -3 5584.35 393.598   2
  -1   7  -3 5784.34 410.304   1
   1  -7   4 4112.26 307.492   8
  -1   7  -4 4420.66 352.830   2
  -1   7  -4 4512.14 375.524   1
   1  -7   5 5315.28 366.313   8
  -1   7  -5 5372.58 384.834   2
  -1   7  -5 4957.67 412.594   1
  -1   7  -6-51.5590 62.2102   2
  -1   7  -6 119.614 101.923   6
   1  -7   6 119.785 79.2788   8
  -1   7  -7 4418.01 427.753   6
  -1   7  -7 4094.47 346.470   2
   1  -7   7 4195.65 343.745   8
  -1   7  -8 1709.48 273.272   6
   1  -7   8 1811.63 244.473   8
  -1   7  -8 1907.86 242.547   2
   1  -7   9 0.61543 51.5561   8
  -1   7  -9-37.0681 56.5174   6
  -1   7  -9-4.96166 52.7816   2
  -1   7 -10 3959.12 370.152   2
   1  -7  10 4609.15 416.033   8
  -1   7 -10 3876.72 452.034   6
  -1   7 -11 1422.57 229.351   2
   1  -7  11 1501.08 256.408   8
  -1   7 -11 1228.04 269.499   6
   1  -7  12-149.865 114.977   8
  -1   7 -12 213.502 96.9254   2
  -1   7 -13 557.944 182.915   2
   1  -6 -13 53.9749 139.964   1
   1  -6 -12 3674.22 475.562   1
   1  -6 -11 1470.30 282.608   1
   1  -6 -10 1796.18 303.858   1
   1  -6  -9 645.203 174.332   1
   1  -6  -8-46.3013 77.1198   1
  -1   6   8 42.9912 36.6938   7
  -1   6   7 11084.0 461.261   7
   1  -6  -7 11068.3 641.668   1
   1  -6  -6 881.347 192.569   1
  -1   6   6 836.818 130.185   7
  -1   6   5 312.351 85.0288   1
  -1   6   5 374.345 73.7903   7
   1  -6  -5 425.108 116.254   1
  -1   6   4 11210.8 318.895   8
  -1   6   4 11016.8 398.417   3
  -1   6   4 10654.7 454.477   1
  -1   6   4 10730.4 435.634   7
   1  -6  -4 11610.2 579.012   1
  -1   6   3 2165.18 129.535   8
  -1   6   3 2142.26 271.104   4
   1  -6  -3 2046.54 235.161   1
  -1   6   3 2074.55 203.072   1
  -1   6   3 2026.52 193.547   7
  -1   6   3 1858.85 170.010   3
  -1   6   2 2402.07 219.467   1
   1  -6  -2 2403.22 244.539   1
  -1   6   2 2537.99 278.936   4
   1  -6  -1 2940.57 262.242   1
  -1   6   1 3412.92 322.579   4
  -1   6   1 3180.53 258.403   1
  -1   6   0 16794.4 599.506   1
   1  -6   0 17061.0 608.966   1
  -1   6   0 17074.2 693.671   4
  -1   6  -1 14027.1 633.258   4
  -1   6  -1 14111.8 567.709   1
   1  -6   2 11600.5 455.849   8
  -1   6  -2 12036.0 545.231   2
   1  -6   2 12015.7 545.018   4
  -1   6  -2 11353.2 524.236   1
   1  -6   3 17867.9 683.459   4
   1  -6   3 16715.6 559.255   8
  -1   6  -3 17146.1 666.798   1
  -1   6  -3 17821.4 657.217   2
   1  -6   4 6268.33 353.384   8
  -1   6  -4 6555.51 396.437   2
   1  -6   4 6210.36 409.842   4
  -1   6  -4 5961.25 408.815   1
   1  -6   5 2571.59 241.628   8
  -1   6  -5 2679.83 283.122   1
  -1   6  -5 2590.87 252.488   2
   1  -6   6 10018.4 480.569   8
  -1   6  -6 9710.23 576.141   6
  -1   6  -6 9978.03 497.974   2
  -1   6  -7-51.4532 69.2508   6
   1  -6   7-60.1803 70.5451   8
  -1   6  -7-52.3437 65.7360   2
   1  -6   8 6206.48 413.806   8
  -1   6  -8 5091.54 441.217   6
  -1   6  -8 5460.10 391.901   2
   1  -6   9 7811.00 489.877   8
  -1   6  -9 7496.53 560.677   6
  -1   6  -9 7583.13 478.353   2
  -1   6 -10 678.352 179.798   6
   1  -6  10 1093.58 201.266   8
  -1   6 -10 851.358 171.857   2
  -1   6 -11-18.5237 62.7513   2
   1  -6  11 393.120 160.090   8
   1  -6  12 617.119 178.246   8
  -1   6 -12 386.545 111.273   2
   1  -6  13 178.468 117.577   8
  -1   6 -13-40.4033 68.2908   2
  -1   6 -14 131.605 89.0248   2
   1  -5 -14 437.884 190.091   1
   1  -5 -13 3910.28 498.859   1
   1  -5 -12 897.280 235.001   1
   1  -5 -11 21.6915 113.089   1
   1  -5 -10 5007.95 482.358   1
   1  -5  -9 511.813 160.417   1
   1  -5  -8 99.4028 91.7448   1
  -1   5   8 108.844 41.9198   7
  -1   5   7 7072.40 316.983   7
   1  -5  -7 6594.04 469.711   1
   1  -5  -6 4693.27 379.170   1
  -1   5   6 4545.52 260.640   7
  -1   5   5 477.309 79.0787   7
  -1   5   5 571.402 108.762   1
   1  -5  -5 461.852 118.428   1
  -1   5   4 21190.5 478.245   3
  -1   5   4 22216.7 628.323   1
   1  -5  -4 22907.0 762.914   1
  -1   5   4 21168.0 540.281   7
  -1   5   3 575.494 85.4628   3
  -1   5   3 686.445 102.743   7
   1  -5  -3 557.051 121.666   1
  -1   5   3 522.191 96.4038   1
  -1   5   2 39217.3 839.497   1
  -1   5   2 41534.4 580.026   8
  -1   5   2 39710.4 982.255   4
   1  -5  -2 40695.6 939.279   1
  -1   5   1 2202.42 202.944   1
  -1   5   1 2366.93 234.328   4
  -1   5   1 2132.26 129.495   8
   1  -5  -1 2008.23 200.373   1
  -1   5   0 31860.6 853.060   4
  -1   5   0 30706.7 763.725   1
   1  -5   0 33319.1 792.934   1
  -1   5  -1 141457. 1676.15   1
  -1   5  -1 140869. 1809.73   4
  -1   5  -2 10989.9 481.399   1
   1  -5   2 10205.4 397.361   8
   1  -5   2 11180.4 479.291   4
   1  -5   3 730.112 127.000   4
   1  -5   3 738.620 113.744   8
  -1   5  -3 686.665 127.079   1
   1  -5   4 13798.9 485.664   8
   1  -5   4 13881.6 568.862   4
  -1   5  -4 13528.3 575.408   1
   1  -5   5 3965.50 315.327   4
  -1   5  -5 4205.81 305.258   2
   1  -5   5 4251.96 283.124   8
   1  -5   6 19599.1 632.710   8
  -1   5  -6 18602.9 649.373   2
  -1   5  -6 19657.0 753.261   6
  -1   5  -7 342.087 115.857   6
  -1   5  -7 371.567 94.1646   2
  -1   5  -8 321.715 95.9965   2
  -1   5  -8 288.961 97.4180   6
  -1   5  -9 10308.8 541.073   2
  -1   5  -9 9581.43 610.489   6
  -1   5 -10 11984.9 608.343   2
  -1   5 -10 10851.5 674.846   6
  -1   5 -11 803.865 170.613   2
  -1   5 -12 352.748 115.303   2
   1  -5  13 2632.21 419.684   5
  -1   5 -13 2783.81 340.036   2
  -1   5 -14 181.202 125.874   2
   1  -5  14 384.166 170.373   5
   1  -5  14 500.189 175.513   8
   1  -4 -14 443.842 172.401   1
   1  -4 -13 220.352 166.436   1
   1  -4 -12-118.064 109.424   1
   1  -4 -11 3459.85 407.718   1
   1  -4 -10 2437.45 329.234   1
   1  -4  -9 92.3901 96.1181   1
   1  -4  -8 15537.3 725.212   1
   1  -4  -7 18144.8 746.397   1
  -1   4   7 18405.6 433.744   7
  -1   4   6 1178.26 117.060   7
   1  -4  -6 1195.19 187.806   1
   1  -4  -6 951.718 158.423   5
  -1   4   5 773.777 119.018   1
   1  -4  -5 633.118 128.599   1
  -1   4   5 761.723 94.9600   7
  -1   4   5 569.410 114.761   2
  -1   4   4 45422.1 854.106   1
   1  -4  -4 47656.4 1036.68   1
  -1   4   4 47550.9 701.328   7
  -1   4   3 28139.9 530.517   7
  -1   4   3 28208.8 671.269   1
   1  -4  -3 28242.6 758.367   1
  -1   4   3 28362.9 471.264   3
  -1   4   2 48192.9 873.047   1
   1  -4  -2 49032.2 961.519   1
   1  -4  -1 3683.44 252.487   1
  -1   4   1 3504.09 258.986   4
  -1   4   1 3753.86 173.039   8
  -1   4   1 3924.45 251.413   1
  -1   4   0 2160.90 199.382   4
  -1   4   0 2124.45 128.065   8
   1  -4   0 2090.60 184.927   1
  -1   4   0 1947.80 178.125   1
  -1   4  -1 564.737 99.3221   1
   1  -4   1 609.641 107.668   4
  -1   4  -1 619.958 111.298   4
   1  -4   1 522.797 81.4820   8
   1  -4   2 34428.9 661.841   8
  -1   4  -2 36014.1 786.988   2
   1  -4   2 35589.5 783.048   4
  -1   4  -2 35311.4 802.658   1
  -1   4  -3 35327.6 836.982   1
   1  -4   3 35280.2 793.577   4
   1  -4   3 36052.9 697.140   8
  -1   4  -3 37542.8 807.844   2
   1  -4   4 882.878 130.942   4
   1  -4   4 836.525 114.737   8
  -1   4  -5 56017.5 1121.97   6
   1  -4   5 59910.9 1142.10   2
  -1   4  -6 2721.43 265.449   6
  -1   4  -6 2640.99 236.085   2
   1  -4   6 2634.93 251.228   2
  -1   4  -7 24461.2 735.523   2
  -1   4  -7 23112.8 794.707   6
  -1   4  -8 7413.22 420.256   2
  -1   4  -8 7282.32 481.382   6
  -1   4  -9 141.556 71.0406   6
  -1   4  -9 151.555 71.3451   2
  -1   4 -10 6769.74 442.148   2
  -1   4 -11 1162.31 197.050   2
  -1   4 -12 151.508 77.0666   2
   1  -4  12 139.674 138.103   5
  -1   4 -13 2289.93 304.283   2
   1  -4  13 2440.38 396.986   5
   1  -4  14 525.676 220.077   5
  -1   4 -14 410.825 153.425   2
  -1   4 -15 142.591 70.8138   2
   1  -3 -14 7.02141 111.047   1
   1  -3 -13 35.5438 64.8166   1
   1  -3 -12 2631.19 358.668   1
   1  -3 -11 8318.77 608.771   1
   1  -3 -10 1738.89 260.881   1
   1  -3  -9 8363.77 541.714   1
   1  -3  -8-102.650 93.6643   1
   1  -3  -7 12239.1 578.248   5
   1  -3  -7 11813.9 571.410   1
   1  -3  -6 6099.47 384.133   5
   1  -3  -6 6265.24 391.683   1
  -1   3   6 6666.13 374.618   2
  -1   3   6 6476.94 214.114   7
  -1   3   5 903.357 85.0506   7
   1  -3  -5 639.744 114.100   5
  -1   3   5 825.980 131.779   2
   1  -3  -5 935.762 148.594   1
  -1   3   4 705.648 104.123   1
  -1   3   4 725.794 72.0373   7
   1  -3  -4 730.570 118.869   1
   1  -3  -3 39872.1 841.282   1
  -1   3   3 38785.0 736.363   1
  -1   3   3 38110.4 434.056   3
  -1   3   3 38835.6 517.210   7
   1  -3  -2 37881.7 772.785   1
  -1   3   2 37438.4 716.002   1
   1  -3  -1 3343.17 219.795   1
  -1   3   1 3286.45 210.110   1
  -1   3   0 2508.14 185.652   4
   1  -3   0 2414.26 185.569   1
  -1   3   0 2458.25 183.271   1
  -1   3   0 2423.85 133.313   8
  -1   3  -1 206.693 57.6306   4
   1  -3   1 224.151 47.7452   8
  -1   3  -1 183.743 49.4894   1
   1  -3   1 202.081 53.6955   4
   1  -3   2 144291. 1346.70   4
   1  -3   2 146128. 1248.11   8
  -1   3  -2 145259. 1498.34   1
   1  -3   3 62236.2 971.386   2
   1  -3   3 59197.5 827.118   8
   1  -3   3 58390.4 908.631   4
  -1   3  -4 13716.4 462.223   2
   1  -3   4 14069.7 489.992   2
  -1   3  -5 7773.06 388.705   6
   1  -3   5 8625.09 401.475   2
  -1   3  -6 3252.29 265.632   6
   1  -3   6 3021.50 254.546   2
  -1   3  -7 1245.90 179.241   6
   1  -3   7 1478.19 189.939   2
  -1   3  -7 1580.03 184.141   2
  -1   3  -8 10798.7 555.234   6
  -1   3  -8 10421.8 483.848   2
  -1   3  -9 1.11239 47.7119   2
  -1   3 -10 1391.61 196.682   2
   1  -3  11 1048.77 230.302   5
  -1   3 -11 1164.80 194.275   2
   1  -3  12 4537.26 497.322   5
  -1   3 -12 3635.24 357.432   2
   1  -3  13 1698.03 322.832   5
  -1   3 -13 1677.27 256.636   2
  -1   3 -14 924.897 206.940   2
   1  -3  14 772.211 226.232   5
   1  -3  15 3781.86 532.591   5
  -1   3 -15 3823.31 436.244   2
   1  -2 -14 1936.93 339.322   1
   1  -2 -13 1325.05 262.498   1
   1  -2 -12 235.085 95.9375   1
   1  -2 -11 5267.31 469.722   1
   1  -2 -10 1177.49 219.265   1
   1  -2  -9 111.061 86.8427   1
   1  -2  -8 458.509 131.315   1
   1  -2  -7 17184.8 659.360   1
   1  -2  -7 18035.8 676.972   5
   1  -2  -6 5883.78 360.250   1
   1  -2  -6 5949.20 366.629   5
  -1   2   6 5811.39 328.275   2
  -1   2   5 21966.5 602.439   2
   1  -2  -5 21557.8 641.094   5
   1  -2  -5 22220.6 648.763   1
  -1   2   4 51826.3 812.327   1
   1  -2  -4 52542.0 926.739   1
  -1   2   4 51563.4 874.395   2
   1  -2  -4 52974.5 908.659   5
  -1   2   4 51120.4 473.920   7
  -1   2   3 13694.9 403.006   1
  -1   2   3 13687.5 232.049   7
   1  -2  -3 13052.0 438.522   1
   1  -2  -2 117458. 1246.32   1
  -1   2   2 116850. 1159.95   1
  -1   2   1 11679.8 363.271   1
   1  -2  -1 12231.6 383.666   1
  -1   2   0 5499.55 216.092   4
   1  -2   0 5686.64 251.649   1
  -1   2   0 6211.57 261.697   1
   1  -2   1 81.8843 30.4346   8
   1  -2   1 113.225 42.8612   4
  -1   2  -1-4.56332 33.6669   1
  -1   2  -1-6.20031 27.0983   4
   1  -2   2 411320. 2139.32   2
   1  -2   2 395786. 1858.00   4
   1  -2   3 2088.44 143.302   8
   1  -2   3 2080.31 163.355   2
  -1   2  -4 67576.3 956.623   6
   1  -2   4 68402.4 997.432   2
  -1   2  -5 23949.3 628.364   6
   1  -2   5 25151.7 644.401   2
   1  -2   6 3685.47 262.500   2
  -1   2  -6 4001.66 279.066   6
  -1   2  -7 96.2634 50.0693   2
   1  -2   7 35.6804 40.7695   2
  -1   2  -8 2287.39 222.418   2
   1  -2   9 19650.5 836.507   5
  -1   2  -9 20028.4 694.067   2
   1  -2  10 24372.3 999.247   5
  -1   2 -10 23273.0 799.879   2
   1  -2  11 3062.25 375.852   5
  -1   2 -11 3025.62 303.857   2
  -1   2 -12 4743.77 403.001   2
   1  -2  12 4849.50 500.696   5
   1  -2  13 2061.01 345.812   5
  -1   2 -13 1748.22 260.195   2
   1  -2  14 337.168 123.482   5
  -1   2 -14 471.544 155.704   2
  -1   2 -15 3856.70 430.161   2
   1  -2  15 4368.03 571.266   5
   1  -1 -15 582.843 192.741   1
   1  -1 -14 44.5403 101.787   1
   1  -1 -13 48.8622 90.5397   1
   1  -1 -12 5705.01 498.569   1
   1  -1 -11 196.311 100.198   1
   1  -1 -10 4423.56 167.197   7
   1  -1 -10 4514.00 397.661   1
   1  -1  -9 26270.4 406.383   7
   1  -1  -9 25682.5 874.982   1
   1  -1  -8 9466.33 230.650   7
   1  -1  -8 9950.16 506.480   1
  -1   1   8 9234.47 516.186   5
  -1   1   7-11.0488 49.1624   5
  -1   1   7 101.875 47.9129   2
   1  -1  -7 49.9600 17.8618   7
  -1   1   6 5570.43 343.388   5
  -1   1   6 5452.45 298.327   2
   1  -1  -5 27128.2 676.070   5
  -1   1   5 27309.3 688.781   5
  -1   1   5 26748.2 613.796   2
  -1   1   4 23701.4 542.055   2
   1  -1  -4 25299.2 587.959   5
   1  -1  -3 15063.6 394.759   5
  -1   1   3 13895.8 385.236   2
  -1   1   3 14118.6 376.018   1
  -1   1   2 12303.9 335.086   1
  -1   1   1 24355.4 463.220   1
  -1   1   0 7164.03 247.503   1
  -1   1  -1 55573.6 712.764   1
  -1   1  -1 54298.3 466.992   4
   1  -1   1 55633.9 468.693   4
   1  -1   1 55802.2 596.329   8
   1  -1   2 15724.4 330.257   8
   1  -1   2 15550.6 365.648   2
   1  -1   3 14854.2 393.291   2
  -1   1  -3 14776.6 356.086   6
  -1   1  -4 54270.4 786.288   6
   1  -1   4 56820.6 833.143   2
   1  -1   5 21521.4 530.510   6
   1  -1   5 21445.7 564.873   2
   1  -1   6 42731.0 861.701   2
   1  -1   6 42551.4 830.219   6
   1  -1   7 27167.0 724.732   6
   1  -1   7 28074.1 758.998   2
   1  -1   8 17497.6 626.583   6
   1  -1   8 17327.5 733.356   5
  -1   1  -8 16902.9 591.469   2
   1  -1   9 9090.85 481.666   6
   1  -1   9 9444.92 572.163   5
  -1   1  -9 9269.29 468.462   2
   1  -1  10 1457.05 250.788   5
  -1   1 -10 1804.06 226.810   2
   1  -1  11 1259.80 239.339   5
  -1   1 -11 1088.77 184.050   2
   1  -1  12-51.6771 103.941   5
  -1   1 -12 193.155 88.5385   2
  -1   1 -13 394.534 135.319   2
   1  -1  13 700.301 205.739   5
   1  -1  14 1306.09 300.618   5
  -1   1 -14 1252.57 239.883   2
  -1   1 -15 264.557 145.984   2
   1  -1  15 245.332 140.089   5
   1   0 -15 12.0405 98.0756   1
   1   0 -14 140.605 122.254   1
   1   0 -13 4009.31 429.853   1
  -1   0  13 4540.28 499.884   5
  -1   0  12 18915.2 947.023   5
   1   0 -12 19089.4 879.880   1
   1   0 -12 18306.1 851.099   2
  -1   0  11 3328.03 375.759   5
   1   0 -11 3228.15 340.595   1
   1   0 -11 3344.89 340.268   2
   1   0 -10 2117.21 164.948   7
  -1   0  10 2415.32 309.407   5
   1   0 -10 2214.41 271.625   1
   1   0 -10 2342.24 275.408   2
   1   0  -9 4293.53 347.398   1
  -1   0   9 4542.65 393.046   5
   1   0  -9 3973.42 335.239   2
   1   0  -8 8383.74 446.344   2
  -1   0   8 7631.11 473.988   5
   1   0  -8 8362.40 447.452   1
  -1   0   7 12224.6 464.043   2
  -1   0   7 13421.3 574.870   5
  -1   0   6 831.073 133.847   5
  -1   0   6 877.029 119.476   2
  -1   0   5 58058.2 979.688   5
  -1   0   5 58122.5 857.851   2
  -1   0   4 11504.4 343.902   2
  -1   0   4 11737.5 390.093   5
  -1   0   3 234532. 1395.07   2
  -1   0   3 231187. 1483.86   5
  -1   0   2 116809. 901.886   1
  -1   0   2 118671. 823.391   5
  -1   0   2 116373. 866.783   2
  -1   0   1 40853.8 507.375   1
  -1   0  -1 37011.9 398.818   5
   1   0   2 171163. 971.467   8
   1   0   2 164463. 1025.73   2
  -1   0  -2 163538. 778.676   6
   1   0   3 197083. 1303.69   2
   1   0   3 189408. 1093.61   6
   1   0   4 21518.3 484.540   2
   1   0   4 21851.3 452.374   6
   1   0   5 62233.7 884.098   6
   1   0   5 62872.3 927.278   2
   1   0   6 67416.5 1053.74   2
   1   0   6 66752.6 1024.98   6
   1   0   7 29494.1 756.442   2
   1   0   7 28701.1 734.618   6
   1   0   8 1908.36 207.138   6
   1   0   8 1895.53 245.897   5
   1   0   9 1920.62 219.515   6
   1   0   9 1880.23 259.372   5
  -1   0  -9 1870.51 211.680   2
   1   0  10 1891.21 275.514   5
  -1   0 -10 1910.30 230.026   2
  -1   0 -11 7022.02 469.303   2
   1   0  11 7301.57 568.956   5
  -1   0 -11 7470.78 453.819   7
   1   0  12 2879.34 377.514   5
  -1   0 -12 2143.41 278.164   2
  -1   0 -13 2943.83 344.030   2
   1   0  13 2988.98 412.958   5
   1   0  14 289.010 97.9397   5
  -1   0 -14 406.791 137.861   2
  -1   0 -15 554.917 182.443   1
  -1   0 -15 500.948 185.902   2
  -1  -1  15 503.776 217.665   5
   1   1 -15 448.213 165.967   1
  -1  -1  14 66.4223 81.5908   5
   1   1 -14 74.1491 108.111   2
   1   1 -14 209.578 136.717   1
   1   1 -13 5568.26 497.896   1
   1   1 -13 5356.38 477.184   2
  -1  -1  13 6315.11 593.753   5
   1   1 -12 341.577 132.105   2
  -1  -1  12 457.162 176.874   5
   1   1 -12 560.388 173.400   1
  -1  -1  11 14514.0 796.072   5
   1   1 -11 13761.8 689.974   1
   1   1 -11 14219.0 692.481   2
   1   1 -10 16122.5 690.714   2
   1   1 -10 15619.0 692.244   1
  -1  -1  10 15801.1 777.707   5
  -1  -1   9 4127.34 370.185   5
   1   1  -9 4273.74 337.694   1
   1   1  -9 4420.20 343.845   2
  -1  -1   8 15464.0 675.581   5
   1   1  -8 15194.9 584.688   2
   1   1  -7 117720. 1487.84   2
  -1  -1   7 117716. 1436.42   2
  -1  -1   7 115789. 1705.69   6
  -1  -1   7 117025. 1692.18   5
  -1  -1   6 26646.1 768.664   6
  -1  -1   6 26210.2 625.838   2
  -1  -1   5 19407.1 606.750   6
   1   1  -5 19932.2 510.270   2
  -1  -1   5 19736.0 487.248   2
  -1  -1   4 23942.4 476.949   2
  -1  -1   4 23845.8 613.001   6
  -1  -1   3 138336. 990.578   2
  -1  -1   3 134814. 1306.92   6
  -1  -1   2 4230.89 141.344   2
   1   1  -2 4530.69 140.975   7
  -1  -1   2 4034.32 196.536   6
  -1  -1   1 387.861 29.9037   2
  -1  -1   1 331.442 45.9021   6
  -1  -1   1 347.152 37.7583   1
   1   1  -1 372.451 49.5680   3
  -1  -1   0 2418.40 91.8508   6
   1   1   1 166922. 1079.28   7
   1   1   2 96325.6 895.040   7
   1   1   2 95046.7 721.995   2
   1   1   2 96016.8 638.202   8
   1   1   3 37441.2 546.717   2
  -1  -1  -3 36372.9 681.099   5
  -1  -1  -4 46514.3 865.376   5
   1   1   4 46652.6 705.121   2
  -1  -1  -4 45352.0 721.187   7
   1   1   5 7102.94 305.069   2
  -1  -1  -5 6712.74 296.851   7
  -1  -1  -5 7136.28 374.743   5
  -1  -1  -6 5977.08 304.320   7
  -1  -1  -6 6234.51 380.250   5
   1   1   6 6011.24 309.613   2
  -1  -1  -7 2877.77 222.354   7
   1   1   7 2836.04 233.358   2
  -1  -1  -8 136.183 65.5505   2
  -1  -1  -8 183.573 64.3919   7
   1   1   8 270.384 114.341   5
  -1  -1  -9 6842.13 379.781   7
   1   1   9 6565.69 484.401   5
  -1  -1  -9 6553.31 407.400   2
   1   1  10 12189.8 694.423   5
  -1  -1 -10 12711.1 605.836   2
  -1  -1 -11 901.075 163.760   2
  -1  -1 -12 53.4051 58.8004   2
  -1  -1 -13 2516.28 327.117   2
  -1  -1 -14 93.9454 110.874   2
  -1  -1 -14 132.435 102.431   1
  -1  -1 -15 343.207 148.450   1
  -1  -1 -15 199.901 117.654   2
  -1  -2  15 2149.30 377.038   5
   1   2 -15 2077.26 333.289   2
   1   2 -15 1828.95 320.916   1
   1   2 -14 575.415 186.824   1
   1   2 -14 384.107 132.118   2
  -1  -2  14 437.339 177.609   5
  -1  -2  13 477.391 181.872   5
   1   2 -13 680.231 180.291   1
   1   2 -13 442.169 140.675   2
   1   2 -12 95.2389 94.0819   1
   1   2 -12 180.215 104.581   2
  -1  -2  12 9.69597 79.0308   5
  -1  -2  11 4090.35 434.413   5
   1   2 -11 3683.02 360.199   1
   1   2 -11 3567.80 338.724   2
  -1  -2  10 83296.9 1824.01   5
   1   2 -10 78176.3 1475.30   2
  -1  -2   9 1287.04 221.393   5
   1   2  -9 1244.68 178.943   2
  -1  -2   8 5909.41 351.851   2
   1   2  -8 5710.64 347.087   2
  -1  -2   7 13686.9 589.880   6
  -1  -2   7 13244.2 490.819   2
  -1  -2   6 1159.83 161.751   6
  -1  -2   6 960.480 116.641   2
  -1  -2   5 5180.70 318.151   6
  -1  -2   5 5098.60 251.743   2
   1   2  -5 5165.63 248.055   2
   1   2  -4 20878.3 443.704   2
  -1  -2   4 21364.6 454.982   2
  -1  -2   4 22295.6 598.271   6
  -1  -2   3 564.126 64.9441   2
  -1  -2   3 552.939 90.6106   6
   1   2  -3 504.586 59.4826   2
  -1  -2   2 7213.08 275.697   6
  -1  -2   2 7268.84 181.668   2
   1   2  -2 7351.03 176.042   2
   1   2  -1 172928. 1094.28   7
   1   2   0 27505.9 452.589   7
   1   2   0 26693.9 462.601   3
  -1  -2   0 27327.9 496.924   4
  -1  -2  -1 4531.19 203.023   4
   1   2   1 4570.43 129.304   2
   1   2   1 4461.93 200.088   3
   1   2   1 4968.05 207.733   7
   1   2   2 179640. 1036.30   2
  -1  -2  -2 179135. 1074.75   2
   1   2   3 57197.9 798.730   7
  -1  -2  -3 57331.4 759.551   7
   1   2   3 57538.4 484.451   8
  -1  -2  -3 55765.9 718.229   2
   1   2   3 57171.8 693.558   2
   1   2   4 3625.02 196.988   2
  -1  -2  -4 3705.02 207.612   7
   1   2   4 3715.03 219.730   7
  -1  -2  -4 3782.02 258.231   5
  -1  -2  -4 3551.30 205.611   2
   1   2   5 36307.9 695.257   2
  -1  -2  -5 35949.6 871.937   5
  -1  -2  -5 36123.6 722.537   2
  -1  -2  -5 37538.2 707.645   7
   1   2   6 8975.12 377.629   2
  -1  -2  -6 8924.71 473.260   5
  -1  -2  -6 9807.44 380.060   7
  -1  -2  -7 996.830 124.129   7
  -1  -2  -7 1005.16 149.493   2
   1   2   7 961.071 136.943   2
  -1  -2  -7 988.740 172.929   5
  -1  -2  -8 3418.87 291.978   2
  -1  -2  -8 3549.57 250.703   7
  -1  -2  -9 18071.3 706.547   2
  -1  -2  -9 18410.2 598.278   7
  -1  -2 -10-0.75190 53.9890   7
  -1  -2 -10-47.5419 78.6593   2
  -1  -2 -11 377.035 127.991   2
  -1  -2 -12 1170.62 204.445   1
  -1  -2 -12 1066.98 208.104   2
  -1  -2 -13 105.386 64.1564   2
  -1  -2 -13 211.660 114.609   1
  -1  -2 -14 1164.91 249.738   2
  -1  -2 -14 1382.49 258.387   1
  -1  -2 -15 363.500 137.037   1
   1   3 -15 158.783 134.445   1
  -1  -3  15 212.215 94.4484   5
   1   3 -15 136.989 113.935   2
   1   3 -14 1167.88 241.281   2
  -1  -3  14 810.076 248.432   5
   1   3 -14 1110.49 245.131   1
   1   3 -13 7575.91 571.166   1
   1   3 -13 7170.41 538.868   2
  -1  -3  13 7889.16 687.772   5
   1   3 -12 181.627 104.759   1
  -1  -3  12 188.683 85.2275   5
   1   3 -12 193.459 84.6090   2
  -1  -3  11 4578.88 451.464   5
   1   3 -11 4149.41 359.159   2
   1   3 -10 9893.03 520.403   2
   1   3  -9 19481.5 676.880   2
  -1  -3   8 26846.2 773.772   2
   1   3  -8 28025.4 753.753   2
  -1  -3   7 85708.0 1277.84   2
  -1  -3   6 15029.0 492.637   2
  -1  -3   6 14991.1 597.492   6
  -1  -3   5 70695.0 1200.89   6
  -1  -3   5 70923.0 968.957   2
   1   3  -5 71799.0 918.334   2
   1   3  -4 16.5664 22.0249   2
  -1  -3   4 26.0409 20.1960   2
   1   3  -3 119505. 928.023   2
  -1  -3   3 120591. 1010.26   2
   1   3  -2 98434.9 741.869   2
  -1  -3   2 96045.5 798.428   2
   1   3  -1 7979.23 283.366   7
  -1  -3   1 6861.84 312.111   4
   1   3  -1 6978.89 181.562   2
   1   3   0 34985.6 594.090   7
   1   3   0 34601.2 598.444   3
  -1  -3   0 35516.7 689.650   4
   1   3   1 52486.7 746.252   7
   1   3   1 52815.6 760.938   3
  -1  -3  -1 52290.1 829.157   4
  -1  -3  -1 51832.0 416.582   1
  -1  -3  -2 31063.5 559.908   3
   1   3   2 31995.9 616.548   3
   1   3   2 32779.4 618.815   7
   1   3   2 31199.0 488.090   2
  -1  -3  -2 31192.1 403.724   1
   1   3   3 127919. 1293.28   7
  -1  -3  -3 127721. 979.443   1
   1   3   3 123726. 1087.46   2
  -1  -3  -3 127524. 1185.66   3
  -1  -3  -3 129899. 1174.99   7
  -1  -3  -4 1042.92 108.693   7
   1   3   4 1065.81 125.059   7
   1   3   4 1070.19 115.021   2
  -1  -3  -4 876.672 101.154   3
   1   3   5 5795.67 287.833   2
  -1  -3  -5 5972.33 312.693   2
   1   3   5 5674.16 303.540   7
  -1  -3  -5 5697.21 273.367   7
   1   3   6 144798. 1555.06   2
  -1  -3  -6 147295. 1448.26   7
   1   3   6 142092. 1557.98   7
  -1  -3  -6 146611. 1971.34   5
  -1  -3  -6 148538. 1709.01   2
  -1  -3  -7 1874.97 171.886   7
  -1  -3  -7 1630.34 206.043   2
   1   3   7 1791.40 187.128   2
  -1  -3  -8 69.5155 38.7857   7
  -1  -3  -8 114.677 77.3069   2
  -1  -3  -9-16.4527 50.6246   1
  -1  -3  -9 70.2741 78.9508   2
  -1  -3  -9 47.5453 42.8041   7
  -1  -3 -10 2521.72 276.986   1
  -1  -3 -10 2480.80 214.856   7
  -1  -3 -10 2929.91 324.979   2
  -1  -3 -11 780.184 167.823   1
  -1  -3 -11 633.401 166.381   2
  -1  -3 -12 3282.68 355.059   1
  -1  -3 -13 2109.30 301.781   1
  -1  -3 -14-73.3863 75.7590   1
  -1  -3 -15 586.018 185.775   1
   1   4 -15 1458.78 267.242   2
  -1  -4  14 4517.29 563.440   5
   1   4 -14 3850.46 433.362   1
   1   4 -14 4547.02 453.126   2
   1   4 -13 1844.55 276.620   2
  -1  -4  13 2169.70 375.328   5
   1   4 -13 2016.49 303.824   1
   1   4 -12 456.902 128.957   2
  -1  -4  12 559.724 178.572   5
   1   4 -11 593.290 136.129   2
   1   4 -10 1594.91 208.246   2
   1   4  -9 634.358 125.451   2
   1   4  -8 56660.1 1085.32   2
  -1  -4   7 30131.2 783.139   2
   1   4  -7 30026.7 721.258   2
   1   4  -6 540.038 125.122   6
  -1  -4   6 697.662 112.592   2
   1   4  -5 8510.08 327.869   2
  -1  -4   5 8288.19 355.059   2
  -1  -4   4 18668.4 490.119   2
   1   4  -4 18128.4 440.014   2
   1   4  -3 2043.16 135.651   2
  -1  -4   3 2145.15 152.673   2
  -1  -4   2 62779.9 1098.38   4
   1   4  -2 61274.4 692.546   2
   1   4  -1 20005.5 389.736   2
   1   4  -1 19427.5 336.706   1
  -1  -4   1 19506.4 592.093   4
   1   4   0 13990.4 424.069   7
  -1  -4   0 14268.9 502.133   4
   1   4   1 68761.9 962.242   3
  -1  -4  -1 65265.6 576.240   1
   1   4   1 67493.5 942.522   7
   1   4   2 27878.7 634.090   3
   1   4   2 26789.7 513.593   2
  -1  -4  -2 27756.3 456.558   1
   1   4   2 27192.5 616.664   7
  -1  -4  -3 71728.5 818.805   1
   1   4   3 73363.8 922.824   2
  -1  -4  -3 75853.4 944.464   7
   1   4   3 74102.6 1068.08   7
   1   4   4 158676. 1628.09   7
  -1  -4  -4 157322. 1402.59   3
  -1  -4  -4 154747. 1364.75   1
   1   4   4 158666. 1458.69   2
  -1  -4  -4 163874. 1422.30   7
  -1  -4  -5 18599.5 501.197   3
  -1  -4  -5 17692.0 484.093   7
   1   4   5 17934.5 295.582   8
  -1  -4  -5 17998.6 508.326   1
   1   4   5 17451.0 520.675   2
   1   4   5 17366.6 570.812   7
  -1  -4  -6 10429.0 383.596   7
  -1  -4  -6 10885.4 434.021   1
   1   4   6 10630.6 460.210   7
  -1  -4  -6 11205.5 409.295   3
   1   4   6 10800.0 440.907   2
  -1  -4  -7-30.4386 32.5923   7
   1   4   7-70.8602 54.6077   7
  -1  -4  -7 18.4910 47.3113   3
  -1  -4  -7 30.7985 54.5774   1
  -1  -4  -8 7735.06 368.493   3
  -1  -4  -8 7463.82 425.803   1
  -1  -4  -8 7726.95 349.421   7
  -1  -4  -9 42.4251 57.0408   3
  -1  -4  -9 170.251 91.9789   1
  -1  -4  -9 57.4652 40.0412   7
  -1  -4 -10 51.7367 29.0598   7
  -1  -4 -10 149.051 84.8237   1
  -1  -4 -11 1812.25 257.226   1
  -1  -4 -12 425.744 142.609   1
  -1  -4 -13 136.132 82.2025   1
  -1  -4 -14 264.057 124.980   1
  -1  -4 -15 93.3977 98.6354   1
   1   5 -15 410.741 167.826   2
  -1  -5  14 2318.83 406.500   5
   1   5 -14 2088.15 324.063   1
   1   5 -14 2521.56 338.193   2
   1   5 -13-46.9675 63.6837   1
   1   5 -13 76.1494 77.4971   2
   1   5 -12 21.0635 53.2757   2
   1   5 -11 1227.28 199.045   2
   1   5 -10 347.779 93.0896   2
   1   5  -9 11047.6 519.617   2
   1   5  -8 81.8748 91.7603   6
   1   5  -8-21.4031 37.9380   2
   1   5  -7 50713.7 1317.54   6
  -1  -5   7 51067.8 1074.78   2
   1   5  -7 52514.5 974.541   2
  -1  -5   6 44499.6 934.550   2
   1   5  -6 44908.3 1170.27   6
  -1  -5   5 12145.2 459.268   2
   1   5  -5 12082.6 574.916   6
   1   5  -5 12139.8 410.879   2
   1   5  -4 4233.26 228.089   2
  -1  -5   4 4157.01 250.592   2
  -1  -5   3 24378.8 785.210   4
   1   5  -3 23899.6 515.708   2
   1   5  -2 892.306 97.2781   2
  -1  -5   2 963.990 153.600   4
  -1  -5   1 78002.1 1310.82   4
   1   5  -1 73048.8 743.134   1
   1   5  -1 73139.1 899.300   2
   1   5   0 39820.3 441.843   1
   1   5   0 41678.3 821.732   7
  -1  -5   0 42422.7 954.986   4
   1   5   1 8674.00 190.822   1
  -1  -5  -1 8843.75 242.915   1
   1   5   1 9103.78 389.897   3
   1   5   1 8676.56 381.914   7
  -1  -5  -1 8887.07 177.525   8
   1   5   2 27662.3 692.470   7
   1   5   2 28493.1 702.947   3
  -1  -5  -2 28697.8 522.044   1
   1   5   3 129.183 55.6734   7
   1   5   3 141.747 43.1813   2
   1   5   3 128.185 47.2254   3
  -1  -5  -3 200.303 55.8454   1
   1   5   4 53422.9 908.780   2
   1   5   4 52885.2 1020.06   7
  -1  -5  -4 54436.0 883.282   1
   1   5   5 33656.4 764.976   2
  -1  -5  -5 33694.0 750.783   1
   1   5   5 34423.8 853.554   7
   1   5   6 778.782 124.545   2
  -1  -5  -6 940.188 143.074   1
   1   5   6 915.391 147.791   7
   1   5   6 886.775 69.0030   8
  -1  -5  -6 1114.31 137.255   3
  -1  -5  -7 139.633 67.0987   3
   1   5   7 212.787 47.3431   8
   1   5   7 153.175 84.5766   7
  -1  -5  -7 135.110 80.4702   1
   1   5   8 1533.08 194.023   7
  -1  -5  -8 1403.39 200.507   1
  -1  -5  -8 1597.01 162.260   3
  -1  -5  -9 6132.52 435.534   1
  -1  -5  -9 6176.30 321.913   3
  -1  -5 -10 2284.31 286.200   1
  -1  -5 -10 2403.88 202.164   3
  -1  -5 -11 294.743 118.190   1
   1   5  12 881.654 136.527   8
  -1  -5 -12 461.633 135.477   1
  -1  -5 -13 1721.92 299.779   1
  -1  -5 -14 1573.52 297.477   1
   1   6 -14 520.850 161.759   2
   1   6 -14 450.477 148.798   1
   1   6 -13 1365.01 239.370   2
   1   6 -12 138.940 79.0628   2
   1   6 -11 2419.61 276.308   2
   1   6 -10 403.818 113.246   2
   1   6  -9 477.861 109.960   2
   1   6  -8 7281.75 399.562   2
   1   6  -8 6708.51 535.019   6
   1   6  -7 1308.25 164.305   2
  -1  -6   7 1209.44 172.068   2
   1   6  -7 1516.59 241.825   6
   1   6  -6 5116.15 425.534   6
  -1  -6   6 5296.09 344.828   2
   1   6  -5 47627.8 1243.14   6
   1   6  -4 4691.37 262.131   2
   1   6  -4 4767.30 376.413   6
   1   6  -3 17431.2 493.908   2
   1   6  -2 12047.7 402.055   2
  -1  -6   2 11056.5 555.486   4
   1   6  -2 11261.6 366.844   1
   1   6  -1 13187.7 342.729   1
  -1  -6   1 12926.5 589.191   4
   1   6  -1 12648.1 508.431   7
   1   6  -1 12936.5 429.460   2
   1   6   0 3155.41 256.612   7
  -1  -6   0 3664.28 308.195   4
   1   6   0 3248.12 141.963   1
  -1  -6   0 3489.55 153.623   8
   1   6   1 8420.50 415.344   7
   1   6   1 8844.50 420.937   3
   1   6   1 8169.71 206.921   1
   1   6   2 22387.5 680.625   7
   1   6   2 23732.1 699.211   3
  -1  -6  -2 23285.0 504.269   1
  -1  -6  -3 5557.49 281.736   1
   1   6   3 5800.71 310.754   2
   1   6   3 5595.41 345.924   7
   1   6   3 5957.96 355.033   3
   1   6   4 8904.67 402.024   2
  -1  -6  -4 9329.32 403.563   1
   1   6   4 9642.23 542.995   4
   1   6   4 9327.35 463.806   7
   1   6   5 20495.6 823.555   4
   1   6   5 17782.8 587.591   2
  -1  -6  -5 18253.5 600.815   1
   1   6   5 17808.9 654.737   7
  -1  -6  -6 59443.9 1161.22   1
   1   6   6 57957.7 1233.76   7
   1   6   7 54460.6 1210.88   7
  -1  -6  -7 55340.4 1206.09   1
  -1  -6  -8 3977.92 343.772   1
   1   6   8 3624.43 318.428   7
   1   6   8 3911.52 166.256   8
   1   6   9 342.333 107.350   7
  -1  -6  -9 260.173 113.932   1
   1   6   9 249.265 51.7533   8
  -1  -6 -10 42.6349 85.1975   1
  -1  -6 -11 1268.56 247.073   1
  -1  -6 -12-7.75850 71.1347   1
  -1  -6 -13 115.931 101.335   1
  -1  -6 -14 94.9392 93.1153   1
   1   7 -14 202.501 111.615   2
   1   7 -14 256.483 138.634   1
   1   7 -13 3024.12 344.622   2
   1   7 -12 1287.61 222.868   2
   1   7 -11 654.701 155.255   2
   1   7 -10 3147.98 301.534   2
   1   7  -9 2512.77 256.259   2
   1   7  -9 2117.82 329.801   6
   1   7  -8 14134.4 572.062   2
   1   7  -8 13718.1 794.048   6
   1   7  -7 1720.64 275.405   6
   1   7  -7 1631.64 184.872   2
   1   7  -6 1225.17 155.062   2
   1   7  -6 1098.33 209.941   6
   1   7  -5 38398.3 1186.58   6
   1   7  -4 24450.8 698.823   1
   1   7  -4 24526.9 911.687   6
   1   7  -3 2680.05 217.840   1
   1   7  -3 2830.54 216.620   2
   1   7  -2 3817.08 225.529   1
   1   7  -2 3847.81 250.757   2
   1   7  -1 10208.2 314.936   1
   1   7  -1 10822.6 434.183   2
  -1  -7   1 10925.8 329.862   8
   1   7  -1 10096.3 492.793   7
   1   7   0 1917.47 220.681   7
   1   7   0 2094.23 264.730   4
   1   7   0 1884.87 113.871   1
  -1  -7   0 2015.39 133.793   8
   1   7   1 10831.6 516.635   7
   1   7   1 11397.1 614.967   4
   1   7   1 11212.1 520.852   3
   1   7   1 11045.5 259.772   1
  -1  -7  -2 22571.6 525.227   1
   1   7   2 22111.0 735.984   3
   1   7   2 21044.9 723.068   7
   1   7   2 22412.3 874.194   4
   1   7   3 2681.47 229.552   2
   1   7   3 3026.40 327.685   4
   1   7   3 2748.11 265.418   7
   1   7   3 3049.47 278.497   3
  -1  -7  -3 2768.02 209.930   1
   1   7   4 1868.87 235.516   7
  -1  -7  -4 1736.89 180.647   1
   1   7   4 2158.34 297.529   4
   1   7   4 1678.61 185.398   2
  -1  -7  -5 134.404 57.0057   1
   1   7   5 281.812 154.565   4
   1   7   5 246.809 95.6037   7
  -1  -7  -6 9782.35 499.459   1
   1   7   6 11089.5 679.888   4
   1   7   6 10101.8 542.571   7
  -1  -7  -7 5758.06 410.498   1
   1   7   7 6270.65 437.606   7
   1   7   8 330.817 117.466   7
  -1  -7  -8 386.321 127.494   1
  -1  -7  -9 220.857 102.336   1
   1   7   9 55.8518 53.8496   7
  -1  -7 -10 168.773 119.092   1
  -1  -7 -11 96.6075 72.8935   1
  -1  -7 -12 249.662 140.519   1
  -1  -7 -13 69.6917 107.211   1
  -1  -7 -14 79.4331 69.5342   1
   1   8 -13 243.594 109.433   1
   1   8 -11 2033.51 261.543   2
   1   8 -10 1150.94 265.849   6
   1   8 -10 924.640 166.438   2
   1   8  -9 427.105 111.477   2
   1   8  -9 359.505 93.0945   6
   1   8  -8 91.5460 50.4803   2
   1   8  -8 113.325 109.705   6
   1   8  -7 2357.67 231.183   2
   1   8  -7 2802.91 367.352   6
   1   8  -6 3799.97 282.639   2
   1   8  -6 4217.39 443.599   6
   1   8  -5 3.34278 34.3129   2
   1   8  -5-10.4768 66.6161   6
   1   8  -5-9.46804 55.5528   1
   1   8  -4 13.1625 41.8320   1
   1   8  -3 1769.46 181.349   1
   1   8  -2 2006.01 258.552   7
  -1  -8   2 1978.26 168.174   8
   1   8  -2 1960.57 164.345   1
  -1  -8   1 2223.52 169.918   8
   1   8  -1 2127.99 142.944   1
   1   8  -1 2471.29 264.839   7
   1   8   0 1483.35 101.411   1
   1   8   0 1581.58 215.724   7
   1   8   1 10403.4 548.631   7
   1   8   1 10422.0 645.095   4
   1   8   2 5306.89 464.366   4
   1   8   2 4970.51 382.512   7
  -1  -8  -3 10108.1 402.902   1
   1   8   3 9582.62 457.027   2
   1   8   3 9769.50 540.347   7
   1   8   3 10275.7 651.065   4
   1   8   4 4711.81 450.355   4
  -1  -8  -4 4518.21 301.824   1
   1   8   4 4027.39 358.790   7
  -1  -8  -5 907.107 157.800   1
   1   8   5 1107.52 230.411   4
   1   8   5 996.435 191.094   7
   1   8   6 193.004 120.426   4
  -1  -8  -6-40.3317 76.5165   1
   1   8   6 4.82473 63.5871   7
   1   8   7 3016.66 329.501   7
   1   8   7 3508.58 427.056   4
  -1  -8  -7 2814.98 296.860   1
  -1  -8  -8 13887.2 701.209   1
   1   8   8 13291.9 684.064   7
   1   8   8 14950.4 889.977   4
  -1  -8  -9 11653.4 680.931   1
   1   8   9 11700.3 643.206   7
  -1  -8 -10 4986.87 470.542   1
  -1  -8 -11-14.0543 88.0029   1
  -1  -8 -12 3.52023 84.4026   1
  -1  -8 -13 145.106 89.0510   1
   1   9 -10 1205.45 281.854   6
   1   9  -9-5.06778 42.1610   2
   1   9  -9-139.883 152.452   6
   1   9  -8 2604.68 389.039   6
   1   9  -8 2566.36 256.608   2
   1   9  -7 1441.45 282.032   6
   1   9  -7 1232.11 170.948   2
   1   9  -6 49.4169 41.4674   2
   1   9  -6 83.4364 96.3752   6
   1   9  -5 192.331 71.3350   2
   1   9  -5 245.473 148.763   6
  -1  -9   5 237.311 91.2184   8
   1   9  -4 9238.70 576.527   7
  -1  -9   4 8805.92 424.755   8
   1   9  -4 8019.16 412.395   2
  -1  -9   3 3416.04 251.080   8
   1   9  -3 3520.50 276.764   2
   1   9  -3 3640.05 357.424   7
   1   9  -2 3082.17 328.532   7
   1   9  -2 2963.44 258.979   2
  -1  -9   2 3147.97 229.824   8
   1   9  -1 374.398 141.612   7
  -1  -9   1 159.248 41.9318   8
   1   9  -1 255.809 84.5836   2
   1   9   0 150.166 93.4493   7
   1   9   1 6809.27 476.361   7
   1   9   1 6495.90 540.229   4
   1   9   2 12259.7 649.797   7
   1   9   2 12420.7 758.598   4
   1   9   3 5565.18 511.852   4
  -1  -9  -3 5481.49 296.980   1
   1   9   3 5132.38 432.752   7
   1   9   4 1471.31 281.805   4
  -1  -9  -4 1740.69 185.753   1
   1   9   4 1765.80 259.815   7
   1   9   5 7.84305 62.4543   7
   1   9   5-97.5330 131.407   4
  -1  -9  -5-24.3063 45.3130   1
   1   9   6 3251.87 431.996   4
   1   9   6 3632.64 373.529   7
  -1  -9  -6 3441.99 318.747   1
  -1  -9  -7 1228.45 200.998   1
   1   9   7 1232.39 273.908   4
   1   9   7 810.185 189.666   7
   1   9   8 642.521 160.086   7
  -1  -9  -8 829.482 177.888   1
   1   9   9 67.8305 128.281   4
   1   9  10 243.149 126.650   4
  -1 -10  10 886.751 198.604   8
  -1 -10   9 326.952 137.660   8
   1  10  -9 246.082 128.140   6
  -1 -10   8 1188.95 207.903   8
   1  10  -8 1045.87 270.868   6
  -1 -10   7 37.2005 72.9616   8
   1  10  -7 33.8723 84.0889   6
   1  10  -7 230.085 98.4625   7
   1  10  -6 77.7368 135.670   6
   1  10  -6 365.417 158.611   7
  -1 -10   6 74.2212 71.2529   8
  -1 -10   5 1791.22 215.302   8
   1  10  -5 1972.60 301.559   7
   1  10  -5 1873.84 211.408   2
   1  10  -5 2100.44 336.749   6
   1  10  -4 365.654 133.158   7
   1  10  -4 281.044 80.0144   2
  -1 -10   4 373.881 106.204   8
  -1 -10   3 3240.99 263.518   8
   1  10  -3 3374.83 280.585   2
   1  10  -3 3749.37 393.882   7
   1  10  -2 1334.23 239.271   7
  -1 -10   2 1325.81 158.258   8
   1  10  -2 1476.48 189.189   2
   1  10  -1 832.947 183.423   7
   1  10  -1 886.045 151.953   2
   1  10   0 2.47270 65.6388   7
   1  10   0 39.4081 50.6241   2
   1  10   1 2305.67 305.053   7
   1  10   2 4643.30 505.218   4
   1  10   2 4879.23 443.433   7
   1  10   3 195.598 121.879   4
   1  10   3-89.7128 116.865   7
   1  10   4 435.822 167.272   4
   1  10   4 459.582 168.669   7
   1  10   5 904.662 202.046   7
   1  10   5 1027.45 242.196   4
   1  10   6-60.9563 90.5506   4
   1  10   6 98.4717 78.1429   7
   1  10   7-71.7139 85.5855   7
   1  10   7-81.7175 139.676   4
   1  10   8 384.666 141.559   7
   1  10   8 624.773 221.130   4
  -1 -11   9 201.510 111.334   8
  -1 -11   8 394.060 139.468   8
   1  11  -7 1240.02 270.958   7
  -1 -11   7 733.069 158.511   8
   1  11  -6 2829.51 421.306   6
   1  11  -6 3460.00 424.541   7
  -1 -11   6 2798.54 304.118   8
   1  11  -5 727.547 195.337   7
   1  11  -5 689.608 201.594   6
   1  11  -4 176.016 128.556   6
   1  11  -4 272.204 144.284   7
   1  11  -3-10.8760 86.2674   7
   1  11  -2 81.2654 89.7251   7
   1  11  -1 1147.69 237.242   7
   1  11   0-36.6712 57.5428   2
   1  11   0 10.2498 72.7886   7
   1  11   1 93.1164 78.6584   7
   1  11   1 226.181 102.243   2
   1  11   2 607.657 218.611   4
   1  11   2 551.158 155.176   7
   1  11   3 2059.04 315.443   7
   1  11   3 2879.76 426.187   4
   1  11   4 817.972 209.595   7
   1  11   4 693.224 208.127   4
   1  11   5-87.1247 127.400   4
   1  11   5 287.219 146.880   7
   1  11   6 313.123 101.716   7
   1  11   6 849.889 253.250   4
   1  11   7 110.880 73.4126   7
   1  12  -3 149.394 91.4055   7
   1  12  -2 623.236 176.657   7
   1  12  -1 476.530 168.866   7
   1  12   0 365.542 149.519   7
   1  12   1 367.057 140.326   7
   1  12   2 155.008 103.700   7
   1  12   3 102.616 83.2185   7
   1  12   3-54.2420 110.573   4
   1  12   4 371.805 175.419   7
   1  12   5 38.3983 88.9974   7
   1  12   6 279.899 123.226   7
  -2  12   2 107.053 85.7142   7
  -2  12   1-17.3122 68.1672   7
  -2  12   1-28.8130 70.6198   2
  -2  12   0 391.222 169.959   2
  -2  12   0 326.305 144.496   7
  -2  12  -1 40.6051 92.9030   2
  -2  12  -2 47.7256 63.4615   2
  -2  11   4 401.090 144.939   7
  -2  11   4 287.148 161.638   4
  -2  11   3 82.0609 104.179   4
  -2  11   3 210.220 118.905   7
  -2  11   2 1751.51 273.125   7
  -2  11   2 1799.94 338.372   4
  -2  11   1 272.327 131.474   7
  -2  11   1 198.936 123.978   4
  -2  11   0 1064.98 230.197   7
  -2  11   0 691.405 199.876   2
  -2  11  -1-0.47164 86.8829   2
  -2  11  -2-18.7359 73.9934   2
  -2  11  -3 3627.95 416.433   2
  -2  11  -4 3416.85 399.906   2
  -2  11  -5 341.667 129.283   2
  -2  11  -6 233.374 107.356   2
  -2  11  -7 247.889 122.741   2
  -2  10   6 164.396 178.580   4
  -2  10   5 282.829 92.6921   7
  -2  10   5 857.029 253.436   4
  -2  10   4 593.224 139.051   7
   2 -10  -4 524.807 156.058   1
  -2  10   4 526.881 180.121   4
   2 -10  -3 1447.86 246.434   1
  -2  10   3 1502.54 235.685   7
  -2  10   3 1221.50 277.529   4
  -2  10   2 374.146 136.987   7
  -2  10   2 81.2234 94.9447   4
  -2  10   1 658.948 170.670   7
  -2  10   1 554.428 179.468   4
  -2  10   0 688.247 197.059   2
  -2  10  -1 157.755 109.311   2
  -2  10  -2 8258.80 624.376   2
  -2  10  -3-55.4005 98.3476   2
  -2  10  -4 196.388 105.048   2
  -2  10  -5 1452.81 260.450   2
  -2  10  -6 70.4763 87.5105   2
  -2  10  -7 44.6101 67.9757   6
  -2  10  -7 222.160 121.584   2
  -2  10  -8 1530.95 259.013   2
   2 -10   8 1808.17 296.918   8
  -2  10  -8 1837.04 341.766   6
   2 -10   9 200.025 92.0056   8
  -2  10  -9 476.447 157.736   2
   2  -9 -10 700.125 233.795   1
   2  -9  -9 780.950 223.017   1
   2  -9  -8 1487.68 292.729   1
  -2   9   8 2384.54 398.761   4
   2  -9  -7 1507.92 279.631   1
  -2   9   7 1487.07 324.592   4
  -2   9   6 481.015 192.367   4
   2  -9  -6 255.549 124.199   1
  -2   9   5 3.71165 66.6652   7
  -2   9   5 64.8235 84.7673   4
   2  -9  -5-88.5213 83.4866   1
   2  -9  -4-119.668 115.332   1
  -2   9   4 34.9078 59.7550   7
  -2   9   4-43.0035 88.7186   4
  -2   9   3 6764.79 597.032   4
  -2   9   3 6156.61 431.210   7
   2  -9  -3 6451.94 519.317   1
  -2   9   2 2528.42 284.208   7
  -2   9   2 2933.79 389.578   4
   2  -9  -2 2769.32 335.966   1
  -2   9   1 310.798 115.556   4
  -2   9   0 680.582 185.744   4
  -2   9  -1 37.4248 127.416   2
  -2   9  -2 3135.72 368.845   2
  -2   9  -3 32.4845 64.5034   2
  -2   9  -4-75.0749 74.6316   2
  -2   9  -5 2431.03 310.978   2
  -2   9  -6 11775.8 682.626   2
   2  -9   6 11515.6 669.067   8
   2  -9   7-95.6034 64.0517   8
  -2   9  -7-13.0540 53.6368   2
  -2   9  -8 3277.41 362.899   2
  -2   9  -8 3153.92 433.272   6
   2  -9   8 2511.95 341.672   8
  -2   9  -9 24.9254 67.9394   2
   2  -9   9-40.6594 114.882   8
  -2   9  -9 123.460 119.114   6
  -2   9 -10-33.2263 85.4113   6
   2  -9  10-171.168 129.715   8
  -2   9 -10-58.1262 65.1314   2
  -2   9 -11 857.426 202.844   2
   2  -8 -11 95.1507 77.5094   1
   2  -8 -10 463.794 166.982   1
   2  -8  -9 280.950 136.450   1
   2  -8  -8 62.6100 99.8384   1
   2  -8  -7 543.136 182.319   1
   2  -8  -6 3762.46 433.403   1
  -2   8   6 3499.48 298.562   7
  -2   8   6 4036.50 472.060   4
  -2   8   5 383.150 169.727   4
   2  -8  -5 299.472 116.072   1
  -2   8   5 426.475 111.699   7
   2  -8  -4 1178.86 228.294   1
  -2   8   4 1242.49 182.428   7
  -2   8   4 1244.78 265.567   4
  -2   8   3 572.422 178.414   4
  -2   8   3 970.875 166.879   7
   2  -8  -3 978.983 202.230   1
  -2   8   2 8202.96 597.580   4
   2  -8  -2 8162.27 549.373   1
  -2   8   1 2544.94 328.757   4
   2  -8  -1 2336.12 291.610   1
  -2   8   0 8143.44 576.108   4
  -2   8  -1 241.603 87.1945   2
  -2   8  -1 715.907 175.185   4
  -2   8  -2 9461.91 596.530   2
  -2   8  -3 32885.8 1115.64   2
  -2   8  -4 5729.77 458.648   2
  -2   8  -5 342.479 113.757   2
   2  -8   5 165.864 51.9663   8
  -2   8  -6 6155.35 477.868   2
   2  -8   6 5811.27 452.529   8
  -2   8  -7 1990.46 306.861   6
   2  -8   7 2016.78 280.442   8
  -2   8  -7 1980.60 272.649   2
  -2   8  -8 717.819 218.265   6
  -2   8  -8 905.163 178.468   2
   2  -8   8 644.184 159.290   8
  -2   8  -9 33.2989 82.5524   6
  -2   8  -9-12.7063 66.1457   2
   2  -8   9 131.095 89.3527   8
  -2   8 -10 108.431 105.474   2
  -2   8 -10 122.329 95.8521   6
   2  -8  10 10.7705 69.0900   8
  -2   8 -11-0.78070 58.8969   2
  -2   8 -11 8.84305 82.9310   6
   2  -8  11 166.990 102.739   8
  -2   8 -12-220.958 133.620   6
  -2   8 -12 286.709 127.352   2
   2  -7 -12 285.876 175.118   1
   2  -7 -11 25.2280 87.3674   1
   2  -7 -10-102.157 134.933   1
   2  -7  -9 1122.44 251.635   1
   2  -7  -8 160.217 95.9621   1
   2  -7  -7 16830.9 887.643   1
  -2   7   7 16265.5 562.893   7
   2  -7  -6 7840.54 588.770   1
  -2   7   6 8073.23 409.139   7
   2  -7  -5 2004.08 291.951   1
  -2   7   5 1536.11 185.808   7
   2  -7  -4 1925.05 277.343   1
  -2   7   4 2003.83 299.010   4
  -2   7   4 2065.85 210.938   7
  -2   7   4 2002.97 165.061   8
  -2   7   4 1798.90 171.028   3
  -2   7   3 13089.9 715.465   4
   2  -7  -3 12161.8 663.624   1
  -2   7   3 13092.6 404.556   8
   2  -7  -2 378.297 129.166   1
  -2   7   2 428.198 160.150   4
  -2   7   2 478.632 81.8723   8
  -2   7   1 28684.8 927.217   1
   2  -7  -1 26730.5 939.981   1
  -2   7   1 28279.8 1011.59   4
   2  -7   0 100.030 82.8500   1
  -2   7   0 28.7495 63.7967   4
  -2   7   0-81.1832 96.0412   1
  -2   7  -1 36.8005 65.7064   4
  -2   7  -1-90.0251 79.2900   1
  -2   7  -2 3282.82 339.494   1
  -2   7  -2 3636.76 353.927   2
  -2   7  -3 1070.47 194.555   2
  -2   7  -4 2705.86 297.977   2
   2  -7   4 2376.36 264.244   8
  -2   7  -5 716.420 165.866   2
   2  -7   5 540.104 130.765   8
   2  -7   6-113.128 78.8045   8
  -2   7  -6-13.7165 44.7044   2
  -2   7  -7 1019.13 207.351   6
  -2   7  -7 854.009 177.132   2
   2  -7   7 961.208 185.131   8
   2  -7   8 2495.91 303.937   8
  -2   7  -8 2358.76 285.291   2
  -2   7  -8 2562.41 345.092   6
   2  -7   9 453.002 121.723   8
  -2   7  -9 311.376 115.819   2
  -2   7  -9 354.806 130.353   6
   2  -7  10 1744.02 277.514   8
  -2   7 -10 1349.50 266.664   6
  -2   7 -10 1494.36 239.376   2
  -2   7 -11 3573.39 438.228   6
  -2   7 -11 3415.80 371.601   2
   2  -7  11 3667.02 403.979   8
  -2   7 -12 286.213 115.542   2
   2  -7  12 72.9039 80.0171   8
  -2   7 -13 1445.00 259.387   2
   2  -6 -13 481.775 182.591   1
   2  -6 -12 307.926 169.007   1
   2  -6 -11 1957.92 356.378   1
   2  -6 -10 2503.48 388.627   1
   2  -6  -9 2240.07 342.543   1
   2  -6  -8 119.359 99.7173   1
  -2   6   7 1573.82 156.681   7
   2  -6  -7 1596.60 279.881   1
   2  -6  -6 51.1846 95.8066   1
  -2   6   6 83.2139 45.0071   7
   2  -6  -5 8669.34 570.065   1
  -2   6   5 8632.98 373.497   7
   2  -6  -4 25771.6 960.167   1
  -2   6   4 26854.9 559.945   3
  -2   6   4 26808.8 664.766   7
  -2   6   3 754.770 157.043   1
   2  -6  -3 825.044 169.960   1
  -2   6   3 798.126 107.503   8
  -2   6   2 1173.89 179.949   1
  -2   6   2 1278.08 211.923   4
  -2   6   2 1251.16 133.011   8
   2  -6  -2 1064.66 182.496   1
  -2   6   1 29091.2 932.979   4
   2  -6  -1 28437.7 918.947   1
  -2   6   1 29732.8 614.155   8
  -2   6   1 29098.0 898.984   1
  -2   6   0 1465.16 211.203   4
  -2   6   0 1384.02 188.631   1
   2  -6   0 1401.73 196.749   1
  -2   6  -1 10846.0 558.746   4
  -2   6  -1 10947.8 561.859   1
  -2   6  -2 6735.35 452.055   1
  -2   6  -2 6509.12 445.262   2
  -2   6  -3 130.080 77.3645   2
  -2   6  -3 197.547 98.5643   1
  -2   6  -4 198.510 86.6944   2
   2  -6   4 235.611 65.6738   8
   2  -6   4 291.444 115.071   4
  -2   6  -4 345.272 115.465   1
  -2   6  -5 10308.3 549.729   2
   2  -6   5 10484.1 533.850   4
   2  -6   5 9736.04 516.021   8
  -2   6  -6 16387.3 707.237   2
   2  -6   6 16287.9 682.405   8
   2  -6   7 15945.8 698.585   8
  -2   6  -7 14828.4 730.474   6
  -2   6  -7 15702.0 694.275   2
  -2   6  -8 129.143 95.2604   6
   2  -6   8 140.809 95.6954   8
  -2   6  -8 122.824 75.1743   2
   2  -6   9 463.520 140.377   8
  -2   6  -9 386.796 131.047   6
  -2   6  -9 551.734 148.095   2
  -2   6 -10 1272.26 217.242   2
   2  -6  10 1446.48 244.225   8
  -2   6 -10 1194.54 237.270   6
  -2   6 -11 403.980 154.304   6
  -2   6 -11 290.405 108.229   2
   2  -6  11 368.618 144.576   8
  -2   6 -12 870.118 200.756   2
   2  -6  12 837.344 210.043   8
   2  -6  13 692.199 178.219   8
  -2   6 -13 861.689 203.240   2
   2  -5 -13 1409.05 317.984   1
   2  -5 -12 392.361 192.215   1
   2  -5 -11 1467.76 296.867   1
   2  -5 -10 749.665 201.173   1
   2  -5  -9 345.043 137.617   1
   2  -5  -8 4852.67 469.838   1
  -2   5   7 34342.5 605.257   7
   2  -5  -7 32549.8 1142.48   1
  -2   5   6 2605.26 181.507   7
   2  -5  -6 2779.26 325.448   1
   2  -5  -5 29401.0 995.284   1
  -2   5   5 30656.1 615.907   7
  -2   5   4 6418.78 392.345   1
  -2   5   4 6636.32 293.040   7
  -2   5   4 6165.07 227.234   3
   2  -5  -4 6636.22 462.957   1
  -2   5   3 3548.28 297.043   1
   2  -5  -3 3328.99 316.881   1
  -2   5   2 983.152 154.283   1
   2  -5  -2 990.412 172.650   1
  -2   5   1 39865.5 996.587   1
  -2   5   1 38981.0 965.584   4
   2  -5  -1 39246.8 1019.55   1
  -2   5   1 38925.4 723.616   8
  -2   5   0 1938.97 224.116   1
   2  -5   0 1692.85 205.211   1
  -2   5   0 2099.89 227.980   4
  -2   5   0 1991.05 160.790   8
  -2   5  -1 18015.9 687.607   1
  -2   5  -1 17608.6 637.850   4
  -2   5  -2 412.880 114.430   1
  -2   5  -2 655.623 137.731   2
  -2   5  -3 1190.81 181.135   1
  -2   5  -3 1098.14 171.557   2
   2  -5   3 1016.91 146.927   8
   2  -5   3 1174.91 156.248   4
   2  -5   4 14050.2 557.070   4
  -2   5  -4 14707.8 614.832   2
  -2   5  -4 14395.1 657.522   1
   2  -5   4 13719.9 566.666   8
  -2   5  -5 3048.48 308.630   1
  -2   5  -5 2751.30 274.312   2
   2  -5   5 2679.41 255.282   8
   2  -5   5 2624.14 247.368   4
   2  -5   6 8311.71 461.751   8
  -2   5  -6 8455.00 473.745   2
   2  -5   6 7798.21 435.553   4
   2  -5   7 9016.78 492.678   4
  -2   5  -7 8683.47 493.636   2
   2  -5   7 8640.00 486.961   8
  -2   5  -7 8621.15 519.006   6
   2  -5   8 829.191 168.462   8
  -2   5  -8 822.278 161.388   2
  -2   5  -8 944.822 183.928   6
  -2   5  -9 658.550 150.348   6
  -2   5  -9 615.734 138.035   2
   2  -5   9 885.886 172.588   8
   2  -5  10 474.315 142.480   8
  -2   5 -10 451.164 133.563   6
  -2   5 -10 466.737 128.997   2
   2  -5  11 1637.85 254.273   8
  -2   5 -11 1358.86 227.552   2
  -2   5 -12 5406.74 463.067   2
   2  -5  12 5981.82 506.212   8
   2  -5  13 5229.73 589.039   5
   2  -5  13 5291.67 492.325   8
  -2   5 -13 5573.66 486.291   2
  -2   5 -14-189.265 119.459   2
   2  -4 -13 614.488 214.788   1
   2  -4 -12 189.322 127.315   1
   2  -4 -11 2831.95 402.414   1
   2  -4 -10 6838.15 581.657   1
   2  -4  -9 41265.5 1351.74   1
   2  -4  -8 10813.9 660.718   1
   2  -4  -7 16435.0 685.224   5
   2  -4  -7 17105.2 792.232   1
   2  -4  -6 259.270 89.1465   5
   2  -4  -6-17.4592 92.0649   1
  -2   4   6 215.616 43.4484   7
   2  -4  -5 1736.05 231.678   1
  -2   4   5 2008.67 218.074   1
  -2   4   5 2005.76 132.598   7
  -2   4   4 8494.43 204.880   3
   2  -4  -4 9029.73 510.553   1
  -2   4   4 9497.40 455.745   1
  -2   4   3 1840.23 204.051   1
   2  -4  -3 2073.24 235.090   1
   2  -4  -2 442.603 111.579   1
  -2   4   2 534.239 109.107   1
   2  -4  -1 524.051 106.457   1
  -2   4   1 734.560 124.232   1
   2  -4   0 116.166 68.0583   1
  -2   4   0 138.214 76.3310   4
  -2   4   0 61.1623 52.4594   1
  -2   4   0 139.935 49.2341   8
   2  -4   1 700.858 129.969   1
  -2   4  -1 733.263 134.516   1
  -2   4  -1 693.544 119.209   4
  -2   4  -1 789.898 103.177   8
  -2   4  -2 67287.9 1274.12   1
   2  -4   3 21336.5 646.997   8
   2  -4   3 20948.0 587.465   4
  -2   4  -3 21433.6 737.492   1
   2  -4   4 14182.8 500.136   4
  -2   4  -4 14122.1 609.694   1
   2  -4   4 14108.7 533.420   8
  -2   4  -4 14565.1 573.403   2
   2  -4   5 303.858 83.0258   4
  -2   4  -5 340.172 98.9937   2
   2  -4   5 465.362 112.465   8
   2  -4   6 930.867 156.837   8
  -2   4  -6 973.937 159.937   6
  -2   4  -6 1197.42 170.052   2
  -2   4  -7 191.709 86.1504   6
  -2   4  -7 148.484 68.3898   2
   2  -4   7 366.494 111.942   8
  -2   4  -8 32376.1 976.562   6
   2  -4   8 32971.2 938.739   8
  -2   4  -8 32244.3 935.250   2
  -2   4  -9 3735.50 357.560   6
   2  -4   9 3617.49 334.358   8
  -2   4  -9 3866.89 333.482   2
  -2   4 -10 231.382 89.7163   2
   2  -4  10 381.057 124.822   8
   2  -4  11 213.228 102.010   8
  -2   4 -11 223.387 104.921   2
   2  -4  12-75.9368 95.1508   5
  -2   4 -12 155.792 81.2320   2
   2  -4  12-3.18019 54.7555   8
   2  -4  13-156.747 95.4601   5
  -2   4 -13-34.9228 58.1126   2
   2  -4  13-0.77615 88.5843   8
   2  -4  14-168.293 170.157   5
  -2   4 -14 262.657 144.784   2
   2  -4  14 171.315 119.719   8
   2  -3 -14 3923.00 518.339   1
   2  -3 -13 910.146 250.291   1
   2  -3 -12 4764.31 518.400   1
   2  -3 -11 1790.50 299.043   1
   2  -3 -10 2182.55 319.997   1
   2  -3  -9 4412.23 428.100   1
   2  -3  -8 2991.05 341.686   1
   2  -3  -7 5614.10 435.308   1
   2  -3  -7 5354.05 376.771   5
   2  -3  -6 8195.64 434.308   5
   2  -3  -6 8779.65 512.573   1
   2  -3  -5 16535.2 570.728   5
   2  -3  -5 17548.6 693.459   1
  -2   3   5 16960.1 295.337   7
  -2   3   5 17291.6 589.926   1
  -2   3   4 956.761 142.023   1
   2  -3  -4 1094.96 171.657   1
   2  -3  -3 23973.7 751.399   1
  -2   3   3 22830.4 673.570   1
  -2   3   2 897.532 137.813   1
   2  -3  -2 959.912 152.898   1
  -2   3   1 10127.3 444.892   1
   2  -3  -1 10348.8 469.405   1
  -2   3   0 83227.3 1049.47   4
  -2   3   0 83247.9 1281.68   1
   2  -3   0 86186.0 1306.30   1
  -2   3   0 83461.7 1018.30   8
  -2   3  -1 6816.35 299.585   4
   2  -3   1 6942.59 372.232   1
  -2   3  -1 6747.30 283.911   8
  -2   3  -1 6597.00 367.130   1
   2  -3   2 3406.31 201.685   4
  -2   3  -2 3155.50 194.264   8
  -2   3  -2 3697.82 278.897   1
   2  -3   3 9598.26 346.978   4
   2  -3   3 9581.90 403.693   8
  -2   3  -3 9323.07 457.898   1
   2  -3   4 10809.2 440.929   8
   2  -3   4 10737.8 381.721   4
   2  -3   4 11199.2 482.533   2
   2  -3   5 11284.7 506.386   2
   2  -3   5 11631.1 470.050   8
  -2   3  -6 38613.4 894.972   6
   2  -3   6 37832.3 881.885   8
   2  -3   6 38530.8 985.668   2
  -2   3  -6 38387.4 908.221   2
  -2   3  -7 515.328 115.397   6
   2  -3   7 652.395 132.738   8
  -2   3  -7 468.552 113.101   2
  -2   3  -8 4655.30 341.303   2
  -2   3  -8 4317.69 343.933   6
   2  -3   8 4610.51 338.455   8
  -2   3  -9 3002.93 289.829   2
   2  -3   9 2964.04 287.102   8
   2  -3  10 925.821 209.866   5
  -2   3 -10 872.269 167.026   2
   2  -3  10 1186.16 203.192   8
   2  -3  11 3454.02 411.783   5
  -2   3 -11 3385.54 337.924   2
   2  -3  11 3143.52 325.345   8
   2  -3  12 1015.58 204.570   8
   2  -3  12 625.634 206.219   5
  -2   3 -12 957.703 188.725   2
   2  -3  13 82.9439 92.4378   5
  -2   3 -13-25.5416 76.8403   2
   2  -3  13 48.5838 62.8902   8
   2  -3  14 1897.00 355.430   5
   2  -3  14 1908.27 293.696   8
  -2   3 -14 1928.89 290.808   2
  -2   3 -15 1032.96 222.988   2
   2  -2 -14 117.294 102.011   1
   2  -2 -13 645.720 215.144   1
   2  -2 -12 177.680 135.495   1
   2  -2 -11 1611.15 272.972   1
   2  -2 -10 975.418 223.226   1
   2  -2  -9 1573.01 255.430   1
   2  -2  -8 39056.5 1153.92   1
   2  -2  -7 27564.2 917.788   1
   2  -2  -6 7423.27 390.744   5
  -2   2   6 7748.87 408.871   2
   2  -2  -6 7291.03 450.118   1
   2  -2  -5 5260.20 303.130   5
  -2   2   5 5636.45 322.265   1
  -2   2   5 5298.75 323.857   2
  -2   2   4 2295.25 82.1850   7
   2  -2  -4 2763.26 201.720   5
  -2   2   4 2704.47 219.452   1
  -2   2   3 5484.86 307.235   1
  -2   2   2 769.701 116.990   1
  -2   2   1 46821.9 891.499   1
  -2   2   0 10134.2 418.125   1
  -2   2  -1 23426.0 638.534   1
  -2   2  -1 24229.7 452.604   4
   2  -2   2 52272.2 619.418   4
  -2   2  -2 53077.6 988.687   1
   2  -2   3 62401.4 718.557   4
   2  -2   3 62914.3 969.962   8
   2  -2   3 61171.4 1003.60   2
   2  -2   4 103059. 1271.73   8
   2  -2   4 104566. 1375.51   2
   2  -2   5 21969.2 661.798   2
  -2   2  -5 21179.8 568.699   6
   2  -2   5 22259.3 612.002   8
   2  -2   6 1105.19 152.867   8
   2  -2   6 955.882 149.205   2
  -2   2  -6 1074.73 139.928   6
  -2   2  -7 34963.4 861.583   6
   2  -2   7 34331.9 830.823   8
   2  -2   8 7090.29 477.921   5
  -2   2  -8 7108.06 407.038   2
   2  -2   8 7116.51 398.338   8
   2  -2   9 298.727 128.136   5
  -2   2  -9 106.023 60.9256   2
   2  -2   9 139.814 95.0733   8
   2  -2  10 10093.1 527.344   8
   2  -2  10 9223.05 625.114   5
  -2   2 -10 9972.45 531.527   2
   2  -2  11 1194.82 240.431   5
  -2   2 -11 1125.85 198.894   2
   2  -2  11 1375.65 212.524   8
   2  -2  12 1183.52 257.729   5
   2  -2  12 1183.01 211.276   8
  -2   2 -12 1085.11 204.113   2
   2  -2  13 375.452 178.468   5
  -2   2 -13 251.600 109.622   2
   2  -2  13 562.954 159.550   8
  -2   2 -14 323.503 137.236   2
   2  -2  14 633.654 170.752   8
   2  -2  14 401.527 181.019   5
   2  -2  15 0.64722 102.731   5
   2  -2  15 56.4405 87.0418   8
   2  -1 -14 675.324 204.174   1
   2  -1 -13 820.174 231.806   1
   2  -1 -12 4796.34 491.686   1
   2  -1 -11 7530.27 583.228   1
   2  -1 -10 450.326 168.153   1
   2  -1  -9 15322.5 739.971   1
   2  -1  -8 6611.97 215.870   3
   2  -1  -8 7807.69 499.993   1
   2  -1  -7 1737.33 233.763   1
   2  -1  -7 1185.31 87.0729   3
   2  -1  -6 584.629 55.6583   3
  -2   1   6 610.494 110.581   2
  -2   1   5 21933.4 611.128   2
  -2   1   5 21978.3 603.790   1
  -2   1   4 416.309 80.6318   1
  -2   1   3 31487.5 686.988   1
   2  -1  -3 29880.7 517.729   5
  -2   1   3 30644.1 346.915   7
  -2   1   2 16074.3 484.469   1
   2  -1  -2 15993.3 309.254   5
  -2   1   1 33457.6 690.864   1
  -2   1   0 96272.2 1174.89   1
  -2   1  -1 3244.58 111.061   4
  -2   1  -1 2653.75 197.065   1
   2  -1   2 685728. 1481.64   4
   2  -1   2 689165. 2913.53   2
   2  -1   3 3808.37 229.665   2
   2  -1   3 3946.55 230.334   8
   2  -1   4 63603.6 1001.60   2
  -2   1  -4 64087.0 804.427   6
   2  -1   4 64937.5 947.675   8
   2  -1   5 27344.5 637.954   8
   2  -1   5 27493.3 694.755   2
  -2   1  -5 26599.7 582.132   6
  -2   1  -6 14957.5 486.177   6
   2  -1   6 14380.8 490.672   8
   2  -1   6 14828.1 547.196   2
   2  -1   7 21160.1 622.950   8
   2  -1   7 21078.5 697.097   2
  -2   1  -8 1245.07 170.246   2
   2  -1   8 1605.72 190.212   8
   2  -1   8 1265.25 197.697   5
   2  -1   9 1119.18 213.139   5
  -2   1  -9 1244.26 181.524   2
   2  -1  10 853.921 194.437   5
  -2   1 -10 1151.01 179.442   2
   2  -1  11 167.689 113.527   5
  -2   1 -11 41.6118 61.8547   2
   2  -1  12 1038.07 249.960   5
  -2   1 -12 527.271 141.668   2
   2  -1  12 721.818 160.203   8
   2  -1  13 352.871 148.744   5
  -2   1 -13 328.991 136.313   2
   2  -1  13 425.051 133.904   8
  -2   1 -14 1055.09 217.755   2
   2  -1  14 1369.15 240.018   8
   2  -1  14 800.133 222.612   5
   2  -1  15-36.8422 79.0558   5
  -2   1 -15 216.245 117.935   2
   2  -1  15 348.927 134.846   8
   2   0 -14 2303.87 369.792   1
   2   0 -13 195.457 137.311   1
  -2   0  12 1215.85 246.178   5
   2   0 -12 1635.34 286.141   1
   2   0 -11 151.721 117.492   1
  -2   0  11 41.1629 78.8919   5
   2   0 -10 1481.61 235.833   1
  -2   0  10 1764.92 250.851   5
  -2   0   9-7.11414 55.9980   5
   2   0  -9-36.6358 87.9270   1
  -2   0   8 5965.58 409.651   5
   2   0  -8 6160.63 428.270   1
  -2   0   7 2535.15 220.399   2
  -2   0   7 2283.85 231.424   5
  -2   0   6 110465. 1351.87   2
  -2   0   6 109018. 1450.27   5
  -2   0   5 39322.7 755.313   2
  -2   0   5 41374.4 798.421   5
   2   0  -5 38740.5 533.253   3
  -2   0   4 75086.9 1011.44   1
  -2   0   4 75212.6 973.010   2
   2   0  -4 74177.0 531.485   7
   2   0  -4 72634.3 703.802   3
  -2   0   4 73255.4 930.436   5
  -2   0   3 8401.61 329.369   1
  -2   0   3 8253.99 265.133   5
   2   0  -3 8710.49 203.405   7
  -2   0   3 8285.90 167.327   7
   2   0  -3 8199.53 235.960   3
  -2   0   2 12648.4 393.011   1
  -2   0   2 12492.7 245.845   5
  -2   0   2 13050.5 275.828   7
  -2   0   2 13401.9 291.585   3
  -2   0   1 194818. 1532.61   1
  -2   0   1 194313. 1215.39   7
  -2   0   0 58050.0 825.857   1
  -2   0   0 58007.6 743.221   7
   2   0   1 77289.5 653.758   5
  -2   0  -1 75803.6 966.780   1
   2   0   2 25040.4 500.793   2
   2   0   3 66216.1 875.821   2
   2   0   3 67206.3 875.039   8
  -2   0  -3 65900.3 566.651   6
   2   0   4 20631.3 505.761   8
   2   0   4 22199.2 548.243   2
   2   0   5 16649.6 511.454   2
   2   0   5 15260.0 451.983   8
   2   0   6 7922.56 311.188   6
   2   0   6 7683.60 341.602   8
   2   0   6 7234.22 369.910   2
   2   0   7 940.765 119.222   6
   2   0   7 957.947 127.981   8
   2   0   7 933.341 144.418   2
  -2   0  -8 958.640 151.123   2
   2   0   8 1217.58 150.879   6
   2   0   8 1214.01 194.964   5
   2   0   9 1459.52 178.516   6
   2   0   9 1440.88 230.629   5
  -2   0  -9 1386.68 188.671   2
   2   0  10 15365.7 786.920   5
   2   0  10 14757.8 605.880   6
  -2   0 -10 15088.0 642.863   2
   2   0  11 3.63246 67.7574   5
  -2   0 -11-10.8269 47.1345   2
  -2   0 -12 3133.44 330.921   2
   2   0  12 3232.66 314.055   8
   2   0  12 3125.93 406.649   5
   2   0  13 171.588 87.3677   8
   2   0  13 246.825 153.474   5
  -2   0 -13 108.057 112.365   2
   2   0  14 1102.75 212.924   8
   2   0  14 1318.54 303.625   5
  -2   0 -14 701.394 188.802   2
  -2   0 -15 344.448 136.316   2
   2   0  15 880.504 196.211   8
   2   0  16 572.375 181.358   8
  -2  -1  15 661.699 235.827   5
   2   1 -14-70.5085 116.741   1
  -2  -1  14 327.342 160.498   5
   2   1 -13 1755.63 309.427   1
  -2  -1  13 2265.90 355.435   5
   2   1 -12 708.854 182.254   1
  -2  -1  12 962.268 219.468   5
  -2  -1  11 809.866 188.797   5
   2   1 -11 834.490 90.6337   7
   2   1 -11 952.364 203.125   1
   2   1 -10 13920.2 705.683   1
  -2  -1  10 14279.5 727.857   5
   2   1 -10 13091.8 340.485   7
  -2  -1   9 5083.47 412.183   5
   2   1  -9 4720.60 203.978   7
   2   1  -9 4502.23 375.654   1
   2   1  -8 228.241 52.9687   7
   2   1  -8 214.721 79.0925   1
  -2  -1   8-8.43550 68.6673   5
  -2  -1   7 23267.3 642.716   2
  -2  -1   7 23525.9 751.989   5
   2   1  -7 24102.7 424.921   7
   2   1  -7 24265.2 764.855   1
   2   1  -6 8538.40 246.466   7
  -2  -1   6 9294.92 373.252   2
  -2  -1   5 26293.9 577.008   2
   2   1  -5 26455.1 422.623   7
  -2  -1   4 41644.8 658.549   2
   2   1  -4 43377.0 538.171   7
  -2  -1   3 9766.64 287.491   2
   2   1  -3 10044.2 267.239   7
   2   1  -3 9543.38 293.150   3
  -2  -1   3 9719.37 318.927   1
  -2  -1   2 6464.45 253.275   1
  -2  -1   2 6406.45 200.553   7
   2   1  -2 6662.17 228.672   7
   2   1  -2 6385.16 243.556   3
  -2  -1   1 13583.8 357.516   1
   2   1  -1 13503.0 352.416   7
  -2  -1   1 13939.8 356.833   3
  -2  -1   1 13384.9 331.540   7
   2   1   0 19968.7 452.646   7
  -2  -1   0 18590.1 412.240   1
  -2  -1  -1 20214.4 345.644   2
  -2  -1  -1 20233.6 448.103   1
  -2  -1  -1 20276.5 326.065   4
   2   1   1 20123.2 354.680   2
   2   1   1 21556.4 501.549   7
   2   1   2 360616. 1397.18   4
  -2  -1  -2 366631. 1963.20   5
  -2  -1  -2 355232. 1593.94   2
  -2  -1  -2 354108. 1718.80   8
   2   1   2 362880. 1683.40   2
   2   1   2 367384. 2197.59   7
   2   1   3 26968.1 510.786   2
  -2  -1  -3 27574.0 610.094   5
  -2  -1  -3 25610.4 479.219   2
  -2  -1  -3 26299.9 451.374   8
   2   1   4 45206.2 706.401   8
  -2  -1  -4 45688.3 885.516   5
   2   1   4 43978.5 726.708   2
   2   1   4 45021.5 502.261   6
  -2  -1  -4 46006.0 708.488   2
  -2  -1  -5 5404.29 317.518   7
  -2  -1  -5 5288.09 329.784   5
  -2  -1  -5 5208.86 263.818   2
   2   1   5 5117.82 249.461   8
   2   1   5 5390.18 281.605   2
   2   1   5 5308.93 216.236   6
  -2  -1  -6 70.9502 75.4888   5
   2   1   6 26.0045 31.6657   6
   2   1   6 2.36927 38.6992   2
  -2  -1  -6 7.41076 47.6077   7
   2   1   6 43.0636 50.4181   8
   2   1   7 70322.7 1199.32   2
   2   1   7 69214.8 1021.33   6
   2   1   7 69286.3 1038.39   8
  -2  -1  -7 70051.0 1134.66   2
  -2  -1  -7 68772.8 1247.15   7
   2   1   8 38545.5 837.895   6
   2   1   8 37869.7 820.511   8
   2   1   8 38050.7 1100.79   5
  -2  -1  -8 38122.2 900.781   2
  -2  -1  -9 1504.63 192.710   7
   2   1   9 1321.48 170.939   6
   2   1   9 1552.58 252.423   5
  -2  -1  -9 1330.38 187.559   2
  -2  -1 -10 2628.45 273.777   2
   2   1  10 2717.26 257.018   6
   2   1  10 3025.23 357.038   5
  -2  -1 -10 2855.00 292.256   7
  -2  -1 -11 245.515 100.200   2
   2   1  12 3893.84 338.655   8
  -2  -1 -12 3351.86 345.514   2
  -2  -1 -13 132.570 100.270   2
   2   1  13 84.4097 78.1536   8
   2   1  14 1436.68 233.956   8
  -2  -1 -14 1043.84 217.918   2
  -2  -1 -15 189.542 119.689   2
   2   1  15 204.666 111.388   8
   2   1  16 409.778 154.326   8
  -2  -2  15 688.378 224.401   5
   2   2 -14 751.669 205.065   1
  -2  -2  14 1337.86 289.195   5
   2   2 -13 284.478 127.842   1
  -2  -2  13 290.117 149.590   5
  -2  -2  12 5274.97 515.105   5
   2   2 -12 4552.06 449.491   1
   2   2 -11 2692.66 195.791   7
   2   2 -11 2691.20 308.502   2
   2   2 -11 2706.84 325.125   1
  -2  -2  11 2813.70 354.894   5
  -2  -2  10 93.4514 69.7022   5
   2   2 -10-42.7939 80.1798   2
   2   2 -10-42.1911 56.8661   1
   2   2  -9 8487.93 504.518   1
   2   2  -9 8335.54 473.686   2
  -2  -2   9 9116.42 559.242   5
   2   2  -8 3190.35 295.765   1
   2   2  -8 2904.04 260.252   2
  -2  -2   7 24550.3 652.926   2
   2   2  -7 24738.8 751.683   1
   2   2  -7 25261.4 707.380   2
  -2  -2   6 246.560 67.7196   2
   2   2  -6 307.887 63.8341   7
  -2  -2   6 247.030 81.6247   6
   2   2  -5 50343.9 919.561   1
  -2  -2   5 49066.9 1033.72   6
   2   2  -5 49554.9 820.560   2
   2   2  -5 50309.5 698.820   7
  -2  -2   5 49268.0 764.750   2
  -2  -2   4 75643.7 1199.86   6
   2   2  -4 74750.0 842.641   7
   2   2  -4 72477.8 885.282   2
  -2  -2   4 75319.1 833.161   2
   2   2  -4 77524.8 1033.13   1
   2   2  -3 109435. 1117.53   1
  -2  -2   3 112850. 1336.88   6
  -2  -2   3 110938. 876.679   2
   2   2  -3 112673. 1027.85   7
  -2  -2   2 150641. 1365.35   6
  -2  -2   2 147027. 1085.92   7
   2   2  -2 146001. 1173.38   1
   2   2  -2 145714. 1282.58   3
  -2  -2   2 151689. 820.190   2
  -2  -2   2 144588. 1019.33   1
   2   2  -2 150611. 1220.95   7
  -2  -2   1 35608.6 483.276   1
  -2  -2   1 35361.6 591.556   6
  -2  -2   1 35603.2 291.948   2
   2   2  -1 35509.0 532.558   1
   2   2  -1 35467.0 648.788   3
   2   2  -1 37723.5 629.069   7
  -2  -2   1 35805.2 563.748   7
   2   2   0 47858.7 592.771   6
  -2  -2   0 48382.4 552.086   1
   2   2   0 51197.9 766.286   7
   2   2   0 49107.3 575.386   1
   2   2   0 48864.0 775.512   3
   2   2   1 62539.5 514.181   2
  -2  -2  -1 62209.3 773.956   4
  -2  -2  -1 61667.9 667.425   1
  -2  -2  -1 62822.6 468.034   2
   2   2   1 64900.7 929.655   7
   2   2   1 61687.3 545.380   6
   2   2   2 149341. 974.222   2
   2   2   2 150062. 1239.18   4
  -2  -2  -2 153154. 949.822   2
   2   2   2 156298. 1495.71   7
   2   2   3 79894.5 840.273   2
  -2  -2  -3 79352.4 811.993   2
  -2  -2  -3 77705.4 708.912   8
   2   2   3 78856.6 1127.74   7
   2   2   4 2060.14 156.130   2
  -2  -2  -4 2159.46 153.969   2
  -2  -2  -4 2343.28 208.998   5
   2   2   4 2164.55 143.848   8
   2   2   4 2267.34 202.401   7
  -2  -2  -4 2076.73 189.445   7
  -2  -2  -5 522.746 98.4768   7
  -2  -2  -5 679.835 103.651   2
   2   2   5 621.271 93.9331   2
   2   2   5 597.512 86.4230   8
  -2  -2  -5 637.529 121.889   5
  -2  -2  -6 1528.52 156.649   2
  -2  -2  -6 1621.76 212.468   5
   2   2   6 1639.69 144.575   8
  -2  -2  -6 1443.93 171.660   7
   2   2   6 1624.59 167.423   2
  -2  -2  -7 7216.07 372.702   2
  -2  -2  -7 7348.46 395.736   7
  -2  -2  -7 8187.20 485.082   5
   2   2   7 7398.56 385.183   2
   2   2   7 7365.78 325.442   8
  -2  -2  -8 547.565 119.571   2
   2   2   8 474.072 101.743   8
   2   2   9 5178.31 317.617   8
  -2  -2  -9 5004.29 359.586   2
  -2  -2 -10 102.068 50.5717   7
  -2  -2 -10 163.180 84.3277   2
   2   2  10 283.330 88.2609   8
   2   2  10 102.208 62.3491   6
  -2  -2 -11 3904.29 362.365   2
   2   2  11 4270.30 327.153   8
  -2  -2 -11 3608.96 324.637   7
  -2  -2 -12 5918.12 473.494   2
   2   2  12 6310.85 416.960   8
  -2  -2 -13 2846.70 346.017   2
   2   2  13 2652.12 287.864   8
  -2  -2 -14 723.678 206.583   2
   2   2  14 832.156 176.585   8
  -2  -2 -15 162.930 138.523   2
  -2  -2 -15 20.2191 98.7540   1
   2   2  15 70.6869 105.099   8
   2   2  16 448.888 141.387   8
  -2  -3  15-238.532 167.210   5
  -2  -3  14 95.6834 117.629   5
   2   3 -14 203.670 110.631   1
   2   3 -13 739.357 194.559   1
   2   3 -13 556.446 150.865   2
   2   3 -12 83.0382 60.1287   7
  -2  -3  12 78.5300 117.409   5
   2   3 -12-45.5125 70.7769   1
   2   3 -12-106.921 81.2198   2
  -2  -3  11 1704.07 288.190   5
   2   3 -11 1194.54 204.314   2
   2   3 -11 1558.62 250.243   1
   2   3 -10 20275.0 763.837   2
   2   3 -10 20521.0 824.359   1
   2   3  -9 353.453 104.418   2
   2   3  -9 342.311 115.875   1
  -2  -3   8 23485.1 700.233   2
   2   3  -8 24779.8 786.242   1
   2   3  -8 24322.4 726.111   2
   2   3  -7 579.608 121.457   1
  -2  -3   7 607.654 101.960   2
  -2  -3   6 5733.10 293.417   2
  -2  -3   6 5521.53 379.190   6
   2   3  -6 5514.28 289.695   2
  -2  -3   5 60305.7 855.033   2
  -2  -3   5 63710.3 1201.31   6
   2   3  -5 59045.4 885.062   7
   2   3  -5 62425.7 982.842   1
   2   3  -5 62593.1 870.951   2
  -2  -3   4 25664.8 486.394   2
   2   3  -4 26032.2 574.224   7
  -2  -3   4 27307.1 734.722   6
   2   3  -4 27248.2 590.015   1
   2   3  -4 25538.2 489.461   2
  -2  -3   3 3161.19 141.728   2
  -2  -3   3 3453.45 242.367   6
   2   3  -3 3431.00 208.026   7
   2   3  -3 3425.92 149.623   2
   2   3  -3 3385.34 187.590   1
   2   3  -2 17264.1 488.379   3
  -2  -3   2 17208.2 256.855   2
   2   3  -2 17651.7 365.491   1
   2   3  -2 17139.0 254.782   2
   2   3  -2 17598.3 463.872   7
   2   3  -1 11286.0 256.333   1
   2   3  -1 10981.0 376.980   7
   2   3  -1 11001.4 389.064   3
  -2  -3   0 16051.8 209.226   1
  -2  -3   0 15896.0 472.395   4
   2   3   0 16161.1 484.113   3
   2   3   0 15889.7 242.889   1
   2   3   0 16427.3 470.032   7
   2   3   1 1039.14 127.276   7
  -2  -3  -1 982.610 119.101   4
  -2  -3  -1 1002.69 69.7411   1
   2   3   1 1057.99 124.779   3
   2   3   1 1104.43 62.4266   2
   2   3   2 3535.57 148.222   2
  -2  -3  -2 3365.20 152.335   2
   2   3   2 3333.35 234.305   7
   2   3   3 1489.50 116.941   2
   2   3   3 1566.92 157.166   4
  -2  -3  -3 1703.87 165.532   3
  -2  -3  -3 1598.76 89.7974   8
   2   3   3 1685.27 176.403   7
  -2  -3  -3 1619.78 125.947   2
   2   3   4 43171.6 703.906   2
  -2  -3  -4 43932.9 725.326   2
   2   3   4 42771.0 905.888   7
  -2  -3  -4 44183.7 862.457   7
  -2  -3  -5 10735.6 399.460   2
   2   3   5 10833.6 390.266   2
   2   3   5 10430.7 318.531   8
  -2  -3  -5 10564.0 434.169   7
   2   3   5 10709.6 468.159   7
   2   3   6 6120.07 323.621   2
  -2  -3  -6 5970.10 412.267   5
  -2  -3  -6 6386.65 351.346   7
  -2  -3  -6 6472.53 338.401   2
   2   3   6 6308.94 267.462   8
  -2  -3  -7 1349.09 173.153   2
   2   3   7 1434.45 142.992   8
   2   3   7 1507.42 171.979   2
  -2  -3  -8 4484.71 329.213   2
   2   3   8 4840.90 274.758   8
  -2  -3  -9 27680.8 872.458   2
   2   3   9 27464.7 699.674   8
  -2  -3  -9 27222.3 801.425   7
  -2  -3 -10 4896.80 349.045   7
  -2  -3 -10 4687.53 389.760   2
   2   3  10 5117.67 324.219   8
  -2  -3 -11 523.652 149.207   2
   2   3  11 690.283 132.571   8
  -2  -3 -12 1821.21 284.838   2
   2   3  12 2075.95 238.787   8
  -2  -3 -13 1282.23 236.798   2
   2   3  13 1755.76 227.612   8
  -2  -3 -13 1852.60 269.221   1
  -2  -3 -14 529.631 160.846   1
  -2  -3 -14 573.301 187.060   2
   2   3  14 540.617 142.152   8
  -2  -3 -15-9.31754 84.6950   2
  -2  -3 -15-77.9037 71.1732   1
   2   3  15-34.1412 58.7278   8
  -2  -4  14 1497.04 333.332   5
   2   4 -14 1196.38 263.884   1
   2   4 -14 1141.06 225.257   2
  -2  -4  13 4223.42 517.122   5
   2   4 -13 3737.63 397.440   2
   2   4 -13 3143.76 383.688   1
   2   4 -12 4797.71 454.007   1
  -2  -4  12 5176.46 543.476   5
   2   4 -12 4627.47 413.771   2
   2   4 -12 4716.85 337.379   7
   2   4 -11 2534.93 306.694   1
   2   4 -11 2175.65 277.266   2
   2   4 -10 2853.94 282.597   2
   2   4 -10 3533.56 340.521   1
   2   4  -9 31.1159 59.2134   1
   2   4  -9 38.1768 48.7306   2
  -2  -4   8 6064.38 361.202   2
   2   4  -8 6544.78 369.937   2
   2   4  -8 6185.29 391.908   1
  -2  -4   7 46.9572 31.4379   2
   2   4  -7 290.650 92.7168   1
   2   4  -6 11833.1 410.315   2
  -2  -4   6 11282.1 417.652   2
   2   4  -5 711.483 95.6255   2
   2   4  -5 779.338 118.898   1
  -2  -4   5 748.947 99.9914   2
   2   4  -4 271.928 80.5657   7
   2   4  -4 244.192 70.1763   1
  -2  -4   4 137.459 42.0055   2
   2   4  -4 181.621 44.0530   2
   2   4  -3 50344.2 886.451   7
   2   4  -3 51940.5 565.900   2
  -2  -4   3 51171.6 624.853   2
   2   4  -3 51713.5 680.481   1
   2   4  -2 10239.9 193.990   2
   2   4  -2 10066.9 254.943   1
   2   4  -2 10224.9 398.470   7
   2   4  -1 42434.1 812.173   6
   2   4  -1 39187.5 395.200   1
  -2  -4   1 41950.2 900.594   4
   2   4  -1 42229.4 836.530   3
   2   4  -1 41468.8 802.101   7
   2   4   0 43279.1 343.919   2
  -2  -4   0 44785.1 906.105   4
   2   4   0 44015.7 874.097   3
   2   4   0 42430.8 823.757   7
   2   4   1 20659.8 310.691   2
  -2  -4  -1 21391.7 613.008   4
   2   4   1 20813.3 610.456   3
   2   4   1 19872.5 583.822   7
  -2  -4  -2 674.203 117.024   3
   2   4   2 642.745 70.9673   2
   2   4   2 607.909 111.663   7
   2   4   3 25172.7 492.158   2
   2   4   3 24922.8 705.177   7
  -2  -4  -3 26201.1 661.685   3
  -2  -4  -3 26053.0 641.941   7
  -2  -4  -4 13112.8 471.495   7
   2   4   4 12845.0 391.757   2
  -2  -4  -4 13175.5 489.928   3
   2   4   4 12539.6 525.910   7
   2   4   5 28599.7 645.298   2
   2   4   5 28372.1 799.841   7
  -2  -4  -5 28598.5 693.098   2
  -2  -4  -5 28643.6 743.822   3
   2   4   6 20571.6 594.417   2
   2   4   6 19526.0 688.284   7
   2   4   6 20438.4 447.349   8
  -2  -4  -6 20093.1 635.119   2
  -2  -4  -7 4426.14 319.563   2
   2   4   7 4332.57 229.960   8
   2   4   7 4455.03 338.553   7
   2   4   8 1143.88 132.056   8
  -2  -4  -8 944.554 150.135   7
  -2  -4  -8 917.294 161.050   2
  -2  -4  -9 239.106 88.9395   7
   2   4   9 239.736 74.0668   8
  -2  -4  -9 34.5092 58.7078   2
  -2  -4 -10 367.653 100.506   7
   2   4  10 402.729 95.6078   8
  -2  -4 -10 306.428 122.231   2
  -2  -4 -11 4379.49 374.546   1
  -2  -4 -11 4647.92 428.910   2
   2   4  11 4856.66 327.470   8
   2   4  12 1610.33 206.417   8
  -2  -4 -12 1337.64 224.020   1
   2   4  13 1960.88 232.983   8
  -2  -4 -13 1848.97 280.308   1
  -2  -4 -14-61.4037 78.5398   1
  -2  -4 -15 100.240 106.438   1
   2   5 -15 1561.85 294.934   2
   2   5 -14 27.1944 86.1666   2
  -2  -5  14 202.278 152.632   5
   2   5 -14 81.5415 119.213   1
   2   5 -13 88.8196 74.5469   2
  -2  -5  13 256.881 162.482   5
   2   5 -13 286.339 117.042   1
   2   5 -12 181.163 95.0680   7
   2   5 -12 116.932 126.550   1
   2   5 -12 121.302 85.1143   2
   2   5 -11 401.701 116.964   2
   2   5 -11 511.514 146.467   1
   2   5 -10 2008.48 255.339   1
   2   5 -10 1805.92 229.692   2
   2   5  -9 15998.9 616.064   2
   2   5  -9 15763.1 664.424   1
  -2  -5   8 3723.70 293.545   2
   2   5  -8 3253.26 255.845   2
   2   5  -8 4190.94 322.074   1
  -2  -5   7 596.690 116.478   2
   2   5  -6-14.8966 61.3881   6
  -2  -5   6-38.2307 45.9456   2
   2   5  -6 104.136 56.3738   2
   2   5  -5 8687.76 509.346   6
   2   5  -5 8758.11 315.382   2
  -2  -5   5 7512.45 328.957   2
  -2  -5   4 30029.9 593.923   2
   2   5  -4 30215.5 774.254   7
   2   5  -4 30528.3 518.692   2
   2   5  -3 51887.9 990.669   7
   2   5  -3 52012.6 665.388   1
   2   5  -3 52257.9 592.591   2
   2   5  -2 76580.3 1197.01   7
  -2  -5   2 81965.7 1437.13   4
   2   5  -2 78525.6 655.389   1
   2   5  -2 78558.8 642.440   2
   2   5  -1 4205.72 287.230   7
  -2  -5   1 4073.22 314.201   4
   2   5  -1 4207.47 292.756   3
   2   5  -1 4091.58 148.441   2
  -2  -5   0 7873.38 425.861   4
   2   5   0 7649.08 390.238   3
   2   5   0 7240.53 371.849   7
   2   5   1 771.078 118.585   7
   2   5   1 829.992 77.0534   2
  -2  -5  -1 983.395 154.173   4
   2   5   1 759.356 127.833   3
  -2  -5  -2 38816.9 433.096   1
   2   5   2 40689.7 919.415   7
   2   5   2 42143.2 953.280   3
   2   5   2 40732.4 593.198   2
  -2  -5  -3 21507.2 403.069   1
   2   5   3 21800.0 486.543   2
   2   5   3 21656.9 688.615   7
  -2  -5  -4 126.110 49.1030   1
   2   5   4 210.074 80.3924   7
   2   5   4 228.331 87.7446   4
   2   5   4 137.306 48.3086   2
   2   5   5 75.4267 78.1574   7
  -2  -5  -5-8.25310 38.4050   7
   2   5   5 151.645 110.055   4
   2   5   5-27.2470 29.7434   2
  -2  -5  -5 7.64377 30.0699   1
  -2  -5  -6 107.828 57.6153   7
   2   5   6 121.292 60.3704   2
   2   5   6-48.5182 71.2453   7
  -2  -5  -6 72.3396 51.0695   1
   2   5   7 1526.67 208.498   7
  -2  -5  -7 1584.83 185.314   7
  -2  -5  -7 1637.72 177.778   1
   2   5   8 794.145 158.432   7
  -2  -5  -8 707.234 129.450   7
  -2  -5  -8 612.754 136.350   1
   2   5   8 698.988 94.1832   8
  -2  -5  -9 437.425 102.600   7
  -2  -5  -9 677.257 141.658   1
  -2  -5  -9 513.002 121.056   3
   2   5   9 458.397 84.1083   8
   2   5  10 5744.40 313.320   8
  -2  -5 -10 6053.87 392.220   3
  -2  -5 -10 5314.35 400.676   1
  -2  -5 -11 9636.28 508.098   3
  -2  -5 -11 8558.12 540.429   1
   2   5  11 9124.12 424.505   8
   2   5  12 132.925 74.7669   8
  -2  -5 -12 277.928 116.050   1
  -2  -5 -13 101.261 82.6828   1
  -2  -5 -14 64.5782 82.8959   1
  -2  -5 -15 66.0347 95.4343   1
   2   6 -14 1362.24 253.553   2
   2   6 -14 1199.19 259.659   1
   2   6 -13 1601.59 257.107   2
   2   6 -13 1820.22 308.522   1
   2   6 -12 468.966 148.789   7
   2   6 -12 471.416 133.419   2
   2   6 -12 526.849 155.164   1
   2   6 -11 1515.50 219.691   2
   2   6 -11 1692.18 249.900   1
   2   6 -10 11053.1 549.311   2
   2   6 -10 10421.6 580.677   1
   2   6  -9 1476.19 187.330   2
   2   6  -9 1499.21 206.447   1
   2   6  -8 1136.37 154.086   2
  -2  -6   8 972.634 158.226   2
   2   6  -7 4213.98 414.390   6
  -2  -6   7 4055.09 297.654   2
  -2  -6   6 14875.0 530.991   2
   2   6  -6 15103.5 736.145   6
   2   6  -5 23367.7 761.800   7
   2   6  -5 23684.0 529.826   2
  -2  -6   5 22445.6 599.096   2
   2   6  -5 22291.6 856.597   6
   2   6  -4 6259.22 443.128   6
   2   6  -4 7306.54 419.911   7
   2   6  -4 6548.49 257.832   2
   2   6  -3 2060.16 237.676   7
   2   6  -3 1938.17 240.411   6
   2   6  -3 1932.61 132.615   2
   2   6  -2 2077.88 129.263   2
   2   6  -2 2221.20 129.734   1
   2   6  -2 2180.51 102.976   1
   2   6  -2 2149.96 227.663   7
   2   6  -1 9813.04 469.163   7
  -2  -6   1 10423.0 539.036   4
   2   6  -1 9605.23 282.926   2
   2   6  -1 10658.2 494.718   3
   2   6   0 1268.50 178.119   7
  -2  -6   0 1136.19 178.048   4
   2   6   0 1518.52 198.476   3
  -2  -6  -1 13881.0 606.770   4
   2   6   1 13726.8 356.122   2
   2   6   1 14194.2 586.654   3
   2   6   1 12736.9 543.888   7
   2   6   2 1614.79 203.497   7
   2   6   2 1898.85 156.405   2
   2   6   2 1862.35 215.151   3
   2   6   3 16999.9 704.019   4
   2   6   3 16264.6 451.345   2
  -2  -6  -3 16123.6 381.269   1
   2   6   3 16354.4 647.485   7
  -2  -6  -4 2812.40 190.696   1
   2   6   4 3224.07 326.002   4
   2   6   4 2803.46 203.729   2
   2   6   4 3216.33 293.972   7
  -2  -6  -5 7107.66 377.947   7
  -2  -6  -5 6756.74 325.478   1
   2   6   5 7049.84 450.008   7
   2   6   5 6550.46 336.935   2
   2   6   5 7369.60 484.431   4
  -2  -6  -6 4479.72 292.277   1
  -2  -6  -6 4322.48 297.951   7
   2   6   6 4168.87 286.406   2
   2   6   6 4880.99 420.190   4
   2   6   6 4087.23 357.845   7
   2   6   7 66.6891 78.9411   7
  -2  -6  -7-50.7490 51.1286   1
  -2  -6  -7 10.6556 50.5050   3
  -2  -6  -8-18.2450 45.9472   1
   2   6   8 101.649 81.5239   7
  -2  -6  -8 0.99424 40.6074   3
  -2  -6  -9 1623.33 224.437   1
   2   6   9 1674.80 241.354   7
  -2  -6  -9 1719.03 200.623   3
  -2  -6 -10 951.863 187.146   1
  -2  -6 -10 945.556 152.416   3
  -2  -6 -11 1411.72 231.612   1
  -2  -6 -11 1713.26 206.182   3
  -2  -6 -12 568.299 174.808   1
  -2  -6 -13 614.636 165.777   1
  -2  -6 -14 1622.72 291.249   1
   2   7 -14 92.4995 59.4004   1
   2   7 -13 1667.97 264.895   7
   2   7 -13 1432.07 267.685   1
   2   7 -12 631.626 175.897   7
   2   7 -12 504.267 135.893   2
   2   7 -12 576.085 171.728   1
   2   7 -11 250.009 122.653   1
   2   7 -11 646.012 165.817   7
   2   7 -11 352.314 108.793   2
   2   7 -10 770.489 165.315   1
   2   7 -10 1010.61 205.178   7
   2   7 -10 652.245 136.854   2
   2   7  -9 2154.69 226.876   2
   2   7  -9 2190.83 254.195   1
   2   7  -8 11687.1 752.098   6
   2   7  -8 12209.7 502.095   2
   2   7  -7 7951.36 512.333   7
   2   7  -7 8630.41 618.723   6
   2   7  -7 8263.35 385.208   2
  -2  -7   7 8056.33 434.534   2
   2   7  -6 1616.39 243.986   7
   2   7  -6 1504.84 257.443   6
   2   7  -5 108.056 116.052   6
   2   7  -5 283.566 138.432   7
   2   7  -5 102.088 55.0676   2
   2   7  -4 16686.6 681.740   7
   2   7  -4 17674.2 789.765   6
   2   7  -4 16592.0 436.985   2
   2   7  -3 6488.65 463.077   6
   2   7  -3 6990.79 437.255   7
   2   7  -3 6611.77 261.744   2
   2   7  -3 6724.47 282.445   1
   2   7  -2 9351.79 308.934   2
   2   7  -2 8323.87 224.494   1
   2   7  -2 8753.38 181.951   1
   2   7  -2 9387.70 499.006   7
   2   7  -1 37001.4 993.730   7
   2   7  -1 36174.0 629.260   2
   2   7   0 21399.1 760.175   7
  -2  -7  -1 118.220 30.6063   8
   2   7   1 72.1831 60.2645   7
   2   7   1-2.47051 68.4741   4
   2   7   2 650.355 176.092   7
   2   7   2 1023.52 133.107   2
   2   7   3 1099.55 195.522   7
  -2  -7  -3 852.137 89.1657   1
   2   7   3 1117.62 201.336   4
   2   7   3 805.911 144.556   3
   2   7   3 915.781 118.718   2
   2   7   4 1563.42 222.563   7
   2   7   4 1390.92 151.216   2
  -2  -7  -4 1436.72 143.174   1
   2   7   4 1850.41 260.765   4
   2   7   5 2206.81 205.824   2
   2   7   5 2894.85 346.458   4
   2   7   5 2107.98 268.813   7
  -2  -7  -5 2017.76 199.087   1
   2   7   6 797.145 170.341   7
  -2  -7  -6 849.971 142.546   1
   2   7   6 981.026 214.329   4
   2   7   7 395.458 135.888   7
  -2  -7  -7 444.842 111.796   1
   2   7   7 448.501 151.744   4
  -2  -7  -8 8805.53 500.840   1
   2   7   8 8871.61 572.169   7
   2   7   8 9932.71 665.939   4
   2   7   9 19.5602 66.4991   7
  -2  -7  -9-16.2626 54.5100   1
  -2  -7 -10 69.2470 65.1119   1
  -2  -7 -11 1680.93 270.207   1
  -2  -7 -12 1624.31 273.883   1
  -2  -7 -13 394.795 188.824   1
  -2  -7 -14-196.117 133.155   1
   2   8 -13-71.1903 61.4677   7
   2   8 -12 2311.39 325.975   7
   2   8 -12 1842.80 284.785   1
   2   8 -11 102.306 121.855   7
   2   8 -11 116.863 84.1193   1
   2   8 -10 644.841 192.039   7
   2   8 -10 391.067 109.203   2
   2   8 -10 493.901 135.595   1
   2   8  -9 7456.71 554.422   7
   2   8  -9 6934.71 407.927   2
   2   8  -9 7763.59 668.064   6
   2   8  -9 6870.43 445.695   1
   2   8  -8 5041.53 445.586   7
   2   8  -8 4336.54 486.415   6
   2   8  -8 4931.00 354.025   1
   2   8  -8 4453.57 308.247   2
   2   8  -7 162.949 110.467   7
   2   8  -7 34.6663 61.3935   6
   2   8  -7 54.0453 45.0794   2
   2   8  -6 194.547 110.371   7
   2   8  -6-11.4242 95.6374   6
   2   8  -5 952.482 210.750   6
   2   8  -5 1092.65 200.432   7
   2   8  -4 29684.0 986.756   7
   2   8  -4 31256.2 1118.58   6
   2   8  -4 31227.5 638.804   2
   2   8  -4 29086.7 695.523   1
   2   8  -3 41917.1 1242.53   6
   2   8  -3 38725.5 643.379   1
   2   8  -3 39028.4 513.490   1
   2   8  -3 41571.2 723.599   2
   2   8  -3 39468.3 1118.91   7
   2   8  -2 6132.95 278.418   2
   2   8  -2 6428.13 451.817   7
   2   8  -1 973.999 184.680   7
   2   8  -1 1060.01 125.409   2
   2   8   0 120.038 82.6345   7
  -2  -8   0 211.366 44.9409   8
   2   8   0 122.106 56.6626   2
   2   8   1 10565.7 653.885   4
  -2  -8  -1 8792.43 209.975   8
   2   8   1 9368.54 545.394   7
   2   8   2 1708.62 254.880   7
   2   8   2 1566.65 202.330   2
   2   8   3 622.065 154.820   7
   2   8   3 639.914 174.888   4
  -2  -8  -3 467.590 59.0661   1
   2   8   3 468.711 89.0446   2
   2   8   4 7492.32 377.631   2
  -2  -8  -4 7914.92 327.872   1
   2   8   4 9232.55 631.025   4
   2   8   4 7807.94 518.198   7
  -2  -8  -5 249.480 73.7677   1
   2   8   5 197.766 135.929   4
   2   8   5 299.930 113.607   7
  -2  -8  -6 5640.31 351.940   1
   2   8   6 5927.61 528.479   4
   2   8   6 5414.10 452.066   7
   2   8   7 3306.50 406.058   4
   2   8   7 2867.64 339.364   7
  -2  -8  -7 2684.56 268.768   1
  -2  -8  -8 2319.35 269.549   1
   2   8   8 2045.20 298.442   7
   2   8   8 2079.27 338.427   4
   2   8   9 884.976 194.186   7
   2   8   9 974.325 250.008   4
  -2  -8  -9 943.915 183.140   1
   2   8  10 149.834 103.040   7
   2   8  10 331.545 175.595   4
  -2  -8 -10 68.8198 63.4879   1
   2   8  11 95.7822 110.363   4
  -2  -8 -11-31.7380 72.9290   1
  -2  -8 -12 530.690 194.578   1
   2   9 -12 245.605 126.594   7
   2   9 -11 1661.63 304.924   7
   2   9 -10 1832.77 306.024   7
   2   9  -9 384.606 162.026   7
   2   9  -9 110.383 80.0642   6
   2   9  -8 595.340 183.440   7
   2   9  -8 523.888 172.452   6
   2   9  -7 415.030 150.328   7
   2   9  -7 308.632 146.117   6
   2   9  -6 488.835 165.759   7
   2   9  -6 322.815 80.8353   2
   2   9  -6 199.989 124.624   6
   2   9  -5 191.391 62.1108   1
   2   9  -5 171.513 83.7787   6
   2   9  -5 267.907 110.351   7
   2   9  -4 4915.66 475.599   6
   2   9  -4 5192.04 221.152   1
   2   9  -4 5613.50 463.842   7
   2   9  -3 476.356 150.941   7
   2   9  -3 805.302 209.672   6
   2   9  -3 577.410 97.2072   2
   2   9  -2 30785.0 677.288   2
   2   9  -2 29036.0 1034.14   7
  -2  -9   1 4991.70 243.033   8
   2   9  -1 4284.11 397.462   7
   2   9  -1 4878.44 290.680   2
   2   9   0 72.8976 57.3336   2
  -2  -9   0-3.05934 22.5121   8
   2   9   1 10594.4 419.358   2
   2   9   1 10352.1 618.308   7
   2   9   2 182.965 119.105   4
   2   9   2 182.040 104.273   7
   2   9   2 214.260 61.6613   2
   2   9   3 594.438 208.775   4
   2   9   3 780.986 199.664   7
   2   9   4 2545.44 320.282   7
   2   9   4 2686.21 367.733   4
   2   9   5-41.2905 60.4689   7
   2   9   5-149.461 122.249   4
   2   9   6 3.84758 57.3378   7
   2   9   6 195.131 107.349   4
   2   9   7 2100.64 351.468   4
   2   9   7 1681.43 278.262   7
   2   9   8 402.173 140.230   7
   2   9   8 524.766 194.888   4
   2   9   9 1503.13 262.712   7
   2   9   9 1756.93 332.021   4
   2   9  10 543.898 194.005   4
   2   9  11-31.4601 99.7873   4
   2  10 -10 575.395 194.855   7
   2  10  -9 1056.76 253.831   7
   2  10  -8-24.8420 85.8119   6
   2  10  -8 73.3224 88.6103   7
   2  10  -7 9437.02 753.546   6
   2  10  -7 8664.04 652.120   7
   2  10  -6 4080.95 481.776   6
   2  10  -6 4054.58 443.600   7
   2  10  -5 746.889 235.547   6
   2  10  -5 792.223 220.681   7
   2  10  -4 1945.24 306.151   7
   2  10  -4 2109.64 329.371   6
   2  10  -3 2428.96 327.551   7
   2  10  -3 2348.54 342.438   6
  -2 -10   3 2404.73 210.656   8
   2  10  -2 14514.1 782.419   7
  -2 -10   2 13427.6 459.618   8
   2  10  -1 10907.0 675.162   7
   2  10   0 6306.89 522.451   7
   2  10   1 828.391 190.120   7
   2  10   2 4382.35 487.145   4
   2  10   2 4144.77 426.368   7
   2  10   3 256.045 136.413   7
   2  10   3 294.120 150.076   4
   2  10   4 495.660 175.737   7
   2  10   4 543.394 217.141   4
   2  10   5 315.663 150.712   4
   2  10   5 308.268 138.188   7
   2  10   6 23.5011 106.522   7
   2  10   6 117.213 123.732   4
   2  10   7 359.457 140.711   7
   2  10   7 384.670 180.319   4
   2  10   8 1570.27 279.374   7
   2  10   8 2490.06 415.778   4
   2  10   9 408.440 194.392   4
  -2 -11   8 1248.27 214.597   8
   2  11  -7 102.526 151.983   7
   2  11  -7 134.653 68.7368   6
  -2 -11   7 267.768 109.446   8
   2  11  -6 221.242 154.041   7
  -2 -11   6 58.4575 64.3114   8
   2  11  -6 164.873 123.134   6
   2  11  -5 454.499 168.917   6
   2  11  -5 389.476 156.201   7
   2  11  -4 972.915 242.592   6
   2  11  -4 642.826 182.336   7
   2  11  -3 1066.75 241.506   6
   2  11  -3 1302.47 260.190   7
   2  11  -2-175.249 115.286   7
   2  11  -1 3350.65 413.561   7
   2  11   0 6792.64 574.027   7
   2  11   1 2233.64 334.822   7
   2  11   2 172.489 109.049   7
   2  11   3 518.335 192.032   7
   2  11   3 402.153 153.730   4
   2  11   4 147.649 171.759   4
   2  11   4 44.7560 101.457   7
   2  11   5 187.200 138.741   4
   2  11   5 195.529 119.911   7
   2  11   6 2009.06 335.517   7
   2  11   6 1999.66 374.382   4
   2  11   7 493.181 168.552   7
   2  11   7 446.176 179.983   4
   2  12  -4 1198.03 282.168   6
   2  12  -3 786.472 221.691   6
   2  12  -3 102.762 104.243   7
   2  12  -2 303.539 115.218   7
   2  12  -1 315.020 137.505   7
   2  12   0 2637.43 383.450   7
   2  12   1 1771.01 317.566   7
   2  12   2 1043.99 258.865   7
   2  12   3 492.308 198.971   7
   2  12   4 147.656 92.7529   7
   2  12   5 48.6051 90.0351   7
   2  12   6 2034.92 357.181   7
   2  12   7 2096.57 362.632   7
  -3  11   3 1306.75 304.727   4
  -3  11   2 37.8182 94.0301   7
  -3  11   2-29.1983 89.9684   4
  -3  11   1 534.616 169.668   7
  -3  11   1-91.6097 97.3982   4
  -3  11   0 1487.37 300.939   2
  -3  11  -1 1145.96 266.486   2
  -3  11  -2 302.089 121.958   2
  -3  11  -3 126.987 94.3258   2
  -3  11  -4 1034.01 246.693   2
  -3  11  -5-37.1904 80.5283   2
  -3  11  -6 1376.50 273.598   2
  -3  10   6 320.359 172.909   4
  -3  10   5 924.947 276.249   4
   3 -10  -5 666.063 202.290   1
   3 -10  -4 2274.29 343.934   1
  -3  10   4 2940.03 438.036   4
  -3  10   3 943.296 192.508   7
   3 -10  -3 603.647 196.213   1
  -3  10   3 1233.79 293.023   4
  -3  10   2 677.164 174.424   7
  -3  10   2 462.637 174.268   4
  -3  10   1 28.5780 110.579   4
  -3  10   0 1008.77 233.775   4
  -3  10   0 866.562 218.993   2
  -3  10  -1 1893.54 314.067   2
  -3  10  -2 376.324 159.936   2
  -3  10  -3 1351.76 273.198   2
  -3  10  -4 681.637 197.679   2
  -3  10  -5 181.758 102.239   2
  -3  10  -6 250.169 106.297   2
  -3  10  -7-16.3016 105.282   2
  -3  10  -8 1654.34 294.902   2
  -3  10  -9 2752.82 370.629   2
   3  -9  -9 1069.50 284.914   1
   3  -9  -8-27.0433 94.4637   1
  -3   9   7 552.023 214.014   4
   3  -9  -7 538.168 184.839   1
  -3   9   6 91.9566 136.607   4
   3  -9  -6 292.238 175.018   1
   3  -9  -5 1447.30 285.258   1
  -3   9   5 1826.39 338.120   4
  -3   9   4 1194.94 192.066   7
  -3   9   4 834.297 236.316   4
   3  -9  -4 992.396 216.931   1
   3  -9  -3 84.8693 99.4849   1
  -3   9   3 227.673 118.658   7
  -3   9   3 74.3563 96.9240   4
  -3   9   2 9970.77 730.863   4
   3  -9  -2 10386.3 706.049   1
  -3   9   1 1441.84 263.234   4
  -3   9   0 403.727 129.227   4
  -3   9  -1-13.6068 90.4676   2
  -3   9  -2 3943.86 442.681   2
  -3   9  -3 4668.34 475.629   2
  -3   9  -4 290.309 116.783   2
  -3   9  -5 177.174 118.287   2
  -3   9  -6 4369.85 456.651   2
  -3   9  -7 365.848 140.299   2
  -3   9  -8 1662.55 282.450   2
  -3   9  -8 2178.58 361.123   6
  -3   9  -9 4331.53 456.292   2
  -3   9  -9 3958.20 490.490   6
  -3   9 -10 356.141 133.650   2
   3  -8 -10 142.376 151.388   1
   3  -8  -9 998.465 258.809   1
   3  -8  -8 1109.59 276.729   1
   3  -8  -7 735.509 193.393   1
   3  -8  -6 733.467 204.195   1
  -3   8   5 4691.71 496.654   4
   3  -8  -5 4233.63 464.754   1
  -3   8   5 4640.47 338.994   7
  -3   8   4 4130.41 320.304   7
  -3   8   4 4497.39 476.876   4
   3  -8  -4 3983.44 442.025   1
   3  -8  -3 1404.71 258.958   1
  -3   8   3 1974.60 311.895   4
  -3   8   2 5818.44 517.576   4
   3  -8  -2 5300.67 491.795   1
  -3   8   1 46.5770 66.9450   4
   3  -8  -1 52.3039 56.6736   1
  -3   8   0 1960.88 287.899   4
  -3   8  -1 9484.94 630.320   4
  -3   8  -1 9522.08 658.058   2
  -3   8  -2 48.2152 69.5250   2
  -3   8  -3 376.904 124.588   2
  -3   8  -4-11.7303 88.0832   2
  -3   8  -5 37.3370 81.4702   2
  -3   8  -6 3831.28 408.124   2
  -3   8  -7 215.088 122.137   2
  -3   8  -8 118.594 85.8554   2
  -3   8  -8 187.924 116.879   6
   3  -8   8 11.9299 131.285   8
  -3   8  -9 856.868 221.734   6
  -3   8  -9 869.800 201.310   2
   3  -8   9 956.214 214.106   8
  -3   8 -10 4129.73 485.611   6
  -3   8 -10 3821.07 426.566   2
   3  -8  10 3779.59 456.931   8
  -3   8 -11 2464.30 389.354   6
  -3   8 -11 2818.49 368.290   2
   3  -7 -11 960.744 251.802   1
   3  -7 -10 985.784 269.889   1
   3  -7  -9 1949.41 356.132   1
   3  -7  -8 901.127 250.258   1
   3  -7  -7 566.109 190.867   1
   3  -7  -6 32.6415 69.5454   1
  -3   7   6 36.7463 43.1466   7
  -3   7   5 709.907 126.759   7
   3  -7  -5 469.353 159.867   1
  -3   7   4 1276.47 168.090   7
  -3   7   4 1308.31 255.482   4
   3  -7  -4 1489.29 274.402   1
  -3   7   3 169.517 104.975   4
  -3   7   3 163.035 67.1632   8
   3  -7  -3 80.5771 79.2910   1
  -3   7   2 176.126 98.1853   4
   3  -7  -2 187.705 117.706   1
  -3   7   2 99.1454 54.1473   8
  -3   7   1 5274.51 447.056   4
   3  -7  -1 5218.85 459.139   1
  -3   7   1 5630.02 313.604   8
  -3   7   0 1957.23 271.219   4
   3  -7   0 1665.88 251.964   1
  -3   7  -1 1370.90 213.944   4
  -3   7  -2 520.203 168.749   2
  -3   7  -3 1028.17 197.620   2
  -3   7  -4-33.3002 95.8789   2
  -3   7  -5 5282.32 454.790   2
  -3   7  -6 1689.82 258.809   2
  -3   7  -7 1816.00 271.301   2
   3  -7   7 1813.49 273.317   8
   3  -7   8 10690.1 684.137   8
  -3   7  -8 10657.6 690.758   6
  -3   7  -8 11026.4 663.443   2
  -3   7  -9 1340.03 257.563   6
  -3   7  -9 1303.27 231.334   2
   3  -7   9 905.173 201.052   8
  -3   7 -10 1225.08 251.745   6
   3  -7  10 1094.39 237.622   8
  -3   7 -10 1238.14 235.754   2
  -3   7 -11 1165.96 249.892   6
   3  -7  11 1639.66 301.746   8
  -3   7 -11 1660.08 274.510   2
  -3   7 -12 36.7642 60.2811   2
  -3   7 -12 217.573 148.533   6
   3  -6 -12 877.637 266.298   1
   3  -6 -11 3908.47 523.837   1
   3  -6 -10 967.640 266.105   1
   3  -6  -9 88.4041 108.994   1
   3  -6  -8 375.605 172.871   1
   3  -6  -7 2538.33 357.001   1
   3  -6  -6 2872.36 373.436   1
  -3   6   6 2786.04 200.905   7
   3  -6  -5 9122.25 638.382   1
  -3   6   5 9237.80 377.046   7
   3  -6  -4 13099.0 743.582   1
   3  -6  -3 10170.8 648.934   1
  -3   6   2 5918.76 345.239   8
   3  -6  -2 7265.10 523.706   1
  -3   6   2 6575.28 469.869   4
  -3   6   1 4927.35 392.269   4
   3  -6  -1 5110.79 430.389   1
  -3   6   1 5248.63 314.201   8
   3  -6   0 8347.94 548.026   1
  -3   6   0 7964.48 487.842   4
  -3   6   0 8307.60 386.603   8
  -3   6  -1 6375.52 434.598   4
  -3   6  -1 7169.80 351.027   8
  -3   6  -2 9573.49 584.899   2
  -3   6  -3 28726.7 1006.18   2
  -3   6  -4 15654.6 738.164   2
  -3   6  -5 296.336 104.114   2
   3  -6   5 286.957 91.7899   4
  -3   6  -6 3261.63 338.553   2
   3  -6   6 2916.83 284.996   4
   3  -6   6 3486.02 350.401   8
  -3   6  -7 1037.78 201.704   2
   3  -6   7 1112.25 202.882   8
  -3   6  -8 2754.81 333.203   6
   3  -6   8 3065.32 350.821   8
  -3   6  -8 2957.03 329.176   2
  -3   6  -9 0.37612 51.9137   6
   3  -6   9-91.8913 101.923   8
  -3   6  -9 3.03636 63.9112   2
   3  -6  10-101.421 67.2479   8
  -3   6 -10-13.2734 86.4393   6
  -3   6 -10 8.66121 51.3546   2
  -3   6 -11 372.141 133.014   6
  -3   6 -11 462.627 143.064   2
   3  -6  11 441.787 150.964   8
  -3   6 -12 4728.36 457.676   2
   3  -6  12 4967.11 522.303   8
  -3   6 -13 1185.07 241.219   2
   3  -5 -12-63.1108 123.350   1
   3  -5 -11 2676.17 423.554   1
   3  -5 -10 2669.43 411.291   1
   3  -5  -9 1230.19 266.177   1
   3  -5  -8 1648.23 298.647   1
   3  -5  -7 511.580 171.180   1
  -3   5   7 445.552 56.4249   7
   3  -5  -6 2170.58 244.392   5
   3  -5  -6 2253.63 310.324   1
  -3   5   6 2393.16 155.442   7
  -3   5   5 3206.90 196.532   7
   3  -5  -5 3255.58 370.162   1
   3  -5  -4 20505.4 898.161   1
   3  -5  -3 7676.32 537.279   1
   3  -5  -2 3474.04 359.096   1
  -3   5   1 5032.36 402.079   1
  -3   5   1 4901.79 356.546   4
   3  -5  -1 4922.92 408.131   1
  -3   5   0 24446.9 778.777   4
   3  -5   0 24008.9 887.137   1
  -3   5   0 24618.5 879.313   1
   3  -5   1 2679.11 301.346   1
  -3   5  -1 2495.21 288.588   1
  -3   5  -1 2703.26 253.469   4
  -3   5  -1 2759.40 217.854   8
  -3   5  -2 258.176 81.7500   1
  -3   5  -2 291.800 80.2719   4
  -3   5  -2 445.310 128.823   2
  -3   5  -2 595.177 106.372   8
  -3   5  -3 378.106 121.174   2
  -3   5  -4 7621.46 488.374   2
   3  -5   5 6785.24 375.131   4
   3  -5   5 6242.76 431.892   8
  -3   5  -5 6024.21 431.502   2
  -3   5  -6 2026.99 254.425   2
   3  -5   6 2040.32 215.413   4
   3  -5   6 1712.04 228.589   8
  -3   5  -7 2186.31 261.538   6
   3  -5   7 2174.86 271.169   8
   3  -5   7 1871.67 212.864   4
  -3   5  -7 2004.50 253.462   2
  -3   5  -8-71.0129 61.3585   6
  -3   5  -8-36.3667 48.3277   2
   3  -5   8-23.1706 62.2529   4
   3  -5   8-50.8243 89.1157   8
  -3   5  -9 9575.98 576.574   2
  -3   5  -9 9272.13 579.526   6
   3  -5   9 9249.58 600.425   8
  -3   5 -10 9408.36 612.434   6
  -3   5 -10 9822.27 604.068   2
   3  -5  10 10309.4 656.978   8
  -3   5 -11 1802.69 282.597   6
  -3   5 -11 1609.96 251.814   2
   3  -5  11 1642.61 275.781   8
   3  -5  12 254.153 124.988   8
   3  -5  12 247.614 139.975   5
  -3   5 -12 379.566 144.493   2
   3  -5  13 144.623 131.591   8
   3  -5  13 189.662 131.224   5
  -3   5 -13 47.7344 61.6685   2
   3  -4 -13 281.635 172.281   1
   3  -4 -12 2467.38 420.389   1
   3  -4 -11 531.969 181.797   1
   3  -4 -10 893.334 255.742   1
   3  -4  -9 6368.28 581.156   1
   3  -4  -8 4960.09 490.336   1
   3  -4  -7 5734.32 507.164   1
   3  -4  -7 5528.49 383.928   5
   3  -4  -6 6704.06 401.333   5
   3  -4  -6 6896.24 530.504   1
  -3   4   6 7104.31 206.686   7
  -3   4   5 7353.51 241.821   7
   3  -4  -5 6622.74 495.997   1
   3  -4  -5 6028.73 354.750   5
   3  -4  -4 12358.2 660.292   1
   3  -4  -3 15726.7 731.654   1
  -3   4   2 1121.31 182.262   1
   3  -4  -2 790.615 167.497   1
  -3   4   1 27230.0 886.317   1
   3  -4  -1 29394.3 942.288   1
  -3   4   0 46977.5 1158.24   1
  -3   4   0 47499.6 949.489   4
   3  -4   0 46343.2 1164.75   1
  -3   4  -1 5091.88 386.365   1
  -3   4  -1 5445.76 318.479   4
   3  -4   1 5505.75 394.330   1
  -3   4  -2 383.177 110.375   1
  -3   4  -2 382.071 83.0611   4
  -3   4  -2 504.743 94.7834   8
  -3   4  -3 12300.0 623.917   1
  -3   4  -3 13417.0 462.377   8
  -3   4  -4 1188.73 204.996   1
  -3   4  -4 1310.56 188.796   2
   3  -4   4 1367.87 147.451   4
   3  -4   5 15855.9 522.178   4
   3  -4   5 15507.1 651.314   8
  -3   4  -5 16031.1 663.102   2
   3  -4   6 11669.2 460.852   4
   3  -4   6 11795.2 590.711   8
  -3   4  -6 12522.2 593.666   2
  -3   4  -7 308.503 90.5268   6
  -3   4  -7 384.704 118.402   2
   3  -4   7 315.922 80.8259   4
   3  -4   7 330.257 108.847   8
  -3   4  -8 1735.76 228.110   2
   3  -4   8 1848.11 247.000   8
  -3   4  -8 1515.79 215.605   6
  -3   4  -9 1693.45 242.620   2
  -3   4  -9 1672.36 229.722   6
   3  -4   9 1896.26 260.055   8
   3  -4  10 270.453 117.219   8
  -3   4 -10 156.939 95.8091   6
  -3   4 -10 92.7348 72.9011   2
  -3   4 -11-37.2023 58.3885   2
   3  -4  11-57.6581 85.7226   8
   3  -4  12 478.225 144.835   8
   3  -4  12 222.106 146.832   5
  -3   4 -12 378.315 140.214   2
  -3   4 -13 71.6881 96.0386   2
   3  -4  13 167.392 115.530   8
   3  -4  14 746.185 210.374   8
   3  -4  14 427.541 209.192   5
  -3   4 -14 450.869 148.251   2
   3  -3 -13-72.4033 126.658   1
   3  -3 -12 550.561 191.658   1
   3  -3 -11 3575.81 456.378   1
   3  -3 -10 1618.82 297.476   1
   3  -3  -9 635.992 212.029   1
   3  -3  -8 1774.48 283.983   1
   3  -3  -7 533.879 117.362   5
   3  -3  -7 629.337 169.299   1
   3  -3  -6 24101.8 936.500   1
   3  -3  -6 22249.0 687.736   5
  -3   3   5 18931.3 298.084   7
   3  -3  -5 19459.7 807.670   1
   3  -3  -5 18221.0 572.067   5
  -3   3   4 8650.16 467.903   1
   3  -3  -4 8191.58 508.837   1
   3  -3  -4 7890.80 352.191   5
  -3   3   3 37034.6 968.106   1
   3  -3  -3 36194.4 1051.08   1
  -3   3   2 53518.3 1160.69   1
   3  -3  -2 51378.1 1213.90   1
  -3   3   1 105630. 1631.35   1
   3  -3  -1 104644. 1690.46   1
  -3   3   0 5611.35 383.742   1
   3  -3   0 4640.96 349.068   1
  -3   3  -1 7369.37 441.292   1
  -3   3  -1 7047.67 311.061   4
   3  -3   1 7294.40 433.626   1
  -3   3  -2 9809.52 351.103   4
  -3   3  -2 10709.3 536.718   1
  -3   3  -3 27434.8 881.937   1
   3  -3   4 39010.8 682.412   4
  -3   3  -4 38203.0 1068.30   1
   3  -3   5 6589.49 408.577   8
   3  -3   5 6354.22 285.362   4
  -3   3  -5 6318.27 438.362   1
  -3   3  -6 106.476 63.2372   6
  -3   3  -6 83.8246 60.3900   2
   3  -3   6 4.55276 26.2180   4
   3  -3   6 3.79347 55.4974   8
  -3   3  -7 9134.43 456.096   6
   3  -3   7 9551.27 524.999   8
  -3   3  -7 9812.41 504.164   2
  -3   3  -8 3676.96 323.316   2
  -3   3  -8 3443.87 300.894   6
   3  -3   8 3396.62 323.861   8
  -3   3  -9 257.772 87.9388   6
   3  -3   9 147.779 101.059   5
  -3   3  -9 174.043 61.8101   2
   3  -3   9 432.467 129.440   8
   3  -3  10 117.210 68.7010   8
  -3   3 -10 30.9285 60.3284   2
   3  -3  10-2.75154 68.6525   5
   3  -3  11 4776.16 494.881   5
  -3   3 -11 4925.86 414.586   2
   3  -3  12 9913.43 647.102   8
   3  -3  12 9565.13 718.771   5
  -3   3 -12 8837.65 581.216   2
  -3   3 -13 3526.72 378.797   2
   3  -3  13 3023.15 436.988   5
   3  -3  13 3520.34 409.102   8
   3  -3  14 142.097 106.665   5
  -3   3 -14 179.700 93.8752   2
   3  -3  14 90.0588 101.932   8
   3  -2 -13 458.140 186.388   1
   3  -2 -12 379.907 153.583   1
   3  -2 -11 508.275 156.829   1
   3  -2 -10 1865.13 310.304   1
   3  -2  -9 2760.65 353.982   1
   3  -2  -8 7330.99 547.988   1
   3  -2  -7 13342.8 701.422   1
   3  -2  -6 7516.87 502.311   1
   3  -2  -5 321.780 66.0868   5
   3  -2  -5 292.203 100.984   1
  -3   2   4 34034.3 509.523   7
   3  -2  -4 34317.4 653.178   5
  -3   2   4 33820.1 884.743   1
  -3   2   3 50.1192 46.8060   1
   3  -2  -3 126.694 35.9046   5
  -3   2   2 95782.6 1481.34   1
  -3   2   1 5153.45 341.720   1
  -3   2   0 10041.9 482.798   1
  -3   2  -1 7921.36 262.810   4
  -3   2  -1 8362.21 446.917   1
  -3   2  -2 399.305 52.8448   4
  -3   2  -2 387.424 97.5567   1
  -3   2  -3 814.909 141.314   1
  -3   2  -4 225.100 95.7494   1
   3  -2   4 170.683 37.2630   4
   3  -2   4 143.581 58.9328   2
   3  -2   5 55178.7 1144.57   2
   3  -2   5 51891.1 1096.77   8
  -3   2  -6 120.035 57.6807   6
   3  -2   6 143.655 62.4879   8
  -3   2  -7 2092.51 228.760   2
   3  -2   7 2555.16 272.661   5
   3  -2   7 2153.23 237.872   8
  -3   2  -7 2161.21 206.749   6
  -3   2  -8 1645.96 213.907   2
   3  -2   8 1504.74 223.345   5
  -3   2  -8 2019.36 217.226   6
   3  -2   8 1767.26 224.215   8
   3  -2   9 1297.63 202.645   8
   3  -2   9 1305.73 231.439   5
  -3   2  -9 1111.13 177.436   2
  -3   2 -10 15591.3 693.519   2
   3  -2  10 15448.3 808.395   5
   3  -2  10 15680.0 718.345   8
   3  -2  11 2146.77 278.333   8
  -3   2 -11 1972.28 262.352   2
   3  -2  11 1987.72 314.275   5
   3  -2  12 68.2510 79.7103   5
  -3   2 -12-19.0286 74.8528   2
   3  -2  12 19.7090 69.7711   8
   3  -2  13 175.680 121.760   5
  -3   2 -13 517.484 148.429   2
   3  -2  13 462.411 152.597   8
  -3   2 -14 2613.24 343.404   2
   3  -2  14 3283.75 465.167   5
   3  -2  14 2837.67 368.803   8
   3  -2  15 125.506 114.147   8
   3  -1 -14 1437.47 329.892   1
   3  -1 -13-56.6464 92.5286   1
   3  -1 -12 2524.20 386.473   1
   3  -1 -11 450.789 152.840   1
   3  -1 -10 7003.58 584.305   1
   3  -1  -9 799.716 198.679   1
   3  -1  -8 9513.08 603.656   1
   3  -1  -7 2286.77 282.880   1
   3  -1  -6 13.0261 85.7806   1
  -3   1   5 47599.8 981.156   2
  -3   1   5 47332.8 996.804   1
  -3   1   4 2882.54 243.087   1
  -3   1   4 2903.17 121.943   7
  -3   1   3 107097. 1470.49   1
  -3   1   3 108278. 915.661   3
  -3   1   3 108516. 962.858   7
  -3   1   2 67284.3 1165.16   1
  -3   1   1 52554.3 1024.55   1
  -3   1   0 175075. 1891.42   1
  -3   1  -1 84323.9 1327.77   1
  -3   1  -2 512.401 119.320   1
   3  -1   3 11013.3 380.210   5
   3  -1   3 11778.4 452.589   2
  -3   1  -3 12023.8 518.199   1
   3  -1   4 32539.4 729.678   5
   3  -1   4 34030.5 814.468   2
  -3   1  -5 43214.8 714.081   6
   3  -1   5 43884.7 952.644   8
   3  -1   5 43935.7 963.900   2
  -3   1  -6 30414.7 660.523   6
   3  -1   6 30714.8 824.675   8
   3  -1   6 30831.3 856.848   2
   3  -1   6 30733.9 865.531   5
  -3   1  -7 11276.3 500.232   2
   3  -1   7 10987.4 551.427   5
   3  -1   7 11293.3 523.461   8
   3  -1   8-46.2018 57.4791   5
  -3   1  -8 88.3289 70.6690   2
   3  -1   8 18.4420 46.4611   8
  -3   1  -9 3103.97 286.920   2
   3  -1   9 3021.70 335.892   5
   3  -1   9 3793.71 331.698   8
   3  -1  10 3290.07 318.211   8
  -3   1 -10 2950.24 297.871   2
   3  -1  10 2919.12 344.499   5
  -3   1 -11 2087.62 264.983   2
   3  -1  11 2407.27 344.611   5
   3  -1  11 2276.28 281.316   8
   3  -1  12 278.827 133.855   5
  -3   1 -12 221.865 94.9241   2
   3  -1  12 474.152 149.096   8
   3  -1  13 2648.91 332.528   8
  -3   1 -13 2343.59 310.925   2
   3  -1  13 2017.31 340.555   5
   3  -1  14 779.333 202.604   8
   3  -1  14 454.280 183.310   5
  -3   1 -14 348.830 120.722   2
   3  -1  15 1446.01 328.745   5
  -3   1 -15 1109.36 234.021   2
   3  -1  15 1651.17 289.604   8
   3   0 -14 409.766 200.671   1
   3   0 -13 1129.20 269.098   1
   3   0 -12 1364.56 293.556   1
   3   0 -11 926.969 226.363   1
  -3   0  11 481.679 144.070   5
   3   0 -10 367.451 145.420   1
  -3   0  10 471.835 141.769   5
   3   0  -9 3064.94 355.658   1
  -3   0   9 3130.53 314.024   5
   3   0  -9 2632.82 186.811   3
  -3   0   8 17535.8 679.033   5
   3   0  -8 17286.4 458.758   3
   3   0  -8 18377.3 818.700   1
   3   0  -7 10723.8 589.746   1
  -3   0   7 10429.3 483.101   5
   3   0  -7 9904.20 338.787   3
  -3   0   6 65466.2 1119.45   2
  -3   0   6 64605.7 1086.20   5
   3   0  -6 62295.4 815.627   3
  -3   0   5 8688.96 388.943   2
  -3   0   5 8156.50 344.805   5
  -3   0   5 8734.51 407.548   1
  -3   0   4 1357.96 122.199   5
  -3   0   4 1295.77 82.6133   7
  -3   0   4 1162.80 148.421   1
  -3   0   3 44271.1 893.771   1
  -3   0   3 43981.5 555.119   5
  -3   0   3 44203.8 594.290   7
  -3   0   3 42642.2 625.773   3
  -3   0   2 29293.0 312.657   5
  -3   0   2 30225.1 734.725   1
  -3   0   2 30086.5 572.574   3
  -3   0   2 30240.8 561.156   7
  -3   0   1 44268.8 883.397   1
  -3   0   1 44012.8 737.130   7
  -3   0   0 2190.48 200.660   1
  -3   0   0 2283.18 178.728   7
  -3   0  -1 10535.6 371.519   2
  -3   0  -1 11392.3 456.175   1
   3   0   2 19840.4 450.637   5
  -3   0  -2 20241.4 516.279   2
  -3   0  -2 20512.2 625.380   1
   3   0   3 16866.6 476.018   5
  -3   0  -3 17432.7 588.710   1
   3   0   3 17580.7 521.918   2
  -3   0  -3 17901.2 505.651   2
  -3   0  -4 117431. 862.889   6
   3   0   4 119469. 1414.57   5
   3   0   4 121217. 1432.21   2
  -3   0  -4 117196. 1344.74   2
   3   0   5 13045.2 497.159   8
   3   0   5 13734.3 514.119   2
  -3   0  -5 13207.8 344.385   6
  -3   0  -6 19880.4 610.945   2
   3   0   6 20299.5 661.919   2
   3   0   6 19201.8 629.805   8
  -3   0  -7 33275.6 826.577   2
   3   0   7 32079.1 963.891   5
   3   0   7 32509.6 848.877   8
  -3   0  -8 2302.04 231.516   2
   3   0   8 2319.70 283.665   5
   3   0   8 2187.15 235.732   8
   3   0   9 499.008 162.711   5
  -3   0  -9 400.225 123.649   2
   3   0   9 479.401 128.410   8
  -3   0 -10 61.4228 48.8984   2
   3   0  10-31.9022 76.5656   8
   3   0  11 1563.19 269.686   5
  -3   0 -11 1492.30 225.910   2
   3   0  11 1765.06 245.445   8
  -3   0 -12 7472.69 515.225   2
   3   0  12 7946.02 639.232   5
   3   0  12 7780.97 523.255   8
  -3   0 -13 5962.97 486.395   2
   3   0  13 6120.72 597.868   5
   3   0  13 6180.51 491.747   8
  -3   0 -14 274.919 109.163   2
   3   0  14 600.289 183.277   8
  -3   0 -15 111.978 92.7951   2
   3   0  15 46.1770 59.6442   8
   3   0  16 991.547 239.630   8
   3   1 -14 27.1952 147.398   1
  -3  -1  14 280.068 164.616   5
   3   1 -13 468.235 183.232   1
  -3  -1  13 319.425 135.780   5
   3   1 -12 3604.78 441.977   1
  -3  -1  12 3494.48 411.615   5
   3   1 -11 854.392 220.901   1
  -3  -1  11 627.884 170.157   5
  -3  -1  10 8627.36 569.594   5
   3   1 -10 7919.52 381.521   3
   3   1 -10 9030.30 621.932   1
   3   1 -10 7498.41 188.031   7
   3   1  -9 186.662 35.5369   7
  -3  -1   9 222.993 68.5295   5
   3   1  -9 154.372 102.171   1
   3   1  -9 302.532 76.3744   3
   3   1  -8 4001.75 377.651   1
   3   1  -8 4234.74 186.453   7
  -3  -1   8 4664.10 361.091   5
   3   1  -8 4218.28 259.893   3
  -3  -1   7 722.821 127.672   5
  -3  -1   7 762.778 120.936   2
   3   1  -7 591.268 99.9627   3
   3   1  -7 730.107 167.024   1
   3   1  -7 665.599 80.4640   7
  -3  -1   6 4964.18 287.677   2
   3   1  -6 5455.97 384.854   1
   3   1  -6 4843.22 264.375   3
  -3  -1   6 5231.59 319.438   5
   3   1  -6 5648.03 228.935   7
  -3  -1   5 1957.89 170.476   2
   3   1  -5 1856.24 162.591   3
   3   1  -5 1924.11 136.758   7
   3   1  -4 991.173 105.069   7
  -3  -1   4 869.811 107.494   2
   3   1  -4 813.867 105.490   3
  -3  -1   4 969.434 129.530   1
  -3  -1   3 35426.9 741.571   1
  -3  -1   3 34246.4 547.559   7
   3   1  -3 36853.7 654.769   7
  -3  -1   2 9396.46 374.996   1
   3   1  -2 10042.4 355.047   7
  -3  -1   2 9762.40 342.506   3
  -3  -1   2 9535.10 317.252   7
   3   1  -1 437.877 76.0117   7
  -3  -1   1 381.125 70.7775   7
  -3  -1   1 390.918 81.8356   1
  -3  -1   1 428.959 75.2377   3
  -3  -1   0 11358.3 414.777   1
   3   1   0 12365.2 428.327   7
  -3  -1   0 11564.6 406.339   7
  -3  -1  -1 1376.78 146.756   1
  -3  -1  -1 1449.67 118.711   2
   3   1   2 136020. 1254.51   2
  -3  -1  -2 138765. 1262.26   5
  -3  -1  -2 137271. 1207.29   2
  -3  -1  -2 138955. 1534.17   1
  -3  -1  -3 72408.4 1023.22   5
  -3  -1  -3 72556.1 916.592   2
   3   1   3 72367.9 974.815   2
  -3  -1  -3 72684.8 970.058   8
   3   1   3 72921.8 659.524   4
  -3  -1  -4 16551.0 547.666   5
  -3  -1  -4 15746.2 436.034   8
   3   1   4 17049.6 508.075   2
  -3  -1  -4 16385.2 463.823   2
  -3  -1  -5 19141.9 534.624   2
  -3  -1  -5 19565.3 642.594   5
   3   1   5 17493.3 543.807   8
   3   1   5 18874.0 570.288   2
  -3  -1  -6 412.426 101.246   5
   3   1   6 269.355 74.6209   2
   3   1   6 328.640 78.5758   8
  -3  -1  -6 396.919 92.3759   2
  -3  -1  -7 12041.6 485.861   2
   3   1   7 11677.8 490.575   8
  -3  -1  -7 12872.5 591.735   7
   3   1   7 12092.6 524.404   2
  -3  -1  -8 5036.83 335.831   2
  -3  -1  -8 5463.57 411.032   7
   3   1   8 4853.06 257.524   6
   3   1   8 5470.00 354.663   8
   3   1   9 115.841 59.1937   6
  -3  -1  -9 111.965 74.2267   2
   3   1   9 191.621 106.047   8
   3   1  10 701.191 122.673   6
  -3  -1 -10 558.215 128.679   2
   3   1  10 530.506 125.109   8
   3   1  11 768.344 136.121   6
  -3  -1 -11 839.375 164.637   2
   3   1  11 866.794 171.308   8
  -3  -1 -12 135.188 89.8896   2
   3   1  12 24.4967 54.7574   8
  -3  -1 -13 563.365 156.463   2
   3   1  13 712.215 175.795   8
  -3  -1 -14 28.0656 60.2161   2
   3   1  14 68.2496 81.2821   8
  -3  -1 -15 99.7851 111.388   2
   3   1  15 307.955 143.393   8
   3   1  16 477.440 180.810   8
  -3  -2  15 2083.69 377.514   5
   3   2 -14 3945.33 502.661   1
  -3  -2  14 4534.39 533.504   5
   3   2 -13 49.5378 132.534   1
  -3  -2  13 64.4317 105.172   5
  -3  -2  12 93.8065 112.262   5
   3   2 -12-28.1476 66.1988   1
   3   2 -11 4482.32 453.361   1
  -3  -2  11 5160.51 481.181   5
   3   2 -10 972.914 112.150   7
   3   2 -10 958.087 200.316   1
  -3  -2  10 1111.65 214.324   5
   3   2  -9-41.0427 79.0383   1
  -3  -2   9 3.65398 53.5058   5
   3   2  -9-14.4250 48.9800   7
   3   2  -8-26.6573 40.2561   7
   3   2  -8-7.49076 66.0076   1
   3   2  -7 13409.7 624.419   1
  -3  -2   7 13455.9 486.559   2
   3   2  -7 13027.5 407.336   7
   3   2  -7 12771.6 480.293   3
   3   2  -6 32287.6 898.203   1
   3   2  -6 31507.0 641.057   7
  -3  -2   6 31094.1 682.667   2
   3   2  -6 29096.3 705.800   3
  -3  -2   5 39370.4 705.038   2
  -3  -2   5 40734.6 1009.27   6
   3   2  -5 38251.3 788.340   3
   3   2  -5 40727.2 719.272   7
   3   2  -4 54700.0 1026.30   1
  -3  -2   4 52810.4 736.494   2
  -3  -2   4 54272.4 1078.34   6
   3   2  -4 52995.1 912.015   3
   3   2  -4 54904.2 851.191   7
  -3  -2   3 66933.2 810.642   7
   3   2  -3 68445.3 1078.32   1
  -3  -2   3 66678.4 920.381   1
  -3  -2   3 65916.9 756.154   2
  -3  -2   3 67449.5 1129.50   6
   3   2  -3 66499.6 1022.35   3
   3   2  -3 67559.7 952.291   7
  -3  -2   2 21027.4 571.674   6
   3   2  -2 20892.6 569.783   1
  -3  -2   2 21409.7 514.837   1
   3   2  -2 20985.2 573.954   3
  -3  -2   2 22552.1 547.960   3
   3   2  -2 22016.4 556.969   7
  -3  -2   2 21301.4 492.066   7
   3   2  -1 79932.3 1068.36   1
  -3  -2   1 80252.4 983.768   1
  -3  -2   1 79095.6 989.995   6
  -3  -2   1 80928.9 1107.81   3
   3   2  -1 78290.8 1103.86   7
  -3  -2   1 80420.7 1027.83   7
  -3  -2   0 217356. 1153.67   2
  -3  -2   0 212598. 1382.52   6
  -3  -2   0 216588. 1605.02   1
  -3  -2   0 211953. 1761.36   7
   3   2   0 215249. 1657.58   1
   3   2   0 213846. 1872.19   7
  -3  -2  -1 4551.17 160.618   6
  -3  -2  -1 4558.95 218.218   4
  -3  -2  -1 4586.91 243.804   1
   3   2   1 4484.95 283.687   7
  -3  -2  -1 4507.68 175.288   2
  -3  -2  -2 6249.02 223.110   2
   3   2   2 6132.73 348.129   7
  -3  -2  -2 6501.98 249.255   4
  -3  -2  -2 6923.72 314.047   1
   3   2   2 6682.67 250.405   2
   3   2   3 21.2446 56.0663   7
   3   2   3 7.54928 31.8885   2
  -3  -2  -3-0.60130 21.5343   2
   3   2   3-0.09475 27.6559   4
  -3  -2  -3-24.8115 33.9741   8
  -3  -2  -4 717.268 125.732   5
   3   2   4 661.771 95.9691   2
   3   2   4 546.075 85.6990   4
  -3  -2  -4 581.477 83.5505   2
  -3  -2  -4 590.947 85.9758   8
  -3  -2  -5 6894.15 314.742   2
   3   2   5 6223.04 170.905   6
  -3  -2  -5 6659.81 397.253   5
   3   2   5 6718.80 329.601   2
   3   2   6 554.239 69.3569   6
  -3  -2  -6 898.461 154.092   5
   3   2   6 619.934 106.550   2
   3   2   6 505.574 89.5642   8
  -3  -2  -6 618.394 104.401   2
   3   2   7 18.8096 29.7159   6
   3   2   7 33.9199 41.3011   8
   3   2   7 52.2347 31.3814   2
  -3  -2  -7 103.602 65.4415   2
  -3  -2  -7 34.1000 52.5779   7
  -3  -2  -8 38122.7 1039.59   7
   3   2   8 36255.2 705.460   6
  -3  -2  -8 36736.2 900.609   2
   3   2   8 36632.3 889.083   8
  -3  -2  -9 4378.67 337.614   2
   3   2   9 4442.70 330.120   8
   3   2   9 4072.71 262.592   6
   3   2  10 1028.54 145.761   6
  -3  -2 -10 1419.30 203.006   2
   3   2  10 1311.27 189.154   8
   3   2  11-7.83465 33.6875   6
  -3  -2 -11-6.31279 71.3678   2
   3   2  11 50.2586 71.0308   8
  -3  -2 -12-8.51489 55.9035   2
   3   2  12 167.250 89.3761   8
  -3  -2 -13 1256.34 228.595   2
   3   2  13 1363.45 226.135   8
  -3  -2 -14 126.104 120.914   2
   3   2  14 140.560 96.6326   8
  -3  -2 -15 4202.87 462.578   2
   3   2  15 4394.79 444.548   8
   3   2  16 915.848 212.669   8
  -3  -3  15 342.935 161.919   5
   3   3 -14 2015.89 365.505   1
  -3  -3  14 1830.34 348.228   5
   3   3 -13 2601.07 381.581   1
  -3  -3  13 3013.15 416.507   5
   3   3 -12 411.074 147.890   1
  -3  -3  12 207.967 108.609   5
   3   3 -11 4727.98 461.822   1
  -3  -3  11 5858.92 522.483   5
   3   3 -11 4830.00 297.609   7
   3   3 -10 294.188 114.306   1
   3   3 -10 47.2499 45.0753   7
   3   3  -9 1546.79 236.888   1
   3   3  -9 1520.15 164.356   7
  -3  -3   8 27483.4 745.975   2
   3   3  -8 25863.6 659.963   7
   3   3  -8 29493.7 954.099   1
  -3  -3   7 2065.94 189.962   2
   3   3  -7 1592.81 212.052   1
   3   3  -7 1697.96 172.487   7
   3   3  -6 118.669 79.8635   1
  -3  -3   6 108.278 42.3188   2
   3   3  -6 88.9090 49.5636   7
  -3  -3   5 13960.1 401.577   2
  -3  -3   5 14418.7 600.873   6
   3   3  -5 13692.8 464.841   7
   3   3  -5 13327.9 507.545   3
   3   3  -4 3355.30 243.233   1
  -3  -3   4 2970.12 163.100   2
  -3  -3   4 3311.90 269.656   6
   3   3  -4 3247.89 246.666   3
   3   3  -4 2769.77 210.128   7
   3   3  -3 33918.2 715.800   1
  -3  -3   3 34963.2 810.778   6
   3   3  -3 32521.2 721.383   7
  -3  -3   3 33335.7 464.770   2
   3   3  -3 33461.3 779.404   3
   3   3  -2 476.595 92.0910   7
  -3  -3   2 390.554 80.1190   7
  -3  -3   2 322.915 76.4500   6
  -3  -3   2 356.359 38.0083   2
  -3  -3   2 316.715 56.3417   1
   3   3  -2 366.368 77.4533   1
   3   3  -2 339.106 83.3889   3
   3   3  -1-33.9698 36.0051   7
  -3  -3   1 28.0285 43.0655   7
  -3  -3   1 15.8990 24.4106   1
   3   3  -1 33.2795 37.5263   1
  -3  -3   1 94.6687 51.4165   6
   3   3  -1-19.5226 47.9440   3
   3   3   0 57450.7 810.470   6
  -3  -3   0 58075.6 951.946   4
   3   3   0 57266.1 761.942   1
   3   3   0 55398.4 1004.06   7
  -3  -3   0 58701.2 734.007   1
   3   3   1 2742.94 153.502   6
  -3  -3  -1 2890.37 107.023   2
   3   3   1 2623.14 118.696   2
  -3  -3  -1 2715.00 164.695   1
  -3  -3  -1 2742.37 200.121   4
   3   3   1 2635.74 223.905   7
   3   3   2 4615.61 316.514   7
  -3  -3  -2 4831.59 176.560   2
   3   3   2 4863.83 177.410   6
  -3  -3  -2 4848.21 259.495   4
   3   3   2 4665.95 272.944   4
  -3  -3  -2 4512.07 231.091   1
   3   3   2 4817.45 191.479   2
  -3  -3  -3 1559.10 131.643   8
  -3  -3  -3 1677.11 127.342   2
   3   3   3 1884.73 141.540   2
   3   3   3 2003.32 235.040   7
   3   3   3 1452.32 155.317   4
   3   3   4 24614.1 555.555   2
  -3  -3  -4 25500.5 543.983   2
   3   3   4 25327.0 779.118   7
   3   3   4 24796.8 628.227   4
  -3  -3  -4 24936.8 477.961   8
   3   3   5 6034.65 302.641   2
  -3  -3  -5 5751.57 287.353   2
  -3  -3  -5 5751.04 387.901   5
   3   3   5 5602.73 380.859   7
   3   3   6 8027.57 382.822   2
  -3  -3  -6 7645.25 359.651   2
  -3  -3  -6 7954.51 477.586   5
  -3  -3  -6 7793.84 435.826   7
   3   3   7 14341.4 551.158   2
  -3  -3  -7 14827.4 538.844   2
  -3  -3  -7 15020.4 623.759   7
   3   3   7 14297.9 496.542   8
   3   3   8-28.4376 68.9669   8
  -3  -3  -8 67.2384 55.9571   7
  -3  -3  -8 21.1388 52.1879   2
  -3  -3  -9 1478.40 203.065   2
   3   3   9 1299.23 175.003   8
   3   3  10 1087.87 153.783   6
  -3  -3 -10 1201.48 196.791   2
   3   3  10 1308.15 186.679   8
  -3  -3 -11 259.209 109.937   2
   3   3  11 91.8783 77.9725   8
  -3  -3 -12 391.458 131.482   2
   3   3  12 341.831 119.738   8
  -3  -3 -13 5108.23 473.911   2
   3   3  13 4887.68 418.919   8
  -3  -3 -14 122.884 106.529   2
   3   3  14 372.501 133.867   8
  -3  -3 -15 682.211 216.468   2
   3   3  15 789.636 187.905   8
   3   4 -14 416.143 164.268   1
  -3  -4  14 216.102 111.505   5
   3   4 -13 1578.39 299.446   1
  -3  -4  13 1364.76 280.293   5
  -3  -4  12 4235.69 493.354   5
   3   4 -12 4523.94 469.139   1
   3   4 -11 336.398 99.2031   7
   3   4 -11 523.335 166.965   1
   3   4 -10 142.104 91.1688   1
   3   4 -10 106.989 60.1230   7
   3   4  -9-3.96029 77.4166   1
   3   4  -9 24.6326 44.7146   7
   3   4  -9 16.0468 43.6762   2
   3   4  -8 562.796 117.537   7
  -3  -4   8 480.359 103.394   2
   3   4  -8 487.259 118.258   1
   3   4  -8 456.468 109.883   2
  -3  -4   7 10246.9 418.318   2
   3   4  -7 10027.2 451.171   7
   3   4  -7 10672.9 526.980   1
   3   4  -6 842.590 137.454   1
   3   4  -6 998.920 131.496   2
  -3  -4   6 846.296 110.356   2
   3   4  -6 917.164 143.385   7
   3   4  -5 1576.31 189.034   3
  -3  -4   5 1336.30 123.448   2
   3   4  -5 1342.95 163.597   7
  -3  -4   4 21700.5 426.288   2
  -3  -4   4 22646.0 730.575   6
   3   4  -4 21113.5 635.284   7
   3   4  -4 23074.7 704.185   3
   3   4  -4 22887.1 609.029   1
   3   4  -3 163.706 51.2899   1
  -3  -4   3 143.208 30.5627   2
   3   4  -3 275.702 76.4006   3
   3   4  -3 195.704 69.1638   7
   3   4  -2 2903.39 180.294   1
   3   4  -2 2839.06 243.899   3
   3   4  -2 2674.11 220.750   7
  -3  -4   1 92216.5 1183.56   7
   3   4  -1 95477.8 1248.13   6
   3   4  -1 94098.4 917.069   1
   3   4  -1 89771.2 1318.25   7
   3   4  -1 91489.5 1389.94   3
  -3  -4   0 12405.1 244.795   1
   3   4   0 12960.1 430.420   6
  -3  -4   0 12660.1 496.048   4
   3   4   0 12836.2 525.045   3
   3   4   0 12216.4 499.011   7
   3   4   1 12328.5 220.459   2
   3   4   1 12846.9 389.135   6
  -3  -4  -1 12272.8 280.316   1
  -3  -4  -1 13219.9 501.674   4
   3   4   1 13146.0 527.952   7
  -3  -4  -2 25834.9 416.501   2
  -3  -4  -2 27236.2 705.263   4
   3   4   2 27077.0 741.575   4
   3   4   2 25677.5 774.641   7
  -3  -4  -2 26762.3 490.816   1
   3   4   2 25976.2 416.656   2
   3   4   3 534.381 73.2317   2
   3   4   3 447.883 98.6205   4
  -3  -4  -3 457.093 63.9545   8
  -3  -4  -3 425.537 67.5341   2
   3   4   3 388.685 99.1799   7
   3   4   4 78.9023 32.8874   2
  -3  -4  -4 62.3431 37.9509   2
   3   4   4 128.802 78.5785   7
  -3  -4  -4 130.855 37.3308   8
  -3  -4  -5 13216.4 548.175   7
  -3  -4  -5 12992.3 450.187   2
   3   4   5 12739.0 439.111   2
   3   4   5 12852.1 597.503   7
  -3  -4  -6 10452.8 436.132   2
   3   4   6 10363.3 549.980   7
   3   4   6 10074.3 427.805   2
  -3  -4  -6 10505.6 508.580   7
  -3  -4  -7 1843.22 203.465   2
  -3  -4  -7 1805.47 224.395   7
   3   4   7 1841.82 198.278   2
  -3  -4  -8 1938.21 218.998   2
   3   4   9 305.786 76.6560   8
  -3  -4  -9 479.098 130.157   2
  -3  -4 -10 464.356 119.772   2
   3   4  10 383.469 105.766   8
  -3  -4 -11 3703.54 367.476   2
   3   4  11 4137.40 332.068   8
  -3  -4 -12 3871.89 409.926   2
   3   4  12 4526.40 364.316   8
   3   4  13 122.632 69.9189   8
  -3  -4 -13 146.843 104.862   2
  -3  -4 -14 245.385 146.766   1
  -3  -4 -14 580.212 192.220   2
  -3  -4 -15 315.489 136.039   1
   3   5 -14 806.097 226.917   1
  -3  -5  14 1383.71 338.753   5
  -3  -5  13 3275.87 463.744   5
   3   5 -13 2882.65 395.359   1
   3   5 -12 1731.05 286.462   1
   3   5 -11 1309.67 252.129   1
   3   5 -11 1233.94 184.887   7
   3   5 -11 1125.18 203.129   2
   3   5 -10 1526.53 242.572   1
   3   5 -10 1281.43 191.855   7
   3   5 -10 1465.56 210.472   2
   3   5  -9 2292.64 242.035   2
   3   5  -9 2294.70 271.867   1
   3   5  -9 1851.78 224.911   7
   3   5  -8 1717.12 190.964   2
  -3  -5   8 1417.64 173.554   2
   3   5  -8 1739.80 232.272   1
   3   5  -8 1614.40 209.076   7
   3   5  -7 1092.13 165.092   1
   3   5  -7 1094.14 171.886   7
  -3  -5   7 1027.05 140.207   2
  -3  -5   6 57449.8 921.305   2
   3   5  -6 57318.0 1165.25   7
   3   5  -5 24367.0 527.623   2
   3   5  -5 24784.1 749.384   7
  -3  -5   5 24473.6 534.872   2
   3   5  -4 3331.79 220.357   1
   3   5  -4 3237.66 307.232   6
   3   5  -4 3185.26 163.945   2
  -3  -5   4 3292.32 172.350   2
   3   5  -4 3277.43 268.997   7
   3   5  -3 24746.7 790.154   6
   3   5  -3 23619.1 758.714   3
   3   5  -3 23133.3 527.281   1
   3   5  -3 23661.9 725.110   7
   3   5  -2 1580.24 121.892   1
   3   5  -2 1513.53 182.757   7
  -3  -5   2 1553.36 203.454   4
   3   5  -2 1539.11 198.695   3
  -3  -5   1 38167.2 972.848   4
   3   5  -1 38070.5 958.496   3
   3   5  -1 35452.5 894.518   7
  -3  -5   0 1352.28 181.735   4
   3   5   0 1166.55 168.089   3
   3   5   0 1310.56 153.294   6
   3   5   0 1329.57 190.199   7
   3   5   1 22213.1 285.716   2
  -3  -5  -1 23661.3 728.129   4
   3   5   1 22715.0 748.908   3
   3   5   1 21556.5 721.591   7
   3   5   2 1312.77 94.8572   2
   3   5   2 1419.94 191.903   7
  -3  -5  -2 1105.32 81.1256   1
  -3  -5  -2 1483.19 186.112   3
   3   5   3 34584.4 959.813   7
   3   5   3 35626.9 584.691   2
  -3  -5  -3 36107.8 896.690   3
  -3  -5  -3 35219.3 489.102   8
  -3  -5  -3 36462.2 860.339   7
   3   5   4 13735.7 415.019   2
   3   5   4 14561.3 611.876   4
  -3  -5  -4 14575.6 584.804   3
   3   5   4 14152.7 636.366   7
  -3  -5  -4 14085.3 556.590   7
   3   5   5 3080.37 305.556   7
   3   5   5 2909.93 214.746   2
   3   5   5 3510.61 308.193   4
  -3  -5  -5 3227.18 291.261   3
  -3  -5  -5 2870.97 259.796   7
   3   5   6 8688.37 399.587   2
  -3  -5  -6 8906.42 424.817   2
   3   5   6 8688.06 502.672   4
   3   5   6 8338.91 525.022   7
  -3  -5  -6 8864.85 489.415   3
  -3  -5  -7 2375.92 242.519   2
   3   5   7 2304.43 284.015   7
  -3  -5  -7 2414.30 260.714   3
  -3  -5  -8 6399.58 419.331   2
  -3  -5  -8 6568.83 435.544   3
   3   5   8 6278.31 468.179   7
  -3  -5  -9 16584.9 716.405   2
  -3  -5  -9 17928.3 736.471   3
  -3  -5 -10 33.6755 59.2466   3
  -3  -5 -10 182.252 82.8114   2
  -3  -5 -11 2784.23 328.872   2
   3   5  11 2726.36 249.836   8
  -3  -5 -11 2836.29 298.440   1
  -3  -5 -12-78.7508 58.5840   3
   3   5  12-18.3707 43.4573   8
  -3  -5 -12 31.7735 53.4308   1
  -3  -5 -13 208.925 105.876   1
  -3  -5 -14 908.294 210.794   1
  -3  -5 -15 20.1938 77.9223   1
   3   6 -14 305.428 162.019   1
   3   6 -13 364.380 139.042   1
   3   6 -12 486.721 167.151   1
   3   6 -12 575.008 148.724   7
   3   6 -12 555.722 140.842   2
   3   6 -11 4910.01 400.075   7
   3   6 -11 5331.11 413.527   2
   3   6 -11 5018.57 463.841   1
   3   6 -10 6769.22 435.044   2
   3   6 -10 7154.91 520.842   1
   3   6 -10 6470.27 456.975   7
   3   6  -9 95.3819 87.4333   7
   3   6  -9 56.9215 89.8839   1
   3   6  -9 111.266 49.0655   2
   3   6  -8 989.633 165.751   1
   3   6  -8 1078.97 189.388   7
  -3  -6   8 1025.07 150.376   2
   3   6  -8 936.257 139.767   2
  -3  -6   7 19392.9 605.056   2
   3   6  -7 20337.5 709.329   1
   3   6  -7 19165.6 741.237   7
   3   6  -6 15151.9 460.361   2
  -3  -6   6 14791.1 483.553   2
   3   6  -6 13766.6 615.626   7
   3   6  -5 261.796 69.7402   1
   3   6  -5 452.060 127.452   7
   3   6  -5 185.770 97.8680   6
  -3  -6   5 299.490 62.2650   2
   3   6  -5 425.520 69.7672   2
   3   6  -4 548.374 129.044   7
   3   6  -4 823.115 113.311   1
   3   6  -4 762.728 75.4203   2
   3   6  -4 836.089 168.634   6
   3   6  -3 2358.02 156.929   1
   3   6  -3 2258.87 256.189   6
   3   6  -3 2061.41 93.0442   2
   3   6  -3 2182.52 237.960   7
   3   6  -2 276.655 96.5443   7
   3   6  -2 249.629 83.4708   6
   3   6  -2 157.242 34.1297   1
   3   6  -1 2205.76 230.624   6
   3   6  -1 2144.99 243.258   7
   3   6   0 41143.3 1034.96   7
   3   6   1 38511.6 428.779   2
   3   6   1 37388.7 1005.92   7
   3   6   2 1840.80 121.562   2
   3   6   2 1887.82 242.391   4
   3   6   2 2167.97 248.563   7
  -3  -6  -3 1357.60 88.4845   1
   3   6   3 1535.95 221.277   7
   3   6   3 1289.81 196.571   4
  -3  -6  -3 1192.49 68.8652   8
   3   6   3 1308.82 117.668   2
   3   6   4 608.386 157.655   7
   3   6   4 580.242 137.066   4
   3   6   4 421.646 75.0685   2
  -3  -6  -4 541.980 135.303   3
  -3  -6  -4 398.227 63.3585   1
   3   6   5-10.7212 95.9777   7
  -3  -6  -5-1.19015 33.7875   1
   3   6   5 159.362 103.693   4
   3   6   5 31.9905 39.3683   2
  -3  -6  -5-43.3890 52.0263   3
   3   6   6 13239.0 502.926   2
   3   6   6 13571.3 678.416   4
  -3  -6  -6 13162.7 589.394   3
   3   6   6 13013.5 678.264   7
  -3  -6  -6 14082.7 457.796   1
  -3  -6  -7 1634.12 178.881   1
   3   6   7 1893.93 260.459   4
  -3  -6  -7 1949.80 233.347   3
   3   6   7 2116.01 286.154   7
   3   6   8-79.5435 91.0362   7
   3   6   8 34.1293 101.642   4
  -3  -6  -8 17.9276 55.4992   3
  -3  -6  -8 71.2654 60.4563   1
  -3  -6  -9 214.443 86.4586   3
  -3  -6  -9 316.070 105.419   1
  -3  -6 -10 297.770 99.1002   3
  -3  -6 -10 285.077 115.455   1
  -3  -6 -11 749.284 151.762   3
  -3  -6 -11 690.136 157.692   1
  -3  -6 -12 60.6528 88.0532   1
  -3  -6 -13 304.776 111.333   1
  -3  -6 -14 304.759 99.9667   1
  -3  -6 -15-149.496 121.241   1
   3   7 -13 267.931 108.626   1
   3   7 -12 2885.23 370.494   1
   3   7 -12 2827.27 336.471   7
   3   7 -11 1306.63 244.695   1
   3   7 -11 1525.47 247.590   7
   3   7 -10 647.563 163.456   1
   3   7 -10 565.492 153.756   7
   3   7 -10 846.043 156.008   2
   3   7  -9 1729.95 203.292   2
   3   7  -9 1841.55 269.587   7
   3   7  -9 1984.97 258.346   1
   3   7  -8 862.772 157.426   1
   3   7  -8 952.743 186.065   7
   3   7  -8 976.215 141.342   2
   3   7  -7 130.213 63.2464   1
   3   7  -7 126.412 82.9636   7
   3   7  -6 7850.80 583.128   6
   3   7  -6 8279.50 326.611   2
   3   7  -6 6983.49 477.444   7
   3   7  -5 556.348 103.092   1
   3   7  -5 608.353 149.313   7
   3   7  -5 668.930 163.196   6
   3   7  -5 594.687 77.2785   2
   3   7  -4 9893.05 352.888   1
   3   7  -4 9413.72 256.506   2
   3   7  -4 10188.6 599.732   6
   3   7  -4 9426.91 536.678   7
   3   7  -3 8998.56 272.766   1
   3   7  -3 9170.07 199.848   2
   3   7  -3 9663.19 565.920   6
   3   7  -3 10024.7 549.286   7
   3   7  -2 4154.86 361.805   6
   3   7  -2 3823.72 344.521   7
   3   7  -1 743.955 150.376   7
   3   7  -1 974.686 170.903   6
   3   7   0 90.7429 22.6681   2
   3   7   0 97.7910 22.0872   2
   3   7   1 289.737 123.468   7
   3   7   1 263.492 44.3386   2
   3   7   2 515.458 152.775   7
   3   7   2 319.050 96.0518   4
   3   7   2 382.408 66.0430   2
   3   7   3 12075.1 628.116   7
   3   7   3 12731.8 390.029   2
   3   7   3 13337.6 683.178   4
   3   7   4 3219.31 216.033   2
  -3  -7  -4 3069.68 168.253   1
   3   7   4 3173.81 339.123   4
   3   7   4 3486.31 353.426   7
  -3  -7  -5 2746.89 190.689   1
   3   7   5 3052.41 229.722   2
   3   7   5 2999.21 342.916   4
   3   7   5 3068.99 341.006   7
  -3  -7  -6 6656.79 335.923   1
   3   7   6 7370.49 547.571   4
   3   7   6 6500.33 502.192   7
   3   7   6 6876.79 371.222   2
   3   7   7 958.295 198.897   7
   3   7   7 794.545 187.663   4
  -3  -7  -7 1117.72 185.066   3
  -3  -7  -7 777.367 126.093   1
   3   7   8 2077.56 310.388   4
  -3  -7  -8 2630.18 279.162   3
   3   7   8 2300.43 320.830   7
  -3  -7  -8 2162.92 230.625   1
   3   7   9 693.644 175.787   7
  -3  -7  -9 578.129 131.116   1
   3   7   9 858.695 196.938   4
  -3  -7  -9 812.490 165.595   3
   3   7  10 4104.33 446.735   4
  -3  -7 -10 3935.89 345.898   3
  -3  -7 -10 3799.67 353.511   1
  -3  -7 -11 745.281 177.509   1
  -3  -7 -12 23.9937 67.4638   1
  -3  -7 -13 136.152 77.1075   1
  -3  -7 -14 648.628 192.683   1
   3   8 -12 350.436 136.995   7
   3   8 -11 4779.76 475.218   7
   3   8 -10 480.585 148.221   1
   3   8 -10 452.960 164.198   7
   3   8  -9 1607.69 230.828   1
   3   8  -9 1775.53 280.205   7
   3   8  -8 4389.48 353.186   1
   3   8  -8 4196.60 424.049   7
   3   8  -7 653.344 127.937   1
   3   8  -7 531.663 151.411   7
   3   8  -7 424.325 145.039   6
   3   8  -6 7425.84 305.651   2
   3   8  -6 7131.51 586.779   6
   3   8  -6 7194.34 527.251   7
   3   8  -5 11089.2 329.297   2
   3   8  -5 11179.7 697.094   6
   3   8  -5 12311.0 431.209   1
   3   8  -5 11338.7 645.475   7
   3   8  -4 551.947 157.273   7
   3   8  -4 569.047 65.2849   2
   3   8  -4 592.471 81.0912   1
   3   8  -4 715.571 181.095   6
   3   8  -3 229.323 94.2727   7
   3   8  -3 145.247 116.054   6
   3   8  -3 125.775 26.7927   2
   3   8  -2 5188.42 143.530   2
   3   8  -2 6205.60 475.113   6
   3   8  -2 5647.35 445.089   7
   3   8  -1 69.5309 73.2611   7
   3   8  -1 20.1453 14.8831   2
   3   8  -1 26.6732 14.8573   2
   3   8   0 5677.18 187.844   2
   3   8   0 5669.72 444.009   7
   3   8   0 5257.76 199.043   2
   3   8   1 2974.95 159.280   2
   3   8   1 3191.37 336.041   7
   3   8   2 6766.52 271.185   2
   3   8   2 6823.44 500.378   7
   3   8   2 7079.95 533.849   4
   3   8   3 9871.32 635.066   4
   3   8   3 9941.09 364.454   2
   3   8   3 10063.4 613.345   7
   3   8   4 38389.1 1222.08   7
   3   8   4 40013.4 799.189   2
   3   8   4 40548.3 1300.74   4
   3   8   5 4719.61 297.522   2
  -3  -8  -5 4596.79 240.698   1
   3   8   5 4906.44 464.904   4
   3   8   5 4833.13 445.986   7
   3   8   6 2377.61 317.420   7
  -3  -8  -6 2441.14 206.065   1
   3   8   6 2099.75 315.148   4
   3   8   7 783.468 186.524   7
  -3  -8  -7 780.470 138.361   1
   3   8   7 838.815 209.578   4
  -3  -8  -8 2980.37 278.828   1
   3   8   8 3246.01 414.756   4
   3   8   8 2922.59 365.461   7
  -3  -8  -9 2659.61 285.690   1
   3   8   9 2506.66 374.792   4
   3   8   9 2684.93 354.221   7
   3   8  10 64.1618 86.7799   7
  -3  -8 -10 126.499 72.3014   1
   3   8  10 205.574 141.141   4
   3   8  11-31.8277 82.0257   4
   3   8  12 47.9055 76.6340   4
   3   9 -11 1699.30 297.387   7
   3   9 -10 1752.56 303.713   7
   3   9  -9 1272.60 264.408   7
   3   9  -8-38.4458 88.5214   7
   3   9  -8 8.35231 64.8783   6
   3   9  -7 11.6559 74.1905   7
   3   9  -7 54.3936 105.679   6
   3   9  -6 75.4167 78.7841   7
   3   9  -6-25.4035 98.4594   6
   3   9  -5 734.946 181.944   7
   3   9  -5 984.244 216.011   6
   3   9  -4 2981.49 376.122   6
   3   9  -4 2485.43 325.299   7
   3   9  -3 313.394 121.832   7
   3   9  -3 280.483 114.658   6
   3   9  -2 1008.10 75.7224   2
   3   9  -2 1214.87 229.783   6
   3   9  -2 1184.81 220.318   7
   3   9  -1 9143.75 600.119   7
   3   9  -1 8383.35 240.995   2
   3   9   0 43.4745 88.8448   7
   3   9   0 76.5350 29.7028   2
  -3  -9  -1 8745.45 206.095   8
   3   9   1 9092.78 339.252   2
   3   9   1 9302.14 617.342   7
   3   9   2-11.1271 78.7804   7
   3   9   3 256.676 130.673   7
   3   9   3 15.8488 102.470   4
   3   9   4 493.849 157.177   4
   3   9   4 923.641 208.423   7
   3   9   5 911.294 194.691   7
   3   9   5 1080.05 240.932   4
   3   9   6 336.205 149.457   7
   3   9   6 207.905 114.220   4
   3   9   7-65.5707 86.6131   7
   3   9   7-2.01846 91.0251   4
   3   9   8 171.136 110.352   7
   3   9   8 102.346 95.1901   4
   3   9   9 413.100 206.718   4
   3   9   9 156.523 88.1403   7
   3   9  10 201.710 130.115   7
   3   9  10 49.2665 105.928   4
   3   9  11 4.21565 137.428   4
   3  10 -10 1159.50 267.323   7
   3  10  -9 3462.62 444.881   7
   3  10  -8-11.3996 67.6522   7
   3  10  -8-106.302 125.577   6
   3  10  -7-16.2640 84.6298   7
   3  10  -7-150.534 161.865   6
   3  10  -6 1073.19 240.813   7
   3  10  -6 749.831 219.961   6
   3  10  -5 981.508 231.540   7
   3  10  -5 1213.49 264.844   6
   3  10  -4 3198.27 419.600   6
   3  10  -4 3299.27 400.234   7
   3  10  -3 1511.81 267.104   7
   3  10  -3 1885.09 305.052   6
   3  10  -2-42.4268 114.386   7
   3  10  -2 85.6699 84.8435   6
   3  10  -1 829.948 181.308   7
   3  10   0-188.760 162.859   7
   3  10   1 742.454 201.204   7
   3  10   2 1836.24 296.679   7
   3  10   3 1699.15 306.935   4
   3  10   3 2554.44 363.937   7
   3  10   4 123.497 105.163   7
   3  10   4 203.033 137.051   4
   3  10   5 3788.55 445.831   7
   3  10   5 4011.66 477.681   4
   3  10   6 2623.36 398.928   4
   3  10   6 2772.16 387.032   7
   3  10   7 28.9352 116.530   7
   3  10   7 43.0432 85.2140   4
   3  10   8-4.94016 101.645   7
   3  10   8-86.4434 103.912   4
   3  10   9-132.069 115.362   7
   3  10   9 217.804 172.270   4
   3  11  -7 823.349 224.884   7
   3  11  -6 2238.45 362.373   7
   3  11  -6 1349.84 298.211   6
   3  11  -5 183.025 124.694   7
   3  11  -5 156.686 135.632   6
   3  11  -4 685.199 190.589   7
   3  11  -4 179.972 82.4003   6
   3  11  -3 4384.63 488.420   6
   3  11  -3 4390.27 488.380   7
   3  11  -2 113.589 105.549   7
   3  11  -2 264.643 141.239   6
   3  11  -1 879.517 208.477   7
   3  11   0-266.807 168.884   7
   3  11   1 1155.07 262.541   7
   3  11   2 196.979 167.296   7
   3  11   3 3273.76 425.077   7
   3  11   4 3625.13 478.731   4
   3  11   4 3929.59 471.156   7
   3  11   5 112.283 123.841   7
   3  11   5 126.622 117.591   4
   3  11   6 237.438 160.693   4
   3  11   6 99.6277 118.390   7
   3  11   7 1463.50 300.821   7
   3  11   7 1360.45 307.878   4
   3  11   8 852.825 216.073   7
   3  12  -4 196.681 131.728   6
   3  12  -3-98.8290 91.7988   6
   3  12  -3-113.163 110.666   7
   3  12  -2 742.584 219.578   7
   3  12  -2 957.645 233.319   6
   3  12  -1 19.2214 116.760   7
   3  12  -1 10.9749 80.2277   6
   3  12   0 810.656 216.757   7
   3  12   1 3614.71 475.681   7
   3  12   2 767.600 237.315   7
   3  12   3 531.641 205.188   7
   3  12   4 416.328 186.850   7
   3  12   5 503.115 188.529   7
   3  12   6 1228.90 290.093   7
   3  12   7 907.510 240.741   7
  -4  11   2 323.177 159.005   4
  -4  11   1 447.899 178.170   4
   4 -10  -5 165.132 141.470   1
  -4  10   5 24.8040 88.6295   4
  -4  10   4 2184.81 383.598   4
   4 -10  -4 1635.54 326.410   1
  -4  10   3 6146.23 627.312   4
   4 -10  -3 5907.54 597.992   1
  -4  10   2 1367.89 286.153   4
  -4  10   1-13.0712 110.219   4
  -4  10   0-12.7811 118.388   2
  -4  10  -1-188.809 136.070   2
  -4  10  -2 457.965 200.685   2
  -4  10  -3 111.123 84.7826   2
  -4  10  -4 2917.25 413.652   2
  -4  10  -5 1052.19 285.526   2
  -4  10  -6 1917.21 331.793   2
   4  -9  -8 413.583 178.021   1
   4  -9  -7 481.121 211.015   1
   4  -9  -6 373.994 172.115   1
  -4   9   6 856.407 302.819   4
   4  -9  -5 655.445 209.819   1
  -4   9   5 791.606 232.522   4
  -4   9   4 5529.34 572.017   4
   4  -9  -4 5106.32 551.739   1
   4  -9  -3-21.3339 95.2438   1
  -4   9   3-38.0415 119.293   4
   4  -9  -2 313.357 148.739   1
  -4   9   2 199.280 135.996   4
  -4   9   1 31.7693 112.311   4
  -4   9   0-120.817 97.5150   4
  -4   9  -1 6964.87 642.273   2
  -4   9  -2 2030.87 348.572   2
  -4   9  -3 1688.91 305.435   2
  -4   9  -4 1373.24 286.765   2
  -4   9  -5 3349.37 422.529   2
  -4   9  -6 2424.62 359.369   2
  -4   9  -7 408.395 158.145   2
  -4   9  -8-29.6108 59.8022   6
  -4   9  -8 6.35005 82.1767   2
  -4   9  -9 245.613 143.532   6
   4  -8  -9-211.406 217.038   1
   4  -8  -8 118.094 142.544   1
   4  -8  -7 3169.68 455.606   1
   4  -8  -6-77.7942 122.272   1
   4  -8  -5 157.285 131.130   1
  -4   8   5 347.400 161.327   4
   4  -8  -4 391.203 164.417   1
  -4   8   4 542.619 186.040   4
  -4   8   3 1312.27 280.904   4
   4  -8  -3 1288.70 261.686   1
  -4   8   2 9761.78 687.074   4
   4  -8  -2 8860.02 688.311   1
  -4   8   1 30374.0 1175.04   4
   4  -8  -1 30747.6 1258.66   1
  -4   8   0 6404.17 523.449   4
  -4   8  -1 47.6168 64.2888   2
  -4   8  -1 73.6149 73.8554   4
  -4   8  -2 631.749 204.997   2
  -4   8  -3 697.751 199.576   2
  -4   8  -4 3399.79 414.150   2
  -4   8  -5 44.5226 89.1993   2
  -4   8  -6 129.933 78.0553   2
  -4   8  -7 2348.91 355.546   2
  -4   8  -8 396.470 166.350   6
  -4   8  -8 573.086 191.811   2
  -4   8  -9 281.287 130.999   6
  -4   8  -9 110.198 102.827   2
  -4   8 -10 35.3238 82.1534   6
  -4   8 -10 64.3236 94.5919   2
  -4   8 -11 495.168 168.698   6
   4  -7 -10-46.8816 116.228   1
   4  -7  -9 463.927 190.727   1
   4  -7  -8 112.027 131.488   1
   4  -7  -7 106.018 139.916   1
   4  -7  -6 487.903 162.349   1
  -4   7   5 347.120 84.4928   7
   4  -7  -5 334.652 159.731   1
   4  -7  -4 1920.01 322.609   1
   4  -7  -3 42.2226 89.7170   1
  -4   7   3 6.55128 67.8211   4
  -4   7   2 2847.25 352.690   4
   4  -7  -2 3014.41 391.525   1
  -4   7   1 2120.30 291.208   4
   4  -7  -1 1774.53 304.540   1
  -4   7   0 449.326 124.592   4
   4  -7   0 535.290 176.897   1
  -4   7  -1 1464.56 300.100   2
  -4   7  -1 1147.84 223.603   4
  -4   7  -2 977.370 242.332   2
  -4   7  -3 4041.22 426.914   2
  -4   7  -4 869.756 203.055   2
  -4   7  -5 2454.34 348.163   2
  -4   7  -6 2208.79 351.970   2
  -4   7  -7-84.8548 92.8818   2
  -4   7  -8 2876.72 371.239   6
  -4   7  -8 2941.69 371.807   2
  -4   7  -9 2204.26 326.893   2
  -4   7  -9 2479.76 351.367   6
  -4   7 -10 1142.38 241.724   6
  -4   7 -10 1104.35 239.071   2
  -4   7 -11 1895.19 318.649   6
  -4   7 -11 2246.48 335.286   2
   4  -7  11 1742.47 315.885   8
  -4   7 -12 517.844 178.278   6
   4  -6 -11 435.778 201.982   1
   4  -6 -10-20.9611 82.0261   1
   4  -6  -9 23.6108 86.0411   1
   4  -6  -8 1167.05 269.436   1
   4  -6  -7 217.880 129.800   1
   4  -6  -6 193.531 154.056   1
   4  -6  -5 10872.8 757.133   1
   4  -6  -4 4818.16 494.258   1
   4  -6  -3 1958.26 312.339   1
  -4   6   2 2569.81 311.422   4
   4  -6  -2 2539.71 367.950   1
  -4   6   1 5506.23 425.534   4
   4  -6  -1 5260.76 486.787   1
  -4   6   0 30635.6 985.222   4
   4  -6   0 28768.9 1117.99   1
  -4   6  -1 52915.0 1252.46   4
  -4   6  -2 24213.3 997.731   2
  -4   6  -3 477.945 147.149   2
  -4   6  -4 0.36504 89.9358   2
  -4   6  -5 2027.53 301.198   2
  -4   6  -6 6537.96 515.609   2
  -4   6  -7 30.6344 73.0732   2
  -4   6  -8 278.666 101.892   6
  -4   6  -8 365.233 145.733   2
  -4   6  -9 1215.27 232.107   6
  -4   6  -9 1515.29 255.932   2
   4  -6   9 1519.98 284.930   8
  -4   6 -10 986.281 206.905   6
  -4   6 -10 902.417 212.601   2
   4  -6  10 1233.74 262.828   8
  -4   6 -11 305.727 118.638   6
  -4   6 -11 267.456 95.9398   2
   4  -6  11 520.300 150.425   8
   4  -6  12 288.089 167.037   5
  -4   6 -12 283.410 108.633   2
  -4   6 -12 103.709 89.7662   6
   4  -5 -11 2970.33 461.164   1
   4  -5 -10 1509.79 329.543   1
   4  -5  -9 1871.53 343.633   1
   4  -5  -8 364.134 159.600   1
   4  -5  -7 14510.5 883.293   1
   4  -5  -6 773.629 221.914   1
  -4   5   6 926.198 95.3898   7
   4  -5  -5 9194.58 455.961   5
   4  -5  -5 10315.7 708.915   1
   4  -5  -4 2554.35 343.823   1
   4  -5  -3 3.21365 84.0984   1
   4  -5  -2 12135.0 718.130   1
  -4   5   1 1104.98 182.800   4
   4  -5  -1 958.004 199.185   1
   4  -5   0 1093.98 212.292   1
  -4   5   0 1044.92 167.318   4
   4  -5   1 3696.03 381.293   1
  -4   5  -1 4121.73 317.108   4
  -4   5  -2 8073.86 544.629   2
  -4   5  -2 2545.03 274.451   4
  -4   5  -3 9943.72 602.836   2
  -4   5  -4 680.008 183.452   2
  -4   5  -5-96.3737 79.8789   2
  -4   5  -6 2592.10 309.904   2
   4  -5   7 5187.99 321.913   4
  -4   5  -7 5036.14 439.017   2
  -4   5  -8 3199.06 335.916   6
   4  -5   8 4291.71 430.859   8
  -4   5  -8 3088.49 350.365   2
  -4   5  -9 941.226 185.085   6
  -4   5  -9 985.548 204.235   2
   4  -5   9 1031.01 217.670   8
  -4   5 -10 3438.12 375.236   2
  -4   5 -10 2864.29 338.001   6
   4  -5  10 3512.43 411.279   8
  -4   5 -11 561.714 152.992   6
   4  -5  11 766.103 226.378   5
  -4   5 -11 792.487 198.884   2
   4  -5  11 726.588 190.248   8
   4  -5  12 1041.51 238.572   8
   4  -5  12 1231.88 298.682   5
  -4   5 -12 1078.57 232.922   2
  -4   5 -13 3961.57 436.797   2
   4  -5  13 4489.54 563.360   5
   4  -4 -12-172.890 166.997   1
   4  -4 -11 2024.96 378.664   1
   4  -4 -10 515.353 209.015   1
   4  -4  -9 191.255 133.595   1
   4  -4  -8 2685.31 395.058   1
   4  -4  -7 1288.42 176.689   5
   4  -4  -7 2074.22 316.397   1
   4  -4  -6 394.744 131.809   1
  -4   4   6 267.489 51.9448   7
  -4   4   6 181.221 36.8096   7
   4  -4  -6 291.746 77.2167   5
   4  -4  -5 103.916 92.0057   1
   4  -4  -5 169.603 74.9080   5
   4  -4  -4 6336.23 325.295   5
   4  -4  -4 7701.24 573.973   1
   4  -4  -3 1741.77 277.861   1
   4  -4  -2 617.289 177.847   1
   4  -4  -1 7795.49 552.894   1
  -4   4   0 2288.28 241.479   4
   4  -4   0 3519.93 414.770   1
  -4   4   0 3364.98 342.277   8
   4  -4   1 910.412 190.264   1
  -4   4  -1 1135.55 155.049   4
  -4   4  -2 24154.9 647.945   4
  -4   4  -2 24946.1 890.212   2
  -4   4  -3 57761.7 1382.10   2
  -4   4  -4 13295.0 651.308   2
  -4   4  -5 215.242 85.7042   2
   4  -4   6 2324.38 188.806   4
  -4   4  -6 2273.66 281.722   2
  -4   4  -7 1331.44 196.567   6
  -4   4  -7 1252.93 217.606   2
   4  -4   7 1449.68 161.205   4
  -4   4  -8 6058.05 424.440   6
   4  -4   8 5817.09 333.739   4
   4  -4   8 6398.57 503.325   8
  -4   4  -8 6217.90 464.258   2
  -4   4  -9 76.1972 59.0563   6
   4  -4   9 152.752 99.8149   8
  -4   4 -10 340.728 112.384   6
   4  -4  10 343.338 130.953   5
   4  -4  10 332.848 137.569   8
  -4   4 -10 185.326 107.266   2
   4  -4  11-23.9065 95.2772   5
  -4   4 -11 35.9468 84.6468   2
   4  -4  11-5.38353 64.0670   8
   4  -4  12 779.639 212.332   8
   4  -4  12 850.765 234.598   5
  -4   4 -12 820.571 193.240   2
   4  -4  13 289.643 148.795   5
  -4   4 -13 412.098 143.404   2
   4  -4  13 4.20674 153.562   8
   4  -3 -12 47.4119 85.7598   1
   4  -3 -11 358.480 155.704   1
   4  -3 -10 343.753 152.180   1
   4  -3  -9 2426.78 377.521   1
   4  -3  -8 50.7451 89.2186   1
   4  -3  -7 7498.10 597.428   1
   4  -3  -6 14860.7 804.425   1
   4  -3  -5 29201.8 676.148   5
   4  -3  -5 29380.7 1096.46   1
  -4   3   5 30213.4 552.935   7
   4  -3  -4 6679.28 294.361   5
   4  -3  -4 7581.85 540.734   1
   4  -3  -3 8699.94 310.627   5
   4  -3  -3 10856.9 635.109   1
   4  -3  -2 1365.07 230.443   1
   4  -3  -1 1536.16 247.898   1
  -4   3   0 20487.7 805.362   1
   4  -3   0 19304.7 810.234   1
  -4   3  -1 28319.7 968.132   1
  -4   3  -1 28564.8 633.288   4
   4  -3   1 28923.4 974.287   1
  -4   3  -1 29069.0 814.752   8
  -4   3  -2 16977.6 455.037   4
  -4   3  -2 17569.0 617.612   8
  -4   3  -3 317.005 96.0910   2
  -4   3  -4 19484.3 766.353   2
  -4   3  -5 49098.4 1190.81   2
  -4   3  -6-33.7490 66.5409   2
   4  -3   6 95.4908 42.9124   4
  -4   3  -7 84.3347 108.818   6
  -4   3  -7-81.3247 76.5450   2
   4  -3   7 48.0391 45.6129   4
   4  -3   7-28.3127 79.1845   8
  -4   3  -8 1289.89 184.703   6
   4  -3   8 1308.55 219.174   5
  -4   3  -8 1337.73 218.822   2
   4  -3   8 1336.11 144.891   4
   4  -3   8 1187.13 194.466   8
  -4   3  -9 13189.7 608.674   6
   4  -3   9 13492.6 745.206   5
  -4   3  -9 12812.1 657.358   2
   4  -3   9 14043.9 752.036   8
  -4   3 -10 6839.46 493.333   2
   4  -3  10 6659.34 555.707   5
   4  -3  10 7312.92 563.120   8
   4  -3  11 158.249 83.6242   5
  -4   3 -11-63.5057 84.1840   2
   4  -3  11-94.4077 104.598   8
   4  -3  12 972.938 244.931   5
  -4   3 -12 863.749 198.369   2
   4  -3  12 1123.03 242.378   8
   4  -3  13 633.168 200.204   8
   4  -3  13 940.016 253.274   5
  -4   3 -13 419.846 146.486   2
   4  -3  14 1006.19 271.604   5
  -4   3 -14 950.279 232.329   2
   4  -3  14 846.291 238.221   8
   4  -2 -13-67.3018 113.599   1
   4  -2 -12 1182.19 299.875   1
   4  -2 -11 98.6530 124.342   1
   4  -2 -10 7374.93 654.260   1
   4  -2  -9 1552.36 275.237   1
   4  -2  -8-94.3282 114.231   1
   4  -2  -7 20702.8 954.940   1
   4  -2  -6 185.953 98.4487   1
  -4   2   5 431.814 58.4663   7
   4  -2  -5 404.138 143.335   1
   4  -2  -4 3514.29 370.855   1
  -4   2   4 3537.92 172.655   3
  -4   2   4 3683.62 213.106   7
   4  -2  -3 407.604 150.640   1
   4  -2  -3 330.015 46.9162   5
   4  -2  -2 750.963 61.0736   5
  -4   2   2 690.517 151.643   1
  -4   2   1 1856.81 240.379   1
  -4   2   0 3759.88 331.706   1
  -4   2  -1 21965.1 810.111   1
  -4   2  -2 35963.3 508.168   4
  -4   2  -2 37952.4 1079.07   1
  -4   2  -3 146.223 91.7079   1
  -4   2  -5 23625.0 782.730   2
  -4   2  -6 5792.88 314.503   6
   4  -2   6 5565.37 378.068   5
   4  -2   6 5485.04 211.400   4
  -4   2  -6 5559.86 382.837   2
  -4   2  -7 1517.29 173.182   6
   4  -2   7 1690.72 231.774   5
   4  -2   7 1849.08 273.900   8
  -4   2  -7 1889.51 234.883   2
  -4   2  -8 6997.98 454.458   2
  -4   2  -8 7507.52 407.635   6
   4  -2   8 7853.20 527.156   5
   4  -2   8 7584.59 509.875   8
   4  -2   9 715.150 178.682   5
  -4   2  -9 780.089 159.918   2
   4  -2   9 632.435 158.054   8
  -4   2 -10 33.5125 48.7257   2
   4  -2  10 56.9717 77.0808   8
   4  -2  11 246.968 153.383   5
  -4   2 -11 101.591 49.4211   2
   4  -2  11 150.037 89.4431   8
   4  -2  12 141.314 90.3047   8
   4  -2  12-54.1648 119.508   5
  -4   2 -12 15.0372 81.4409   2
   4  -2  13 399.985 191.868   5
  -4   2 -13 468.380 133.842   2
   4  -2  13 594.202 180.840   8
   4  -2  14 23.5075 105.057   8
   4  -2  14 41.9567 95.9110   5
  -4   2 -14 127.033 117.080   2
   4  -1 -13 570.242 222.044   1
   4  -1 -12 6686.37 664.107   1
   4  -1 -11 5707.82 590.200   1
   4  -1 -10 79.2948 103.946   1
   4  -1  -9 691.232 189.266   1
   4  -1  -8 718.981 185.748   1
   4  -1  -7 5570.14 482.135   1
   4  -1  -6 2934.79 341.748   1
  -4   1   5 140.988 30.5232   7
   4  -1  -5-19.9289 91.9865   1
  -4   1   4 17395.6 400.697   3
  -4   1   4 17728.0 419.889   7
  -4   1   3 26806.4 579.911   3
  -4   1   3 26842.0 835.339   1
  -4   1   3 27014.5 606.655   7
  -4   1   2 38826.1 1003.30   1
  -4   1   2 39265.6 795.500   7
  -4   1   1 10841.7 530.723   1
  -4   1   0 4127.19 327.975   1
   4  -1   1 21264.2 383.529   5
  -4   1  -1 22250.7 774.610   1
   4  -1   2 11159.8 338.070   5
  -4   1  -2 11925.3 578.837   1
  -4   1  -2 11871.5 497.329   2
   4  -1   3 28013.2 623.476   5
  -4   1  -3 29854.3 925.949   1
  -4   1  -3 29377.5 792.361   2
   4  -1   4 2856.85 224.265   5
  -4   1  -4 2941.56 297.353   1
  -4   1  -4 3205.88 269.053   2
   4  -1   5 2675.87 260.014   2
  -4   1  -5 2519.73 272.057   1
  -4   1  -5 2304.07 231.852   2
  -4   1  -6 24933.2 574.178   6
   4  -1   6 25019.5 798.222   5
  -4   1  -6 24817.3 764.472   2
  -4   1  -7 9733.72 392.903   6
   4  -1   7 9264.43 513.080   5
  -4   1  -7 9205.40 480.969   2
   4  -1   7 8923.01 516.273   8
   4  -1   8 848.442 174.250   5
  -4   1  -8 769.288 156.849   2
   4  -1   8 879.654 163.764   8
   4  -1   9 199.712 126.828   5
  -4   1  -9 151.440 100.702   2
   4  -1   9 226.705 132.808   8
   4  -1  10 1221.16 239.804   5
  -4   1 -10 1505.83 222.985   2
   4  -1  10 1511.44 245.034   8
   4  -1  11 24.7281 75.5391   8
   4  -1  11-34.1927 83.5914   5
  -4   1 -11 116.922 85.9038   2
   4  -1  12 2951.36 394.987   5
  -4   1 -12 3184.21 349.691   2
   4  -1  12 3497.81 401.233   8
   4  -1  13 1299.30 276.131   5
  -4   1 -13 1301.31 239.568   2
   4  -1  13 987.275 215.797   8
  -4   1 -14 2467.42 337.568   2
   4  -1  14 2720.40 420.421   5
   4  -1  14 2717.70 379.658   8
   4  -1  15 1039.46 249.905   8
   4   0 -13 397.446 156.774   1
   4   0 -12 448.772 185.405   1
   4   0 -11 2214.79 363.449   1
   4   0 -10 5906.13 559.111   1
   4   0  -9 1380.18 254.738   1
   4   0  -8 2921.43 355.828   1
   4   0  -7 7880.77 551.174   1
  -4   0   7 8489.63 420.377   5
  -4   0   6 111.079 66.4707   5
   4   0  -6-10.5005 61.6236   1
  -4   0   5 45698.3 529.113   7
   4   0  -5 48141.8 1245.59   1
  -4   0   5 49658.5 1018.80   2
  -4   0   4 34419.3 903.117   1
  -4   0   4 33172.9 560.186   7
  -4   0   3 27664.9 802.626   1
  -4   0   3 26634.7 608.668   3
  -4   0   3 27125.5 585.422   7
  -4   0   2 14038.3 573.990   1
  -4   0   2 13645.0 455.023   7
  -4   0   1 870.067 132.322   7
  -4   0   1 752.366 132.867   1
  -4   0   0 40889.7 983.700   1
  -4   0   0 41054.0 889.136   7
  -4   0  -1 33821.5 909.919   1
  -4   0  -1 32077.2 740.823   2
  -4   0  -1 33129.0 835.131   7
  -4   0  -2 39443.6 997.646   1
  -4   0  -2 38116.8 819.343   2
  -4   0  -2 38044.3 932.449   7
   4   0   3 7058.86 323.068   5
  -4   0  -3 7458.92 443.565   1
  -4   0  -3 7025.66 357.581   2
   4   0   4 193055. 2022.87   2
   4   0   4 190199. 1855.80   5
  -4   0  -4 195521. 1912.33   2
  -4   0  -4 186952. 2241.19   1
  -4   0  -4 192238. 1852.41   8
  -4   0  -5 144.651 34.8071   6
   4   0   5 53.2039 55.7547   2
  -4   0  -5 106.596 70.0204   2
  -4   0  -5 189.826 70.9869   8
  -4   0  -6 12945.2 529.372   2
   4   0   6 13626.0 585.459   5
   4   0   7 169.579 100.116   5
  -4   0  -7 50.2600 48.7907   2
   4   0   7-7.17774 67.5542   8
  -4   0  -8 2311.51 251.633   2
   4   0   8 2369.48 291.070   5
   4   0   8 2291.72 267.066   8
  -4   0  -9 10200.4 534.234   2
   4   0   9 10101.9 615.306   5
   4   0   9 10116.3 585.913   8
  -4   0 -10 26971.7 904.206   2
   4   0  10 27180.1 1064.25   5
   4   0  10 26640.2 986.016   8
   4   0  11 139.725 125.671   5
  -4   0 -11 56.0174 70.9911   2
   4   0  11 42.2104 60.5367   8
   4   0  12 1059.44 232.399   8
   4   0  12 1125.96 254.482   5
  -4   0 -12 1117.53 212.539   2
  -4   0 -13 436.161 143.934   2
   4   0  13 309.357 124.226   8
  -4   0 -14 1004.98 214.053   2
   4   0  14 889.150 214.569   8
   4   0  15 19.8624 103.755   8
   4   1 -13 1242.06 281.857   1
   4   1 -12 451.973 188.667   1
  -4  -1  12 295.741 127.946   5
   4   1 -11 223.474 131.798   1
  -4  -1  11 27.4909 71.8409   5
   4   1 -10 14666.0 863.014   1
  -4  -1  10 15112.4 725.247   5
   4   1  -9 31830.5 1204.15   1
  -4  -1   9 31889.2 987.344   5
   4   1  -9 29844.2 758.882   3
   4   1  -8 55.9853 74.3331   1
  -4  -1   8-34.8137 65.5933   5
   4   1  -8-21.2215 40.1054   3
  -4  -1   7 1770.75 196.321   5
   4   1  -7 1369.35 231.143   1
   4   1  -7 1455.53 121.497   7
   4   1  -6 7586.79 507.506   1
  -4  -1   6 7644.03 383.578   2
  -4  -1   6 7296.51 366.362   5
   4   1  -6 7326.76 292.987   7
   4   1  -5 27048.8 903.620   1
  -4  -1   5 25764.4 682.745   2
  -4  -1   5 25099.3 603.331   5
   4   1  -5 26716.7 593.868   7
  -4  -1   5 26085.6 743.486   1
   4   1  -4 1037.12 125.302   7
  -4  -1   4 930.203 140.705   1
   4   1  -4 1027.17 169.452   1
  -4  -1   4 1101.07 109.542   7
  -4  -1   3 6555.34 372.043   1
  -4  -1   3 6663.34 315.356   3
   4   1  -3 6482.40 321.923   7
  -4  -1   3 6612.42 292.067   7
  -4  -1   2 4339.02 299.181   1
  -4  -1   2 4572.25 276.396   3
   4   1  -2 4303.80 272.184   7
  -4  -1   2 4593.82 261.623   7
  -4  -1   1 48585.6 1005.42   1
   4   1  -1 48886.8 1063.15   1
  -4  -1   1 48648.8 940.624   3
  -4  -1   1 48373.3 909.789   7
  -4  -1   0 86327.2 1343.15   1
   4   1   0 89288.4 1396.09   1
  -4  -1   0 87080.0 1285.55   7
  -4  -1  -1 50948.5 686.193   5
  -4  -1  -1 50446.4 1045.60   1
   4   1   1 52217.2 1068.26   1
  -4  -1  -1 50038.7 1019.37   7
  -4  -1  -1 51405.4 842.901   2
  -4  -1  -2 17328.7 462.964   5
  -4  -1  -2 17483.1 323.075   4
  -4  -1  -2 17550.9 632.153   1
  -4  -1  -2 17817.1 507.735   2
  -4  -1  -3 4027.41 251.125   5
  -4  -1  -3 3672.48 293.270   1
   4   1   3 3803.70 254.186   2
  -4  -1  -3 4284.84 257.440   2
  -4  -1  -4 8195.89 392.275   5
  -4  -1  -4 7995.35 372.075   8
  -4  -1  -4 8181.04 440.749   1
   4   1   4 7911.05 388.806   2
  -4  -1  -4 8130.06 366.544   2
  -4  -1  -5 4289.67 276.874   2
  -4  -1  -5 4460.42 313.010   5
   4   1   5 4480.24 186.915   4
  -4  -1  -5 4656.92 279.080   8
   4   1   5 4839.75 317.912   2
  -4  -1  -6 6197.47 351.344   2
  -4  -1  -6 6245.09 439.996   7
   4   1   6 6213.72 380.488   2
  -4  -1  -7 12618.3 525.241   2
  -4  -1  -8 1855.01 219.389   2
   4   1   8 1756.59 225.760   8
  -4  -1  -9 5267.60 374.750   2
   4   1   9 5839.20 426.633   8
  -4  -1 -10 134.784 96.4945   2
   4   1  10-37.1745 83.6883   8
  -4  -1 -11 822.931 174.682   2
   4   1  11 644.059 168.984   8
  -4  -1 -12 122.001 89.2327   2
   4   1  12-133.493 115.847   8
  -4  -1 -13 12.8727 68.0100   2
   4   1  13 78.3083 80.2568   8
  -4  -1 -14 167.324 90.2893   2
   4   1  14 100.946 114.800   8
   4   1  15-56.2331 93.5929   8
   4   1  16 852.576 246.211   8
  -4  -2  14 370.205 140.020   5
   4   2 -13 2.34204 87.1059   1
  -4  -2  13 23.7701 85.5565   5
   4   2 -12 60.1767 100.225   1
  -4  -2  12 180.378 115.638   5
   4   2 -11 47.8465 92.0145   1
  -4  -2  11 69.4674 82.5061   5
   4   2 -10 315.635 136.715   1
  -4  -2  10 215.461 58.2837   5
   4   2  -9 2267.74 323.290   1
  -4  -2   9 2049.25 263.083   5
   4   2  -9 1640.17 204.404   3
   4   2  -9 1635.40 152.169   7
   4   2  -8 29758.6 1078.85   1
  -4  -2   8 31076.8 941.579   5
   4   2  -8 27267.2 794.588   3
   4   2  -8 30338.4 667.810   7
   4   2  -7 5034.68 425.126   1
  -4  -2   7 5050.26 311.609   2
   4   2  -7 4774.09 327.216   3
   4   2  -7 4668.35 274.686   7
   4   2  -6 451.565 88.3699   7
   4   2  -6 395.452 122.786   1
  -4  -2   6 376.680 81.2658   2
   4   2  -6 334.890 80.1836   3
   4   2  -5 16442.5 680.762   1
  -4  -2   5 15633.8 480.131   2
  -4  -2   5 17084.8 572.894   1
   4   2  -5 15191.8 557.666   3
   4   2  -5 15986.8 525.937   7
  -4  -2   4 20579.5 485.099   7
  -4  -2   4 20685.8 522.931   2
   4   2  -4 19985.6 598.270   7
  -4  -2   4 20736.8 615.728   1
  -4  -2   3 66743.8 1096.60   1
   4   2  -3 66971.5 1105.40   7
  -4  -2   3 66819.6 940.298   7
   4   2  -2 50979.1 991.298   7
  -4  -2   2 52154.6 968.544   1
   4   2  -2 53013.8 1075.97   1
  -4  -2   2 52745.7 965.570   3
  -4  -2   2 52681.6 901.677   7
  -4  -2   1 3695.07 255.362   1
   4   2  -1 3503.44 269.567   1
  -4  -2   1 3220.57 251.722   3
   4   2  -1 3479.44 265.190   7
  -4  -2   1 3463.69 245.935   7
  -4  -2   0 40807.6 697.988   6
  -4  -2   0 40141.6 847.591   1
  -4  -2   0 39400.2 642.815   2
   4   2   0 39988.0 931.444   7
   4   2   0 43239.1 907.781   1
  -4  -2   0 41901.8 936.539   3
  -4  -2   0 40114.8 868.130   7
  -4  -2  -1 711.346 132.735   7
  -4  -2  -1 609.943 71.1228   6
  -4  -2  -1 560.174 79.0195   2
  -4  -2  -1 581.907 107.692   1
  -4  -2  -1 609.972 87.1058   4
   4   2   1 578.514 108.290   1
   4   2   1 621.890 125.364   7
  -4  -2  -2 11689.1 346.437   4
  -4  -2  -2 11051.4 473.000   1
   4   2   2 11763.9 533.995   7
  -4  -2  -2 11312.3 358.078   2
  -4  -2  -3 116061. 1207.69   2
  -4  -2  -3 115204. 1441.68   5
  -4  -2  -3 111014. 1537.57   1
   4   2   3 112815. 1309.54   2
  -4  -2  -4 4943.60 267.357   2
  -4  -2  -4 5258.53 332.979   5
   4   2   4 5208.75 240.279   4
  -4  -2  -4 4647.59 276.986   8
  -4  -2  -4 5200.26 335.613   1
   4   2   4 5042.65 292.908   2
  -4  -2  -5 24568.8 776.592   5
   4   2   5 24825.3 555.781   4
  -4  -2  -5 25362.0 614.416   8
  -4  -2  -5 26088.0 646.339   2
   4   2   5 25824.6 701.913   2
  -4  -2  -6 50490.3 1193.54   5
  -4  -2  -6 50116.4 1226.81   7
   4   2   6 51197.0 1056.48   2
  -4  -2  -6 49488.7 951.636   2
  -4  -2  -7 443.442 98.1047   2
  -4  -2  -8 954.293 153.838   2
  -4  -2  -9 44.6490 61.3478   2
   4   2   9-70.9907 68.1414   8
  -4  -2 -10 263.140 107.697   2
   4   2  10 442.283 126.872   8
  -4  -2 -11 3231.26 333.005   2
   4   2  11 3380.76 354.060   8
  -4  -2 -12 4426.19 405.705   2
   4   2  12 4430.65 418.472   8
  -4  -2 -13 1762.77 268.762   2
   4   2  13 1635.43 269.572   8
   4   2  14 1527.79 273.105   8
  -4  -2 -14 1496.56 263.622   2
   4   2  15 135.686 86.1400   8
   4   2  16 764.249 205.032   8
  -4  -3  14 808.703 237.531   5
   4   3 -13 2559.87 405.296   1
  -4  -3  13 3103.89 421.197   5
   4   3 -12 14.9288 119.732   1
  -4  -3  12 352.503 122.996   5
   4   3 -11 2526.67 363.456   1
  -4  -3  11 2600.93 348.061   5
   4   3 -10 7402.06 587.487   1
  -4  -3  10 8588.17 593.886   5
   4   3 -10 7236.70 370.665   7
   4   3  -9 417.844 140.370   1
   4   3  -9 313.143 91.8745   7
   4   3  -8 23238.7 935.422   1
   4   3  -8 21947.3 653.173   7
   4   3  -7 14740.1 698.901   1
  -4  -3   7 14388.4 503.389   2
   4   3  -7 14852.9 614.458   3
   4   3  -7 14781.3 540.153   7
  -4  -3   6 1087.06 129.928   2
   4   3  -6 1204.81 195.085   1
   4   3  -6 1116.55 156.782   7
   4   3  -6 1249.82 179.879   3
   4   3  -5 35.8129 41.9864   7
   4   3  -5-20.9556 59.4417   1
  -4  -3   5 79.2820 48.9834   2
   4   3  -5 24.8460 54.6173   3
  -4  -3   4 7335.28 275.530   2
  -4  -3   4 8326.62 453.206   6
   4   3  -4 7732.17 420.768   3
  -4  -3   4 7719.92 350.468   1
   4   3  -4 7594.74 387.452   7
  -4  -3   3 20094.5 541.543   7
   4   3  -3 19791.7 638.703   7
  -4  -3   3 19637.7 404.084   2
  -4  -3   3 20677.1 664.753   6
   4   3  -3 20705.0 664.362   1
   4   3  -3 20122.4 676.734   3
  -4  -3   3 20328.3 546.242   1
   4   3  -2 197.874 87.2470   7
   4   3  -2 218.604 77.5626   1
  -4  -3   2 174.048 52.9613   7
  -4  -3   2 178.784 60.8983   1
  -4  -3   2 208.589 67.4171   6
  -4  -3   2 166.572 37.7347   2
  -4  -3   1 19922.9 539.786   1
  -4  -3   1 19810.9 549.312   6
   4   3  -1 20386.0 610.393   1
  -4  -3   1 20096.9 637.203   3
   4   3  -1 18792.4 651.528   7
  -4  -3   1 20130.2 592.979   7
  -4  -3   0 22517.5 521.973   6
  -4  -3   0 21149.5 569.524   1
   4   3   0 23005.7 622.406   1
  -4  -3   0 22176.9 380.753   2
   4   3   0 21726.2 705.912   7
  -4  -3   0 22862.1 664.439   7
   4   3   1 134.392 56.1705   7
  -4  -3  -1 203.535 55.2102   1
  -4  -3  -1 207.613 40.3856   2
  -4  -3  -1 227.669 62.3299   4
  -4  -3  -2 36797.7 554.755   2
  -4  -3  -2 36132.4 726.596   4
  -4  -3  -2 36532.9 794.225   1
   4   3   2 35044.4 616.380   2
   4   3   2 36260.1 974.947   7
  -4  -3  -3 34735.8 597.147   2
  -4  -3  -3 34694.8 810.003   1
   4   3   3 34880.2 673.221   2
   4   3   3 34904.3 974.835   7
  -4  -3  -4 19050.4 488.170   2
   4   3   4 19354.6 563.279   4
  -4  -3  -4 18753.8 525.677   8
   4   3   4 18174.8 724.517   7
   4   3   4 18830.5 537.528   2
  -4  -3  -5 32498.8 694.505   2
  -4  -3  -5 33853.9 974.267   7
  -4  -3  -5 32151.1 931.680   5
   4   3   5 33652.8 761.584   4
  -4  -3  -5 32018.3 653.151   8
   4   3   5 32164.7 755.583   2
  -4  -3  -6 1771.06 176.689   2
   4   3   6 1919.83 192.310   4
   4   3   6 1758.57 189.815   2
  -4  -3  -7 1793.81 195.356   2
   4   3   7 1511.42 89.5836   6
  -4  -3  -8 4865.50 337.402   2
   4   3   8 4586.69 196.300   6
  -4  -3  -9 6351.07 410.992   2
   4   3   9 6487.92 271.057   6
  -4  -3 -10 9984.63 545.235   2
  -4  -3 -11 535.516 140.765   2
   4   3  11 694.632 151.999   8
  -4  -3 -12 428.065 135.308   2
   4   3  12 501.955 143.582   8
  -4  -3 -13 4457.90 434.432   2
   4   3  13 4987.15 447.582   8
  -4  -3 -14 334.372 145.778   2
   4   3  14 205.701 73.7312   8
   4   3  15 426.395 142.977   8
  -4  -4  14 32.2551 77.7299   5
   4   4 -13 484.155 198.446   1
  -4  -4  13 252.232 111.274   5
   4   4 -12 3174.48 420.872   1
  -4  -4  12 3491.66 436.430   5
   4   4 -11 158.419 118.473   1
  -4  -4  11-16.3359 81.8275   5
   4   4 -10 1471.37 267.390   1
   4   4 -10 1731.36 205.842   7
   4   4  -9-4.14255 46.8760   7
   4   4  -9 13.8491 65.5764   1
   4   4  -8 401.502 101.036   7
   4   4  -8 441.604 127.216   1
  -4  -4   8 253.156 75.0147   2
  -4  -4   7 8708.46 382.225   2
   4   4  -7 9115.52 542.521   1
   4   4  -7 8740.72 459.579   7
  -4  -4   6 8217.40 336.473   2
   4   4  -6 9016.14 499.904   1
   4   4  -6 8453.90 447.028   7
  -4  -4   5 1191.35 115.692   2
   4   4  -5 1355.89 186.559   7
  -4  -4   4 14595.6 346.084   2
  -4  -4   4 15296.0 627.289   6
   4   4  -4 15157.9 631.610   3
   4   4  -4 14426.0 579.084   7
  -4  -4   3 24074.4 366.339   2
  -4  -4   3 25650.6 760.063   6
   4   4  -3 24750.5 686.997   1
   4   4  -3 24719.1 798.098   3
   4   4  -3 24727.9 754.720   7
  -4  -4   2 9503.13 408.812   7
  -4  -4   2 9192.18 318.382   1
  -4  -4   2 8833.46 160.630   2
  -4  -4   2 9275.50 425.887   6
   4   4  -2 9803.37 411.337   1
   4   4  -2 9454.74 488.596   3
   4   4  -2 9019.79 459.909   7
  -4  -4   1 70354.4 869.007   1
   4   4  -1 72050.1 1038.33   1
  -4  -4   1 73213.1 1253.05   3
   4   4  -1 67337.5 1276.04   7
  -4  -4   1 71864.3 1152.91   7
  -4  -4   0 62021.1 842.667   1
  -4  -4   0 61885.5 1143.13   4
   4   4   0 62910.8 924.777   1
   4   4   0 61389.2 1254.26   7
  -4  -4   0 63227.7 1128.25   7
   4   4   1 1183.38 183.775   7
  -4  -4  -1 1473.66 78.2553   2
   4   4   1 1616.43 143.005   6
  -4  -4  -1 1370.52 131.529   1
  -4  -4  -1 1350.97 167.243   4
  -4  -4  -2 14021.7 306.630   2
   4   4   2 13770.3 372.311   6
  -4  -4  -2 13673.2 504.285   4
  -4  -4  -2 13613.7 440.085   1
   4   4   2 14123.2 356.109   2
   4   4   2 13435.0 610.661   7
  -4  -4  -3 3560.50 184.775   2
   4   4   3 3632.91 167.317   6
   4   4   3 3770.61 283.360   4
  -4  -4  -3 3377.65 236.921   1
   4   4   3 3846.43 341.110   7
   4   4   3 3475.77 202.574   2
  -4  -4  -4 12625.0 391.602   2
   4   4   4 12152.1 271.670   6
  -4  -4  -4 11969.8 396.332   8
  -4  -4  -4 12145.9 575.671   3
   4   4   4 11502.2 603.615   7
  -4  -4  -4 12871.0 574.035   7
   4   4   4 12174.1 412.228   2
  -4  -4  -5 52341.5 881.916   2
  -4  -4  -5 50027.5 755.629   8
   4   4   5 49559.3 1271.61   7
   4   4   5 50914.3 920.191   2
  -4  -4  -6 4032.44 266.792   2
   4   4   6 4036.90 375.607   7
   4   4   6 4001.77 283.800   2
   4   4   7 138.932 83.1056   4
  -4  -4  -7 18.0635 47.7142   2
  -4  -4  -8 1462.97 192.088   2
  -4  -4  -9 14988.7 646.528   2
   4   4   9 14942.6 447.816   6
  -4  -4 -10 4059.04 357.430   2
  -4  -4 -11 671.991 160.194   2
  -4  -4 -12 2400.17 314.308   2
  -4  -4 -13 30.6313 74.3088   2
  -4  -4 -14 322.345 138.197   2
  -4  -5  14-91.1428 114.864   5
   4   5 -13 183.398 156.437   1
  -4  -5  13 513.153 196.023   5
   4   5 -12 1195.89 262.555   1
   4   5 -11 5474.80 529.555   1
   4   5 -10 901.480 158.188   7
   4   5 -10 1278.80 248.917   1
   4   5  -9 4163.70 407.087   1
   4   5  -9 3994.44 340.185   7
   4   5  -8 13965.8 698.195   1
   4   5  -8 12295.3 591.081   7
  -4  -5   8 13240.6 508.558   2
   4   5  -7 995.253 165.604   7
   4   5  -7 1153.90 197.018   1
  -4  -5   7 1002.53 130.150   2
   4   5  -6 13067.6 591.065   1
   4   5  -6 12379.5 583.277   7
  -4  -5   6 11577.2 390.399   2
   4   5  -5-181.530 108.030   7
  -4  -5   5-32.3661 34.5751   2
   4   5  -4 566.003 134.673   7
   4   5  -4 681.745 120.228   1
  -4  -5   4 695.464 70.0925   2
   4   5  -3 27134.8 681.461   1
   4   5  -3 24887.4 810.164   7
   4   5  -2 383.786 120.567   7
   4   5  -2 464.836 88.2075   1
   4   5  -2 328.359 91.6647   6
  -4  -5   1 4751.54 310.205   7
  -4  -5   1 4615.81 354.118   4
   4   5  -1 4678.51 231.470   1
   4   5  -1 4503.86 344.576   7
   4   5   0 2785.55 227.946   6
  -4  -5   0 2780.98 264.020   4
   4   5   0 2949.77 290.303   7
  -4  -5   0 2871.55 132.307   1
  -4  -5   0 3257.36 261.107   7
  -4  -5  -1 4008.58 175.336   1
   4   5   1 4428.96 263.402   6
  -4  -5  -1 4458.49 329.233   4
   4   5   1 3788.84 327.560   7
   4   5   2 13969.4 441.110   6
  -4  -5  -2 12904.5 366.414   1
  -4  -5  -2 13854.6 565.092   4
   4   5   2 13720.5 640.255   7
   4   5   2 13350.1 312.795   2
   4   5   3 116.899 99.5234   7
   4   5   3 39.7729 26.0527   2
  -4  -5  -3 49.9215 27.7203   1
   4   5   3 21.1673 70.4552   4
  -4  -5  -3 79.0400 84.0940   3
  -4  -5  -3 28.1799 32.8869   2
  -4  -5  -4 3609.89 218.407   2
   4   5   4 3368.74 293.804   4
  -4  -5  -4 3645.42 329.239   3
  -4  -5  -4 3584.81 195.766   8
   4   5   4 3387.24 340.971   7
   4   5   4 3389.93 211.914   2
  -4  -5  -5 4351.77 267.419   2
   4   5   5 4053.18 328.338   4
  -4  -5  -5 4143.71 356.962   3
   4   5   5 4210.46 387.446   7
   4   5   5 3838.45 250.819   2
   4   5   6 39164.6 872.649   2
  -4  -5  -6 40723.9 886.944   2
   4   5   6 40534.4 1079.79   4
  -4  -5  -6 40232.9 1128.56   3
   4   5   6 39466.0 1197.90   7
  -4  -5  -7 4850.27 334.998   2
   4   5   7 4835.21 383.718   4
  -4  -5  -7 4523.51 385.052   3
   4   5   7 4682.08 424.949   7
   4   5   8 1074.46 197.326   4
  -4  -5  -8 1207.92 177.383   2
  -4  -5  -9 4762.91 375.916   2
  -4  -5 -10 294.130 106.162   2
  -4  -5 -11-82.6287 99.2355   2
  -4  -5 -12 5575.08 488.303   2
  -4  -5 -13 89.6131 76.8472   2
  -4  -5 -14 202.283 108.583   1
  -4  -5 -14 8.94650 64.6174   2
  -4  -5 -15 739.352 183.835   1
   4   6 -13 795.288 243.311   1
   4   6 -12 78.8285 108.850   1
   4   6 -11 3441.86 414.627   1
   4   6 -11 2799.99 318.394   7
   4   6 -10 2280.58 317.294   1
   4   6 -10 2240.31 272.963   7
   4   6  -9 968.533 178.390   7
   4   6  -9 1133.05 215.225   1
   4   6  -8 321.240 124.055   7
   4   6  -8 374.129 118.652   1
   4   6  -7 1892.79 240.089   1
   4   6  -7 1173.38 194.364   7
   4   6  -6 3215.76 287.781   1
  -4  -6   6 3046.91 202.994   2
   4   6  -6 3013.54 306.968   7
  -4  -6   5 8945.97 290.573   2
   4   6  -5 8714.40 515.285   7
   4   6  -4 18.4251 80.8489   7
   4   6  -4 97.1803 50.8922   1
   4   6  -3 833.251 137.104   7
   4   6  -3 981.046 170.681   6
   4   6  -3 798.364 110.300   1
   4   6  -2 8801.11 491.330   6
   4   6  -2 8508.77 298.532   1
   4   6  -2 7705.10 482.920   7
   4   6  -1 1107.91 198.856   7
   4   6  -1 894.358 151.202   6
   4   6   0 231.671 117.440   7
   4   6   1 29729.1 964.902   7
   4   6   2 41726.0 866.827   6
  -4  -6  -2 40560.0 1048.21   3
   4   6   2 38384.1 494.826   2
   4   6   2 37775.0 1119.73   7
   4   6   3 6543.64 450.381   4
  -4  -6  -3 6511.19 245.390   1
  -4  -6  -3 6974.24 443.323   3
   4   6   3 6600.58 485.429   7
   4   6   3 6489.96 250.033   2
   4   6   4 5452.79 262.560   2
  -4  -6  -4 5048.54 199.721   8
   4   6   4 5505.35 415.331   4
  -4  -6  -4 5144.87 395.599   3
  -4  -6  -4 5230.13 264.341   1
   4   6   4 4511.59 406.924   7
   4   6   5 581.392 170.400   7
   4   6   5 773.504 115.425   2
   4   6   5 829.673 173.275   4
  -4  -6  -5 584.280 135.393   3
   4   6   6 6803.33 365.674   2
   4   6   6 7869.30 517.869   4
  -4  -6  -6 7190.43 485.733   3
   4   6   6 7863.45 562.398   7
   4   6   7 12949.4 681.648   4
  -4  -6  -7 12998.7 666.893   3
   4   6   7 12685.5 722.117   7
   4   6   8 6862.18 519.421   4
  -4  -6  -8 6768.36 486.502   3
   4   6   8 7053.54 552.871   7
   4   6   9 906.424 206.288   4
  -4  -6  -9 873.565 162.337   3
   4   6  10 583.045 172.897   4
  -4  -6 -10 217.362 101.216   3
   4   6  11 206.582 120.804   4
  -4  -6 -11-28.8495 93.9606   3
  -4  -6 -11 134.850 76.0095   1
  -4  -6 -12 40.1243 76.7255   3
  -4  -6 -12-79.8878 82.5746   1
  -4  -6 -13 117.493 69.9168   1
  -4  -6 -14-43.6243 71.9333   1
   4   7 -12 192.282 131.795   1
   4   7 -11 164.299 107.197   7
   4   7 -11 192.934 128.552   1
   4   7 -10 3504.56 389.787   1
   4   7 -10 3200.58 361.970   7
   4   7  -9-70.0778 110.028   7
   4   7  -9 142.740 93.6377   1
   4   7  -8-14.9685 64.1385   7
   4   7  -8-109.101 77.4320   1
   4   7  -7 14124.1 637.825   1
   4   7  -7 13453.4 707.590   7
   4   7  -6 2746.62 321.731   7
   4   7  -5-13.1189 85.0832   7
   4   7  -5-18.5243 59.3078   6
   4   7  -5 18.2479 40.2736   1
   4   7  -4-16.3580 71.4677   7
   4   7  -4 7.11209 66.5748   6
   4   7  -4-13.1380 33.1396   1
   4   7  -3 7622.81 511.251   6
   4   7  -3 6652.96 268.228   1
   4   7  -3 6708.60 477.898   7
   4   7  -2 141.037 88.6576   7
   4   7  -2 120.918 71.8946   6
   4   7  -1 39818.5 1077.84   6
   4   7  -1 38490.0 1150.66   7
   4   7   0 163.070 112.894   7
   4   7   0 22.5623 46.7604   6
   4   7   1 520.588 157.624   7
   4   7   1 354.546 106.517   6
   4   7   2 603.757 159.040   7
   4   7   2 501.955 56.4708   2
   4   7   3 369.102 116.626   7
  -4  -7  -3 378.544 58.7711   8
   4   7   3 473.370 71.0362   2
   4   7   3 224.548 83.4331   4
  -4  -7  -4 4460.67 175.776   1
   4   7   4 4919.31 253.902   2
   4   7   4 4659.20 412.529   4
  -4  -7  -4 4493.96 206.442   1
  -4  -7  -4 4977.63 386.694   3
   4   7   4 4626.92 434.080   7
   4   7   5 234.146 118.216   7
   4   7   5 267.971 72.9480   2
   4   7   5 145.578 88.3405   4
  -4  -7  -5 333.771 130.514   3
  -4  -7  -5 289.681 62.5326   1
   4   7   6 712.919 192.035   7
   4   7   6 679.026 119.196   2
   4   7   6 955.109 208.520   4
  -4  -7  -6 695.891 160.778   3
  -4  -7  -6 689.241 102.519   1
   4   7   7 543.570 169.688   7
   4   7   7 425.862 137.947   4
  -4  -7  -7 384.167 125.645   3
  -4  -7  -7 350.521 80.2025   1
   4   7   8 7229.73 569.387   4
  -4  -7  -8 6891.36 483.836   3
   4   7   8 6194.75 535.690   7
  -4  -7  -8 6469.60 368.735   1
   4   7   9 3033.13 387.278   4
  -4  -7  -9 2441.71 298.305   3
   4   7   9 2685.70 363.541   7
  -4  -7  -9 2728.32 261.666   1
   4   7  10 1025.80 235.424   4
  -4  -7 -10 1104.42 221.799   3
  -4  -7 -10 980.940 171.494   1
   4   7  11 44.4987 73.0428   4
  -4  -7 -11 27.6073 70.0330   3
  -4  -7 -11 35.0037 50.5528   1
   4   7  12-132.114 68.3823   4
  -4  -7 -12-97.3073 97.4867   1
  -4  -7 -13 389.985 128.728   1
   4   7  13 384.472 193.583   4
   4   7  14 306.333 159.552   4
   4   8 -11 629.852 192.701   7
   4   8 -10 59.6289 64.7395   7
   4   8  -9 1714.59 280.039   7
   4   8  -8 5973.81 439.710   1
   4   8  -8 5909.31 516.218   7
   4   8  -7 1922.58 229.937   1
   4   8  -7 1570.90 265.333   7
   4   8  -6 303.312 121.790   7
   4   8  -5-60.2172 63.4632   7
   4   8  -5 16.6303 72.6548   6
   4   8  -5 4.57348 29.2170   1
   4   8  -4 1972.74 273.000   7
   4   8  -4 2111.10 302.847   6
   4   8  -4 1919.49 146.895   1
   4   8  -3-101.327 110.102   7
   4   8  -3-58.2785 80.1675   6
   4   8  -2 3275.90 342.657   6
   4   8  -2 2853.86 334.795   7
   4   8  -1 609.380 151.128   6
   4   8  -1 376.628 145.867   7
   4   8   0 16187.7 709.991   6
   4   8   0 15793.7 787.479   7
   4   8   1 4820.69 442.740   7
   4   8   2 445.127 137.816   7
   4   8   2 297.106 44.7133   2
   4   8   3 16338.3 407.950   2
   4   8   3 15732.1 808.891   7
   4   8   4 925.684 217.149   7
   4   8   4 692.517 99.7920   2
   4   8   4 865.485 195.232   4
   4   8   5 1149.01 141.117   2
   4   8   5 1366.56 251.970   7
  -4  -8  -5 1053.54 98.2404   1
   4   8   5 920.117 198.370   4
   4   8   6 14.3280 95.2465   7
  -4  -8  -6 41.2689 34.6074   1
  -4  -8  -7 3472.31 249.600   1
   4   8   7 3926.13 433.995   4
   4   8   7 3706.78 427.141   7
   4   8   8 176.671 100.305   7
  -4  -8  -8 57.5384 53.2649   1
   4   8   8 16.6448 98.9112   4
  -4  -8  -8 254.843 117.406   3
   4   8   9-96.1429 99.0302   7
   4   8   9 20.3183 79.8162   4
  -4  -8  -9-11.9948 69.4909   3
   4   8  10 186.242 138.301   4
  -4  -8 -10 119.216 79.6764   3
   4   8  11-69.4536 73.0764   4
   4   8  12 240.910 157.444   4
   4   8  13-1.78063 78.6125   4
   4   9 -11-151.066 123.026   7
   4   9 -10 573.294 161.445   7
   4   9  -9 182.981 72.3968   7
   4   9  -8 265.915 113.025   7
   4   9  -7 2348.12 353.542   7
   4   9  -6-84.4150 115.940   7
   4   9  -6 99.6961 64.2719   6
   4   9  -5 13067.3 814.366   6
   4   9  -5 11799.1 746.279   7
   4   9  -4 1304.58 249.372   7
   4   9  -4 1890.71 304.807   6
   4   9  -3-82.7043 146.578   7
   4   9  -3 26.9067 85.2506   6
   4   9  -2 6867.60 535.441   6
   4   9  -2 6113.87 525.057   7
   4   9  -1 5298.39 451.710   6
   4   9  -1 5009.96 483.209   7
   4   9   0 6722.40 495.768   6
   4   9   0 6321.61 530.749   7
   4   9   1 33.1429 82.4850   7
   4   9   2 896.051 226.452   7
   4   9   3 194.187 122.203   7
   4   9   4 4.83752 69.7077   7
   4   9   4 68.9636 73.5545   4
   4   9   5 55.7942 100.730   7
   4   9   5-115.422 109.008   4
   4   9   6 138.383 86.3817   7
   4   9   6 449.219 160.886   4
   4   9   7 88.8301 79.2985   7
   4   9   7-91.8654 101.276   4
   4   9   8 371.763 151.726   7
   4   9   8 167.163 118.798   4
   4   9   9 228.459 143.582   7
   4   9   9 181.678 136.784   4
   4   9  10 509.635 188.279   7
   4   9  10 485.872 208.954   4
   4   9  11 876.981 240.920   4
   4  10  -9 744.561 216.839   7
   4  10  -8 563.627 196.981   7
   4  10  -7 2375.78 362.293   7
   4  10  -7 2410.28 397.651   6
   4  10  -6 6930.01 648.638   6
   4  10  -6 7277.32 634.656   7
   4  10  -5-80.1757 143.718   7
   4  10  -5 72.8863 68.7586   6
   4  10  -4 214.186 103.831   7
   4  10  -4 389.731 153.717   6
   4  10  -3-349.403 189.299   7
   4  10  -3-22.4097 80.5454   6
   4  10  -2 557.504 152.226   7
   4  10  -2 782.789 200.936   6
   4  10  -1 569.979 190.339   7
   4  10  -1 629.638 165.575   6
   4  10   0 323.462 156.267   7
   4  10   0 105.523 67.3198   6
   4  10   1 548.340 182.831   7
   4  10   2 764.719 204.121   7
   4  10   3 2564.05 362.971   7
   4  10   4 869.322 227.972   7
   4  10   5-76.2784 81.0383   7
   4  10   5 117.272 135.651   4
   4  10   6 1000.69 252.378   7
   4  10   6 826.718 219.532   4
   4  10   7 94.9925 109.473   7
   4  10   7 92.1512 99.6949   4
   4  10   8 1155.54 271.971   7
   4  10   8 1224.43 291.284   4
   4  10   9 127.005 119.080   7
   4  10   9 116.963 96.3723   4
   4  10  10 619.025 216.635   7
   4  11  -6 1322.80 283.096   7
   4  11  -6 1793.28 342.479   6
   4  11  -5 444.000 167.746   7
   4  11  -5 961.415 244.655   6
   4  11  -4 21.9862 77.5005   7
   4  11  -4 220.302 142.814   6
   4  11  -3-29.4408 140.916   7
   4  11  -3 115.354 110.117   6
   4  11  -2 3051.19 416.299   7
   4  11  -2 3213.47 417.266   6
   4  11  -1 659.248 222.036   7
   4  11  -1 316.856 138.434   6
   4  11   0 2799.37 395.808   7
   4  11   0 2719.66 367.247   6
   4  11   1 2167.98 356.685   7
   4  11   2 98.6286 119.105   7
   4  11   3 228.324 145.774   7
   4  11   4-3.86775 101.939   7
   4  11   5 148.186 98.5389   7
   4  11   5 285.389 170.320   4
   4  11   6 76.1065 112.135   7
   4  11   6-63.8009 66.2773   4
   4  11   7 2.92915 75.6547   7
   4  11   7 229.099 138.216   4
   4  11   8 565.835 220.145   7
   4  11   9-124.232 158.932   7
   4  12  -4 3530.08 476.850   6
   4  12  -3 504.628 179.963   6
   4  12  -2 464.224 185.915   7
   4  12  -2 222.815 120.611   6
   4  12  -1 766.371 247.564   7
   4  12  -1 446.607 169.328   6
   4  12   0 192.422 133.482   7
   4  12   0 107.030 90.2448   6
   4  12   1 274.394 154.701   7
   4  12   1 530.385 178.018   6
   4  12   2 213.281 121.899   7
   4  12   3 719.159 214.412   7
   4  12   4 267.958 179.926   7
   4  12   5 234.953 98.0636   7
   4  12   6 26.8070 134.202   7
   4  13   0 328.074 148.796   6
   4  13   1 1110.06 258.985   6
   5 -10  -3 145.280 128.655   1
  -5  10   3 526.886 201.667   4
  -5  10   2 629.299 207.311   4
  -5  10   1-88.2603 82.0075   4
   5  -9  -6-175.912 137.209   1
  -5   9   5 18.2789 79.9263   4
   5  -9  -5 1112.89 278.673   1
   5  -9  -4 54.2172 113.146   1
  -5   9   4-78.0258 100.182   4
   5  -9  -3-28.9791 123.231   1
  -5   9   3 168.670 115.795   4
   5  -9  -2 350.303 166.561   1
  -5   9   2 591.049 204.595   4
  -5   9   1 128.908 102.849   4
  -5   9   0 1542.22 316.036   2
  -5   9   0 1468.75 280.152   4
  -5   9  -1 322.504 180.340   2
  -5   9  -2 214.647 106.043   2
  -5   9  -3 1836.45 353.166   2
  -5   9  -4 1073.48 256.941   2
  -5   9  -5 223.185 137.702   2
  -5   9  -6-164.385 111.239   2
   5  -8  -7 446.874 205.725   1
   5  -8  -6 758.875 260.935   1
  -5   8   6 532.815 185.071   4
   5  -8  -5 990.924 260.687   1
  -5   8   5 881.210 216.770   4
  -5   8   4 2566.72 378.575   4
   5  -8  -4 2362.78 398.527   1
   5  -8  -3 21.5614 78.9333   1
  -5   8   3 223.962 126.002   4
  -5   8   2 145.566 115.754   4
   5  -8  -2-176.629 135.623   1
   5  -8  -1 1041.73 264.997   1
  -5   8   1 1247.59 249.634   4
  -5   8   0 1143.52 210.397   4
  -5   8  -1 145.657 109.811   2
  -5   8  -1-91.7914 113.098   4
  -5   8  -2-108.914 132.225   2
  -5   8  -3-73.0884 91.0191   2
  -5   8  -4 2888.94 407.866   2
  -5   8  -5 2151.16 346.746   2
  -5   8  -6 1421.47 296.048   2
  -5   8  -7 935.615 242.756   2
  -5   8  -8 1036.00 229.574   6
  -5   8  -8 1083.46 248.566   2
  -5   8  -9 50.9912 71.7997   6
  -5   8 -10 2498.30 378.890   6
   5  -7  -8 547.217 204.014   1
   5  -7  -7 340.503 159.453   1
   5  -7  -6 325.728 174.196   1
   5  -7  -5-31.1851 78.8848   1
   5  -7  -4 249.179 184.164   1
  -5   7   4 211.479 111.886   4
  -5   7   3 3423.61 393.152   4
   5  -7  -3 3545.38 469.432   1
   5  -7  -2 1114.08 277.654   1
  -5   7   2 951.412 204.596   4
   5  -7  -1 46.6164 73.3792   1
  -5   7   1 163.288 105.354   4
   5  -7   0 192.757 107.467   1
  -5   7   0 299.835 119.195   4
  -5   7  -1 319.066 149.775   2
  -5   7  -1 256.154 113.410   4
  -5   7  -2 1115.64 244.228   2
  -5   7  -3 2453.42 361.211   2
  -5   7  -4-72.3884 106.835   2
  -5   7  -5 3423.35 419.758   2
  -5   7  -6 6052.61 562.099   2
  -5   7  -7 1131.24 258.182   2
  -5   7  -8 2017.42 308.695   6
  -5   7  -8 2331.94 348.577   2
  -5   7  -9 339.209 144.251   6
  -5   7  -9 269.636 136.762   2
  -5   7 -10 73.2256 94.0386   6
  -5   7 -11 219.904 113.158   6
   5  -6  -9-54.0470 104.367   1
   5  -6  -8 3010.99 474.625   1
   5  -6  -7 714.424 231.818   1
   5  -6  -6 1838.44 351.064   1
   5  -6  -5 29.9377 101.127   1
   5  -6  -4 540.836 174.324   1
   5  -6  -3 2257.00 364.639   1
  -5   6   2 10040.1 601.013   4
   5  -6  -2 9837.18 727.430   1
  -5   6   1 3688.43 355.688   4
   5  -6  -1 3282.33 417.104   1
   5  -6   0-75.4645 86.7049   1
  -5   6   0 61.1398 77.5847   4
  -5   6  -1 11098.2 578.966   4
  -5   6  -1 11810.4 743.240   2
  -5   6  -2-185.391 138.069   2
  -5   6  -3 2894.87 373.306   2
  -5   6  -4 596.414 174.493   2
  -5   6  -5-59.0080 91.0858   2
  -5   6  -6 5012.81 480.466   2
  -5   6  -7 4544.23 468.187   2
  -5   6  -8 1506.63 250.589   6
  -5   6  -8 1448.41 256.869   2
  -5   6  -9 456.337 138.609   6
  -5   6  -9 777.853 198.310   2
  -5   6 -10 306.660 119.103   6
  -5   6 -10 66.8727 53.0344   2
  -5   6 -11 27.6274 53.1110   6
   5  -6  11 56.7202 99.5674   5
  -5   6 -11 162.165 112.713   2
   5  -5 -10 4605.86 603.505   1
   5  -5  -9 8095.21 761.599   1
   5  -5  -8 486.990 149.020   1
   5  -5  -7 2049.00 369.278   1
   5  -5  -6 404.209 135.639   1
   5  -5  -5 952.438 251.570   1
   5  -5  -4 2354.53 361.327   1
   5  -5  -3 6562.63 589.165   1
   5  -5  -2 2249.67 337.470   1
  -5   5   1 72.3784 59.0106   4
   5  -5  -1 110.403 77.9078   1
  -5   5   0 8509.05 478.172   4
   5  -5   0 8496.07 634.385   1
  -5   5  -1 2469.35 249.818   4
   5  -5   1 2316.45 341.643   1
  -5   5  -2 680.558 181.664   2
  -5   5  -2 858.712 137.173   4
  -5   5  -3 4323.55 429.130   2
  -5   5  -4 5857.29 494.555   2
  -5   5  -5 4934.56 458.807   2
  -5   5  -6 3244.59 375.381   2
  -5   5  -7 173.213 111.409   2
  -5   5  -8 3083.94 331.733   6
  -5   5  -8 2636.86 343.568   2
  -5   5  -9 471.150 142.358   6
  -5   5  -9 246.372 105.044   2
  -5   5 -10 4351.29 445.883   2
  -5   5 -10 3940.65 393.637   6
   5  -5  10 4013.00 463.646   5
  -5   5 -11 844.485 193.987   6
   5  -5  11 810.925 206.870   5
  -5   5 -11 1042.47 222.837   2
   5  -5  12-104.363 122.468   5
  -5   5 -12 65.7576 69.5791   2
   5  -4 -11 1251.55 309.708   1
   5  -4 -10 3100.49 475.259   1
   5  -4  -9 7745.15 730.341   1
   5  -4  -8 4724.69 539.779   1
   5  -4  -7 3043.93 434.088   1
   5  -4  -6 38.1936 114.541   1
   5  -4  -5 315.865 159.618   1
   5  -4  -4 20534.4 516.986   5
   5  -4  -4 22601.9 1069.35   1
   5  -4  -3 3994.31 217.456   5
   5  -4  -3 4574.75 467.363   1
   5  -4  -2 304.207 97.9676   1
   5  -4  -1 8425.85 614.901   1
  -5   4   0 13959.2 547.140   4
   5  -4   0 14287.4 793.679   1
   5  -4   1 16817.1 854.780   1
  -5   4  -1 17982.9 600.608   4
  -5   4  -2 7605.82 360.332   4
  -5   4  -2 8091.62 553.691   2
  -5   4  -3 21953.3 905.950   2
  -5   4  -4 5697.35 462.750   2
  -5   4  -5 443.468 141.375   2
  -5   4  -6 3454.49 363.741   2
  -5   4  -7 2.07445 71.3593   2
  -5   4  -8 381.327 105.298   6
   5  -4   8 435.296 134.869   5
  -5   4  -8 340.774 127.882   2
  -5   4  -9 5349.65 472.803   2
  -5   4  -9 5015.43 403.602   6
   5  -4   9 5399.52 490.877   5
  -5   4 -10 270.885 93.9568   6
   5  -4  10 329.470 138.894   5
  -5   4 -10 265.412 109.122   2
  -5   4 -11-9.94252 76.6396   6
   5  -4  11 82.8309 109.098   5
  -5   4 -11 80.4942 60.5320   2
   5  -4  12 36.0693 93.8999   5
  -5   4 -12 153.358 110.970   2
   5  -4  13 424.126 155.431   5
   5  -3 -11 607.141 241.432   1
   5  -3 -10 1522.12 333.086   1
   5  -3  -9 833.644 266.648   1
   5  -3  -8 7041.51 643.829   1
   5  -3  -7 41112.4 1502.26   1
   5  -3  -6 1943.03 324.680   1
  -5   3   5 12.4039 30.3887   7
   5  -3  -5 147.058 117.530   1
   5  -3  -4 6479.18 557.929   1
  -5   3   4 6197.64 273.526   3
  -5   3   4 6574.26 352.736   7
   5  -3  -3 4601.78 171.627   5
   5  -3  -3 5300.40 485.018   1
   5  -3  -2 19831.4 341.538   5
   5  -3  -2 22273.5 980.803   1
   5  -3  -1 8204.88 583.896   1
   5  -3   0 2874.43 351.044   1
  -5   3  -1 2587.55 199.507   4
   5  -3   1 2500.57 314.931   1
  -5   3  -2 26322.8 555.754   4
  -5   3  -2 25876.8 932.066   2
  -5   3  -3 12357.5 643.108   2
  -5   3  -4 2408.89 286.610   2
  -5   3  -5 558.613 158.998   2
   5  -3   6 10113.5 546.687   5
  -5   3  -6 9460.82 577.040   2
  -5   3  -7 8787.74 455.247   6
   5  -3   7 9636.59 565.397   5
  -5   3  -7 9197.03 569.029   2
  -5   3  -8 3024.33 276.853   6
   5  -3   8 3439.75 366.459   5
  -5   3  -8 2772.07 318.148   2
  -5   3  -9 1081.97 178.246   6
   5  -3   9 1228.80 232.265   5
  -5   3  -9 1202.06 218.880   2
  -5   3 -10 635.732 142.643   6
   5  -3  10 639.261 191.621   5
  -5   3 -10 497.129 144.579   2
   5  -3  11-23.1947 116.883   5
  -5   3 -11 65.3103 93.4802   2
  -5   3 -12 9302.54 640.636   2
   5  -3  12 9654.30 751.662   5
   5  -3  12 9225.87 720.674   8
   5  -3  13 422.182 169.554   5
  -5   3 -13 391.755 147.086   2
   5  -3  13 621.156 191.904   8
   5  -2 -12 1752.00 375.582   1
   5  -2 -11 227.629 132.193   1
   5  -2 -10 83.4559 118.382   1
   5  -2  -9 541.757 217.240   1
   5  -2  -8 6009.79 581.103   1
   5  -2  -7 3870.38 452.250   1
   5  -2  -6 3876.89 434.806   1
   5  -2  -5 7940.13 604.851   1
  -5   2   5 7577.78 289.973   7
   5  -2  -4 4891.33 457.700   1
  -5   2   4 4734.83 246.035   3
  -5   2   4 4816.20 279.717   7
   5  -2  -3 11226.8 684.058   1
  -5   2   3 11768.1 482.891   7
   5  -2  -2 84.2638 117.692   1
  -5   2   2 151.876 68.3570   7
   5  -2  -1 28300.8 1039.72   1
   5  -2   0 12.8951 12.6089   5
   5  -2   0-23.4903 84.1906   1
   5  -2   1 2014.43 131.602   5
   5  -2   1 1935.18 273.929   1
   5  -2   2 18960.9 482.307   5
  -5   2  -2 20109.8 376.006   4
  -5   2  -2 20298.3 775.649   2
  -5   2  -3 472.635 123.586   2
   5  -2   3 431.620 85.3886   5
  -5   2  -4 18802.2 746.592   2
  -5   2  -5 11519.3 588.112   2
   5  -2   6 68459.4 1367.26   5
  -5   2  -6 67187.2 1428.22   2
  -5   2  -7 1531.07 173.808   6
   5  -2   7 1564.79 228.168   5
  -5   2  -7 1498.39 224.668   2
  -5   2  -8 7667.21 506.045   2
  -5   2  -8 7276.81 388.423   6
   5  -2   8 7485.02 516.293   5
   5  -2   8 7081.61 219.036   4
  -5   2  -9 2831.95 319.819   2
  -5   2  -9 3214.82 277.466   6
   5  -2   9 3135.22 364.882   5
   5  -2  10 1227.91 230.565   5
  -5   2 -10 909.817 185.678   2
   5  -2  11 335.460 134.149   5
  -5   2 -11 125.080 85.0507   2
   5  -2  11 105.270 92.2768   8
   5  -2  12-48.5100 91.0493   8
   5  -2  12 127.655 94.9277   5
  -5   2 -12 29.5435 64.3334   2
   5  -2  13 106.537 136.402   5
  -5   2 -13 35.8633 75.8379   2
   5  -2  13-17.6742 113.094   8
   5  -2  14 91.1928 121.070   5
   5  -2  14 37.1075 86.6401   8
   5  -1 -12 64.1511 105.643   1
   5  -1 -11 642.013 220.948   1
   5  -1 -10 20.1974 92.9847   1
   5  -1  -9-84.5732 131.727   1
   5  -1  -8 6439.56 587.550   1
   5  -1  -7 11956.9 760.262   1
   5  -1  -6 34338.1 1230.60   1
   5  -1  -5 42581.7 1338.34   1
  -5   1   5 41374.0 635.559   7
  -5   1   4 568.168 91.9846   7
   5  -1  -4 364.364 144.027   1
  -5   1   4 442.438 83.2642   3
  -5   1   3 700.955 120.467   7
   5  -1  -3 738.756 173.466   1
  -5   1   3 684.534 113.381   3
   5  -1  -2 1548.33 235.714   1
  -5   1   2 1921.20 208.245   7
   5  -1  -1 18641.9 802.073   1
  -5   1   1 18907.2 672.174   7
  -5   1   0 17911.9 681.674   7
  -5   1  -1 15251.1 616.790   2
   5  -1   2 6383.45 265.066   5
  -5   1  -2 6022.81 389.936   2
   5  -1   3 3108.39 214.771   5
  -5   1  -3 2857.77 270.435   2
  -5   1  -4 426.145 120.566   2
   5  -1   4 498.046 103.658   5
  -5   1  -5 33551.9 946.513   2
  -5   1  -6 22443.8 543.197   6
   5  -1   6 22071.0 759.985   5
  -5   1  -6 22891.1 795.720   2
  -5   1  -7 4219.03 350.353   2
  -5   1  -7 4177.57 245.035   6
   5  -1   7 3888.28 352.391   5
  -5   1  -8 2259.82 267.332   2
   5  -1   8 2605.82 304.869   5
  -5   1  -9 2963.32 311.850   2
   5  -1   9 3118.43 349.909   5
  -5   1 -10 3948.62 375.810   2
   5  -1  10 3699.88 414.415   5
   5  -1  11 90.4816 106.428   5
  -5   1 -11 204.750 102.382   2
   5  -1  11 155.214 106.800   8
   5  -1  12 1250.31 237.900   8
   5  -1  12 1458.36 281.308   5
  -5   1 -12 1557.98 250.705   2
   5  -1  13 251.761 157.786   5
  -5   1 -13 437.880 140.168   2
   5  -1  13 240.454 114.323   8
   5  -1  14 1733.20 336.316   5
  -5   1 -14 1779.20 292.905   2
   5  -1  14 1551.98 294.242   8
   5   0 -12-47.5317 152.827   1
   5   0 -11 650.702 228.801   1
   5   0 -10 659.058 198.163   1
   5   0  -9-57.3956 101.811   1
   5   0  -8 6520.54 578.200   1
   5   0  -7 293.939 128.637   1
   5   0  -6 289.368 125.134   1
   5   0  -5 1063.00 231.104   1
  -5   0   5 1034.72 104.617   7
   5   0  -4 641.753 167.906   1
  -5   0   4 682.756 105.616   7
  -5   0   4 438.512 94.4811   3
  -5   0   3 162.173 52.3878   7
   5   0  -3 137.548 66.1704   1
  -5   0   3 298.080 79.5396   3
  -5   0   2 14672.8 650.190   1
   5   0  -2 14596.1 700.116   1
  -5   0   2 14420.6 538.935   7
  -5   0   1 3723.64 329.303   1
   5   0  -1 3350.90 332.849   1
  -5   0   1 3567.02 283.879   7
  -5   0   0 18096.4 733.573   1
   5   0   0 17038.4 734.602   1
  -5   0   0 18867.8 681.872   7
  -5   0  -1 1409.41 203.167   7
  -5   0  -1 1324.04 201.144   1
  -5   0  -1 1226.01 164.971   2
   5   0   1 1620.46 237.398   1
  -5   0  -2 40655.9 1140.76   1
  -5   0  -2 38734.6 926.344   2
  -5   0  -2 38729.3 1050.90   7
  -5   0  -3 6974.01 475.528   1
  -5   0  -3 6502.32 403.617   8
  -5   0  -3 7020.76 464.706   7
  -5   0  -3 6374.22 378.901   2
  -5   0  -4 15770.8 600.549   2
  -5   0  -5 895.165 84.5921   6
  -5   0  -5 1089.29 167.421   2
  -5   0  -6 8483.54 269.662   6
   5   0   6 8260.36 471.967   5
  -5   0  -6 8791.56 471.258   2
  -5   0  -7 77812.1 1428.77   2
   5   0   7 77883.8 1541.78   5
  -5   0  -8 29152.8 911.119   2
   5   0   8 27434.1 975.533   5
   5   0   9 300.160 133.047   5
  -5   0  -9 324.672 110.751   2
   5   0  10 818.306 189.982   5
  -5   0 -10 849.694 173.023   2
  -5   0 -11 2451.36 300.587   2
  -5   0 -12 718.441 182.992   2
   5   0  12 265.189 128.046   8
  -5   0 -13 297.857 128.905   2
   5   0  13 55.9328 97.1244   8
  -5   0 -14-84.2948 91.9151   2
   5   0  14-101.587 112.526   8
   5   0  15 93.3735 97.3080   8
   5   1 -13 2912.03 481.902   1
   5   1 -12 5457.69 612.345   1
   5   1 -11 757.703 239.941   1
  -5  -1  10 572.188 158.672   5
   5   1 -10 389.252 166.627   1
  -5  -1   9 390.054 102.595   5
   5   1  -9 400.672 141.671   1
  -5  -1   8 1983.93 223.411   5
   5   1  -8 1859.79 302.973   1
  -5  -1   7 193.426 79.0771   5
   5   1  -7 181.557 100.917   1
   5   1  -6 3653.57 389.633   1
  -5  -1   6 3600.12 243.225   5
  -5  -1   5 11762.4 503.332   2
   5   1  -5 12766.1 684.494   1
  -5  -1   5 12691.5 395.507   5
  -5  -1   5 12165.7 367.349   7
   5   1  -4 75754.8 1605.30   1
  -5  -1   4 76780.2 819.781   5
  -5  -1   4 77913.2 1049.50   7
  -5  -1   3 35475.7 962.712   1
  -5  -1   3 33830.0 433.835   5
   5   1  -3 35026.7 1073.10   1
  -5  -1   3 34988.2 820.349   3
  -5  -1   3 34602.0 768.463   7
  -5  -1   2 615.615 115.689   7
  -5  -1   2 539.055 123.691   1
   5   1  -2 477.742 128.949   1
  -5  -1   2 761.332 127.026   3
  -5  -1   1 31876.0 919.704   1
   5   1  -1 31186.6 966.012   1
  -5  -1   1 30694.7 824.383   7
  -5  -1   0 2286.88 255.676   1
  -5  -1   0 2410.52 119.834   5
  -5  -1   0 2314.11 234.807   7
  -5  -1  -1 4383.21 203.754   5
  -5  -1  -1 4371.73 348.068   1
  -5  -1  -1 4380.36 282.763   2
  -5  -1  -1 4463.15 338.659   7
  -5  -1  -2 22024.1 521.099   5
  -5  -1  -2 21286.9 383.835   4
  -5  -1  -2 22507.3 812.695   1
  -5  -1  -2 21412.4 627.906   2
  -5  -1  -2 22407.3 789.403   7
  -5  -1  -3 2416.68 195.933   5
  -5  -1  -3 2467.20 275.181   1
  -5  -1  -3 2616.39 277.565   7
  -5  -1  -3 2549.69 224.752   2
  -5  -1  -4 379.153 94.4467   2
   5   1   4 310.532 79.7356   2
  -5  -1  -4 407.414 101.656   8
  -5  -1  -4 628.618 153.504   1
   5   1   5 4189.72 324.008   2
  -5  -1  -5 3972.84 289.869   2
  -5  -1  -6 352.448 98.1526   2
   5   1   6 274.025 39.9234   4
  -5  -1  -7 2529.46 252.373   2
   5   1   7 2592.73 157.145   4
  -5  -1  -8 137.664 86.2428   2
  -5  -1  -9 189.177 98.9322   2
  -5  -1 -10 98.5789 58.9152   2
  -5  -1 -11 70.7307 51.6421   2
  -5  -1 -12 134.972 87.0279   2
  -5  -1 -13-6.53408 56.5252   2
  -5  -1 -14-104.610 110.002   2
   5   2 -13-112.166 163.023   1
  -5  -2  12 2774.73 353.885   5
   5   2 -12 1978.03 365.644   1
   5   2 -11 5017.84 565.335   1
  -5  -2  11 4722.99 434.099   5
  -5  -2  10 1649.96 244.938   5
   5   2 -10 1676.86 314.770   1
  -5  -2   9 44.7100 55.7248   5
   5   2  -9-34.7805 102.136   1
   5   2  -8 154.851 53.6692   7
  -5  -2   8 302.575 101.958   5
   5   2  -8 154.282 92.4603   1
   5   2  -7 3432.00 376.636   1
  -5  -2   7 3840.99 299.269   5
   5   2  -7 3438.33 251.370   7
  -5  -2   6 22950.1 665.297   2
   5   2  -6 23387.3 942.238   1
   5   2  -6 23868.1 694.133   7
  -5  -2   5 2810.95 226.860   2
   5   2  -5 2902.44 313.990   1
   5   2  -5 2918.38 249.968   7
  -5  -2   4 3606.22 245.303   2
   5   2  -4 3550.32 336.812   1
   5   2  -4 3626.09 282.619   7
  -5  -2   4 3889.47 303.810   1
  -5  -2   4 3658.69 237.070   7
   5   2  -3 63.3827 50.7410   7
  -5  -2   3 1.91130 35.8431   7
   5   2  -3 69.0499 70.7978   1
  -5  -2   3 92.0915 54.5962   1
  -5  -2   3 205.139 93.7864   3
   5   2  -2 454.909 103.027   7
  -5  -2   2 453.749 105.053   7
  -5  -2   2 345.248 93.4308   1
  -5  -2   2 329.872 93.9688   3
  -5  -2   1 9701.46 482.907   1
  -5  -2   1 9231.84 477.586   3
   5   2  -1 9497.67 490.388   7
  -5  -2   1 9433.43 450.353   7
  -5  -2   0 22917.1 744.562   1
  -5  -2   0 23176.7 774.043   3
  -5  -2   0 22918.3 580.258   2
   5   2   0 23060.1 780.942   7
  -5  -2   0 23172.2 737.275   7
  -5  -2  -1 4650.49 227.628   6
  -5  -2  -1 4801.00 344.496   1
  -5  -2  -1 4557.30 245.836   4
  -5  -2  -1 4620.01 258.305   2
  -5  -2  -1 5087.42 364.693   7
  -5  -2  -2 7094.82 225.585   6
  -5  -2  -2 7086.17 336.789   5
  -5  -2  -2 7033.66 283.006   4
  -5  -2  -2 7006.79 428.321   1
  -5  -2  -2 7311.97 451.239   7
  -5  -2  -2 7091.39 329.489   2
  -5  -2  -3 13621.9 508.866   5
  -5  -2  -3 13853.5 619.408   1
  -5  -2  -3 14468.9 480.360   2
  -5  -2  -4 2142.76 192.377   2
  -5  -2  -4 2510.30 235.894   5
  -5  -2  -4 2259.13 252.694   1
  -5  -2  -4 2647.45 242.813   8
   5   2   4 2547.38 231.605   2
  -5  -2  -5 2738.70 229.996   2
  -5  -2  -5 3083.81 283.520   5
  -5  -2  -5 2693.75 235.652   8
  -5  -2  -5 2622.06 277.090   1
   5   2   5 2791.18 254.401   2
  -5  -2  -6-30.3871 67.7853   5
  -5  -2  -6-15.9895 52.3378   2
   5   2   6 16.5653 33.1188   4
  -5  -2  -7 3101.63 266.731   2
   5   2   7 3157.48 213.168   4
  -5  -2  -8 7643.54 437.635   2
   5   2   8 7728.09 360.229   4
  -5  -2  -9 28821.2 898.575   2
  -5  -2 -10 13028.5 634.902   2
  -5  -2 -11 2102.11 277.858   2
  -5  -2 -12 43.4559 70.8624   2
  -5  -2 -13 299.299 126.973   2
  -5  -2 -14 320.850 135.379   2
   5   3 -13 1470.16 319.150   1
  -5  -3  12 1389.31 258.039   5
   5   3 -12 871.299 231.880   1
  -5  -3  11 1140.20 226.533   5
   5   3 -11 790.234 221.444   1
   5   3 -10 5247.45 535.698   1
  -5  -3  10 5172.47 454.785   5
   5   3  -9-9.33821 53.2904   7
  -5  -3   9-69.4202 77.2075   5
   5   3  -9-32.7924 100.689   1
   5   3  -8 63.4597 63.6999   7
   5   3  -8 47.2365 72.2741   1
  -5  -3   7 4196.11 282.423   2
   5   3  -7 4502.01 427.475   1
   5   3  -7 4265.22 316.950   7
  -5  -3   6 16543.1 521.934   2
   5   3  -6 17808.2 800.664   1
   5   3  -6 16261.1 628.432   7
   5   3  -5 190.175 105.655   7
  -5  -3   5 135.581 52.6281   2
   5   3  -5 90.5957 84.2907   1
  -5  -3   4 6086.87 315.865   7
  -5  -3   4 5527.33 267.506   2
   5   3  -4 6069.04 428.377   1
   5   3  -4 5915.85 387.838   7
  -5  -3   4 6054.55 352.824   1
  -5  -3   3 9385.24 479.523   6
  -5  -3   3 8994.82 322.713   2
   5   3  -3 8429.37 463.347   7
  -5  -3   3 8955.14 402.737   7
  -5  -3   3 8813.66 422.952   1
   5   3  -2 37421.3 989.040   7
  -5  -3   2 38629.8 883.582   1
  -5  -3   2 37417.9 891.117   6
  -5  -3   2 39180.6 958.496   3
  -5  -3   2 38734.6 888.550   7
  -5  -3   1 14465.4 542.256   1
  -5  -3   1 14875.7 512.496   6
  -5  -3   1 14991.6 620.437   3
  -5  -3   1 14575.8 403.657   2
   5   3  -1 14255.7 624.157   7
  -5  -3   1 15119.4 576.607   7
   5   3   0-51.5074 76.7045   7
  -5  -3   0 99.9267 73.2511   7
  -5  -3   0-42.6811 37.4140   6
  -5  -3   0 2.48634 24.8083   2
  -5  -3   0 2.10954 37.1395   1
  -5  -3   0 17.2241 64.3353   3
   5   3   0 27.6401 44.8895   1
  -5  -3  -1 36445.2 628.790   6
  -5  -3  -1 35944.3 885.162   1
  -5  -3  -1 36177.6 781.136   4
  -5  -3  -1 37011.8 1021.63   3
   5   3   1 40412.7 946.728   1
   5   3   1 36129.0 1037.17   7
  -5  -3  -1 37161.5 638.458   2
  -5  -3  -1 38238.0 977.701   7
  -5  -3  -2 24576.6 617.742   4
  -5  -3  -2 24577.3 758.839   1
   5   3   2 24707.0 875.270   7
  -5  -3  -2 24939.9 815.580   7
  -5  -3  -2 24778.4 538.503   2
   5   3   3 1155.51 189.397   7
  -5  -3  -3 1450.51 140.758   2
  -5  -3  -3 1379.46 187.020   1
   5   3   3 1184.84 141.102   2
  -5  -3  -4 41.0089 54.6143   1
  -5  -3  -4-18.5977 53.3986   5
  -5  -3  -4-28.8908 43.1393   2
  -5  -3  -4 11.9052 37.1953   8
  -5  -3  -5 1508.55 159.991   2
  -5  -3  -5 1413.56 197.879   5
   5   3   5 1463.20 155.183   4
  -5  -3  -5 1531.95 171.972   8
  -5  -3  -5 1270.79 194.006   1
   5   3   5 1495.58 178.504   2
  -5  -3  -6 5957.50 333.099   2
   5   3   6 6081.52 330.368   4
  -5  -3  -6 5619.93 316.485   8
   5   3   6 5763.54 376.051   2
  -5  -3  -7 12482.3 517.646   2
   5   3   7 12810.9 502.315   4
  -5  -3  -8 92.1612 52.2055   2
   5   3   9 1438.82 199.376   4
  -5  -3  -9 1201.28 185.452   2
  -5  -3 -10 6623.73 455.240   2
  -5  -3 -11 851.207 189.581   2
  -5  -3 -12 379.061 122.085   2
  -5  -3 -13 867.307 199.295   2
  -5  -3 -14 149.471 99.9914   2
  -5  -4  13 1303.98 272.987   5
   5   4 -13 1511.63 333.627   1
  -5  -4  12 443.582 153.459   5
   5   4 -12 632.742 215.713   1
  -5  -4  11 2717.76 359.398   5
   5   4 -11 1873.98 335.434   1
   5   4 -10 5650.38 548.731   1
   5   4  -9 604.272 131.390   7
   5   4  -9 450.576 180.449   1
   5   4  -8 3703.43 398.259   1
   5   4  -8 3397.19 306.816   7
  -5  -4   7 4445.03 274.432   2
   5   4  -7 4497.47 415.209   1
   5   4  -7 4223.95 342.121   7
  -5  -4   6 4133.81 242.474   2
   5   4  -6 4203.65 383.657   1
   5   4  -6 4231.67 340.399   7
   5   4  -5 625.977 138.985   7
  -5  -4   5 683.367 90.7002   2
   5   4  -5 487.880 133.490   1
  -5  -4   4 53509.5 712.261   2
   5   4  -4 55269.4 1230.54   1
   5   4  -4 53734.0 1233.89   7
  -5  -4   3 37671.8 854.635   7
  -5  -4   3 35317.4 512.245   2
  -5  -4   3 37819.5 973.184   6
   5   4  -3 35646.8 1012.46   7
  -5  -4   3 35791.3 773.000   1
   5   4  -2-24.6858 56.6273   7
  -5  -4   2-13.8519 32.1594   1
  -5  -4   2-39.4737 41.0427   7
  -5  -4   2-74.4008 53.1839   6
   5   4  -2-36.0614 55.1688   1
  -5  -4   2 36.2939 20.1972   2
  -5  -4   1 3127.07 138.331   2
  -5  -4   1 3264.02 236.436   1
  -5  -4   1 2996.71 234.053   6
   5   4  -1 3355.12 273.196   1
  -5  -4   1 3521.35 311.013   3
   5   4  -1 3266.97 320.257   7
  -5  -4   1 3152.74 270.089   7
  -5  -4   0 1868.24 183.776   1
  -5  -4   0 1899.50 209.147   4
  -5  -4   0 2070.30 243.537   3
   5   4   0 2143.18 210.901   1
   5   4   0 1878.43 241.867   7
  -5  -4   0 1742.81 100.025   2
  -5  -4  -1 16667.3 335.545   2
  -5  -4  -1 16215.2 543.136   1
  -5  -4  -1 16233.5 580.644   4
  -5  -4  -1 16801.1 700.145   3
   5   4   1 15050.5 691.349   7
   5   4   2 1015.14 198.010   7
  -5  -4  -2 1243.07 106.210   2
  -5  -4  -2 1244.78 160.872   1
  -5  -4  -2 1216.45 158.774   4
  -5  -4  -2 1310.82 210.106   3
  -5  -4  -3 11245.4 344.534   2
  -5  -4  -3 10117.2 473.108   1
  -5  -4  -3 11371.3 603.963   3
   5   4   3 10305.3 387.045   2
   5   4   3 10470.7 610.138   7
   5   4   4 68.6336 90.9984   7
   5   4   4-17.2319 34.9534   2
  -5  -4  -4 64.3040 44.5178   2
  -5  -4  -4-44.6782 52.9730   8
  -5  -4  -4 18.7705 43.7118   1
   5   4   5 1334.36 221.186   7
  -5  -4  -5 1846.67 171.935   2
  -5  -4  -5 1666.38 171.419   8
  -5  -4  -5 1481.10 194.020   1
   5   4   5 1544.48 174.606   2
  -5  -4  -6 9067.24 407.682   2
  -5  -4  -6 9273.01 375.909   8
   5   4   6 8465.45 438.820   2
  -5  -4  -7 7394.69 398.135   2
  -5  -4  -8 3318.36 284.187   2
   5   4   8 3404.25 302.738   4
  -5  -4  -9 5565.34 393.411   2
   5   4   9 6061.66 421.506   4
   5   4  10 1068.18 190.239   4
  -5  -4 -10 883.850 173.551   2
  -5  -4 -11 6855.72 492.988   2
  -5  -4 -12 5983.13 487.039   2
  -5  -4 -13 181.787 106.714   2
  -5  -4 -14 134.506 117.959   2
  -5  -5  13-17.3654 94.7840   5
   5   5 -13 90.9085 115.322   1
  -5  -5  12 1343.30 278.912   5
   5   5 -12 1287.40 288.300   1
   5   5 -11 844.889 221.090   1
   5   5 -10 10272.9 732.080   1
   5   5  -9 1436.06 217.294   7
   5   5  -9 1289.70 248.353   1
   5   5  -8 12682.7 721.875   1
   5   5  -8 11804.9 613.116   7
   5   5  -7 5002.99 425.996   1
   5   5  -7 4655.27 383.660   7
  -5  -5   6 4276.95 234.246   2
   5   5  -6 4510.36 384.255   1
   5   5  -6 4344.33 373.187   7
  -5  -5   5 40676.6 623.619   2
   5   5  -5 42996.8 1109.47   1
   5   5  -5 41083.0 1127.40   7
   5   5  -4 358.430 110.192   7
  -5  -5   4 339.488 48.5621   2
   5   5  -3 1192.67 200.034   7
   5   5  -3 1658.84 200.618   1
   5   5  -2 4422.52 307.605   1
  -5  -5   2 4230.26 227.752   1
   5   5  -2 4040.19 366.469   7
  -5  -5   1 282.227 63.7658   1
   5   5  -1 329.505 129.242   7
   5   5  -1 414.690 85.9101   1
   5   5   0 1618.05 243.977   7
  -5  -5   0 1512.06 140.027   1
  -5  -5   0 1554.04 198.653   4
  -5  -5   0 1752.96 239.453   3
   5   5   1 887.753 185.845   7
  -5  -5  -1 671.608 45.2977   2
  -5  -5  -1 688.689 135.723   4
  -5  -5  -1 796.434 103.439   1
  -5  -5  -1 940.808 180.383   3
  -5  -5  -2 4151.64 163.887   2
  -5  -5  -2 4184.71 261.922   1
  -5  -5  -2 4325.87 319.540   4
  -5  -5  -2 4533.75 383.483   3
   5   5   2 4418.38 397.372   7
  -5  -5  -3 39167.8 610.222   2
  -5  -5  -3 37614.8 838.477   1
  -5  -5  -3 39382.4 1136.19   3
   5   5   3 38372.3 694.510   2
   5   5   3 38115.3 1190.15   7
  -5  -5  -4 2216.80 167.443   2
   5   5   4 2317.98 140.094   6
  -5  -5  -4 2122.01 215.064   1
  -5  -5  -4 2199.82 267.885   3
  -5  -5  -4 2223.40 188.697   8
   5   5   4 2485.64 322.956   7
   5   5   4 2108.24 184.504   2
  -5  -5  -5 40.9635 53.1848   1
   5   5   5 66.7321 19.6548   6
   5   5   5 42.7238 31.2928   2
   5   5   5 87.2103 78.1073   4
  -5  -5  -5-92.4808 107.612   3
  -5  -5  -5 77.3056 37.9881   2
  -5  -5  -5 35.8838 35.4661   8
  -5  -5  -6 20991.6 622.735   2
   5   5   6 21040.0 767.668   4
  -5  -5  -6 21657.9 890.841   3
   5   5   6 21184.9 943.074   7
   5   5   6 20449.2 665.459   2
  -5  -5  -7 1591.85 187.325   2
   5   5   7 1451.00 216.059   4
  -5  -5  -8 2562.49 259.512   2
   5   5   8 3019.95 317.353   4
  -5  -5  -9 10730.9 553.645   2
   5   5   9 11473.9 634.999   4
   5   5  10 51.6860 66.0239   4
  -5  -5 -10 33.8313 46.3365   2
   5   5  11 129.371 71.0457   4
  -5  -5 -11 126.018 99.9596   2
   5   5  12 2369.79 323.560   4
  -5  -5 -12 2068.75 294.658   2
   5   5  13 833.364 204.085   4
  -5  -5 -13 720.987 189.554   2
  -5  -5 -14 669.855 198.091   2
   5   6 -13 3690.98 504.163   1
  -5  -6  13 4851.53 562.797   5
   5   6 -12 3.44665 77.9464   1
   5   6 -11 475.963 171.104   1
   5   6 -10 2630.14 370.701   1
   5   6 -10 2306.75 295.799   7
   5   6  -9 1288.76 215.597   7
   5   6  -9 1487.24 258.955   1
   5   6  -8 133.221 87.9256   7
   5   6  -8 248.212 103.881   1
   5   6  -7 3891.64 371.722   1
   5   6  -7 4315.73 401.480   7
   5   6  -6 78.0961 87.8862   7
   5   6  -6-33.0261 56.3140   1
  -5  -6   5 4122.53 169.579   2
   5   6  -5 4423.11 402.393   7
   5   6  -4 8879.50 562.220   7
   5   6  -3 1863.70 265.143   7
   5   6  -3 2110.03 208.441   1
   5   6  -2 3418.67 237.614   1
   5   6  -2 3008.93 332.237   7
   5   6  -1 30062.6 624.573   1
   5   6  -1 28123.0 993.193   7
   5   6   0 330.101 122.504   7
  -5  -6   0 277.063 45.2168   1
  -5  -6  -1 2533.18 139.565   1
  -5  -6  -1 2954.89 309.292   3
   5   6   1 2622.35 322.528   7
   5   6   2 449.563 123.304   7
   5   6   2 535.771 105.689   6
  -5  -6  -2 507.722 72.7342   1
  -5  -6  -2 517.390 143.859   3
   5   6   3 26190.6 627.426   6
  -5  -6  -3 24433.8 581.527   1
  -5  -6  -3 25397.7 917.105   3
   5   6   3 24330.9 507.182   2
   5   6   3 23831.1 967.011   7
   5   6   4 732.687 187.074   7
  -5  -6  -4 693.280 117.816   1
   5   6   4 821.132 105.599   6
   5   6   4 740.889 106.225   2
  -5  -6  -4 977.272 200.851   3
  -5  -6  -4 777.057 107.327   8
   5   6   5 17390.8 442.849   6
  -5  -6  -5 16432.3 521.090   2
   5   6   5 17712.0 763.540   4
  -5  -6  -5 17628.5 794.372   3
  -5  -6  -5 15531.0 564.471   1
  -5  -6  -5 15695.7 433.581   8
   5   6   5 15782.7 831.577   7
   5   6   5 16194.9 532.748   2
  -5  -6  -6 14387.9 532.402   2
   5   6   6 14281.2 689.348   4
  -5  -6  -6 14957.5 754.521   3
   5   6   6 13707.2 788.484   7
   5   6   6 13358.2 525.077   2
   5   6   7 1164.84 249.608   7
   5   6   7 1085.67 200.744   4
  -5  -6  -7 1080.45 200.620   3
  -5  -6  -7 1135.44 168.305   2
  -5  -6  -8 3857.74 328.666   2
   5   6   8 4034.09 394.544   4
  -5  -6  -8 3734.42 397.675   3
  -5  -6  -9 4995.94 396.049   2
   5   6   9 5850.36 489.427   4
  -5  -6  -9 5608.03 494.612   3
   5   6  10 940.738 210.757   4
  -5  -6 -10 707.494 185.527   3
  -5  -6 -10 826.857 177.291   2
   5   6  11 1177.62 252.050   4
  -5  -6 -11 751.611 192.839   3
  -5  -6 -11 767.015 175.201   2
   5   6  12 454.878 158.055   4
  -5  -6 -12 215.854 108.437   3
  -5  -6 -12 262.210 124.421   2
   5   6  13 1892.28 318.218   4
  -5  -6 -13 1427.92 258.347   3
  -5  -6 -13 1673.57 289.240   2
  -5  -6 -14 422.907 146.713   1
   5   7 -11 533.928 174.799   1
   5   7 -10 715.444 189.918   7
   5   7 -10 866.551 215.589   1
   5   7  -9 5961.60 512.882   1
   5   7  -9 6115.86 510.493   7
   5   7  -8 5691.35 470.788   1
   5   7  -8 5759.01 502.974   7
   5   7  -7 39.0643 79.0769   7
   5   7  -7 92.5535 84.9561   1
   5   7  -6 5212.24 384.220   1
   5   7  -6 4851.57 446.521   7
   5   7  -5 4545.13 433.091   7
   5   7  -4 52880.9 1018.87   1
   5   7  -4 48916.2 1402.87   7
   5   7  -3 21175.1 566.887   1
   5   7  -3 22357.2 940.062   7
   5   7  -2 995.345 202.689   7
   5   7  -2 824.984 165.608   6
   5   7  -2 905.290 95.6486   1
   5   7  -1 15758.4 687.355   6
   5   7  -1 14944.1 767.145   7
   5   7   0 7904.08 459.842   6
   5   7   0 6419.45 507.628   7
   5   7   1 434.559 146.455   7
   5   7   1 325.765 88.9042   6
   5   7   2 27071.8 1072.92   7
   5   7   3 1872.26 292.762   7
  -5  -7  -3 1747.69 96.3218   1
  -5  -7  -3 2522.59 301.505   3
   5   7   3 1817.25 127.900   2
   5   7   4 406.354 123.988   7
   5   7   4 432.720 97.4034   6
   5   7   4 336.986 73.4714   2
  -5  -7  -4 345.191 66.7134   1
  -5  -7  -4 404.338 143.877   3
  -5  -7  -4 351.262 66.1306   8
   5   7   5 13933.7 733.595   4
  -5  -7  -5 13559.4 481.068   1
  -5  -7  -5 14935.1 734.363   3
   5   7   5 13993.8 800.139   7
   5   7   5 13496.2 473.096   2
   5   7   6 7315.88 536.365   4
  -5  -7  -6 7597.81 534.525   3
   5   7   6 7959.35 620.511   7
   5   7   7 349.256 156.462   7
   5   7   7 170.219 94.0751   4
  -5  -7  -7 222.625 105.381   3
   5   7   8 241.853 133.626   7
   5   7   8 80.9487 79.8709   4
  -5  -7  -8 290.096 122.749   3
   5   7   9 50.8260 69.1567   4
  -5  -7  -9 69.1152 90.1608   3
   5   7  10 1981.53 327.854   4
  -5  -7 -10 2041.86 303.251   3
   5   7  11 1241.21 270.642   4
  -5  -7 -11 842.685 200.552   3
  -5  -7 -11 1013.89 176.695   1
   5   7  12 189.355 140.818   4
  -5  -7 -12 2.13944 80.2086   3
  -5  -7 -12 130.034 98.4168   1
   5   7  13 28.6607 101.192   4
   5   8 -10 1156.55 239.267   7
   5   8  -9 806.772 212.776   7
   5   8  -8 6053.84 539.207   7
   5   8  -7 512.124 149.319   7
   5   8  -6 297.473 145.769   7
   5   8  -5 2063.04 316.826   7
   5   8  -4 2295.16 321.476   7
   5   8  -3 688.445 186.772   7
   5   8  -3 490.346 138.646   6
   5   8  -2 754.991 189.742   7
   5   8  -2 904.661 184.866   6
   5   8  -1 7878.95 516.444   6
   5   8  -1 8077.73 590.433   7
   5   8   0 283.719 127.014   7
   5   8   0 480.022 122.144   6
   5   8   1 7241.46 456.068   6
   5   8   1 6398.04 531.855   7
   5   8   2 895.363 215.507   7
   5   8   2 1216.11 180.240   6
   5   8   3 4371.54 328.762   6
   5   8   3 4282.20 451.018   7
   5   8   4 829.651 220.225   7
   5   8   5 7002.97 561.042   4
   5   8   5 5976.04 553.118   7
   5   8   6 1015.75 241.348   7
   5   8   6 1059.26 223.831   4
  -5  -8  -6 1289.15 234.882   3
   5   8   7 2084.05 343.650   7
   5   8   7 2492.74 346.633   4
  -5  -8  -7 1752.02 263.037   3
   5   8   8 1171.00 254.483   7
   5   8   8 1579.50 282.825   4
  -5  -8  -8 1554.68 258.012   3
   5   8   9 1058.44 268.756   7
   5   8   9 1103.63 247.877   4
  -5  -8  -9 1221.95 235.733   3
   5   8  10 266.556 122.439   4
  -5  -8 -10 627.408 186.458   3
   5   8  11 85.6670 96.2333   4
  -5  -8 -11 283.262 113.402   3
   5   8  12 1332.64 298.326   4
   5   9 -10 1225.32 242.474   7
   5   9  -9-69.6487 118.803   7
   5   9  -8 5306.86 539.850   7
   5   9  -7 930.496 231.012   7
   5   9  -6 1332.92 259.712   7
   5   9  -5 1058.15 244.179   7
   5   9  -4 4575.18 479.557   6
   5   9  -4 4373.97 477.812   7
   5   9  -3 3898.33 422.857   6
   5   9  -3 3942.82 454.678   7
   5   9  -2 15904.6 819.245   6
   5   9  -2 15667.6 883.421   7
   5   9  -1 1995.98 319.677   7
   5   9  -1 2407.21 303.187   6
   5   9   0 10143.4 605.350   6
   5   9   0 9591.55 686.189   7
   5   9   1 303.122 155.834   7
   5   9   1 346.797 127.862   6
   5   9   2 1842.30 323.846   7
   5   9   2 1971.36 252.397   6
   5   9   3-72.4781 106.038   7
   5   9   3 306.797 105.039   6
   5   9   4 247.515 141.132   7
   5   9   5 1420.81 287.548   7
   5   9   6 1343.74 285.594   7
   5   9   6 856.503 212.390   4
   5   9   7 729.157 205.281   7
   5   9   7 851.118 208.377   4
   5   9   8 2397.35 401.494   7
   5   9   8 2863.84 402.756   4
   5   9   9 194.803 128.668   7
   5   9   9 150.840 92.5008   4
   5   9  10-30.1047 94.1803   4
   5   9  11-210.614 156.075   4
   5  10  -9-218.382 130.508   7
   5  10  -8 2048.90 367.737   7
   5  10  -7-52.2439 126.372   7
   5  10  -6 3972.78 483.870   7
   5  10  -5 48.1331 91.6709   7
   5  10  -5 157.482 109.885   6
   5  10  -4 185.109 123.885   7
   5  10  -4 206.817 121.475   6
   5  10  -3 1466.11 304.412   7
   5  10  -3 1322.80 256.602   6
   5  10  -2 162.520 168.993   7
   5  10  -2-25.1188 70.9278   6
   5  10  -1 748.701 206.525   7
   5  10  -1 1109.35 230.885   6
   5  10   0 181.511 109.128   7
   5  10   0 133.388 93.6629   6
   5  10   1 1486.28 290.889   7
   5  10   1 1878.70 271.327   6
   5  10   2 831.160 234.764   7
   5  10   2 1156.42 213.234   6
   5  10   3 572.845 178.415   7
   5  10   3 832.079 174.375   6
   5  10   4 53.0600 117.275   7
   5  10   5 4479.89 534.742   7
   5  10   6 2927.32 432.491   7
   5  10   6 3480.93 459.337   4
   5  10   7-59.3959 118.756   7
   5  10   7 52.5528 78.2858   4
   5  10   8 203.112 117.946   7
   5  10   8 129.073 102.146   4
   5  10   9 12.0689 121.324   7
   5  10   9 83.3701 111.070   4
   5  10  10 88.1882 89.7535   7
   5  10  10-80.7590 103.279   4
   5  11  -5 1147.83 286.219   7
   5  11  -5 970.907 261.902   6
   5  11  -4 786.282 244.769   7
   5  11  -4 685.937 202.384   6
   5  11  -3 1202.95 277.202   7
   5  11  -3 730.072 203.994   6
   5  11  -2 717.094 220.527   7
   5  11  -2 694.089 205.280   6
   5  11  -1 348.964 154.480   7
   5  11  -1 319.917 121.735   6
   5  11   0 876.525 237.163   7
   5  11   0 644.031 173.004   6
   5  11   1 1901.18 352.823   7
   5  11   1 2061.18 308.439   6
   5  11   2 188.343 110.151   7
   5  11   2 158.878 88.2383   6
   5  11   3 87.3075 124.685   7
   5  11   3 74.9282 67.7979   6
   5  11   4-40.4335 144.978   7
   5  11   5-148.013 152.773   7
   5  11   6-310.502 175.712   7
   5  11   7 150.847 124.868   7
   5  11   7-73.6977 101.297   4
   5  11   8 558.520 208.924   7
   5  12  -4 1456.36 301.932   6
   5  12  -3 27.6817 117.604   6
   5  12  -2 20.3988 67.0190   6
   5  12  -1 141.984 119.075   6
   5  12   0 204.301 130.759   6
   5  12   1 1604.77 285.994   6
   5  12   2 264.807 107.423   6
   5  13  -1 358.301 180.710   6
   5  13   0 514.882 166.579   6
   6  -9  -2 379.395 182.578   1
  -6   8   6 1281.27 304.723   4
  -6   8   5 238.495 146.125   4
   6  -8  -5 110.740 95.4230   1
  -6   8   4 349.117 165.072   4
   6  -8  -4 218.467 146.730   1
   6  -8  -3 352.564 162.829   1
  -6   8   3 608.594 188.297   4
   6  -8  -2 1012.91 313.773   1
  -6   8   2 932.852 225.977   4
   6  -8  -1 927.296 262.336   1
  -6   8   0 34.3608 112.454   2
  -6   8  -1 99.9158 107.719   2
  -6   8  -2 1022.27 272.483   2
  -6   8  -3 797.640 239.656   2
  -6   8  -4 126.932 109.531   2
  -6   8  -5 834.641 232.750   2
   6  -7  -6 505.552 203.272   1
   6  -7  -5-158.873 156.180   1
  -6   7   4 126.161 113.954   4
   6  -7  -4 11.6630 97.4285   1
  -6   7   3 2452.91 337.492   4
   6  -7  -3 1954.26 374.858   1
  -6   7   2 4166.71 432.875   4
   6  -7  -2 3604.03 492.192   1
  -6   7   1 525.782 163.254   4
   6  -7  -1 692.079 240.667   1
  -6   7   0 21.7858 60.5836   4
   6  -7   0 53.1857 89.9620   1
  -6   7  -1 163.178 151.528   2
  -6   7  -2 2687.23 400.531   2
  -6   7  -3 8729.53 718.775   2
  -6   7  -4 924.764 244.324   2
  -6   7  -5 1829.14 336.492   2
  -6   7  -6 724.810 220.823   2
  -6   7  -7-28.9977 104.052   2
  -6   7  -9 379.987 137.454   6
   6  -7  10-66.4251 105.498   5
   6  -6  -7 172.115 139.924   1
   6  -6  -6 1168.64 295.997   1
   6  -6  -5 9773.12 823.864   1
   6  -6  -4 2215.42 380.374   1
   6  -6  -3 109.754 108.953   1
   6  -6  -2 345.382 181.206   1
  -6   6   2 306.106 129.960   4
  -6   6   1 107.123 79.9565   4
   6  -6  -1-97.5248 131.110   1
  -6   6   0 5854.86 441.845   4
   6  -6   0 5081.07 548.505   1
  -6   6  -1 2692.71 380.069   2
  -6   6  -1 3023.29 303.875   4
  -6   6  -2 261.142 130.353   2
  -6   6  -3 5805.02 556.704   2
  -6   6  -4 168.681 148.523   2
  -6   6  -5 1003.06 234.062   2
  -6   6  -6 2132.85 333.234   2
  -6   6  -7 496.685 180.997   2
  -6   6  -8 656.741 187.656   2
  -6   6  -9 375.530 126.679   6
   6  -6   9 347.936 144.544   5
  -6   6  -9 465.874 167.214   2
   6  -6  10 1283.15 300.267   5
   6  -6  11 1133.09 282.061   5
   6  -5  -8-160.007 171.542   1
   6  -5  -7-122.559 158.201   1
   6  -5  -6 598.725 215.626   1
   6  -5  -5 489.615 180.941   1
   6  -5  -4 282.123 143.494   1
   6  -5  -3 5208.59 568.139   1
   6  -5  -2 358.209 161.687   1
   6  -5  -1 2014.68 343.059   1
  -6   5   1 1976.89 245.516   4
   6  -5   0 143.736 128.049   1
  -6   5   0 61.2536 76.5694   4
  -6   5  -1 473.999 161.585   2
  -6   5  -1 474.104 122.950   4
   6  -5   1 445.755 140.984   1
  -6   5  -2 1355.74 269.625   2
  -6   5  -3 2202.68 345.675   2
  -6   5  -4 22.7045 105.888   2
  -6   5  -5 10325.6 701.717   2
  -6   5  -6 563.583 184.800   2
  -6   5  -7 3251.92 400.349   2
  -6   5  -8 4066.89 380.987   6
   6  -5   8 4267.92 441.631   5
  -6   5  -8 4911.38 492.292   2
  -6   5  -9 178.859 82.9342   6
   6  -5   9 326.958 143.007   5
  -6   5  -9 370.699 149.933   2
   6  -5  10-73.9906 100.827   5
  -6   5 -10 15.2462 76.5349   2
   6  -5  11 120.580 97.2280   5
   6  -5  12 294.704 163.170   5
   6  -4  -9 2221.62 429.816   1
   6  -4  -8 984.406 264.035   1
   6  -4  -7 6.15001 104.811   1
   6  -4  -6 70.2822 78.2293   1
   6  -4  -5 1852.15 346.271   1
   6  -4  -4 8262.82 704.777   1
   6  -4  -3 23657.6 1151.78   1
   6  -4  -2 307.972 125.541   1
   6  -4  -1 14656.8 884.842   1
  -6   4   0 2376.85 240.976   4
   6  -4   0 2275.19 376.499   1
   6  -4   1 2678.22 360.278   1
  -6   4  -1 3276.23 256.377   4
  -6   4  -1 2552.27 334.036   2
  -6   4  -2 7326.31 342.272   4
  -6   4  -2 6818.35 548.402   2
  -6   4  -3 11877.9 717.523   2
  -6   4  -4 4345.65 429.467   2
   6  -4   5 66.8191 45.5978   5
  -6   4  -5 330.460 146.066   2
   6  -4   6 3215.77 332.982   5
  -6   4  -6 3146.43 372.353   2
   6  -4   7 3029.15 342.715   5
  -6   4  -7 2934.26 363.447   2
  -6   4  -8 74.9787 66.4740   6
   6  -4   8 98.9412 72.6606   5
  -6   4  -8 164.657 156.606   2
  -6   4  -9 145.975 87.0913   6
   6  -4   9 86.7315 105.066   5
  -6   4  -9 218.584 109.177   2
   6  -4  10 1313.77 264.077   5
  -6   4 -10 1315.63 256.790   2
   6  -4  11-34.6096 73.6203   5
  -6   4 -11 169.724 114.608   2
   6  -4  12 3729.59 485.270   5
   6  -3 -10 5225.12 632.758   1
   6  -3  -9 2410.45 425.236   1
   6  -3  -8 5225.33 598.479   1
   6  -3  -7 221.894 157.533   1
   6  -3  -6 329.853 142.352   1
   6  -3  -5 3592.84 457.832   1
   6  -3  -4 6977.77 623.721   1
  -6   3   4 7491.28 348.197   3
   6  -3  -3 2311.42 358.798   1
  -6   3   3 2259.30 248.372   7
   6  -3  -2 57.9125 100.591   1
   6  -3  -1 1237.01 246.848   1
   6  -3   0 6629.63 176.544   5
   6  -3   0 8040.90 624.429   1
   6  -3   1 134.401 39.3656   5
  -6   3  -1 227.568 70.2959   4
   6  -3   1 593.461 275.191   1
  -6   3  -1 235.436 278.054   2
  -6   3  -2 24.0184 66.4434   2
   6  -3   2 145.357 54.4840   5
  -6   3  -2 70.3094 27.1108   4
   6  -3   3 3869.20 271.884   5
  -6   3  -3 3870.05 394.843   2
  -6   3  -4 1793.27 271.384   2
   6  -3   5 196.227 73.7435   5
  -6   3  -5 67.0079 70.5223   2
   6  -3   6 677.520 152.812   5
  -6   3  -6 1251.53 261.743   2
   6  -3   7 2667.57 308.832   5
  -6   3  -7 2626.44 327.411   2
  -6   3  -8 115.865 84.0999   6
   6  -3   8-2.88803 86.7496   5
  -6   3  -8-157.997 102.343   2
  -6   3  -9 9530.21 637.284   2
  -6   3  -9 8308.30 467.135   6
   6  -3   9 9634.60 652.947   5
  -6   3 -10 3690.17 407.096   2
   6  -3  10 3356.46 415.134   5
   6  -3  11-123.883 121.504   5
  -6   3 -11-24.9459 75.8656   2
   6  -3  12 1369.19 287.938   5
  -6   3 -12 991.161 223.177   2
   6  -3  13 251.198 170.285   5
   6  -2 -10 303.460 186.510   1
   6  -2  -9 107.163 94.1749   1
   6  -2  -8 947.059 252.557   1
   6  -2  -7 2361.67 387.131   1
   6  -2  -6 8925.23 716.393   1
   6  -2  -5 483.873 176.526   1
   6  -2  -4 2215.61 352.263   1
  -6   2   4 2109.62 193.044   3
  -6   2   4 2131.52 205.144   7
   6  -2  -3 3752.16 436.126   1
  -6   2   3 3503.96 298.639   7
   6  -2  -2 3011.27 382.521   1
  -6   2   2 3079.60 292.917   7
   6  -2  -1 10978.7 707.321   1
  -6   2   1 11215.8 593.162   7
   6  -2   0 1780.12 356.775   1
   6  -2   1 6655.91 577.373   1
  -6   2  -1 6316.83 481.509   2
   6  -2   2 755.104 103.465   5
  -6   2  -2 658.693 64.9263   4
   6  -2   3 11163.0 425.758   5
  -6   2  -3 11564.2 628.506   2
  -6   2  -4 176.698 102.236   2
   6  -2   5 23098.5 753.947   5
  -6   2  -5 23197.0 901.899   2
   6  -2   6 73.9412 73.3217   5
  -6   2  -6 266.131 119.149   2
  -6   2  -7 481.318 101.392   6
   6  -2   7 506.963 129.291   5
  -6   2  -7 465.414 127.407   2
  -6   2  -8 10597.0 462.826   6
   6  -2   8 11414.6 655.874   5
  -6   2  -8 10677.7 629.990   2
  -6   2  -9 1704.31 285.308   2
  -6   2  -9 1219.66 164.698   6
   6  -2   9 1581.19 278.895   5
   6  -2  10 352.356 149.440   5
  -6   2 -10 405.554 142.820   2
   6  -2  11 198.097 138.589   5
  -6   2 -11 151.666 102.566   2
  -6   2 -12 2504.04 342.114   2
   6  -2  12 2615.21 385.783   5
   6  -2  13 878.157 263.262   5
   6  -1 -11 1016.82 308.454   1
   6  -1 -10 78.6254 100.973   1
   6  -1  -9 2659.07 411.191   1
   6  -1  -8 9460.88 763.368   1
   6  -1  -7 7676.52 665.412   1
   6  -1  -6 1621.18 312.459   1
   6  -1  -5 18013.3 955.896   1
  -6   1   5 17214.9 492.701   7
   6  -1  -4 2034.00 310.282   1
  -6   1   4 2547.97 216.156   3
  -6   1   4 2286.10 210.079   7
   6  -1  -3 8598.39 625.597   1
  -6   1   3 8660.49 439.615   3
  -6   1   3 8615.88 446.243   7
   6  -1  -2 31962.9 1189.64   1
  -6   1   2 31657.7 921.581   7
   6  -1  -1 35087.7 1221.40   1
  -6   1   1 36123.1 1033.37   7
   6  -1   0 2234.26 317.387   1
  -6   1   0 2748.45 299.567   7
   6  -1   1 5479.99 544.083   1
  -6   1  -1 5316.72 434.232   2
  -6   1  -2 49308.0 1220.93   2
  -6   1  -3 6746.19 494.151   2
  -6   1  -4 1108.71 183.573   2
  -6   1  -5 5987.63 436.750   2
   6  -1   6 3960.94 339.971   5
  -6   1  -6 3510.84 336.833   2
  -6   1  -7 74.2857 59.2274   6
   6  -1   7 473.587 152.293   5
  -6   1  -7 567.286 146.778   2
   6  -1   8 1312.08 250.514   5
  -6   1  -8 832.743 173.988   2
   6  -1   9 379.189 165.283   5
  -6   1  -9 370.233 137.474   2
   6  -1  10 964.957 220.798   5
  -6   1 -10 1104.60 208.202   2
  -6   1 -11 4146.82 411.877   2
   6  -1  11 4313.75 476.693   5
  -6   1 -12 3762.95 410.742   2
  -6   1 -13 334.710 148.556   2
   6   0 -11 139.386 107.672   1
   6   0 -10 4699.62 574.818   1
   6   0  -9 2325.45 390.020   1
   6   0  -8 3156.65 441.324   1
   6   0  -7 110.319 134.842   1
   6   0  -6 10054.0 709.323   1
   6   0  -5 19216.3 953.413   1
  -6   0   5 19232.1 515.835   7
   6   0  -4 52948.3 1540.57   1
  -6   0   4 51729.1 992.054   3
  -6   0   4 51533.8 965.945   7
  -6   0   3 449.575 106.483   7
   6   0  -3 695.499 218.413   1
  -6   0   3 609.630 138.533   3
  -6   0   2 343.140 103.596   7
  -6   0   2 472.630 104.787   3
   6   0  -2 579.908 197.540   1
   6   0  -1 29372.2 1083.12   1
  -6   0   1 29056.8 895.446   7
   6   0   0 8876.77 591.049   1
  -6   0   0 7563.53 486.732   7
   6   0   1 10874.9 649.339   1
  -6   0  -1 11386.1 550.614   2
  -6   0  -2 4199.35 338.000   2
  -6   0  -3 14490.6 627.815   2
  -6   0  -4 6781.98 428.744   2
  -6   0  -5 15341.3 647.947   2
  -6   0  -6 174.829 39.8975   6
  -6   0  -6 571.586 134.702   2
  -6   0  -7 2600.74 285.909   2
  -6   0  -8 175.889 89.3159   2
  -6   0  -9 265.673 98.7419   2
  -6   0 -10-9.18251 49.1866   2
  -6   0 -11 74.7015 53.0590   2
  -6   0 -12 400.787 145.251   2
  -6   0 -13 886.263 207.099   2
   6   1 -12 1017.41 293.936   1
   6   1 -11-27.2375 109.442   1
   6   1 -10 60.0991 112.995   1
   6   1  -9-118.789 129.232   1
   6   1  -8 1694.19 329.782   1
   6   1  -7 132.438 109.225   1
   6   1  -6 12711.2 773.476   1
   6   1  -5 18593.2 906.709   1
  -6  -1   5 17803.9 515.301   7
   6   1  -4 11900.4 709.709   1
  -6  -1   4 11453.8 489.288   3
  -6  -1   4 10823.5 445.640   7
   6   1  -3 48785.4 1401.27   1
  -6  -1   3 49124.4 1075.54   3
  -6  -1   3 48685.0 1023.14   7
   6   1  -2 5713.51 479.696   1
  -6  -1   2 5900.96 394.667   3
  -6  -1   2 5894.36 383.063   7
  -6  -1   1 698.923 145.064   7
   6   1  -1 678.557 212.928   1
  -6  -1   1 494.832 110.847   3
   6   1   0 29046.2 1029.48   1
  -6  -1   0 29741.9 824.015   2
  -6  -1   0 28816.9 921.137   7
   6   1   1 15222.2 737.373   1
  -6  -1  -1 15208.0 588.159   2
  -6  -1  -2 150.696 72.0147   2
  -6  -1  -2 116.421 32.7034   4
  -6  -1  -3 5165.98 356.994   2
  -6  -1  -4 7812.78 501.947   2
  -6  -1  -5 9193.33 511.107   2
  -6  -1  -6 1351.88 194.624   2
  -6  -1  -7 442.909 126.176   2
  -6  -1  -8 100.457 83.8002   2
  -6  -1  -9 790.211 173.468   2
  -6  -1 -10 403.478 145.453   2
  -6  -1 -11-19.9787 46.3628   2
  -6  -1 -12 2507.22 319.460   2
  -6  -1 -13 92.8580 84.8678   2
   6   2 -12-219.214 159.735   1
   6   2 -11 23.2580 152.416   1
   6   2 -10-175.450 156.915   1
  -6  -2   9-21.7863 69.2663   5
   6   2  -9 142.612 108.692   1
   6   2  -8 26804.2 1198.19   1
  -6  -2   8 25052.7 772.924   5
   6   2  -7 9421.47 676.179   1
  -6  -2   7 9755.45 445.858   5
   6   2  -6 7694.23 587.167   1
  -6  -2   6 7685.40 358.715   5
  -6  -2   5 3954.47 254.005   7
  -6  -2   5 4186.24 299.295   2
  -6  -2   5 4006.23 229.237   5
   6   2  -5 4124.09 425.258   1
   6   2  -4 4426.70 421.289   1
  -6  -2   4 4381.60 288.460   7
   6   2  -3 41605.0 1250.96   1
  -6  -2   3 42651.9 1020.27   3
  -6  -2   3 41222.3 946.930   7
   6   2  -2 65343.5 1531.53   1
  -6  -2   2 65287.5 1323.73   3
  -6  -2   2 63149.9 1231.08   7
  -6  -2   1 32353.6 987.823   1
   6   2  -1 34494.8 1085.49   1
  -6  -2   1 32996.4 986.776   3
  -6  -2   1 33232.8 929.051   7
  -6  -2   0 935.448 134.508   2
  -6  -2   0 1258.82 118.719   5
  -6  -2   0 1029.32 172.128   3
  -6  -2   0 842.209 162.952   1
   6   2   0 933.256 173.433   1
  -6  -2  -1 6033.23 438.339   1
  -6  -2  -1 6321.26 304.908   5
  -6  -2  -1 5045.94 277.890   4
   6   2   1 6349.90 469.840   1
  -6  -2  -1 5728.90 337.555   2
  -6  -2  -2 15119.3 398.669   6
  -6  -2  -2 16686.2 531.770   5
  -6  -2  -2 14810.2 721.353   1
  -6  -2  -2 13098.0 401.566   4
  -6  -2  -2 14997.2 537.102   2
  -6  -2  -3 5130.41 159.427   6
  -6  -2  -3 6186.06 348.338   5
  -6  -2  -3 5723.32 334.646   2
  -6  -2  -4 3427.75 282.079   5
  -6  -2  -4 3099.55 258.112   2
  -6  -2  -5 10003.7 474.203   2
  -6  -2  -5 14613.2 629.289   5
  -6  -2  -6 19172.8 675.269   2
  -6  -2  -7 11138.3 537.147   2
  -6  -2  -8 4725.97 369.788   2
   6   2   8 4841.15 245.127   4
  -6  -2  -9 5439.95 408.154   2
   6   2   9 5921.16 298.142   4
  -6  -2 -10 4920.54 409.567   2
  -6  -2 -11 1423.35 232.661   2
  -6  -2 -12 859.475 190.148   2
  -6  -2 -13 287.536 122.958   2
  -6  -2 -14 184.528 133.264   2
   6   3 -12 6188.04 689.743   1
   6   3 -11 32.7552 93.2895   1
   6   3 -10 5671.17 599.761   1
  -6  -3   9 78.2862 63.5699   5
   6   3  -9 1.03420 73.0209   1
   6   3  -8 177.168 77.3368   7
  -6  -3   8 186.665 85.2803   5
   6   3  -8 146.217 91.8698   1
   6   3  -7 227.119 77.6254   7
   6   3  -7 517.649 168.061   1
   6   3  -6 66.6023 61.3028   7
  -6  -3   6 147.637 61.4335   2
   6   3  -6 147.454 126.959   1
   6   3  -5 226.754 129.874   1
   6   3  -5 17.2878 58.3318   7
  -6  -3   5 137.610 60.6899   2
  -6  -3   4 3750.34 246.026   2
   6   3  -4 4352.58 406.224   1
   6   3  -4 3991.47 347.026   7
  -6  -3   4 4012.80 280.020   7
   6   3  -3 1880.03 275.787   1
   6   3  -3 1529.25 274.896   7
  -6  -3   3 1384.26 184.409   7
  -6  -3   2 6233.45 402.878   1
  -6  -3   2 6700.12 420.482   6
   6   3  -2 6916.89 481.596   1
  -6  -3   2 6513.34 429.771   3
   6   3  -2 6162.91 444.797   7
  -6  -3   2 6446.96 392.143   7
  -6  -3   1 34233.3 953.619   1
  -6  -3   1 32034.6 829.835   6
   6   3  -1 36337.4 1066.04   1
  -6  -3   1 34383.6 1028.72   3
  -6  -3   1 34123.5 732.861   2
   6   3  -1 32754.8 1054.47   7
  -6  -3   0 26154.1 665.199   6
  -6  -3   0 25772.1 831.366   1
  -6  -3   0 26113.0 911.134   3
   6   3   0 26719.6 903.543   1
  -6  -3   0 25868.2 616.419   2
   6   3   0 24124.9 906.847   7
  -6  -3  -1 5424.96 272.196   6
  -6  -3  -1 5141.59 391.644   1
  -6  -3  -1 5029.94 305.297   4
  -6  -3  -1 4880.75 407.130   3
   6   3   1 5882.10 418.847   1
   6   3   1 5538.80 457.427   7
  -6  -3  -1 5438.38 293.547   2
  -6  -3  -2 11782.9 590.523   1
  -6  -3  -2 10428.2 413.556   4
  -6  -3  -2 11307.8 421.013   2
  -6  -3  -3 5692.68 422.695   1
  -6  -3  -3 5027.59 289.200   2
  -6  -3  -4 8644.82 393.724   2
  -6  -3  -4 8392.75 472.215   5
  -6  -3  -4 8046.83 513.707   1
  -6  -3  -5 5750.33 338.309   2
   6   3   5 5752.75 381.642   2
  -6  -3  -6 7482.57 417.934   2
  -6  -3  -7 4777.31 345.773   2
   6   3   7 5215.46 303.856   4
  -6  -3  -8 6971.80 428.949   2
   6   3   8 6786.65 358.727   4
  -6  -3  -9 3994.77 339.170   2
  -6  -3 -10 1426.46 223.642   2
  -6  -3 -11 197.721 102.858   2
  -6  -3 -12 448.633 149.608   2
  -6  -3 -13 873.933 200.748   2
  -6  -3 -14 137.404 115.061   2
   6   4 -12 982.621 270.342   1
   6   4 -11 397.754 186.844   1
  -6  -4  10 178.758 107.791   5
   6   4 -10-39.0184 98.0868   1
   6   4  -9 3231.32 422.643   1
   6   4  -8 113.466 72.9577   7
   6   4  -8 99.0571 74.2943   1
   6   4  -7 4841.67 465.333   1
   6   4  -7 4127.23 357.689   7
  -6  -4   6 14998.8 480.667   2
   6   4  -6 16042.8 801.344   1
   6   4  -6 16181.2 719.204   7
  -6  -4   5 5331.30 269.417   2
   6   4  -5 5695.70 462.541   1
   6   4  -5 5448.30 419.943   7
   6   4  -4 430.401 122.541   7
   6   4  -4 650.598 163.733   1
  -6  -4   4 580.561 84.4654   2
  -6  -4   3 4617.68 216.251   2
   6   4  -3 5122.79 409.293   1
   6   4  -3 4688.28 400.760   7
  -6  -4   3 4432.02 307.491   1
   6   4  -2 129.853 102.285   7
  -6  -4   2 120.080 63.6157   1
  -6  -4   2 44.7722 66.9199   6
  -6  -4   2 59.1865 37.1149   2
  -6  -4   2 101.836 88.6219   3
  -6  -4   2 111.993 41.0384   2
   6   4  -2-49.0034 70.6248   1
  -6  -4   1 44639.0 1001.22   1
  -6  -4   1 45874.6 977.947   6
  -6  -4   1 47284.9 1201.74   3
  -6  -4   1 46321.5 691.532   2
   6   4  -1 44389.8 1254.58   7
  -6  -4   0 23053.5 765.202   4
  -6  -4   0 20979.4 836.814   3
   6   4   0 21353.1 916.866   7
  -6  -4   0 20355.7 459.737   2
  -6  -4  -1 20004.8 698.520   1
  -6  -4  -1 18752.9 647.908   4
  -6  -4  -1 19017.2 812.384   3
   6   4   1 19225.8 847.367   7
  -6  -4  -1 19769.8 450.948   2
  -6  -4  -2 2863.11 183.451   2
  -6  -4  -2 3023.08 277.697   1
  -6  -4  -2 3027.24 255.577   4
  -6  -4  -2 2425.25 300.912   3
   6   4   2 2643.08 333.653   7
  -6  -4  -3 6812.99 305.308   2
  -6  -4  -3 7906.92 468.341   1
   6   4   3 6982.02 545.326   7
  -6  -4  -4 19185.0 545.813   2
  -6  -4  -4 18723.6 743.448   1
   6   4   4 20018.8 908.500   7
  -6  -4  -5 2153.32 199.456   2
  -6  -4  -5 2009.20 254.406   1
   6   4   5 1972.60 230.080   2
  -6  -4  -6 350.989 92.6374   2
  -6  -4  -7 2375.36 252.572   2
  -6  -4  -8 3865.56 318.481   2
  -6  -4  -9 2782.55 288.813   2
   6   4   9 3233.36 302.731   4
   6   4  10 1214.09 216.097   4
  -6  -4 -10 592.432 161.341   2
  -6  -4 -11 2456.93 302.292   2
  -6  -4 -12 1347.03 247.766   2
  -6  -4 -13 1234.15 240.691   2
  -6  -4 -14-72.3893 85.7962   2
   6   5 -12 1155.04 314.230   1
   6   5 -11 2492.82 399.482   1
   6   5 -10 1629.19 314.118   1
   6   5  -9 5075.75 519.870   1
   6   5  -8 2023.73 314.001   1
   6   5  -8 2164.93 279.078   7
   6   5  -7 7689.12 572.244   1
   6   5  -7 7440.55 522.548   7
   6   5  -6 2250.94 298.380   1
   6   5  -6 2363.28 297.616   7
   6   5  -5 159.369 107.585   1
   6   5  -5 49.4583 69.6188   7
   6   5  -4 362.394 105.933   7
   6   5  -4 463.036 130.420   1
  -6  -5   4 452.182 58.8517   2
  -6  -5   3 5108.90 158.346   2
   6   5  -3 5956.36 424.648   1
  -6  -5   3 5010.02 182.718   2
  -6  -5   3 5526.83 315.520   1
   6   5  -3 5301.22 449.874   7
  -6  -5   2 13589.8 186.324   2
   6   5  -2 14856.9 746.125   7
  -6  -5   2 14073.3 203.467   2
  -6  -5   2 14997.4 510.456   1
  -6  -5   1 4416.15 286.626   1
  -6  -5   1 4746.77 397.703   3
   6   5  -1 4029.44 411.846   7
  -6  -5   0 21632.6 251.665   2
  -6  -5   0 22395.8 651.851   1
  -6  -5   0 24508.6 893.993   3
   6   5   0 22441.7 933.627   7
  -6  -5  -1 29601.7 398.660   2
  -6  -5  -1 29827.9 775.177   1
  -6  -5  -1 30480.1 898.980   4
  -6  -5  -1 31198.6 1032.21   3
   6   5   1 29893.0 1092.26   7
  -6  -5  -2 14891.2 342.089   2
  -6  -5  -2 14299.5 559.104   1
  -6  -5  -2 14582.7 602.935   4
  -6  -5  -2 13872.8 719.778   3
   6   5   2 14120.0 768.841   7
  -6  -5  -3 2248.76 162.045   2
  -6  -5  -3 2318.06 252.056   1
  -6  -5  -3 1280.49 245.296   3
   6   5   3 2256.46 328.336   7
  -6  -5  -4 3611.15 222.476   2
  -6  -5  -4 3379.47 307.769   1
  -6  -5  -4 3350.99 365.123   3
   6   5   4 3334.15 247.909   2
   6   5   4 3139.73 380.219   7
   6   5   5 997.768 243.312   7
   6   5   5 516.866 131.416   2
  -6  -5  -5 683.627 164.489   1
  -6  -5  -5 675.777 113.419   2
  -6  -5  -5 445.673 155.226   3
  -6  -5  -5 734.637 148.158   8
  -6  -5  -6 10036.3 437.930   2
  -6  -5  -6 9308.33 636.428   3
  -6  -5  -6 8385.91 504.896   1
  -6  -5  -6 9290.83 412.925   8
   6   5   6 9601.57 487.772   2
  -6  -5  -7 4430.24 312.384   2
   6   5   7 4655.27 369.184   4
   6   5   8 775.667 175.233   4
  -6  -5  -8 626.310 146.745   2
   6   5   9 4.81438 56.7111   4
  -6  -5  -9-63.2819 59.0207   2
   6   5  10 35.3193 79.3963   4
  -6  -5 -10 67.0579 60.3174   2
  -6  -5 -11 3411.07 355.763   2
   6   5  11 3431.82 372.569   4
  -6  -5 -12 2517.63 326.125   2
  -6  -5 -13 494.370 157.797   2
  -6  -5 -14 56.4132 103.971   2
   6   6 -12 887.365 263.345   1
   6   6 -11 1483.45 318.578   1
   6   6 -10 203.542 162.139   1
   6   6  -9 414.767 147.004   7
   6   6  -9 221.222 127.830   1
   6   6  -8 1548.12 253.790   7
   6   6  -8 1507.99 266.177   1
   6   6  -7 293.941 139.266   7
   6   6  -7 16.1127 76.5095   1
   6   6  -6 878.604 212.146   7
   6   6  -6 1064.26 208.146   1
   6   6  -5 402.295 145.035   7
   6   6  -5 444.856 132.353   1
   6   6  -4 4608.46 367.289   1
   6   6  -4 4785.23 446.814   7
   6   6  -3 154.606 84.3669   7
   6   6  -2 1472.75 248.860   7
   6   6  -2 1634.29 195.717   1
   6   6  -1 1090.53 219.357   7
   6   6  -1 1146.97 157.803   1
  -6  -6   1 920.965 111.140   1
   6   6   0 104.664 82.2857   7
  -6  -6   0 229.756 54.4358   1
  -6  -6  -1 16220.2 478.017   1
  -6  -6  -1 16816.1 771.439   3
   6   6   1 15528.8 819.846   7
  -6  -6  -2 11164.7 437.407   1
  -6  -6  -2 11627.4 658.702   3
   6   6   2 11145.9 700.794   7
  -6  -6  -3 767.357 127.418   1
   6   6   3 757.470 204.002   7
  -6  -6  -3 652.536 80.8317   2
  -6  -6  -3 888.911 207.088   3
   6   6   4 759.669 202.559   7
  -6  -6  -4 1066.45 115.245   2
   6   6   4 830.350 112.491   2
  -6  -6  -4 881.382 137.435   1
  -6  -6  -4 753.751 170.262   3
  -6  -6  -4 775.035 124.184   8
   6   6   5 1837.44 314.978   7
  -6  -6  -5 2127.31 186.756   2
  -6  -6  -5 1893.08 228.790   1
  -6  -6  -5 1874.13 284.326   3
  -6  -6  -5 1787.54 191.097   8
   6   6   5 1842.45 193.149   2
   6   6   6 1456.23 336.725   7
  -6  -6  -6 1378.96 175.984   2
  -6  -6  -6 1356.97 228.044   1
  -6  -6  -6 1197.67 268.783   3
  -6  -6  -6 1850.96 180.861   8
   6   6   7 920.372 184.053   4
  -6  -6  -7 432.878 167.238   3
  -6  -6  -7 525.012 116.579   2
   6   6   8-85.5163 86.9904   4
  -6  -6  -8-47.9259 120.402   3
  -6  -6  -8 66.4035 65.2384   2
   6   6   9 1056.38 204.978   4
  -6  -6  -9 654.069 174.316   3
  -6  -6  -9 857.123 167.536   2
   6   6  10 146.293 133.893   4
  -6  -6 -10 57.0356 134.837   3
  -6  -6 -10 185.217 83.8969   2
   6   6  11 455.675 155.608   4
  -6  -6 -11 392.394 142.656   3
  -6  -6 -11 562.333 165.267   2
  -6  -6 -12-332.026 152.455   3
  -6  -6 -12-7.87352 87.3422   2
  -6  -6 -13 1171.87 263.829   3
  -6  -6 -13 1215.84 248.808   2
   6   7  -9 3838.13 414.459   7
   6   7  -8 728.274 186.379   7
   6   7  -8 533.667 151.040   1
   6   7  -7 2346.81 323.675   7
   6   7  -7 2004.86 270.356   1
   6   7  -6 7818.61 510.135   1
   6   7  -6 7415.05 581.632   7
   6   7  -5 3434.53 315.357   1
   6   7  -5 3368.66 388.799   7
   6   7  -4 8039.44 602.175   7
   6   7  -3 281.986 135.808   7
   6   7  -3 355.450 95.4924   1
   6   7  -2 446.630 179.757   7
   6   7  -2 129.844 58.6984   1
   6   7  -1 3568.21 419.213   7
   6   7   0-0.84082 104.413   7
   6   7   1 267.124 150.615   7
  -6  -7  -1 184.678 35.9819   1
  -6  -7  -2 39791.1 566.608   1
  -6  -7  -2 44429.2 1281.46   3
   6   7   2 42224.8 1415.84   7
  -6  -7  -3 15944.0 791.732   3
   6   7   3 15854.5 888.687   7
   6   7   4 3971.77 249.578   6
  -6  -7  -4 3951.20 401.817   3
   6   7   4 3449.45 427.694   7
   6   7   5 1168.55 360.055   7
  -6  -7  -5 951.148 255.192   3
   6   7   6 818.048 255.694   7
  -6  -7  -6 421.938 161.291   3
   6   7   7 1586.69 315.011   7
   6   7   7 1475.78 257.014   4
  -6  -7  -7 1765.82 286.082   3
   6   7   8-55.3691 67.8498   4
  -6  -7  -8-165.573 101.838   3
   6   7   9 3398.59 392.136   4
  -6  -7  -9 3185.78 396.950   3
   6   7  10 314.554 135.799   4
  -6  -7 -10 138.586 94.1796   3
   6   7  11 212.340 125.659   4
  -6  -7 -11 10.1006 86.9675   3
  -6  -7 -12 122.236 115.168   3
   6   8  -9 71.9855 101.980   7
   6   8  -8 88.7658 107.214   7
   6   8  -7 4005.07 464.372   7
   6   8  -6 511.558 175.303   7
   6   8  -5 591.315 193.063   7
   6   8  -4 5483.01 528.606   7
   6   8  -3 819.179 216.058   7
   6   8  -2 2425.13 349.472   7
   6   8  -1 6023.36 556.824   7
   6   8   0 1347.17 275.272   7
   6   8   0 1669.98 234.926   6
   6   8   1 3995.11 343.833   6
   6   8   1 3639.33 439.963   7
   6   8   2 718.905 210.148   7
   6   8   2 907.317 159.476   6
   6   8   3 158.394 103.913   7
   6   8   3 196.537 86.5564   6
   6   8   4 1.46932 92.6917   7
  -6  -8  -4 93.9708 89.4549   3
   6   8   5-15.3219 114.524   7
  -6  -8  -5 386.131 167.297   3
   6   8   6 1080.80 258.653   7
  -6  -8  -6 611.519 172.220   3
   6   8   7 499.559 190.951   7
   6   8   7 667.798 186.449   4
  -6  -8  -7 807.980 212.766   3
   6   8   8 575.087 188.393   7
   6   8   8 731.115 191.273   4
  -6  -8  -8 740.495 198.122   3
   6   8   9-183.552 134.092   4
  -6  -8  -9 163.710 125.073   3
   6   8  10 24.4192 90.1543   4
  -6  -8 -10-227.981 123.706   3
   6   8  11 235.983 162.546   4
  -6  -8 -11 63.0740 89.1261   3
   6   9  -9 425.652 197.427   7
   6   9  -8 2605.05 397.966   7
   6   9  -7 4715.87 523.694   7
   6   9  -6 774.394 219.242   7
   6   9  -5 4228.48 487.668   7
   6   9  -4 1792.01 329.257   7
   6   9  -3 803.375 221.494   7
   6   9  -2 1800.25 325.505   7
   6   9  -1 332.610 177.451   7
   6   9  -1 707.824 192.787   6
   6   9   0 56.6644 88.1423   7
   6   9   0 23.3040 47.0176   6
   6   9   1 285.201 150.127   7
   6   9   1 386.204 136.918   6
   6   9   2 289.557 176.787   7
   6   9   2 181.569 116.630   6
   6   9   3 1109.88 266.262   7
   6   9   3 1230.65 186.123   6
   6   9   4 769.120 220.823   7
   6   9   5 6827.47 652.887   7
   6   9   6 516.787 192.621   7
   6   9   7 38.6624 138.792   7
   6   9   8 455.628 215.636   7
   6   9   8-2.09519 81.1154   4
  -6  -9  -8 249.840 156.386   3
   6   9   9 639.275 203.923   7
   6   9   9 1027.06 238.466   4
  -6  -9  -9 1163.94 243.597   3
   6   9  10 72.6233 119.467   4
  -6  -9 -10 211.940 126.721   3
   6   9  11 1061.65 275.163   4
  -6  -9 -11 987.290 236.540   3
   6  10  -8 102.120 120.343   7
   6  10  -7 404.583 196.251   7
   6  10  -6 238.235 174.195   7
   6  10  -5 2648.27 434.379   7
   6  10  -4 382.152 201.503   7
   6  10  -3 3512.25 477.486   7
   6  10  -2 661.850 217.842   7
   6  10  -2 810.081 193.211   6
   6  10  -1 2479.49 395.621   7
   6  10  -1 2243.27 329.097   6
   6  10   0 123.637 125.814   7
   6  10   0 114.427 103.344   6
   6  10   1 44.2082 91.1783   7
   6  10   1 160.617 98.8069   6
   6  10   2 5432.40 439.413   6
   6  10   2 5137.98 565.928   7
   6  10   3 2107.35 373.498   7
   6  10   4 79.4645 87.2763   7
   6  10   5 25.8662 92.1111   7
   6  10   6-33.6427 88.5246   7
   6  10   7-137.059 144.020   7
   6  10   8 2123.82 383.897   7
   6  10   8 1411.70 289.997   4
   6  10   9-21.8642 112.930   7
   6  10   9-24.2656 125.671   4
   6  10  10 64.9006 77.2049   4
   6  11  -4 1092.82 291.228   7
   6  11  -3 492.543 229.575   7
   6  11  -3-246.386 133.513   6
   6  11  -2 2350.82 417.047   7
   6  11  -2 2295.42 365.076   6
   6  11  -1 700.502 228.426   7
   6  11  -1 245.317 132.887   6
   6  11   0 1338.77 311.088   7
   6  11   0 1919.02 304.014   6
   6  11   1 234.642 139.038   7
   6  11   1 182.742 93.5378   6
   6  11   2 1724.16 343.936   7
   6  11   3-181.647 137.128   7
   6  11   4 460.096 176.824   7
   6  11   5 144.833 135.138   7
   6  12  -3 800.515 235.166   6
   6  12  -2 441.583 159.964   6
   6  12  -1-18.4651 63.8517   6
   6  12   0 874.592 220.268   6
   7  -7  -3 48.3424 132.311   1
   7  -7  -2 173.335 136.715   1
   7  -7  -1 286.664 155.024   1
  -7   7   0 1472.72 328.092   2
  -7   7  -1 8151.62 743.596   2
  -7   7  -2 736.812 246.334   2
  -7   7  -3 787.684 232.547   2
  -7   7  -4 399.601 170.927   2
   7  -6  -5 954.677 272.242   1
   7  -6  -4 1001.23 279.939   1
  -7   6   3 1295.23 241.472   4
   7  -6  -3 1264.49 334.413   1
   7  -6  -2 3175.18 474.064   1
   7  -6  -1 6298.37 678.216   1
   7  -6   0 957.368 253.443   1
  -7   6   0 689.814 220.317   2
  -7   6  -1-201.089 114.694   2
  -7   6  -2 828.757 238.499   2
  -7   6  -3 859.817 235.272   2
  -7   6  -4 353.251 147.215   2
  -7   6  -5-82.8515 128.457   2
  -7   6  -6 815.582 219.638   2
  -7   6  -7 1768.21 312.933   2
   7  -5  -6 154.792 101.861   1
   7  -5  -5 41.8314 95.3918   1
   7  -5  -4 692.436 212.831   1
   7  -5  -3 248.006 160.430   1
   7  -5  -2 2722.37 434.223   1
  -7   5   1-23.7949 48.8018   4
   7  -5  -1 151.632 154.783   1
   7  -5   0 3799.92 503.653   1
  -7   5  -1-4.98850 66.0217   2
  -7   5  -2 2625.78 385.485   2
  -7   5  -3 5838.33 561.966   2
  -7   5  -4 359.862 129.075   2
  -7   5  -5 2363.41 363.034   2
   7  -5   6 72.3247 70.5329   5
  -7   5  -6 47.8985 76.2251   2
   7  -5   7 826.470 191.655   5
  -7   5  -7 783.595 207.398   2
   7  -5   8 1031.95 218.352   5
  -7   5  -8 1600.55 310.835   2
   7  -5   9 114.878 91.2963   5
   7  -5  10 161.745 133.047   5
   7  -5  11 189.869 129.880   5
   7  -4  -7 172.391 161.852   1
   7  -4  -6 849.053 263.827   1
   7  -4  -5 7847.45 746.237   1
   7  -4  -4 1042.46 262.765   1
   7  -4  -3 732.751 217.986   1
   7  -4  -2 8640.38 743.938   1
   7  -4  -1 109.173 98.0893   1
  -7   4   0 12960.0 551.741   4
   7  -4   0 12335.2 866.466   1
  -7   4  -1 3724.81 434.868   2
   7  -4   1 3133.41 441.917   1
  -7   4  -2 86.0915 125.252   2
  -7   4  -3 170.594 102.196   2
   7  -4   4 3393.16 301.692   5
  -7   4  -4 3955.40 438.306   2
  -7   4  -5 1072.17 252.238   2
   7  -4   5 1005.54 183.447   5
   7  -4   6 276.271 102.677   5
  -7   4  -6 124.689 83.7295   2
   7  -4   7 11.3524 67.1018   5
  -7   4  -7 87.0423 61.3425   2
   7  -4   8 105.759 69.2570   5
  -7   4  -8 20.8539 73.7968   2
   7  -4   9 1531.02 282.321   5
  -7   4  -9 1746.19 300.172   2
  -7   4 -10 3077.62 403.746   2
   7  -4  10 3634.51 452.354   5
   7  -4  11 122.738 116.384   5
   7  -4  12 129.089 86.8136   5
   7  -3  -8 215.875 143.500   1
   7  -3  -7 4900.98 605.136   1
   7  -3  -6 938.857 242.321   1
   7  -3  -5 904.320 253.073   1
   7  -3  -4 49.9839 96.4091   1
   7  -3  -3 191.595 136.359   1
   7  -3  -2 6087.50 602.738   1
   7  -3  -1 382.202 168.448   1
   7  -3   0 799.689 227.234   1
  -7   3  -1 7703.27 344.729   4
  -7   3  -1 8388.60 612.444   2
   7  -3   1 7787.17 661.705   1
  -7   3  -2 1812.28 288.924   2
  -7   3  -3 1844.37 278.480   2
   7  -3   3 1866.51 182.315   5
  -7   3  -4-27.8993 55.3235   2
  -7   3  -5 1277.48 243.663   2
   7  -3   5 1368.44 192.257   5
   7  -3   6 2374.49 278.971   5
  -7   3  -6 2581.34 340.716   2
   7  -3   7 4090.38 392.229   5
  -7   3  -7 4150.29 437.384   2
   7  -3   8 3742.69 397.650   5
  -7   3  -8 3540.99 407.734   2
   7  -3   9 550.126 171.075   5
  -7   3  -9 445.051 159.074   2
  -7   3 -10 2242.91 332.156   2
   7  -3  10 2606.15 367.952   5
   7  -3  11 700.201 230.037   5
  -7   3 -11 565.262 200.382   2
   7  -3  12 838.327 245.782   5
   7  -2  -9 97.3686 179.284   1
   7  -2  -8 122.031 88.4748   1
   7  -2  -7 467.798 199.183   1
   7  -2  -6 2149.22 385.724   1
   7  -2  -5 595.935 214.053   1
   7  -2  -4 6070.97 602.477   1
  -7   2   4 5529.02 345.121   3
   7  -2  -3 899.613 226.903   1
  -7   2   3 1258.02 179.955   3
   7  -2  -2-56.2682 102.252   1
   7  -2  -1 443.334 184.743   1
   7  -2   0 9626.95 717.947   1
  -7   2  -1 1831.25 267.611   2
  -7   2  -1 1720.64 141.854   4
   7  -2   1 1902.78 320.942   1
  -7   2  -2 12740.8 717.787   2
  -7   2  -3 1802.91 277.436   2
  -7   2  -4-75.4091 84.3972   2
  -7   2  -5-36.4078 91.7892   2
   7  -2   5 41.0040 62.7445   5
  -7   2  -6 1721.08 263.997   2
   7  -2   6 1315.26 201.330   5
  -7   2  -7 670.846 118.764   6
   7  -2   7 525.682 130.186   5
  -7   2  -7 674.879 180.646   2
   7  -2   8 4924.23 443.128   5
  -7   2  -8 4709.95 452.774   2
  -7   2  -9 3001.86 368.058   2
   7  -2   9 2414.23 340.541   5
   7  -2  10 1702.58 295.712   5
  -7   2 -10 1201.74 234.142   2
   7  -2  11 2322.67 360.775   5
  -7   2 -11 2245.01 325.720   2
   7  -2  12 1366.04 296.687   5
   7  -1  -9 42.5839 136.921   1
   7  -1  -8 902.755 269.487   1
   7  -1  -7 427.485 167.117   1
   7  -1  -6 1514.31 319.725   1
   7  -1  -5 1730.16 327.756   1
   7  -1  -4 13200.4 860.017   1
  -7   1   4 12091.4 515.010   3
  -7   1   3 2029.42 241.898   3
   7  -1  -3 2074.88 339.089   1
   7  -1  -2 4137.84 463.131   1
   7  -1  -1 9554.80 700.268   1
   7  -1   0 7164.65 596.530   1
   7  -1   1 3671.39 425.129   1
  -7   1  -1 3051.93 327.453   2
  -7   1  -2 16779.3 778.474   2
  -7   1  -3 2601.11 307.405   2
  -7   1  -4 3130.80 339.750   2
  -7   1  -5 19682.3 842.473   2
  -7   1  -6 548.757 157.022   2
  -7   1  -7 599.035 167.188   2
  -7   1  -8 2442.47 311.166   2
  -7   1  -9 10118.7 637.754   2
  -7   1 -10 3227.88 374.354   2
  -7   1 -11 15.8239 84.7470   2
  -7   1 -12 309.519 135.004   2
   7   0 -10 1175.01 297.951   1
   7   0  -9 735.852 231.945   1
   7   0  -8-20.7011 112.029   1
   7   0  -7 488.824 189.674   1
   7   0  -6 2560.67 386.591   1
   7   0  -5 2602.87 377.108   1
  -7   0   4 231.790 85.4076   7
   7   0  -4 209.090 137.759   1
  -7   0   4 307.502 101.890   3
  -7   0   3 117.945 68.4888   7
  -7   0   3 116.109 80.8701   3
   7   0  -3 62.4814 89.2098   1
   7   0  -2 31439.9 1237.01   1
  -7   0   2 32696.8 1002.35   3
   7   0  -1 3311.76 390.944   1
   7   0   0 5131.19 494.798   1
  -7   0   0 5208.61 406.969   2
   7   0   1 4853.58 475.587   1
  -7   0  -1 5061.07 402.710   2
  -7   0  -2 23361.3 855.307   2
  -7   0  -3 4511.78 377.114   2
  -7   0  -4 4813.96 392.511   2
  -7   0  -5 54.0424 72.6579   2
  -7   0  -6 638.145 68.4401   6
  -7   0  -6 675.776 157.070   2
  -7   0  -7 1970.05 261.537   2
  -7   0  -8 3144.60 339.539   2
  -7   0  -9 43.4057 50.9231   2
  -7   0 -10 701.023 174.057   2
  -7   0 -11 256.803 118.272   2
  -7   0 -12 134.213 88.0270   2
   7   1 -10 2762.25 459.295   1
   7   1  -9 290.333 139.305   1
   7   1  -8 8673.28 751.360   1
   7   1  -7 687.388 218.480   1
   7   1  -6 6802.42 617.310   1
   7   1  -5 6359.08 582.887   1
  -7  -1   4-87.7304 66.2296   7
   7   1  -4-77.6731 114.151   1
  -7  -1   4 121.626 87.9763   3
  -7  -1   3 43.7685 64.5996   7
   7   1  -3-110.155 101.834   1
  -7  -1   3-68.6651 83.3493   3
   7   1  -2 24224.7 1054.58   1
  -7  -1   2 24396.1 872.646   3
   7   1  -1 562.809 170.862   1
  -7  -1   1 354.675 123.335   3
   7   1   0 6679.13 537.049   1
  -7  -1   0 6933.89 442.274   2
   7   1   1 8292.68 594.727   1
  -7  -1  -1 8256.30 481.447   2
  -7  -1  -2 37.0233 46.6206   2
  -7  -1  -2 112.668 33.9303   4
  -7  -1  -3 1652.40 212.550   2
  -7  -1  -4 1169.00 179.551   2
  -7  -1  -5 386.951 105.165   2
  -7  -1  -6 2786.28 291.527   2
  -7  -1  -7 2144.27 261.525   2
  -7  -1  -8 1330.66 211.244   2
  -7  -1  -9 30.1824 54.5765   2
  -7  -1 -10 27.0999 60.5787   2
  -7  -1 -11 5069.78 456.890   2
  -7  -1 -12 1050.63 223.963   2
  -7  -1 -13 52.0585 60.6568   2
   7   2 -11 10529.9 906.115   1
   7   2 -10 4189.68 549.258   1
   7   2  -9 1121.06 279.118   1
   7   2  -8 157.597 135.647   1
   7   2  -7-131.489 105.733   1
   7   2  -6 4004.07 465.455   1
   7   2  -5 11159.0 743.585   1
   7   2  -4 12257.4 762.082   1
  -7  -2   4 13627.9 555.981   7
   7   2  -3 6103.55 527.221   1
  -7  -2   3 6175.19 428.207   3
   7   2  -2 537.279 185.396   1
  -7  -2   2 352.256 106.223   3
  -7  -2   1 1732.64 87.1546   5
   7   2  -1 2291.02 313.177   1
  -7  -2   1 2197.87 280.676   3
  -7  -2   1 2371.12 241.911   2
  -7  -2   0 2752.43 152.846   5
  -7  -2   0 3099.87 343.235   3
   7   2   0 2844.75 347.301   1
  -7  -2   0 2569.39 247.300   2
  -7  -2  -1 31.0870 43.5181   2
  -7  -2  -1 61.5344 40.8440   5
   7   2   1 57.0113 84.2528   1
  -7  -2  -1-14.5441 52.3938   4
  -7  -2  -2 1985.31 161.216   6
  -7  -2  -2 2242.27 185.854   5
  -7  -2  -2 2002.60 158.449   4
  -7  -2  -2 2195.10 236.132   2
  -7  -2  -3 19984.7 390.003   6
  -7  -2  -3 22457.6 727.535   2
  -7  -2  -4 24128.4 766.362   2
  -7  -2  -5 5245.05 370.114   2
  -7  -2  -6 281.557 95.6225   2
  -7  -2  -7 2331.36 258.086   2
  -7  -2  -8 3073.77 312.049   2
  -7  -2  -9 5837.57 440.861   2
  -7  -2 -10 144.453 87.0556   2
  -7  -2 -11 995.157 207.425   2
  -7  -2 -12 1471.14 267.493   2
  -7  -2 -13 107.561 104.306   2
   7   3 -11 228.321 154.447   1
   7   3 -10 131.101 133.635   1
   7   3  -9 5557.29 599.437   1
   7   3  -8 1009.28 250.863   1
   7   3  -7 499.138 188.824   1
   7   3  -6 3011.22 408.076   1
   7   3  -5 185.369 123.350   1
   7   3  -5 101.699 50.0797   7
  -7  -3   4 12950.4 508.872   2
   7   3  -4 13286.4 770.865   1
   7   3  -4 12923.9 670.487   7
   7   3  -3 3432.03 385.586   1
  -7  -3   3 4157.99 358.933   3
   7   3  -3 3423.19 354.884   7
   7   3  -2 832.776 199.231   1
  -7  -3   2 623.095 167.675   3
  -7  -3   1 17112.2 638.263   6
   7   3  -1 17307.0 821.978   1
  -7  -3   1 17444.7 780.632   3
  -7  -3   1 18204.5 606.104   2
  -7  -3   0 650.236 116.648   6
  -7  -3   0 670.957 113.972   2
  -7  -3   0 644.528 161.287   3
   7   3   0 656.333 165.356   1
  -7  -3  -1 997.150 127.412   6
  -7  -3  -1 1128.08 143.162   2
  -7  -3  -1 1082.62 141.921   5
  -7  -3  -1 954.959 138.293   4
  -7  -3  -1 834.057 185.642   3
  -7  -3  -2 6242.92 255.845   6
  -7  -3  -2 6013.85 356.565   5
  -7  -3  -2 6368.36 330.901   4
  -7  -3  -2 6302.48 348.332   2
  -7  -3  -3-25.1762 50.8338   5
  -7  -3  -3 41.5548 42.5930   2
  -7  -3  -4 144.040 91.6505   5
  -7  -3  -4 115.800 64.9833   2
  -7  -3  -5 601.936 119.572   2
  -7  -3  -6 448.145 107.350   2
  -7  -3  -7 386.835 104.481   2
  -7  -3  -8 92.3672 73.7403   2
  -7  -3  -9 609.066 150.895   2
  -7  -3 -10 383.918 130.572   2
  -7  -3 -11-29.7065 80.7883   2
  -7  -3 -12 165.430 114.649   2
  -7  -3 -13 505.875 159.095   2
   7   4 -11 242.923 184.270   1
   7   4 -10 45.4304 84.7295   1
   7   4  -9 6370.79 629.941   1
   7   4  -8 8956.83 708.331   1
   7   4  -7 387.696 134.700   7
   7   4  -7 340.515 140.949   1
   7   4  -6 4110.83 447.283   1
   7   4  -6 4033.78 384.533   7
   7   4  -5 200.700 102.282   7
   7   4  -5 234.114 109.738   1
   7   4  -4 908.204 208.943   7
   7   4  -4 1164.32 227.037   1
  -7  -4   3 6289.71 297.077   2
   7   4  -3 7048.48 530.126   1
   7   4  -3 7065.30 525.760   7
   7   4  -2 1926.02 278.681   7
   7   4  -2 2039.04 282.162   1
  -7  -4   2 2118.43 277.480   3
  -7  -4   2 2109.77 184.434   2
  -7  -4   1 7359.88 415.372   6
   7   4  -1 7164.13 509.493   1
  -7  -4   1 8076.24 534.658   3
   7   4  -1 7184.92 550.880   7
  -7  -4   1 7866.38 337.560   2
   7   4   0-7.96805 66.7421   7
  -7  -4   0 55.1662 46.3054   6
  -7  -4   0 109.675 54.2514   2
   7   4   0 41.2926 87.6748   1
  -7  -4   0 17.2432 45.9957   4
  -7  -4   0 22.9070 73.4744   3
   7   4   1 712.079 192.324   7
  -7  -4  -1 519.414 88.2978   2
  -7  -4  -1 353.652 95.7171   4
  -7  -4  -1 484.857 128.965   1
  -7  -4  -1 393.781 125.364   3
  -7  -4  -2 69.8225 40.0183   2
  -7  -4  -2 67.6333 54.1651   4
  -7  -4  -2 44.5449 99.1170   3
   7   4   2 152.289 99.8782   7
  -7  -4  -3 288.912 90.8167   5
  -7  -4  -3 358.276 79.9485   2
  -7  -4  -3 140.013 93.6197   3
  -7  -4  -4 6053.49 332.351   2
  -7  -4  -5 7182.29 380.295   2
  -7  -4  -6 779.503 132.488   2
  -7  -4  -7 5945.92 385.620   2
  -7  -4  -8 1240.61 190.400   2
  -7  -4  -9 1084.18 187.721   2
  -7  -4 -10 293.598 103.894   2
  -7  -4 -11 775.247 176.434   2
  -7  -4 -12 462.039 136.768   2
  -7  -4 -13 423.732 153.747   2
   7   5 -11 9490.14 832.912   1
   7   5 -10 4145.11 512.987   1
   7   5  -9 625.004 204.227   1
   7   5  -8 390.342 168.261   1
   7   5  -7 1870.89 271.639   7
   7   5  -7 1958.77 314.577   1
   7   5  -6-59.7935 67.6149   7
   7   5  -6-10.7933 81.4057   1
   7   5  -5 117.704 100.340   7
   7   5  -5-55.6350 115.649   1
   7   5  -4 1231.85 234.028   7
   7   5  -4 1346.77 229.776   1
   7   5  -3 208.314 111.843   7
  -7  -5   3 145.870 44.3602   2
   7   5  -3 155.917 75.5992   1
   7   5  -2 25849.3 934.969   1
   7   5  -2 23742.7 1020.37   7
  -7  -5   2 24710.5 441.088   2
  -7  -5   1 16760.0 630.882   1
  -7  -5   1 16317.4 329.062   2
  -7  -5   1 17332.3 787.538   3
   7   5  -1 19322.1 783.583   1
   7   5  -1 16334.9 849.123   7
  -7  -5   1 17423.8 344.842   2
   7   5   0 488.798 165.251   7
  -7  -5   0 720.046 137.716   1
  -7  -5   0 494.013 59.3415   2
  -7  -5   0 693.911 178.994   3
   7   5   1 1217.26 248.429   7
  -7  -5  -1 1128.79 98.9954   2
  -7  -5  -1 933.107 156.761   1
  -7  -5  -1 882.433 202.315   3
   7   5   2 276.730 132.680   7
  -7  -5  -2 277.227 89.4750   4
  -7  -5  -2 282.780 51.8498   2
  -7  -5  -2 602.588 183.126   3
  -7  -5  -2 299.616 106.466   1
   7   5   3 673.922 199.399   7
  -7  -5  -3 624.603 138.847   1
  -7  -5  -3 735.676 97.6069   2
  -7  -5  -3 559.997 165.871   3
  -7  -5  -4 9135.91 367.138   2
  -7  -5  -4 10261.3 581.509   1
  -7  -5  -4 8864.81 636.228   3
   7   5   4 8230.97 639.375   7
  -7  -5  -5 11528.5 448.840   2
  -7  -5  -5 12286.5 761.776   3
  -7  -5  -6-92.2493 129.449   3
  -7  -5  -6 272.792 84.6516   2
  -7  -5  -7 1.06389 48.7424   2
  -7  -5  -8 1859.65 228.837   2
  -7  -5  -9 1975.22 249.473   2
  -7  -5 -10 14.8587 44.5736   2
  -7  -5 -11-131.995 98.1099   2
  -7  -5 -12-44.0464 79.9755   2
  -7  -5 -13 257.153 123.245   2
   7   6 -10 905.313 243.279   1
   7   6  -9 1898.39 356.680   1
   7   6  -8 239.994 121.653   7
   7   6  -8-150.205 84.9459   1
   7   6  -7 2031.19 309.125   7
   7   6  -7 2181.95 320.933   1
   7   6  -6 14146.6 772.243   1
   7   6  -6 13042.7 782.038   7
   7   6  -5 764.849 197.291   7
   7   6  -5 880.695 194.671   1
   7   6  -4 3957.98 379.490   1
   7   6  -4 3933.74 436.048   7
   7   6  -3 5529.78 416.369   1
   7   6  -3 4914.54 482.816   7
   7   6  -2 7950.90 485.873   1
   7   6  -2 7075.71 573.787   7
   7   6  -1 3957.17 433.083   7
   7   6   0 405.036 157.934   7
  -7  -6   0 513.219 166.225   3
  -7  -6  -1 5444.93 474.336   3
   7   6   1 5437.50 519.506   7
  -7  -6  -2 8870.43 220.301   2
  -7  -6  -2 10122.3 655.338   3
   7   6   2 9476.88 686.820   7
  -7  -6  -3 3413.04 177.912   2
  -7  -6  -3 3591.47 411.799   3
   7   6   3 3387.24 424.340   7
   7   6   4 705.684 192.685   7
  -7  -6  -4 856.658 107.145   2
  -7  -6  -4 822.262 196.198   3
   7   6   5 524.325 196.887   7
  -7  -6  -5 426.389 88.1399   2
  -7  -6  -5 536.463 165.233   3
  -7  -6  -6 81.6429 88.3768   3
  -7  -6  -6 0.35060 39.3754   2
  -7  -6  -7 509.608 155.379   3
  -7  -6  -7 689.224 123.794   2
  -7  -6  -8 657.061 157.967   3
  -7  -6  -8 854.356 152.764   2
  -7  -6  -9 935.336 235.975   3
  -7  -6  -9 762.737 153.364   2
  -7  -6 -10 1706.66 255.337   2
  -7  -6 -10 2143.33 344.617   3
  -7  -6 -11 38.0525 94.1076   3
  -7  -6 -11-169.709 102.240   2
  -7  -6 -12 353.438 163.687   3
  -7  -6 -12 217.128 98.5869   2
  -7  -6 -13 189.815 107.144   3
  -7  -6 -13 140.780 117.804   2
   7   7  -8 7858.21 634.809   7
   7   7  -7 386.331 141.603   7
   7   7  -6 714.797 183.305   7
   7   7  -5-159.641 130.149   7
   7   7  -4 175.396 95.1178   7
   7   7  -3 1070.25 228.865   7
   7   7  -2-127.455 123.988   7
   7   7  -1 1857.80 311.025   7
   7   7   0 5792.26 550.558   7
   7   7   1 7462.92 634.033   7
   7   7   2 896.143 235.948   7
  -7  -7  -2 1595.51 279.979   3
   7   7   3 471.374 164.641   7
  -7  -7  -3 569.905 179.480   3
   7   7   4 946.995 235.174   7
  -7  -7  -4 919.380 221.956   3
   7   7   5 311.959 166.001   7
  -7  -7  -5 347.394 152.856   3
   7   7   6 2536.32 402.014   7
  -7  -7  -6 2928.74 386.414   3
  -7  -7  -7 4366.79 477.960   3
  -7  -7  -8-113.595 128.870   3
  -7  -7  -9 672.516 195.486   3
  -7  -7 -10 786.861 216.720   3
  -7  -7 -11-78.8935 102.331   3
  -7  -7 -12-89.3947 105.644   3
   7   8  -8 349.109 173.117   7
   7   8  -7 294.647 135.683   7
   7   8  -6 147.062 109.232   7
   7   8  -5 1809.06 326.997   7
   7   8  -4 415.618 164.079   7
   7   8  -3-174.683 143.260   7
   7   8  -2 3196.59 426.303   7
   7   8  -1 9480.60 734.084   7
   7   8   0 11.8603 98.6960   7
   7   8   1-121.547 122.080   7
   7   8   2-40.8119 90.8158   7
   7   8   3 5036.03 552.846   7
  -7  -8  -4 19164.9 934.825   3
   7   8   4 17362.3 1023.43   7
   7   8   5 1305.38 293.228   7
  -7  -8  -5 1524.05 276.053   3
   7   8   6 341.574 145.846   7
  -7  -8  -6 379.924 127.599   3
   7   8   7 62.5015 92.4578   7
  -7  -8  -7-113.605 84.1060   3
  -7  -8  -8 832.452 235.815   3
  -7  -8  -9 505.604 191.134   3
  -7  -8 -10 223.675 140.513   3
  -7  -8 -11 178.964 137.490   3
   7   9  -8 3889.56 499.449   7
   7   9  -7 1418.99 299.309   7
   7   9  -6 3390.39 466.894   7
   7   9  -5 1989.64 367.605   7
   7   9  -4 2686.25 415.646   7
   7   9  -3 384.304 174.275   7
   7   9  -2-14.9133 99.7521   7
   7   9  -1 3589.99 471.537   7
   7   9   0-12.5582 100.712   7
   7   9   1 136.468 130.939   7
   7   9   2 411.233 174.226   7
   7   9   3 2425.79 404.312   7
   7   9   4 50.8286 96.1405   7
   7   9   5 605.754 199.865   7
   7   9   6 1261.97 297.943   7
  -7  -9  -6 1477.90 278.019   3
   7   9   7 178.228 98.9421   7
  -7  -9  -7 10.1556 122.362   3
   7   9   8 1700.65 365.545   7
  -7  -9  -8 2281.89 352.307   3
  -7  -9  -9 226.982 140.670   3
  -7  -9 -10 36.6115 121.951   3
   7  10  -6 435.034 173.584   7
   7  10  -5-3.23551 124.403   7
   7  10  -4 666.635 224.590   7
   7  10  -3 322.511 197.715   7
   7  10  -2 775.495 246.826   7
   7  10  -1-45.9394 112.745   7
   7  10   0 3940.54 528.483   7
   7  10   1 384.108 183.758   7
   7  10   2 681.216 235.843   7
   7  10   3-129.035 147.311   7
   7  10   4 700.205 236.156   7
   7  10   5 3555.90 520.487   7
   7  10   6 1855.16 387.326   7
   8  -5  -3-138.580 151.820   1
   8  -5  -2-44.5750 137.002   1
   8  -5  -1 1702.22 405.733   1
  -8   5   0 236.629 154.134   2
   8  -5   0 155.515 172.539   1
  -8   5  -1 1984.57 352.741   2
  -8   5  -2 663.263 209.885   2
  -8   5  -3 3895.36 492.065   2
  -8   5  -4-39.5150 82.4813   2
  -8   5  -5 561.251 190.960   2
  -8   5  -6-69.7098 130.838   2
   8  -4  -5-99.9504 145.480   1
   8  -4  -4 616.328 228.187   1
   8  -4  -3 2872.15 460.687   1
   8  -4  -2 8427.47 782.403   1
   8  -4  -1 2122.74 419.629   1
   8  -4   0 1185.35 312.568   1
  -8   4   0 1053.03 244.362   2
  -8   4  -1 969.821 225.805   2
  -8   4  -2 3214.31 425.208   2
  -8   4  -3 852.879 222.294   2
  -8   4  -4 5343.56 544.099   2
  -8   4  -5 2367.58 375.093   2
  -8   4  -6 747.265 203.706   2
  -8   4  -7 5325.68 546.314   2
  -8   4  -8 1425.68 279.549   2
   8  -3  -6 249.776 169.719   1
   8  -3  -5 258.620 139.601   1
   8  -3  -4 949.658 278.516   1
   8  -3  -3 328.871 189.765   1
   8  -3  -2-19.9672 110.753   1
   8  -3  -1 4654.15 576.703   1
  -8   3   0 599.468 197.215   2
   8  -3   0 139.605 131.094   1
  -8   3  -1 1002.03 222.936   2
   8  -3   1 909.319 254.162   1
  -8   3  -2 113.625 71.3987   2
  -8   3  -3 2737.12 379.171   2
  -8   3  -4 4525.27 480.222   2
  -8   3  -5 10586.7 731.529   2
  -8   3  -6 973.134 225.528   2
  -8   3  -7-50.5421 80.2302   2
  -8   3  -8 220.418 122.665   2
  -8   3  -9 1045.48 216.857   2
   8  -2  -7 362.839 194.273   1
   8  -2  -6 3408.82 504.420   1
   8  -2  -5 4522.90 568.439   1
   8  -2  -4-0.62197 100.479   1
   8  -2  -3 1415.64 311.719   1
  -8   2   3 1047.81 177.797   3
   8  -2  -2 177.660 114.859   1
   8  -2  -1 2993.65 437.173   1
   8  -2   0 21862.7 1168.07   1
  -8   2   0 20593.8 979.535   2
  -8   2  -1 7323.94 586.828   2
   8  -2   1 7679.61 685.209   1
  -8   2  -2 1137.57 231.006   2
  -8   2  -3 305.294 116.347   2
  -8   2  -4 3513.63 400.661   2
  -8   2  -5 2050.29 316.166   2
  -8   2  -6 318.740 120.668   2
  -8   2  -7 51.0971 60.9382   2
  -8   2  -8 1385.50 253.367   2
  -8   2  -9 1192.12 240.956   2
  -8   2 -10 40.7594 97.4739   2
   8  -1  -8 4830.73 623.857   1
   8  -1  -7 2244.78 422.103   1
   8  -1  -6 13.0615 111.940   1
   8  -1  -5 420.485 187.961   1
  -8   1   4 105.495 82.9530   3
   8  -1  -4-38.8827 105.704   1
   8  -1  -3 7226.04 675.718   1
  -8   1   3 6765.92 464.155   3
  -8   1   2 3686.78 360.486   3
   8  -1  -2 4321.27 511.105   1
   8  -1  -1 179.820 119.587   1
  -8   1   0-29.3143 73.6690   2
   8  -1   0 41.4920 80.0018   1
   8  -1   1 7932.40 674.271   1
  -8   1  -1 6629.67 537.792   2
  -8   1  -2 4353.10 429.395   2
  -8   1  -3 1506.74 245.539   2
  -8   1  -4 252.103 90.3891   2
  -8   1  -5 1997.53 292.053   2
  -8   1  -6 4970.28 458.130   2
  -8   1  -7 4503.11 433.691   2
  -8   1  -8 2282.64 320.518   2
  -8   1  -9 409.646 140.865   2
  -8   1 -10 732.524 200.862   2
  -8   1 -11 322.433 117.528   2
   8   0  -8-221.513 127.061   1
   8   0  -7 332.586 152.448   1
   8   0  -6 33.3411 94.7955   1
   8   0  -5 22.3472 96.5799   1
  -8   0   4 1747.33 225.539   3
   8   0  -4 2222.06 374.116   1
   8   0  -3 3692.56 474.031   1
  -8   0   3 3656.67 340.207   3
   8   0  -2 1909.88 350.251   1
  -8   0   2 1871.34 266.699   3
   8   0  -1 11078.1 785.939   1
  -8   0   0 816.220 178.078   2
   8   0   0 1116.81 265.498   1
  -8   0  -1 2164.18 290.366   2
   8   0   1 2336.17 355.867   1
  -8   0  -2 6956.52 502.482   2
  -8   0  -3 2607.51 309.684   2
  -8   0  -4 699.055 167.359   2
  -8   0  -5 1602.06 247.680   2
  -8   0  -6 887.827 193.009   2
  -8   0  -7 140.970 83.0350   2
  -8   0  -8 76.0483 49.5041   2
  -8   0  -9 212.501 100.398   2
  -8   0 -10 116.327 95.6104   2
  -8   0 -11 218.735 113.010   2
   8   1  -9 1441.02 350.913   1
   8   1  -8-66.7909 116.831   1
   8   1  -7-65.9111 126.343   1
   8   1  -6 6537.44 651.273   1
   8   1  -5 15320.4 972.958   1
  -8  -1   4 712.210 151.718   3
   8   1  -4 698.684 212.704   1
   8   1  -3 1295.51 274.493   1
  -8  -1   3 1333.56 217.725   3
   8   1  -2 301.494 138.873   1
  -8  -1   2 192.046 94.7807   3
  -8  -1   1 5842.46 483.199   3
   8   1  -1 5583.44 546.863   1
  -8  -1   1 5160.88 426.091   2
   8   1   0 6606.97 592.615   1
  -8  -1   0 6351.87 462.637   2
   8   1   1 3754.74 436.356   1
  -8  -1  -1 3655.90 348.882   2
  -8  -1  -2 226.025 86.1768   2
  -8  -1  -3 384.072 112.903   2
  -8  -1  -4 3175.52 323.271   2
  -8  -1  -5 3309.90 330.326   2
  -8  -1  -6 131.498 66.0238   2
  -8  -1  -7 202.142 95.9218   2
  -8  -1  -8 3507.25 363.658   2
  -8  -1  -9 3254.10 358.572   2
  -8  -1 -10 1533.99 259.584   2
  -8  -1 -11 21.6619 65.9818   2
  -8  -1 -12 17.1279 64.3332   2
   8   2  -9-160.505 182.813   1
   8   2  -8 9864.79 831.498   1
   8   2  -7 3479.11 490.629   1
   8   2  -6-86.9182 123.108   1
   8   2  -5 989.105 249.619   1
   8   2  -4 2398.44 372.530   1
   8   2  -3 1664.66 293.672   1
  -8  -2   3 1385.36 222.637   3
   8   2  -2 20.3799 87.7384   1
  -8  -2   2-55.6744 84.8481   3
   8   2  -1 62.2564 85.3775   1
  -8  -2   1-86.9400 79.7255   2
  -8  -2   1-55.3619 68.2674   3
  -8  -2   0 7225.08 555.629   3
   8   2   0 7589.31 611.035   1
  -8  -2   0 6930.40 448.188   2
   8   2   1 4603.02 472.347   1
  -8  -2  -1 4741.59 363.546   2
  -8  -2  -2 14833.4 641.261   2
  -8  -2  -3 178.059 78.1044   2
  -8  -2  -4 5368.78 392.109   2
  -8  -2  -5 36.8381 40.1383   2
  -8  -2  -6 4059.59 355.903   2
  -8  -2  -7 3625.21 348.619   2
  -8  -2  -8 302.130 112.885   2
  -8  -2  -9-110.531 74.2189   2
  -8  -2 -10 437.766 143.985   2
  -8  -2 -11 1067.22 226.629   2
  -8  -2 -12 41.0541 72.4414   2
   8   3 -10 686.896 294.741   1
   8   3  -9 356.694 161.910   1
   8   3  -8 1315.10 332.606   1
   8   3  -7 4148.76 514.772   1
   8   3  -6 1041.29 242.633   1
   8   3  -5 749.019 215.751   1
   8   3  -4 10106.7 731.278   1
   8   3  -3 2801.85 380.398   1
  -8  -3   3 2428.12 297.904   3
  -8  -3   2 130.402 77.4924   2
   8   3  -2 18.7406 73.0079   1
  -8  -3   2-5.42564 109.520   3
   8   3  -1 69.8295 111.102   1
  -8  -3   1 68.7433 54.3271   2
  -8  -3   1 48.1418 65.5302   3
  -8  -3   0 4396.29 443.592   3
   8   3   0 4019.89 432.886   1
  -8  -3   0 4153.31 315.220   2
  -8  -3  -1 989.496 157.192   2
  -8  -3  -1 533.077 149.531   3
  -8  -3  -2 2662.93 350.598   3
  -8  -3  -2 2853.55 259.773   2
  -8  -3  -3 65.2429 54.1531   2
  -8  -3  -4 153.085 64.1078   2
  -8  -3  -5 873.435 153.717   2
  -8  -3  -6 678.955 143.542   2
  -8  -3  -7 107.262 59.2996   2
  -8  -3  -8 1220.72 203.452   2
  -8  -3  -9 211.650 119.542   2
  -8  -3 -10 131.795 101.955   2
  -8  -3 -11 162.306 93.3163   2
  -8  -3 -12 534.423 167.907   2
   8   4 -10-201.939 121.417   1
   8   4  -9-161.777 170.170   1
   8   4  -8 817.428 237.108   1
   8   4  -7 3248.89 432.230   1
   8   4  -6 2170.42 351.425   1
   8   4  -5 7772.07 643.561   1
   8   4  -5 7701.38 564.907   7
   8   4  -4 7074.59 591.574   1
   8   4  -4 7340.57 563.929   7
   8   4  -3 440.643 151.593   1
  -8  -4   3 354.746 94.9421   2
   8   4  -3 448.035 159.099   7
  -8  -4   2 2700.45 325.636   3
   8   4  -2 2214.42 320.838   1
  -8  -4   2 2482.81 225.749   2
  -8  -4   1 7.69280 36.6500   2
   8   4  -1 71.5216 106.393   1
  -8  -4   1 60.3762 90.5904   3
  -8  -4   0 6721.55 542.311   3
   8   4   0 6403.05 520.403   1
  -8  -4   0 6532.18 341.870   2
  -8  -4  -1 7575.57 600.627   3
  -8  -4  -1 7568.55 366.910   2
  -8  -4  -2 1627.87 292.817   3
  -8  -4  -2 1485.53 164.776   2
  -8  -4  -3 3452.67 261.951   2
  -8  -4  -3 3219.54 410.778   3
  -8  -4  -4 8586.31 428.842   2
  -8  -4  -4 8288.18 658.584   3
  -8  -4  -5 35.2142 33.7880   2
  -8  -4  -6 2897.77 271.467   2
  -8  -4  -7 41.7159 66.8674   2
  -8  -4  -8 1481.81 213.774   2
  -8  -4  -9 3145.41 325.823   2
  -8  -4 -10 604.312 153.337   2
  -8  -4 -11 178.952 79.1038   2
  -8  -4 -12 29.3143 73.1047   2
   8   5 -10 429.188 218.271   1
   8   5  -9 2315.28 387.563   1
   8   5  -8 1411.18 270.185   1
   8   5  -7 781.832 215.918   1
   8   5  -6 2562.33 365.251   1
   8   5  -6 2627.29 348.678   7
   8   5  -5 2205.44 327.866   7
   8   5  -5 2154.58 333.891   1
   8   5  -4 3681.87 417.246   1
   8   5  -4 3167.83 395.179   7
   8   5  -3 207.945 124.728   7
   8   5  -3 110.872 113.346   1
   8   5  -2 1129.50 218.177   1
   8   5  -2 917.064 224.296   7
   8   5  -1 193.178 110.617   7
   8   5  -1 151.715 96.7891   1
  -8  -5   1 292.173 138.402   3
  -8  -5   0 6899.79 546.632   3
   8   5   0 6944.22 600.520   7
  -8  -5  -1 8696.88 320.940   2
  -8  -5  -1 9066.33 640.051   3
   8   5   1 7812.64 644.229   7
  -8  -5  -2 5114.36 259.973   2
  -8  -5  -2 4739.83 481.568   3
   8   5   2 4362.22 490.453   7
  -8  -5  -3 366.789 75.5324   2
  -8  -5  -3 606.749 187.756   3
  -8  -5  -4 16.8138 34.0607   2
  -8  -5  -4 15.2433 100.474   3
  -8  -5  -5 855.471 133.707   2
  -8  -5  -5 857.860 187.653   3
  -8  -5  -6 2420.66 231.969   2
  -8  -5  -6 2489.36 381.719   3
  -8  -5  -7 236.366 139.077   3
  -8  -5  -7 359.950 100.288   2
  -8  -5  -8 574.815 131.165   2
  -8  -5  -9 634.577 147.654   2
  -8  -5 -10 1336.94 217.615   2
  -8  -5 -11-148.684 98.9324   2
  -8  -5 -12 180.217 101.568   2
   8   6  -7 4826.05 512.635   1
   8   6  -6-30.2436 72.9357   7
   8   6  -6-25.2241 77.4806   1
   8   6  -5 360.223 159.191   7
   8   6  -5 9.51192 55.9997   1
   8   6  -4 1218.83 241.139   7
   8   6  -4 1062.02 214.622   1
   8   6  -3 11669.8 666.900   1
   8   6  -3 11199.2 770.248   7
   8   6  -2 698.105 200.349   7
   8   6  -2 778.588 177.192   1
   8   6  -1 237.222 154.382   7
   8   6   0-192.119 143.223   7
  -8  -6   0 167.129 152.828   3
   8   6   1 701.122 215.409   7
  -8  -6  -1 544.867 191.443   3
   8   6   2 854.453 229.554   7
  -8  -6  -2 967.223 231.019   3
   8   6   3 934.327 263.213   7
  -8  -6  -3 848.048 218.799   3
  -8  -6  -4 3375.54 422.214   3
   8   6   4 2938.72 426.867   7
  -8  -6  -5 5276.13 529.266   3
  -8  -6  -6-99.2990 121.151   3
  -8  -6  -7 2587.59 402.121   3
  -8  -6  -8 515.749 154.789   3
  -8  -6  -9-147.311 166.182   3
  -8  -6 -10 422.945 171.723   3
   8   7  -7 104.410 100.500   7
   8   7  -6 1276.28 269.903   7
   8   7  -5 5367.50 548.685   7
   8   7  -4 1475.45 299.945   7
   8   7  -3 3126.15 430.619   7
   8   7  -2 2203.04 377.180   7
   8   7  -1-53.2955 82.0200   7
   8   7   0 142.114 114.862   7
   8   7   1-66.4910 74.3683   7
  -8  -7  -1 135.556 98.5893   3
   8   7   2-108.984 103.437   7
  -8  -7  -2 202.831 134.605   3
  -8  -7  -3 4684.07 494.841   3
   8   7   3 4442.98 527.739   7
   8   7   4 166.859 80.0031   7
  -8  -7  -4 252.291 140.873   3
   8   7   5 640.123 196.459   7
  -8  -7  -5 617.884 210.183   3
  -8  -7  -6 1524.52 286.412   3
  -8  -7  -7 181.121 99.3717   3
  -8  -7  -8 707.659 224.932   3
  -8  -7  -9 1087.36 264.502   3
  -8  -7 -10 17.2069 101.569   3
   8   8  -7 517.476 199.069   7
   8   8  -6 104.776 107.430   7
   8   8  -5 2140.78 370.175   7
   8   8  -4 2092.35 369.772   7
   8   8  -3 264.413 170.022   7
   8   8  -2 219.836 138.546   7
   8   8  -1 2166.80 383.095   7
   8   8   0-66.0768 100.586   7
   8   8   1 60.8755 89.8158   7
   8   8   2 156.768 134.192   7
   8   8   3 14.3472 105.419   7
  -8  -8  -3-52.8690 117.544   3
   8   8   4 27.9327 86.0701   7
  -8  -8  -4 492.473 186.226   3
   8   8   5 1107.76 300.704   7
  -8  -8  -5 1273.08 276.512   3
   8   8   6 261.270 200.921   7
  -8  -8  -6 9.55953 73.6589   3
  -8  -8  -7 307.228 121.367   3
  -8  -8  -8 288.496 173.420   3
   8   9  -6 3142.66 464.508   7
   8   9  -5 7.05578 93.4676   7
   8   9  -4 1437.74 329.745   7
   8   9  -3 1288.58 291.739   7
   8   9  -2 1140.18 273.216   7
   8   9  -1 2749.62 437.712   7
   8   9   0 75.2314 135.588   7
   8   9   1-71.6892 103.627   7
   8   9   2 147.262 145.120   7
   8   9   3 2280.07 406.367   7
   8   9   4 120.710 123.983   7
   8   9   5 898.303 275.574   7
   8   9   6-119.877 161.950   7
  -8  -9  -6 51.9041 101.789   3
  -8  -9  -7 437.952 185.846   3
   8  10  -1 621.173 223.753   7
   8  10   0 274.446 180.378   7
  -9   4   1 109.486 77.2225   2
  -9   4   0 2048.21 361.566   2
  -9   4  -1 959.983 246.113   2
  -9   4  -2 383.922 178.000   2
  -9   4  -3 363.963 162.334   2
  -9   4  -4 761.954 222.935   2
   9  -3  -3 317.532 205.491   1
   9  -3  -2 124.094 143.938   1
   9  -3  -1 60.1685 95.0053   1
  -9   3   1 59.3480 95.7007   2
   9  -3   0 2043.03 402.251   1
  -9   3   0 1407.41 276.164   2
  -9   3  -1 441.760 181.097   2
  -9   3  -2 6105.73 596.552   2
  -9   3  -3 1159.40 243.588   2
  -9   3  -4 150.166 103.929   2
  -9   3  -5 67.8335 61.9098   2
  -9   3  -6 98.2115 117.136   2
   9  -2  -4 246.504 166.403   1
   9  -2  -3 5012.61 624.340   1
   9  -2  -2 4493.43 578.511   1
  -9   2   1 36.6388 76.1796   2
   9  -2  -1 326.255 138.565   1
   9  -2   0 554.677 232.081   1
  -9   2   0 403.115 152.420   2
  -9   2  -1 409.770 139.640   2
  -9   2  -2 21.8998 59.8337   2
  -9   2  -3 18.4030 92.3004   2
  -9   2  -4 468.334 185.130   2
  -9   2  -5 53.9844 85.0008   2
  -9   2  -6 111.605 105.537   2
  -9   2  -7 288.688 131.069   2
  -9   2  -8 442.092 147.364   2
   9  -1  -5 5626.75 662.997   1
   9  -1  -4 3993.69 556.310   1
   9  -1  -3 3809.27 525.511   1
   9  -1  -2 2458.58 407.378   1
  -9   1   2 2752.10 332.640   3
  -9   1   1 676.341 186.361   2
   9  -1  -1 376.547 160.815   1
  -9   1   0 40.0745 97.7229   2
   9  -1   0 77.2980 143.693   1
  -9   1  -1 1582.61 279.989   2
  -9   1  -2 1163.96 243.028   2
  -9   1  -3 2205.69 321.941   2
  -9   1  -4 4631.66 467.119   2
  -9   1  -5 3579.33 411.468   2
  -9   1  -6 1211.97 246.812   2
  -9   1  -7-117.442 73.5704   2
  -9   1  -8 221.654 98.4754   2
  -9   1  -9 2311.34 341.955   2
   9   0  -6 1729.83 371.514   1
   9   0  -5-12.0883 127.470   1
   9   0  -4 378.717 213.198   1
   9   0  -3 79.5904 117.250   1
  -9   0   3 24.4863 50.1111   3
  -9   0   2 534.579 149.134   3
   9   0  -2 590.943 220.172   1
  -9   0   1-8.71291 60.2906   2
   9   0  -1-21.9289 92.4060   1
  -9   0   1-151.137 148.697   3
   9   0   0 3388.98 466.380   1
  -9   0   0 3475.38 397.246   2
  -9   0  -1 247.865 101.334   2
  -9   0  -2 5063.70 466.490   2
  -9   0  -3 1036.95 217.271   2
  -9   0  -4 609.439 181.974   2
  -9   0  -5 179.749 108.224   2
  -9   0  -6 561.975 161.673   2
  -9   0  -7 1354.36 250.711   2
  -9   0  -8 82.1106 97.2103   2
  -9   0  -9 505.368 177.880   2
  -9   0 -10 200.902 120.407   2
   9   1  -7 1327.34 330.457   1
   9   1  -6 352.323 171.476   1
   9   1  -5-62.1519 121.787   1
   9   1  -4 246.533 167.062   1
  -9  -1   4 10.7714 77.0605   3
   9   1  -3 7141.84 680.506   1
  -9  -1   3 7462.56 527.018   3
  -9  -1   2 21902.4 953.699   3
   9   1  -2 22746.4 1201.41   1
  -9  -1   2 22680.2 971.871   2
  -9  -1   1 1662.32 263.388   2
   9   1  -1 1439.80 304.523   1
  -9  -1   1 1590.32 271.985   3
  -9  -1   0 804.771 184.615   2
  -9  -1   0 768.802 183.730   3
   9   1   0 619.782 193.119   1
  -9  -1  -1 3448.89 361.792   2
  -9  -1  -2 2760.49 323.313   2
  -9  -1  -3 211.373 101.100   2
  -9  -1  -4 522.324 154.945   2
  -9  -1  -5 2669.73 318.234   2
  -9  -1  -6 5370.48 461.053   2
  -9  -1  -7 1283.38 225.453   2
  -9  -1  -8 390.513 133.436   2
  -9  -1  -9 18.1416 56.9709   2
  -9  -1 -10 106.101 63.5762   2
   9   2  -7 686.779 217.457   1
   9   2  -6 367.197 156.591   1
   9   2  -5 709.178 216.598   1
   9   2  -4 213.006 149.127   1
   9   2  -3-25.2472 117.154   1
  -9  -2   3 11.0718 75.1663   3
  -9  -2   2 2886.35 353.693   3
  -9  -2   2 2769.43 324.094   2
   9   2  -2 2270.83 365.281   1
  -9  -2   1 5101.30 487.457   3
   9   2  -1 4602.66 525.013   1
  -9  -2   1 4731.29 412.765   2
   9   2   0 1332.04 279.337   1
  -9  -2   0 1508.07 227.390   2
  -9  -2   0 1365.28 258.660   3
  -9  -2  -1 798.526 162.584   2
  -9  -2  -1 695.779 170.950   3
  -9  -2  -2 280.778 90.1053   2
  -9  -2  -3 4235.17 376.896   2
  -9  -2  -4 3416.53 337.772   2
  -9  -2  -5 3690.40 357.933   2
  -9  -2  -6 1164.07 203.466   2
  -9  -2  -7 1091.88 209.130   2
  -9  -2  -8 980.304 200.724   2
  -9  -2  -9 728.703 173.886   2
  -9  -2 -10 1583.20 269.219   2
  -9  -2 -11 1337.79 245.454   2
   9   3  -8 88.6743 125.890   1
   9   3  -7 3160.34 479.120   1
   9   3  -6 3999.80 525.673   1
   9   3  -5 1523.96 312.695   1
   9   3  -4 984.492 240.287   1
  -9  -3   3 702.777 157.938   2
   9   3  -3 430.746 174.142   1
  -9  -3   3 603.573 163.908   3
   9   3  -2 112.370 111.187   1
  -9  -3   2 54.8342 56.3601   2
  -9  -3   2 250.542 138.713   3
  -9  -3   1 5140.38 487.372   3
   9   3  -1 4948.09 517.845   1
  -9  -3   1 5287.36 395.489   2
  -9  -3   0 6420.19 565.447   3
   9   3   0 6362.21 581.617   1
  -9  -3   0 6776.03 441.358   2
  -9  -3  -1-28.9357 39.3347   2
  -9  -3  -1-145.263 118.915   3
  -9  -3  -2 1590.79 289.686   3
  -9  -3  -2 2077.86 239.426   2
  -9  -3  -3 96.1688 60.2042   2
  -9  -3  -3-30.1534 99.9288   3
  -9  -3  -4 262.815 100.220   2
  -9  -3  -5 148.014 76.8874   2
  -9  -3  -6 427.771 132.977   2
  -9  -3  -7-3.65039 45.6915   2
  -9  -3  -8 24.5437 71.6219   2
  -9  -3  -9 1001.17 197.054   2
  -9  -3 -10 193.917 108.547   2
  -9  -3 -11 480.637 157.057   2
   9   4  -8 2263.63 409.873   1
   9   4  -7-183.066 142.400   1
   9   4  -6-97.6114 89.6027   1
   9   4  -5 2088.17 350.670   1
   9   4  -4 459.144 173.816   1
   9   4  -3 416.482 164.045   1
   9   4  -2 523.402 160.181   1
  -9  -4   2 532.284 179.441   3
   9   4  -1 538.382 162.478   1
  -9  -4   1 101.294 90.4352   3
  -9  -4   0 3327.23 411.461   3
  -9  -4  -1 14277.6 871.088   3
  -9  -4  -2 39.9178 37.2072   2
  -9  -4  -2-121.191 139.204   3
  -9  -4  -3 6.96249 31.0963   2
  -9  -4  -3-44.1233 88.8920   3
  -9  -4  -4 56.4865 64.4746   2
  -9  -4  -4-34.8116 95.1199   3
  -9  -4  -5 1531.23 199.984   2
  -9  -4  -5 1275.47 266.938   3
  -9  -4  -6 6320.05 421.646   2
  -9  -4  -7 5611.33 414.225   2
  -9  -4  -8 674.367 151.876   2
  -9  -4  -9 30.8404 66.8688   2
  -9  -4 -10 551.909 155.349   2
  -9  -4 -11 1078.22 222.310   2
   9   5  -8 269.480 135.484   1
   9   5  -7 314.123 124.686   1
   9   5  -6 159.433 134.984   1
   9   5  -5-22.6726 84.7193   1
   9   5  -4 5919.30 560.284   1
   9   5  -3-5.57183 77.8264   1
   9   5  -2 4924.31 484.682   1
  -9  -5   1 4501.48 460.623   3
   9   5  -1 3869.52 425.225   1
  -9  -5   0 347.502 144.399   3
  -9  -5  -1 2751.94 383.031   3
  -9  -5  -2-209.770 124.050   3
  -9  -5  -3 386.120 145.559   3
  -9  -5  -4 507.900 175.012   3
  -9  -5  -5 22.5457 127.933   3
  -9  -5  -6 141.459 112.258   3
  -9  -5  -7 141.421 160.634   3
  -9  -5  -8 307.064 180.494   3
   9   6  -5 20.6325 95.4758   7
   9   6  -4 1152.71 259.945   7
   9   6  -3 12.9100 83.8209   7
   9   6  -2 86.2601 129.858   7
   9   6  -1 627.593 219.818   7
   9   6   0 480.272 200.876   7
  -9  -6   0 238.652 138.590   3
  -9  -6  -1-1.89809 99.8340   3
   9   6   1 62.1617 94.2504   7
  -9  -6  -2 2716.21 390.035   3
  -9  -6  -3 2520.80 389.910   3
  -9  -6  -4 186.090 134.362   3
  -9  -6  -5 179.784 85.1156   3
  -9  -6  -6 222.974 99.8087   3
  -9  -6  -7 69.3324 96.6383   3
  -9  -6  -8 2737.89 436.024   3
   9   7  -5 136.995 112.819   7
   9   7  -4 277.450 176.547   7
   9   7  -3 569.070 200.697   7
   9   7  -2 447.788 168.372   7
   9   7  -1 231.002 113.133   7
   9   7   0 4373.73 535.380   7
   9   7   1 3151.64 458.344   7
  -9  -7  -1 3877.41 457.411   3
   9   7   2 902.002 261.399   7
  -9  -7  -2 1937.82 328.638   3
  -9  -7  -3-7.73203 73.2916   3
   9   7   3 114.536 108.357   7
  -9  -7  -4 578.771 197.523   3
  -9  -7  -5 48.5788 99.4537   3
  -9  -7  -6 6967.99 665.842   3
   9   8  -5 217.136 139.989   7
   9   8  -4 292.446 188.233   7
   9   8  -3-51.3361 124.902   7
   9   8  -2 1154.71 286.645   7
   9   8  -1 1260.20 307.491   7
   9   8   0 573.366 187.963   7
   9   8   1 856.005 242.352   7
   9   8   2 315.197 191.225   7
   9   8   3 1872.32 365.076   7
  -9  -8  -3 2616.81 394.355   3
   9   8   4-92.9696 122.192   7
  -9  -8  -4 125.919 127.369   3
 -10   2   2-213.567 135.541   2
 -10   2   1 1521.42 303.683   2
 -10   2   0 4480.88 518.090   2
 -10   2  -1 325.511 163.832   2
 -10   2  -2 371.244 112.544   2
 -10   2  -3 1564.54 303.724   2
 -10   2  -4 595.735 232.865   2
 -10   2  -5 931.272 263.012   2
 -10   1   2-127.433 109.621   2
 -10   1   1 432.107 164.662   2
  10  -1  -1 536.453 205.883   1
 -10   1   0 5677.57 558.932   2
  10  -1   0 5831.79 665.228   1
 -10   1  -1 4584.27 508.599   2
 -10   1  -2 5651.87 555.221   2
 -10   1  -3 3911.31 460.810   2
 -10   1  -4 10.6349 69.3462   2
 -10   1  -5 129.624 96.1044   2
 -10   1  -6 3106.69 410.552   2
 -10   1  -7 317.001 120.913   2
  10   0  -3 399.686 189.971   1
 -10   0   3 488.040 170.651   2
 -10   0   2 564.337 181.390   2
  10   0  -2 280.307 119.817   1
 -10   0   1 698.287 199.983   2
  10   0  -1 927.671 266.047   1
 -10   0   1 926.561 218.775   3
 -10   0   0 1209.13 237.965   2
  10   0   0 1025.36 269.978   1
 -10   0   0 1012.03 230.079   3
 -10   0  -1 1028.09 234.466   2
 -10   0  -2 3032.13 393.151   2
 -10   0  -3 163.177 90.7915   2
 -10   0  -4 545.138 188.108   2
 -10   0  -5 133.232 87.3657   2
 -10   0  -6 8.30951 66.4485   2
 -10   0  -7 187.331 124.016   2
 -10   0  -8 114.893 99.4816   2
  10   1  -4 2384.33 429.362   1
  10   1  -3-143.556 194.840   1
 -10  -1   3-169.850 105.620   2
 -10  -1   2 464.255 157.171   2
  10   1  -2 329.380 154.830   1
 -10  -1   2 581.677 178.193   3
 -10  -1   1 3349.20 411.237   3
  10   1  -1 3279.77 492.235   1
 -10  -1   1 3324.04 399.036   2
 -10  -1   0 1255.31 250.540   2
  10   1   0 728.662 274.142   1
 -10  -1   0 973.960 238.733   3
 -10  -1  -1-35.8845 54.9974   2
 -10  -1  -1-225.250 149.444   3
 -10  -1  -2 7291.60 572.039   2
 -10  -1  -3 1908.86 294.541   2
 -10  -1  -4 6172.19 509.402   2
 -10  -1  -5 3463.57 387.864   2
 -10  -1  -6 459.327 163.142   2
 -10  -1  -7 202.697 108.052   2
 -10  -1  -8 1058.11 212.165   2
 -10  -1  -9 358.253 153.556   2
  10   2  -5 375.494 173.278   1
  10   2  -4 5857.83 650.307   1
  10   2  -3 428.094 179.133   1
 -10  -2   3 660.681 174.608   3
  10   2  -2 521.282 192.973   1
 -10  -2   2 250.984 131.931   3
  10   2  -1 2194.10 394.086   1
 -10  -2   1 2105.09 330.693   3
 -10  -2   1 2698.44 330.737   2
 -10  -2   0 950.875 209.103   2
 -10  -2   0 972.899 236.421   3
 -10  -2  -1 980.299 198.144   2
 -10  -2  -1 753.629 231.168   3
 -10  -2  -2 6070.61 614.646   3
 -10  -2  -2 6262.06 489.703   2
 -10  -2  -3 1143.90 208.857   2
 -10  -2  -4 632.696 157.366   2
 -10  -2  -5 680.855 205.496   2
 -10  -2  -6 238.477 97.4364   2
 -10  -2  -7 675.501 158.777   2
 -10  -2  -8 305.090 119.976   2
 -10  -2  -9 36.3128 66.4745   2
  10   3  -6 822.183 257.208   1
  10   3  -5 372.846 155.114   1
  10   3  -4 203.792 148.209   1
  10   3  -3 1061.28 279.693   1
 -10  -3   2 4937.15 485.459   3
  10   3  -2 4874.77 574.720   1
  10   3  -1 851.234 242.720   1
 -10  -3   1 802.193 208.908   3
 -10  -3   0-4.55096 110.683   3
 -10  -3  -1-133.370 130.219   3
 -10  -3  -2-165.326 143.617   3
 -10  -3  -3 590.887 203.351   3
 -10  -3  -4 111.678 68.7265   2
 -10  -3  -4 84.0881 102.344   3
 -10  -3  -5 756.295 159.620   2
 -10  -3  -6 1570.43 234.100   2
 -10  -3  -7 326.549 134.932   2
 -10  -3  -8 19.1599 46.3231   2
 -10  -3  -9 1225.44 228.364   2
  10   4  -6 405.246 219.420   1
  10   4  -5 2684.00 429.114   1
  10   4  -4 1817.08 345.867   1
  10   4  -3 1344.45 310.786   1
 -10  -4   2 5273.85 508.556   3
  10   4  -2 5032.29 555.600   1
 -10  -4   1 3557.05 430.238   3
  10   4  -1 3948.03 477.430   1
 -10  -4   0 716.844 207.702   3
 -10  -4  -1 1341.67 299.180   3
 -10  -4  -2 310.050 187.195   3
 -10  -4  -3 3747.96 501.719   3
 -10  -4  -4 5857.42 631.485   3
 -10  -4  -5 508.028 203.859   3
 -10  -4  -6-471.077 202.129   3
  10   5  -3 361.831 168.237   1
  10   5  -2-85.4950 96.5344   1
 -10  -5   1 2591.79 373.100   3
 -10  -5   0 108.100 120.394   3
 -10  -5  -1 512.723 188.982   3
 -10  -5  -2 5422.74 585.074   3
 -10  -5  -3 1532.57 328.671   3
 -10  -5  -4-56.0911 131.510   3
 -10  -5  -5 1064.61 277.567   3
 -10  -6   0 1605.11 304.542   3
 -10  -6  -1 1228.47 277.432   3
 -10  -6  -2 2191.27 375.228   3
 -10  -6  -3 129.171 144.173   3
 -10  -6  -4 196.677 119.005   3
  10   7  -4 63.6020 87.7835   7
  10   7  -3 712.189 240.462   7
  10   7  -2 3190.83 477.436   7
  10   7  -1 2883.34 469.285   7
 -11   0   1 579.433 187.866   2
 -11   0   0 1040.17 243.600   2
 -11   0   0 916.452 261.220   3
 -11   0  -1 647.895 223.980   2
 -11   0  -1 151.563 81.5179   3
 -11   0  -2 1130.65 252.857   2
 -11   0  -3 1390.54 267.468   2
 -11   0  -4 190.531 122.167   2
 -11   0  -5 79.5889 130.837   2
 -11  -1   1 542.903 197.503   3
 -11  -1   0 401.529 163.446   3
 -11  -1  -1 971.457 265.386   3
 -11  -1  -2 3536.78 491.099   3
 -11  -1  -2 3781.45 435.367   2
 -11  -1  -3-57.1485 63.4267   2
 -11  -1  -4 956.336 219.527   2
 -11  -1  -5 778.186 199.101   2
 -11  -1  -6-57.9261 81.1673   2
  11   2  -1 2242.40 404.190   1
 -11  -2   1 2783.10 393.146   3
 -11  -2   0 1190.40 269.543   3
 -11  -2  -1 299.180 132.119   3
 -11  -2  -2-95.0533 120.118   3
  11   3  -3 1404.15 333.846   1
  11   3  -2 790.895 230.420   1
 -11  -3   2 597.070 203.056   3
 -11  -3   1 8.26449 84.5281   3
 -11  -3   0 171.260 167.082   3
 -11  -3  -1 408.507 187.655   3
 -11  -3  -2 223.078 110.503   3
  11   4  -2 251.407 148.769   1
 -11  -4   1 349.738 169.662   3
 -11  -4   0 614.876 222.829   3
 -11  -4  -1 1415.59 307.724   3
   0   0   0    0.00    0.00   0
TITL mo417 in P-1
REM P-1 (#2 in standard setting)
CELL 0.71073   8.104806   9.461119  11.869859  89.6494  83.8956  77.5257
ZERR    2.00   0.000322   0.000377   0.000584   0.0036   0.0038   0.0034
LATT  1
SFAC C H N O Cl
UNIT 34.00 20.00 6.00 8.00 6.00
TREF
HKLF 4
END
;
_shelx_hkl_checksum              16006
loop_
_space_group_symop_operation_xyz
'x, y, z'
'-x, -y, -z'
loop_
_atom_site_label
_atom_site_type_symbol
_atom_site_fract_x
_atom_site_fract_y
_atom_site_fract_z
_atom_site_U_iso_or_equiv
_atom_site_adp_type
_atom_site_occupancy
_atom_site_site_symmetry_order
_atom_site_calc_flag
_atom_site_refinement_flags_posn
_atom_site_refinement_flags_adp
Cl1 Cl -0.01313(8) 0.47226(7) 0.79389(5) 0.04461(17) Uani 1 1 d . .
Cl2 Cl -0.09993(9) 0.12025(8) 1.13962(6) 0.05222(19) Uani 1 1 d . .
Cl3 Cl 0.52619(8) 0.18740(8) 0.99560(6) 0.04936(18) Uani 1 1 d . .
O1 O 0.8002(2) 0.1823(2) 0.76671(16) 0.0519(5) Uani 1 1 d . .
O2 O 0.9051(2) 0.0404(2) 0.62318(19) 0.0654(6) Uani 1 1 d . .
O3 O 0.7249(3) 0.5642(2) 0.58274(18) 0.0621(6) Uani 1 1 d . .
O4 O 0.7195(2) 0.33578(19) 0.53943(15) 0.0458(4) Uani 1 1 d . .
N1 N 0.3569(2) 0.38967(19) 0.82678(16) 0.0326(4) Uani 1 1 d . .
N2 N 0.3643(3) 0.5280(2) 0.85437(18) 0.0430(5) Uani 1 1 d . .
N6 N 0.7865(2) 0.1027(2) 0.68977(18) 0.0394(5) Uani 1 1 d . .
C1 C 0.4761(3) 0.5603(3) 0.7758(2) 0.0426(6) Uani 1 1 d . .
H1 H 0.5074 0.6493 0.7723 0.051 Uiso 1 1 calc R U
C2 C 0.5435(3) 0.4465(2) 0.69778(19) 0.0331(5) Uani 1 1 d . .
C3 C 0.4653(3) 0.3350(2) 0.73369(18) 0.0289(4) Uani 1 1 d . .
C4 C 0.6701(3) 0.4573(3) 0.6020(2) 0.0376(5) Uani 1 1 d . .
C5 C 0.8529(4) 0.3358(3) 0.4478(3) 0.0629(9) Uani 1 1 d . .
H5A H 0.8116 0.4055 0.3927 0.094 Uiso 1 1 calc R U
H5B H 0.8864 0.2413 0.4128 0.094 Uiso 1 1 calc R U
H5C H 0.9489 0.3606 0.4774 0.094 Uiso 1 1 calc R U
C6 C 0.3202(3) 0.1501(3) 0.66988(19) 0.0341(5) Uani 1 1 d . .
H6 H 0.2200 0.2207 0.6780 0.041 Uiso 1 1 calc R U
C7 C 0.4720(3) 0.1866(2) 0.69243(17) 0.0282(4) Uani 1 1 d . .
C8 C 0.6183(3) 0.0769(2) 0.67457(18) 0.0307(5) Uani 1 1 d . .
C9 C 0.6146(3) -0.0620(2) 0.6397(2) 0.0390(5) Uani 1 1 d . .
H9 H 0.7145 -0.1327 0.6286 0.047 Uiso 1 1 calc R U
C10 C 0.4617(3) -0.0944(3) 0.6217(2) 0.0420(6) Uani 1 1 d . .
H10 H 0.4573 -0.1877 0.6001 0.050 Uiso 1 1 calc R U
C11 C 0.3157(3) 0.0119(3) 0.6358(2) 0.0406(6) Uani 1 1 d . .
H11 H 0.2128 -0.0095 0.6223 0.049 Uiso 1 1 calc R U
C12 C 0.2476(3) 0.3217(2) 0.89995(18) 0.0306(5) Uani 1 1 d . .
C13 C 0.3117(3) 0.2267(2) 0.98254(19) 0.0335(5) Uani 1 1 d . .
C14 C 0.2052(3) 0.1639(2) 1.0563(2) 0.0366(5) Uani 1 1 d . .
H14 H 0.2490 0.0995 1.1107 0.044 Uiso 1 1 calc R U
C15 C 0.0328(3) 0.1989(2) 1.04727(19) 0.0336(5) Uani 1 1 d . .
C16 C -0.0362(3) 0.2950(2) 0.96846(19) 0.0335(5) Uani 1 1 d . .
H16 H -0.1530 0.3191 0.9650 0.040 Uiso 1 1 calc R U
C17 C 0.0728(3) 0.3546(2) 0.89469(18) 0.0320(5) Uani 1 1 d . .
loop_
_atom_site_aniso_label
_atom_site_aniso_U_11
_atom_site_aniso_U_22
_atom_site_aniso_U_33
_atom_site_aniso_U_23
_atom_site_aniso_U_13
_atom_site_aniso_U_12
Cl1 0.0426(3) 0.0452(3) 0.0432(3) 0.0108(3) -0.0036(3) -0.0039(3)
Cl2 0.0454(4) 0.0539(4) 0.0545(4) 0.0151(3) 0.0114(3) -0.0131(3)
Cl3 0.0297(3) 0.0573(4) 0.0604(4) 0.0020(3) -0.0067(3) -0.0070(3)
O1 0.0415(10) 0.0588(12) 0.0575(12) -0.0105(9) -0.0149(9) -0.0106(9)
O2 0.0283(10) 0.0862(16) 0.0726(14) -0.0202(12) 0.0068(10) 0.0023(10)
O3 0.0687(14) 0.0400(10) 0.0743(14) 0.0010(9) 0.0274(11) -0.0214(10)
O4 0.0496(11) 0.0448(10) 0.0424(10) -0.0064(8) 0.0165(8) -0.0190(8)
N1 0.0314(10) 0.0284(9) 0.0363(10) -0.0059(8) 0.0080(8) -0.0082(8)
N2 0.0477(13) 0.0291(10) 0.0499(12) -0.0103(9) 0.0117(10) -0.0110(9)
N6 0.0283(10) 0.0442(11) 0.0430(11) 0.0007(9) -0.0055(9) -0.0015(9)
C1 0.0465(15) 0.0301(12) 0.0499(14) -0.0039(10) 0.0092(12) -0.0127(11)
C2 0.0305(11) 0.0310(11) 0.0370(12) 0.0008(9) 0.0020(9) -0.0076(9)
C3 0.0247(10) 0.0288(11) 0.0309(11) -0.0006(8) 0.0008(9) -0.0029(8)
C4 0.0353(12) 0.0353(12) 0.0410(13) 0.0038(10) 0.0037(10) -0.0085(10)
C5 0.064(2) 0.0665(19) 0.0540(17) -0.0111(14) 0.0305(15) -0.0230(16)
C6 0.0269(11) 0.0388(12) 0.0349(12) -0.0035(9) 0.0025(9) -0.0063(10)
C7 0.0278(11) 0.0297(10) 0.0261(10) -0.0002(8) 0.0039(8) -0.0071(9)
C8 0.0276(11) 0.0343(11) 0.0289(11) -0.0001(8) 0.0001(9) -0.0052(9)
C9 0.0440(14) 0.0316(12) 0.0365(12) -0.0007(9) 0.0010(10) 0.0003(10)
C10 0.0561(16) 0.0329(12) 0.0394(13) -0.0024(10) 0.0003(11) -0.0171(12)
C11 0.0392(13) 0.0464(14) 0.0402(13) -0.0023(10) 0.0016(10) -0.0210(11)
C12 0.0303(11) 0.0289(11) 0.0304(11) -0.0054(8) 0.0055(9) -0.0057(9)
C13 0.0283(11) 0.0337(11) 0.0364(12) -0.0047(9) 0.0007(9) -0.0037(9)
C14 0.0365(13) 0.0353(12) 0.0355(12) 0.0026(9) -0.0005(10) -0.0037(10)
C15 0.0332(12) 0.0330(11) 0.0328(11) -0.0016(9) 0.0075(9) -0.0085(10)
C16 0.0272(11) 0.0353(12) 0.0362(12) -0.0032(9) 0.0031(9) -0.0061(9)
C17 0.0338(12) 0.0291(11) 0.0305(11) -0.0021(8) 0.0003(9) -0.0030(9)
loop_
_atom_type_symbol
_atom_type_description
_atom_type_scat_dispersion_real
_atom_type_scat_dispersion_imag
_atom_type_scat_source
C C 0.0033 0.0016 'International Tables Vol C Tables 4.2.6.8 and 6.1.1.4'
H H 0.0000 0.0000 'International Tables Vol C Tables 4.2.6.8 and 6.1.1.4'
N N 0.0061 0.0033 'International Tables Vol C Tables 4.2.6.8 and 6.1.1.4'
O O 0.0106 0.0060 'International Tables Vol C Tables 4.2.6.8 and 6.1.1.4'
Cl Cl 0.1484 0.1585 'International Tables Vol C Tables 4.2.6.8 and 6.1.1.4'
loop_
_geom_angle_atom_site_label_1
_geom_angle_atom_site_label_2
_geom_angle_atom_site_label_3
_geom_angle
C4 O4 C5 115.97(19)
C3 N1 N2 113.02(17)
C3 N1 C12 129.70(18)
N2 N1 C12 117.18(17)
C1 N2 N1 103.80(18)
O1 N6 O2 124.4(2)
O1 N6 C8 119.0(2)
O2 N6 C8 116.6(2)
N2 C1 C2 113.0(2)
N2 C1 H1 123.5
C2 C1 H1 123.5
C3 C2 C1 105.12(19)
C3 C2 C4 132.0(2)
C1 C2 C4 122.9(2)
N1 C3 C2 105.08(18)
N1 C3 C7 119.71(18)
C2 C3 C7 135.2(2)
O3 C4 O4 123.5(2)
O3 C4 C2 123.3(2)
O4 C4 C2 113.14(19)
O4 C5 H5A 109.5
O4 C5 H5B 109.5
H5A C5 H5B 109.5
O4 C5 H5C 109.5
H5A C5 H5C 109.5
H5B C5 H5C 109.5
C11 C6 C7 121.6(2)
C11 C6 H6 119.2
C7 C6 H6 119.2
C8 C7 C6 116.1(2)
C8 C7 C3 125.43(19)
C6 C7 C3 118.42(19)
C9 C8 C7 122.5(2)
C9 C8 N6 115.9(2)
C7 C8 N6 121.65(19)
C10 C9 C8 119.5(2)
C10 C9 H9 120.3
C8 C9 H9 120.3
C11 C10 C9 119.6(2)
C11 C10 H10 120.2
C9 C10 H10 120.2
C10 C11 C6 120.7(2)
C10 C11 H11 119.7
C6 C11 H11 119.7
C13 C12 C17 118.2(2)
C13 C12 N1 120.9(2)
C17 C12 N1 120.8(2)
C14 C13 C12 121.1(2)
C14 C13 Cl3 118.93(18)
C12 C13 Cl3 119.96(17)
C15 C14 C13 118.6(2)
C15 C14 H14 120.7
C13 C14 H14 120.7
C16 C15 C14 122.1(2)
C16 C15 Cl2 119.40(18)
C14 C15 Cl2 118.47(18)
C15 C16 C17 118.2(2)
C15 C16 H16 120.9
C17 C16 H16 120.9
C16 C17 C12 121.7(2)
C16 C17 Cl1 118.30(18)
C12 C17 Cl1 120.01(17)
loop_
_geom_bond_atom_site_label_1
_geom_bond_atom_site_label_2
_geom_bond_distance
Cl1 C17 1.727(2)
Cl2 C15 1.732(2)
Cl3 C13 1.721(2)
O1 N6 1.216(3)
O2 N6 1.223(3)
O3 C4 1.201(3)
O4 C4 1.335(3)
O4 C5 1.450(3)
N1 C3 1.366(3)
N1 N2 1.367(2)
N1 C12 1.424(3)
N2 C1 1.311(3)
N6 C8 1.465(3)
C1 C2 1.402(3)
C1 H1 0.9300
C2 C3 1.386(3)
C2 C4 1.466(3)
C3 C7 1.478(3)
C5 H5A 0.9600
C5 H5B 0.9600
C5 H5C 0.9600
C6 C11 1.380(3)
C6 C7 1.399(3)
C6 H6 0.9300
C7 C8 1.395(3)
C8 C9 1.388(3)
C9 C10 1.377(4)
C9 H9 0.9300
C10 C11 1.373(4)
C10 H10 0.9300
C11 H11 0.9300
C12 C13 1.391(3)
C12 C17 1.392(3)
C13 C14 1.384(3)
C14 C15 1.380(3)
C14 H14 0.9300
C15 C16 1.376(3)
C16 C17 1.382(3)
C16 H16 0.9300
loop_
_geom_torsion_atom_site_label_1
_geom_torsion_atom_site_label_2
_geom_torsion_atom_site_label_3
_geom_torsion_atom_site_label_4
_geom_torsion
C3 N1 N2 C1 1.3(3)
C12 N1 N2 C1 178.2(2)
N1 N2 C1 C2 -0.5(3)
N2 C1 C2 C3 -0.5(3)
N2 C1 C2 C4 179.7(2)
N2 N1 C3 C2 -1.6(3)
C12 N1 C3 C2 -178.0(2)
N2 N1 C3 C7 -179.69(19)
C12 N1 C3 C7 4.0(4)
C1 C2 C3 N1 1.2(3)
C4 C2 C3 N1 -178.9(2)
C1 C2 C3 C7 178.8(2)
C4 C2 C3 C7 -1.3(4)
C5 O4 C4 O3 3.2(4)
C5 O4 C4 C2 -176.0(2)
C3 C2 C4 O3 179.8(3)
C1 C2 C4 O3 -0.4(4)
C3 C2 C4 O4 -1.0(4)
C1 C2 C4 O4 178.9(2)
C11 C6 C7 C8 2.2(3)
C11 C6 C7 C3 -177.2(2)
N1 C3 C7 C8 -125.6(2)
C2 C3 C7 C8 57.1(4)
N1 C3 C7 C6 53.7(3)
C2 C3 C7 C6 -123.6(3)
C6 C7 C8 C9 -1.8(3)
C3 C7 C8 C9 177.5(2)
C6 C7 C8 N6 177.05(19)
C3 C7 C8 N6 -3.6(3)
O1 N6 C8 C9 -143.5(2)
O2 N6 C8 C9 36.0(3)
O1 N6 C8 C7 37.6(3)
O2 N6 C8 C7 -142.9(2)
C7 C8 C9 C10 0.0(3)
N6 C8 C9 C10 -179.0(2)
C8 C9 C10 C11 1.6(4)
C9 C10 C11 C6 -1.2(4)
C7 C6 C11 C10 -0.7(4)
C3 N1 C12 C13 77.8(3)
N2 N1 C12 C13 -98.5(3)
C3 N1 C12 C17 -105.7(3)
N2 N1 C12 C17 78.1(3)
C17 C12 C13 C14 1.3(3)
N1 C12 C13 C14 177.9(2)
C17 C12 C13 Cl3 -177.80(16)
N1 C12 C13 Cl3 -1.2(3)
C12 C13 C14 C15 -0.8(3)
Cl3 C13 C14 C15 178.27(17)
C13 C14 C15 C16 -0.7(3)
C13 C14 C15 Cl2 -179.99(17)
C14 C15 C16 C17 1.6(3)
Cl2 C15 C16 C17 -179.05(17)
C15 C16 C17 C12 -1.1(3)
C15 C16 C17 Cl1 178.72(17)
C13 C12 C17 C16 -0.3(3)
N1 C12 C17 C16 -176.9(2)
C13 C12 C17 Cl1 179.86(16)
N1 C12 C17 Cl1 3.2(3)
