#------------------------------------------------------------------------------
#$Date: 2019-11-19 02:18:59 +0200 (Tue, 19 Nov 2019) $
#$Revision: 231008 $
#$URL: file:///home/coder/svn-repositories/cod/cif/4/03/60/4036078.cif $
#------------------------------------------------------------------------------
#
# This file is available in the Crystallography Open Database (COD),
# http://www.crystallography.net/
#
# All data on this site have been placed in the public domain by the
# contributors.
#
data_4036078
loop_
_publ_author_name
'Chen, Chen'
'Wei, Ran'
'Yi, Xing'
'Gao, Li'
'Zhang, Min'
'Liu, Han'
'Li, Qingshan'
'Song, Heng'
'Ban, Shurong'
_publ_section_title
;
 Diastereo- and enantioselective synthesis of functionalized cyclopentenes
 containing quaternary chiral center via thiosquaramide-catalyzed cascade
 Michael/Henry reaction.
;
_journal_name_full               'The Journal of organic chemistry'
_journal_paper_doi               10.1021/acs.joc.9b02176
_journal_year                    2019
_chemical_formula_moiety         'C19 H15 N3 O3'
_chemical_formula_sum            'C19 H15 N3 O3'
_chemical_formula_weight         333.34
_space_group_crystal_system      triclinic
_space_group_IT_number           2
_space_group_name_Hall           '-P 1'
_space_group_name_H-M_alt        'P -1'
_atom_sites_solution_hydrogens   geom
_atom_sites_solution_primary     dual
_audit_creation_date             2019-04-30
_audit_creation_method
;
Olex2 1.2
(compiled 2018.05.29 svn.r3508 for OlexSys, GUI svn.r5506)
;
_cell_angle_alpha                102.357(3)
_cell_angle_beta                 96.219(3)
_cell_angle_gamma                101.241(3)
_cell_formula_units_Z            2
_cell_length_a                   7.2656(6)
_cell_length_b                   7.5496(6)
_cell_length_c                   15.5420(13)
_cell_measurement_reflns_used    6704
_cell_measurement_temperature    297(2)
_cell_measurement_theta_max      31.12
_cell_measurement_theta_min      3.38
_cell_volume                     806.71(12)
_computing_cell_refinement       'SAINT v8.37A (Bruker, 2015)'
_computing_data_reduction        'SAINT v8.37A (Bruker, 2015)'
_computing_molecular_graphics    'Olex2 (Dolomanov et al., 2009)'
_computing_publication_material  'Olex2 (Dolomanov et al., 2009)'
_computing_structure_refinement  'XL (Sheldrick, 2008)'
_computing_structure_solution    'XT (Sheldrick, 2015)'
_diffrn_ambient_temperature      296.96
_diffrn_measured_fraction_theta_full 0.993
_diffrn_measured_fraction_theta_max 0.993
_diffrn_measurement_device_type  'Bruker APEX-II CCD'
_diffrn_measurement_method       '\f and \w scans'
_diffrn_radiation_type           MoK\a
_diffrn_radiation_wavelength     0.71073
_diffrn_reflns_av_R_equivalents  0.0271
_diffrn_reflns_av_unetI/netI     0.0218
_diffrn_reflns_Laue_measured_fraction_full 0.993
_diffrn_reflns_Laue_measured_fraction_max 0.993
_diffrn_reflns_limit_h_max       8
_diffrn_reflns_limit_h_min       -8
_diffrn_reflns_limit_k_max       8
_diffrn_reflns_limit_k_min       -8
_diffrn_reflns_limit_l_max       18
_diffrn_reflns_limit_l_min       -18
_diffrn_reflns_number            12602
_diffrn_reflns_point_group_measured_fraction_full 0.993
_diffrn_reflns_point_group_measured_fraction_max 0.993
_diffrn_reflns_theta_full        25.009
_diffrn_reflns_theta_max         25.009
_diffrn_reflns_theta_min         2.998
_diffrn_standards_number         0
_exptl_absorpt_coefficient_mu    0.095
_exptl_absorpt_correction_T_max  0.7463
_exptl_absorpt_correction_T_min  0.7071
_exptl_absorpt_correction_type   multi-scan
_exptl_absorpt_process_details
;
SADABS-2016/2 (Bruker,2016/2) was used for absorption correction.
wR2(int) was 0.0706 before and 0.0465 after correction.
The Ratio of minimum to maximum transmission is 0.9475.
The \l/2 correction factor is Not present.
;
_exptl_crystal_colour            Colorless
_exptl_crystal_density_diffrn    1.372
_exptl_crystal_description       block
_exptl_crystal_F_000             348
_refine_diff_density_max         0.187
_refine_diff_density_min         -0.236
_refine_diff_density_rms         0.039
_refine_ls_extinction_method     none
_refine_ls_goodness_of_fit_ref   1.072
_refine_ls_hydrogen_treatment    constr
_refine_ls_matrix_type           full
_refine_ls_number_parameters     226
_refine_ls_number_reflns         2823
_refine_ls_number_restraints     0
_refine_ls_restrained_S_all      1.072
_refine_ls_R_factor_all          0.0517
_refine_ls_R_factor_gt           0.0408
_refine_ls_shift/su_max          0.000
_refine_ls_shift/su_mean         0.000
_refine_ls_structure_factor_coef Fsqd
_refine_ls_weighting_details
'w=1/[\s^2^(Fo^2^)+(0.0545P)^2^+0.2053P] where P=(Fo^2^+2Fc^2^)/3'
_refine_ls_weighting_scheme      calc
_refine_ls_wR_factor_gt          0.1002
_refine_ls_wR_factor_ref         0.1073
_reflns_Friedel_coverage         0.000
_reflns_number_gt                2302
_reflns_number_total             2823
_reflns_threshold_expression     'I > 2\s(I)'
_iucr_refine_instructions_details
;

    mo_190426a_0m.res created by SHELXL-2014/7

TITL mo_190426a_0m_a.res in P-1
REM Old TITL mo_190426a_0m in P-1
REM SHELXT solution in P-1
REM R1 0.175, Rweak 0.010, Alpha 0.045, Orientation as input
REM Formula found by SHELXT: C20 N3 O2
CELL 0.71073 7.2656 7.5496 15.542 102.357 96.219 101.241
ZERR 2 0.0006 0.0006 0.0013 0.003 0.003 0.003
LATT 1
SFAC C H N O
UNIT 38 30 6 6
 
L.S. 20
PLAN  20
TEMP 23.81
list 4
fmap 2 53
acta
OMIT -3 50.02
REM <olex2.extras>
REM <HklSrc "%.\\mo_190426a_0m.hkl">
REM </olex2.extras>
 
WGHT    0.054500    0.205300
FVAR       1.86023
O001  4    0.479033    0.018774    0.888989    11.00000    0.05582    0.04294 =
         0.04207    0.01575   -0.00749   -0.02235
O002  4    0.289286    0.555167    0.778826    11.00000    0.05136    0.03943 =
         0.08639    0.01992    0.01117    0.02075
O003  4    0.128598    0.286562    0.699182    11.00000    0.03386    0.07420 =
         0.05223   -0.00314   -0.00859    0.01810
N004  3    1.059657    0.378507    0.909640    11.00000    0.03191    0.04104 =
         0.03993    0.00884   -0.00039   -0.00047
N005  3    0.653546    0.241740    1.004141    11.00000    0.05003    0.03957 =
         0.02894    0.00912    0.00342   -0.01370
AFIX  93
H00A  2    0.601789    0.192318    1.043145    11.00000   -1.20000
H00B  2    0.740022    0.343048    1.021011    11.00000   -1.20000
AFIX   0
N006  3    0.274223    0.389713    0.744227    11.00000    0.03245    0.04244 =
         0.03692    0.01449    0.00645    0.01238
C007  1    0.900487    0.331390    0.884225    11.00000    0.03362    0.02589 =
         0.02499    0.00717    0.00162    0.00238
C008  1    0.695669    0.263766    0.851937    11.00000    0.02587    0.02520 =
         0.02660    0.00625   -0.00047    0.00164
C009  1    0.472205    0.155605    0.715830    11.00000    0.02640    0.03106 =
         0.02494    0.00937    0.00222    0.00223
C00A  1    0.724684    0.586399    0.816791    11.00000    0.03073    0.02486 =
         0.03705    0.00972    0.00263    0.00731
C00B  1    0.438641    0.313849    0.761970    11.00000    0.02513    0.03042 =
         0.02971    0.01062    0.00331    0.00587
C00C  1    0.592414    0.424294    0.837860    11.00000    0.02996    0.02706 =
         0.02586    0.00596    0.00422    0.00648
AFIX  13
H00C  2    0.536268    0.468288    0.890723    11.00000   -1.20000
AFIX   0
C00D  1    0.369238    0.019422    0.633754    11.00000    0.02540    0.03821 =
         0.02758    0.00293    0.00244    0.00348
C00E  1    0.600279    0.162134    0.918415    11.00000    0.02806    0.02881 =
         0.03240    0.01120   -0.00080    0.00096
C00F  1    0.657832    0.129494    0.758854    11.00000    0.03061    0.03122 =
         0.02798    0.00329   -0.00049    0.00739
AFIX  23
H00D  2    0.758729    0.161249    0.724993    11.00000   -1.20000
H00E  2    0.647397    0.001932    0.763500    11.00000   -1.20000
AFIX   0
C00G  1    0.303364    0.074514    0.558355    11.00000    0.04111    0.05334 =
         0.03091    0.00775    0.00170    0.01567
AFIX  43
H00G  2    0.321444    0.200371    0.559355    11.00000   -1.20000
AFIX   0
C00H  1    0.757992    0.586841    0.730615    11.00000    0.04446    0.03466 =
         0.04355    0.00993    0.01440    0.00712
AFIX  43
H00H  2    0.689422    0.491335    0.683154    11.00000   -1.20000
AFIX   0
C00I  1    0.825440    0.733431    0.885717    11.00000    0.05219    0.02985 =
         0.04325    0.01005   -0.00663    0.00368
AFIX  43
H00I  2    0.801905    0.738165    0.943710    11.00000   -1.20000
AFIX   0
C00J  1    0.211427   -0.057163    0.482259    11.00000    0.04582    0.08766 =
         0.02712   -0.00036   -0.00254    0.02509
AFIX  43
H00J  2    0.167664   -0.019300    0.432210    11.00000   -1.20000
AFIX   0
C00K  1    0.960564    0.873115    0.869128    11.00000    0.04833    0.02909 =
         0.07467    0.01508   -0.01320   -0.00223
AFIX  43
H00K  2    1.028627    0.969946    0.916135    11.00000   -1.20000
AFIX   0
C00L  1    0.344177   -0.168560    0.629879    11.00000    0.05032    0.03984 =
         0.04048    0.00462   -0.00075   -0.00021
AFIX  43
H00L  2    0.390543   -0.207656    0.679080    11.00000   -1.20000
AFIX   0
C00M  1    0.994990    0.869951    0.783860    11.00000    0.03602    0.03576 =
         0.09701    0.02989    0.01395    0.00519
AFIX  43
H00M  2    1.087258    0.963284    0.773062    11.00000   -1.20000
AFIX   0
C00N  1    0.183866   -0.242613    0.479521    11.00000    0.04172    0.07373 =
         0.04332   -0.01925   -0.00314    0.00768
AFIX  43
H00N  2    0.120377   -0.330377    0.428097    11.00000   -1.20000
AFIX   0
C00O  1    0.892642    0.728497    0.714727    11.00000    0.05476    0.04811 =
         0.06856    0.02710    0.03070    0.01505
AFIX  43
H00O  2    0.913658    0.727486    0.656671    11.00000   -1.20000
AFIX   0
C00P  1    0.250250   -0.299042    0.552989    11.00000    0.06065    0.04303 =
         0.06365   -0.00784    0.00148   -0.00334
AFIX  43
H00P  2    0.232108   -0.425276    0.551137    11.00000   -1.20000
AFIX   0
HKLF 4
 
REM  mo_190426a_0m_a.res in P-1
REM R1 =  0.0408 for    2302 Fo > 4sig(Fo)  and  0.0517 for all    2823 data
REM    226 parameters refined using      0 restraints
 
END  
     
WGHT      0.0544      0.2061 

REM Highest difference peak  0.187,  deepest hole -0.236,  1-sigma level  0.039
Q1    1   0.2842  0.5121  0.7160  11.00000  0.05    0.19
Q2    1   0.6424  0.2167  0.8819  11.00000  0.05    0.18
Q3    1   0.6545  0.3409  0.8481  11.00000  0.05    0.17
Q4    1   0.1830  0.3772  0.6671  11.00000  0.05    0.16
Q5    1   0.3748  0.3486  0.7535  11.00000  0.05    0.15
Q6    1   0.4039  0.0767  0.6782  11.00000  0.05    0.15
Q7    1   0.5129  0.3752  0.7954  11.00000  0.05    0.14
Q8    1   0.5603  0.1324  0.7349  11.00000  0.05    0.13
Q9    1   0.7804  0.2854  0.8660  11.00000  0.05    0.13
Q10   1   0.6768  0.2092  0.8151  11.00000  0.05    0.13
Q11   1   0.3335 -0.1851  0.6839  11.00000  0.05    0.13
Q12   1   0.0754  0.1858  0.7661  11.00000  0.05    0.12
Q13   1   0.6485  0.5176  0.8211  11.00000  0.05    0.12
Q14   1   0.4178  0.1987  0.7591  11.00000  0.05    0.12
Q15   1   1.0439  0.2145  0.8218  11.00000  0.05    0.12
Q16   1   0.2291  0.0549  0.4189  11.00000  0.05    0.12
Q17   1   0.6971  0.6114  0.7788  11.00000  0.05    0.12
Q18   1   0.1735  0.2773  0.8046  11.00000  0.05    0.12
Q19   1   0.4768  0.2746  0.7232  11.00000  0.05    0.11
Q20   1   0.3278 -0.0666  0.6369  11.00000  0.05    0.11

  REM The information below was added by Olex2.
  REM
  REM R1 = 0.0408 for 2302 Fo > 4sig(Fo) and 0.0517 for all 18966 data
  REM n/a parameters refined using n/a restraints
  REM Highest difference peak 0.19, deepest hole -0.24
  REM Mean Shift 0, Max Shift 0.000.

  REM +++ Tabular Listing of Refinement Information +++
  REM R1_all = 0.0517
  REM R1_gt = 0.0408
  REM wR_ref = 0.1073
  REM GOOF = 1.072
  REM Shift_max = 0.000
  REM Shift_mean = 0
  REM Reflections_all = 18966
  REM Reflections_gt = 2302
  REM Parameters = n/a
  REM Hole = -0.24
  REM Peak = 0.19
  REM Flack = n/a

  
;
_cod_data_source_file            jo9b02176_si_002.cif
_cod_data_source_block           mo_190426a_0m
_cod_database_code               4036078
_shelx_shelxl_version_number     2014/7
_shelx_space_group_comment
;
The symmetry employed for this shelxl refinement is uniquely defined
by the following loop, which should always be used as a source of
symmetry information in preference to the above space-group names.
They are only intended as comments.
;
_exptl_absorpt_special_details   SADABS
_olex2_refinement_description
;
1. Fixed Uiso
 At 1.2 times of:
  All C(H) groups, All C(H,H) groups, All N(H,H) groups
2.a Ternary CH refined with riding coordinates:
 C00C(H00C)
2.b Secondary CH2 refined with riding coordinates:
 C00F(H00D,H00E)
2.c Aromatic/amide H refined with riding coordinates:
 C00G(H00G), C00H(H00H), C00I(H00I), C00J(H00J), C00K(H00K), C00L(H00L),
 C00M(H00M), C00N(H00N), C00O(H00O), C00P(H00P)
2.d X=CH2 refined with riding coordinates:
 N005(H00A,H00B)
;
_olex2_submission_special_instructions 'No special instructions were received'
loop_
_space_group_symop_operation_xyz
'x, y, z'
'-x, -y, -z'
loop_
_atom_site_label
_atom_site_type_symbol
_atom_site_fract_x
_atom_site_fract_y
_atom_site_fract_z
_atom_site_U_iso_or_equiv
_atom_site_adp_type
_atom_site_occupancy
_atom_site_site_symmetry_order
_atom_site_calc_flag
_atom_site_refinement_flags_posn
O001 O 0.47903(18) 0.01877(17) 0.88899(8) 0.0520(4) Uani 1 1 d .
O002 O 0.28929(19) 0.55517(17) 0.77883(10) 0.0568(4) Uani 1 1 d .
O003 O 0.12860(17) 0.2866(2) 0.69918(9) 0.0566(4) Uani 1 1 d .
N004 N 1.05966(19) 0.37851(19) 0.90964(9) 0.0395(3) Uani 1 1 d .
N005 N 0.6535(2) 0.24174(19) 1.00414(9) 0.0429(4) Uani 1 1 d .
H00A H 0.6018 0.1923 1.0431 0.052 Uiso 1 1 calc R
H00B H 0.7400 0.3430 1.0210 0.052 Uiso 1 1 calc R
N006 N 0.27422(19) 0.38971(19) 0.74423(9) 0.0359(3) Uani 1 1 d .
C007 C 0.9005(2) 0.3314(2) 0.88423(9) 0.0288(3) Uani 1 1 d .
C008 C 0.6957(2) 0.26377(19) 0.85194(9) 0.0268(3) Uani 1 1 d .
C009 C 0.4722(2) 0.1556(2) 0.71583(9) 0.0278(3) Uani 1 1 d .
C00A C 0.7247(2) 0.5864(2) 0.81679(10) 0.0306(3) Uani 1 1 d .
C00B C 0.4386(2) 0.3138(2) 0.76197(10) 0.0280(3) Uani 1 1 d .
C00C C 0.5924(2) 0.42429(19) 0.83786(9) 0.0277(3) Uani 1 1 d .
H00C H 0.5363 0.4683 0.8907 0.033 Uiso 1 1 calc R
C00D C 0.3692(2) 0.0194(2) 0.63375(10) 0.0318(4) Uani 1 1 d .
C00E C 0.6003(2) 0.1621(2) 0.91842(10) 0.0304(3) Uani 1 1 d .
C00F C 0.6578(2) 0.1295(2) 0.75885(10) 0.0309(4) Uani 1 1 d .
H00D H 0.7587 0.1612 0.7250 0.037 Uiso 1 1 calc R
H00E H 0.6474 0.0019 0.7635 0.037 Uiso 1 1 calc R
C00G C 0.3034(2) 0.0745(3) 0.55835(10) 0.0418(4) Uani 1 1 d .
H00G H 0.3214 0.2004 0.5594 0.050 Uiso 1 1 calc R
C00H C 0.7580(2) 0.5868(2) 0.73062(12) 0.0405(4) Uani 1 1 d .
H00H H 0.6894 0.4913 0.6832 0.049 Uiso 1 1 calc R
C00I C 0.8254(3) 0.7334(2) 0.88572(12) 0.0434(4) Uani 1 1 d .
H00I H 0.8019 0.7382 0.9437 0.052 Uiso 1 1 calc R
C00J C 0.2114(3) -0.0572(3) 0.48226(11) 0.0550(5) Uani 1 1 d .
H00J H 0.1677 -0.0193 0.4322 0.066 Uiso 1 1 calc R
C00K C 0.9606(3) 0.8731(2) 0.86913(15) 0.0536(5) Uani 1 1 d .
H00K H 1.0286 0.9699 0.9161 0.064 Uiso 1 1 calc R
C00L C 0.3442(3) -0.1686(2) 0.62988(12) 0.0464(4) Uani 1 1 d .
H00L H 0.3905 -0.2077 0.6791 0.056 Uiso 1 1 calc R
C00M C 0.9950(3) 0.8700(3) 0.78386(16) 0.0542(5) Uani 1 1 d .
H00M H 1.0873 0.9633 0.7731 0.065 Uiso 1 1 calc R
C00N C 0.1839(3) -0.2426(3) 0.47952(13) 0.0596(6) Uani 1 1 d .
H00N H 0.1204 -0.3304 0.4281 0.072 Uiso 1 1 calc R
C00O C 0.8926(3) 0.7285(3) 0.71473(15) 0.0530(5) Uani 1 1 d .
H00O H 0.9137 0.7275 0.6567 0.064 Uiso 1 1 calc R
C00P C 0.2502(3) -0.2990(3) 0.55299(15) 0.0617(6) Uani 1 1 d .
H00P H 0.2321 -0.4253 0.5511 0.074 Uiso 1 1 calc R
loop_
_atom_site_aniso_label
_atom_site_aniso_U_11
_atom_site_aniso_U_22
_atom_site_aniso_U_33
_atom_site_aniso_U_23
_atom_site_aniso_U_13
_atom_site_aniso_U_12
O001 0.0558(8) 0.0429(7) 0.0421(7) 0.0158(6) -0.0075(6) -0.0224(6)
O002 0.0514(8) 0.0394(8) 0.0864(10) 0.0199(7) 0.0112(7) 0.0207(6)
O003 0.0339(7) 0.0742(10) 0.0522(8) -0.0031(7) -0.0086(6) 0.0181(7)
N004 0.0319(8) 0.0410(8) 0.0399(8) 0.0088(6) -0.0004(6) -0.0005(6)
N005 0.0500(9) 0.0396(8) 0.0289(7) 0.0091(6) 0.0034(6) -0.0137(6)
N006 0.0325(8) 0.0424(8) 0.0369(7) 0.0145(6) 0.0064(6) 0.0124(6)
C007 0.0336(9) 0.0259(8) 0.0250(7) 0.0072(6) 0.0016(6) 0.0024(6)
C008 0.0259(7) 0.0252(7) 0.0266(7) 0.0062(6) -0.0005(6) 0.0016(6)
C009 0.0264(8) 0.0311(8) 0.0249(7) 0.0094(6) 0.0022(6) 0.0022(6)
C00A 0.0307(8) 0.0249(8) 0.0371(8) 0.0097(6) 0.0026(6) 0.0073(6)
C00B 0.0251(8) 0.0304(8) 0.0297(8) 0.0106(6) 0.0033(6) 0.0059(6)
C00C 0.0300(8) 0.0271(8) 0.0259(7) 0.0060(6) 0.0042(6) 0.0065(6)
C00D 0.0254(8) 0.0382(9) 0.0276(8) 0.0029(6) 0.0024(6) 0.0035(6)
C00E 0.0281(8) 0.0288(8) 0.0324(8) 0.0112(6) -0.0008(6) 0.0010(6)
C00F 0.0306(8) 0.0312(8) 0.0280(8) 0.0033(6) -0.0005(6) 0.0074(6)
C00G 0.0411(10) 0.0533(11) 0.0309(9) 0.0077(8) 0.0017(7) 0.0157(8)
C00H 0.0445(10) 0.0347(9) 0.0436(10) 0.0099(7) 0.0144(8) 0.0071(7)
C00I 0.0522(11) 0.0298(9) 0.0432(10) 0.0101(7) -0.0066(8) 0.0037(7)
C00J 0.0458(11) 0.0877(16) 0.0271(9) -0.0004(9) -0.0025(8) 0.0251(10)
C00K 0.0483(11) 0.0291(9) 0.0747(14) 0.0151(9) -0.0132(10) -0.0022(8)
C00L 0.0503(11) 0.0398(10) 0.0405(10) 0.0046(8) -0.0008(8) -0.0002(8)
C00M 0.0360(10) 0.0358(10) 0.0970(16) 0.0299(11) 0.0140(10) 0.0052(8)
C00N 0.0417(11) 0.0737(15) 0.0433(11) -0.0192(10) -0.0031(8) 0.0077(10)
C00O 0.0548(12) 0.0481(11) 0.0686(13) 0.0271(10) 0.0307(10) 0.0150(9)
C00P 0.0606(13) 0.0430(11) 0.0636(14) -0.0078(10) 0.0015(10) -0.0033(9)
loop_
_atom_type_symbol
_atom_type_description
_atom_type_scat_dispersion_real
_atom_type_scat_dispersion_imag
_atom_type_scat_source
C C 0.0033 0.0016 'International Tables Vol C Tables 4.2.6.8 and 6.1.1.4'
H H 0.0000 0.0000 'International Tables Vol C Tables 4.2.6.8 and 6.1.1.4'
N N 0.0061 0.0033 'International Tables Vol C Tables 4.2.6.8 and 6.1.1.4'
O O 0.0106 0.0060 'International Tables Vol C Tables 4.2.6.8 and 6.1.1.4'
loop_
_geom_angle_atom_site_label_1
_geom_angle_atom_site_label_2
_geom_angle_atom_site_label_3
_geom_angle
O002 N006 C00B 116.60(13)
O003 N006 O002 124.13(14)
O003 N006 C00B 119.22(13)
N004 C007 C008 177.87(16)
C007 C008 C00C 113.12(11)
C007 C008 C00E 109.73(11)
C007 C008 C00F 111.13(12)
C00E C008 C00C 109.43(11)
C00F C008 C00C 103.87(11)
C00F C008 C00E 109.38(11)
C00B C009 C00D 132.31(14)
C00B C009 C00F 108.42(12)
C00D C009 C00F 119.19(13)
C00H C00A C00C 121.96(14)
C00I C00A C00C 119.60(14)
C00I C00A C00H 118.30(15)
N006 C00B C00C 117.99(13)
C009 C00B N006 126.54(13)
C009 C00B C00C 115.44(13)
C00A C00C C008 112.56(12)
C00B C00C C008 98.98(11)
C00B C00C C00A 114.58(12)
C00G C00D C009 121.86(15)
C00L C00D C009 119.30(14)
C00L C00D C00G 118.78(15)
O001 C00E N005 124.12(14)
O001 C00E C008 118.96(13)
N005 C00E C008 116.89(12)
C009 C00F C008 104.14(12)
C00J C00G C00D 120.12(18)
C00O C00H C00A 120.49(17)
C00K C00I C00A 120.65(18)
C00N C00J C00G 120.75(19)
C00M C00K C00I 120.47(18)
C00D C00L C00P 120.30(18)
C00O C00M C00K 119.56(17)
C00J C00N C00P 119.77(17)
C00M C00O C00H 120.48(19)
C00N C00P C00L 120.3(2)
loop_
_geom_bond_atom_site_label_1
_geom_bond_atom_site_label_2
_geom_bond_distance
O001 C00E 1.2189(18)
O002 N006 1.2280(18)
O003 N006 1.2251(18)
N004 C007 1.140(2)
N005 C00E 1.319(2)
N006 C00B 1.4471(19)
C007 C008 1.469(2)
C008 C00C 1.585(2)
C008 C00E 1.557(2)
C008 C00F 1.5407(19)
C009 C00B 1.336(2)
C009 C00D 1.475(2)
C009 C00F 1.507(2)
C00A C00C 1.520(2)
C00A C00H 1.387(2)
C00A C00I 1.386(2)
C00B C00C 1.505(2)
C00D C00G 1.393(2)
C00D C00L 1.382(2)
C00G C00J 1.378(2)
C00H C00O 1.385(2)
C00I C00K 1.382(3)
C00J C00N 1.366(3)
C00K C00M 1.371(3)
C00L C00P 1.386(3)
C00M C00O 1.369(3)
C00N C00P 1.374(3)
loop_
_refln_index_h
_refln_index_k
_refln_index_l
_refln_F_squared_meas
_refln_F_squared_sigma
-2 0 0 2904.21 42.4
-2 0 0 2925.11 43.1
-2 0 0 2947.31 47.4
2 0 0 2951.7 42.4
2 0 0 2967 43.2
2 0 0 2950.5 47.5
-3 0 0 1399.56 28.2
-3 0 0 1393.26 22.2
3 0 0 1393.16 28.1
3 0 0 1229.08 23.6
3 0 0 1423.36 21
-4 0 0 18.3 6.8
-4 0 0 22.2 2.9
4 0 0 16.1 1.9
4 0 0 24 7.2
4 0 0 12.2 2.9
-5 0 0 394.66 10.7
-5 0 0 398.86 18.5
5 0 0 395.56 8.1
5 0 0 385.66 18.6
-6 0 0 2.4 9
-6 0 0 3.5 3.5
6 0 0 -0.3 5.6
6 0 0 5.2 10.8
-7 0 0 38.8 12.4
-7 0 0 29.8 5
7 0 0 38.9 7.5
-8 0 0 -5.4 5.8
-8 0 0 -6.7 13.3
8 0 0 -4.2 7.9
8 0 0 -8 8.3
-9 0 0 1.7 16.8
9 0 0 -0.3 10.4
-10 0 0 16.2 24.5
10 0 0 9 13.4
10 -1 0 18.4 12.2
-10 1 0 28.5 22.1
9 -1 0 233.68 26.8
-9 1 0 186.38 16.4
-9 1 0 237.28 28.9
8 -1 0 50.49 10.5
8 -1 0 54.09 9.9
-8 1 0 73.69 18.7
-8 1 0 37 10.6
7 -1 0 224.48 7.8
7 -1 0 196.58 17.7
7 -1 0 228.58 14.9
-7 1 0 210.18 11
-7 1 0 214.68 19.9
6 -1 0 155.08 6.8
6 -1 0 165.48 12.8
-6 1 0 151.48 16.2
-6 1 0 169.88 8.9
5 -1 0 2046.4 36.2
5 -1 0 1945.51 31.5
5 -1 0 1836.22 42.8
-5 1 0 1946.31 31.4
-5 1 0 1950.7 41.4
-5 1 0 1961.3 32.6
4 -1 0 426.66 12.6
4 -1 0 420.26 15.6
4 -1 0 425.36 9.6
-4 1 0 392.46 15
-4 1 0 439.16 9.9
-4 1 0 432.46 10.6
3 -1 0 795.52 16
3 -1 0 771.72 20.9
3 -1 0 794.52 14
-3 1 0 722.43 15
-3 1 0 790.72 14.4
-3 1 0 754.32 18.5
1 -1 0 3626.24 52.69
-1 -1 0 58.39 3.3
-1 -1 0 54.69 5.3
1 1 0 50.79 5.2
1 1 0 63.39 3.4
-2 -1 0 363.86 11.7
-2 -1 0 360.16 7.7
2 1 0 356.46 11.7
2 1 0 372.36 8
-3 -1 0 367.56 8.4
-3 -1 0 353.26 13.5
3 1 0 350.66 13.8
3 1 0 359.16 6.7
3 1 0 370.26 8.8
-4 -1 0 5.9 2.3
-4 -1 0 -2.4 5.8
4 1 0 5 2.8
4 1 0 1.6 7.4
-5 -1 0 105.79 13.9
-5 -1 0 103.89 6.7
5 1 0 89.59 14.2
5 1 0 114.09 7.5
-6 -1 0 1897.11 32.7
-6 -1 0 1883.71 45.6
6 1 0 1918.81 32.9
-7 -1 0 318.27 12.4
-7 -1 0 317.97 23.3
7 1 0 299.37 17
-8 -1 0 9.8 6.7
-8 -1 0 -0.3 14.8
8 1 0 -3.9 8.9
8 1 0 5.9 9.5
-9 -1 0 21.6 19.7
9 1 0 -10.3 11.4
-10 -1 0 31.4 25.9
10 1 0 15.6 15.5
10 -2 0 -4 12.3
-10 2 0 25.2 20.4
9 -2 0 80.69 13
-9 2 0 125.39 21.2
-9 2 0 92.19 10.3
-8 2 0 13.5 13.6
-8 2 0 3.3 6.6
7 -2 0 2.9 3.5
7 -2 0 -7.6 5.9
7 -2 0 -0.1 6
-7 2 0 3.8 5.1
-7 2 0 8 3.9
-7 2 0 7.6 11.3
6 -2 0 203.78 13.5
6 -2 0 197.78 14.8
6 -2 0 197.18 8.7
-6 2 0 209.98 16.7
-6 2 0 206.48 10.5
-6 2 0 204.78 9.6
5 -2 0 23.6 5
5 -2 0 28.6 3.7
-5 2 0 26.7 4.4
-5 2 0 28.3 4
-5 2 0 30.7 8.6
4 -2 0 1738.33 29.2
4 -2 0 1738.63 31.1
-4 2 0 1702.53 34.3
-4 2 0 1701.03 29.2
-4 2 0 1725.03 29.5
3 -2 0 1020.2 19.1
3 -2 0 1023.3 19.8
-3 2 0 1022.7 21.7
-3 2 0 1027.5 18.9
2 -2 0 65.29 5.7
2 -2 0 63.09 4.6
2 -2 0 65.39 5
-2 2 0 78.79 6.9
-2 2 0 60.59 5.5
-2 2 0 67.19 5
0 -2 0 2161.08 40.9
0 -2 0 2256.27 34.2
0 -2 0 2195.28 32.8
0 2 0 2241.38 32.9
0 2 0 2139.49 40.8
0 2 0 2200.28 34.1
0 2 0 2260.07 34.3
-1 -2 0 1.5 3.4
-1 -2 0 3.9 5.8
1 2 0 1.9 1.9
1 2 0 1.9 5.2
1 2 0 1.4 3.6
-2 -2 0 33.6 5.9
2 2 0 26.9 5.7
2 2 0 23.7 2.7
2 2 0 21.6 2.8
2 2 0 27.5 7.3
-3 -2 0 26.4 6.3
-3 -2 0 23.9 3.6
3 2 0 35.2 7.9
3 2 0 24.7 2.5
3 2 0 23.3 3
-4 -2 0 1078.19 20.2
-4 -2 0 1042.8 28.1
4 2 0 1070.69 29.2
4 2 0 1074.49 20.2
4 2 0 1064.39 17.2
-5 -2 0 15.1 9.8
-5 -2 0 18.4 3.9
5 2 0 19.9 3.9
5 2 0 12.4 10.2
-6 -2 0 3.5 10.2
-6 -2 0 0.3 4.1
6 2 0 9.5 11.3
6 2 0 2.2 3.9
-7 -2 0 56.99 17.6
7 2 0 42.9 15.5
7 2 0 51.59 6.1
7 2 0 58.69 8
-8 -2 0 71.89 21.1
8 2 0 35.9 10.3
-9 -2 0 48.6 22
9 2 0 35.6 13.1
10 -3 0 53.19 14
-10 3 0 91.39 22.4
9 -3 0 4.6 9.9
-9 3 0 23.1 18.1
-9 3 0 10.6 9.8
8 -3 0 13.6 8.1
-8 3 0 16 7.5
-8 3 0 18.7 5.5
-8 3 0 20.8 12.6
7 -3 0 38.7 7.8
7 -3 0 49.3 7
-7 3 0 40.7 6.6
-7 3 0 50.59 6.6
-7 3 0 54.59 12.7
6 -3 0 183.38 10.1
6 -3 0 177.38 14.3
-6 3 0 173.68 10.8
-6 3 0 182.38 16.2
5 -3 0 30.7 5.7
5 -3 0 28.6 4.3
5 -3 0 21.6 4.8
-5 3 0 29.4 4.7
-5 3 0 17.5 7.9
4 -3 0 729.23 17.9
4 -3 0 719.33 17.6
4 -3 0 720.73 16.4
-4 3 0 702.53 19.3
-4 3 0 706.73 16.6
3 -3 0 5242.68 80.59
3 -3 0 5474.25 80.19
3 -3 0 5385.46 80.69
-3 3 0 5232.88 81.59
-3 3 0 5303.47 80.79
2 -3 0 1145.89 21.3
2 -3 0 1113.29 21
2 -3 0 1091.89 30
2 -3 0 1129.19 18.5
-2 3 0 1107.59 20.3
-2 3 0 1071.79 21
1 -3 0 2444.86 37.3
1 -3 0 2445.86 39
1 -3 0 2358.26 48.1
-1 3 0 2443.66 37.4
-1 3 0 2358.16 38.9
0 -3 0 925.51 19.5
0 -3 0 907.61 25.8
0 -3 0 937.31 15.9
0 3 0 935.61 17.9
0 3 0 938.81 26.2
0 3 0 953.7 17.8
-1 -3 0 43.7 9.6
1 3 0 57.39 5.4
1 3 0 45.1 4.8
1 3 0 59.59 4.1
1 3 0 40 6.2
1 3 0 45.9 9.7
-2 -3 0 399.56 13.9
2 3 0 407.46 10.9
2 3 0 408.76 14.3
2 3 0 407.36 18.8
2 3 0 416.46 10
-3 -3 0 69.69 10.1
3 3 0 74.99 6.2
3 3 0 63.69 12.6
3 3 0 71.19 5.1
3 3 0 62.59 10.8
-4 -3 0 646.64 22.9
4 3 0 635.64 23.3
4 3 0 646.94 12.8
4 3 0 634.44 27.7
4 3 0 656.03 15.6
-5 -3 0 738.73 27.1
5 3 0 722.23 32.7
5 3 0 748.73 17.5
5 3 0 739.43 27.8
-6 -3 0 163.68 20
6 3 0 155.38 21.8
6 3 0 137.69 9.6
-7 -3 0 69.69 17.8
7 3 0 70.89 29.9
7 3 0 47.2 6
7 3 0 53.09 10
-8 -3 0 -10.3 17.2
8 3 0 10.6 11.3
8 3 0 22.6 10.5
-9 -3 0 2 25.1
9 3 0 7 14.8
10 -4 0 39.9 14.5
-10 4 0 69.59 23.9
9 -4 0 9.8 10.7
-9 4 0 5.4 17.3
-9 4 0 2.4 8.1
8 -4 0 36.3 7.4
8 -4 0 46.3 9.1
-8 4 0 54.09 9.3
-8 4 0 65.39 15.9
-8 4 0 40.8 7.4
7 -4 0 1 5.8
7 -4 0 6.9 5.2
-7 4 0 1 9.7
-7 4 0 0.6 5.5
-7 4 0 -2.1 5.7
6 -4 0 32.3 5.8
6 -4 0 30.5 6.7
6 -4 0 30.2 5.9
-6 4 0 30.4 5.8
-6 4 0 41.4 10
-6 4 0 31.1 6.1
5 -4 0 429.86 14.6
5 -4 0 418.56 15.2
5 -4 0 445.46 16.4
-5 4 0 418.46 19.2
-5 4 0 427.96 15.2
4 -4 0 794.02 18
4 -4 0 785.22 20.4
4 -4 0 781.82 22.4
-4 4 0 787.62 20.5
-4 4 0 812.92 19.7
3 -4 0 7.7 3.7
3 -4 0 5.7 2.3
3 -4 0 10.3 10.6
3 -4 0 9.6 4.1
-3 4 0 3.2 3.7
-3 4 0 17 5.2
-3 4 0 8.4 3.7
2 -4 0 2905.31 46.4
2 -4 0 2905.31 61.39
2 -4 0 3009.9 48.4
-2 4 0 2869.61 48.7
-2 4 0 2944.21 46.5
1 -4 0 11.4 9.2
1 -4 0 9.2 3.2
1 -4 0 12.5 3.4
-1 4 0 20.4 11.4
-1 4 0 16.8 3.2
-1 4 0 17 3.6
0 -4 0 1.4 2.1
0 -4 0 2.8 2.9
0 -4 0 0.5 8.5
0 4 0 6.3 2.6
0 4 0 4.1 8.9
0 4 0 -0.1 2.7
0 4 0 4.7 3.7
-1 -4 0 997.9 31.4
1 4 0 972 20.5
1 4 0 994.9 17.8
1 4 0 1024.3 22.2
1 4 0 983.5 20.1
1 4 0 1006.4 31.7
2 4 0 157.48 11.4
2 4 0 171.38 6.8
2 4 0 174.98 8.8
2 4 0 172.08 8
-3 -4 0 2483.75 48.8
3 4 0 2473.35 40.1
3 4 0 2497.65 42
3 4 0 2349.86 53.19
3 4 0 2442.46 39.8
3 4 0 2475.65 58.49
-4 -4 0 75.09 12.5
4 4 0 81.79 13
4 4 0 61.39 6.5
4 4 0 64.09 8.3
4 4 0 79.79 17
-5 -4 0 101.79 15.6
5 4 0 103.19 18.2
5 4 0 74.59 9.1
5 4 0 101.49 20.6
5 4 0 71.09 6
6 4 0 119.59 25.5
6 4 0 100.79 10.6
6 4 0 121.69 19.8
6 4 0 73.29 10.1
-7 -4 0 32.5 18.1
7 4 0 27.4 10
7 4 0 23.8 6.2
-8 -4 0 -6.8 19.7
8 4 0 16 11.3
8 4 0 17 6.9
-10 5 0 59.19 33.6
9 -5 0 69.19 13.1
-9 5 0 127.39 21.6
-9 5 0 74.79 11
8 -5 0 25.6 8.1
8 -5 0 7.8 8
-8 5 0 2.8 7.1
-8 5 0 20.3 13.8
7 -5 0 339.17 17
7 -5 0 330.07 18.5
7 -5 0 286.77 20
-7 5 0 343.07 17.3
-7 5 0 304.47 20.1
-7 5 0 310.17 17.6
6 -5 0 43 6.2
6 -5 0 61.89 7.3
-6 5 0 61.99 10.4
-6 5 0 54.99 7.5
5 -5 0 223.48 14.6
5 -5 0 237.98 26.8
5 -5 0 223.88 11.4
5 -5 0 234.88 13.3
-5 5 0 253.67 14.2
-5 5 0 218.48 13.9
4 -5 0 109.79 21.4
4 -5 0 86.89 11
4 -5 0 97.29 10.6
4 -5 0 90.29 7.3
-4 5 0 108.39 11.5
-4 5 0 82.49 10.3
3 -5 0 412.46 14.4
3 -5 0 420.16 13.9
-3 5 0 416.06 13.6
-3 5 0 399.96 14.4
2 -5 0 -1.4 3.6
2 -5 0 -15.3 10.5
2 -5 0 5.8 3.6
-2 5 0 2.4 4
-2 5 0 -0.5 3.6
1 -5 0 800.22 16.3
1 -5 0 724.93 21.5
1 -5 0 770.32 30.6
-1 5 0 788.72 16.7
-1 5 0 794.32 19.3
-1 5 0 783.02 17.1
-1 5 0 792.92 31.5
0 -5 0 64.19 13.8
0 -5 0 53.99 6
0 5 0 63.79 6.4
0 5 0 55.69 4.7
0 5 0 62.69 8.1
0 5 0 56.79 5.1
0 5 0 58.69 14
-1 -5 0 604.14 28
1 5 0 595.24 13.3
1 5 0 624.24 24.5
1 5 0 606.74 28.7
1 5 0 597.94 16.5
1 5 0 607.44 16.3
2 5 0 72.19 10.9
2 5 0 83.19 17.9
2 5 0 46.3 5.7
2 5 0 69.19 6.5
2 5 0 64.69 8.3
3 5 0 2.4 3.6
3 5 0 -2.8 13.6
3 5 0 1 3.1
3 5 0 -4.6 3.9
3 5 0 0.6 8.4
4 5 0 41.7 5
4 5 0 58.19 7.7
4 5 0 90.59 20.4
4 5 0 58.69 6.6
4 5 0 80.39 13.6
5 5 0 130.39 21.3
5 5 0 117.79 11.2
5 5 0 92.89 9.6
5 5 0 126.79 15.6
5 5 0 101.59 8
6 5 0 8.6 8.2
6 5 0 1.4 6.1
7 5 0 22.8 7.8
7 5 0 5.3 10.4
8 5 0 43.7 13.9
10 -6 0 63.39 19
-10 6 0 52.29 15.9
-9 6 0 42.3 18.1
-9 6 0 33.2 12.7
8 -6 0 63.59 13.3
-8 6 0 106.09 20.4
-8 6 0 45.4 13.6
7 -6 0 194.88 36.4
7 -6 0 131.39 15.2
7 -6 0 158.08 17.5
-7 6 0 169.78 17.2
-7 6 0 138.59 16.6
6 -6 0 -10.8 19.3
6 -6 0 5.7 6.8
6 -6 0 -0.4 4.7
6 -6 0 -14.3 8.1
-6 6 0 7.8 8
-6 6 0 -1.5 6.7
5 -6 0 78.29 8.9
5 -6 0 64.19 8.3
5 -6 0 55.89 8.4
5 -6 0 75.69 23
-5 6 0 56.99 7.9
-5 6 0 74.59 11.1
4 -6 0 65.09 7.1
4 -6 0 70.79 18.9
4 -6 0 95.39 12.3
-4 6 0 56.39 7.6
-4 6 0 76.59 9.8
3 -6 0 458.95 17.1
3 -6 0 487.15 15.8
3 -6 0 439.56 30.4
-3 6 0 490.15 17.8
-3 6 0 453.35 15.3
2 -6 0 142.99 11.6
2 -6 0 144.49 21.9
2 -6 0 143.79 9.9
-2 6 0 159.28 11.9
-2 6 0 149.59 10.3
1 -6 0 5.2 3.6
1 -6 0 5.9 12.9
-1 6 0 4.6 4.5
-1 6 0 13.8 14.5
-1 6 0 3.5 4.2
-1 6 0 9 4.9
0 -6 0 83.69 18.7
0 6 0 83.79 9.3
0 6 0 83.69 7.8
0 6 0 87.79 10.2
0 6 0 89.29 21.8
-1 -6 0 542.95 30.1
1 6 0 502.15 17.2
1 6 0 526.05 13.3
1 6 0 514.05 18
1 6 0 532.65 13.6
1 6 0 557.04 17.2
1 6 0 528.45 31.6
2 6 0 2006.1 37.4
2 6 0 2015.8 34.2
2 6 0 2026.9 39.5
2 6 0 2025.6 42.6
2 6 0 2078.19 38.4
2 6 0 2049.2 59.49
3 6 0 12.8 18.5
3 6 0 6.4 5.1
3 6 0 3.4 3.8
3 6 0 7.9 4.6
3 6 0 16.8 10.3
3 6 0 4.1 4.5
4 6 0 180.08 20.1
4 6 0 183.48 10.1
4 6 0 217.48 31.9
4 6 0 158.98 10.8
4 6 0 202.28 13.7
4 6 0 185.48 15
5 6 0 4.6 4.9
5 6 0 -3.6 5.7
5 6 0 -9.7 6.2
5 6 0 1.9 8.9
6 6 0 -6.8 6.2
6 6 0 6.3 10.3
6 6 0 -0.3 9.3
7 6 0 0.4 11
7 6 0 -10.3 9.4
9 -7 0 -1 48.9
9 -7 0 -9.7 15.7
-9 7 0 -6.1 13.3
-9 7 0 19 18
8 -7 0 -3.4 9.4
8 -7 0 -10 30.4
-8 7 0 -3.2 10.9
-8 7 0 15.4 13.4
7 -7 0 232.08 43.5
7 -7 0 208.08 16.8
-7 7 0 220.98 22.2
-7 7 0 245.68 18.6
6 -7 0 -8.2 4.4
6 -7 0 7.8 23.5
-6 7 0 -2.9 8
-6 7 0 7.7 8.2
5 -7 0 88.29 30.3
5 -7 0 65.29 10
-5 7 0 63.99 9.5
-5 7 0 82.79 10.8
4 -7 0 71.69 8.3
4 -7 0 71.89 9.5
4 -7 0 87.59 24.3
-4 7 0 76.79 9.1
-4 7 0 80.39 9.6
3 -7 0 115.59 25.9
3 -7 0 120.49 11.8
-3 7 0 111.39 11.2
-3 7 0 107.19 13.8
2 -7 0 180.68 13.8
2 -7 0 196.68 25.4
-2 7 0 213.98 9.1
-2 7 0 198.08 11.3
-2 7 0 190.08 14
1 -7 0 491.85 32.5
1 -7 0 514.05 14.6
-1 7 0 483.25 14.5
-1 7 0 499.25 18.7
-1 7 0 443.06 33.9
0 -7 0 1404.76 50.19
0 7 0 1349.07 25.7
0 7 0 1361.36 31.4
0 7 0 1345.07 50.19
0 7 0 1337.07 28.8
-1 -7 0 5.7 16.5
1 7 0 4.4 5.8
1 7 0 -0.1 5.4
1 7 0 2.1 3.9
1 7 0 2.1 8.5
1 7 0 9.1 19.7
1 7 0 -0.7 2.7
1 7 0 6.3 3.7
2 7 0 215.58 17.1
2 7 0 193.28 9.8
2 7 0 204.98 11.6
2 7 0 214.48 13.5
2 7 0 246.48 31.6
2 7 0 229.28 15.2
3 7 0 -6.6 5.9
3 7 0 -0.9 4.4
3 7 0 -0.1 4.6
3 7 0 34.8 13.6
3 7 0 -3.9 5.4
4 7 0 104.89 10.3
4 7 0 119.19 16.9
4 7 0 152.28 24.6
4 7 0 149.49 15.9
4 7 0 119.99 13.1
5 7 0 33.5 7.1
5 7 0 25 6.4
6 7 0 3.6 11.4
6 7 0 8.4 10.6
8 -8 0 5.3 37.1
-8 8 0 -4.1 12.8
7 -8 0 120.99 36.8
-7 8 0 118.19 16.3
6 -8 0 31.8 28.6
-6 8 0 2 9.9
-6 8 0 32.4 8.9
5 -8 0 22.3 26
5 -8 0 12.8 9.2
-5 8 0 30.1 10.2
-5 8 0 30.9 6.8
4 -8 0 3.4 20.9
4 -8 0 -4.3 7.5
-4 8 0 2.5 8.1
3 -8 0 16.5 7.4
3 -8 0 15.2 20.6
-3 8 0 8.4 7.9
2 -8 0 241.08 14.3
2 -8 0 267.27 42.5
-2 8 0 272.97 13.4
1 -8 0 287.97 42.7
-1 8 0 294.57 19.1
-1 8 0 317.97 13
0 -8 0 60.99 23.4
0 8 0 40.7 9.2
0 8 0 37.8 11
0 8 0 22.3 8
0 8 0 30.7 6.2
-1 -8 0 7.1 21.3
1 8 0 9.2 11.5
1 8 0 -4.6 4.3
1 8 0 -2.1 6.9
1 8 0 -4.8 6.9
2 8 0 14.1 4.7
2 8 0 14 7.5
2 8 0 12.6 6.3
2 8 0 7.7 4.8
2 8 0 5.4 7.8
2 8 0 28.8 15
3 8 0 26.3 8.3
3 8 0 26.8 9
3 8 0 45.9 19.5
3 8 0 26.1 6.4
3 8 0 26.7 6.7
4 8 0 13.1 9.3
4 8 0 -7.6 8.2
4 8 0 -2.3 7.8
5 8 0 14.6 11.6
5 8 0 16.1 10.6
7 -9 0 8.7 36.1
-7 9 0 -16.1 12.8
6 -9 0 82.89 36.3
-6 9 0 17.5 12.7
5 -9 0 27.2 30
-5 9 0 12.2 11.4
4 -9 0 30.2 25.2
4 -9 0 1.4 10.8
-4 9 0 20.3 10.7
3 -9 0 177.48 38.1
3 -9 0 137.79 12.8
-3 9 0 110.49 12.7
2 -9 0 95.79 10.9
-2 9 0 122.49 12.7
-2 9 0 105.09 12.8
1 -9 0 51.09 27.5
-1 9 0 10.5 9.6
-1 9 0 20.5 10
-1 9 0 15.4 6
0 -9 0 57.49 26
0 9 0 35.4 12.4
0 9 0 11 10.2
0 9 0 23.3 9.8
0 9 0 19.7 5.7
1 9 0 24.9 10
1 9 0 26.6 11.1
1 9 0 34.3 6
2 9 0 6 10.5
2 9 0 3.7 9.9
3 9 0 24.8 11.2
3 9 0 15.5 14.4
4 9 0 -4.7 22.2
6 -10 0 41.1 44.4
-6 10 0 -8.3 14.6
5 -10 0 33.8 34.7
-5 10 0 22.2 15.3
4 -10 0 43.2 34
-4 10 0 8.6 13.6
3 -10 0 46.3 33
-3 10 0 11.6 12.7
2 -10 0 89.59 34.9
-2 10 0 49 13.7
-2 10 0 33.1 12.6
1 -10 0 -10.8 29.8
-1 10 0 1.1 11.9
-1 10 0 -16.8 11
0 -10 0 63.39 34.9
0 10 0 16.7 11.6
0 10 0 -0.3 11.4
1 10 0 2.6 12.2
1 10 0 -8.3 11.8
2 10 0 16.3 14.9
2 10 0 20.6 13.2
-2 11 -1 -17.7 17.4
-2 11 -1 -40.6 25.2
2 10 -1 -17.8 12.2
2 10 -1 -11.5 12.4
1 10 -1 33.4 12.6
1 10 -1 18.8 13.1
0 10 -1 -11 11.3
0 10 -1 16.9 7.4
0 10 -1 34.2 12
0 -10 1 16.4 34.8
-1 10 -1 22.8 12.8
-1 10 -1 35.6 7.9
-1 10 -1 6.1 11.6
1 -10 1 25.1 27.8
-2 10 -1 10.8 12
-2 10 -1 11.6 7.8
2 -10 1 15.3 29.5
-3 10 -1 5.6 11.9
3 -10 1 13.6 30.3
-4 10 -1 131.79 16.1
4 -10 1 213.68 48.1
-5 10 -1 5.2 13.9
5 -10 1 33.4 34.6
-6 10 -1 -17.5 15.3
6 -10 1 65.19 43.9
4 9 -1 15.9 12.3
4 9 -1 7.6 12.9
3 9 -1 -0.9 9.5
3 9 -1 5.1 12.3
2 9 -1 4.3 10.8
2 9 -1 19.5 9.6
2 9 -1 11 6
1 9 -1 40.1 6.8
1 9 -1 50.89 11.3
1 9 -1 50.69 10.4
-1 -9 1 69.49 30.1
0 9 -1 -2.4 5.6
0 9 -1 9.3 15.8
0 9 -1 4 8.4
0 9 -1 2.6 9.5
0 -9 1 -6.9 22
-1 9 -1 36.7 7
-1 9 -1 50.39 10.5
-1 9 -1 21.1 10
1 -9 1 54.09 26.1
-2 9 -1 198.38 20.7
-2 9 -1 192.48 14.8
2 -9 1 209.28 18.9
2 -9 1 212.08 36.9
-3 9 -1 12.2 9.9
-3 9 -1 14.2 7.1
3 -9 1 9.8 25.2
-4 9 -1 34.5 10.8
4 -9 1 24.5 11.6
4 -9 1 37.2 23.8
-5 9 -1 5.6 10.5
5 -9 1 25.1 30
-6 9 -1 25.5 12.5
6 -9 1 28.3 31.3
7 -9 1 110.39 41.7
-8 9 -1 1.3 16.1
5 8 -1 0.5 11.5
5 8 -1 24.5 10.4
4 8 -1 32.4 9.2
4 8 -1 20.4 9.4
4 8 -1 15.4 8
4 8 -1 10.6 6.8
3 8 -1 41.1 6.9
3 8 -1 31.9 8.4
3 8 -1 34 6.2
3 8 -1 38.2 8.9
2 8 -1 174.98 19.4
2 8 -1 225.98 21.9
2 8 -1 186.48 12.7
2 8 -1 174.18 10.7
2 8 -1 166.78 15.8
1 8 -1 226.18 17.3
1 8 -1 205.28 17.1
1 8 -1 189.88 11.3
-1 -8 1 207.68 30.9
0 8 -1 79.69 13
0 8 -1 54.79 30.3
0 8 -1 54.39 6.3
0 8 -1 57.49 8.7
-1 8 -1 121.79 11.1
-1 8 -1 131.69 15.7
-1 8 -1 118.09 11.5
1 -8 1 176.38 39.7
1 -8 1 100.89 8.8
-2 8 -1 5.8 5.6
-2 8 -1 7.7 6.6
-2 8 -1 -2.8 8.6
2 -8 1 -1.3 6
2 -8 1 21.8 34.4
-3 8 -1 8.1 7.9
-3 8 -1 -1.2 5.5
3 -8 1 3.6 18.3
3 -8 1 2.2 7.2
-4 8 -1 33.3 8.3
-4 8 -1 26.4 8.9
4 -8 1 18.8 23.2
-5 8 -1 15.7 8.3
-5 8 -1 4.4 9
5 -8 1 19.1 27.3
5 -8 1 -5.4 10.2
-6 8 -1 26.5 9.3
-6 8 -1 5 9.7
6 -8 1 14 25.9
-7 8 -1 108.99 20.3
-7 8 -1 81.09 13.5
7 -8 1 108.59 35.3
-8 8 -1 6.1 13.4
-8 8 -1 34.6 15.6
8 -8 1 35 36.7
6 7 -1 166.58 25.8
5 7 -1 -13 7.4
5 7 -1 4.5 10.1
5 7 -1 -5 7.3
5 7 -1 -6.3 6.2
4 7 -1 14.1 6.3
4 7 -1 9.7 6.1
4 7 -1 9.1 6.2
4 7 -1 -2.3 6.7
3 7 -1 174.38 13.7
3 7 -1 220.18 21.1
3 7 -1 211.48 14.5
3 7 -1 170.28 13.1
3 7 -1 178.18 10.7
2 7 -1 8 6
2 7 -1 3.5 5.3
2 7 -1 2.6 4.4
2 7 -1 8.2 4
2 7 -1 25.7 19.7
2 7 -1 15.2 9.9
1 7 -1 3.7 5.5
1 7 -1 12.3 4.3
1 7 -1 13.1 3.2
1 7 -1 14.8 5.7
1 7 -1 18 16.7
-1 -7 1 16 15.7
0 7 -1 -1.8 16.3
0 7 -1 -5.3 5.3
0 7 -1 7.9 7
0 7 -1 8.9 4.4
0 -7 1 -0.8 15
-1 7 -1 267.57 15.3
-1 7 -1 270.47 12.3
-1 7 -1 260.57 12
1 -7 1 277.47 12.3
1 -7 1 273.77 27.1
-2 7 -1 515.95 19.4
-2 7 -1 515.35 16.2
-2 7 -1 507.85 15.7
2 -7 1 488.55 32.3
2 -7 1 518.95 16.2
-3 7 -1 54.59 11.2
-3 7 -1 45.4 6.6
3 -7 1 52.59 7
3 -7 1 57.59 19
-4 7 -1 -0.3 5.3
-4 7 -1 6.2 7.6
-4 7 -1 1.4 6.5
4 -7 1 -0.6 6.1
4 -7 1 -1.5 18.2
-5 7 -1 69.39 11.9
-5 7 -1 48.9 8.6
5 -7 1 77.99 29.3
-6 7 -1 28.1 15.4
-6 7 -1 27.5 9.9
6 -7 1 49.9 26.5
6 -7 1 13.5 4.9
-7 7 -1 66.69 11.6
7 -7 1 112.19 32.7
7 -7 1 60.49 8.2
-8 7 -1 164.58 23.7
-8 7 -1 177.18 33.2
8 -7 1 106.59 12.1
-9 7 -1 25.6 20.8
-9 7 -1 0.1 13.7
9 -7 1 -10.3 39.4
9 -7 1 1.4 15.7
7 6 -1 10 10.8
7 6 -1 0.8 10.8
6 6 -1 6.4 7.1
6 6 -1 -5.5 4.3
6 6 -1 17.1 10.1
6 6 -1 6.1 6.7
5 6 -1 87.69 12.6
5 6 -1 66.89 7.5
5 6 -1 65.39 7.1
5 6 -1 66.09 9.2
4 6 -1 36.7 20
4 6 -1 0.4 5
4 6 -1 21.4 12.1
4 6 -1 1.5 4.9
4 6 -1 -1 4.1
4 6 -1 -2.4 5.4
3 6 -1 465.15 31
3 6 -1 451.75 13.5
3 6 -1 480.15 22.1
3 6 -1 467.95 16.5
3 6 -1 463.45 17
3 6 -1 461.55 15.6
2 6 -1 210.88 24.6
2 6 -1 189.68 10.7
2 6 -1 194.28 12.3
2 6 -1 203.98 9.7
2 6 -1 209.08 11.8
2 6 -1 192.48 14.9
1 6 -1 420.36 16.7
1 6 -1 437.96 15.4
1 6 -1 425.96 28.9
1 6 -1 421.36 11.6
1 6 -1 412.86 12.4
-1 -6 1 416.86 26.7
0 6 -1 221.58 11.3
0 6 -1 232.98 12.4
0 6 -1 214.98 24.2
0 6 -1 239.68 10.2
0 -6 1 210.78 21.2
0 -6 1 238.28 9.8
-1 6 -1 9.8 4.9
-1 6 -1 24.6 15.2
-1 6 -1 13.5 4.6
-1 6 -1 16.5 5.4
1 -6 1 3 13.5
1 -6 1 12.8 4.1
-2 6 -1 15.4 5.1
-2 6 -1 16 5.3
2 -6 1 21 5
2 -6 1 9.9 13.4
-3 6 -1 149.09 11.4
-3 6 -1 171.88 12.6
3 -6 1 179.88 12.8
3 -6 1 160.48 25.1
3 -6 1 168.28 11.6
-4 6 -1 558.24 17.9
-4 6 -1 549.85 19.1
-4 6 -1 541.05 17.9
4 -6 1 577.44 18.3
4 -6 1 554.24 19.2
4 -6 1 538.75 34.5
-5 6 -1 40.9 7.4
-5 6 -1 72.49 10.6
5 -6 1 54.19 8.4
5 -6 1 56.79 7.8
5 -6 1 59.99 19.8
5 -6 1 54.39 8.3
-6 6 -1 44.8 10.7
-6 6 -1 28.9 7.5
6 -6 1 39 21.8
6 -6 1 21.6 5.4
6 -6 1 22.7 8.7
-7 6 -1 -8.1 7
-7 6 -1 -0.5 8.1
-7 6 -1 -6 9.7
7 -6 1 -2.3 6
-8 6 -1 6.7 11.3
-8 6 -1 33.3 14.7
8 -6 1 20.1 9
-9 6 -1 98.39 22.5
-9 6 -1 59.69 13
9 -6 1 25.6 12.5
-10 6 -1 35.7 24.1
10 -6 1 2.7 18
8 5 -1 -7.5 11.6
7 5 -1 7.9 14.1
7 5 -1 8 9.6
6 5 -1 127.49 12.1
6 5 -1 101.19 14.1
6 5 -1 101.59 7.1
5 5 -1 55.59 8.3
5 5 -1 63.89 7.8
5 5 -1 110.39 21
5 5 -1 75.89 10
5 5 -1 100.89 24.5
5 5 -1 65.49 6.9
4 5 -1 165.98 9.6
4 5 -1 152.08 23.4
4 5 -1 159.38 10.5
4 5 -1 170.38 20.5
4 5 -1 156.18 9.2
4 5 -1 160.88 13.5
3 5 -1 216.88 10.4
3 5 -1 219.08 10.9
3 5 -1 206.38 12.3
3 5 -1 213.78 9.5
3 5 -1 222.08 22.7
2 5 -1 563.04 15.6
2 5 -1 564.04 15.4
2 5 -1 574.34 28.5
2 5 -1 547.35 20
2 5 -1 553.34 15.8
2 5 -1 545.35 13.5
1 5 -1 106.19 7.2
1 5 -1 102.69 8.4
1 5 -1 106.29 6.8
1 5 -1 98.59 17.6
1 5 -1 95.39 9.2
-1 -5 1 90.39 15.6
0 5 -1 896.11 38.5
0 5 -1 946.81 18.6
0 5 -1 939.91 21.1
0 5 -1 947.41 21.2
0 -5 1 904.71 32.6
0 -5 1 933.91 18.3
-1 5 -1 120.29 9.1
-1 5 -1 129.69 8.1
-1 5 -1 126.49 21.9
1 -5 1 98.59 16.2
1 -5 1 132.49 7.6
-2 5 -1 29.6 5.1
-2 5 -1 30 4.8
2 -5 1 38.7 5.1
2 -5 1 37.4 14.4
2 -5 1 36.2 4.8
-3 5 -1 83.79 9.3
-3 5 -1 99.39 9.6
3 -5 1 85.99 9
3 -5 1 97.29 20.4
3 -5 1 98.39 9.7
-4 5 -1 7.3 7.1
-4 5 -1 -1.1 4.9
-4 5 -1 2.6 4.7
4 -5 1 9.1 5.3
4 -5 1 6.1 3
4 -5 1 7.3 4.6
4 -5 1 13.8 14.1
-5 5 -1 498.05 19.3
-5 5 -1 498.75 17.5
5 -5 1 496.85 17
5 -5 1 486.75 15.5
5 -5 1 488.85 18.7
-6 5 -1 16.8 6.5
-6 5 -1 23.1 9.6
6 -5 1 29.7 6.3
6 -5 1 18.4 5.2
-7 5 -1 20.5 6.7
-7 5 -1 34.3 11.5
-7 5 -1 19 7
7 -5 1 14.9 6.6
7 -5 1 21.3 9.6
-8 5 -1 90.59 17.3
-8 5 -1 62.69 8.9
-8 5 -1 58.49 11.1
8 -5 1 64.39 10.1
-9 5 -1 33.6 19.8
-9 5 -1 5.7 9.6
9 -5 1 11.2 11.3
-10 5 -1 107.49 24.8
10 -5 1 31.1 15.1
8 4 -1 11.1 11
-8 -4 1 20.4 22.1
7 4 -1 -1.8 5.3
7 4 -1 -1.2 9.6
-7 -4 1 19.4 15.7
6 4 -1 4.1 7.2
6 4 -1 7.4 18.4
6 4 -1 -3 4.4
6 4 -1 3 15.1
-6 -4 1 0.5 23.6
5 4 -1 25.7 12.9
5 4 -1 17.3 6.9
5 4 -1 47.2 22.4
5 4 -1 15.4 3.4
5 4 -1 18.7 4.5
-5 -4 1 27.4 11
4 4 -1 310.77 10
4 4 -1 298.67 22.6
4 4 -1 301.37 11.3
4 4 -1 322.17 19.2
-4 -4 1 308.27 18.4
3 4 -1 286.97 16.3
3 4 -1 310.87 10.8
3 4 -1 301.17 20.8
3 4 -1 301.67 10
3 4 -1 295.07 10.1
2 4 -1 553.14 17.7
2 4 -1 539.25 13.4
2 4 -1 563.24 24.9
2 4 -1 525.95 12.5
2 4 -1 542.55 13.9
1 4 -1 1024.6 18.8
1 4 -1 1032.7 19.5
1 4 -1 1030.8 22.7
1 4 -1 1054.99 31.9
1 4 -1 1015.4 20.6
-1 -4 1 1026.4 31
0 4 -1 1937.11 44.7
0 4 -1 1884.31 30.9
0 4 -1 1899.91 33.1
0 4 -1 1883.01 33.3
0 4 -1 1878.71 28.6
0 -4 1 1888.81 32.3
0 -4 1 1863.61 44.2
-1 4 -1 586.04 14.7
-1 4 -1 572.94 23
-1 4 -1 591.44 13.3
1 -4 1 582.24 14.5
1 -4 1 592.74 13.1
1 -4 1 573.54 23.4
-2 4 -1 23.1 3.7
-2 4 -1 29.1 4.2
2 -4 1 25.8 3.9
2 -4 1 32.4 4.1
2 -4 1 35.4 12
-3 4 -1 47.5 7
-3 4 -1 33.7 4.6
3 -4 1 33.5 4.4
3 -4 1 35.6 5.1
3 -4 1 62.69 15.7
3 -4 1 39.9 4.9
-4 4 -1 478.65 14.8
-4 4 -1 473.65 16.6
4 -4 1 471.65 14.3
4 -4 1 466.15 13.6
4 -4 1 482.95 15.8
-5 4 -1 76.79 9.5
-5 4 -1 66.69 12.6
5 -4 1 65.99 7.5
5 -4 1 92.49 11.9
5 -4 1 65.59 9.8
-6 4 -1 785.02 21.1
-6 4 -1 784.82 26
-6 4 -1 775.82 20.3
6 -4 1 790.62 23.3
6 -4 1 772.72 19.7
-7 4 -1 158.78 18
-7 4 -1 168.68 14.5
-7 4 -1 179.78 12.9
7 -4 1 202.08 16.9
-8 4 -1 -4.7 12.7
-8 4 -1 -1.7 8.1
-8 4 -1 -1 6
8 -4 1 -2 7.5
-9 4 -1 34.1 18.6
-9 4 -1 -0.8 7.8
-9 4 -1 -5.7 12.1
9 -4 1 8 10.3
-10 4 -1 93.69 23.3
10 -4 1 20.5 14.1
9 3 -1 13.9 13.5
-9 -3 1 -24.9 21.6
8 3 -1 14.4 10.2
-8 -3 1 33 18.4
7 3 -1 -1.9 20.7
7 3 -1 1.3 4.3
7 3 -1 4.3 7.8
-7 -3 1 -3.8 14.2
6 3 -1 -0.1 5.8
6 3 -1 1.3 14.8
6 3 -1 5.4 4
6 3 -1 12.6 13.7
-6 -3 1 -9.6 10.4
5 3 -1 724.53 31.5
5 3 -1 697.63 27.2
5 3 -1 694.33 16.1
5 3 -1 702.53 13.7
-5 -3 1 712.33 26.5
4 3 -1 83.79 12.6
4 3 -1 81.89 6.8
4 3 -1 64.29 14.1
4 3 -1 62.69 5.5
-4 -3 1 66.09 10.6
3 3 -1 804.62 30.8
3 3 -1 801.42 16.4
3 3 -1 780.82 15.5
3 3 -1 824.62 23.1
-3 -3 1 785.02 22.6
2 3 -1 125.89 6.2
2 3 -1 133.49 6.1
2 3 -1 129.89 9.5
2 3 -1 132.09 12
-2 -3 1 128.59 9.5
1 3 -1 46.6 5
1 3 -1 53.19 4.6
1 3 -1 41.7 10
1 3 -1 47.1 6.3
-1 -3 1 49.4 9.3
0 3 -1 9.1 7.4
0 3 -1 9.7 2.3
0 3 -1 7.9 2.6
0 3 -1 7.6 1.4
0 -3 1 4.6 6
0 -3 1 8.5 2.1
-1 3 -1 1049.59 19.8
-1 3 -1 1047.3 18.7
1 -3 1 1048.1 19.7
1 -3 1 1069.49 18.7
1 -3 1 1011.5 27.7
-2 3 -1 84.99 6.8
-2 3 -1 72.49 5.9
2 -3 1 80.09 6.2
2 -3 1 72.59 5.9
-3 3 -1 769.12 16.7
-3 3 -1 771.92 17.2
3 -3 1 760.92 16.7
3 -3 1 787.22 17.3
-4 3 -1 1409.56 30.5
-4 3 -1 1458.15 26.8
4 -3 1 1424.76 26.5
4 -3 1 1468.95 28.1
-5 3 -1 215.58 14.9
-5 3 -1 245.18 11.6
-5 3 -1 253.37 11.7
5 -3 1 236.38 9.5
5 -3 1 227.48 12.9
-6 3 -1 208.98 10.7
-6 3 -1 203.68 12.2
-6 3 -1 185.68 16
6 -3 1 198.28 9.8
6 -3 1 194.58 16.8
-7 3 -1 32.6 6.4
7 -3 1 32.9 7.4
-8 3 -1 10 13.8
-8 3 -1 -0.2 7.4
-8 3 -1 7.9 4.9
8 -3 1 5.5 8
-9 3 -1 74.79 11.8
-9 3 -1 127.09 25
9 -3 1 70.09 12.9
-10 3 -1 28.3 20.5
10 -3 1 4.2 12.6
9 2 -1 20.4 11.5
-9 -2 1 12.1 20.9
8 2 -1 3.1 9.2
-8 -2 1 13.5 15.3
7 2 -1 34.4 17.7
7 2 -1 16.1 13.5
7 2 -1 27.8 4.6
6 2 -1 30.7 4.3
6 2 -1 26.3 6.9
-6 -2 1 44.4 12.2
5 2 -1 170.58 16.8
5 2 -1 165.98 7.9
5 2 -1 169.78 5.8
-5 -2 1 163.38 15.5
4 2 -1 8.2 2.7
4 2 -1 6.8 7.4
-4 -2 1 4.5 7.2
3 2 -1 242.18 7.3
3 2 -1 234.78 12.4
-3 -2 1 225.68 12
2 2 -1 2695.73 46.2
2 2 -1 2684.73 40.9
-2 -2 1 2693.23 46.3
1 2 -1 1574.74 32.2
1 2 -1 1569.64 27.8
-1 -2 1 1578.24 32.2
0 2 -1 8.2 1.3
0 2 -1 9.4 2.2
0 2 -1 4 7.2
0 2 -1 7.1 2.3
0 -2 1 10.9 2
0 -2 1 6.6 6.3
-1 2 -1 4865.61 70.29
-1 2 -1 4740.43 69.69
1 -2 1 4630.44 76.49
1 -2 1 4701.33 70.39
1 -2 1 4861.21 70.19
2 -2 1 9770.42 141.29
2 -2 1 9840.71 141.09
-3 2 -1 641.14 16.8
-3 2 -1 626.44 13.1
3 -2 1 632.84 14.5
3 -2 1 649.74 13.3
-4 2 -1 434.96 16.1
-4 2 -1 458.35 11.2
-4 2 -1 461.15 12.2
4 -2 1 458.15 13.5
-5 2 -1 18.6 3.6
-5 2 -1 10.3 7.5
-5 2 -1 15.8 4.1
5 -2 1 14.1 4.8
-6 2 -1 50.49 11.5
-6 2 -1 39.4 5.7
-6 2 -1 54.99 7.3
6 -2 1 52.69 6.4
6 -2 1 44.1 7
-7 2 -1 236.78 19.6
-7 2 -1 218.28 12.3
-7 2 -1 214.28 9.3
7 -2 1 208.38 15.7
-8 2 -1 6.6 7
8 -2 1 3.2 10.3
-9 2 -1 24.8 16.6
-9 2 -1 12.8 9.6
9 -2 1 19.4 10.5
-10 2 -1 9.3 20.5
10 -2 1 -13.5 12.2
10 1 -1 12.1 14.8
-10 -1 1 -10 24.2
9 1 -1 26.7 11.8
-9 -1 1 21.7 19
8 1 -1 185.28 22.7
8 1 -1 92.49 12.9
-8 -1 1 139.79 13.4
-8 -1 1 133.59 25.8
7 1 -1 10.7 7.2
-7 -1 1 16.8 4.5
-7 -1 1 11.8 11.9
6 1 -1 7.3 5.8
-6 -1 1 11.6 3.5
-6 -1 1 15 9.1
5 1 -1 5.2 2.1
5 1 -1 -4.8 8.6
5 1 -1 2 2.9
-5 -1 1 -2.1 7.2
-5 -1 1 2.4 2.5
4 1 -1 3484.75 52.19
4 1 -1 3591.44 53.19
4 1 -1 3663.53 63.29
-4 -1 1 3534.05 62.89
-4 -1 1 3508.65 53.09
3 1 -1 67.39 8.4
3 1 -1 90.19 4.4
-3 -1 1 82.89 3.9
-3 -1 1 77.09 8.4
2 1 -1 193.88 9.2
-2 -1 1 194.88 8.7
-2 -1 1 204.38 4.9
1 1 -1 2076.39 33.9
1 1 -1 2128.49 35.7
-1 -1 1 2141.89 34.2
-1 1 -1 3273.07 48.6
-1 1 -1 3390.26 48.3
1 -1 1 3275.67 48.5
1 -1 1 3315.47 48.3
-2 1 -1 3342.87 49.9
-2 1 -1 3368.16 49.1
-2 1 -1 3331.27 50.39
-2 1 -1 3298.47 52.69
2 -1 1 3347.87 50.39
2 -1 1 3376.86 49.1
-3 1 -1 151.68 6.2
-3 1 -1 151.98 5.2
-3 1 -1 134.79 9.5
3 -1 1 145.89 7.2
3 -1 1 154.28 5
-4 1 -1 79.09 9.9
-4 1 -1 81.49 5.6
-4 1 -1 85.59 6.2
4 -1 1 88.29 7.7
4 -1 1 77.79 4.4
-5 1 -1 696.73 16
-5 1 -1 697.73 13.5
-5 1 -1 700.83 22.8
5 -1 1 706.23 18.3
5 -1 1 693.33 13.2
-6 1 -1 389.36 20.9
-6 1 -1 416.56 13.1
6 -1 1 435.46 16.5
-7 1 -1 -2.6 10
-7 1 -1 2.7 5.2
7 -1 1 3.4 6.2
-8 1 -1 8.5 6.6
-8 1 -1 18.1 13.8
8 -1 1 20.5 8.7
8 -1 1 31.7 10.8
-9 1 -1 11.6 16.8
-9 1 -1 2 11.9
9 -1 1 18.2 10.6
-10 1 -1 87.29 25.9
-10 0 1 62.59 26.4
9 0 -1 152.48 26.1
-9 0 1 171.98 29.5
8 0 -1 -0.5 8
-8 0 1 1.2 5
-8 0 1 12.5 13.8
7 0 -1 12.1 6.8
7 0 -1 19 7.1
-7 0 1 15.8 10.9
-7 0 1 13.8 4
6 0 -1 154.68 14.8
6 0 -1 179.88 17.9
6 0 -1 175.58 6.4
-6 0 1 173.38 7.9
-6 0 1 145.79 16.1
5 0 -1 181.18 15.1
5 0 -1 179.28 6.4
-5 0 1 190.88 7.1
-5 0 1 182.78 14.1
4 0 -1 1.7 2
4 0 -1 3 6
-4 0 1 0.8 5.5
-4 0 1 2.2 2.1
3 0 -1 275.57 11.5
3 0 -1 287.17 6.7
-3 0 1 275.97 6.4
-3 0 1 278.57 11.4
1 0 -1 3.4 1.7
1 0 -1 -1.1 1.8
-1 0 1 4.2 1.6
-1 0 1 1.3 1.5
-1 0 -1 254.67 7.3
1 0 1 262.57 5.6
1 0 1 253.37 5.4
-2 0 -1 2336.57 38.9
-2 0 -1 2357.46 34.9
2 0 1 2357.46 38.8
2 0 1 2118.19 35.6
-3 0 -1 728.03 19
-3 0 -1 765.72 14.3
3 0 1 760.52 14.5
3 0 1 751.52 19.3
-4 0 -1 48.7 8.4
4 0 1 45.7 4.8
4 0 1 63.19 10.7
4 0 1 47.6 5.7
-5 0 -1 -5.2 7.7
-5 0 -1 4.4 3.3
5 0 1 12 8.5
5 0 1 -0.4 3.3
-6 0 -1 564.44 14.9
-6 0 -1 552.24 24.3
6 0 1 554.64 18.1
-7 0 -1 66.09 6.7
-7 0 -1 90.79 16
7 0 1 58.19 8.2
-8 0 -1 57.79 17.6
-8 0 -1 33.9 7.2
8 0 1 45.4 9.7
-9 0 -1 11.6 23.7
9 0 1 3.5 10.2
-10 0 -1 -10 25.8
10 0 1 3.8 14.6
10 -1 -1 -7.9 11.2
-10 1 1 15.2 20.6
9 -1 -1 9 9.8
-9 1 1 -1.8 6.4
-9 1 1 20.2 16.5
8 -1 -1 35.1 11.3
8 -1 -1 24.8 9
-8 1 1 32.6 6.1
7 -1 -1 455.55 12
7 -1 -1 474.25 22.5
7 -1 -1 493.55 19.1
-7 1 1 450.05 23.5
-7 1 1 451.15 13.3
6 -1 -1 100.49 12.2
6 -1 -1 119.99 7
6 -1 -1 104.29 16.2
6 -1 -1 115.09 13.3
-6 1 1 100.19 14.8
-6 1 1 115.89 7.9
5 -1 -1 -1.4 4
-5 1 1 2.7 2.8
-5 1 1 1.1 7.3
4 -1 -1 30.6 4.4
4 -1 -1 27.4 7.1
-4 1 1 26.1 6.8
-4 1 1 26.7 3.3
-4 1 1 25.5 3
3 -1 -1 5142.19 77.89
3 -1 -1 4996.2 74.39
-3 1 1 5048 78.99
-3 1 1 5101.49 74.59
1 -1 -1 3100.99 46.1
1 -1 -1 3134.69 46
-1 1 1 3146.49 46.2
-1 1 1 3126.79 45.9
0 -1 -1 5 1.5
0 1 1 4.5 3.9
0 1 1 5.4 0.8
0 1 1 5.7 1.5
0 1 1 6 1.7
0 1 1 2 1.2
-1 -1 -1 3645.74 54.39
-1 -1 -1 3539.55 52.29
1 1 1 3430.36 52.39
1 1 1 3594.34 54.39
-2 -1 -1 90.19 4.5
-2 -1 -1 83.89 7.5
2 1 1 88.59 4.9
2 1 1 75.49 7.8
-3 -1 -1 23.1 6.5
-3 -1 -1 23 2.8
3 1 1 22.8 6.8
3 1 1 21 2.9
-4 -1 -1 56.79 8.9
-4 -1 -1 67.39 5.8
4 1 1 64.59 11.6
4 1 1 57.69 6.1
-5 -1 -1 596.34 22.9
-5 -1 -1 578.64 14.7
5 1 1 623.54 23.8
5 1 1 572.94 14.5
-6 -1 -1 148.39 17.3
-6 -1 -1 138.79 9.1
6 1 1 146.29 9.6
-7 -1 -1 42.9 6.4
-7 -1 -1 57.99 16.1
7 1 1 31.3 7.9
-8 -1 -1 41.8 8.2
-8 -1 -1 62.09 18
8 1 1 55.89 9.9
-9 -1 -1 -13.9 18.6
9 1 1 8.9 11.5
-10 -1 -1 31.4 36.7
10 1 1 -0.3 22.8
10 -2 -1 4.3 12.2
-10 2 1 41 21.5
9 -2 -1 13.9 9.9
-9 2 1 29.8 16.2
-9 2 1 0.2 7.8
8 -2 -1 1.2 4.4
8 -2 -1 -6.4 8.7
-8 2 1 9 12.1
7 -2 -1 79.19 8
7 -2 -1 66.99 8.4
7 -2 -1 50.49 8.5
-7 2 1 73.99 13
-7 2 1 75.69 8.9
-7 2 1 64.59 9.3
6 -2 -1 -1.1 5.5
6 -2 -1 5.2 3.4
6 -2 -1 5.4 5
-6 2 1 7.3 8.9
-6 2 1 5.6 4
-6 2 1 7.2 4.1
5 -2 -1 229.08 12.8
5 -2 -1 238.58 11.9
5 -2 -1 228.18 8.8
-5 2 1 228.18 9.4
-5 2 1 218.78 9.5
-5 2 1 216.18 13.9
4 -2 -1 14.4 3.7
4 -2 -1 15.9 4.1
4 -2 -1 19.9 3.3
-4 2 1 23.2 6.6
-4 2 1 21.1 3.5
3 -2 -1 799.72 17.1
3 -2 -1 784.42 16.6
3 -2 -1 836.82 18.1
-3 2 1 797.02 16.2
-3 2 1 770.32 17.7
2 -2 -1 169.78 6.7
2 -2 -1 180.28 6.8
2 -2 -1 139.49 6.9
-2 2 1 169.38 6.8
-2 2 1 170.88 6.9
1 -2 -1 5545.65 87.89
1 -2 -1 5498.15 78.69
1 -2 -1 5333.97 80.09
-1 2 1 5394.96 80.19
-1 2 1 5569.84 78.79
-1 2 1 5379.06 87.19
0 -2 -1 377.46 14.5
0 -2 -1 395.26 7
0 -2 -1 402.76 9
0 2 1 387.96 9.1
0 2 1 385.26 15
0 2 1 398.66 7.3
0 2 1 388.96 8.5
-1 -2 -1 416.46 8.8
-1 -2 -1 415.66 11.1
1 2 1 404.06 18.5
1 2 1 408.96 12.3
1 2 1 412.76 9.8
-2 -2 -1 792.92 17
-2 -2 -1 759.72 18.6
2 2 1 793.62 13.7
2 2 1 794.02 19.1
2 2 1 766.82 23.7
2 2 1 745.33 15.2
-3 -2 -1 1925.41 31.9
-3 -2 -1 1868.11 37.7
3 2 1 1903.11 28.7
3 2 1 1875.71 31.7
3 2 1 1906.21 37.9
-4 -2 -1 2008.2 34.4
-4 -2 -1 1978.3 42.3
4 2 1 2034.1 42.7
4 2 1 1989.8 34.5
-5 -2 -1 175.28 9.3
-5 -2 -1 188.18 16.6
5 2 1 171.28 18
5 2 1 162.78 9.5
-6 -2 -1 1.5 4.7
-6 -2 -1 6.7 10.6
6 2 1 -3.9 12.5
6 2 1 2.1 4.3
-7 -2 -1 -0.3 12.2
-7 -2 -1 -4.1 6.4
7 2 1 10.6 6.9
7 2 1 1.7 4.6
-8 -2 -1 80.59 20.5
8 2 1 40.6 11.2
8 2 1 50.39 11.8
-9 -2 -1 55.89 22.4
9 2 1 28.1 12.8
10 -3 -1 8.8 12.6
-10 3 1 6.3 20.6
9 -3 -1 4.2 9.6
-9 3 1 -6.9 8.5
-9 3 1 5 16.3
8 -3 -1 248.98 13.3
8 -3 -1 254.87 21.2
-8 3 1 247.18 22.2
-8 3 1 240.98 15.7
-8 3 1 270.87 13.6
7 -3 -1 143.99 10.7
7 -3 -1 170.48 16.4
-7 3 1 147.39 12.1
-7 3 1 157.68 11.4
-7 3 1 169.88 17.6
6 -3 -1 2.2 5
6 -3 -1 1.8 5.1
6 -3 -1 11.2 4.7
-6 3 1 3.4 4.6
-6 3 1 10.3 4.9
-6 3 1 9.5 8.4
5 -3 -1 48 6
5 -3 -1 48.3 5.9
5 -3 -1 60.29 7.8
-5 3 1 75.79 13.4
-5 3 1 76.29 8.8
4 -3 -1 57.09 6.8
4 -3 -1 52.49 5.7
4 -3 -1 52.69 7.4
-4 3 1 70.99 8
-4 3 1 41.6 7.9
3 -3 -1 714.63 15.9
3 -3 -1 679.33 15.2
3 -3 -1 688.43 15.9
-3 3 1 718.53 16.3
-3 3 1 700.33 16.1
2 -3 -1 2487.55 40.9
2 -3 -1 2646.74 46.1
2 -3 -1 2508.05 38.5
2 -3 -1 2478.25 51.29
-2 3 1 2502.55 38.6
-2 3 1 2498.35 41.1
-2 3 1 2452.75 39.5
1 -3 -1 938.81 18.3
1 -3 -1 931.51 16.3
1 -3 -1 926.31 26.6
-1 3 1 913.21 18.3
-1 3 1 960.6 15.1
-1 3 1 910.21 26.5
-1 3 1 931.01 16.3
0 -3 -1 49.5 10.4
0 -3 -1 37.7 3.2
0 -3 -1 37.2 5
0 3 1 47.9 10.6
0 3 1 44.8 3.8
0 3 1 34.8 4.9
0 3 1 31.5 4.4
-1 -3 -1 13.1 3.2
-1 -3 -1 17.5 4.7
-1 -3 -1 22.2 8.1
1 3 1 18.7 4.8
1 3 1 17.9 3.2
1 3 1 15.9 2.1
1 3 1 13.4 2.6
1 3 1 9.3 7.5
-2 -3 -1 353.16 13.2
2 3 1 365.66 10.7
2 3 1 363.36 18.7
2 3 1 358.66 9.3
2 3 1 366.76 13.6
-3 -3 -1 261.37 13.9
3 3 1 250.77 14.7
3 3 1 275.67 7.9
3 3 1 263.57 9.9
-4 -3 -1 842.32 26.3
4 3 1 869.21 27.1
4 3 1 852.31 33.1
4 3 1 840.02 19.8
-5 -3 -1 87.39 15.3
5 3 1 87.69 8.9
5 3 1 70.09 13.5
5 3 1 80.79 18.3
-6 -3 -1 113.59 17.2
6 3 1 69.09 16.3
6 3 1 110.29 23.9
6 3 1 87.19 9.7
-7 -3 -1 246.78 27.8
7 3 1 251.87 16.3
7 3 1 215.08 12.9
-8 -3 -1 13.3 18.1
8 3 1 5.3 10.4
8 3 1 5.9 7.2
-9 -3 -1 -16.7 23.5
9 3 1 12.6 14.1
10 -4 -1 15.2 13.8
-10 4 1 29.7 20.5
9 -4 -1 21.5 10.3
9 -4 -1 18.7 11.4
-9 4 1 5.8 8.1
-9 4 1 13.8 15.6
-9 4 1 0.5 10.2
8 -4 -1 3.8 6.3
8 -4 -1 -6.5 7.1
-8 4 1 2.1 12
-8 4 1 -2.8 6
-8 4 1 -11.5 14.1
7 -4 -1 187.48 12.9
7 -4 -1 220.28 17
7 -4 -1 182.98 16.2
-7 4 1 194.38 14.1
-7 4 1 147.79 12.8
-7 4 1 159.58 17.6
6 -4 -1 87.19 10.1
6 -4 -1 91.79 12.1
6 -4 -1 78.69 9.2
-6 4 1 88.69 11.1
-6 4 1 87.59 12.8
5 -4 -1 118.19 10
5 -4 -1 94.59 11.8
5 -4 -1 90.79 10.1
-5 4 1 103.19 10.9
-5 4 1 83.29 11.5
4 -4 -1 117.89 8.5
-4 4 1 134.89 10.2
-4 4 1 112.99 9.6
3 -4 -1 13.6 4.1
3 -4 -1 20.9 12.5
3 -4 -1 16.5 2.9
3 -4 -1 18 4.3
-3 4 1 12.4 4.9
-3 4 1 16.3 4.5
2 -4 -1 708.03 27.1
2 -4 -1 736.53 17.3
2 -4 -1 734.23 15.5
2 -4 -1 725.63 13.1
-2 4 1 712.53 17.4
-2 4 1 726.93 15.5
1 -4 -1 831.42 18.4
1 -4 -1 839.12 15.8
1 -4 -1 809.72 28.3
-1 4 1 843.92 15.1
-1 4 1 838.42 15.9
-1 4 1 831.52 18.5
-1 4 1 851.11 28.8
0 -4 -1 615.04 11.7
0 -4 -1 596.64 14.6
0 4 1 575.34 14.7
0 4 1 612.24 25
0 4 1 596.04 12.5
0 4 1 603.24 13.8
0 4 1 614.34 12
-1 -4 -1 712.53 27.3
1 4 1 737.63 13.5
1 4 1 712.53 16.2
1 4 1 711.43 18.1
1 4 1 750.82 28.5
1 4 1 700.93 17
-2 -4 -1 447.36 16
2 4 1 446.36 24.2
2 4 1 436.66 10.1
2 4 1 451.75 12.2
2 4 1 442.06 16.1
2 4 1 442.36 13.3
-3 -4 -1 135.29 12.9
3 4 1 119.39 16.4
3 4 1 147.09 18.3
3 4 1 126.09 7.2
3 4 1 140.69 7.7
3 4 1 141.49 9.6
-4 -4 -1 442.56 21
4 4 1 421.66 11.1
4 4 1 446.76 14.8
4 4 1 440.66 28.1
4 4 1 443.96 21.5
-5 -4 -1 664.53 27.5
5 4 1 656.23 35.2
5 4 1 661.93 18.5
5 4 1 646.34 27.8
-6 -4 -1 153.68 23.7
6 4 1 143.69 12.2
-7 -4 -1 10.2 17
7 4 1 6.1 8.7
7 4 1 12.5 9.5
7 4 1 -6.6 6.2
-8 -4 -1 27.4 22.5
8 4 1 2.8 8.8
8 4 1 -0.5 11
10 -5 -1 35.6 17.5
-10 5 1 36.2 13.5
-10 5 1 69.09 28
9 -5 -1 7.5 11.1
-9 5 1 17.4 9.8
-9 5 1 16.2 15.9
8 -5 -1 12.8 7.9
8 -5 -1 0.7 7.7
-8 5 1 9.9 12.4
-8 5 1 15.7 8
7 -5 -1 26.7 7.9
7 -5 -1 7.7 9
7 -5 -1 14.6 6.6
-7 5 1 16.1 6.9
-7 5 1 36.9 11.5
6 -5 -1 3.1 6.5
6 -5 -1 1.1 4.5
-6 5 1 -1.7 5.4
-6 5 1 3.8 7.8
5 -5 -1 270.17 15
5 -5 -1 276.27 12.4
5 -5 -1 282.57 14.2
5 -5 -1 298.17 28.1
-5 5 1 260.07 13.4
-5 5 1 276.37 15.1
4 -5 -1 1458.65 30.6
4 -5 -1 1410.26 26.5
4 -5 -1 1469.75 29.6
4 -5 -1 1465.45 47.2
-4 5 1 1476.15 28.4
-4 5 1 1434.96 30.8
3 -5 -1 -3.1 13.1
3 -5 -1 4.4 2.8
3 -5 -1 3.8 4.3
3 -5 -1 4 4.2
-3 5 1 1.6 4.5
2 -5 -1 702.93 30.7
2 -5 -1 727.33 18.8
2 -5 -1 729.23 16.4
-2 5 1 747.03 19.6
-2 5 1 736.33 16.5
1 -5 -1 78.49 16.4
1 -5 -1 63.79 6.1
1 -5 -1 79.29 9
-1 5 1 72.59 6.9
-1 5 1 73.79 17.5
-1 5 1 67.09 5.5
-1 5 1 70.69 8.3
0 -5 -1 20.2 3
0 -5 -1 19.8 11.5
0 5 1 20.4 4.5
0 5 1 29.3 14.2
0 5 1 22.4 5.6
0 5 1 21 3.4
0 5 1 17.7 3
-1 -5 -1 -3.5 11
1 5 1 2.9 3.9
1 5 1 2.2 12.9
1 5 1 7 3
1 5 1 -3.8 5.9
1 5 1 -1.2 3.9
2 5 1 18.9 3.2
2 5 1 16.2 4.8
2 5 1 23.4 14.3
2 5 1 17.2 4.4
2 5 1 20.4 8.8
3 5 1 176.58 9.5
3 5 1 195.68 12
3 5 1 190.18 24.4
3 5 1 179.38 8.1
3 5 1 185.18 15.6
-4 -5 -1 1271.87 35.7
4 5 1 1267.67 47.9
4 5 1 1234.58 23.8
4 5 1 1235.28 27.8
4 5 1 1215.08 23.9
4 5 1 1258.87 36
-5 -5 -1 21.9 12.9
5 5 1 21.6 4.8
5 5 1 14.7 15.7
5 5 1 26.2 21.1
5 5 1 20 6
5 5 1 18.8 3.8
-6 -5 -1 51.69 20.2
6 5 1 26.1 9
6 5 1 19.4 11.1
-7 -5 -1 167.38 26.9
7 5 1 88.59 13.8
7 5 1 102.79 10.6
8 5 1 -17.1 13.5
-10 6 1 84.09 27.2
-10 6 1 45.2 16.7
9 -6 -1 36.1 39.1
9 -6 -1 57.59 13.5
-9 6 1 55.69 13.5
-9 6 1 102.69 22.7
8 -6 -1 -9.9 11
8 -6 -1 -24.3 26.4
-8 6 1 -8.7 12.3
-8 6 1 21.3 12.5
-8 6 1 5 9.2
7 -6 -1 -1.1 6
7 -6 -1 9.2 8.7
7 -6 -1 -16.7 21.8
-7 6 1 2.6 7.6
-7 6 1 7.7 9.4
6 -6 -1 25.4 5.4
6 -6 -1 48.5 22.9
-6 6 1 37 8.4
-6 6 1 34.3 9
5 -6 -1 16.9 6.7
5 -6 -1 24.7 18.5
5 -6 -1 26.1 7.2
5 -6 -1 17.5 4.3
-5 6 1 28 7.4
-5 6 1 27.5 7.3
4 -6 -1 554.34 14.5
4 -6 -1 561.14 17.5
4 -6 -1 532.55 20
4 -6 -1 551.24 34.3
-4 6 1 565.64 19.6
-4 6 1 530.55 14.6
3 -6 -1 -11.2 14.9
3 -6 -1 2.3 5.6
-3 6 1 11.8 6.1
2 -6 -1 294.87 11.5
2 -6 -1 295.97 14.2
2 -6 -1 280.37 25.3
-2 6 1 299.07 11.6
-2 6 1 300.87 15.1
1 -6 -1 4.4 14.3
1 -6 -1 15.9 3.8
1 -6 -1 18.7 5.2
-1 6 1 17.9 4.2
-1 6 1 34.1 17.9
-1 6 1 24 4.9
-1 6 1 13.4 5.1
0 -6 -1 68.29 16.6
0 6 1 67.39 7.3
0 6 1 78.99 13.5
0 6 1 79.09 18.6
0 6 1 58.69 7
0 6 1 82.89 6.2
0 6 1 85.99 10.2
-1 -6 -1 1018.6 40.3
1 6 1 984.9 42.5
1 6 1 974.6 23.5
1 6 1 967.3 18.6
1 6 1 976.2 24.4
1 6 1 993.8 24.8
2 6 1 13.5 10.4
2 6 1 4.6 3.2
2 6 1 8.7 17.3
2 6 1 6.4 5.2
2 6 1 5.9 4.9
3 6 1 85.29 7.5
3 6 1 109.79 10.5
3 6 1 104.99 16.2
3 6 1 115.19 12.1
3 6 1 109.69 26.9
4 6 1 22.3 5.2
4 6 1 20.8 4.3
4 6 1 21.8 13.8
4 6 1 30.8 6.8
5 6 1 1.8 6.9
5 6 1 -5.4 4.4
5 6 1 -0.1 4.8
5 6 1 0.6 7
6 6 1 23.1 6.6
6 6 1 16.8 9.9
6 6 1 8 8.7
7 6 1 14.7 12.9
7 6 1 -22.2 9.4
9 -7 -1 2.8 35.7
-9 7 1 22.1 18.6
-9 7 1 -6.1 19.5
8 -7 -1 -19.1 8.9
8 -7 -1 -4.5 30.8
-8 7 1 -2.9 10.6
-8 7 1 17.3 13
7 -7 -1 1.5 6.8
7 -7 -1 43.1 32.3
-7 7 1 20.8 11.4
-7 7 1 19.4 10.9
6 -7 -1 -5.9 4.7
6 -7 -1 18.2 23.7
-6 7 1 1 7.5
-6 7 1 -3.3 7.9
5 -7 -1 135.39 17
5 -7 -1 106.89 46.6
-5 7 1 97.39 13.4
-5 7 1 100.49 8.8
4 -7 -1 82.89 22.4
4 -7 -1 65.19 7.9
4 -7 -1 65.79 9.1
-4 7 1 63.29 9.2
3 -7 -1 363.56 14.8
3 -7 -1 355.56 31.4
-3 7 1 362.76 18.5
2 -7 -1 9.3 17
2 -7 -1 4 4.9
-2 7 1 4.2 6.2
-2 7 1 6.8 4.4
1 -7 -1 34.8 16
1 -7 -1 23.5 4.7
-1 7 1 24.9 7
-1 7 1 24.1 5.7
-1 7 1 17 4.4
0 -7 -1 210.18 25.4
0 7 1 211.58 15.6
0 7 1 214.78 12.6
0 7 1 230.08 15.1
0 7 1 213.78 9.4
0 7 1 210.18 29.8
-1 -7 -1 148.69 25.8
1 7 1 103.39 13.3
1 7 1 152.48 13.9
1 7 1 126.39 12.2
1 7 1 126.59 8.1
1 7 1 127.89 8.2
1 7 1 142.39 28.1
1 7 1 138.39 13.4
2 7 1 539.35 19
2 7 1 486.95 12.7
2 7 1 535.25 20.5
2 7 1 513.75 18
2 7 1 531.75 22.5
2 7 1 551.04 39.2
3 7 1 1.5 5.6
3 7 1 1.4 6.4
3 7 1 -5.9 3.8
3 7 1 6.4 5.4
3 7 1 15.9 13.5
4 7 1 3.8 6.4
4 7 1 1.3 6.1
4 7 1 -4.3 9.2
4 7 1 -2 4.6
4 7 1 -23.6 18
5 7 1 36.4 7.4
5 7 1 43.2 10.6
5 7 1 28.1 6.6
5 7 1 39.7 9.9
6 7 1 -17.1 10.5
6 7 1 -9.3 10.4
8 -8 -1 89.69 38.6
-8 8 1 -0.1 13.5
7 -8 -1 121.39 38.6
-7 8 1 62.59 14.4
-7 8 1 90.19 16.1
6 -8 -1 15 26.1
-6 8 1 -7.3 9.3
5 -8 -1 60.59 26.8
5 -8 -1 1.9 9.1
-5 8 1 15.6 10
4 -8 -1 132.59 30.8
4 -8 -1 93.39 10.2
-4 8 1 88.29 11.7
3 -8 -1 -5.2 18.4
3 -8 -1 -1.4 7.1
-3 8 1 -2.1 7.4
2 -8 -1 60.99 23.6
2 -8 -1 15.3 6.6
-2 8 1 22.3 9.8
1 -8 -1 0.9 19.3
-1 8 1 8.7 5.2
-1 8 1 3.9 9.8
-1 8 1 -3.7 7.6
0 -8 -1 115.79 29.3
0 8 1 137.59 17
0 8 1 135.99 16.7
0 8 1 115.99 8.8
0 8 1 153.78 16.8
1 8 1 254.17 18.9
1 8 1 238.58 17.7
1 8 1 249.78 22.1
1 8 1 246.48 9.8
2 8 1 4.9 4.5
2 8 1 10.4 8.9
2 8 1 4.8 14.8
2 8 1 14.7 7.2
2 8 1 -4 7.2
2 8 1 9.5 3.7
3 8 1 56.89 9.3
3 8 1 46.1 10.2
3 8 1 45.3 7.3
3 8 1 22.6 20.3
4 8 1 -4.5 9.9
4 8 1 -4.3 9.2
4 8 1 -2.2 8.3
5 8 1 10 12.4
5 8 1 4.3 11.6
7 -9 -1 78.59 40.9
-7 9 1 5.8 14.3
6 -9 -1 50.09 35.6
-6 9 1 16.9 12.8
5 -9 -1 105.19 32.6
-5 9 1 42.7 13.4
4 -9 -1 27.9 29
-4 9 1 5.6 10.2
3 -9 -1 99.49 30.6
3 -9 -1 63.29 10.8
-3 9 1 67.29 11.7
2 -9 -1 -5.9 8.1
2 -9 -1 8.2 24.5
-2 9 1 -1.9 10.3
1 -9 -1 87.09 27.7
-1 9 1 55.29 10.9
-1 9 1 48.7 11
0 -9 -1 21.9 27.6
0 9 1 26.2 10.1
0 9 1 31.5 9.9
1 9 1 -16.4 9.2
1 9 1 -12.8 9.5
2 9 1 95.69 12.9
2 9 1 107.49 13.3
3 9 1 24.3 11
3 9 1 -1.9 12.6
6 -10 -1 -12.3 50.29
-6 10 1 -29.2 17.7
5 -10 -1 111.89 40.7
-5 10 1 25.3 15.9
4 -10 -1 124.99 42.4
-4 10 1 33 14.7
3 -10 -1 235.28 47.4
-3 10 1 192.18 27.2
2 -10 -1 12.3 32.6
-2 10 1 3.6 17.5
-2 10 1 12.6 12
1 -10 -1 56.39 35
-1 10 1 22.2 12.2
-1 10 1 49.3 13.4
0 -10 -1 -6.7 34.3
0 10 1 21.8 11.9
0 10 1 3.5 14.7
1 10 1 6.6 12
1 10 1 -23.2 12.4
-1 11 -2 34.6 15.8
-1 11 -2 21.3 16.5
1 -11 2 39.1 48.5
-2 11 -2 24.2 16.4
2 -11 2 66.39 44.9
-3 11 -2 113.99 23.5
3 -11 2 180.88 56.39
2 10 -2 -7.1 12.5
2 10 -2 -2.3 11.1
1 10 -2 -6.5 11.5
1 10 -2 0.9 10.5
0 10 -2 14.7 11.1
0 -10 2 26.3 30.4
-1 10 -2 -12 11.2
-1 10 -2 16.1 8.1
1 -10 2 26 30.4
-2 10 -2 -2.5 8.8
-2 10 -2 -11.9 11.1
2 -10 2 20.9 29.3
-3 10 -2 280.57 27.1
3 -10 2 282.97 47.1
-4 10 -2 1.6 12.5
4 -10 2 15.3 31.5
-5 10 -2 54.69 14.7
5 -10 2 117.19 43.4
-6 10 -2 40 16.8
6 -10 2 47.7 43.4
4 9 -2 -14.7 12.8
4 9 -2 8.1 10.9
3 9 -2 29 8.5
3 9 -2 21.3 9.7
3 9 -2 42.5 12.1
2 9 -2 63.89 8.9
2 9 -2 67.19 10.8
2 9 -2 37.3 10.9
1 9 -2 28 10.6
1 9 -2 32.6 7.2
1 9 -2 71.79 17.4
1 9 -2 45 10.3
-1 -9 2 57.49 29.1
0 9 -2 -1.6 6
0 9 -2 12.2 12.8
0 9 -2 1.2 9.4
0 -9 2 15.3 24.1
-1 9 -2 148.49 13.3
-1 9 -2 156.18 17.1
-1 9 -2 116.39 13.2
1 -9 2 148.39 34.1
-2 9 -2 35.5 10.1
-2 9 -2 20.4 7.1
-2 9 -2 11.6 8.8
2 -9 2 19.3 9.6
2 -9 2 18.2 23.7
-3 9 -2 276.17 17.7
-3 9 -2 244.08 15.5
-3 9 -2 303.07 22.2
3 -9 2 303.17 38.4
-4 9 -2 12.4 8.9
-4 9 -2 1.8 9.6
4 -9 2 21.3 25
4 -9 2 1.9 10.6
-5 9 -2 46.2 17
-5 9 -2 -11.2 10.2
5 -9 2 12 31.8
-6 9 -2 80.39 15.3
6 -9 2 87.79 37.6
-7 9 -2 7 13.7
7 -9 2 41.3 41.1
-8 9 -2 52.59 17
5 8 -2 19.3 9.6
5 8 -2 -11.3 10.6
5 8 -2 -3.5 9.8
4 8 -2 -2.5 6.8
4 8 -2 -8.3 7.9
4 8 -2 -0.2 7.3
4 8 -2 -12.8 7.6
3 8 -2 207.28 17.2
3 8 -2 261.67 27.4
3 8 -2 197.88 17.6
3 8 -2 174.68 19.1
3 8 -2 181.68 13.2
2 8 -2 21 12.5
2 8 -2 2.6 6.8
2 8 -2 -3.3 7.6
2 8 -2 -3.4 3.9
2 8 -2 -6.4 5.1
1 8 -2 100.39 15.1
1 8 -2 153.78 49
1 8 -2 94.69 10.7
1 8 -2 105.29 14.9
1 8 -2 69.49 9.5
-1 -8 2 111.69 29.2
0 8 -2 -3.2 6.4
0 8 -2 2.7 5.2
0 8 -2 -29.2 23.8
0 -8 2 10.7 20.1
-1 8 -2 53.49 9.2
-1 8 -2 40.9 6.6
-1 8 -2 30.3 7.6
1 -8 2 40.1 7.3
1 -8 2 67.19 22.4
-2 8 -2 2.4 7.2
-2 8 -2 3.4 5.7
-2 8 -2 6.6 8.5
2 -8 2 6.6 18.8
2 -8 2 -1.4 6.1
-3 8 -2 -4.8 5.8
-3 8 -2 -0.7 8.7
3 -8 2 0.4 6.9
-4 8 -2 6.8 6.7
-4 8 -2 11.5 7.6
4 -8 2 22.9 22.2
-5 8 -2 41 10.3
-5 8 -2 48.5 10.7
5 -8 2 78.49 31.4
-6 8 -2 -4.1 9.4
-6 8 -2 17.3 10.9
6 -8 2 16.9 26.3
-7 8 -2 20.9 12.2
-7 8 -2 -11.1 10.3
7 -8 2 -13.2 30.4
-8 8 -2 -2.5 12.7
-8 8 -2 19.6 16.6
8 -8 2 8.3 37
6 7 -2 -7.1 8.4
6 7 -2 21.5 8.6
6 7 -2 2.1 10.4
5 7 -2 13.5 6.7
5 7 -2 20.5 8
5 7 -2 10.9 7.6
5 7 -2 32.9 9.3
4 7 -2 92.49 18.9
4 7 -2 40 7.7
4 7 -2 50.19 7.9
4 7 -2 47.8 7.1
4 7 -2 46.5 6.8
3 7 -2 143.79 12.2
3 7 -2 179.38 30.8
3 7 -2 138.19 10.7
3 7 -2 141.29 12.8
3 7 -2 144.59 13.1
3 7 -2 163.98 19.8
2 7 -2 81.89 11.9
2 7 -2 95.19 11.9
2 7 -2 78.49 9.3
2 7 -2 111.79 24.9
2 7 -2 73.99 8.8
2 7 -2 90.09 15.1
1 7 -2 22.4 3.4
1 7 -2 34.9 17.9
1 7 -2 43.9 9.6
1 7 -2 20.8 6.1
1 7 -2 15.9 4.8
-1 -7 2 40.1 17.1
0 7 -2 1285.77 29.6
0 7 -2 1343.07 26.8
0 7 -2 1349.96 31
0 7 -2 1287.27 47.8
0 -7 2 1336.97 47
-1 7 -2 19.2 5.3
-1 7 -2 17 6.7
-1 7 -2 33.7 6.8
1 -7 2 23.5 5.5
1 -7 2 28.4 17.3
-2 7 -2 35.6 6.6
-2 7 -2 53.09 6.5
2 -7 2 50.99 6.5
2 -7 2 60.69 17.9
-3 7 -2 414.26 16.3
-3 7 -2 443.36 18.5
3 -7 2 401.26 32.4
3 -7 2 414.86 16.3
-4 7 -2 53.09 7.8
-4 7 -2 76.49 8.4
4 -7 2 72.29 21.5
4 -7 2 57.29 8.1
-5 7 -2 13.7 9.3
-5 7 -2 12.1 7
5 -7 2 15.7 23.4
-6 7 -2 114.89 16.6
6 -7 2 69.99 10.5
6 -7 2 125.79 30.8
-7 7 -2 73.29 11.4
-7 7 -2 102.99 18.4
7 -7 2 86.99 31.5
7 -7 2 90.49 15.5
-8 7 -2 -11.7 10.3
-8 7 -2 9 15.1
8 -7 2 -30.3 30.9
8 -7 2 0.3 9.5
-9 7 -2 4.9 14.1
-9 7 -2 62.19 24.2
9 -7 2 5.4 13.9
7 6 -2 -0.1 8.8
7 6 -2 25.3 11.4
6 6 -2 19.7 7
6 6 -2 11.1 5.5
6 6 -2 25.5 7.1
6 6 -2 30.5 9.9
5 6 -2 165.48 16.8
5 6 -2 150.98 11.1
5 6 -2 127.49 11.8
5 6 -2 126.79 12.2
4 6 -2 29.8 5.6
4 6 -2 31.8 6
4 6 -2 26.4 6.3
4 6 -2 48.8 21.4
4 6 -2 30.6 5.4
4 6 -2 47.5 13.5
3 6 -2 16 5.2
3 6 -2 14.4 4.9
3 6 -2 19.1 4.6
3 6 -2 18.7 4.9
3 6 -2 24.9 10.8
3 6 -2 21.2 17.8
2 6 -2 1024.8 28.1
2 6 -2 1007 22.5
2 6 -2 985.7 21.2
2 6 -2 1004.4 39.3
2 6 -2 1001.1 23.7
2 6 -2 1004.9 23.7
1 6 -2 5.2 3.9
1 6 -2 4.5 13.9
1 6 -2 2.6 7.2
1 6 -2 3.3 4.4
1 6 -2 3.2 2.9
-1 -6 2 1.8 12.5
0 6 -2 33 5.8
0 6 -2 50.49 8
0 6 -2 58.99 8.3
0 6 -2 50.59 16.9
0 -6 2 37.7 13.6
0 -6 2 56.89 7.9
-1 6 -2 210.78 11
-1 6 -2 217.08 12.4
1 -6 2 211.28 22.1
1 -6 2 217.48 10.5
-2 6 -2 172.38 11.4
-2 6 -2 191.78 12.1
2 -6 2 144.69 18.5
2 -6 2 156.88 22.4
-3 6 -2 170.08 12.4
-3 6 -2 182.58 12.7
3 -6 2 163.08 25.1
3 -6 2 175.18 12
-4 6 -2 161.48 12.8
-4 6 -2 148.09 12.6
4 -6 2 155.68 26.3
4 -6 2 168.48 13.2
4 -6 2 166.58 9.3
-5 6 -2 7.1 6
-5 6 -2 16.6 9.1
5 -6 2 5.5 3.7
5 -6 2 -3.8 6.6
5 -6 2 27 17.2
-6 6 -2 625.94 21.6
-6 6 -2 628.34 24.1
6 -6 2 639.54 19.5
6 -6 2 631.84 23.8
-7 6 -2 107.19 18.3
-7 6 -2 78.99 10.1
7 -6 2 104.59 14.9
-8 6 -2 195.98 23.7
-8 6 -2 160.88 18.8
8 -6 2 182.98 20.7
-9 6 -2 29.8 12.3
-9 6 -2 71.19 21
9 -6 2 38.1 13.3
-10 6 -2 109.39 46.1
10 -6 2 52.99 19.4
8 5 -2 8.4 12.3
7 5 -2 143.99 12.7
7 5 -2 168.88 22.5
6 5 -2 187.88 11.8
6 5 -2 227.28 36.5
6 5 -2 182.08 9.6
5 5 -2 158.18 11.4
5 5 -2 164.98 11.6
5 5 -2 163.98 15.6
5 5 -2 171.28 10.5
5 5 -2 169.38 25.3
4 5 -2 770.82 18.3
4 5 -2 765.62 18.8
4 5 -2 767.02 23.3
4 5 -2 794.82 28.3
4 5 -2 779.82 19
3 5 -2 1.8 3.9
3 5 -2 3.7 7.9
3 5 -2 -5.5 3.3
3 5 -2 1.6 3.7
3 5 -2 9.3 13.4
3 5 -2 -3.1 3.5
2 5 -2 -5.2 2.8
2 5 -2 0.9 3.2
2 5 -2 -1.5 12.4
2 5 -2 3.6 3.7
2 5 -2 -6 3.4
2 5 -2 -0.9 7.1
1 5 -2 122.09 6.9
1 5 -2 100.79 18.9
1 5 -2 120.59 9
1 5 -2 106.29 9.9
1 5 -2 132.49 8.6
-1 -5 2 124.29 15.6
0 5 -2 159.48 9.5
0 5 -2 155.58 21.7
0 5 -2 165.98 8.3
0 5 -2 158.78 9.7
0 -5 2 164.08 8
0 -5 2 136.89 16.6
-1 5 -2 179.38 10.1
-1 5 -2 194.08 9.4
1 -5 2 187.18 8.9
1 -5 2 165.58 18.1
-2 5 -2 501.05 15.4
-2 5 -2 508.05 14.7
2 -5 2 510.85 26.5
2 -5 2 506.75 14.3
-3 5 -2 3.3 4
-3 5 -2 2.6 4.6
3 -5 2 5.4 2.3
3 -5 2 12.4 14.2
-4 5 -2 800.32 20.9
-4 5 -2 771.82 20.8
4 -5 2 789.92 17.5
4 -5 2 824.32 21.2
-5 5 -2 540.65 18.9
-5 5 -2 500.15 20.3
5 -5 2 510.75 18.6
5 -5 2 512.05 16.3
-6 5 -2 109.39 13.6
-6 5 -2 98.59 15.2
-6 5 -2 105.79 12.4
6 -5 2 118.99 12.5
-7 5 -2 1.3 5.9
-7 5 -2 24.2 11.5
7 -5 2 8.4 6.4
7 -5 2 0.1 10.1
-8 5 -2 29.3 14.9
-8 5 -2 -0.2 9.7
-8 5 -2 14.5 7.3
8 -5 2 7.3 8
-9 5 -2 10.8 17.5
-9 5 -2 14.1 9.9
9 -5 2 4.7 11.5
-10 5 -2 36.8 22.8
10 -5 2 13.6 14.5
9 4 -2 16.1 15.9
8 4 -2 16.2 11.2
7 4 -2 4.4 9.5
7 4 -2 1.7 4.7
-7 -4 2 2.9 15.3
6 4 -2 211.28 24.1
6 4 -2 198.68 26.1
6 4 -2 192.78 13.9
6 4 -2 187.08 19
6 4 -2 190.68 7.7
-6 -4 2 155.68 28.4
5 4 -2 142.69 19.1
5 4 -2 139.89 18.6
5 4 -2 146.59 21.4
5 4 -2 148.89 7.9
5 4 -2 142.19 8.7
-5 -4 2 154.58 17.8
4 4 -2 14.7 3.7
4 4 -2 12 9.7
4 4 -2 11.2 3.5
4 4 -2 12.6 11.7
4 4 -2 11.9 4.9
3 4 -2 280.07 13.4
3 4 -2 257.17 15.2
3 4 -2 267.07 9.7
3 4 -2 263.17 10
3 4 -2 265.87 9.6
2 4 -2 1.8 2.7
2 4 -2 -2 8.9
2 4 -2 -0.9 2.7
2 4 -2 -2.1 5.3
2 4 -2 -5 2.4
2 4 -2 -0.4 2.5
1 4 -2 123.59 6.6
1 4 -2 139.99 14.5
1 4 -2 131.69 7.6
1 4 -2 120.19 8.8
1 4 -2 119.89 6.6
-1 -4 2 133.39 13.4
0 4 -2 1898.61 43.8
0 4 -2 1866.01 31.4
0 4 -2 1901.31 28.7
0 4 -2 1902.81 33.2
0 -4 2 1895.91 31.2
0 -4 2 1859.71 43.5
-1 4 -2 1909.91 32.6
-1 4 -2 1960 34.2
1 -4 2 1997.1 45.2
1 -4 2 1910.91 32.4
-2 4 -2 931.91 20
-2 4 -2 928.11 19.5
2 -4 2 953.1 19.3
2 -4 2 922.91 30.1
-3 4 -2 237.88 10.1
-3 4 -2 244.48 10.9
3 -4 2 245.48 10.8
-4 4 -2 29.5 7.7
-4 4 -2 16.2 4.1
-4 4 -2 15.4 5.1
4 -4 2 11.2 5.1
4 -4 2 15.5 4.2
-5 4 -2 1327.57 32.7
-5 4 -2 1346.57 27.6
-5 4 -2 1356.76 28.7
5 -4 2 1363.46 29.6
-6 4 -2 131.29 15.9
-6 4 -2 122.29 12.2
-6 4 -2 108.59 10.7
-7 4 -2 4.9 10.1
-7 4 -2 -2.1 6.4
-7 4 -2 4.8 5.4
7 -4 2 1.2 6
-8 4 -2 27 15.7
-8 4 -2 20.9 6.3
8 -4 2 15.3 8.4
-9 4 -2 2.2 7.7
-9 4 -2 42.6 18.1
9 -4 2 25 11
-10 4 -2 106.09 29.7
9 3 -2 3.3 12.3
-9 -3 2 34.7 23.5
8 3 -2 17.2 9.8
-8 -3 2 28.7 19
7 3 -2 184.68 9
7 3 -2 187.58 21
7 3 -2 172.68 26.4
-7 -3 2 175.38 24
6 3 -2 78.89 18.6
6 3 -2 46.4 8.1
6 3 -2 84.29 16.3
6 3 -2 57.09 5.7
6 3 -2 60.79 5.6
6 3 -2 63.49 7.1
-6 -3 2 55.09 13.6
5 3 -2 113.99 16.3
5 3 -2 106.69 13.8
5 3 -2 112.49 17
5 3 -2 120.29 7.5
5 3 -2 115.79 6.2
-5 -3 2 103.29 15.3
4 3 -2 700.33 14.7
4 3 -2 637.54 30.7
4 3 -2 702.33 20.8
4 3 -2 717.63 23.8
-4 -3 2 708.43 24.3
3 3 -2 98.59 12.2
3 3 -2 109.89 11.3
3 3 -2 108.19 9
3 3 -2 103.99 5.7
-3 -3 2 99.49 10.9
2 3 -2 0.6 2.6
2 3 -2 0.6 2.1
2 3 -2 1.4 6.9
2 3 -2 -5.7 4.3
1 3 -2 129.69 11.5
1 3 -2 130.09 6.1
1 3 -2 135.29 5.8
-1 -3 2 130.99 10.9
0 3 -2 880.71 17.4
0 3 -2 911.81 14.7
0 3 -2 894.31 16.4
0 -3 2 889.41 16.3
0 -3 2 853.71 23.7
-1 3 -2 479.35 11.9
-1 3 -2 479.15 11.3
1 -3 2 485.45 18.6
1 -3 2 485.95 12.6
-2 3 -2 2293.87 37.8
-2 3 -2 2344.67 38.1
2 -3 2 2315.37 37.7
-3 3 -2 9793.42 144.59
-3 3 -2 9942 145.29
3 -3 2 9908.41 145.09
3 -3 2 9999 144.59
-4 3 -2 2144.49 41.5
-4 3 -2 2090.59 36.1
-4 3 -2 2179.88 37.4
4 -3 2 2134.59 36.2
4 -3 2 2162.48 38.7
-5 3 -2 622.14 21.9
-5 3 -2 599.74 15.2
-5 3 -2 605.04 18.2
5 -3 2 604.54 18.1
-6 3 -2 190.08 12.3
-6 3 -2 161.98 16.4
-6 3 -2 165.08 9.8
6 -3 2 194.88 14.4
-7 3 -2 91.09 12.3
-7 3 -2 110.69 9.6
-7 3 -2 118.29 16.7
7 -3 2 132.59 15.3
-8 3 -2 -0.6 4.5
-8 3 -2 6.4 7.5
8 -3 2 7.2 15.3
-9 3 -2 -0.6 17.1
9 -3 2 -3.2 10.1
-10 3 -2 94.29 24.7
10 -3 2 37.9 15
9 2 -2 22.1 11.4
-9 -2 2 50.89 20.6
8 2 -2 10.5 9.1
-8 -2 2 -15.3 14.3
7 2 -2 -1.1 14.8
7 2 -2 -6.6 7.2
6 2 -2 169.88 7.2
6 2 -2 197.98 16.6
6 2 -2 186.48 7.6
-6 -2 2 165.58 18
5 2 -2 97.59 15
5 2 -2 116.09 6.5
5 2 -2 104.69 6.1
5 2 -2 112.49 12.7
-5 -2 2 109.29 14.5
4 2 -2 39.1 5.4
4 2 -2 54.69 10.3
4 2 -2 47.8 4.8
-4 -2 2 76.69 12.8
3 2 -2 59.79 7.6
3 2 -2 49.1 4.7
3 2 -2 49.1 8.8
-3 -2 2 51.79 8.6
2 2 -2 4188.18 64.09
2 2 -2 4184.58 66.49
2 2 -2 4089.09 69.39
2 2 -2 3808.62 61.59
-2 -2 2 4324.27 67.09
1 2 -2 369.66 8.8
1 2 -2 389.56 15
1 2 -2 383.86 11.2
-1 -2 2 371.56 12.9
0 2 -2 693.63 13.6
0 2 -2 730.63 12.6
0 2 -2 707.03 19.3
0 -2 2 769.02 14.8
0 -2 2 745.43 12.4
-2 2 -2 8067.99 117.19
-3 2 -2 2978.9 47.1
-3 2 -2 3017.5 46.2
-3 2 -2 2992.9 47.7
3 -2 2 2990.1 47.6
-4 2 -2 207.08 13
-4 2 -2 215.98 7.7
-4 2 -2 210.08 9.1
4 -2 2 206.68 10.4
-5 2 -2 42.8 5.2
-5 2 -2 43.6 10.2
-5 2 -2 42.8 6.1
5 -2 2 41.5 6.1
-6 2 -2 889.11 17.8
-6 2 -2 886.11 29
6 -2 2 896.61 23.7
-7 2 -2 -2.3 5.1
-7 2 -2 10.8 11.1
-7 2 -2 1.2 3.3
7 -2 2 -5.6 6.7
-8 2 -2 26.5 8
-8 2 -2 60.39 16.4
-9 2 -2 90.09 12
-9 2 -2 145.99 24.2
9 -2 2 81.69 12.8
-10 2 -2 48.4 23.4
10 -2 2 29.2 15.6
10 1 -2 17.2 15.2
-10 -1 2 38.2 25.8
9 1 -2 1.5 10.7
-9 -1 2 9.2 18.7
8 1 -2 0 8.6
-8 -1 2 3.2 14.8
7 1 -2 192.68 19
-7 -1 2 188.58 8.6
-7 -1 2 181.88 20.4
6 1 -2 18.3 3
6 1 -2 11.2 6.1
-6 -1 2 23 3.2
-6 -1 2 12.5 9.5
5 1 -2 3.8 4.5
5 1 -2 3 8.2
5 1 -2 5.7 2.6
-5 -1 2 -4 7.1
-5 -1 2 4.5 2.4
4 1 -2 1085.29 18.8
4 1 -2 1132.29 18
4 1 -2 1083.29 27.1
4 1 -2 1069.59 25
-4 -1 2 1028.1 26.7
-4 -1 2 1105.89 17.7
3 1 -2 22.2 3.8
3 1 -2 41.4 7
-3 -1 2 29.9 2.7
-3 -1 2 26.8 5.7
2 1 -2 4528.45 70.99
2 1 -2 4575.24 69.69
-2 -1 2 4566.24 71.29
0 1 -2 2161.68 32.1
0 1 -2 2131.19 32.1
-2 1 -2 5522.45 81.69
-2 1 -2 5587.34 81.99
2 -1 2 5592.64 81.89
2 -1 2 5677.03 81.99
-3 1 -2 2335.17 35
-3 1 -2 2298.87 41.8
3 -1 2 2316.97 37.6
-4 1 -2 632.14 12
-4 1 -2 642.74 14.4
-4 1 -2 590.94 19.4
4 -1 2 630.94 15.5
-5 1 -2 11.5 3.2
-5 1 -2 8.6 3.9
-5 1 -2 -5.8 6.8
5 -1 2 -1.5 4.3
-6 1 -2 15.9 10.7
-6 1 -2 13.3 4.8
6 -1 2 9.2 5.8
-7 1 -2 282.47 21.6
-7 1 -2 300.07 13.6
7 -1 2 285.67 16.2
-8 1 -2 2.3 7.1
-8 1 -2 8 13.8
8 -1 2 3.3 10.8
-9 1 -2 232.28 30.6
-9 1 -2 150.08 18.9
9 -1 2 215.48 27.3
-10 1 -2 16.9 24.6
10 -1 2 0.4 14.5
10 0 -2 17 13.6
-10 0 2 25.7 21.8
9 0 -2 9.1 10.2
-9 0 2 55.29 19.8
8 0 -2 0.3 7.7
-8 0 2 7.4 13.8
-8 0 2 -2.6 7.4
7 0 -2 694.63 26.8
-7 0 2 690.13 28.3
6 0 -2 22.9 6.3
6 0 -2 44.8 12.7
-6 0 2 31 9.8
-6 0 2 43.7 5.4
5 0 -2 73.79 5.7
5 0 -2 64.29 10.7
5 0 -2 91.39 12.4
-5 0 2 65.49 11.5
-5 0 2 66.29 4.9
4 0 -2 10.7 2.5
4 0 -2 9.2 4.3
4 0 -2 9.3 6.2
-4 0 2 15 6.3
3 0 -2 10.6 2.2
3 0 -2 4.7 2.6
3 0 -2 9.5 5
-3 0 2 10.3 4.5
2 0 -2 3695.03 56.49
2 0 -2 3676.43 53.99
2 0 -2 3671.83 57.29
-2 0 2 3597.94 57.09
-2 0 -2 1007.1 17.5
-2 0 -2 1006.3 21.2
2 0 2 1010.5 17.7
2 0 2 981.4 17.4
-3 0 -2 760.12 16.9
-3 0 -2 770.22 20.2
3 0 2 771.62 15.5
3 0 2 793.82 15.7
-4 0 -2 436.06 17.2
-4 0 -2 452.05 11.8
4 0 2 451.85 12
4 0 2 468.25 12.8
-5 0 -2 1679.13 39.3
-5 0 -2 1666.63 29.9
5 0 2 1649.93 30.1
-6 0 -2 50.29 11.7
-6 0 -2 38.9 5.4
6 0 2 44.5 6.6
6 0 2 36.6 5.5
-7 0 -2 139.89 11.5
-7 0 -2 159.38 20.5
7 0 2 144.19 14.2
-8 0 -2 193.38 15.3
-8 0 -2 216.68 27.5
8 0 2 208.48 19.1
-9 0 -2 15.3 19.6
9 0 2 1 11
-10 0 -2 34.3 26.4
10 0 2 15.6 15.8
10 -1 -2 28.9 13.6
-10 1 2 28.7 21.4
9 -1 -2 16.3 10
-9 1 2 1.6 4.9
-9 1 2 27.2 16.4
8 -1 -2 14.5 4.3
8 -1 -2 12.9 8
-8 1 2 8 5
-8 1 2 16.6 15.7
7 -1 -2 332.57 17.6
7 -1 -2 258.97 21.1
7 -1 -2 297.17 19.3
7 -1 -2 282.27 10.5
-7 1 2 297.47 10.5
-7 1 2 304.57 20.5
6 -1 -2 56.49 11.8
6 -1 -2 55.49 6.7
6 -1 -2 35.9 6.6
-6 1 2 63.39 11.4
-6 1 2 49.9 5.3
5 -1 -2 1013.1 25.5
5 -1 -2 1024.1 19.6
5 -1 -2 1004.9 27.7
-5 1 2 1016.7 19.7
-5 1 2 997.1 18.3
-5 1 2 983.6 26.5
4 -1 -2 2772.52 48.9
4 -1 -2 2766.52 47.8
-4 1 2 2705.83 43
-4 1 2 2668.73 48.6
-4 1 2 2732.53 41.7
3 -1 -2 432.86 10.3
3 -1 -2 422.66 13.3
3 -1 -2 426.46 12.5
-3 1 2 435.76 10.2
-3 1 2 413.46 12.7
-1 -1 -2 55.79 4.2
-1 -1 -2 62.29 3.1
1 1 2 61.19 3.6
1 1 2 60.99 4.8
1 1 2 47 3.1
-2 -1 -2 307.97 8.3
-2 -1 -2 298.67 11.2
2 1 2 316.07 5.5
2 1 2 301.57 8.4
-3 -1 -2 596.64 17.9
-3 -1 -2 630.34 13.5
3 1 2 623.44 13.7
3 1 2 616.74 18.4
-4 -1 -2 1529.05 35.1
-4 -1 -2 1531.05 27.4
4 1 2 1567.44 27.8
4 1 2 1548.65 27.7
-5 -1 -2 -8.4 7.9
-5 -1 -2 1.6 3.7
5 1 2 1.7 4
5 1 2 0.2 5.1
-6 -1 -2 1942.91 35.2
-6 -1 -2 1963.6 47.8
6 1 2 1931.81 35.4
6 1 2 1974 37.5
-7 -1 -2 6 5.9
-7 -1 -2 14.6 17.4
7 1 2 15.7 7.1
7 1 2 4 4.9
-8 -1 -2 23.1 8.8
-8 -1 -2 45.2 17.9
8 1 2 52.39 10
-9 -1 -2 49.2 29.8
9 1 2 16 12.4
10 -2 -2 -4.4 12.4
-10 2 2 11.5 20.4
9 -2 -2 94.19 13.1
-9 2 2 69.29 8.7
-9 2 2 130.99 23.6
8 -2 -2 16.3 9.4
8 -2 -2 20 6.9
-8 2 2 20.1 5.9
-8 2 2 18.8 12.5
7 -2 -2 29.1 5
7 -2 -2 17.8 6.8
-7 2 2 29.7 10.7
-7 2 2 32.6 5.2
-7 2 2 33.7 5.1
6 -2 -2 19.6 4.3
6 -2 -2 12.7 5.5
6 -2 -2 12.1 5.8
-6 2 2 15.3 4.5
-6 2 2 16.3 4.2
-6 2 2 16.3 8.9
5 -2 -2 59.39 6.4
5 -2 -2 95.99 12.5
5 -2 -2 65.79 10
5 -2 -2 66.69 7.1
-5 2 2 86.09 8.1
-5 2 2 74.39 7.4
-5 2 2 80.49 10.9
4 -2 -2 16.6 4.1
4 -2 -2 11.8 3.5
4 -2 -2 21.4 6.4
4 -2 -2 14.7 3.3
-4 2 2 14.3 5.8
-4 2 2 17.1 3.6
3 -2 -2 3173.28 50.79
3 -2 -2 3168.08 49.7
3 -2 -2 3150.08 49.6
3 -2 -2 3119.89 50.59
-3 2 2 3133.49 49.7
-3 2 2 3242.78 50.99
2 -2 -2 188.28 6.9
2 -2 -2 194.18 7.2
2 -2 -2 189.58 12.8
-2 2 2 182.78 6.2
-2 2 2 190.18 7.6
-2 2 2 191.78 7.7
1 -2 -2 209.18 7.1
1 -2 -2 222.18 6
1 -2 -2 199.18 12.1
1 -2 -2 222.58 7
-1 2 2 221.68 6.5
-1 2 2 213.98 12.9
-1 2 2 208.58 7.4
0 -2 -2 2911.81 42.4
0 -2 -2 2991.6 44.2
0 -2 -2 2979.4 53.79
0 -2 -2 2993.5 45.2
0 2 2 3036.5 45.3
0 2 2 2895.71 44.2
0 2 2 2924.51 53.49
0 2 2 2966.4 45.1
0 2 2 2968.6 42.3
-1 -2 -2 898.31 15.8
-1 -2 -2 911.71 18.3
1 2 2 920.51 16
1 2 2 891.11 18.4
1 2 2 919.11 17.3
1 2 2 878.21 24.6
-2 -2 -2 827.92 19.9
-2 -2 -2 852.91 16.9
2 2 2 816.52 25.4
2 2 2 822.42 16.8
2 2 2 859.81 14.7
2 2 2 831.72 20.1
-3 -2 -2 164.78 11.6
-3 -2 -2 162.68 7.7
3 2 2 171.38 4.8
3 2 2 169.28 8
3 2 2 170.98 12.4
-4 -2 -2 476.85 13.5
-4 -2 -2 494.55 19.7
4 2 2 478.05 20.3
4 2 2 496.35 13.8
-5 -2 -2 25.8 10.1
-5 -2 -2 35.2 5.2
5 2 2 40 12.9
5 2 2 28.1 5.5
5 2 2 30.8 5.1
-6 -2 -2 24.2 5.5
-6 -2 -2 27.2 11.5
6 2 2 28.5 5.4
6 2 2 21.4 5.8
-7 -2 -2 280.97 16.5
-7 -2 -2 314.17 25.8
7 2 2 308.67 16.9
7 2 2 291.97 14.8
-8 -2 -2 -3 16.8
-8 -2 -2 4.7 9.4
8 2 2 -1.4 10.1
8 2 2 5 6.5
-9 -2 -2 0.5 22.1
9 2 2 17.5 13.3
10 -3 -2 6.4 12.5
-10 3 2 14.3 19.5
9 -3 -2 -1.6 8
9 -3 -2 1.8 9.9
-9 3 2 4.6 15.5
-9 3 2 -5.2 8.3
8 -3 -2 8.5 7.6
8 -3 -2 -0.6 5.8
-8 3 2 0.9 6.4
-8 3 2 3.1 5.5
-8 3 2 8.1 12
7 -3 -2 273.97 13
7 -3 -2 293.97 18.2
-7 3 2 263.37 18.9
-7 3 2 289.07 14.1
6 -3 -2 12.1 5.5
6 -3 -2 16.3 6.3
6 -3 -2 9.9 4.8
-6 3 2 19.9 8.7
-6 3 2 17.4 5.2
-6 3 2 15.3 5.2
5 -3 -2 344.37 12.3
5 -3 -2 321.77 13.7
5 -3 -2 328.27 14
-5 3 2 326.07 13
-5 3 2 316.07 14.7
4 -3 -2 422.56 13.4
4 -3 -2 407.86 14.2
4 -3 -2 389.76 12.8
-4 3 2 401.86 13.5
-4 3 2 398.06 12.9
3 -3 -2 67.99 6.9
3 -3 -2 85.59 14.2
3 -3 -2 64.09 6.6
3 -3 -2 71.69 6.5
-3 3 2 62.79 6.1
-3 3 2 66.69 7.8
2 -3 -2 878.71 18.4
2 -3 -2 889.51 17.2
2 -3 -2 888.71 27.4
-2 3 2 897.41 18.8
-2 3 2 906.41 16.5
-2 3 2 881.41 14.8
1 -3 -2 1070.19 29.6
1 -3 -2 1082.79 20.8
1 -3 -2 1084.99 18.2
-1 3 2 1091.49 18.5
-1 3 2 1116.29 21.3
-1 3 2 1105.49 30.2
0 -3 -2 81.49 5.9
0 -3 -2 78.49 3.3
0 3 2 74.69 5.3
0 3 2 70.19 6
0 3 2 71.09 11.4
0 3 2 77.69 3.7
0 3 2 81.59 6
0 3 2 84.69 6.4
-1 -3 -2 440.66 19.8
-1 -3 -2 444.26 12.6
1 3 2 445.76 20
1 3 2 455.75 11.2
1 3 2 444.36 12
1 3 2 446.76 12.9
1 3 2 452.25 8.1
-2 -3 -2 81.59 8.6
2 3 2 91.89 5.8
2 3 2 82.19 13.3
2 3 2 92.19 7
2 3 2 82.89 9.4
-3 -3 -2 704.43 21.8
3 3 2 720.63 17.3
3 3 2 732.53 14.1
3 3 2 708.83 28.5
3 3 2 735.33 22.6
-4 -3 -2 27.1 9.9
4 3 2 29.9 14.3
4 3 2 22.3 4.7
4 3 2 22.6 2.8
4 3 2 27.8 10.4
-5 -3 -2 950.5 30.9
5 3 2 940.11 31.7
5 3 2 967 22.3
5 3 2 942.21 39.6
-6 -3 -2 96.39 15.8
6 3 2 94.59 11.2
6 3 2 100.99 25.2
6 3 2 79.99 7.8
-7 -3 -2 56.49 18.9
7 3 2 22.8 8.2
7 3 2 27 6.7
-8 -3 -2 40.8 22
8 3 2 24.1 11.2
8 3 2 24.4 7.8
-9 -3 -2 18.1 25.9
9 3 2 -4.9 15.4
10 -4 -2 57.69 15.6
-10 4 2 102.69 21.9
9 -4 -2 15.7 11.2
9 -4 -2 7.1 9.6
-9 4 2 27.8 15.5
-9 4 2 29.7 8.7
-9 4 2 5.9 10.2
8 -4 -2 -3.5 8.8
8 -4 -2 4.7 7.6
-8 4 2 -0.5 7.7
-8 4 2 10.1 6.8
-8 4 2 7.1 11.8
7 -4 -2 7.9 6.1
7 -4 -2 5.3 6.1
7 -4 -2 5.9 7.4
-7 4 2 15.5 6.3
-7 4 2 8.2 6.2
-7 4 2 23.3 10.1
6 -4 -2 140.99 13.9
6 -4 -2 137.89 12.8
6 -4 -2 142.99 13.9
-6 4 2 118.49 13
-6 4 2 140.59 12.4
5 -4 -2 227.78 12.3
5 -4 -2 224.18 12.1
5 -4 -2 224.98 13.4
-5 4 2 216.38 12.7
-5 4 2 247.98 13.2
4 -4 -2 2066.69 52.69
4 -4 -2 2137.39 38.3
4 -4 -2 2062.49 36.7
-4 4 2 2070.19 36.6
-4 4 2 2074.79 38.4
3 -4 -2 205.88 19.7
3 -4 -2 225.98 8.9
3 -4 -2 220.38 10
3 -4 -2 204.48 12.1
-3 4 2 220.78 10.9
-3 4 2 219.08 8.2
2 -4 -2 227.98 18.1
2 -4 -2 250.57 10.7
2 -4 -2 235.98 8
2 -4 -2 244.08 8.7
-2 4 2 237.28 7
-2 4 2 244.68 10.8
1 -4 -2 189.28 16.3
1 -4 -2 194.68 9.1
1 -4 -2 197.28 6.6
-1 4 2 191.68 6.9
-1 4 2 173.78 17.3
-1 4 2 185.08 9.7
-1 4 2 199.88 6.4
0 -4 -2 733.83 16.8
0 -4 -2 738.23 27.6
0 -4 -2 736.53 12.9
0 4 2 748.73 13.3
0 4 2 738.83 17.2
0 4 2 732.03 15.3
0 4 2 737.83 27.7
0 4 2 720.73 17.3
0 4 2 748.43 15.6
-1 -4 -2 6.4 4.8
-1 -4 -2 8.5 10.1
-1 -4 -2 5.4 3.2
1 4 2 7.7 2.5
1 4 2 6.1 3.4
1 4 2 2.5 3.3
1 4 2 3.2 6
-2 -4 -2 58.99 9.5
2 4 2 59.69 7.8
2 4 2 60.29 15.2
2 4 2 68.09 7.1
2 4 2 63.79 4.9
2 4 2 56.09 10.4
-3 -4 -2 171.48 13.9
3 4 2 179.38 19.8
3 4 2 172.78 7
3 4 2 171.88 8.3
3 4 2 189.98 10.8
3 4 2 173.18 15.1
-4 -4 -2 371.76 19.9
4 4 2 374.16 25.9
4 4 2 351.56 9.8
4 4 2 379.16 14.2
4 4 2 372.56 27.9
-5 -4 -2 12.8 11.4
5 4 2 12 5.5
5 4 2 15.4 17.2
5 4 2 12.6 15.1
-6 -4 -2 11 14.1
6 4 2 13.5 6.1
6 4 2 11.6 6.1
-7 -4 -2 23.5 17.6
7 4 2 8.5 7.2
7 4 2 19 10.1
-8 -4 -2 1.9 22
8 4 2 -16.2 11.4
8 4 2 0.6 9.1
-10 5 2 41.5 15.1
-10 5 2 78.99 22
9 -5 -2 60.59 12
9 -5 -2 38.6 12.3
-9 5 2 77.99 20.6
-9 5 2 26.7 9.3
8 -5 -2 20.4 9.2
8 -5 -2 19.6 8.5
-8 5 2 38.8 12.9
-8 5 2 26.6 8.7
7 -5 -2 -4.8 8.4
7 -5 -2 -7.1 6.3
7 -5 -2 -4.7 5.8
-7 5 2 4.1 6.9
-7 5 2 0.7 10.8
6 -5 -2 -7.2 7.2
6 -5 -2 -0.7 17
6 -5 -2 1.5 4.7
-6 5 2 2.2 7.2
-6 5 2 -4 5.7
5 -5 -2 120.39 10.5
5 -5 -2 115.19 12.9
5 -5 -2 109.49 11.9
5 -5 -2 128.89 24.6
-5 5 2 105.79 10.2
-5 5 2 116.49 12.5
4 -5 -2 98.79 8.9
4 -5 -2 112.09 11.3
4 -5 -2 96.39 11.2
4 -5 -2 135.79 23
-4 5 2 112.29 12.2
-4 5 2 93.69 8
3 -5 -2 54.19 17.4
3 -5 -2 36.6 5.5
3 -5 -2 43 7
3 -5 -2 41.5 5.4
-3 5 2 36.2 5.9
2 -5 -2 16.5 4.6
2 -5 -2 3.4 12.6
2 -5 -2 15 3.8
-2 5 2 14 5
1 -5 -2 88.79 17.9
1 -5 -2 67.99 5.9
1 -5 -2 59.59 8.9
-1 5 2 80.89 5
-1 5 2 67.89 6.2
-1 5 2 87.69 9.8
-1 5 2 80.79 17.7
0 -5 -2 146.49 18
0 -5 -2 173.58 16.2
0 5 2 146.49 10.9
0 5 2 178.68 10.8
0 5 2 155.18 19.8
0 5 2 168.58 8.5
0 5 2 166.88 6.8
0 5 2 161.88 9
-1 -5 -2 51.99 14.7
1 5 2 50.89 9.9
1 5 2 77.09 17.9
1 5 2 71.19 9
1 5 2 51.89 6.3
2 5 2 3475.75 56.79
2 5 2 3494.45 61.59
2 5 2 3406.26 58.79
2 5 2 3560.74 79.69
2 5 2 3444.66 51.89
-3 -5 -2 36.1 9.8
3 5 2 37.8 11
3 5 2 20.7 4.5
3 5 2 42.9 17.9
3 5 2 18.9 5.5
3 5 2 22.6 3.3
-4 -5 -2 97.39 16.2
4 5 2 94.79 7.4
4 5 2 110.39 12
4 5 2 112.49 25.2
4 5 2 104.59 8.2
4 5 2 95.29 18.1
-5 -5 -2 17.4 12.9
5 5 2 -14.5 15.9
5 5 2 -4.2 4.6
5 5 2 3.7 5.5
5 5 2 6.1 6
5 5 2 11.1 4.3
-6 -5 -2 176.18 27.9
6 5 2 139.69 11.8
6 5 2 133.29 15.7
6 5 2 113.29 14.6
-7 -5 -2 64.29 22.9
7 5 2 58.49 10.7
7 5 2 56.69 12.7
10 -6 -2 17.6 17.9
-10 6 2 25.5 21.6
9 -6 -2 -1.3 11.6
9 -6 -2 -15.5 32.7
-9 6 2 -2.9 17.6
-9 6 2 3.7 11.3
8 -6 -2 24.9 29
8 -6 -2 2.2 11.4
-8 6 2 18.6 11
-8 6 2 25.8 12.8
-8 6 2 -0.6 9.6
7 -6 -2 -4.2 6
7 -6 -2 -2.4 22
7 -6 -2 -0.7 8.6
-7 6 2 6.6 8.9
6 -6 -2 4.7 7.2
6 -6 -2 33.3 21.9
6 -6 -2 16.8 5.4
-6 6 2 32.9 8.2
-6 6 2 16.8 7.6
5 -6 -2 30.7 7.3
5 -6 -2 44.5 26.4
5 -6 -2 41.6 7.7
5 -6 -2 29.9 4.8
-5 6 2 40.5 7.9
-5 6 2 43.9 6.7
4 -6 -2 8.9 5.4
4 -6 -2 7.4 3.6
4 -6 -2 7.5 16.8
4 -6 -2 6.3 6.4
-4 6 2 2.3 6
3 -6 -2 716.33 35.8
3 -6 -2 752.62 19
-3 6 2 750.62 22.4
2 -6 -2 221.78 13.6
2 -6 -2 219.08 24.5
2 -6 -2 237.98 10.3
-2 6 2 281.67 14.9
1 -6 -2 39 6.2
1 -6 -2 47.6 6.6
1 -6 -2 51.49 15.1
-1 6 2 45.5 4.6
-1 6 2 45.4 7
-1 6 2 51.19 18.4
0 -6 -2 42.8 6.4
0 -6 -2 61.89 16.7
0 6 2 60.69 6.3
0 6 2 44.5 6.4
0 6 2 52.49 8.7
0 6 2 77.89 11.4
0 6 2 60.09 7.1
-1 -6 -2 477.85 32
1 6 2 472.35 17.5
1 6 2 468.85 17
1 6 2 463.45 16.7
1 6 2 471.45 31.7
1 6 2 441.86 10.4
1 6 2 465.75 14.8
2 6 2 48.9 19.9
2 6 2 20.3 5.9
2 6 2 20.7 3.3
2 6 2 19 5.5
3 6 2 334.77 16.6
3 6 2 346.57 13.7
3 6 2 364.76 34.3
3 6 2 343.77 9.6
3 6 2 331.37 20.6
4 6 2 84.19 9.4
4 6 2 103.49 17.6
4 6 2 103.49 7.8
4 6 2 105.99 10
5 6 2 16.3 4.7
5 6 2 34.8 6.7
5 6 2 21.7 7.9
5 6 2 13.7 4.9
6 6 2 84.49 11.9
6 6 2 80.49 11.3
6 6 2 82.59 12.3
7 6 2 27.7 12.4
7 6 2 38.8 13.2
9 -7 -2 26.5 39
-9 7 2 36.4 23.7
-9 7 2 2.5 13.6
8 -7 -2 74.99 11.8
-8 7 2 113.19 21
-8 7 2 100.29 14.2
7 -7 -2 20.5 8.1
7 -7 -2 65.49 28.9
-7 7 2 34.7 11
-7 7 2 45.1 10.4
6 -7 -2 -2.1 24.2
6 -7 -2 -3.9 8.9
6 -7 -2 -3.8 5.1
-6 7 2 4.5 6.5
-6 7 2 20.5 8.6
5 -7 -2 65.69 11.7
5 -7 -2 43.7 8.5
-5 7 2 70.29 12.6
4 -7 -2 8.6 10.9
4 -7 -2 5.2 18.8
4 -7 -2 14.9 6.4
-4 7 2 1.7 7.1
3 -7 -2 222.58 13
3 -7 -2 234.38 27.8
-3 7 2 234.68 16.7
2 -7 -2 9.6 5.1
2 -7 -2 13.3 15.8
-2 7 2 3.1 6.1
1 -7 -2 368.16 11.7
1 -7 -2 386.76 30.9
-1 7 2 373.36 18.3
-1 7 2 396.66 18.1
0 -7 -2 191.48 26.1
0 7 2 178.78 14.4
0 7 2 176.38 7.9
0 7 2 186.98 15.3
1 7 2 208.08 30.8
1 7 2 148.19 11.5
1 7 2 142.99 13.7
1 7 2 155.58 13.9
1 7 2 159.88 7
1 7 2 177.38 14.9
2 7 2 44.5 8.4
2 7 2 42.7 7.1
2 7 2 48.6 12.6
2 7 2 33.4 7.2
3 7 2 0.3 12.5
3 7 2 -14.1 13.9
3 7 2 18.8 6.5
4 7 2 11.5 6.5
4 7 2 26.2 7.7
4 7 2 29 9.2
5 7 2 35.3 10.2
5 7 2 31.5 10.6
6 7 2 4 12.9
6 7 2 14.5 15.1
8 -8 -2 79.09 40.7
-8 8 2 12.9 13.8
-7 8 2 119.29 15.1
6 -8 -2 7.8 26.8
-6 8 2 1.1 9.5
5 -8 -2 55.99 27.3
5 -8 -2 19.5 13.7
-5 8 2 1.1 9.6
4 -8 -2 15.4 24
4 -8 -2 -4.3 8.1
-4 8 2 2.9 9.4
3 -8 -2 8.1 20.9
3 -8 -2 -1.3 7.2
-3 8 2 1.7 8.1
2 -8 -2 11 21.2
2 -8 -2 3 9.6
-2 8 2 -8.9 7.6
1 -8 -2 413.96 38
-1 8 2 426.06 21.3
-1 8 2 296.07 33.5
0 -8 -2 -2.8 20.8
0 8 2 18.3 8.1
0 8 2 4.5 9.2
1 8 2 8.9 8.7
1 8 2 10 3.4
1 8 2 9.7 7.8
2 8 2 1.1 4.7
2 8 2 -3.9 8.1
2 8 2 -2.9 7.9
2 8 2 8.7 8.1
3 8 2 3.4 6.7
3 8 2 -5.1 7.9
3 8 2 -4.7 8.7
4 8 2 -12.3 9.7
4 8 2 6.9 8.4
4 8 2 3.2 8.7
5 8 2 16.2 12.5
7 -9 -2 69.49 42.2
-7 9 2 3.1 14.7
6 -9 -2 22.5 29.8
-6 9 2 -8 12.2
5 -9 -2 64.39 31.8
-5 9 2 39 13.2
4 -9 -2 132.49 45.5
3 -9 -2 -8 8.6
3 -9 -2 -0.4 24.6
-3 9 2 -0.1 10.3
2 -9 -2 -6 15.4
2 -9 -2 11.8 25.3
-2 9 2 6 9.9
-2 9 2 2.8 9.2
1 -9 -2 13.9 25.6
-1 9 2 1.8 10.1
-1 9 2 -11.9 9.2
0 -9 -2 22.8 27.7
0 9 2 6 9.8
0 9 2 29.4 10.2
1 9 2 -3.3 9.2
1 9 2 1.6 10.3
2 9 2 62.59 12
2 9 2 38.1 11.5
3 9 2 -9.1 11.4
5 -10 -2 92.89 42.8
-5 10 2 11 15.5
4 -10 -2 3.9 36.4
-4 10 2 -13 13.9
3 -10 -2 96.99 36
-3 10 2 65.79 14.1
-3 10 2 49.4 14.6
2 -10 -2 8.1 32.7
-2 10 2 9.7 13.4
-2 10 2 -1.4 12.5
1 -10 -2 6.3 34
-1 10 2 3.1 12.7
-1 10 2 26.6 13
0 10 2 -3.5 14.7
0 10 2 -11.2 12.1
1 10 2 22.8 14.4
1 10 2 -18.2 13.7
-1 11 -3 1.7 15.2
-1 11 -3 -20.4 15
1 -11 3 17.6 39.5
-2 11 -3 20.4 11.9
-2 11 -3 -11.6 14.9
2 -11 3 6.7 41.4
-3 11 -3 42.5 11.6
-3 11 -3 56.99 18.4
2 10 -3 -1.9 11.3
2 10 -3 -7.6 10.8
1 10 -3 -12.3 10.6
1 10 -3 -3.8 7.9
1 10 -3 22.8 11.1
0 10 -3 5.6 11.1
0 10 -3 10 11.3
0 10 -3 20.9 8.7
0 -10 3 5 31.1
-1 10 -3 30.9 11.9
-1 10 -3 51.49 9.8
1 -10 3 69.49 34.1
-2 10 -3 15.1 9.1
-2 10 -3 3.1 10.9
2 -10 3 23.8 30.9
2 -10 3 17.3 11.8
-3 10 -3 16.6 12
-3 10 -3 36 9.9
3 -10 3 102.19 34.8
-4 10 -3 52.79 10.8
-4 10 -3 45.2 13.4
4 -10 3 82.29 32.8
-5 10 -3 -2.3 13.3
5 -10 3 68.99 39.2
-6 10 -3 -16.1 15.4
6 -10 3 70.49 41.3
4 9 -3 -3.1 10.6
4 9 -3 -8.5 11.2
3 9 -3 40.9 10.6
3 9 -3 50.19 11.9
3 9 -3 25.5 8.6
2 9 -3 32.9 11.1
2 9 -3 39.3 7.8
2 9 -3 33.1 9.4
2 9 -3 67.09 19.2
1 9 -3 8.2 15.6
1 9 -3 4.2 6.7
1 9 -3 -12.9 8.9
1 9 -3 4.5 9.1
-1 -9 3 -0.2 23.9
0 9 -3 43.1 7.5
0 9 -3 44.9 10.6
0 9 -3 61.49 14.6
0 -9 3 43.8 25.2
-1 9 -3 -0.5 9
-1 9 -3 22.9 11.7
-1 9 -3 10.6 6.7
1 -9 3 8.8 23.6
-2 9 -3 365.16 18.3
-2 9 -3 395.46 23.9
-2 9 -3 384.06 20.4
2 -9 3 411.86 42.2
-3 9 -3 33.7 8.1
-3 9 -3 16.6 9.3
3 -9 3 33.4 10.3
3 -9 3 70.69 28
-4 9 -3 13.3 9.5
-4 9 -3 5.1 9.3
4 -9 3 24.8 30.1
-5 9 -3 16.9 11.7
-5 9 -3 7 10.7
5 -9 3 42.6 30.5
-6 9 -3 39.7 13.2
6 -9 3 32 41.8
-7 9 -3 30.9 17.8
-7 9 -3 -0.6 13.3
7 -9 3 31.6 39.3
5 8 -3 -0.9 8.9
5 8 -3 -2 8.4
5 8 -3 0.6 9.3
5 8 -3 -5.2 10.8
4 8 -3 4.8 7
4 8 -3 20.9 8.9
4 8 -3 15.2 7.7
3 8 -3 223.08 14.4
3 8 -3 240.28 30.4
3 8 -3 198.48 20.4
3 8 -3 238.88 17.5
3 8 -3 218.78 17.3
2 8 -3 -4.3 4
2 8 -3 -7.4 6.6
2 8 -3 19.9 12.9
2 8 -3 -1.6 5.2
2 8 -3 0.5 6.5
1 8 -3 33.8 7.9
1 8 -3 40.6 32.2
1 8 -3 44.9 11.5
1 8 -3 25.8 6
-1 -8 3 55.69 27.3
0 8 -3 2.9 6.5
0 8 -3 -31.1 23.9
0 8 -3 5.7 8.8
0 8 -3 -3.3 5.4
0 -8 3 7.8 18.7
-1 8 -3 8.2 5.8
-1 8 -3 -1.5 8.4
-1 8 -3 5.7 6.8
1 -8 3 16.3 17.7
1 -8 3 -3 6.1
-2 8 -3 225.28 18.5
-2 8 -3 231.38 14.5
2 -8 3 197.08 14.8
2 -8 3 245.18 29.9
-3 8 -3 211.58 15
3 -8 3 235.88 55.89
3 -8 3 172.68 15.4
-4 8 -3 5.3 7
-4 8 -3 11.4 7.5
4 -8 3 -3.8 9
4 -8 3 11.8 20.4
-5 8 -3 65.59 10.9
-5 8 -3 93.69 13.8
5 -8 3 129.49 34
5 -8 3 31.2 17.1
-6 8 -3 23 11.6
-6 8 -3 13.5 9.7
6 -8 3 45.2 27.6
-7 8 -3 -1.8 10.6
-7 8 -3 26.5 15.1
7 -8 3 -10 30.9
7 -8 3 -11.3 6
-8 8 -3 15.7 12.9
-8 8 -3 89.39 37.1
8 -8 3 48.1 39.6
6 7 -3 5.1 8
6 7 -3 13.1 10.4
6 7 -3 6.9 11.1
5 7 -3 -3.3 6.7
5 7 -3 -4.6 6.4
5 7 -3 -5.3 6.6
5 7 -3 -12 7
4 7 -3 61.29 16.8
4 7 -3 18.4 6.6
4 7 -3 19.2 6.7
4 7 -3 17.9 6.2
4 7 -3 23.3 6.5
3 7 -3 8.4 5.8
3 7 -3 9.7 5.5
3 7 -3 1 4.5
3 7 -3 -0.1 4.7
3 7 -3 20.2 30.2
3 7 -3 16.8 12
2 7 -3 1.6 5.1
2 7 -3 1.2 5.3
2 7 -3 -2.3 4.5
2 7 -3 -1.3 9
2 7 -3 11.5 26.1
2 7 -3 1.4 3.6
1 7 -3 4.9 4.5
1 7 -3 -1.2 7.5
1 7 -3 6.4 18.5
1 7 -3 -1.7 2.9
1 7 -3 0.3 5
-1 -7 3 10.9 14.8
0 7 -3 200.58 13.9
0 7 -3 167.78 27.3
0 7 -3 199.78 11.4
0 7 -3 197.18 14.2
0 -7 3 223.08 23.9
-1 7 -3 125.49 12.5
-1 7 -3 131.89 11.2
1 -7 3 94.29 21.7
1 -7 3 122.49 10.6
-2 7 -3 121.29 12.5
-2 7 -3 107.69 11.8
2 -7 3 111.69 11
2 -7 3 118.29 24.3
-3 7 -3 245.18 14.7
-3 7 -3 239.38 15.4
3 -7 3 224.98 31.5
3 -7 3 246.38 14.3
-4 7 -3 6.6 6.2
-4 7 -3 -2.4 5.7
4 -7 3 0 6.7
4 -7 3 12.7 19.7
-5 7 -3 4.1 6.7
-5 7 -3 4.7 6.9
-5 7 -3 3.6 9.5
5 -7 3 3.1 3.4
5 -7 3 3.3 25.8
5 -7 3 8.2 4
5 -7 3 13.1 7.8
-6 7 -3 101.59 17.4
-6 7 -3 57.69 11.8
6 -7 3 70.99 11.2
6 -7 3 74.99 29.6
-7 7 -3 200.48 21
-7 7 -3 142.39 19.3
7 -7 3 148.79 32.7
7 -7 3 162.68 17
-8 7 -3 37.4 12.2
8 -7 3 -7.1 37
8 -7 3 28.2 10.7
-9 7 -3 117.89 18.2
9 -7 3 116.39 16.7
7 6 -3 0.2 9.1
7 6 -3 0.3 10.4
6 6 -3 82.29 8.2
6 6 -3 77.89 11
6 6 -3 75.29 11.4
6 6 -3 115.49 14.5
5 6 -3 70.59 8
5 6 -3 84.59 11
5 6 -3 81.19 10.7
5 6 -3 63.09 9
5 6 -3 126.29 29.3
4 6 -3 15.5 5.7
4 6 -3 39.7 18.4
4 6 -3 7.9 7.3
4 6 -3 14.8 5.2
4 6 -3 14.2 5.9
4 6 -3 39.4 12.5
3 6 -3 400.56 30.2
3 6 -3 348.67 14.3
3 6 -3 360.76 14.1
3 6 -3 357.26 13.2
3 6 -3 370.66 15.2
3 6 -3 360.26 24.9
2 6 -3 413.06 15.2
2 6 -3 385.06 14.6
2 6 -3 393.56 13.5
2 6 -3 403.56 27.8
2 6 -3 407.96 13.3
2 6 -3 423.56 18.8
1 6 -3 13.2 4.9
1 6 -3 20.9 8
1 6 -3 18.9 4.6
1 6 -3 25.5 16.3
1 6 -3 11.9 3.2
-1 -6 3 14.4 12.9
0 6 -3 0.3 13.6
0 6 -3 2.3 4.2
0 6 -3 3.1 6.2
0 6 -3 1.3 4.2
0 -6 3 -9.3 12.3
0 -6 3 -5.7 4
-1 6 -3 284.37 13.5
-1 6 -3 279.57 12.3
1 -6 3 265.57 13.1
1 -6 3 253.57 23
-2 6 -3 399.26 15.1
-2 6 -3 402.26 15.6
2 -6 3 385.46 27.5
2 -6 3 387.06 14.2
-3 6 -3 0.6 4.8
-3 6 -3 7.4 5.9
3 -6 3 3.7 15.3
3 -6 3 6.9 6.1
-4 6 -3 47.8 7
-4 6 -3 70.09 8
4 -6 3 60.19 7.5
4 -6 3 65.89 7
4 -6 3 77.39 19
-5 6 -3 85.99 14.6
-5 6 -3 72.09 8.5
-5 6 -3 71.09 8.1
5 -6 3 96.39 9.1
5 -6 3 127.99 25.8
-6 6 -3 235.78 16.3
-6 6 -3 251.27 20.7
-6 6 -3 243.88 19.4
6 -6 3 244.88 18.5
6 -6 3 249.78 14.1
-7 6 -3 424.56 24.4
-7 6 -3 379.86 19.8
7 -6 3 386.46 19.5
-8 6 -3 7.4 8.2
8 -6 3 5.1 8.6
-9 6 -3 88.79 20.6
-9 6 -3 58.69 14.8
9 -6 3 39.9 13.8
8 5 -3 5.3 12.2
7 5 -3 11 5.2
7 5 -3 22.1 10.1
6 5 -3 51.49 22.8
6 5 -3 11.9 8.7
6 5 -3 13.1 5
5 5 -3 85.09 8.7
5 5 -3 82.49 14.1
5 5 -3 98.39 16.8
5 5 -3 59.09 6.8
5 5 -3 70.49 8.7
5 5 -3 99.89 22
4 5 -3 44.1 5.3
4 5 -3 44.8 5.4
4 5 -3 52.29 6
4 5 -3 39.7 6.3
4 5 -3 74.59 13.9
4 5 -3 72.49 19.2
3 5 -3 36.4 15
3 5 -3 33 5
3 5 -3 23.7 4.9
3 5 -3 30.1 4.6
3 5 -3 30.5 9.8
3 5 -3 28.1 4.6
2 5 -3 2 11.6
2 5 -3 0.3 3.2
2 5 -3 0.1 3.8
2 5 -3 3.4 3.5
1 5 -3 120.59 8
1 5 -3 116.99 20.5
1 5 -3 115.19 10.5
1 5 -3 125.19 9.2
1 5 -3 123.09 7.2
-1 -5 3 115.39 15.4
0 5 -3 387.46 12.1
0 5 -3 381.56 8.5
0 5 -3 383.16 22.8
0 5 -3 372.86 12.9
0 -5 3 349.07 21.3
0 -5 3 385.56 11.6
-1 5 -3 2286.37 39.4
-1 5 -3 2337.57 41.4
1 -5 3 2351.26 39.2
1 -5 3 2305.77 54.29
-2 5 -3 549.85 16
-2 5 -3 558.74 15.8
2 -5 3 544.85 27.7
2 -5 3 562.84 15.5
-3 5 -3 494.15 16
-3 5 -3 473.75 16.9
3 -5 3 489.45 27.6
3 -5 3 499.15 15.7
-4 5 -3 202.48 12.8
-4 5 -3 212.48 11.9
4 -5 3 204.68 12.7
-5 5 -3 655.63 18.9
-5 5 -3 631.44 23.3
5 -5 3 669.43 20.9
-6 5 -3 53.79 7.4
-6 5 -3 69.29 12.9
-6 5 -3 50.29 8.1
-7 5 -3 42.2 13.3
-7 5 -3 30.9 7.2
7 -5 3 30.5 7.3
-8 5 -3 9.1 10.2
-8 5 -3 4.7 23.8
-8 5 -3 7.3 7.2
8 -5 3 5.1 8.3
-9 5 -3 2.6 9.6
-9 5 -3 0.1 16.4
9 -5 3 7.4 11.1
10 -5 3 42.5 20.8
9 4 -3 17.8 15.8
8 4 -3 40.3 12.3
7 4 -3 219.18 23.7
7 4 -3 244.28 33.1
7 4 -3 212.18 9.6
6 4 -3 52.09 6.9
6 4 -3 48.2 5.3
6 4 -3 51.79 7.2
6 4 -3 34.9 8.1
6 4 -3 76.69 15.8
6 4 -3 78.59 20.3
5 4 -3 251.27 18.2
5 4 -3 253.77 22.6
5 4 -3 269.57 20.5
5 4 -3 263.17 9.6
5 4 -3 243.18 9.8
4 4 -3 145.99 8.4
4 4 -3 150.38 7.9
4 4 -3 161.48 12.8
4 4 -3 146.59 17.3
4 4 -3 143.49 16.2
3 4 -3 200.68 9
3 4 -3 204.48 12.9
3 4 -3 213.68 18.1
3 4 -3 204.18 8.4
3 4 -3 204.78 14.2
3 4 -3 197.18 10.6
2 4 -3 0.7 5.6
2 4 -3 -0.1 2.8
2 4 -3 -2.8 2.7
2 4 -3 -5.3 8.7
2 4 -3 0.9 2.7
1 4 -3 54.99 5.8
1 4 -3 49.4 5.8
1 4 -3 47.4 11.4
1 4 -3 45.6 6.3
1 4 -3 44 7.7
-1 -4 3 48.1 10.6
0 4 -3 648.94 23.8
0 4 -3 658.63 12.4
0 4 -3 659.53 14.7
0 4 -3 656.43 15.8
0 -4 3 640.44 23.3
0 -4 3 643.14 14.4
-1 4 -3 487.55 12.8
-1 4 -3 501.05 13.7
1 -4 3 487.25 12.4
1 -4 3 487.15 21.7
-2 4 -3 54.29 7.4
2 -4 3 32 4.1
2 -4 3 60.49 14
2 -4 3 48.7 4.9
-3 4 -3 900.91 20.1
-3 4 -3 934.51 21
3 -4 3 953.1 20.8
-4 4 -3 19.5 5
-4 4 -3 23.5 4.5
4 -4 3 22.3 5.4
-5 4 -3 215.88 16.6
-5 4 -3 209.08 10.9
-5 4 -3 205.88 12.7
5 -4 3 219.98 14.2
-6 4 -3 270.77 12.5
-6 4 -3 279.37 14.7
-6 4 -3 273.77 19.1
-7 4 -3 1.3 5.1
-7 4 -3 2.4 11.1
-7 4 -3 15.9 6.9
7 -4 3 16 11
-8 4 -3 23.5 16.1
-8 4 -3 8.7 5.9
8 -4 3 14.8 8.9
-9 4 -3 11.8 18
-9 4 -3 7.8 10.2
-9 4 -3 29.6 8.1
9 -4 3 29.7 11.9
-10 4 -3 78.89 24.8
10 -4 3 53.39 16.1
9 3 -3 4.5 12.9
8 3 -3 23.5 10.2
-8 -3 3 40.3 19.2
7 3 -3 14.9 8
7 3 -3 20.7 18.6
-7 -3 3 31.5 15.8
6 3 -3 197.28 20.7
6 3 -3 178.98 21.2
6 3 -3 184.28 16.7
6 3 -3 175.48 8.4
6 3 -3 193.08 7.5
-6 -3 3 199.58 20
5 3 -3 13.9 11.6
5 3 -3 2.9 2.9
5 3 -3 -4.9 5
5 3 -3 4.9 10.2
-5 -3 3 -5.3 8.8
4 3 -3 2.7 2.5
4 3 -3 -2.6 3.9
4 3 -3 -4.7 7.6
4 3 -3 0 9.3
-4 -3 3 7.3 7.9
3 3 -3 15.5 8.2
3 3 -3 18.3 6.9
3 3 -3 7.5 3.6
3 3 -3 14.3 2.6
2 3 -3 2424.06 48
2 3 -3 2352.76 38.6
2 3 -3 2363.56 40.3
2 3 -3 2373.56 43.7
1 3 -3 817.62 16.4
1 3 -3 874.41 16.8
1 3 -3 869.61 27.2
-1 -3 3 861.21 23.3
0 3 -3 3873.41 68.79
0 3 -3 4026.6 58.49
0 3 -3 3907.81 59.89
0 -3 3 3993.4 68.49
0 -3 3 4015 58.39
-1 3 -3 317.27 9.5
-1 3 -3 317.47 9.7
1 -3 3 354.06 16.3
1 -3 3 331.57 9.3
1 -3 3 338.97 7.6
-2 3 -3 1183.78 22.1
-2 3 -3 1130.89 21.6
2 -3 3 1144.59 21.7
-3 3 -3 746.83 17.4
-3 3 -3 750.52 16.2
3 -3 3 762.32 17.3
-4 3 -3 1351.76 25.1
-4 3 -3 1328.07 30.5
-4 3 -3 1371.86 26.8
-4 3 -3 1351.16 27.2
-5 3 -3 281.87 10.6
-5 3 -3 278.17 17.5
-5 3 -3 262.07 12.8
5 -3 3 274.07 13.8
-6 3 -3 630.04 18.7
-6 3 -3 633.64 16
-6 3 -3 602.64 24.8
6 -3 3 638.04 21
-7 3 -3 -0.2 5.8
-7 3 -3 1.8 4.2
-7 3 -3 0.4 10.3
7 -3 3 9.3 7.9
-8 3 -3 37 14.6
-8 3 -3 24.6 5.1
-8 3 -3 12.3 8.7
-9 3 -3 -15.2 9.5
-9 3 -3 -5 16.7
9 -3 3 1.1 10
-10 3 -3 107.29 26.5
10 -3 3 65.99 15.5
9 2 -3 9 11.3
-9 -2 3 2.1 19.8
8 2 -3 12 8.7
-8 -2 3 23.5 15.8
7 2 -3 535.15 26
7 2 -3 493.95 11.8
6 2 -3 26.3 6.7
-6 -2 3 29 12.2
5 2 -3 40.8 6.8
5 2 -3 50.49 10.6
-5 -2 3 50.79 10.9
4 2 -3 856.11 25.7
4 2 -3 901.61 23
-4 -2 3 870.81 25.2
3 2 -3 4.1 1.9
3 2 -3 -0.8 2.9
3 2 -3 2.3 5.7
3 2 -3 4.2 6.3
-3 -2 3 -0.6 5.5
2 2 -3 18.1 5.1
2 2 -3 10.1 2.8
2 2 -3 19.5 6.2
1 2 -3 1930.11 31.5
1 2 -3 1990.5 31
1 2 -3 1987.2 35.5
-1 -2 3 1770.92 37.9
-1 -2 3 1970.8 32.2
0 2 -3 758.62 13.9
0 2 -3 749.13 14.1
0 -2 3 772.92 13.6
0 -2 3 752.42 13.9
0 -2 3 654.53 20.4
-1 2 -3 1169.78 20.7
1 -2 3 1182.18 20.6
1 -2 3 1210.98 20.3
-2 2 -3 0.4 2.5
-2 2 -3 -1.3 2.7
-2 2 -3 -1.2 2.1
2 -2 3 2.4 2.5
-3 2 -3 393.36 9.7
-3 2 -3 404.66 11.3
-3 2 -3 387.06 11.5
3 -2 3 398.86 11.7
-4 2 -3 1144.29 22.8
-4 2 -3 1129.79 28.1
-4 2 -3 1154.88 20.6
4 -2 3 1170.18 23.8
-5 2 -3 11.6 4.6
-5 2 -3 15.4 3.3
-5 2 -3 21.5 9.7
5 -2 3 15.2 5.4
-6 2 -3 2 3.1
-6 2 -3 8.1 4.9
-6 2 -3 7.5 10.4
6 -2 3 6.2 6.2
-7 2 -3 90.29 6.8
-7 2 -3 106.59 11.9
-7 2 -3 93.79 15.8
7 -2 3 88.29 10.2
-8 2 -3 171.28 23.4
-8 2 -3 161.98 16.4
-9 2 -3 10 18
-10 2 -3 93.49 26.2
10 -2 3 54.59 22.3
10 1 -3 49.99 16.3
-10 -1 3 47 28
9 1 -3 11.3 10.8
-9 -1 3 36.1 18.8
8 1 -3 5.7 8.7
-8 -1 3 5.4 14.8
7 1 -3 30.5 7.8
7 1 -3 52.89 16.5
-7 -1 3 44.8 14
6 1 -3 747.73 25.2
6 1 -3 789.82 17
6 1 -3 784.32 27.7
-6 -1 3 754.42 27.7
5 1 -3 93.89 13
5 1 -3 88.39 11.7
-5 -1 3 79.69 12.8
4 1 -3 159.18 12.8
4 1 -3 157.48 6.8
4 1 -3 154.88 10.8
-4 -1 3 162.98 12
3 1 -3 5.1 5.3
3 1 -3 4.6 2.9
-3 -1 3 8.4 5.4
2 1 -3 570.04 15.3
2 1 -3 569.84 13.8
-2 -1 3 571.54 13.7
0 1 -3 437.96 9.9
0 1 -3 391.46 8.8
0 1 -3 414.46 8.5
0 -1 3 415.86 8.6
0 -1 3 422.66 8.6
0 -1 3 419.06 9.6
-1 1 -3 142.79 6.3
1 -1 3 150.18 5.9
-2 1 -3 832.62 15.8
-2 1 -3 840.72 15.9
2 -1 3 828.82 15.8
-3 1 -3 3 1.7
-3 1 -3 7.3 5.2
-3 1 -3 5.8 3.1
-3 1 -3 3.4 2.6
3 -1 3 0.4 2.7
3 -1 3 4.3 3
-4 1 -3 107.99 7.4
-4 1 -3 101.79 4.7
-4 1 -3 84.69 11.5
4 -1 3 94.99 7.5
4 -1 3 91.79 8.4
-5 1 -3 175.18 15.7
-5 1 -3 198.58 9.9
-5 1 -3 205.48 6.1
5 -1 3 201.88 11.8
-6 1 -3 719.23 27.1
-6 1 -3 757.82 19.4
6 -1 3 763.62 21.2
-7 1 -3 11.5 5.7
-7 1 -3 15.1 12.8
7 -1 3 15.1 7.2
-8 1 -3 -8.5 7.6
-8 1 -3 -1.4 15.4
-9 1 -3 13.9 18.8
-10 1 -3 70.49 26.9
10 -1 3 32.1 15.5
10 0 -3 54.49 15.6
-10 0 3 86.49 24.9
9 0 -3 -4.2 9.9
-9 0 3 -3 16.3
8 0 -3 470.55 14.1
8 0 -3 484.85 25.9
-8 0 3 533.95 29.6
7 0 -3 176.48 12
7 0 -3 154.18 17.3
-7 0 3 167.28 8.1
-7 0 3 159.38 18.9
6 0 -3 142.79 14.3
6 0 -3 151.18 17
6 0 -3 155.18 8.3
-6 0 3 149.88 5.7
-6 0 3 152.58 15.8
5 0 -3 5.4 8.4
5 0 -3 -2 3.8
-5 0 3 1.1 6.7
-5 0 3 5.2 1.9
4 0 -3 4963.7 79.59
4 0 -3 5317.37 85.89
4 0 -3 5345.77 85.19
-4 0 3 5339.67 74.79
-4 0 3 5155.48 84.99
3 0 -3 180.28 6.7
3 0 -3 197.98 10
3 0 -3 188.98 9.2
-3 0 3 188.78 9.8
2 0 -3 1978 31.4
2 0 -3 1990.1 34
2 0 -3 2016.9 33.7
-2 0 3 2006.3 34.2
-2 0 3 1962.4 28.7
-2 0 3 2005.8 33.5
1 0 -3 256.57 7
1 0 -3 260.97 5.4
1 0 -3 244.78 6.8
-1 0 3 269.77 5.6
0 0 3 4529.85 67.09
-1 0 -3 654.23 12.6
-1 0 -3 627.34 11.5
1 0 3 641.64 11.4
1 0 3 641.34 12.7
-2 0 -3 75.29 5
-2 0 -3 84.49 5.5
-2 0 -3 100.89 8.2
2 0 3 83.69 5.2
2 0 3 79.79 5.6
-3 0 -3 99.29 10
-3 0 -3 106.79 6.6
3 0 3 114.39 6.9
3 0 3 108.69 6.8
-4 0 -3 101.89 7.3
-4 0 -3 95.49 11.7
4 0 3 90.49 7.8
4 0 3 102.89 7.7
-5 0 -3 101.69 8.5
-5 0 -3 72.09 13.5
5 0 3 85.79 9.1
-6 0 -3 380.26 14
-6 0 -3 369.56 22
6 0 3 373.86 15.5
6 0 3 354.46 13.7
-7 0 -3 65.19 7.3
-7 0 -3 78.59 16.2
7 0 3 67.49 8.7
-8 0 -3 8.3 7.8
-8 0 -3 27.1 16.9
8 0 3 -15.4 8.6
-9 0 -3 126.39 25.1
-10 0 -3 62.19 29.1
10 0 3 71.09 20.3
10 -1 -3 91.49 16.1
-10 1 3 126.69 25.1
9 -1 -3 102.19 12.5
9 -1 -3 99.19 13.5
-9 1 3 169.88 27
8 -1 -3 -3.4 7.4
8 -1 -3 -4.5 4.5
8 -1 -3 -24.8 15.8
-8 1 3 6.9 12.6
7 -1 -3 59.19 13.8
7 -1 -3 54.79 5.5
7 -1 -3 52.69 8.1
-7 1 3 76.59 14.2
6 -1 -3 157.58 14.3
6 -1 -3 174.48 9.1
6 -1 -3 178.78 17.1
-6 1 3 176.88 7.6
-6 1 3 157.28 15.5
5 -1 -3 87.09 7
5 -1 -3 76.39 10.4
5 -1 -3 69.49 12.5
-5 1 3 69.99 10.5
-5 1 3 77.99 5.9
-5 1 3 79.49 7.6
4 -1 -3 2421.86 44.2
4 -1 -3 2401.56 43.2
4 -1 -3 2426.96 39.4
-4 1 3 2411.56 44.1
-4 1 3 2423.96 39.5
3 -1 -3 1883.21 33.5
3 -1 -3 1876.41 33.3
-3 1 3 1863.61 33.5
-3 1 3 1824.82 30.9
-3 1 3 1890.41 33.3
-2 1 3 9023.4 130.39
1 -1 -3 60.69 5.1
1 -1 -3 37.5 7.4
-1 1 3 43.1 8.4
-1 1 3 63.89 5.5
0 -1 -3 32.9 2.1
0 -1 -3 42 4.4
0 -1 -3 35.2 4
0 1 3 37.4 6.3
0 1 3 40.7 4.5
0 1 3 37 7.5
-1 -1 -3 34.4 3.5
-1 -1 -3 35.9 4.4
-1 -1 -3 42.8 6.2
1 1 3 38.6 2.7
1 1 3 37.8 4.8
1 1 3 30.8 3.9
-2 -1 -3 5131.69 81.79
-2 -1 -3 5282.37 78.49
-2 -1 -3 5283.67 74.79
2 1 3 5246.38 75.89
2 1 3 5231.18 78.19
-3 -1 -3 744.83 20.9
-3 -1 -3 749.92 16
3 1 3 764.72 16.4
3 1 3 764.52 16.9
-4 -1 -3 1.1 7.2
-4 -1 -3 8.6 3.6
4 1 3 6.5 3.7
4 1 3 9.1 3.7
-5 -1 -3 173.18 17.1
-5 -1 -3 193.58 10.3
5 1 3 198.08 10.9
-6 -1 -3 308.17 21.6
-6 -1 -3 335.97 13.3
6 1 3 328.37 14.1
6 1 3 320.97 13.3
-7 -1 -3 57.49 7.8
-7 -1 -3 74.59 17.3
7 1 3 58.29 7.2
7 1 3 61.19 8.6
-8 -1 -3 -20 15.5
-8 -1 -3 -2.9 9.9
8 1 3 2.2 9.1
-9 -1 -3 46.4 22
10 -2 -3 -9.4 13.3
-10 2 3 -1.4 19.7
9 -2 -3 -0.1 9.7
9 -2 -3 12.7 8.1
-9 2 3 -12.4 5.6
-9 2 3 -3 16.8
8 -2 -3 18.9 9.9
8 -2 -3 17.2 6
-8 2 3 28.3 5.7
-8 2 3 47.9 14.1
7 -2 -3 223.58 17.5
-7 2 3 220.08 18.4
-7 2 3 210.98 11.9
-7 2 3 208.28 10.3
6 -2 -3 20.4 4.9
6 -2 -3 18.2 5.9
6 -2 -3 18.4 5.9
6 -2 -3 22.4 10.3
-6 2 3 30.2 8.9
-6 2 3 24.6 5
-6 2 3 27.5 4.4
5 -2 -3 1170.48 27.9
5 -2 -3 1114.59 26.6
5 -2 -3 1122.49 22.8
-5 2 3 1110.39 27.2
-5 2 3 1106.89 23.2
4 -2 -3 330.97 13
4 -2 -3 326.87 12.2
4 -2 -3 326.27 10.8
-4 2 3 330.07 11.2
-4 2 3 321.57 12.4
3 -2 -3 2237.08 36.9
3 -2 -3 2185.68 37.6
3 -2 -3 2191.18 37
-3 2 3 2165.88 36.9
-3 2 3 2209.18 36.9
-3 2 3 2227.28 37.7
2 -2 -3 256.47 14
2 -2 -3 269.47 8.7
2 -2 -3 262.07 7.1
2 -2 -3 258.47 8.8
-2 2 3 249.78 8.8
-2 2 3 270.37 8.4
1 -2 -3 2397.86 45.9
1 -2 -3 2460.15 36
-1 2 3 2412.86 38.4
-1 2 3 2471.25 46.1
-1 2 3 2376.86 38.1
-1 2 3 2343.37 38
0 -2 -3 2723.73 42
0 -2 -3 2712.13 41.2
0 -2 -3 2720.03 50.99
0 2 3 2661.43 42.6
0 2 3 2681.73 42.7
0 2 3 2778.12 44.4
0 2 3 2672.83 66.29
-1 -2 -3 1200.48 23.1
-1 -2 -3 1245.48 22.4
-1 -2 -3 1229.38 20.7
1 2 3 1233.48 20.7
1 2 3 1190.98 22.2
-2 -2 -3 469.45 15
-2 -2 -3 466.25 9.6
-2 -2 -3 466.25 12.1
2 2 3 469.15 20
2 2 3 474.85 9.3
2 2 3 467.35 12.3
-3 -2 -3 721.53 16.5
-3 -2 -3 696.23 21.1
3 2 3 702.63 22.8
3 2 3 727.83 12.3
3 2 3 698.03 16.5
3 2 3 711.43 14.2
-4 -2 -3 -3.4 7.4
-4 -2 -3 6.1 4
4 2 3 4 4
4 2 3 3.5 3.7
-5 -2 -3 280.17 19.2
-5 -2 -3 298.37 12.7
5 2 3 300.07 12.2
5 2 3 284.07 12.6
-6 -2 -3 16.7 5.7
-6 -2 -3 19.2 12.2
6 2 3 13 5.4
6 2 3 13.5 5.4
-7 -2 -3 209.68 17.1
-7 -2 -3 217.08 25.5
7 2 3 220.98 14
7 2 3 223.68 15.8
-8 -2 -3 -12.4 15.9
-8 -2 -3 -17.3 9.8
8 2 3 9.5 10.4
8 2 3 -4.5 12
-9 -2 -3 36.7 26.3
9 2 3 17 15
10 -3 -3 39.5 14
-10 3 3 11.4 20.2
9 -3 -3 1.1 8.9
9 -3 -3 4.5 9.8
-9 3 3 19.8 15.8
-9 3 3 14 8.3
8 -3 -3 2.3 7.8
8 -3 -3 1.2 6.1
-8 3 3 13.5 11.8
-8 3 3 10.8 7.3
-8 3 3 11.9 6.5
7 -3 -3 27.5 5.9
7 -3 -3 21.8 7
-7 3 3 29.6 6
-7 3 3 26.1 6
-7 3 3 47.2 11.2
6 -3 -3 29.9 6.2
6 -3 -3 40 7.2
6 -3 -3 36.1 5.6
-6 3 3 39.7 6.1
-6 3 3 48.7 9.3
5 -3 -3 19.6 5.8
5 -3 -3 17.8 4.7
-5 3 3 25.9 7.1
-5 3 3 19.3 5
4 -3 -3 134.09 9.3
4 -3 -3 138.59 9.3
4 -3 -3 144.79 9.9
-4 3 3 138.19 9.7
-4 3 3 126.69 8.7
3 -3 -3 95.89 7.2
3 -3 -3 97.09 14.5
3 -3 -3 98.09 7.1
3 -3 -3 92.09 7.4
-3 3 3 69.09 7.7
-3 3 3 105.39 8.2
2 -3 -3 713.43 16.5
2 -3 -3 743.83 14.7
2 -3 -3 738.13 15.5
2 -3 -3 714.83 24.8
-2 3 3 754.12 15.2
-2 3 3 737.93 17
1 -3 -3 644.44 23
1 -3 -3 645.24 14.9
1 -3 -3 643.34 14.1
1 -3 -3 653.83 11.9
-1 3 3 667.13 15.4
-1 3 3 665.53 14.8
-1 3 3 633.74 23
0 -3 -3 905.21 18.2
0 -3 -3 884.41 27.4
0 -3 -3 937.61 16.7
0 3 3 908.51 18.2
0 3 3 899.41 27.8
0 3 3 922.31 18.4
0 3 3 888.71 18.8
-1 -3 -3 524.65 13.8
-1 -3 -3 530.75 12.3
1 3 3 513.65 13.5
1 3 3 514.95 22
1 3 3 526.75 12.5
1 3 3 514.85 14
-2 -3 -3 118.79 6.2
-2 -3 -3 130.09 9.7
2 3 3 132.99 10.6
2 3 3 129.09 6.5
2 3 3 114.59 8
2 3 3 105.69 16.1
-3 -3 -3 8.6 4.2
-3 -3 -3 -0.8 7
3 3 3 3.1 3.7
3 3 3 11.5 8.3
3 3 3 -5.3 9.2
3 3 3 7.7 2.8
-4 -3 -3 78.19 13.6
-4 -3 -3 77.59 9.9
4 3 3 86.09 18.5
4 3 3 72.09 7.4
4 3 3 90.29 15.5
4 3 3 68.19 9.6
-5 -3 -3 759.72 20.4
-5 -3 -3 745.53 27.8
5 3 3 667.23 35.1
5 3 3 726.43 17.9
5 3 3 729.43 19.9
-6 -3 -3 107.69 17.5
6 3 3 86.49 11.6
6 3 3 105.99 25
6 3 3 61.19 7.1
-7 -3 -3 76.59 19.3
7 3 3 55.49 9.9
7 3 3 71.29 10.1
-8 -3 -3 55.19 22.3
8 3 3 62.59 9.8
9 3 3 2.9 22.7
-10 4 3 79.39 21.4
9 -4 -3 7.7 11
9 -4 -3 4.5 10.8
-9 4 3 22.8 15.5
-9 4 3 13.6 9
-9 4 3 7.7 9.7
8 -4 -3 8.1 7.3
8 -4 -3 15 8.3
-8 4 3 7.2 7.3
-8 4 3 10.7 6.9
-8 4 3 0.2 10.7
7 -4 -3 14.8 6.5
7 -4 -3 20.4 8.3
7 -4 -3 19.8 6.6
-7 4 3 33.9 10
-7 4 3 14.6 6.5
6 -4 -3 140.99 13.4
6 -4 -3 127.99 13.8
-6 4 3 141.99 12.6
-6 4 3 126.99 12.3
5 -4 -3 661.33 19.2
5 -4 -3 662.73 19.1
5 -4 -3 667.53 19.5
5 -4 -3 665.33 32.4
-5 4 3 654.93 18.7
-5 4 3 661.73 19.6
4 -4 -3 49 8.2
4 -4 -3 34.9 5.1
4 -4 -3 36.3 6.8
4 -4 -3 56.49 16.4
-4 4 3 30.6 6
-4 4 3 47 6.1
3 -4 -3 117.79 9.2
3 -4 -3 111.49 8.7
3 -4 -3 125.69 8.3
3 -4 -3 98.49 17.8
-3 4 3 114.09 10.5
-3 4 3 111.49 8.4
2 -4 -3 2064.79 49.9
2 -4 -3 2113.99 34.4
2 -4 -3 2126.99 37.5
2 -4 -3 2087.79 34.3
-2 4 3 2090.09 33.9
-2 4 3 2034.8 49
-2 4 3 2096.99 37.6
1 -4 -3 1661.73 30.3
1 -4 -3 1605.64 25.8
1 -4 -3 1612.04 42.7
-1 4 3 1604.54 27.3
-1 4 3 1623.74 42.7
-1 4 3 1601.94 30.3
0 -4 -3 6.2 9.6
0 -4 -3 4.3 3.4
0 4 3 4.8 3.6
0 4 3 2.2 3.4
0 4 3 4.3 3
0 4 3 2.5 11.1
-1 -4 -3 93.29 7.4
-1 -4 -3 87.59 7.9
1 4 3 99.69 16.5
1 4 3 102.19 8.5
1 4 3 99.89 12.6
1 4 3 94.69 7.8
-2 -4 -3 -0.3 5.9
2 4 3 2.3 11.1
2 4 3 5.5 2
2 4 3 2.9 3.8
2 4 3 0.5 3.4
-3 -4 -3 790.12 24.2
3 4 3 759.92 34
3 4 3 767.42 16.5
3 4 3 770.82 14.7
3 4 3 775.62 20.4
3 4 3 833.42 37.2
-4 -4 -3 877.01 28.4
4 4 3 863.41 22.1
4 4 3 830.92 28.4
4 4 3 821.62 16.2
4 4 3 851.51 17.4
4 4 3 825.92 37.9
-5 -4 -3 51.19 14
5 4 3 24.2 6.2
5 4 3 49.2 21.1
5 4 3 32.3 5.3
-6 -4 -3 1.5 14.6
6 4 3 -2.1 6.7
6 4 3 -0.6 6
-7 -4 -3 138.69 24.2
7 4 3 85.09 10.3
7 4 3 92.89 17.6
-8 -4 -3 60.99 25.9
10 -5 -3 -9.6 14.7
-10 5 3 -1.6 15
-10 5 3 15.4 20.2
9 -5 -3 -2.6 15.7
-9 5 3 11.3 10
8 -5 -3 -28.6 24.4
8 -5 -3 12.7 8.1
8 -5 -3 9.5 9.3
-8 5 3 -2 9.6
-8 5 3 17 11.8
-8 5 3 7.5 8.2
7 -5 -3 46.4 23.1
7 -5 -3 42.5 7.7
7 -5 -3 39.5 8.4
7 -5 -3 25.8 9.3
-7 5 3 60.59 11.4
-7 5 3 35.8 8.3
6 -5 -3 110.19 13
6 -5 -3 106.79 26.9
6 -5 -3 101.79 13.4
6 -5 -3 116.19 12.5
-6 5 3 101.49 14.1
-6 5 3 114.49 11.4
5 -5 -3 178.08 13.2
5 -5 -3 180.28 13.4
5 -5 -3 167.78 11.6
5 -5 -3 168.88 25.8
-5 5 3 151.88 9.9
-5 5 3 188.78 14.2
4 -5 -3 367.16 28.6
4 -5 -3 415.46 14.8
4 -5 -3 381.06 16
4 -5 -3 385.36 13.3
-4 5 3 417.16 16.9
-4 5 3 328.27 11.7
3 -5 -3 15.3 4.9
3 -5 -3 15.5 3.9
3 -5 -3 15 5.2
3 -5 -3 10.7 12.9
-3 5 3 22.7 5.7
2 -5 -3 632.94 18.1
2 -5 -3 597.74 29.8
2 -5 -3 622.64 14.4
-2 5 3 641.34 18.8
-2 5 3 626.04 13.1
-2 5 3 632.04 30.6
1 -5 -3 115.79 18.5
1 -5 -3 132.79 10
1 -5 -3 126.49 6.2
-1 5 3 141.49 10.9
-1 5 3 137.79 7.1
-1 5 3 113.99 10.2
-1 5 3 123.39 20.4
0 -5 -3 648.14 29.9
0 -5 -3 643.24 17.7
0 5 3 653.83 18
0 5 3 653.03 30.9
0 5 3 631.34 16.2
0 5 3 646.54 18.5
1 5 3 717.13 19.9
1 5 3 715.03 18.7
1 5 3 715.13 19.7
1 5 3 728.63 19
1 5 3 727.23 33.5
-2 -5 -3 32 8.3
2 5 3 20.6 9.1
2 5 3 15.4 5.4
2 5 3 23 5.1
2 5 3 21.3 15.4
-3 -5 -3 672.73 23.3
3 5 3 648.14 12.8
3 5 3 646.64 19.9
3 5 3 673.73 37.3
3 5 3 641.04 16.3
3 5 3 614.24 23.6
-4 -5 -3 26.1 11.5
4 5 3 20.5 4.3
4 5 3 14.5 4.1
4 5 3 5.8 5.8
4 5 3 53.89 23.3
4 5 3 18.1 3.4
-5 -5 -3 2.3 12.6
5 5 3 10.9 6.6
5 5 3 0.3 5.1
5 5 3 9.7 4.3
-6 -5 -3 60.89 18.8
6 5 3 30.3 10.2
6 5 3 27.8 8.5
6 5 3 34.2 6.1
-7 -5 -3 -6.3 21.1
7 5 3 -13.5 9.4
10 -6 -3 -7.1 40.7
-10 6 3 9 17.8
-10 6 3 14.5 21.7
9 -6 -3 19.2 33
9 -6 -3 -10.1 12.3
-9 6 3 5.2 11.4
-9 6 3 1.7 16.6
8 -6 -3 85.89 11.7
8 -6 -3 131.99 33.3
-8 6 3 136.49 19
-8 6 3 114.49 13.6
7 -6 -3 28 7.2
7 -6 -3 62.39 26.5
-7 6 3 48.3 10.4
-7 6 3 41.3 9.5
6 -6 -3 144.59 31.2
6 -6 -3 114.89 16.9
6 -6 -3 103.39 12.9
-6 6 3 120.99 16.2
-6 6 3 129.59 11
5 -6 -3 229.98 15.1
5 -6 -3 233.68 30.4
5 -6 -3 227.98 12.1
5 -6 -3 240.38 16.8
-5 6 3 249.78 16.5
-5 6 3 234.28 9.5
4 -6 -3 113.29 14
4 -6 -3 113.39 11.4
4 -6 -3 118.49 9.1
4 -6 -3 122.99 25.2
-4 6 3 130.39 13.9
3 -6 -3 90.09 9.9
3 -6 -3 112.89 22.8
-3 6 3 98.69 13.2
2 -6 -3 -7.9 12.5
2 -6 -3 3.4 5.2
2 -6 -3 5.8 3.8
-2 6 3 -1.9 5.5
-2 6 3 1.1 16.4
1 -6 -3 353.16 11.1
1 -6 -3 349.96 26.7
1 -6 -3 346.97 15.6
-1 6 3 336.67 15.4
-1 6 3 338.17 9.3
-1 6 3 332.07 15.9
0 -6 -3 846.52 37.5
0 -6 -3 844.82 22.1
0 6 3 825.02 22.5
0 6 3 802.22 22.7
0 6 3 799.82 22.3
1 6 3 11.2 4.7
1 6 3 13.4 5.4
1 6 3 5.5 5.5
2 6 3 59.89 20
2 6 3 44.8 7.2
2 6 3 75.89 10.7
3 6 3 66.99 8.3
3 6 3 75.19 10.1
3 6 3 114.39 29.9
4 6 3 10.8 4.9
4 6 3 5.7 7
5 6 3 15.2 4.3
5 6 3 16.8 8
5 6 3 11.3 4.1
6 6 3 -8.3 11.2
9 -7 -3 17 36.2
8 -7 -3 74.59 13.2
-8 7 3 81.09 14
7 -7 -3 -8.5 7.5
7 -7 -3 1.7 25.8
-7 7 3 8.9 9.5
-7 7 3 -4.8 9.8
6 -7 -3 1 9.2
6 -7 -3 15.5 23.1
6 -7 -3 -3.1 5.3
-6 7 3 15.1 9.6
5 -7 -3 1.8 7.4
5 -7 -3 -2.3 3.8
5 -7 -3 13.3 37
-5 7 3 0.6 7.5
4 -7 -3 87.29 8.8
4 -7 -3 115.49 26.3
-4 7 3 86.09 11.4
3 -7 -3 -8.8 16
3 -7 -3 -3 5.6
-3 7 3 1.2 7
2 -7 -3 0.8 5.1
2 -7 -3 -9.9 15.4
-2 7 3 3.4 6.7
1 -7 -3 17.2 4.5
1 -7 -3 29.5 18.9
-1 7 3 17.4 6.9
-1 7 3 21.6 7
0 -7 -3 12 16.8
0 7 3 16.8 3.9
0 7 3 13.4 6.6
0 7 3 10.1 6.6
1 7 3 6.9 6.3
1 7 3 2.1 5
1 7 3 -5.9 25.9
1 7 3 7.5 6.5
2 7 3 25.8 12.5
2 7 3 10.8 6.4
2 7 3 7 6.7
3 7 3 134.39 16.9
3 7 3 113.79 12.7
4 7 3 72.99 8.2
4 7 3 69.59 11.5
5 7 3 10.1 9.5
5 7 3 24 11.9
8 -8 -3 60.89 38.2
-8 8 3 7.6 14.2
7 -8 -3 21.8 30.5
-7 8 3 13.1 12.4
6 -8 -3 163.88 36.7
-6 8 3 94.69 13.1
5 -8 -3 51.59 26.3
-5 8 3 28.9 10.2
4 -8 -3 36 9.2
4 -8 -3 32.4 26.9
-4 8 3 30.1 10.7
3 -8 -3 28 23.4
3 -8 -3 8.2 7.3
-3 8 3 5.6 9.3
2 -8 -3 -4.4 5.7
2 -8 -3 15.7 21.9
-2 8 3 -0.1 8
-2 8 3 10.3 7.9
1 -8 -3 36.1 24.1
-1 8 3 35.3 9.6
-1 8 3 24.9 8.9
0 -8 -3 -3.7 22.1
0 8 3 -0.2 9
1 8 3 107.09 9.5
1 8 3 116.19 14
1 8 3 89.09 11.5
1 8 3 78.99 13
2 8 3 0.4 8.1
2 8 3 -5.8 9.2
2 8 3 -0.2 5.2
2 8 3 -2.3 8.3
3 8 3 73.89 10.7
3 8 3 114.29 16.9
3 8 3 97.49 12.8
4 8 3 7.3 11
7 -9 -3 88.19 50.59
-7 9 3 1.2 15.8
6 -9 -3 67.99 33.6
-6 9 3 8 13.3
5 -9 -3 43 32.3
-5 9 3 38 12.7
4 -9 -3 104.59 34.3
3 -9 -3 -17.2 26.3
-3 9 3 17.1 10.6
-3 9 3 1.9 10.9
2 -9 -3 9.9 27.4
-2 9 3 -4.4 9.7
-2 9 3 4.5 10
1 -9 -3 -8.6 26
-1 9 3 -1.8 9.6
-1 9 3 -5.4 9.9
0 -9 -3 29.7 29.5
0 9 3 16 10.9
0 9 3 -7.3 9.4
1 9 3 19.3 10.3
1 9 3 -1.4 11.2
2 9 3 6.9 10.4
2 9 3 15.5 11.5
3 9 3 13.4 22
3 9 3 1.9 11.6
5 -10 -3 61.09 44.7
-5 10 3 35.7 17.6
-5 10 3 31.3 17.1
4 -10 -3 7.6 37.3
-4 10 3 6.1 14.3
-4 10 3 -7.7 13.9
3 -10 -3 3.1 35
-3 10 3 7.5 13.2
-3 10 3 -18.4 13.1
-2 10 3 42 14.6
-2 10 3 16.7 14.2
1 -10 -3 11.5 37.4
-1 10 3 4 13.3
-1 10 3 12.6 13.1
0 10 3 -10.7 13.9
0 11 -4 15.9 15.3
0 11 -4 47.3 15.4
0 -11 4 109.29 45.5
-1 11 -4 20.4 11.7
-1 11 -4 -18.4 14.2
1 -11 4 23.4 37.7
-2 11 -4 10.8 15.7
-2 11 -4 46.5 12
2 -11 4 68.59 41.9
-3 11 -4 66.29 12.8
-3 11 -4 38.2 17.6
3 -11 4 101.19 45.3
2 10 -4 5.3 10.9
2 10 -4 29.4 12.7
1 10 -4 -21.4 8.8
1 10 -4 -1.9 11.4
1 10 -4 13.2 11
-1 -10 4 12.6 31.6
0 10 -4 -10.5 11.8
0 10 -4 4.2 10.8
0 -10 4 22.8 29.9
-1 10 -4 5.1 8.8
-1 10 -4 15.6 13.5
1 -10 4 14.1 29.1
-2 10 -4 62.29 13.6
-2 10 -4 51.09 11.9
2 -10 4 124.79 37.9
-3 10 -4 13.7 10.9
-3 10 -4 -2.4 9.5
3 -10 4 24.6 30.6
-4 10 -4 146.99 20.7
-4 10 -4 73.59 14
4 -10 4 109.89 32.7
-5 10 -4 84.09 15.6
5 -10 4 156.18 43.1
-6 10 -4 22.5 20.3
6 -10 4 101.59 46.3
4 9 -4 3.8 11.8
4 9 -4 6.8 10.2
4 9 -4 14.7 13.4
3 9 -4 57.79 10.9
3 9 -4 60.89 11.6
3 9 -4 69.29 11.1
2 9 -4 276.87 27.7
2 9 -4 242.08 20.9
2 9 -4 245.88 22.2
2 9 -4 235.28 16.9
1 9 -4 42 8.3
1 9 -4 49.4 11.1
1 9 -4 57.89 11.6
-1 -9 4 76.89 29
0 9 -4 -7.3 9.3
0 9 -4 9.1 13.9
0 9 -4 11 7.1
0 -9 4 10 26.7
-1 9 -4 92.79 11.9
-1 9 -4 107.69 14.8
-1 9 -4 117.09 18.1
1 -9 4 172.88 34.9
-2 9 -4 114.79 15.4
-2 9 -4 124.29 17.7
-2 9 -4 92.39 11.9
2 -9 4 164.48 37.5
2 -9 4 128.69 19.5
-3 9 -4 18.2 9.3
-3 9 -4 16.9 7.9
3 -9 4 32.6 22
3 -9 4 16.4 10
-4 9 -4 7.9 8.9
-4 9 -4 1.8 9.2
4 -9 4 11.5 25.7
-5 9 -4 4.1 10.6
-5 9 -4 28.4 9.6
-5 9 -4 -6.2 13.3
5 -9 4 18.7 28
-6 9 -4 28.1 12.7
6 -9 4 44.9 35.3
-7 9 -4 -13.7 12.7
-7 9 -4 45.1 18.2
7 -9 4 8.8 38.5
5 8 -4 -11.3 11.8
5 8 -4 0.9 9.8
5 8 -4 -2.6 10
4 8 -4 254.27 31.9
4 8 -4 286.67 21.6
4 8 -4 271.17 19.4
4 8 -4 320.17 18
3 8 -4 67.89 8.3
3 8 -4 74.29 9
3 8 -4 75.49 9.4
3 8 -4 91.49 10.5
3 8 -4 107.29 19.6
2 8 -4 16.3 7.5
2 8 -4 6.6 4.2
2 8 -4 20.1 7
2 8 -4 11 29
2 8 -4 4.2 6
2 8 -4 24.8 12.4
1 8 -4 49.7 12.8
1 8 -4 27.5 7.9
1 8 -4 27.2 6.3
1 8 -4 12.5 23.3
-1 -8 4 50.09 21.1
0 8 -4 98.09 14.3
0 8 -4 86.89 12.1
0 8 -4 79.19 9.7
0 -8 4 127.59 26
-1 8 -4 278.27 17.8
-1 8 -4 257.67 16.5
-1 8 -4 255.27 14.8
1 -8 4 225.08 15.3
1 -8 4 255.57 30.5
-2 8 -4 130.69 13.6
-2 8 -4 145.09 18.6
2 -8 4 145.59 14.2
2 -8 4 150.38 27.6
-3 8 -4 2.6 6.7
-3 8 -4 5 9.1
3 -8 4 8.9 23.3
-4 8 -4 7 7.6
-4 8 -4 11.9 7.5
4 -8 4 2.9 22.1
4 -8 4 -8.9 6.7
-5 8 -4 71.49 10.3
-5 8 -4 73.69 11
5 -8 4 93.69 29.5
-6 8 -4 29.4 10.4
-6 8 -4 52.59 14.2
6 -8 4 52.19 30.7
-7 8 -4 32 16
-7 8 -4 3 10.6
7 -8 4 -8 6.8
7 -8 4 4.7 32.4
-8 8 -4 31.5 13.8
-8 8 -4 78.99 20.8
8 -8 4 38.6 42.1
6 7 -4 21.8 9.2
6 7 -4 4.1 7.4
6 7 -4 -1.8 9.9
6 7 -4 -10.1 7.3
5 7 -4 -5.5 7.7
5 7 -4 -1.1 7.3
5 7 -4 3.1 6.4
5 7 -4 -8 6.5
4 7 -4 44 16.1
4 7 -4 22.3 6.4
4 7 -4 16.9 6.4
4 7 -4 50.89 23.6
4 7 -4 24.2 6.7
4 7 -4 19.3 6.6
3 7 -4 130.29 11
3 7 -4 143.09 27.3
3 7 -4 159.68 18.3
3 7 -4 133.19 12.9
3 7 -4 147.69 12
3 7 -4 143.79 12
2 7 -4 34.8 6.7
2 7 -4 40.2 6.1
2 7 -4 66.19 20.4
2 7 -4 33.4 6.8
2 7 -4 29.1 4.7
2 7 -4 37.7 11.8
1 7 -4 123.69 13.9
1 7 -4 115.99 24.5
1 7 -4 120.29 12.3
1 7 -4 112.79 10.8
1 7 -4 97.99 7.6
-1 -7 4 107.79 20.8
0 7 -4 104.29 10.9
0 7 -4 87.29 12.3
0 7 -4 110.49 14.4
0 -7 4 85.39 21
-1 7 -4 234.58 13.1
-1 7 -4 239.18 14.7
1 -7 4 233.08 24.6
1 -7 4 242.18 12.7
-2 7 -4 1.9 5.6
-2 7 -4 5.9 5.4
2 -7 4 -2.3 15.8
2 -7 4 0.3 5.1
-3 7 -4 545.75 19
-3 7 -4 529.85 20.1
3 -7 4 562.84 21.4
3 -7 4 537.35 35.4
-4 7 -4 23.1 7.3
-4 7 -4 13.3 6.9
4 -7 4 33.2 21.2
-5 7 -4 107.09 14.9
-5 7 -4 118.09 14.9
5 -7 4 153.98 49.2
5 -7 4 130.09 16.6
5 -7 4 113.09 8.4
-6 7 -4 13.6 9.8
-6 7 -4 18.1 12
6 -7 4 10.5 5.1
6 -7 4 11.4 26.8
-7 7 -4 87.99 17
-7 7 -4 42.6 9.9
7 -7 4 60.29 34.1
7 -7 4 44.7 8.4
-8 7 -4 18 16.4
-8 7 -4 -4.1 11.1
8 -7 4 -7.3 11.3
-9 7 -4 35 15.6
9 -7 4 14 15.6
7 6 -4 21.7 10.7
7 6 -4 30.5 11.2
6 6 -4 2.1 5.8
6 6 -4 -6.1 5.5
6 6 -4 0.7 8.1
6 6 -4 6.8 7.3
5 6 -4 108.19 15.6
5 6 -4 118.19 28.5
5 6 -4 89.99 10.6
5 6 -4 102.79 11.2
5 6 -4 86.89 11.8
4 6 -4 13.9 4.6
4 6 -4 10.3 5.3
4 6 -4 14.6 5.8
4 6 -4 18.2 13.6
4 6 -4 14.7 5.4
4 6 -4 32.5 18.4
3 6 -4 160.68 23.6
3 6 -4 132.79 10.4
3 6 -4 139.99 11.5
3 6 -4 151.58 16.9
3 6 -4 143.99 11.3
3 6 -4 148.59 10.1
2 6 -4 31.4 5.8
2 6 -4 46.6 10.1
2 6 -4 49.7 19.4
2 6 -4 43.2 6
2 6 -4 31.3 4.7
-2 -6 4 54.09 16.5
1 6 -4 18.6 4.7
1 6 -4 8 7.8
1 6 -4 6.7 14.8
1 6 -4 13.7 5.1
1 6 -4 11.5 3.3
-1 -6 4 14.7 13.6
0 6 -4 165.48 21.5
0 6 -4 139.99 11.3
0 6 -4 166.68 10.5
0 -6 4 136.19 19.7
-1 6 -4 -1 4.4
-1 6 -4 1.6 4.6
1 -6 4 -4 4.2
1 -6 4 -6.4 13.4
-2 6 -4 85.69 10.8
-2 6 -4 103.19 11.4
2 -6 4 92.89 10.6
2 -6 4 106.09 20.4
-3 6 -4 592.74 19
-3 6 -4 592.84 19.1
3 -6 4 623.84 18.7
3 -6 4 598.84 33.9
-4 6 -4 624.54 20.1
-4 6 -4 609.94 19.9
4 -6 4 624.14 16.2
4 -6 4 663.83 20.3
4 -6 4 606.84 14.6
4 -6 4 579.54 34.2
-5 6 -4 1.4 5.4
-5 6 -4 -4.6 6.2
5 -6 4 0.5 3.8
-6 6 -4 -7.4 7.4
-6 6 -4 12 6.7
-6 6 -4 15.8 11.4
6 -6 4 8.3 5.3
6 -6 4 3.7 7.8
-7 6 -4 345.77 19.1
-7 6 -4 408.16 25.3
7 -6 4 377.66 20.3
-8 6 -4 18.7 9
-8 6 -4 37.5 16.5
8 -6 4 26.6 9.5
-9 6 -4 86.39 21.4
9 -6 4 51.39 14
8 5 -4 43 13.3
7 5 -4 12.1 4.3
7 5 -4 10.5 5
7 5 -4 2.3 9.4
6 5 -4 6.3 4.5
6 5 -4 25.3 20.1
6 5 -4 -2.6 4.5
5 5 -4 129.29 15.3
5 5 -4 110.89 11.3
5 5 -4 155.28 21.1
5 5 -4 144.49 10.2
5 5 -4 146.39 24
5 5 -4 118.79 9.1
4 5 -4 38.1 4.7
4 5 -4 37.8 11.9
4 5 -4 55.39 15.5
4 5 -4 32.3 5
4 5 -4 31.2 6.1
4 5 -4 32.6 5.4
3 5 -4 17.8 9.1
3 5 -4 18.9 4.6
3 5 -4 17.7 4.4
3 5 -4 22.7 4.7
3 5 -4 19.2 4.1
2 5 -4 192.28 10.1
2 5 -4 189.48 9.8
2 5 -4 203.18 10.5
2 5 -4 183.48 13.7
-2 -5 4 200.88 18
1 5 -4 734.93 18.7
1 5 -4 779.12 29.7
1 5 -4 736.23 16.2
1 5 -4 730.63 21.5
1 5 -4 733.23 17.3
-1 -5 4 732.83 27.8
0 5 -4 219.58 10.8
0 5 -4 240.68 8.9
0 5 -4 250.27 19.7
0 5 -4 238.38 10.4
0 -5 4 221.98 9.9
0 -5 4 208.98 17.8
-1 5 -4 193.68 10.2
-1 5 -4 169.18 10.3
1 -5 4 175.08 9.6
1 -5 4 157.58 18.1
-2 5 -4 114.99 9.5
-2 5 -4 115.99 9.9
2 -5 4 114.59 18.6
2 -5 4 108.99 11.5
-3 5 -4 -0.8 4.9
-3 5 -4 -1.1 3.8
3 -5 4 -3.8 3
3 -5 4 20.1 13.7
3 -5 4 -5.3 4.3
-4 5 -4 673.63 20.3
-4 5 -4 689.33 19.2
4 -5 4 689.83 19.8
-5 5 -4 185.18 13.8
-5 5 -4 181.08 13.6
-5 5 -4 190.98 16.9
-5 5 -4 171.78 12
5 -5 4 167.28 12.9
-6 5 -4 14.7 11
-6 5 -4 8.8 7.1
-6 5 -4 10.6 5.6
-7 5 -4 5.6 6.2
-7 5 -4 -1.1 11.5
-7 5 -4 3.8 8.2
-8 5 -4 17.6 14.8
-8 5 -4 13.2 7.1
8 -5 4 14.7 9.1
-9 5 -4 79.19 20.7
-9 5 -4 53.79 10.8
9 -5 4 69.29 14.7
-10 5 -4 102.89 40.7
10 -5 4 50.19 16.5
9 4 -4 -3.6 15
8 4 -4 41.2 12.7
7 4 -4 4.2 3.9
7 4 -4 -1.7 5.1
7 4 -4 25.2 22.4
7 4 -4 -1.8 9.1
6 4 -4 6.9 6.8
6 4 -4 8.4 3.2
6 4 -4 16.4 15.9
6 4 -4 13.8 3.9
6 4 -4 27.3 16.3
5 4 -4 58.29 15.2
5 4 -4 45.8 6.1
5 4 -4 51.39 12.4
4 4 -4 234.88 17.7
4 4 -4 220.58 8.6
4 4 -4 231.18 19.5
4 4 -4 229.98 14
3 4 -4 122.29 15.3
3 4 -4 119.69 7
3 4 -4 117.39 8.5
3 4 -4 140.29 13
3 4 -4 130.49 10.4
2 4 -4 3.6 9.1
2 4 -4 9.2 3.4
2 4 -4 12.6 7
2 4 -4 11.1 3.3
1 4 -4 1000.7 19.4
1 4 -4 971.6 28.5
1 4 -4 957.5 19.5
-1 -4 4 957.6 27.7
0 4 -4 11.2 3.2
0 4 -4 13.5 2.7
0 -4 4 11.3 2.2
0 -4 4 12.6 3.1
0 -4 4 15.2 9.2
-1 4 -4 160.48 8.5
-1 4 -4 171.38 8.7
1 -4 4 175.38 5.9
1 -4 4 160.48 15.6
1 -4 4 160.08 8.1
-2 4 -4 60.29 7.7
-2 4 -4 41.6 4.7
2 -4 4 49.5 5.8
2 -4 4 43.9 5
-3 4 -4 353.76 12
-3 4 -4 355.86 13.3
3 -4 4 351.96 14.9
-4 4 -4 3.6 4.8
-4 4 -4 2.9 4.7
-4 4 -4 7.6 3.9
4 -4 4 9.9 5.3
-5 4 -4 282.97 12
-5 4 -4 266.87 14.4
-5 4 -4 276.67 18.6
-5 4 -4 267.47 14.1
5 -4 4 292.27 14.9
-6 4 -4 540.95 21.4
-6 4 -4 525.55 16.3
-6 4 -4 534.35 24.3
-7 4 -4 -2.9 10.7
-7 4 -4 -3 6.3
-7 4 -4 -4 4.9
7 -4 4 -9.9 8.2
-8 4 -4 68.99 7.6
-8 4 -4 57.79 10.4
-8 4 -4 79.39 17.2
-9 4 -4 73.09 8.4
9 -4 4 55.49 13.1
-10 4 -4 215.48 39.9
9 3 -4 3.3 13.4
8 3 -4 51.19 11.4
8 3 -4 100.39 31.6
7 3 -4 190.88 24.5
7 3 -4 163.58 10.1
7 3 -4 196.08 20.6
6 3 -4 421.26 25.5
6 3 -4 377.26 27.8
6 3 -4 426.06 21.2
6 3 -4 410.26 12.5
5 3 -4 604.34 26.2
5 3 -4 586.24 12.2
5 3 -4 611.04 25.6
5 3 -4 602.44 22
4 3 -4 -1.5 3.8
4 3 -4 3.5 8.4
4 3 -4 1.6 2.3
4 3 -4 1.6 8.4
3 3 -4 38.5 4.4
3 3 -4 25.2 4.3
3 3 -4 42.5 9.3
3 3 -4 35.7 7.4
2 3 -4 225.58 9.7
2 3 -4 207.78 8.5
2 3 -4 227.78 15.6
2 3 -4 213.48 11.6
1 3 -4 480.25 12.2
1 3 -4 473.85 11.7
1 3 -4 481.05 17.3
-1 -3 4 459.35 16.3
-1 -3 4 496.85 12
0 3 -4 2496.85 40.8
0 -3 4 2629.24 41
0 -3 4 2588.54 39.9
0 -3 4 2552.14 48
-1 3 -4 56.69 6.4
1 -3 4 59.19 5.8
1 -3 4 60.79 5.3
-2 3 -4 326.37 10.1
2 -3 4 348.07 10.6
-3 3 -4 376.66 12.1
-3 3 -4 378.36 10.9
-3 3 -4 373.46 12.5
3 -3 4 387.26 12.3
-4 3 -4 803.42 17.4
-4 3 -4 785.12 19.7
-4 3 -4 793.82 19.7
4 -3 4 817.72 19.9
-5 3 -4 115.09 11
-5 3 -4 119.29 7.9
-5 3 -4 126.89 15.7
5 -3 4 108.09 11.8
-6 3 -4 27.2 10.7
-6 3 -4 40 6.7
-6 3 -4 34.9 4.7
6 -3 4 41.3 8.9
-7 3 -4 6.3 4.1
-7 3 -4 3.5 6.4
-7 3 -4 5.5 11.3
7 -3 4 1.7 8.1
-8 3 -4 144.99 23.1
-8 3 -4 103.49 9.5
-9 3 -4 52.99 20.3
-9 3 -4 7.1 8.1
-10 3 -4 72.89 27.4
10 -3 4 7.7 14.5
9 2 -4 13.2 11.6
8 2 -4 87.99 12.4
-8 -2 4 136.59 25
7 2 -4 31.7 4.7
7 2 -4 40.6 20.9
7 2 -4 31.1 9.3
-7 -2 4 28.9 19.3
6 2 -4 216.28 16.5
6 2 -4 202.08 9.1
-6 -2 4 183.78 18.2
5 2 -4 717.63 25.4
5 2 -4 706.63 16.4
5 2 -4 704.23 22.6
-5 -2 4 716.73 25.5
4 2 -4 498.55 19
4 2 -4 466.45 16.6
-4 -2 4 478.55 19.3
3 2 -4 253.77 12.7
3 2 -4 253.77 12.6
3 2 -4 264.97 5.7
3 2 -4 245.78 11.2
2 2 -4 6991.6 104.89
2 2 -4 7059.39 107.29
2 2 -4 6957 107.59
-2 -2 4 6948.1 104.69
0 2 -4 45.4 4.8
0 -2 4 38.9 4.7
0 -2 4 54.79 5.2
0 -2 4 54.89 8
-1 2 -4 481.25 11.4
-1 2 -4 474.05 11.5
1 -2 4 499.95 13.7
1 -2 4 476.95 11.3
-2 2 -4 8996.4 132.19
-2 2 -4 9135.19 132.29
2 -2 4 9106.19 132.09
-3 2 -4 1172.38 22.5
-3 2 -4 1170.28 20.7
-3 2 -4 1147.19 22.6
3 -2 4 1162.08 22.5
-4 2 -4 7 2.6
-4 2 -4 5.8 3.8
-4 2 -4 3.8 3.9
-4 2 -4 16.8 7.3
4 -2 4 9.6 4.5
-5 2 -4 539.25 12.3
-5 2 -4 490.75 17.8
-5 2 -4 546.55 22.4
5 -2 4 555.14 17.1
-6 2 -4 71.69 10.3
-6 2 -4 80.19 6.4
-6 2 -4 70.69 12.4
6 -2 4 65.79 8.2
-7 2 -4 15.3 11.8
-7 2 -4 -1.9 6.2
7 -2 4 2.2 8.2
-8 2 -4 70.89 18.9
-9 2 -4 36.9 20.9
-9 2 -4 3.1 7.6
-10 2 -4 10.7 24.7
10 -2 4 6.4 17.7
10 1 -4 -11.6 14.1
-10 -1 4 42 26.9
9 1 -4 25.3 11.6
-9 -1 4 -0.1 18.2
8 1 -4 15.5 9.6
8 1 -4 5 5.6
-8 -1 4 27.5 24.4
7 1 -4 7.9 6.9
7 1 -4 -1 3.9
7 1 -4 -7.7 12.5
-7 -1 4 -10.2 10
6 1 -4 843.62 26.5
6 1 -4 816.52 17.7
6 1 -4 839.12 29.4
-6 -1 4 833.62 28.9
5 1 -4 13.5 8.8
5 1 -4 5.8 4.9
5 1 -4 5.7 3.4
-5 -1 4 11.1 7.9
4 1 -4 299.07 14.8
4 1 -4 278.37 13.1
4 1 -4 281.17 9.3
-4 -1 4 284.67 14.5
3 1 -4 86.09 8.7
2 1 -4 10.7 2.9
2 1 -4 11.9 5.7
1 1 -4 685.93 11.8
1 1 -4 688.13 15
-1 -1 4 695.33 14.7
0 1 -4 3296.67 48.6
0 1 -4 3236.88 48.3
0 1 -4 3201.58 50.59
0 -1 4 3280.97 48.5
0 -1 4 3194.58 49.8
-1 1 -4 350.16 9.1
-1 1 -4 357.46 8.9
1 -1 4 356.76 8.6
1 -1 4 353.76 9.3
1 -1 4 364.46 10.6
-2 1 -4 442.96 10.7
-2 1 -4 428.36 10.9
2 -1 4 426.06 10.7
2 -1 4 422.56 11.1
-3 1 -4 7.6 2.3
-3 1 -4 4.9 3.2
-3 1 -4 10.8 3.2
3 -1 4 4.9 3.1
3 -1 4 9.5 3.4
-4 1 -4 885.81 25.6
-4 1 -4 907.71 19.5
-4 1 -4 938.31 15.5
4 -1 4 887.91 19.8
4 -1 4 903.71 21.6
-5 1 -4 584.44 23.4
-5 1 -4 560.84 18.5
5 -1 4 595.04 16.6
5 -1 4 600.24 17.3
-6 1 -4 141.69 17.5
-6 1 -4 133.19 12
6 -1 4 137.89 12.7
-7 1 -4 194.18 21.7
-7 1 -4 176.58 13.6
7 -1 4 196.18 15.9
-8 1 -4 524.55 22.5
-8 1 -4 566.34 33.3
-9 1 -4 170.88 31.9
-10 1 -4 83.79 29.4
10 0 -4 -2.5 13.7
-10 0 4 -12 20.6
9 0 -4 2 6.2
9 0 -4 8.5 10.6
-9 0 4 30.5 18.3
8 0 -4 -1.4 5
8 0 -4 8.4 8
-8 0 4 -15.4 12.1
7 0 -4 -4.7 4.1
7 0 -4 1.7 6.6
-7 0 4 -12.2 9.3
6 0 -4 0.9 3.6
6 0 -4 -0.3 5.2
6 0 -4 8.5 10.6
-6 0 4 3 8.8
5 0 -4 1.2 4.1
5 0 -4 -2.8 3.1
5 0 -4 -2.8 7.9
-5 0 4 -5.5 7
4 0 -4 1018 25.2
4 0 -4 975.3 23.7
4 0 -4 993.4 19.3
-4 0 4 970.7 24.7
3 0 -4 756.92 18.3
3 0 -4 785.52 21.4
3 0 -4 783.32 19.1
-3 0 4 774.62 18.4
-3 0 4 733.93 18.9
2 0 -4 6616.34 98.89
2 0 -4 6556.04 98.49
2 0 -4 6600.34 96.39
-2 0 4 6561.74 99.09
1 0 -4 116.79 5.2
1 0 -4 130.69 4.4
1 0 -4 122.99 6.1
-1 0 4 121.19 5.8
-1 0 4 132.49 4.6
-1 0 4 134.29 7.1
0 0 -4 857.61 14.3
0 0 -4 835.22 17.2
0 0 -4 856.11 15.1
0 0 4 835.02 15.4
0 0 4 828.52 14.2
0 0 4 859.51 17.3
-1 0 -4 9.1 2.1
-1 0 -4 4.4 2.2
1 0 4 3 1.9
-2 0 -4 2497.25 39.7
-2 0 -4 2499.05 38.3
2 0 4 2435.86 39.7
2 0 4 2489.95 38.3
-3 0 -4 536.25 18
-3 0 -4 554.84 13.4
3 0 4 544.45 13.8
3 0 4 566.04 12.9
-4 0 -4 295.97 18.1
-4 0 -4 315.67 11.2
4 0 4 312.87 11.6
4 0 4 315.47 11.2
-5 0 -4 -1.6 10
5 0 4 0.6 5.5
5 0 4 6.5 4.6
-6 0 -4 -4.6 9.3
-6 0 -4 0.2 4.5
6 0 4 1 4.7
6 0 4 2.6 6.1
-7 0 -4 128.99 25.1
-7 0 -4 173.58 13.6
7 0 4 194.58 15.5
7 0 4 187.08 13.4
-8 0 -4 -2.5 8.5
-8 0 -4 9.7 16
8 0 4 6 10.3
-9 0 -4 197.68 32.7
10 -1 -4 11.6 12.8
-10 1 4 41.8 21.1
9 -1 -4 18.5 10.4
9 -1 -4 7.9 9.3
-9 1 4 25 16.8
8 -1 -4 177.38 20.4
8 -1 -4 118.49 20.2
-8 1 4 157.08 21.7
7 -1 -4 278.87 11.9
7 -1 -4 269.77 21.4
7 -1 -4 284.87 19.2
-7 1 4 275.57 20.1
-7 1 4 280.97 8.6
6 -1 -4 654.43 16.6
6 -1 -4 668.03 25.4
6 -1 -4 651.03 22.8
-6 1 4 666.53 13.3
-6 1 4 666.73 24
5 -1 -4 335.17 11.4
5 -1 -4 320.67 15
5 -1 -4 327.27 16.7
-5 1 4 332.17 15.8
-5 1 4 329.57 8.5
-5 1 4 333.67 11.7
4 -1 -4 50.39 8.2
4 -1 -4 51.39 8.8
4 -1 -4 61.79 6.5
-4 1 4 57.69 6.7
-4 1 4 55.49 8.4
3 -1 -4 320.47 11.4
3 -1 -4 318.77 9.8
3 -1 -4 310.67 11.5
-3 1 4 318.57 11.1
-3 1 4 330.97 11.6
-3 1 4 320.57 10
2 -1 -4 143.89 7.8
2 -1 -4 142.99 6.6
-2 1 4 136.79 5.3
-2 1 4 148.49 6.9
-2 1 4 155.18 7.6
1 -1 -4 2266.67 37
1 -1 -4 2245.48 35.1
1 -1 -4 2053.89 42.8
1 -1 -4 2291.77 35.9
-1 1 4 2356.36 36.9
-1 1 4 2291.27 35.1
-1 1 4 2275.07 39.7
-1 1 4 2293.07 36
0 -1 -4 116.89 5.5
0 -1 -4 114.09 7.5
0 -1 -4 119.99 3.5
0 -1 -4 126.39 5.6
0 1 4 121.39 7.5
0 1 4 117.39 5.7
0 1 4 118.29 5.7
0 1 4 114.99 8.8
-1 -1 -4 2222.38 33.1
-1 -1 -4 2282.07 38.3
-1 -1 -4 2281.37 34.6
1 1 4 2231.88 33.2
1 1 4 2282.17 36.5
-2 -1 -4 1543.25 23.4
-2 -1 -4 1490.75 26.5
-2 -1 -4 1483.25 30
2 1 4 1520.35 26.8
2 1 4 1498.75 24
-3 -1 -4 846.42 23
-3 -1 -4 857.81 18
3 1 4 784.42 20.6
3 1 4 851.51 18.3
-4 -1 -4 168.18 9.4
-4 -1 -4 170.58 14.3
4 1 4 181.58 9.9
4 1 4 159.58 8.8
-5 -1 -4 47 12.3
-5 -1 -4 35.7 5.3
5 1 4 35.9 5.7
5 1 4 30.9 5.6
-6 -1 -4 224.88 20.5
-6 -1 -4 225.48 12.5
6 1 4 230.78 13
6 1 4 213.38 12.8
-7 -1 -4 182.48 23.6
-7 -1 -4 166.08 15.1
7 1 4 202.68 13.6
7 1 4 153.78 15.6
-8 -1 -4 55.29 18.8
8 1 4 18.2 9.7
8 1 4 31.9 7.4
-9 -1 -4 102.59 26.3
10 -2 -4 48.5 16.4
-10 2 4 44.8 20.7
9 -2 -4 -2.5 8.2
9 -2 -4 -6.5 9.2
-9 2 4 -9.4 4.8
-9 2 4 -1.4 17.3
8 -2 -4 1.2 5.5
-8 2 4 4.9 5
-8 2 4 10.3 12.3
7 -2 -4 343.07 22.2
7 -2 -4 385.26 14.4
7 -2 -4 382.36 20.3
-7 2 4 361.16 17.2
-7 2 4 381.36 12.3
-7 2 4 377.96 21
6 -2 -4 124.69 14.7
6 -2 -4 121.69 13.4
-6 2 4 128.59 10.7
-6 2 4 128.59 13.7
-6 2 4 134.59 8.5
5 -2 -4 -1.9 7.6
5 -2 -4 0.2 3.9
5 -2 -4 -1.4 3.8
-5 2 4 -0.7 8.8
-5 2 4 0.1 4
4 -2 -4 543.45 16.4
4 -2 -4 572.74 16.6
4 -2 -4 562.74 14.7
-4 2 4 555.64 16.1
-4 2 4 570.94 15.2
3 -2 -4 113.79 13.1
3 -2 -4 99.19 8.2
3 -2 -4 100.99 7.2
3 -2 -4 85.29 6.9
-3 2 4 90.89 7.6
-3 2 4 95.79 7.6
-3 2 4 95.49 6.8
2 -2 -4 4.6 2.8
2 -2 -4 4.9 2.7
2 -2 -4 -3.7 6.9
2 -2 -4 -0.8 2.7
-2 2 4 5.9 2.8
-2 2 4 3.2 2.4
1 -2 -4 263.87 13.5
1 -2 -4 264.77 8.7
1 -2 -4 254.97 9.3
-1 2 4 257.17 8.2
-1 2 4 274.87 9.2
-1 2 4 259.17 16.3
-1 2 4 276.47 9.1
0 -2 -4 1356.66 32.7
0 -2 -4 1456.45 25.3
0 -2 -4 1367.36 26.2
0 -2 -4 1455.85 24
0 2 4 1432.46 33.2
0 2 4 1417.46 25.7
0 2 4 1402.86 25.1
0 2 4 1422.76 24.5
-1 -2 -4 1471.85 27.1
-1 -2 -4 1423.16 25.9
-1 -2 -4 1445.16 24.1
1 2 4 1448.96 35.2
1 2 4 1454.05 24.2
1 2 4 1364.76 25.7
-2 -2 -4 13.2 3.3
-2 -2 -4 14.5 5.7
-2 -2 -4 13 2.3
2 2 4 19.1 9.3
2 2 4 13.7 3.5
2 2 4 13.9 2.2
2 2 4 11.7 2.4
-3 -2 -4 64.29 7.8
-3 -2 -4 54.79 10.1
3 2 4 64.09 7.8
-4 -2 -4 40.2 10.2
-4 -2 -4 22.5 5.8
4 2 4 24.5 4.9
4 2 4 31.4 4.5
-5 -2 -4 609.14 25.2
-5 -2 -4 640.24 18.1
5 2 4 621.84 16.5
5 2 4 614.34 18.1
-6 -2 -4 4.9 6.1
-6 -2 -4 19.9 11.8
6 2 4 14.1 5.6
6 2 4 16.1 5.8
-7 -2 -4 16.5 8.6
-7 -2 -4 1.3 15.5
7 2 4 -2.8 7.5
7 2 4 16.4 6.8
-8 -2 -4 24.7 18.9
-8 -2 -4 25.6 10.8
8 2 4 25.5 10.7
8 2 4 7.3 8.2
-9 -2 -4 30.8 24.4
10 -3 -4 8.7 13.1
-10 3 4 18.9 19
9 -3 -4 14.9 10.1
9 -3 -4 -11 9.8
-9 3 4 4.3 14.5
8 -3 -4 47.9 10
8 -3 -4 50.49 8
-8 3 4 60.79 8.9
-8 3 4 62.29 8.1
-8 3 4 74.09 14.4
7 -3 -4 65.99 10.5
7 -3 -4 73.39 7.6
7 -3 -4 62.39 8.8
-7 3 4 68.89 7
-7 3 4 81.09 14.6
-7 3 4 60.39 7.5
6 -3 -4 20.4 6.7
6 -3 -4 19.7 5.8
-6 3 4 33.9 8.9
-6 3 4 21.7 5.8
5 -3 -4 40.6 6.4
5 -3 -4 37.6 5.6
5 -3 -4 43.1 5.9
-5 3 4 40.4 6.1
-5 3 4 47 8.2
4 -3 -4 155.58 18.1
4 -3 -4 124.99 14.1
4 -3 -4 134.09 10.2
4 -3 -4 131.59 10
-4 3 4 132.09 10.1
-4 3 4 134.19 8.6
3 -3 -4 63.79 6.9
3 -3 -4 78.49 7.8
3 -3 -4 64.29 14.3
3 -3 -4 77.69 8
-3 3 4 80.29 8.4
-3 3 4 72.89 7.3
2 -3 -4 158.68 14.3
2 -3 -4 165.58 6.9
2 -3 -4 169.78 8.5
2 -3 -4 169.48 8.7
-2 3 4 177.58 15.7
-2 3 4 169.68 7.8
-2 3 4 157.08 9.1
1 -3 -4 51.39 11.6
1 -3 -4 42.7 6.8
1 -3 -4 42.8 4
1 -3 -4 44.9 6.2
-1 3 4 44.9 6.6
-1 3 4 44.8 10.9
-1 3 4 47 6.2
-1 3 4 34.6 4.1
0 -3 -4 2.1 7.5
0 -3 -4 1.2 2.6
0 -3 -4 0.7 3.3
0 3 4 -0.1 8.1
0 3 4 3.6 3
0 3 4 1.5 3.6
0 3 4 0.4 2.9
-1 -3 -4 123.09 8.1
-1 -3 -4 135.29 7.1
1 3 4 140.39 7.4
1 3 4 130.69 8.2
1 3 4 129.29 14.9
-2 -3 -4 32.5 7.4
-2 -3 -4 36.2 5
2 3 4 31.2 3.7
2 3 4 35.5 4.9
2 3 4 41.4 12
-3 -3 -4 721.83 18.7
-3 -3 -4 688.63 22.4
3 3 4 707.13 18.5
3 3 4 713.83 30.4
3 3 4 702.43 13.7
3 3 4 703.63 14.1
-4 -3 -4 485.05 21.8
-4 -3 -4 483.75 16.2
4 3 4 467.95 12.4
4 3 4 459.95 16.2
4 3 4 455.25 28.7
-5 -3 -4 40.3 7.1
-5 -3 -4 70.59 13.8
5 3 4 47.8 5.7
5 3 4 50.59 20.4
5 3 4 40.4 6.7
-6 -3 -4 37.3 8.5
6 3 4 29.8 6.4
6 3 4 26.1 6.7
-7 -3 -4 106.39 21.4
7 3 4 60.49 10.1
7 3 4 57.59 8.9
-8 -3 -4 18.6 21.2
8 3 4 38.6 17.5
10 -4 -4 -25.6 13
-10 4 4 37.1 19.2
9 -4 -4 -0.1 11
9 -4 -4 -11.2 10.4
-9 4 4 2.3 8.4
-9 4 4 1.5 16.6
8 -4 -4 2.6 7.9
8 -4 -4 6.6 7.9
-8 4 4 0.6 11.5
-8 4 4 -5.2 6.9
-8 4 4 1.9 7.8
7 -4 -4 10.8 6.9
7 -4 -4 -1.6 5.9
7 -4 -4 21.9 8.2
-7 4 4 14.4 9.4
-7 4 4 13.9 6.6
6 -4 -4 534.85 32
6 -4 -4 583.74 20.6
6 -4 -4 581.24 18.9
6 -4 -4 552.94 19.8
-6 4 4 574.34 19.7
-6 4 4 566.44 19.6
5 -4 -4 518.95 17.2
5 -4 -4 498.85 29.7
5 -4 -4 511.65 17.2
5 -4 -4 494.05 17.4
-5 4 4 495.65 17.8
-5 4 4 488.75 15.8
4 -4 -4 67.29 17.4
4 -4 -4 67.89 9.5
4 -4 -4 63.19 9.2
4 -4 -4 59.79 7.5
-4 4 4 63.39 6.7
-4 4 4 74.09 10.6
3 -4 -4 7.9 4.1
3 -4 -4 6.1 3.5
3 -4 -4 2.1 3.9
3 -4 -4 -1.6 11
-3 4 4 4.4 4.6
2 -4 -4 951.9 24
2 -4 -4 914.31 31.8
2 -4 -4 918.41 19.3
-2 4 4 926.71 19.2
-2 4 4 955.7 32.9
-2 4 4 907.41 21.5
1 -4 -4 700.23 27.7
1 -4 -4 724.23 17.9
1 -4 -4 732.53 13.2
-1 4 4 692.23 17.8
-1 4 4 731.53 18.4
-1 4 4 739.53 29.9
-1 4 4 756.92 16.3
0 -4 -4 369.66 21.3
0 -4 -4 399.96 12.6
0 4 4 395.06 24.3
0 4 4 383.16 12.7
0 4 4 403.96 13.4
0 4 4 389.36 13.1
-1 -4 -4 1095.39 22.1
-1 -4 -4 1076.79 23.1
1 4 4 1087.39 24.1
1 4 4 1076.09 22.3
1 4 4 1096.99 37.1
1 4 4 1085.99 24
-2 -4 -4 8.6 3.9
-2 -4 -4 6.8 6.6
2 4 4 9.8 4.5
2 4 4 5.1 12.5
2 4 4 14.7 3.9
-3 -4 -4 61.69 10.5
3 4 4 35.6 6
3 4 4 49.6 4.9
3 4 4 43.5 4.6
3 4 4 71.09 18.7
-4 -4 -4 853.91 28.3
4 4 4 815.72 22.6
4 4 4 832.82 41.9
4 4 4 833.82 16
-5 -4 -4 1.2 11.3
5 4 4 8 6.2
5 4 4 1.1 4.4
5 4 4 19.8 22.4
-6 -4 -4 10.3 14.8
6 4 4 4.9 7
6 4 4 -8.6 6.6
-7 -4 -4 75.39 23
-8 -4 -4 38.6 27.5
8 4 4 20.1 12.7
10 -5 -4 1.8 37.1
10 -5 -4 9.2 15.1
-10 5 4 22.2 15.3
-10 5 4 49.4 22.1
9 -5 -4 -11.5 14.7
-9 5 4 -6.5 11
-9 5 4 0.9 15.2
8 -5 -4 2.8 9.7
8 -5 -4 9.4 24.2
8 -5 -4 15 8.2
-8 5 4 14.4 11.4
-8 5 4 12.8 15.8
7 -5 -4 4.3 6.4
7 -5 -4 17.3 21.3
7 -5 -4 2 8.7
-7 5 4 14 7.7
-7 5 4 4.1 8.6
6 -5 -4 -4.2 7.7
6 -5 -4 -0.1 6
6 -5 -4 11.6 18.2
6 -5 -4 4.4 5.2
-6 5 4 -5.7 6.2
-6 5 4 -4.9 6.5
5 -5 -4 350.76 17
5 -5 -4 356.06 29.2
5 -5 -4 330.67 14.9
5 -5 -4 363.16 15.7
-5 5 4 352.06 11.8
-5 5 4 352.16 17
4 -5 -4 332.97 27.5
4 -5 -4 347.47 14.1
4 -5 -4 332.57 13.5
4 -5 -4 333.27 15.7
-4 5 4 352.76 16.4
3 -5 -4 1.3 4.6
3 -5 -4 -10.1 12.2
3 -5 -4 1.3 4.3
3 -5 -4 4.4 3.8
-3 5 4 4.4 5.3
2 -5 -4 207.18 11.7
2 -5 -4 172.88 21.1
2 -5 -4 196.08 8.7
-2 5 4 196.28 12.9
-2 5 4 180.78 8.3
-2 5 4 191.18 23.6
1 -5 -4 237.48 12.4
1 -5 -4 245.18 7.1
1 -5 -4 229.08 21.2
-1 5 4 231.08 22.8
-1 5 4 246.28 12.5
-1 5 4 266.77 13.6
-1 5 4 251.37 10
0 -5 -4 683.53 18.6
0 -5 -4 699.83 32.1
0 5 4 714.53 33
0 5 4 687.63 19.2
0 5 4 688.83 17.9
0 5 4 694.93 19.8
-1 -5 -4 1410.76 29.4
1 5 4 1465.35 30.1
1 5 4 1430.06 29.3
1 5 4 1446.56 31
1 5 4 1509.05 48.8
-2 -5 -4 710.83 21.5
2 5 4 723.63 21
2 5 4 722.93 18.2
-3 -5 -4 14.6 9.4
3 5 4 2.5 5.5
3 5 4 3.6 3.9
3 5 4 1.8 20.5
-4 -5 -4 7.2 10.2
4 5 4 -0.5 5.9
4 5 4 -2.2 3.5
4 5 4 6.1 3.3
4 5 4 44.2 39.8
-5 -5 -4 44 16.1
5 5 4 17.5 4
5 5 4 28.4 5.4
5 5 4 7.1 7.1
-6 -5 -4 1.1 17
6 5 4 0.8 5.1
6 5 4 5.2 8.5
-7 -5 -4 12.3 21.8
7 5 4 -19 12.2
9 -6 -4 -6.9 12.9
9 -6 -4 30.6 33.4
-9 6 4 -1.3 11.6
-9 6 4 8.4 16.3
8 -6 -4 15.8 27.4
8 -6 -4 -8 9
-8 6 4 4.6 10.2
-8 6 4 -7.4 11.5
7 -6 -4 2.1 7
7 -6 -4 10.3 23.1
-7 6 4 6.8 8.8
-7 6 4 -2.1 8.3
6 -6 -4 -3.8 5.2
6 -6 -4 -1.6 7.9
6 -6 -4 -12.4 18.3
-6 6 4 -4 12.2
5 -6 -4 24 18
5 -6 -4 18.1 7.9
5 -6 -4 8.5 4.8
5 -6 -4 7.6 7
-5 6 4 11.7 7
4 -6 -4 16.4 17.6
4 -6 -4 12.9 4.2
4 -6 -4 20.8 5.9
-4 6 4 11.1 6.4
3 -6 -4 160.78 10.4
3 -6 -4 137.79 23.2
-3 6 4 165.68 14.4
2 -6 -4 43.9 7
2 -6 -4 53.29 7.4
2 -6 -4 58.79 18.2
-2 6 4 46 7.4
-2 6 4 39 9.5
-2 6 4 62.79 21.2
-2 6 4 58.09 6.2
1 -6 -4 17.5 6.3
1 -6 -4 21 3.1
1 -6 -4 27.3 16.3
-1 6 4 19.9 6.1
-1 6 4 15.6 3.6
-1 6 4 20.5 6.6
-1 6 4 24.2 14.9
0 -6 -4 362.96 15.8
0 -6 -4 361.86 28.2
0 6 4 391.76 16.5
0 6 4 380.36 16.8
0 6 4 355.86 13.3
-1 -6 -4 81.89 11.2
1 6 4 75.99 11.5
1 6 4 70.09 7.7
1 6 4 83.39 10.5
2 6 4 139.89 14.4
2 6 4 130.89 14.3
2 6 4 126.79 11.3
3 6 4 1.8 4.9
3 6 4 8.4 7
4 6 4 9.8 5
4 6 4 -6.3 7.1
-5 -6 -4 1.8 17
5 6 4 -6 9.4
-6 -6 -4 14.7 22.8
6 6 4 9.3 10.1
9 -7 -4 80.99 38.8
-9 7 4 30.1 14.3
8 -7 -4 5.9 12
8 -7 -4 31.3 31.8
-8 7 4 43.6 13.3
7 -7 -4 28 25.4
7 -7 -4 0.1 7.9
-7 7 4 3.4 10.1
6 -7 -4 87.29 27.9
6 -7 -4 48.6 7.3
6 -7 -4 72.09 10.9
-6 7 4 72.49 11.8
5 -7 -4 135.29 28.9
5 -7 -4 82.79 10
5 -7 -4 111.79 10.8
-5 7 4 83.99 11.4
4 -7 -4 26.9 7.2
4 -7 -4 56.89 21.9
4 -7 -4 -0.4 10.4
-4 7 4 10.7 10.9
3 -7 -4 109.89 25.7
3 -7 -4 80.89 8.8
3 -7 -4 63.29 10.1
-3 7 4 74.59 9.6
2 -7 -4 17.4 4.6
2 -7 -4 26.1 18.3
2 -7 -4 8.5 7.4
-2 7 4 8.2 7.4
-2 7 4 11.8 6.9
-2 7 4 -8.3 21.6
1 -7 -4 -1.9 15.7
-1 7 4 5.5 33.3
-1 7 4 -6.4 6.2
-1 7 4 -2.1 6.2
0 7 4 24.2 7.3
0 7 4 27.2 8.2
0 7 4 18.6 4.9
1 7 4 7.5 8.5
1 7 4 6.4 6.1
1 7 4 2.8 5.5
2 7 4 64.59 8.2
2 7 4 95.19 11
2 7 4 66.29 9.2
3 7 4 118.39 13.5
3 7 4 172.28 20.3
3 7 4 99.99 12.7
4 7 4 1.9 6.7
4 7 4 -3.9 8.5
5 7 4 -3.1 10.2
8 -8 -4 105.89 39.2
-8 8 4 70.29 16.5
7 -8 -4 76.79 33.7
6 -8 -4 11.5 27.1
-6 8 4 12.6 11.4
5 -8 -4 5.2 23
-5 8 4 -10.4 9.1
4 -8 -4 40.9 9.4
-4 8 4 50.09 10.5
3 -8 -4 12.1 22.7
3 -8 -4 5.1 7.2
-3 8 4 -9.1 8.8
-3 8 4 10.2 9
2 -8 -4 38.6 25.9
2 -8 -4 18.6 5.8
-2 8 4 19.6 9.3
-2 8 4 15.5 9.4
1 -8 -4 51.89 25.3
-1 8 4 26 9.3
-1 8 4 23.6 9
0 -8 -4 7 22.7
0 8 4 5.6 9.2
0 8 4 4.1 8.1
1 8 4 -3 6.5
1 8 4 5.6 8.6
2 8 4 -8.1 9.2
2 8 4 3.5 9.9
3 8 4 29.7 9.4
3 8 4 40.9 11.7
4 8 4 -6.5 10.8
4 8 4 5.9 9.7
7 -9 -4 60.19 35.9
-7 9 4 13.3 16
6 -9 -4 52.39 34.8
-6 9 4 -0.7 13.6
5 -9 -4 158.18 42.2
-5 9 4 86.89 14.7
-5 9 4 43.7 14.1
4 -9 -4 23.4 31.6
-4 9 4 -4.9 10.3
-4 9 4 -1.7 11.3
3 -9 -4 17.9 27.3
-3 9 4 10.2 10.9
-3 9 4 4.6 11
2 -9 -4 110.79 34.1
-2 9 4 75.39 12.7
-2 9 4 38.1 11.8
1 -9 -4 178.68 37.4
-1 9 4 118.29 13.8
-1 9 4 128.19 14.4
0 9 4 -6 9.3
0 9 4 15.1 10.9
1 9 4 7.9 11.5
1 9 4 3.2 10.2
2 9 4 7.1 11
5 -10 -4 16.1 55.89
-5 10 4 -2.9 18.6
4 -10 -4 38.3 41.1
-4 10 4 26.2 16.5
-4 10 4 24.1 15.8
3 -10 -4 9.2 37.7
-3 10 4 3.2 14.7
-3 10 4 10 14.8
2 -10 -4 0.9 38.4
-2 10 4 -8.7 13.3
-2 10 4 -10.4 13.2
1 -10 -4 -54.59 37.3
-1 10 4 -2.9 15.1
-1 10 4 -14.1 12.5
0 10 4 12.6 17.8
0 10 4 -3.2 12.8
0 11 -5 22.7 15.1
0 11 -5 7.5 15.7
0 -11 5 57.69 42.5
-1 11 -5 -11 15.5
-1 11 -5 0.2 11
1 -11 5 18.2 41.2
-2 11 -5 3.9 11.9
-2 11 -5 -9.1 18.1
2 -11 5 -0.5 36.5
-3 11 -5 42.3 18.1
-3 11 -5 89.59 15.8
3 -11 5 114.49 45.2
-4 11 -5 4.6 12.6
2 10 -5 11.5 11.6
2 10 -5 6.8 11.9
2 10 -5 0.6 10.4
1 10 -5 44.5 11.3
1 10 -5 25.3 12.1
1 10 -5 29.7 19.7
-1 -10 5 34.3 34.5
0 10 -5 17.7 11.9
0 -10 5 95.39 33.4
-1 10 -5 -12.9 8.7
-1 10 -5 -16.1 10.6
1 -10 5 18.8 26.6
-2 10 -5 41.1 12.1
-2 10 -5 21.5 9.7
2 -10 5 57.49 32
-3 10 -5 -8.6 11.2
-3 10 -5 -6.7 10
3 -10 5 5.8 30.5
-4 10 -5 -24 10.5
-4 10 -5 21.9 10.7
4 -10 5 31 31.1
-5 10 -5 35.2 11.6
-5 10 -5 4.6 12.8
5 -10 5 82.99 39.5
-6 10 -5 -27.9 22.4
6 -10 5 84.89 43.2
4 9 -5 -17.3 9.8
4 9 -5 -7.7 10.7
4 9 -5 -20.1 10.2
3 9 -5 5 9.9
3 9 -5 5.2 9.4
3 9 -5 5.7 9.2
2 9 -5 -2 9
2 9 -5 -0.2 7.9
2 9 -5 20.5 18.9
2 9 -5 3.4 9.3
1 9 -5 17.2 16
1 9 -5 1.3 9.1
1 9 -5 2.2 6.8
-1 -9 5 0 25.7
0 9 -5 127.99 15.4
0 9 -5 86.89 11.9
0 9 -5 119.69 18.3
0 -9 5 146.49 32
-1 9 -5 51.99 8.8
-1 9 -5 59.59 10.4
-1 9 -5 97.29 16.3
1 -9 5 71.09 14.8
1 -9 5 103.39 30
-2 9 -5 -0.2 7.5
-2 9 -5 -4.2 8.3
2 -9 5 -3.5 8.9
2 -9 5 -11.5 23.8
-3 9 -5 61.69 11
3 -9 5 100.69 28.8
3 -9 5 71.39 13.2
-4 9 -5 7.4 9.1
-4 9 -5 6 9.1
4 -9 5 23.5 25.5
-5 9 -5 3.2 10
-5 9 -5 15.1 9.8
5 -9 5 28.1 27.9
-6 9 -5 22.8 12.2
-6 9 -5 64.79 17.5
6 -9 5 110.59 38
-7 9 -5 -21.6 13.3
7 -9 5 8.9 39.8
5 8 -5 3.5 18.1
5 8 -5 34.9 9.8
5 8 -5 18.2 9.2
4 8 -5 82.99 9.6
4 8 -5 110.19 15
4 8 -5 77.19 11.5
3 8 -5 218.68 16
3 8 -5 182.58 19.3
3 8 -5 203.38 20.3
3 8 -5 251.17 25.6
3 8 -5 240.98 15.4
2 8 -5 8 7.4
2 8 -5 20.2 12.6
2 8 -5 -4.8 6.4
2 8 -5 4.1 22.9
2 8 -5 -10.5 5.6
1 8 -5 29 12.3
1 8 -5 16.4 6.2
1 8 -5 -8.5 24.7
1 8 -5 13.3 7.6
-1 -8 5 28.4 19.5
0 8 -5 45.7 7.3
0 8 -5 47.8 8.7
0 8 -5 47.5 11.9
0 -8 5 76.29 22
-1 8 -5 33.2 7.1
-1 8 -5 27.3 8.2
1 -8 5 25.3 7.6
1 -8 5 48.4 21.8
-2 8 -5 6.9 6.8
2 -8 5 -2.4 6.2
2 -8 5 -1.9 17
-3 8 -5 60.09 11.2
-3 8 -5 57.39 8.5
3 -8 5 80.79 29.1
-4 8 -5 -2.6 7.4
-4 8 -5 10 7.6
4 -8 5 -0.4 20.6
-5 8 -5 57.99 10.8
-5 8 -5 76.69 10.5
5 -8 5 114.29 32.7
-6 8 -5 88.29 16.8
-6 8 -5 69.49 11.7
6 -8 5 95.89 33.3
-7 8 -5 38.3 19.2
-7 8 -5 4.4 10.8
7 -8 5 -2.1 32.6
7 -8 5 13 7.8
-8 8 -5 87.69 15.8
-8 8 -5 149.59 24.7
8 -8 5 92.89 44.8
6 7 -5 13.4 8.4
6 7 -5 21.3 8.8
6 7 -5 34.5 10.1
6 7 -5 31.7 11.2
5 7 -5 -1.9 6.6
5 7 -5 4.2 7.5
5 7 -5 8.7 7.1
5 7 -5 6.4 6.5
4 7 -5 2 5.9
4 7 -5 9.5 6.4
4 7 -5 38.8 23.2
4 7 -5 3.3 6
4 7 -5 11.8 5.8
3 7 -5 -1.6 4.6
3 7 -5 29.1 19.7
3 7 -5 9.2 5.7
3 7 -5 3.6 5.1
3 7 -5 27.6 12.6
3 7 -5 -0.2 4.9
2 7 -5 187.88 26.6
2 7 -5 180.68 13.8
2 7 -5 168.38 17.3
2 7 -5 148.09 10.7
2 7 -5 152.78 12.1
-2 -7 5 170.18 23.7
1 7 -5 15.9 5.5
1 7 -5 11.5 3.4
1 7 -5 14.7 5.9
1 7 -5 23 9.8
1 7 -5 -1.7 16.7
-1 -7 5 16.8 15.2
0 7 -5 2.8 5
0 7 -5 -3.1 8.1
0 7 -5 6.9 5.5
0 -7 5 -4.3 4.9
0 -7 5 -8.8 13.2
-1 7 -5 370.56 15.6
-1 7 -5 369.06 17.1
1 -7 5 385.86 15.2
1 -7 5 365.76 28
-2 7 -5 29.8 6.8
-2 7 -5 28.2 6.7
2 -7 5 12.2 6
2 -7 5 32.5 17.8
-3 7 -5 751.72 23.5
-3 7 -5 779.52 22.6
3 -7 5 727.33 39.1
3 -7 5 757.72 22.6
-4 7 -5 1.1 6.4
-4 7 -5 -1.7 6
4 -7 5 0.5 19.4
-5 7 -5 10.3 7.8
-5 7 -5 18 7.2
5 -7 5 10.4 5.1
5 -7 5 11.5 4
5 -7 5 8.3 8.5
-6 7 -5 0.9 12.2
-6 7 -5 0.1 8.8
6 -7 5 -21.3 28.1
6 -7 5 3.2 5.3
-7 7 -5 26.2 15.6
-7 7 -5 -9.9 8.5
7 -7 5 4.6 7.6
-8 7 -5 21.4 12
-8 7 -5 26.8 20.2
8 -7 5 16.4 11.2
-9 7 -5 61.69 17
9 -7 5 70.59 17.4
7 6 -5 10.6 10.6
7 6 -5 6.8 9
6 6 -5 41.5 6.1
6 6 -5 35.1 7.2
6 6 -5 24.4 9.6
5 6 -5 73.49 9.4
5 6 -5 91.09 9.8
5 6 -5 95.79 11.9
5 6 -5 92.39 12.5
5 6 -5 138.29 26.3
4 6 -5 -4.3 4.1
4 6 -5 -5.4 11.8
4 6 -5 1.4 5.3
4 6 -5 0.2 4.7
4 6 -5 3.2 17.1
4 6 -5 6.7 5.3
3 6 -5 5.4 4.9
3 6 -5 12.4 4.4
3 6 -5 10 4.7
3 6 -5 17.9 15.3
3 6 -5 4.8 4.5
2 6 -5 298.57 12.7
2 6 -5 302.37 23.4
2 6 -5 281.17 13.7
2 6 -5 271.27 12.1
-2 -6 5 293.57 22.6
1 6 -5 238.48 22.4
1 6 -5 245.88 12
1 6 -5 253.77 13.2
1 6 -5 255.07 10.3
-1 -6 5 243.18 21.7
0 6 -5 322.27 9.5
0 6 -5 319.67 14.6
0 6 -5 308.17 13.3
0 -6 5 332.67 13.4
0 -6 5 293.67 23.2
-1 6 -5 28.3 5.8
-1 6 -5 40.2 6.2
1 -6 5 36.5 5.7
1 -6 5 22.4 14.1
-2 6 -5 1157.08 26.3
-2 6 -5 1196.98 27.6
2 -6 5 1147.89 41.8
2 -6 5 1198.18 26.3
-3 6 -5 83.69 11.3
-3 6 -5 69.59 8.2
3 -6 5 105.29 22.2
3 -6 5 58.49 7.4
3 -6 5 93.49 7
-4 6 -5 658.03 21.2
-4 6 -5 677.53 20.8
4 -6 5 676.23 21.2
4 -6 5 682.63 17.2
4 -6 5 658.73 36.3
-5 6 -5 268.07 15.5
-5 6 -5 261.07 16.3
-6 6 -5 36.6 7.2
-6 6 -5 59.39 14.2
-6 6 -5 43.4 9
6 -6 5 36.5 9.6
-7 6 -5 138.49 22.2
-7 6 -5 86.69 9.7
-8 6 -5 86.49 11.1
8 -6 5 94.09 11.7
-9 6 -5 131.79 18.2
9 -6 5 118.89 16.5
8 5 -5 4.9 12.8
7 5 -5 3.1 9.7
7 5 -5 5.1 5.4
6 5 -5 25.6 5.5
6 5 -5 42.1 19.8
6 5 -5 16.3 4.2
6 5 -5 5.4 14.2
5 5 -5 97.19 11.5
5 5 -5 109.09 20.5
5 5 -5 82.99 7.6
5 5 -5 108.09 21.7
5 5 -5 94.79 14.7
5 5 -5 98.69 9.7
4 5 -5 457.95 23.8
4 5 -5 429.86 26
4 5 -5 422.56 12.5
4 5 -5 438.96 15.4
4 5 -5 433.06 18.2
3 5 -5 610.04 23.3
3 5 -5 613.64 28.4
3 5 -5 610.44 18.7
3 5 -5 599.64 15.2
3 5 -5 611.44 17.2
2 5 -5 294.67 11.9
2 5 -5 291.57 16.3
2 5 -5 297.07 12.2
2 5 -5 293.07 21.1
-2 -5 5 304.97 20
1 5 -5 84.19 8.2
1 5 -5 82.49 7.6
1 5 -5 79.59 16.5
-1 -5 5 71.29 13.4
0 5 -5 1571.04 30.2
0 5 -5 1619.84 31.7
0 5 -5 1624.74 27.5
0 -5 5 1635.64 30.2
0 -5 5 1599.04 42.2
-1 5 -5 1131.99 24.8
-1 5 -5 1118.49 23.7
1 -5 5 1076.39 23.5
1 -5 5 1089.19 35.3
1 -5 5 1125.99 19
-2 5 -5 143.99 10.8
-2 5 -5 143.29 10.2
2 -5 5 135.59 19.4
2 -5 5 147.29 7.1
2 -5 5 139.79 10.4
-3 5 -5 13.8 4.8
-3 5 -5 10.8 5.9
3 -5 5 8.5 4.9
3 -5 5 15.9 3.9
-4 5 -5 197.38 11.8
-4 5 -5 191.78 13.2
-4 5 -5 200.48 13.9
4 -5 5 199.78 13.1
-5 5 -5 13.4 6.1
-5 5 -5 13 5.1
-5 5 -5 15.7 6.2
-6 5 -5 5.9 5.4
-6 5 -5 8.2 10.9
-7 5 -5 98.19 16.8
-7 5 -5 72.19 8.1
-8 5 -5 28.6 17
-9 5 -5 -1.2 10
-9 5 -5 20 20.2
9 -5 5 -21.9 10.5
-10 5 -5 74.79 27.5
10 -5 5 15.1 17
9 4 -5 -6.8 15.3
8 4 -5 63.29 13.3
7 4 -5 339.17 31.6
7 4 -5 306.57 14.7
7 4 -5 308.27 25.9
7 4 -5 296.07 15.1
6 4 -5 24.6 7.5
6 4 -5 41.6 16.7
6 4 -5 33 17.4
5 4 -5 -5.1 5
5 4 -5 11.1 11.4
5 4 -5 -0.7 2.6
5 4 -5 -1 11.3
4 4 -5 271.87 20.4
4 4 -5 277.47 14.9
4 4 -5 269.97 18.4
4 4 -5 261.17 8.5
3 4 -5 1099.99 29.5
3 4 -5 1139.59 41.1
3 4 -5 1091.49 20.6
3 4 -5 1149.89 26
3 4 -5 1109.69 23.6
2 4 -5 430.06 12.9
2 4 -5 417.46 19.5
2 4 -5 431.86 13.6
2 4 -5 416.26 16.9
-2 -4 5 426.96 19
1 4 -5 87.89 13
1 4 -5 94.39 7.4
1 4 -5 88.09 7.1
-1 -4 5 90.19 11.7
-1 -4 5 80.59 8.4
0 4 -5 39.6 6.4
0 4 -5 26.1 4.1
0 -4 5 32.2 9.9
0 -4 5 37.8 4.9
0 -4 5 21.6 3.7
-1 4 -5 63.29 7.6
1 -4 5 67.89 7
1 -4 5 70.09 13.5
1 -4 5 77.19 5.8
-2 4 -5 374.76 12.4
-2 4 -5 366.66 12.7
2 -4 5 382.66 12.6
2 -4 5 382.56 11
-3 4 -5 86.19 7.9
-3 4 -5 82.89 9.8
-3 4 -5 77.29 9.4
3 -4 5 87.69 9.6
-4 4 -5 -3.3 4.4
-4 4 -5 -0.2 4.9
-4 4 -5 3.9 3.7
4 -4 5 4.4 4.9
-5 4 -5 129.59 12.6
-5 4 -5 167.38 17
-5 4 -5 136.19 12.6
-5 4 -5 128.19 11.2
5 -4 5 148.09 13.2
-6 4 -5 30.8 12.6
-6 4 -5 27.7 5.1
-6 4 -5 24.3 6.8
6 -4 5 23.6 7.5
-7 4 -5 52.39 6.4
-7 4 -5 72.19 16.5
7 -4 5 33.9 9.8
-8 4 -5 19.1 6.4
-8 4 -5 35.7 10.8
-8 4 -5 36.1 17.5
-9 4 -5 113.69 24.2
-10 4 -5 -8.6 23.3
10 -4 5 -5.6 15.6
9 3 -5 -17.1 11.6
8 3 -5 16.4 6.4
8 3 -5 5 9.6
8 3 -5 -1.5 24.9
7 3 -5 25.6 8.9
7 3 -5 37.9 6.1
7 3 -5 47 18.3
6 3 -5 4.6 6.2
6 3 -5 2.4 4.2
6 3 -5 1.9 11.7
5 3 -5 2120.49 48.7
5 3 -5 2075.19 50.49
5 3 -5 2136.49 45.2
4 3 -5 155.38 6.4
4 3 -5 143.89 13.7
4 3 -5 157.18 14.9
4 3 -5 151.28 12
3 3 -5 244.88 14.7
3 3 -5 249.88 6.9
3 3 -5 251.67 12.1
2 3 -5 295.97 11.2
2 3 -5 284.97 10.1
2 3 -5 296.57 14.1
2 3 -5 295.37 13.5
-2 -3 5 287.57 11
1 3 -5 4901.11 75.29
1 3 -5 4890.01 74.89
1 3 -5 4842.12 80.29
-1 -3 5 4994.3 75.39
-1 -3 5 5051.39 81.09
0 3 -5 2629.54 43
0 3 -5 2709.53 42.8
0 -3 5 2674.43 49.6
0 -3 5 2675.23 42.5
0 -3 5 2701.63 43
-1 3 -5 4.2 3.1
1 -3 5 5.1 2.9
1 -3 5 5.9 2.6
-2 3 -5 580.44 14.8
-2 3 -5 582.44 14.6
2 -3 5 586.24 14.4
2 -3 5 582.54 14.9
-3 3 -5 499.25 12.9
-3 3 -5 500.05 14.5
-3 3 -5 498.55 14.3
3 -3 5 496.65 14.2
-4 3 -5 36.1 5.6
-4 3 -5 34.9 4.2
-4 3 -5 43.7 6.2
4 -3 5 28.2 5.3
-5 3 -5 367.16 20.7
-5 3 -5 346.97 15.9
-5 3 -5 367.36 11.7
5 -3 5 386.96 15.9
-6 3 -5 247.28 10.4
-6 3 -5 271.77 14.2
-6 3 -5 245.28 19.9
6 -3 5 251.77 16.6
-7 3 -5 19.2 7.4
-7 3 -5 31.9 4.8
-7 3 -5 38.9 14.7
7 -3 5 22.9 8.9
-8 3 -5 1.2 4.4
-8 3 -5 15.6 15.7
-8 3 -5 -18.3 8.8
-9 3 -5 52.89 20.7
-10 3 -5 74.39 28.3
10 -3 5 25.1 21.2
9 2 -5 3.4 11.1
8 2 -5 80.89 11
8 2 -5 67.79 11.5
7 2 -5 483.75 32.7
7 2 -5 543.95 29.5
7 2 -5 491.35 14.7
6 2 -5 273.57 10.8
6 2 -5 285.87 18.2
5 2 -5 -1.1 3.5
5 2 -5 3.5 5.1
5 2 -5 3 9.1
4 2 -5 280.17 13.7
4 2 -5 288.57 15.6
3 2 -5 403.96 15.7
3 2 -5 403.76 13.9
3 2 -5 396.76 14.3
2 2 -5 360.16 11.9
2 2 -5 359.36 7.6
2 2 -5 349.07 13.4
2 2 -5 357.96 12
-2 -2 5 356.66 11.9
1 2 -5 1907.01 30.7
1 2 -5 1872.31 32.9
1 2 -5 1887.21 31.8
-1 -2 5 1957.3 32.9
-1 -2 5 1977 33.4
0 2 -5 563.44 13.5
0 2 -5 553.84 11.9
0 -2 5 534.75 13.6
0 -2 5 552.34 13
-1 2 -5 4611.04 68.79
-1 2 -5 4544.05 68.69
1 -2 5 4503.05 68.59
1 -2 5 4597.54 69.59
-2 2 -5 290.57 9.7
-2 2 -5 284.77 9.7
2 -2 5 276.47 9.3
-3 2 -5 970.9 20.5
-3 2 -5 983.7 20.4
-3 2 -5 971.5 18.3
3 -2 5 986 20.3
-4 2 -5 68.59 8.5
-4 2 -5 62.69 6.3
-4 2 -5 67.39 5.5
4 -2 5 67.59 7.4
-5 2 -5 63.69 5.8
-5 2 -5 52.09 6.4
-5 2 -5 74.49 13.2
5 -2 5 48.8 6.5
-6 2 -5 6.6 5.3
-6 2 -5 -0.8 3
-6 2 -5 3.8 10.6
6 -2 5 -7.9 6
-7 2 -5 68.79 8.6
-7 2 -5 94.89 17.9
7 -2 5 60.69 9.7
-8 2 -5 285.27 28.4
-9 2 -5 207.08 32.6
-10 2 -5 48.1 27
10 1 -5 7.7 15.4
9 1 -5 80.99 13.9
8 1 -5 1.9 9.4
8 1 -5 18.9 6
-8 -1 5 20.6 16.3
7 1 -5 3.1 7.1
7 1 -5 12.3 4.7
7 1 -5 7.4 12.4
-7 -1 5 2.6 10.7
6 1 -5 63.89 13.3
6 1 -5 60.99 8.1
6 1 -5 43.5 7.4
-6 -1 5 57.09 11.4
5 1 -5 118.69 12.5
5 1 -5 130.19 8.4
5 1 -5 107.09 14.2
-5 -1 5 129.69 14
4 1 -5 3.3 3.1
4 1 -5 10.1 7.4
4 1 -5 -0.4 3.6
3 1 -5 2033.9 39.5
3 1 -5 2065.49 37.9
-3 -1 5 2113.49 38.1
2 1 -5 1284.57 19.8
2 1 -5 1321.47 25.6
-2 -1 5 1344.87 25.6
0 1 -5 2088.69 35.2
0 1 -5 2140.59 33
0 1 -5 2082.49 33
0 -1 5 2102.79 33
0 -1 5 2078.89 34.9
0 -1 5 2092.39 33
-1 1 -5 792.32 15.2
1 -1 5 809.82 15.1
1 -1 5 777.82 15.7
1 -1 5 798.22 17.5
-2 1 -5 159.28 7.5
-2 1 -5 165.68 7.4
2 -1 5 156.48 7.8
2 -1 5 164.98 7.1
-3 1 -5 2.5 3.3
-3 1 -5 0.6 3
3 -1 5 1 3.1
3 -1 5 5.1 3.5
-4 1 -5 910.01 26.4
-4 1 -5 937.41 20.5
-4 1 -5 836.92 17.5
4 -1 5 916.81 20.7
4 -1 5 959.8 20.3
-5 1 -5 25.5 11.2
-5 1 -5 29.2 5.6
5 -1 5 22 5.4
5 -1 5 22.4 5.8
-6 1 -5 -0.7 9.6
-6 1 -5 -1.2 4.9
6 -1 5 5 5.9
-7 1 -5 18.7 20.6
-7 1 -5 7.9 6.5
7 -1 5 5.4 6.8
-8 1 -5 91.49 19.3
-9 1 -5 13.9 20.3
10 0 -5 28 15.2
9 0 -5 47 11.9
-9 0 5 62.49 20.2
8 0 -5 170.88 21.6
-8 0 5 144.29 22.1
7 0 -5 15.5 7.6
7 0 -5 18.3 5.6
-7 0 5 36 12.7
6 0 -5 1234.98 25.1
6 0 -5 1307.47 33.3
6 0 -5 1291.57 35.1
-6 0 5 1236.08 34.4
5 0 -5 596.54 22
5 0 -5 607.94 20
5 0 -5 588.04 14.9
-5 0 5 555.84 20.9
4 0 -5 343.57 14.9
4 0 -5 337.77 14.1
4 0 -5 345.27 11
3 0 -5 8330.37 127.69
3 0 -5 8415.36 127.19
3 0 -5 8473.95 123.99
-3 0 5 8600.34 127.29
2 0 -5 843.52 16.9
2 0 -5 814.72 13.7
2 0 -5 813.82 16.3
2 0 -5 822.42 18.5
-2 0 5 826.82 13.8
-2 0 5 817.22 18.2
1 0 -5 6817.92 99.89
1 0 -5 6807.72 99.09
1 0 -5 6851.41 101.79
-1 0 5 6832.72 101.59
0 0 -5 4778.02 73.39
0 0 -5 4814.12 71.09
0 0 -5 4879.91 71.19
0 0 5 4754.52 71.09
0 0 5 4900.91 70.19
0 0 5 4712.33 73.19
-1 0 -5 90.49 4.8
-1 0 -5 92.39 6.6
1 0 5 90.29 6.2
1 0 5 98.19 4.7
1 0 5 91.09 7.8
-2 0 -5 2017 32.1
-2 0 -5 2030.4 31.1
-2 0 -5 2032.3 33.9
2 0 5 1996.8 32.1
2 0 5 2011.4 34.1
-3 0 -5 3732.63 58.69
-3 0 -5 3739.53 53.89
-3 0 -5 3666.13 64.29
3 0 5 3678.83 58.79
3 0 5 3724.23 56.99
-4 0 -5 377.16 18.6
-4 0 -5 383.86 13.1
4 0 5 394.56 12.5
4 0 5 391.26 13.5
-5 0 -5 894.31 29.7
-5 0 -5 935.81 21.9
5 0 5 919.21 22.1
-6 0 -5 313.87 14.1
-6 0 -5 298.07 21.3
6 0 5 309.67 14.6
6 0 5 288.07 14.6
-7 0 -5 133.09 21
-7 0 -5 88.89 9.2
7 0 5 75.29 9
7 0 5 99.29 12.7
-8 0 -5 171.58 27.7
-9 0 -5 45.7 22.4
10 -1 -5 95.69 16.7
-10 1 5 173.08 33.4
9 -1 -5 36.9 11.4
9 -1 -5 31 8.8
-9 1 5 36.7 18.3
8 -1 -5 26.4 6.5
8 -1 -5 19.2 8.6
-8 1 5 39.3 14.7
7 -1 -5 232.78 20.8
7 -1 -5 220.38 12.1
7 -1 -5 234.88 18.4
-7 1 5 222.08 19
6 -1 -5 223.48 16
6 -1 -5 228.98 17.6
6 -1 -5 226.78 11.5
-6 1 5 234.88 7.2
-6 1 5 236.48 16.9
5 -1 -5 210.08 10.4
5 -1 -5 216.78 15.8
5 -1 -5 213.98 14.8
-5 1 5 214.58 13.9
4 -1 -5 1462.95 30.7
4 -1 -5 1512.55 31.2
4 -1 -5 1471.45 27.6
-4 1 5 1463.35 30.9
-4 1 5 1448.16 24.1
-4 1 5 1546.65 31.1
-4 1 5 1500.45 27.9
3 -1 -5 30.7 4.3
3 -1 -5 41.8 6.2
-3 1 5 24.7 3.6
-3 1 5 33 4.4
2 -1 -5 1497.05 27.9
2 -1 -5 1485.45 26.2
2 -1 -5 1502.65 26.4
2 -1 -5 1416.86 32.3
-2 1 5 1517.75 27.7
-2 1 5 1452.05 26.3
-2 1 5 1507.55 24.4
1 -1 -5 2106.69 39.2
1 -1 -5 2109.79 35.8
1 -1 -5 2140.09 36.1
1 -1 -5 2125.49 33.5
-1 1 5 2072.69 38.1
-1 1 5 2039 34.2
-1 1 5 2082.29 35.5
-1 1 5 2059.99 33.3
0 -1 -5 110.49 3.9
0 -1 -5 101.09 5.7
0 -1 -5 108.09 6.7
0 -1 -5 96.19 7.8
0 1 5 98.19 5.7
0 1 5 101.89 5.9
0 1 5 102.89 8.9
-1 -1 -5 56.89 4.8
-1 -1 -5 53.89 5.5
-1 -1 -5 59.99 3.9
1 1 5 59.49 3.3
1 1 5 55.59 4.9
1 1 5 62.09 6.1
-2 -1 -5 2293.87 38.6
-2 -1 -5 2273.47 42.1
-2 -1 -5 2349.36 35.6
2 1 5 2330.97 39
-3 -1 -5 584.04 9.9
-3 -1 -5 551.44 19.4
-3 -1 -5 572.04 14.8
3 1 5 585.24 15.4
-4 -1 -5 94.89 10.5
-4 -1 -5 77.79 13.4
4 1 5 92.89 9.4
4 1 5 105.29 9.4
-5 -1 -5 -8.3 9
-5 -1 -5 4.6 4.4
5 1 5 3.2 4.7
5 1 5 3.3 4.7
-6 -1 -5 0.8 5.2
-6 -1 -5 -2.2 11.7
6 1 5 15.8 5.8
6 1 5 0.7 5.6
-7 -1 -5 38 8.8
-7 -1 -5 57.29 17.8
7 1 5 28.2 8.4
7 1 5 33.1 7.3
-8 -1 -5 69.59 11.1
-8 -1 -5 85.09 21
8 1 5 45.1 9
8 1 5 61.59 12.3
-9 -1 -5 77.49 27.4
10 -2 -5 56.49 15.8
-10 2 5 86.89 22.8
9 -2 -5 -2.4 9.7
9 -2 -5 -14.9 8.7
-9 2 5 -7.1 16.2
8 -2 -5 11.3 11
8 -2 -5 -19.2 15.5
8 -2 -5 2.3 6.2
-8 2 5 11.9 12.5
-8 2 5 8 5
7 -2 -5 4.9 6.3
7 -2 -5 5.8 11.5
7 -2 -5 4.3 5.1
-7 2 5 1.2 4.1
-7 2 5 3.5 9.6
6 -2 -5 100.99 10.1
6 -2 -5 117.29 15.2
6 -2 -5 96.89 13.7
-6 2 5 120.69 13.8
-6 2 5 116.09 11.2
5 -2 -5 2.2 7.7
5 -2 -5 0.3 4.3
-5 2 5 0.7 4.2
-5 2 5 4 6.8
4 -2 -5 1386.46 28.3
4 -2 -5 1370.86 29
4 -2 -5 1343.67 34.5
4 -2 -5 1390.56 26.9
-4 2 5 1352.16 27.1
-4 2 5 1387.96 28.9
3 -2 -5 18.5 3.6
3 -2 -5 19.8 3.9
3 -2 -5 25.9 5.1
3 -2 -5 26.2 9.8
-3 2 5 20.6 3.1
-3 2 5 22.4 4.5
-3 2 5 16.9 3.6
2 -2 -5 681.53 21.3
2 -2 -5 719.13 17.2
2 -2 -5 718.63 13.8
-2 2 5 721.73 15.1
-2 2 5 695.23 16.1
-2 2 5 719.23 16.6
1 -2 -5 2346.67 38.4
1 -2 -5 2277.57 45.9
1 -2 -5 2324.77 39.3
-1 2 5 2293.27 37.9
-1 2 5 2334.37 46.8
-1 2 5 2291.67 38.3
-1 2 5 2383.26 47.6
0 -2 -5 4890.81 73.39
0 -2 -5 4896.31 74.19
0 2 5 4723.33 73.29
0 2 5 4898.11 84.59
0 2 5 4861.61 74.19
0 2 5 4945.81 75.39
-1 -2 -5 20.8 3.4
-1 -2 -5 29.6 5.8
-1 -2 -5 30 4.1
1 2 5 26.1 3.4
1 2 5 22 3.6
1 2 5 36.9 9.7
-2 -2 -5 956.9 23.8
-2 -2 -5 995.4 17.8
-2 -2 -5 1006 21.1
2 2 5 985.6 21.2
2 2 5 1003.4 16.1
2 2 5 996.3 31.8
2 2 5 1015.8 18.1
-3 -2 -5 0.4 1.9
-3 -2 -5 2.2 7
3 2 5 6 4.2
3 2 5 2.9 2.8
-4 -2 -5 274.77 18.2
-4 -2 -5 290.47 12.8
4 2 5 278.57 10.2
4 2 5 267.17 13
-5 -2 -5 9.2 10.5
-5 -2 -5 1.2 5
5 2 5 15.4 5.6
5 2 5 3.7 4.5
-6 -2 -5 80.09 16.1
-6 -2 -5 59.19 8.4
6 2 5 60.59 7.2
6 2 5 58.09 7.6
-7 -2 -5 29.7 16.6
7 2 5 23.6 7.5
7 2 5 16.4 8.7
-8 -2 -5 -6.1 19.8
8 2 5 -0.6 11
8 2 5 6.8 15
-9 -2 -5 -7.5 25.1
10 -3 -5 12.9 13.2
-10 3 5 20.8 19.2
9 -3 -5 -6.6 10.2
9 -3 -5 6.5 10.1
-9 3 5 15.1 15
8 -3 -5 24.3 7.6
8 -3 -5 34.7 11.6
-8 3 5 31.4 10
-8 3 5 54.09 13.5
-8 3 5 47.4 8
7 -3 -5 6.9 6.3
7 -3 -5 6.7 6
7 -3 -5 9.3 7.4
-7 3 5 16.4 10.1
-7 3 5 6.4 5.9
-7 3 5 9.8 5.3
6 -3 -5 -4.4 4.9
6 -3 -5 7.4 6.4
6 -3 -5 2.4 6.4
-6 3 5 -5.5 4.9
-6 3 5 0.5 7.2
5 -3 -5 720.83 30.6
5 -3 -5 713.23 20.3
5 -3 -5 744.73 19.9
5 -3 -5 735.23 19.7
5 -3 -5 708.43 21.2
-5 3 5 738.03 20.4
-5 3 5 704.73 19.9
4 -3 -5 32.5 6.4
4 -3 -5 25.3 5.2
4 -3 -5 33.2 13.5
4 -3 -5 22.5 4.6
-4 3 5 17.5 5.1
-4 3 5 21.1 4.5
3 -3 -5 520.95 23
3 -3 -5 515.45 15.4
3 -3 -5 521.35 15.4
3 -3 -5 521.55 11.7
3 -3 -5 513.85 13.2
-3 3 5 525.85 15.3
-3 3 5 524.15 14.7
2 -3 -5 -2.5 7.8
2 -3 -5 1.5 3.3
2 -3 -5 2.8 3.4
2 -3 -5 0.1 2.7
-2 3 5 3.4 9.8
-2 3 5 1.6 2.8
-2 3 5 2.7 3
-2 3 5 3.2 3.7
1 -3 -5 581.34 22.7
1 -3 -5 605.74 15.5
1 -3 -5 619.24 11.2
1 -3 -5 627.04 15.4
-1 3 5 600.24 15.3
-1 3 5 598.54 15.5
-1 3 5 622.24 15.6
-1 3 5 611.44 23.7
0 -3 -5 137.79 14.2
0 -3 -5 156.88 8
0 3 5 139.89 8.3
0 3 5 147.79 15
0 3 5 148.29 9.7
0 3 5 133.59 8.4
-1 -3 -5 100.89 8.5
-1 -3 -5 112.29 7.1
1 3 5 113.29 7.6
1 3 5 99.29 8.2
1 3 5 107.09 15.2
1 3 5 106.89 10
-2 -3 -5 605.84 17.1
-2 -3 -5 595.34 18.7
-2 -3 -5 590.84 13.7
2 3 5 605.54 27.2
2 3 5 611.34 17
2 3 5 598.34 13.9
-3 -3 -5 342.17 18.2
-3 -3 -5 351.66 17.2
-3 -3 -5 362.16 9.6
3 3 5 369.16 14.4
3 3 5 389.76 24.5
3 3 5 364.36 8.7
3 3 5 362.76 9.9
-4 -3 -5 133.19 11.8
-4 -3 -5 132.79 16
4 3 5 115.49 11.8
4 3 5 118.69 7.5
-5 -3 -5 52.79 7.9
-5 -3 -5 72.59 14.6
5 3 5 90.69 23.5
5 3 5 46.1 7.1
5 3 5 50.29 5.7
-6 -3 -5 0.2 13.6
6 3 5 -4 6.2
6 3 5 -1.2 6
-7 -3 -5 16.1 17.3
7 3 5 9.3 9.5
7 3 5 10.8 8.4
-8 -3 -5 -11.8 20.9
8 3 5 -5.3 10.1
-10 4 5 67.29 21.2
9 -4 -5 -2.8 10.5
9 -4 -5 10.9 13.3
8 -4 -5 80.29 10.9
8 -4 -5 73.19 10.3
-8 4 5 113.79 18.1
-8 4 5 83.79 10.5
-8 4 5 91.19 9.8
7 -4 -5 -0.9 18
7 -4 -5 4.5 8.5
7 -4 -5 9.6 6.5
7 -4 -5 1.1 6.3
-7 4 5 7.2 9
-7 4 5 7.9 7.1
6 -4 -5 106.59 24
6 -4 -5 102.79 13.9
6 -4 -5 107.59 12.7
6 -4 -5 120.99 13.8
-6 4 5 122.99 13.5
-6 4 5 102.49 11.6
5 -4 -5 437.36 16.2
5 -4 -5 449.16 17.4
5 -4 -5 452.75 17
5 -4 -5 441.06 29.2
-5 4 5 459.45 17.6
4 -4 -5 12.8 5.4
4 -4 -5 18.5 4.9
4 -4 -5 13.4 13.8
-4 4 5 14.3 4.2
-4 4 5 21.4 5.9
3 -4 -5 267.37 12.3
3 -4 -5 268.27 12.6
3 -4 -5 255.17 10.5
3 -4 -5 260.17 21.1
-3 4 5 274.07 13.4
-3 4 5 269.87 12.7
2 -4 -5 16.8 12
2 -4 -5 9.5 4.1
2 -4 -5 14.9 4.2
-2 4 5 12.2 4.8
-2 4 5 14.1 4.2
1 -4 -5 1 9.1
1 -4 -5 5.4 2.2
-1 4 5 6.9 4.4
-1 4 5 -4.6 13.9
-1 4 5 1.8 3.6
-1 4 5 5.1 4
0 -4 -5 45.6 12.4
0 -4 -5 57.49 8.2
0 4 5 60.19 15
0 4 5 48.5 5.7
0 4 5 31.7 5.5
0 4 5 31.4 4.9
-1 -4 -5 120.79 8.7
-1 -4 -5 108.09 9.1
1 4 5 109.19 18.6
1 4 5 110.29 9
1 4 5 113.69 10
-2 -4 -5 41.3 8.6
-2 -4 -5 25.2 4.3
2 4 5 20.2 14.5
2 4 5 29.7 5.8
2 4 5 34.3 4.9
-3 -4 -5 39.8 9.8
3 4 5 25.3 4
3 4 5 19.6 5.7
-4 -4 -5 33.2 11.3
4 4 5 16.5 6.1
4 4 5 18.8 3.4
4 4 5 24.6 3.5
-5 -4 -5 20.5 12.8
5 4 5 16.3 7.1
5 4 5 23.6 7.3
-6 -4 -5 158.28 26.8
6 4 5 141.69 17.4
-7 -4 -5 40 29.9
7 4 5 7.8 10
-8 -4 -5 29.1 27.6
8 4 5 27.8 12.3
10 -5 -5 -4 34.7
10 -5 -5 -11.3 14.8
-10 5 5 -8.8 15.7
9 -5 -5 21.2 29.4
9 -5 -5 -1.5 11.2
-9 5 5 -7.2 10.1
-9 5 5 38 17
8 -5 -5 16.6 24.2
8 -5 -5 4.9 8.4
-8 5 5 5.1 9
-8 5 5 0.1 11
7 -5 -5 173.78 17.5
7 -5 -5 176.18 17.9
7 -5 -5 194.88 32.7
-7 5 5 170.88 17.9
-7 5 5 172.08 14.8
6 -5 -5 122.29 24.1
6 -5 -5 104.39 15.3
6 -5 -5 86.99 13.9
-6 5 5 79.99 10.1
5 -5 -5 12 5.3
5 -5 -5 25.4 6.4
5 -5 -5 19.7 6.7
5 -5 -5 18.7 16.4
-5 5 5 23.9 6.8
4 -5 -5 162.48 23.4
4 -5 -5 179.98 11.9
4 -5 -5 189.58 13.6
4 -5 -5 195.38 12.3
-4 5 5 179.88 14.5
3 -5 -5 483.35 15.3
3 -5 -5 483.05 14.1
3 -5 -5 474.55 17.3
3 -5 -5 487.55 28.6
-3 5 5 504.05 18.3
-3 5 5 489.45 14.3
2 -5 -5 161.18 11.8
2 -5 -5 169.78 10.1
2 -5 -5 148.89 21.1
-2 5 5 169.08 12.9
-2 5 5 161.08 24.3
-2 5 5 181.58 11.9
-2 5 5 167.38 9.2
1 -5 -5 637.74 11.7
1 -5 -5 651.63 31.7
1 -5 -5 666.43 19
-1 5 5 630.64 19.1
-1 5 5 659.13 16.9
-1 5 5 645.14 19.2
-1 5 5 646.74 32.4
0 -5 -5 360.96 14.3
0 -5 -5 370.06 25.9
0 5 5 370.86 14.8
0 5 5 359.96 14
0 5 5 366.46 27.5
0 5 5 352.76 15.2
-1 -5 -5 392.96 14.1
-1 -5 -5 388.76 14.4
1 5 5 414.36 16.4
1 5 5 394.56 14.8
1 5 5 387.86 15.9
-2 -5 -5 117.29 12.4
2 5 5 127.19 10.1
2 5 5 140.89 12.8
-3 -5 -5 28.3 10.2
3 5 5 10.7 6.2
3 5 5 16.8 4.6
-4 -5 -5 72.19 14.3
4 5 5 36.1 7.8
4 5 5 53.89 7.4
5 5 5 26.1 9.7
-6 -5 -5 11 18
6 5 5 13.7 10.7
-7 -5 -5 34.4 23.8
7 5 5 3.9 10.8
9 -6 -5 9.8 15.3
9 -6 -5 18.2 33.2
-9 6 5 2 12.6
8 -6 -5 78.49 29.9
8 -6 -5 27.1 10.5
-8 6 5 43.4 11.3
7 -6 -5 0.4 6.8
7 -6 -5 -1.6 21.8
-7 6 5 14.2 10
6 -6 -5 26.2 6.7
6 -6 -5 62.39 24.9
-6 6 5 27.7 8.7
5 -6 -5 67.19 10.1
5 -6 -5 69.79 8.9
5 -6 -5 105.19 26.5
5 -6 -5 80.49 11.8
-5 6 5 69.19 9.6
4 -6 -5 257.47 27
4 -6 -5 277.27 12.8
4 -6 -5 238.08 13.7
-4 6 5 281.57 17.4
3 -6 -5 34.1 5.4
3 -6 -5 44 19.6
-3 6 5 32.4 7.6
-3 6 5 26.8 6.5
-3 6 5 28.6 4.2
2 -6 -5 1033.7 41.8
2 -6 -5 975.8 19.1
2 -6 -5 995.5 26.6
-2 6 5 1035.1 26.4
-2 6 5 983.1 26.4
-2 6 5 945.31 41.7
1 -6 -5 1290.17 46.5
1 -6 -5 1235.38 29.4
-1 6 5 1224.28 24.7
-1 6 5 1246.08 29.8
-1 6 5 1237.38 31.6
-1 6 5 1139.79 52.29
0 -6 -5 28.4 16.6
0 -6 -5 26.4 6.4
0 6 5 21.5 6.5
0 6 5 10.4 4.8
0 6 5 12.3 6
-1 -6 -5 4.7 5.5
1 6 5 3.7 5.6
1 6 5 5.1 5.4
1 6 5 5.9 6.1
2 6 5 22.5 7.1
2 6 5 27.1 23.2
2 6 5 24.3 6.2
2 6 5 30.8 7.6
3 6 5 -3.9 4.7
3 6 5 -11.5 8.1
-4 -6 -5 7.6 13.4
4 6 5 -5.2 4.7
4 6 5 5.5 8.6
-5 -6 -5 190.18 28.3
5 6 5 143.39 19.6
-6 -6 -5 33 24.6
6 6 5 -12.4 14.6
9 -7 -5 103.79 52.99
-9 7 5 21.2 15.9
8 -7 -5 99.79 15.6
-8 7 5 111.09 16
7 -7 -5 19.4 26.6
7 -7 -5 -0.7 8.4
-7 7 5 3.7 11.1
6 -7 -5 19.9 6.9
6 -7 -5 44.7 27.7
6 -7 -5 14.8 10.9
-6 7 5 13.9 9.8
5 -7 -5 5.9 19.3
5 -7 -5 5.8 5
5 -7 -5 5.5 8.6
-5 7 5 2.5 9.2
4 -7 -5 32.3 7.6
-4 7 5 35.7 15.7
-4 7 5 41.5 9
3 -7 -5 341.67 20.3
3 -7 -5 330.17 34.4
3 -7 -5 314.17 14.4
2 -7 -5 15.6 18.9
2 -7 -5 2.8 4.3
2 -7 -5 -1.6 7.7
-2 7 5 -2 6.7
-2 7 5 -21.9 22.1
-2 7 5 5.5 3.1
1 -7 -5 2.1 33.1
-1 7 5 -12.8 18.3
-1 7 5 -0.2 6.6
0 -7 -5 27.9 20.8
0 7 5 10 7
0 7 5 13.3 5.2
0 7 5 15.7 7.6
1 7 5 52.29 9
1 7 5 57.19 8.4
2 7 5 -0.9 9.1
2 7 5 -1.3 6.3
2 7 5 17.3 12.6
3 7 5 5.1 6.5
3 7 5 22.8 11
3 7 5 -5.5 8.5
4 7 5 39.5 7.4
4 7 5 32.9 10.5
5 7 5 48.3 12.2
8 -8 -5 153.68 41.7
7 -8 -5 31.7 32
-7 8 5 24.3 13.6
6 -8 -5 33.9 28.8
-6 8 5 10.6 12
5 -8 -5 13.8 24.7
-5 8 5 -5.6 9.7
-5 8 5 -2.8 10.2
4 -8 -5 35.6 27.1
4 -8 -5 6.7 8.9
-4 8 5 18.6 9.9
-4 8 5 3.3 9
3 -8 -5 8 22.8
3 -8 -5 3.7 7.4
-3 8 5 -16 8.9
-3 8 5 6.8 9
2 -8 -5 146.59 30.1
-2 8 5 107.59 12.8
-2 8 5 100.49 12
1 -8 -5 22.6 24.2
-1 8 5 -9.9 8.4
-1 8 5 1.9 8.8
0 8 5 20.6 6.3
0 8 5 49.99 11.2
0 8 5 23.6 9.4
1 8 5 7.4 8.3
1 8 5 9.8 9.2
2 8 5 127.29 14.3
3 8 5 4.1 9.2
3 8 5 -5.3 11.1
4 8 5 4 12.8
7 -9 -5 26.1 36.9
-7 9 5 15.2 16.7
6 -9 -5 4.5 41.7
-6 9 5 12.9 14.4
-6 9 5 11 13.4
5 -9 -5 45 35.9
-5 9 5 13.7 12.7
-5 9 5 -15.7 12.5
4 -9 -5 14.1 29
-4 9 5 1.8 11.2
-4 9 5 1.1 11.6
3 -9 -5 95.39 35.3
-3 9 5 63.89 12.5
-3 9 5 70.49 13.8
2 -9 -5 -1.3 28
-2 9 5 -8.5 11
-2 9 5 5.3 12
1 -9 -5 -27.1 26.6
-1 9 5 -7.1 10.3
-1 9 5 -13.4 10.6
0 9 5 47.4 13.1
0 9 5 56.29 12.1
1 9 5 13.2 12.4
1 9 5 -6.8 10.2
2 9 5 -10.6 12.4
2 9 5 27.6 14
4 -10 -5 35 45.9
-4 10 5 63.39 26
-4 10 5 1.1 25.6
3 -10 -5 0.5 37.6
-3 10 5 13.9 17.8
-3 10 5 -26.8 14.6
2 -10 -5 43.1 45.7
-2 10 5 41.6 19.1
-2 10 5 12.4 14.4
-1 10 5 5 14.3
0 11 -6 21.6 15.9
0 11 -6 18.8 12.3
0 -11 6 83.79 42.3
-1 11 -6 41 17
-1 11 -6 25.6 12.1
1 -11 6 61.29 41.6
-2 11 -6 -1.4 11.4
-2 11 -6 -15.5 15.3
2 -11 6 65.69 52.99
-3 11 -6 24.1 13.1
-3 11 -6 -18.8 18.1
3 -11 6 90.59 43.6
4 -11 6 69.19 73.49
3 10 -6 35.8 13.2
2 10 -6 -19.2 10.7
2 10 -6 21.7 14.7
2 10 -6 -12 10.9
1 10 -6 35.7 10.9
1 10 -6 4.4 11.5
-1 -10 6 63.09 33.7
0 10 -6 9.6 11.2
0 10 -6 13.1 9.6
0 -10 6 4.9 26.9
-1 10 -6 10.5 11.2
-1 10 -6 -7.9 9
1 -10 6 11.1 27.8
-2 10 -6 17.4 11.3
-2 10 -6 9 10.7
2 -10 6 30.7 32.2
-3 10 -6 28.7 12.4
-3 10 -6 31.7 10.6
3 -10 6 67.39 33
-4 10 -6 15.4 13.2
-4 10 -6 19.3 10.4
4 -10 6 53.19 34.6
-5 10 -6 7.9 12.3
-5 10 -6 -29.4 12
5 -10 6 34.8 37.5
-6 10 -6 -3.5 14.5
6 -10 6 74.19 44.2
4 9 -6 20.6 10.8
4 9 -6 21.4 11.9
4 9 -6 28.8 12.6
3 9 -6 71.99 11.4
3 9 -6 73.69 11
3 9 -6 67.69 12.4
2 9 -6 64.89 9.7
2 9 -6 38.9 10.4
2 9 -6 45.5 9.7
1 9 -6 6.4 7.2
1 9 -6 -12.8 8.9
1 9 -6 17.8 17.4
-1 -9 6 1.5 24.9
0 9 -6 14.5 9.1
0 9 -6 8.4 7.6
0 9 -6 44.8 16.2
0 -9 6 13.9 23.8
-1 9 -6 0 8.2
-1 9 -6 7.9 13.8
-1 9 -6 -2.6 7.4
1 -9 6 20.5 23.5
1 -9 6 18.8 9.4
-2 9 -6 2.9 8.9
-2 9 -6 1.2 10.3
2 -9 6 -9 9.5
2 -9 6 6.9 24.2
-3 9 -6 25.1 9.7
-3 9 -6 19.5 8.6
3 -9 6 37.7 27.3
-4 9 -6 -0.5 10
-4 9 -6 -0.9 9.3
4 -9 6 7.8 24.4
-5 9 -6 78.29 13.3
5 -9 6 70.39 31.5
-6 9 -6 34.2 19.1
-6 9 -6 10.6 11.9
6 -9 6 27.2 32.1
-7 9 -6 31.1 21.9
-7 9 -6 12.2 14
7 -9 6 65.59 44.4
5 8 -6 9.2 8.2
5 8 -6 -17.1 10.6
5 8 -6 11.4 11
5 8 -6 -14.1 9.6
4 8 -6 -3.1 8.7
4 8 -6 6.7 8.1
4 8 -6 23.4 11.6
3 8 -6 -6.8 8.2
3 8 -6 15.2 31.2
3 8 -6 0 6.4
3 8 -6 -10.8 5.4
3 8 -6 6.2 6.9
2 8 -6 5.4 6.4
2 8 -6 25.1 13.9
2 8 -6 2.5 4.4
2 8 -6 7.2 24.4
1 8 -6 132.29 13.4
1 8 -6 132.19 15.7
1 8 -6 158.18 19.4
-1 -8 6 134.09 26.6
0 8 -6 3.4 6.1
0 8 -6 -3.8 7.6
0 8 -6 1.4 10.8
0 -8 6 7.5 17.6
-1 8 -6 146.39 14.5
1 -8 6 96.39 10.8
-2 8 -6 7.2 6.8
2 -8 6 15.1 20.1
-3 8 -6 6 7.2
-3 8 -6 -5.1 6.7
3 -8 6 1.1 21.9
3 -8 6 3.7 6.8
-4 8 -6 48.3 9.7
4 -8 6 72.29 26.5
-5 8 -6 132.99 19.4
-5 8 -6 94.29 11.9
5 -8 6 160.18 35.3
-6 8 -6 40.6 10.6
-6 8 -6 48.3 10.5
-6 8 -6 57.19 17.2
6 -8 6 65.59 32.5
-7 8 -6 28.9 12
-7 8 -6 57.79 18.6
7 -8 6 43.7 37.2
7 -8 6 24 10
-8 8 -6 25.4 21.6
-8 8 -6 -14.4 13.5
8 -8 6 -45.7 41.5
7 7 -6 -11.3 11.1
6 7 -6 61.69 12.2
6 7 -6 94.99 10.7
6 7 -6 101.99 12.1
5 7 -6 1.5 13.5
5 7 -6 -0.8 7.2
5 7 -6 11.8 7.8
5 7 -6 7.6 6
4 7 -6 156.68 15.2
4 7 -6 160.58 12.3
4 7 -6 160.68 14
4 7 -6 167.28 15
4 7 -6 226.88 30.2
3 7 -6 5.9 5
3 7 -6 33.2 20.6
3 7 -6 15.6 6.2
3 7 -6 1.6 6
3 7 -6 22.5 12.7
3 7 -6 6.5 5.1
2 7 -6 40.5 12.3
2 7 -6 21.4 6
2 7 -6 29.7 7
2 7 -6 55.29 19.5
2 7 -6 22.3 6.5
-2 -7 6 47.9 17.6
1 7 -6 158.48 13.9
1 7 -6 166.18 16.2
1 7 -6 150.08 9.1
1 7 -6 163.18 12.3
-1 -7 6 155.28 21.6
0 7 -6 33.1 6.2
0 7 -6 22.7 6.5
0 -7 6 26.6 15.6
0 -7 6 35.6 6.5
-1 7 -6 753.62 23
-1 7 -6 720.93 20.9
1 -7 6 737.23 35
1 -7 6 711.63 20.9
-2 7 -6 -4.6 5.3
-2 7 -6 4.3 5.8
2 -7 6 0.1 16.4
2 -7 6 -3.5 5.7
-3 7 -6 47.1 7.9
-3 7 -6 59.69 8.3
3 -7 6 54.49 9.5
3 -7 6 90.89 22.2
-4 7 -6 123.19 15.2
-4 7 -6 138.79 14.7
4 -7 6 110.29 9.3
4 -7 6 122.89 13.4
4 -7 6 123.49 28.8
-5 7 -6 90.19 10.2
5 -7 6 91.99 28.4
5 -7 6 92.99 12.3
5 -7 6 78.09 10.8
-6 7 -6 0.5 9.1
-6 7 -6 -7.7 13.5
6 -7 6 -1.5 5.7
6 -7 6 -4.1 7.2
-7 7 -6 -10.4 15.4
-7 7 -6 9.4 9.3
7 -7 6 -2.5 8
-8 7 -6 104.89 21.2
-8 7 -6 64.09 13.9
8 -7 6 80.59 13.6
-9 7 -6 30.3 15.8
-9 7 -6 93.89 26.7
9 -7 6 70.69 16.9
7 6 -6 12.4 8.6
7 6 -6 10.8 10.9
6 6 -6 -5.7 4.5
6 6 -6 10.2 7.4
6 6 -6 5 6.2
6 6 -6 51.69 27.1
6 6 -6 8.5 8.8
5 6 -6 5.3 6.9
5 6 -6 11.8 6.3
5 6 -6 5.5 4.5
5 6 -6 3.1 5.5
4 6 -6 42.2 7.2
4 6 -6 64.59 8.7
4 6 -6 51.19 7.1
4 6 -6 54.09 7.2
3 6 -6 215.58 12.3
3 6 -6 226.08 18.5
3 6 -6 214.08 10.9
3 6 -6 214.18 13.4
3 6 -6 226.88 13.1
3 6 -6 230.08 22.9
2 6 -6 14.1 5.3
2 6 -6 28.7 14.9
2 6 -6 16.8 4.6
2 6 -6 20.8 5.2
2 6 -6 21.6 9.8
-2 -6 6 21.9 13.2
1 6 -6 954.1 22.6
1 6 -6 928.41 27.5
1 6 -6 939.71 20.6
1 6 -6 936.81 23.9
-1 -6 6 959.7 34.2
0 6 -6 255.27 13.9
0 6 -6 260.67 13
0 6 -6 257.47 9.7
0 -6 6 229.58 21.3
0 -6 6 264.17 12.9
-1 6 -6 15.9 5.4
-1 6 -6 11.1 5.3
1 -6 6 10.2 2.4
1 -6 6 -3.5 13.2
1 -6 6 7.6 5
-2 6 -6 141.79 12.7
-2 6 -6 149.69 12.4
2 -6 6 136.99 22.9
2 -6 6 145.59 12
-3 6 -6 5.8 6.3
-3 6 -6 5.5 5.2
3 -6 6 4.8 5.6
3 -6 6 10.9 16.5
3 -6 6 9.4 3.6
-4 6 -6 35.7 6.3
-4 6 -6 42.1 7.9
4 -6 6 42.1 7.4
4 -6 6 30.1 5.3
-5 6 -6 51.49 10.1
-5 6 -6 51.99 7.5
-5 6 -6 39.9 8
5 -6 6 31.5 7.7
-6 6 -6 -12.4 7.3
-6 6 -6 -3.9 11.9
-6 6 -6 -1.9 7
-6 6 -6 -0.9 6.3
-7 6 -6 202.38 16.9
-8 6 -6 -10.8 9
-8 6 -6 -0.7 16.2
-9 6 -6 25.1 20.5
-9 6 -6 -6.6 12.4
9 -6 6 -15.4 13.7
8 5 -6 11.5 12.7
7 5 -6 135.59 12.9
7 5 -6 146.29 32.1
6 5 -6 16.8 20.2
6 5 -6 2.7 6.9
6 5 -6 6.4 5.1
5 5 -6 7.2 6.1
5 5 -6 -1.6 3.2
5 5 -6 19 14.8
5 5 -6 16.1 13.8
5 5 -6 -3.4 5.2
4 5 -6 25.2 5.6
4 5 -6 43.4 14.3
4 5 -6 27.9 4
4 5 -6 42.8 12.1
4 5 -6 30.4 6.4
3 5 -6 422.66 16.3
3 5 -6 414.86 14.8
3 5 -6 416.76 20.7
2 5 -6 209.38 20.7
2 5 -6 188.48 14.7
2 5 -6 195.78 11
2 5 -6 191.38 11.1
-2 -5 6 185.48 17
1 5 -6 24.3 4.3
1 5 -6 43.2 13.3
1 5 -6 22.6 4.5
-1 -5 6 34.8 11.9
0 5 -6 0.7 3.3
0 5 -6 7 4.2
0 -5 6 -0.1 2.6
0 -5 6 0.9 5.1
0 -5 6 -11.9 9.2
-1 5 -6 1132.79 25.3
-1 5 -6 1148.09 24.7
1 -5 6 1136.99 24.3
1 -5 6 1133.49 36.1
1 -5 6 1156.08 21
-2 5 -6 74.29 9.4
-2 5 -6 79.59 10.4
2 -5 6 72.19 18.3
2 -5 6 88.49 8
2 -5 6 78.19 9.5
-3 5 -6 3.9 5.3
-3 5 -6 1.2 4.3
3 -5 6 4.3 4.1
3 -5 6 0 4.6
-4 5 -6 19.4 5.4
-4 5 -6 18.8 6.5
-4 5 -6 23.5 6.7
4 -5 6 20.3 6
-5 5 -6 -2.8 6.2
-5 5 -6 -0.8 4.7
-5 5 -6 3.8 5.8
-6 5 -6 8.6 12.4
-6 5 -6 -1.1 5.1
-7 5 -6 12.2 6.7
-7 5 -6 30.2 17.7
-8 5 -6 49.6 9
-9 5 -6 132.19 24
-9 5 -6 111.59 17
9 4 -6 -16.9 14.1
8 4 -6 55.19 27.3
8 4 -6 5.2 11.7
7 4 -6 9.3 18.8
7 4 -6 18.4 7.2
7 4 -6 14.7 10.2
6 4 -6 24.1 15.4
6 4 -6 9.5 7.1
5 4 -6 14.4 6.1
5 4 -6 18.7 12.7
5 4 -6 21.6 12.2
4 4 -6 169.88 13.4
4 4 -6 164.08 6.7
4 4 -6 180.88 16.7
4 4 -6 172.28 17.2
3 4 -6 158.98 14
3 4 -6 179.08 11.8
3 4 -6 140.79 15.1
3 4 -6 144.29 10.1
2 4 -6 73.29 13.3
2 4 -6 83.39 12.9
2 4 -6 76.89 8
2 4 -6 83.09 8.9
-2 -4 6 81.59 11.5
1 4 -6 37.2 10.2
1 4 -6 20.7 3.9
1 4 -6 19.5 3.8
-1 -4 6 18.3 3.5
-1 -4 6 22.3 8.6
0 4 -6 639.34 15.9
0 4 -6 656.43 15.6
0 -4 6 645.34 22.8
0 -4 6 668.33 15
0 -4 6 650.83 16
-1 4 -6 753.42 17.9
1 -4 6 770.82 16.5
1 -4 6 765.32 17.7
1 -4 6 727.93 25.7
-2 4 -6 21.8 4.1
-2 4 -6 29.1 4.5
-2 4 -6 38.1 5.6
2 -4 6 33.9 5.1
-3 4 -6 119.99 8.7
-3 4 -6 131.79 11.2
-3 4 -6 122.89 10.1
3 -4 6 122.89 9.9
3 -4 6 125.99 10.4
-4 4 -6 94.69 10.6
-4 4 -6 85.59 11.5
-4 4 -6 104.59 9
4 -4 6 100.09 10.9
-5 4 -6 302.57 16.1
-5 4 -6 277.27 15.1
-5 4 -6 296.17 15.1
5 -4 6 290.57 15.5
-6 4 -6 12.3 6.4
-6 4 -6 12 4.9
-6 4 -6 21.4 11.4
6 -4 6 19.7 7.2
-7 4 -6 11.7 7.6
-7 4 -6 30.7 16.1
-7 4 -6 17.2 5.6
-8 4 -6 20.2 16.1
-8 4 -6 -9.6 6
-9 4 -6 46 21.3
-10 4 -6 64.89 29.3
10 -4 6 18.5 16.2
9 3 -6 -0.9 13.6
8 3 -6 92.89 9.9
8 3 -6 79.29 13.4
7 3 -6 9.6 8.1
7 3 -6 18.7 16
6 3 -6 16.4 7
6 3 -6 29.8 6.7
6 3 -6 43.3 14.4
5 3 -6 448.26 21.8
5 3 -6 424.46 19.8
4 3 -6 16.3 8.9
4 3 -6 11.9 8.5
4 3 -6 8.5 4.8
3 3 -6 20.8 4.5
3 3 -6 34.3 8.2
2 3 -6 0.6 6.9
2 3 -6 5.8 3.3
2 3 -6 0.6 2.9
1 3 -6 227.28 10
1 3 -6 229.78 9.2
-1 -3 6 237.28 9.6
-1 -3 6 224.58 11.7
0 3 -6 207.88 9.5
0 3 -6 199.78 8.6
0 3 -6 205.48 8.4
0 -3 6 223.28 8.9
0 -3 6 213.18 12.9
0 -3 6 203.68 8.5
-1 3 -6 131.99 8
-1 3 -6 121.39 7.8
1 -3 6 132.99 7.6
1 -3 6 144.49 8.5
-2 3 -6 929.21 21.5
-2 3 -6 945.81 20.2
2 -3 6 941.71 20.8
2 -3 6 955.7 20
-3 3 -6 344.67 11
-3 3 -6 333.17 13
-3 3 -6 367.36 13.1
3 -3 6 345.67 12.5
-4 3 -6 15.9 5.1
-4 3 -6 24 3.9
-4 3 -6 21 5.4
4 -3 6 21.5 5.4
-5 3 -6 233.38 10.1
-5 3 -6 219.18 13.4
-5 3 -6 224.28 13.9
-5 3 -6 258.17 19.4
5 -3 6 246.98 14.3
-6 3 -6 0.8 5.8
-6 3 -6 -0.5 3.6
-6 3 -6 0.2 9.9
6 -3 6 0 6.4
-7 3 -6 131.29 23.3
-7 3 -6 104.99 8.5
7 -3 6 87.39 11.2
-8 3 -6 75.19 20.1
-8 3 -6 37.1 11.3
-9 3 -6 32.7 21.2
-10 3 -6 53.39 27.5
9 2 -6 -5.2 11.7
8 2 -6 12.9 9.5
8 2 -6 10.8 8.6
7 2 -6 164.58 26.7
7 2 -6 162.58 13.6
6 2 -6 381.96 20
6 2 -6 362.16 13.3
5 2 -6 170.88 16.3
5 2 -6 172.28 14.6
5 2 -6 153.58 9.9
4 2 -6 137.19 11.9
4 2 -6 136.59 12.6
3 2 -6 1103.09 24
3 2 -6 1094.29 25.1
3 2 -6 1129.39 27.7
-3 -2 6 1140.79 25.4
2 2 -6 1727.33 32.7
2 2 -6 1757.82 30.7
2 2 -6 1777.52 27.4
-2 -2 6 1774.02 32.8
1 2 -6 1389.76 23.1
1 2 -6 1327.47 24.6
1 2 -6 1376.76 26.4
-1 -2 6 1422.66 25.1
-1 -2 6 1397.96 26.3
0 2 -6 87.09 7.8
0 2 -6 90.59 6.1
0 -2 6 85.09 8.8
0 -2 6 83.69 6
-1 2 -6 106.19 6.9
-1 2 -6 106.29 6.8
1 -2 6 101.99 6.5
1 -2 6 108.29 8.2
-2 2 -6 83.89 7
-2 2 -6 81.69 7.4
2 -2 6 90.19 7.1
2 -2 6 85.79 7.4
-3 2 -6 15.2 3.7
-3 2 -6 14.7 4.2
3 -2 6 19.7 4.2
3 -2 6 18.7 4.5
-4 2 -6 107.59 9.8
-4 2 -6 104.59 6.4
-4 2 -6 116.59 9.8
4 -2 6 104.99 11.7
-5 2 -6 1098.89 20.3
-5 2 -6 1105.89 25.2
-5 2 -6 1083.89 32.7
5 -2 6 1132.59 25.6
-6 2 -6 61.19 8
-6 2 -6 109.79 16.8
-6 2 -6 80.39 6.6
6 -2 6 59.59 8.3
7 -2 6 175.08 17.7
-8 2 -6 30.5 16.9
-8 2 -6 22.3 10.7
-9 2 -6 178.98 32.2
10 1 -6 -17.6 14.2
9 1 -6 -11.9 10.8
8 1 -6 14.7 10.9
8 1 -6 11.7 6.9
7 1 -6 167.88 18.8
7 1 -6 177.28 22.2
6 1 -6 252.07 17.6
6 1 -6 240.18 19.2
6 1 -6 229.38 11.5
5 1 -6 1.5 4.8
5 1 -6 0.3 8
4 1 -6 77.59 10.4
4 1 -6 76.09 13.5
4 1 -6 73.09 7.6
3 1 -6 0.1 5.2
3 1 -6 4.7 3.6
-3 -1 6 -0.4 3.4
2 1 -6 1761.02 26.9
2 1 -6 1745.23 32.7
-2 -1 6 1809.22 32.8
-2 -1 6 1760.52 27
1 1 -6 3966.5 60.69
1 1 -6 4032.2 59.39
1 1 -6 4020.6 63.39
-1 -1 6 3985.5 62.89
-1 -1 6 4002.1 59.19
0 1 -6 2415.16 38.3
0 1 -6 2411.86 38.2
0 1 -6 2435.66 41
0 -1 6 2399.86 38.6
0 -1 6 2425.36 38.3
0 -1 6 2491.85 43.6
-1 1 -6 110.29 6.7
-1 1 -6 105.39 6
1 -1 6 110.39 7.1
1 -1 6 114.99 6.9
-2 1 -6 0.8 2.7
-2 1 -6 0.1 2.9
2 -1 6 0.4 2.7
2 -1 6 -2.2 3
-3 1 -6 23.9 4.2
-3 1 -6 22.7 4.3
3 -1 6 20.3 3.9
3 -1 6 15.2 3.9
-4 1 -6 76.49 14.1
-4 1 -6 75.69 5
-4 1 -6 70.49 7.8
4 -1 6 90.19 9.2
4 -1 6 83.29 9.9
-5 1 -6 877.01 22.3
-5 1 -6 819.32 28.9
5 -1 6 840.92 21.3
5 -1 6 831.22 21.9
-6 1 -6 324.67 15.2
-6 1 -6 326.87 22.4
6 -1 6 330.37 15.3
6 -1 6 341.27 15.8
-7 1 -6 244.58 23.8
-7 1 -6 152.98 16.4
7 -1 6 225.48 16.9
-8 1 -6 -3.1 9.9
-8 1 -6 21.8 16.7
-9 1 -6 72.79 23.8
10 0 -6 -18.2 12.8
9 0 -6 28.2 12.1
9 0 -6 28.2 9.1
8 0 -6 0.8 5.8
8 0 -6 3.6 8.7
7 0 -6 0.6 5.1
7 0 -6 0.5 6.5
-7 0 6 15.1 12
6 0 -6 3.2 5.1
6 0 -6 6.9 6
6 0 -6 2.5 10.7
5 0 -6 518.15 26.2
5 0 -6 493.05 18.9
5 0 -6 501.45 14.7
4 0 -6 609.24 18.8
4 0 -6 621.54 15.5
4 0 -6 624.34 19.6
-4 0 6 628.64 21.7
3 0 -6 45.3 7.3
3 0 -6 33.1 4.3
3 0 -6 23.5 4.5
-3 0 6 30.2 4.6
2 0 -6 619.44 11.5
2 0 -6 609.44 14.3
-2 0 6 601.94 15.8
1 0 -6 1622.24 26.4
1 0 -6 1631.54 28
-1 0 6 1623.14 29.7
-1 0 6 1620.64 28.1
-1 0 6 1630.04 26.6
0 0 -6 2068.49 35.9
0 0 -6 1957.7 34.8
0 0 -6 2044.2 31.7
0 0 6 2014.3 32.9
-1 0 -6 1646.44 29
-1 0 -6 1693.63 27.2
-1 0 -6 1726.53 27.9
1 0 6 1709.03 27.1
1 0 6 1709.23 31.8
1 0 6 1657.93 29.3
-2 0 -6 293.57 7.9
-2 0 -6 279.87 8.6
-2 0 -6 283.87 10.1
2 0 6 285.97 10.4
2 0 6 286.97 8.4
-3 0 -6 27.4 4.3
-3 0 -6 31.4 7.8
-3 0 -6 36.2 4.1
-3 0 -6 25.2 3.8
3 0 6 33.1 4.9
3 0 6 28.8 3.9
-4 0 -6 102.89 14.7
-4 0 -6 97.69 9.3
4 0 6 102.59 10.2
4 0 6 108.59 8.8
-5 0 -6 1.8 10.2
-5 0 -6 7.7 4.9
5 0 6 2.2 4.9
5 0 6 0.3 5
-6 0 -6 652.93 20
-6 0 -6 659.83 28.9
6 0 6 634.64 19.8
6 0 6 619.44 19.6
-7 0 -6 4.8 13.7
7 0 6 -5.9 7.2
7 0 6 -0.1 6.3
-8 0 -6 -0.6 9.9
-8 0 -6 -18.5 16.7
-9 0 -6 64.89 25.4
10 -1 -6 19.7 14.2
9 -1 -6 -6.6 9.6
9 -1 -6 -10.9 9.5
8 -1 -6 7 8.1
8 -1 -6 10.7 6.3
-8 1 6 20.1 13.4
7 -1 -6 189.88 19.7
7 -1 -6 149.99 17.5
7 -1 -6 172.08 11.7
-7 1 6 177.38 18.5
6 -1 -6 1022.4 23.6
6 -1 -6 1005.7 28.9
6 -1 -6 1023 30.2
-6 1 6 1044.4 30.1
-6 1 6 1018.8 17.5
5 -1 -6 194.68 13.5
5 -1 -6 190.88 11.9
5 -1 -6 178.18 14.3
-5 1 6 183.58 7.3
4 -1 -6 241.88 13.6
4 -1 -6 241.08 12.9
4 -1 -6 228.48 12.4
-4 1 6 227.28 6.9
-4 1 6 217.38 12.8
-4 1 6 229.68 10.7
3 -1 -6 104.29 8.1
3 -1 -6 97.19 11
3 -1 -6 110.99 9.5
3 -1 -6 111.79 7.9
-3 1 6 106.29 5.3
-3 1 6 97.69 8.6
-3 1 6 100.19 7.9
2 -1 -6 173.08 10
2 -1 -6 181.98 10.2
2 -1 -6 177.58 8.2
-2 1 6 176.18 9.3
-2 1 6 180.58 6.6
1 -1 -6 19 6.3
1 -1 -6 13.5 2.8
1 -1 -6 9.6 2.7
1 -1 -6 12.7 3.7
-1 1 6 13.9 3.3
-1 1 6 12.6 6.3
-1 1 6 10.4 3.3
-1 1 6 13 2.7
0 -1 -6 2006.4 33.4
0 -1 -6 1978 35.6
0 -1 -6 1990.5 30.3
0 -1 -6 2021.6 33.2
0 1 6 1966.1 33.4
0 1 6 2026.1 35.8
0 1 6 1969.7 32.9
0 1 6 1978.9 40.7
-1 -1 -6 3397.86 51.69
-1 -1 -6 3364.76 49.6
-1 -1 -6 3372.66 53.49
1 1 6 3349.96 49.6
1 1 6 3436.26 56.19
1 1 6 3317.47 53.49
-2 -1 -6 171.18 6.5
-2 -1 -6 177.18 8.6
-2 -1 -6 162.88 11.4
2 1 6 171.48 6.1
2 1 6 157.08 9.1
-3 -1 -6 62.29 10.6
-3 -1 -6 30.7 7.5
-3 -1 -6 60.79 4.3
-4 -1 -6 237.68 11.6
-4 -1 -6 205.68 16.9
4 1 6 232.78 10.1
4 1 6 213.38 12.3
-5 -1 -6 148.09 17
-5 -1 -6 146.29 11.4
5 1 6 121.99 12.2
5 1 6 155.88 11.9
-6 -1 -6 3.6 5.9
-6 -1 -6 18.9 12.6
6 1 6 6.3 5.9
6 1 6 3.8 5.9
-7 -1 -6 -2.4 15.6
7 1 6 -1.7 6.5
7 1 6 -10.7 8
-8 -1 -6 10.6 18.3
8 1 6 6.3 11
8 1 6 -2.8 10.4
-9 -1 -6 21.7 26.2
10 -2 -6 -5 13.3
9 -2 -6 118.59 12
9 -2 -6 101.49 14.3
-9 2 6 180.18 28.7
8 -2 -6 27.6 16.5
8 -2 -6 17.8 8.9
8 -2 -6 20.3 7.6
-8 2 6 10 4
-8 2 6 8.7 4.5
-8 2 6 15.4 12.5
7 -2 -6 27.1 6.3
7 -2 -6 19.5 7.1
7 -2 -6 26.4 12.9
-7 2 6 41.8 11.4
-7 2 6 30.6 4.7
6 -2 -6 273.17 16.8
6 -2 -6 288.47 17.9
-6 2 6 284.37 16.8
-6 2 6 276.77 14.1
5 -2 -6 132.79 12.8
5 -2 -6 118.39 10.2
5 -2 -6 116.69 12.4
-5 2 6 123.59 7.4
-5 2 6 123.79 10.9
4 -2 -6 323.37 19
4 -2 -6 319.17 12.9
4 -2 -6 324.57 14.2
-4 2 6 337.47 14.3
-4 2 6 321.27 9.9
-4 2 6 316.97 12.8
3 -2 -6 645.44 22.2
3 -2 -6 663.43 18
3 -2 -6 642.64 16.4
3 -2 -6 646.44 15.4
-3 2 6 646.04 17.4
-3 2 6 637.64 14.3
-3 2 6 651.13 16.7
2 -2 -6 9.5 3.6
2 -2 -6 7.3 3.6
2 -2 -6 6.3 3.3
2 -2 -6 -1.1 6.9
-2 2 6 5.3 3.7
-2 2 6 5.7 3.3
-2 2 6 13.5 8.9
-2 2 6 0.9 2.4
1 -2 -6 1368.96 25.4
1 -2 -6 1355.96 26.9
1 -2 -6 1317.77 32.2
-1 2 6 1383.56 25.1
-1 2 6 1322.57 25.4
-1 2 6 1372.26 33.1
-1 2 6 1356.56 26.6
0 -2 -6 442.96 12
0 -2 -6 464.45 12.7
0 2 6 445.16 12.5
0 2 6 450.05 19.2
0 2 6 455.95 14.5
0 2 6 437.36 12.1
-1 -2 -6 24.5 4
-1 -2 -6 28.3 3.7
-1 -2 -6 39.3 6.7
1 2 6 20.2 4.4
1 2 6 25.5 3.5
1 2 6 24.3 3.9
1 2 6 28.8 9.2
-2 -2 -6 440.56 10.9
-2 -2 -6 430.16 16.4
2 2 6 436.16 10.9
2 2 6 436.96 8.4
2 2 6 439.76 13.9
-3 -2 -6 344.97 9.1
-3 -2 -6 339.67 17.1
-3 -2 -6 359.26 13.5
3 2 6 373.36 9.4
3 2 6 362.46 14.2
-4 -2 -6 216.68 16.8
-4 -2 -6 218.68 12.6
4 2 6 217.38 9.4
4 2 6 219.18 13
-5 -2 -6 11.8 11.2
-5 -2 -6 -2.6 5.5
5 2 6 3.2 4.6
5 2 6 -0.9 5.5
6 2 6 389.96 17.6
6 2 6 383.66 15.7
-7 -2 -6 19.5 17.2
-7 -2 -6 7.7 10.6
7 2 6 5 7.5
7 2 6 6.9 8.6
-8 -2 -6 12.9 20.9
8 2 6 10.7 9.7
10 -3 -6 11.3 13.4
9 -3 -6 -13.6 9.8
9 -3 -6 -2.2 10.7
-9 3 6 2.8 6.5
8 -3 -6 104.79 15.1
-8 3 6 116.09 19.1
-8 3 6 89.99 8
7 -3 -6 -16 11.2
7 -3 -6 -0.2 7.5
7 -3 -6 -2.9 6.6
7 -3 -6 4.5 6.5
-7 3 6 -0.1 6
-7 3 6 7.5 9.8
6 -3 -6 28.3 7
6 -3 -6 27.8 6.6
6 -3 -6 52.79 16.9
6 -3 -6 24 6.1
-6 3 6 22.3 6.3
5 -3 -6 1 4.7
5 -3 -6 -5.3 13.2
5 -3 -6 1.7 4.7
5 -3 -6 1.4 7.2
-5 3 6 4 5.2
4 -3 -6 36 5.4
4 -3 -6 53.79 17.3
4 -3 -6 40.5 5.9
4 -3 -6 50.19 8.1
-4 3 6 41.5 4.9
-4 3 6 38.5 5.9
-4 3 6 41.1 5.6
3 -3 -6 69.09 6
3 -3 -6 72.39 8.9
3 -3 -6 94.39 10.3
3 -3 -6 67.49 14
-3 3 6 88.79 9.6
-3 3 6 64.69 7.5
-3 3 6 65.19 8.5
2 -3 -6 268.27 17.6
2 -3 -6 277.47 12.5
2 -3 -6 265.97 11.8
-2 3 6 266.37 11.1
-2 3 6 261.37 10.4
-2 3 6 273.17 19
-2 3 6 268.17 11.7
1 -3 -6 71.29 8.2
1 -3 -6 57.29 4.2
1 -3 -6 55.49 11.1
1 -3 -6 51.79 8.8
-1 3 6 61.99 14.1
-1 3 6 61.09 7.9
-1 3 6 69.29 8.5
-1 3 6 63.89 7.4
0 -3 -6 540.45 13.5
0 -3 -6 555.24 14.5
0 3 6 545.45 15.3
0 3 6 568.44 24.9
0 3 6 543.95 16.4
0 3 6 529.85 14.6
-1 -3 -6 97.39 9.2
-1 -3 -6 117.49 9.7
-1 -3 -6 107.39 7.5
1 3 6 115.79 9.2
1 3 6 106.99 11.3
1 3 6 99.09 16.6
1 3 6 106.79 7.8
-2 -3 -6 16.2 4.8
-2 -3 -6 28.8 8.1
-2 -3 -6 25.2 3.8
2 3 6 22.8 5.4
2 3 6 19.1 3.9
2 3 6 36.7 13.8
-3 -3 -6 277.97 16.9
-3 -3 -6 286.17 14.1
3 3 6 287.37 9.4
3 3 6 292.27 23.3
3 3 6 320.97 14.3
-4 -3 -6 688.93 23.2
-4 -3 -6 668.03 25.7
4 3 6 715.93 21.1
-5 -3 -6 277.87 22.4
5 3 6 273.67 11.3
5 3 6 274.07 31.1
5 3 6 305.27 16.3
-6 -3 -6 77.79 18.1
-6 -3 -6 43 10.1
6 3 6 47.2 8.5
6 3 6 45.8 7.8
-7 -3 -6 195.18 30.6
7 3 6 132.09 18.3
-8 -3 -6 26.5 24
8 3 6 10 10.7
10 -4 -6 -4.7 14.5
9 -4 -6 -13 10.4
9 -4 -6 -37.6 45.2
-9 4 6 -19.3 9
-9 4 6 5.8 9.7
8 -4 -6 -5.8 9.3
8 -4 -6 8.2 22.1
-8 4 6 10.7 8.2
-8 4 6 19.1 8.8
7 -4 -6 173.88 17.6
7 -4 -6 153.88 17.7
7 -4 -6 145.99 27.7
7 -4 -6 134.99 15.3
-7 4 6 148.39 16
6 -4 -6 73.39 8.6
6 -4 -6 106.69 21.5
6 -4 -6 63.89 8.5
6 -4 -6 82.99 14.2
-6 4 6 55.09 8
5 -4 -6 -3.3 4.8
5 -4 -6 -2.9 5.4
5 -4 -6 -0.5 5.1
5 -4 -6 -5.5 14.4
-5 4 6 0.8 5.6
4 -4 -6 2.3 5.1
4 -4 -6 -7.5 12.1
4 -4 -6 0 4.8
-4 4 6 3.6 5.2
-4 4 6 0.1 4.1
-4 4 6 6.9 4.5
3 -4 -6 1136.39 25.4
3 -4 -6 1116.89 22.2
3 -4 -6 1140.79 25.9
3 -4 -6 1137.19 37.2
-3 4 6 1118.89 26.2
-3 4 6 1134.59 24.5
-3 4 6 1099.29 24.5
2 -4 -6 2.9 4.2
2 -4 -6 -5.9 10.9
2 -4 -6 3.8 4.2
2 -4 -6 -1.1 3.8
-2 4 6 1.3 4.1
-2 4 6 -3.7 3.7
-2 4 6 3 5.3
-2 4 6 8.4 14.3
1 -4 -6 1040.5 23.7
1 -4 -6 1044.6 16.7
1 -4 -6 1009.2 34.7
-1 4 6 1012.6 23.4
-1 4 6 1032.9 36.5
-1 4 6 1036.7 23.7
0 -4 -6 1352.96 41.8
0 -4 -6 1329.07 24.8
0 4 6 1331.87 28.4
0 4 6 1376.36 42.3
0 4 6 1349.16 27.5
-1 -4 -6 0.6 4.1
-1 -4 -6 2 5.6
1 4 6 -5.2 4.2
1 4 6 3.8 4.3
1 4 6 -0.4 13.1
-2 -4 -6 536.95 18.6
-2 -4 -6 530.45 14.7
2 4 6 567.44 18.7
2 4 6 539.85 29.8
2 4 6 543.85 14.9
-3 -4 -6 211.88 9.7
-3 -4 -6 210.28 15.6
3 4 6 209.78 9.2
3 4 6 205.58 18.2
-4 -4 -6 42 11.8
4 4 6 29.7 7.3
-5 -4 -6 11 12.8
5 4 6 7.1 5
5 4 6 4.8 7
-6 -4 -6 3.8 16
6 4 6 -10.4 9.6
6 4 6 11.4 8.1
-7 -4 -6 34.9 22.9
7 4 6 1.9 9.9
10 -5 -6 21.2 18.3
10 -5 -6 36.3 45.3
9 -5 -6 78.29 31.9
9 -5 -6 11.8 11.5
-9 5 6 29.1 11.4
8 -5 -6 25.5 10.1
8 -5 -6 45.5 26.4
-8 5 6 20.7 10.7
7 -5 -6 -3.4 19.5
7 -5 -6 3.3 7.1
7 -5 -6 -13.6 10.9
-7 5 6 14.7 9.3
6 -5 -6 95.09 14.9
6 -5 -6 111.99 24.8
6 -5 -6 85.49 10.2
-6 5 6 82.79 10
5 -5 -6 486.45 32
5 -5 -6 479.95 19.6
5 -5 -6 517.25 18.9
5 -5 -6 495.65 17.8
-5 5 6 493.75 20.3
4 -5 -6 105.99 10.9
4 -5 -6 86.29 20.7
4 -5 -6 96.29 11.7
-4 5 6 113.89 10.5
-4 5 6 92.89 11.8
-4 5 6 115.79 13.4
3 -5 -6 3.2 4.2
3 -5 -6 -2.6 13.2
3 -5 -6 1.2 4.3
-3 5 6 4.9 5.9
-3 5 6 1.6 3.7
-3 5 6 -1.1 4.8
2 -5 -6 674.63 20.2
2 -5 -6 662.53 31.7
-2 5 6 678.63 17.6
-2 5 6 650.03 33.7
-2 5 6 684.03 21
-2 5 6 701.23 20.2
1 -5 -6 650.83 31.6
1 -5 -6 661.43 19.7
-1 5 6 654.73 20.1
-1 5 6 656.63 18.1
-1 5 6 662.43 20
-1 5 6 655.53 33.6
0 -5 -6 5.1 5.1
0 -5 -6 -1.3 13.8
0 5 6 14.7 16
0 5 6 -1.7 4.9
0 5 6 0.8 4.4
0 5 6 0.3 5
-1 -5 -6 235.38 12.5
-1 -5 -6 241.78 11.9
1 5 6 240.58 14.5
1 5 6 232.28 24.7
1 5 6 241.68 12.8
-2 -5 -6 65.39 6.9
-2 -5 -6 77.69 11.9
2 5 6 70.19 9.4
2 5 6 54.09 7.7
2 5 6 62.79 8
-3 -5 -6 15 9.6
3 5 6 29.6 36.1
3 5 6 9.7 4.6
3 5 6 7.9 6.5
-4 -5 -6 144.29 18.9
4 5 6 136.09 8.8
-5 -5 -6 109.59 20.1
5 5 6 60.59 10.9
-6 -5 -6 46.8 33.4
6 5 6 39.5 11
-7 -5 -6 54.89 25.6
7 5 6 6.4 13.8
9 -6 -6 -7.6 14.9
9 -6 -6 60.39 33.7
-9 6 6 -13 12.9
-9 6 6 -26.3 14.9
8 -6 -6 36.1 11.3
8 -6 -6 58.59 30.3
-8 6 6 44 12.5
7 -6 -6 5.5 7.8
7 -6 -6 46.3 24.4
-7 6 6 11.4 9.8
6 -6 -6 0.8 6
6 -6 -6 38.8 22.7
-6 6 6 12.9 8.7
5 -6 -6 8.8 5.6
5 -6 -6 2.7 18.1
5 -6 -6 11.6 9.8
5 -6 -6 14.5 7.4
-5 6 6 0.8 7.4
4 -6 -6 173.08 12.6
4 -6 -6 173.48 25.9
4 -6 -6 160.58 12.6
-4 6 6 157.28 14.7
-4 6 6 168.18 16.4
3 -6 -6 -0.2 15.4
3 -6 -6 2.7 4.7
-3 6 6 2.4 3.8
-3 6 6 7.8 7.1
-3 6 6 5.5 6.2
2 -6 -6 -3 5.5
2 -6 -6 -7 14.2
-2 6 6 -0.5 4.1
-2 6 6 -1.3 6.7
-2 6 6 -5.1 5.6
1 -6 -6 -11.8 12.9
1 -6 -6 -9.2 6
-1 6 6 -1.7 4.2
-1 6 6 0.1 6.8
-1 6 6 1.3 5.7
0 -6 -6 403.96 17.7
0 -6 -6 409.26 31.8
0 6 6 444.46 40.2
0 6 6 424.36 18.7
0 6 6 414.86 16.6
0 6 6 440.96 17.9
-1 -6 -6 226.18 14.8
1 6 6 240.48 14.4
1 6 6 254.77 31.9
1 6 6 259.17 16.7
1 6 6 247.48 16.4
2 6 6 25.4 7.6
2 6 6 21.8 6
2 6 6 34 10.6
-3 -6 -6 26.6 11.6
3 6 6 25.3 8.7
3 6 6 25.1 8.9
3 6 6 17.7 5.7
-4 -6 -6 197.68 23.2
4 6 6 213.98 19.8
4 6 6 194.18 12
-5 -6 -6 22.1 21.6
5 6 6 12.6 10.5
-6 -6 -6 56.39 30.7
6 6 6 34.3 13.2
-9 7 6 -30.6 26.3
-9 7 6 7 15.1
8 -7 -6 52.09 31.2
8 -7 -6 -3.1 12.4
-8 7 6 8.7 12.6
-8 7 6 -2.8 13.5
7 -7 -6 34.8 37.1
7 -7 -6 6.9 9.5
-7 7 6 14.5 12
-7 7 6 -4 11.3
6 -7 -6 2 10.5
6 -7 -6 11.3 26.4
6 -7 -6 10 7.5
-6 7 6 23.6 10.6
-6 7 6 23.8 10.8
5 -7 -6 3 5.8
5 -7 -6 8.3 20.8
5 -7 -6 -5.3 8.3
-5 7 6 5.7 9.1
-5 7 6 -4.7 8.3
4 -7 -6 -11.3 6.8
4 -7 -6 4.6 20.6
-4 7 6 3.2 7.6
-4 7 6 -1.8 8.3
3 -7 -6 33.6 6.5
-3 7 6 41.6 9.2
-3 7 6 34.5 5
-3 7 6 55.09 9.9
2 -7 -6 13.4 8.9
2 -7 -6 3.5 3.7
-2 7 6 -24.7 29.5
-2 7 6 -6.2 6.6
-2 7 6 2.7 4
1 -7 -6 23.6 6.5
1 -7 -6 45.3 22
-1 7 6 21.1 5.1
-1 7 6 33.4 8.7
-1 7 6 25.3 8
0 -7 -6 29.4 8.3
0 7 6 44.7 9.2
0 7 6 20.3 7.9
0 7 6 23 6.6
1 7 6 20.2 7.5
1 7 6 12.3 7.6
1 7 6 14.5 9.6
2 7 6 18.7 9.6
2 7 6 43.9 9.8
2 7 6 32.2 7.5
3 7 6 53.79 11.1
3 7 6 70.29 12.5
3 7 6 46.4 12.8
4 7 6 -1.6 10.4
5 7 6 -5.6 12.1
8 -8 -6 71.59 40
-8 8 6 14.6 16.8
-8 8 6 -22.7 14.9
7 -8 -6 4.3 28.5
-7 8 6 -7.2 14.2
-7 8 6 12 13.3
6 -8 -6 19.9 29.5
-6 8 6 14.7 12.4
-6 8 6 12.3 11.7
5 -8 -6 -0.2 25.2
-5 8 6 -10.4 10.2
-5 8 6 13.8 11.4
4 -8 -6 14.6 23.5
4 -8 -6 -4.1 9.4
-4 8 6 -10.6 10
-4 8 6 1.2 9.4
3 -8 -6 37.4 32.7
3 -8 -6 -1.9 5.8
-3 8 6 14.8 10
-3 8 6 -2.9 9.3
2 -8 -6 99.29 28.7
-2 8 6 80.09 11.7
-2 8 6 80.59 11.8
1 -8 -6 23.2 23
-1 8 6 0.5 9.6
-1 8 6 -8.9 9
0 8 6 -4.7 7.8
0 8 6 3.8 9.3
0 8 6 -7.5 9
1 8 6 24.4 9.6
1 8 6 24.7 10.8
2 8 6 -8.2 10.7
2 8 6 10.8 9.5
3 8 6 2 12
6 -9 -6 43.1 38.4
-6 9 6 16.4 16.1
-6 9 6 9.6 23.6
5 -9 -6 31.9 33.2
-5 9 6 -11.6 13.6
-5 9 6 -14.7 12.8
-4 9 6 58.39 14.5
-4 9 6 76.09 13.8
3 -9 -6 50.69 32
-3 9 6 7.6 11.9
-3 9 6 10 12.4
2 -9 -6 33.1 30.2
-2 9 6 18.6 12.9
-2 9 6 6.1 11.6
1 -9 -6 -0.5 29.9
-1 9 6 -14.1 10.4
-1 9 6 5.4 12.3
0 9 6 19.4 13.3
0 9 6 -10.8 11
1 9 6 -13.8 13.1
1 9 6 -2.5 11.9
0 11 -7 17.1 13
0 11 -7 -15.2 15.1
0 -11 7 -4.8 37.8
-1 11 -7 -18.6 12.1
-1 11 -7 -25.8 15.1
1 -11 7 28 41.2
-2 11 -7 -20.2 15.6
-2 11 -7 -0.3 11.8
2 -11 7 11.1 39.7
-3 11 -7 -11.1 12.3
3 -11 7 16.9 38.8
2 10 -7 29.6 11.6
2 10 -7 58.19 12.3
2 10 -7 66.89 13.6
1 10 -7 13 11.6
1 10 -7 36.6 12.1
-1 -10 7 53.59 32
0 10 -7 13.1 11.1
0 10 -7 22.4 11.9
0 -10 7 39 31
-1 10 -7 41.9 13.1
-1 10 -7 48 11.7
1 -10 7 86.09 32.2
-2 10 -7 -8.2 9.3
-2 10 -7 0 11
2 -10 7 3 29.6
-3 10 -7 42.4 11.1
-3 10 -7 42.5 14
3 -10 7 87.89 34.6
-4 10 -7 24.6 11.4
-4 10 -7 -0.8 11.7
4 -10 7 5.4 35
-5 10 -7 -4.4 11.7
-5 10 -7 -1.1 13.9
5 -10 7 29.7 38.3
-6 10 -7 12.8 15.4
-6 10 -7 -17.7 31.3
6 -10 7 67.59 44.3
4 9 -7 62.69 11.9
4 9 -7 73.79 11.2
4 9 -7 53.69 12.3
3 9 -7 3.1 8.9
3 9 -7 8.6 9.7
3 9 -7 0.8 9.5
2 9 -7 5.5 8.9
2 9 -7 -5 8.4
1 9 -7 34.5 18.4
1 9 -7 20.8 9.1
-1 -9 7 15.6 24.9
0 9 -7 3 8.1
0 9 -7 -2.7 15.6
0 9 -7 1.4 9.2
0 -9 7 6.2 22.1
-1 9 -7 14.1 9.2
1 -9 7 29 10.3
1 -9 7 43.8 25.9
-2 9 -7 95.39 11.3
-2 9 -7 98.29 12.4
2 -9 7 136.39 30.8
-3 9 -7 51.69 10.4
-3 9 -7 34.7 10.4
3 -9 7 101.89 31.2
-4 9 -7 42.2 11.6
-4 9 -7 44.8 11.2
4 -9 7 97.79 33.3
-5 9 -7 185.78 24.2
-5 9 -7 212.78 22.9
5 -9 7 240.08 46.8
-6 9 -7 0.4 19.3
-6 9 -7 2.5 11.4
-6 9 -7 24.2 12.2
6 -9 7 18.6 34.9
-7 9 -7 112.19 24.6
-7 9 -7 90.69 16.2
7 -9 7 157.08 49.3
5 8 -7 -2.6 9.9
5 8 -7 21.8 8
5 8 -7 18 10.9
5 8 -7 18.3 10
4 8 -7 77.29 9.4
4 8 -7 88.69 11.4
4 8 -7 68.09 9.8
4 8 -7 80.59 10.5
3 8 -7 -2 27.5
3 8 -7 7.5 6.1
3 8 -7 12.1 7.8
3 8 -7 21.3 7
3 8 -7 8.4 7.4
2 8 -7 -7.1 9
2 8 -7 -6 7.1
2 8 -7 -1.7 6.8
2 8 -7 13.2 13.9
1 8 -7 275.77 24.8
1 8 -7 281.07 21.8
1 8 -7 237.68 15.7
-1 -8 7 267.17 28.4
0 8 -7 46.1 8
0 8 -7 51.69 14.5
0 -8 7 55.79 20.9
-1 8 -7 30.8 7.7
1 -8 7 44.3 20.5
-2 8 -7 86.89 9.9
-2 8 -7 70.89 10.5
2 -8 7 90.49 14.4
2 -8 7 116.89 25
-3 8 -7 250.67 18.4
-3 8 -7 242.08 17.9
3 -8 7 258.47 39.5
-4 8 -7 11.5 8.3
-4 8 -7 9.8 8.3
4 -8 7 9.7 21.6
-5 8 -7 94.89 12.5
-5 8 -7 80.59 12.2
5 -8 7 112.89 32.2
-6 8 -7 -9.3 9.8
-6 8 -7 7.3 10.1
6 -8 7 -12.3 27.7
6 -8 7 0.1 6.3
-7 8 -7 38.3 12.1
-7 8 -7 70.69 22.6
7 -8 7 48 10.1
7 -8 7 24.9 33.8
-8 8 -7 22.9 15.1
6 7 -7 74.99 12.2
6 7 -7 55.99 12.3
5 7 -7 3 5.6
5 7 -7 10.5 7.4
5 7 -7 6.1 8.2
5 7 -7 26 28.7
5 7 -7 10.2 7.7
4 7 -7 16.6 20.6
4 7 -7 8.1 6.7
4 7 -7 11.4 5.3
4 7 -7 2.8 6.3
4 7 -7 19.1 7.1
3 7 -7 336.47 30.5
3 7 -7 357.86 16.3
3 7 -7 326.07 16.3
3 7 -7 318.77 32.1
3 7 -7 362.86 15
3 7 -7 357.06 18
2 7 -7 260.57 16.1
2 7 -7 274.77 14.9
2 7 -7 221.78 27.9
2 7 -7 246.08 14
2 7 -7 245.48 20.2
-2 -7 7 265.17 25.2
1 7 -7 10.7 6.2
1 7 -7 12.1 5.5
1 7 -7 22.3 11.1
1 7 -7 8.1 4.2
-1 -7 7 15.7 15.4
0 7 -7 120.69 13.2
0 7 -7 122.59 13.8
0 -7 7 95.59 21.3
0 -7 7 144.09 13.3
-1 7 -7 53.39 8.1
-1 7 -7 33.5 6.6
1 -7 7 49.5 7.5
1 -7 7 50.59 17.6
-2 7 -7 172.78 14.5
-2 7 -7 184.48 14.6
2 -7 7 155.38 14.5
2 -7 7 166.68 25
-3 7 -7 801.62 24.3
-3 7 -7 796.72 25
3 -7 7 808.12 41.1
-4 7 -7 -1.2 6.4
-4 7 -7 -0.7 6.8
4 -7 7 16 20.2
4 -7 7 2 7.2
4 -7 7 -5.2 4.4
-5 7 -7 9.6 7.1
-5 7 -7 -0.3 7.4
5 -7 7 -5.1 6.7
5 -7 7 -17.8 20.5
-6 7 -7 -1.8 8.3
-6 7 -7 -19.4 13.8
6 -7 7 8.8 8.6
-7 7 -7 13.6 9.3
-7 7 -7 21.4 17.4
7 -7 7 21.8 11.2
-8 7 -7 24.2 19.3
-8 7 -7 6.4 13.1
-9 7 -7 62.49 24.9
9 -7 7 11.7 17.1
7 6 -7 23.5 11.8
7 6 -7 33.1 9.9
7 6 -7 28.5 8.5
6 6 -7 15.5 7.8
6 6 -7 60.19 28.4
6 6 -7 34.7 9
6 6 -7 13 9.1
5 6 -7 124.09 14.3
5 6 -7 105.89 14.8
5 6 -7 139.49 13.4
5 6 -7 100.69 17.1
4 6 -7 247.18 11
4 6 -7 265.37 23
4 6 -7 243.38 14.3
4 6 -7 263.47 25.2
4 6 -7 235.88 14.3
4 6 -7 248.78 16.4
3 6 -7 29.4 5.7
3 6 -7 54.19 12.6
3 6 -7 38 6.1
2 6 -7 139.59 16.3
2 6 -7 146.89 11.2
2 6 -7 127.49 20.2
2 6 -7 156.88 11.4
-2 -6 7 141.39 18.3
1 6 -7 216.88 12.6
1 6 -7 201.28 11.1
-1 -6 7 194.78 18.8
0 6 -7 103.89 11.4
0 6 -7 119.09 9
0 6 -7 124.19 11.7
0 -6 7 102.59 8.1
0 -6 7 94.49 18.1
0 -6 7 93.79 11
-1 6 -7 212.88 13.4
-1 6 -7 222.98 13.4
1 -6 7 237.58 12.9
1 -6 7 213.58 8.6
1 -6 7 200.58 22.4
-2 6 -7 27.3 6.2
-2 6 -7 35 6.7
2 -6 7 29.1 6.2
2 -6 7 30.5 3.9
2 -6 7 42 17.3
-3 6 -7 722.63 22.1
-3 6 -7 732.73 21.7
3 -6 7 691.93 34.6
3 -6 7 730.23 21.3
3 -6 7 716.23 17.8
-4 6 -7 194.88 15.3
-4 6 -7 211.98 14
4 -6 7 218.08 12.7
-5 6 -7 1.3 6.8
-5 6 -7 14.9 7.9
-5 6 -7 4.2 6.1
-6 6 -7 11.3 6.8
-6 6 -7 8.8 7.9
-6 6 -7 3 13.8
-7 6 -7 48.1 17.4
-7 6 -7 38.9 8.5
-8 6 -7 79.09 20.1
-8 6 -7 35.2 10.7
9 -6 7 146.89 19
8 5 -7 -0.3 12.5
7 5 -7 8.1 10.9
7 5 -7 9 8.7
7 5 -7 20.2 6.8
7 5 -7 51.19 30.5
6 5 -7 48.5 9.9
6 5 -7 50.19 11.8
5 5 -7 14.4 13.2
5 5 -7 -1.2 5.9
5 5 -7 12.3 14
5 5 -7 -0.8 2.8
5 5 -7 5.9 5.9
4 5 -7 588.34 21.3
4 5 -7 574.64 14
4 5 -7 588.14 25.9
4 5 -7 580.44 19.6
4 5 -7 623.44 28.3
3 5 -7 36 10.6
3 5 -7 28.7 13.7
3 5 -7 24.4 5.3
3 5 -7 20.8 5.1
2 5 -7 180.98 11.4
2 5 -7 177.88 18.5
2 5 -7 187.78 11.8
2 5 -7 182.88 15.1
-2 -5 7 180.48 30.2
1 5 -7 71.39 9.1
1 5 -7 81.79 9.3
-1 -5 7 55.89 13.5
-1 -5 7 68.49 8.3
0 5 -7 1493.55 28.1
0 5 -7 1445.56 29.6
0 -5 7 1474.15 39.7
0 -5 7 1473.55 29.4
0 -5 7 1524.15 28.6
-1 5 -7 1558.54 31.1
1 -5 7 1592.14 30.8
1 -5 7 1542.85 42.8
1 -5 7 1564.54 30.7
-2 5 -7 1674.43 33.3
-2 5 -7 1660.63 33
2 -5 7 1667.23 30.5
2 -5 7 1614.64 45
2 -5 7 1644.94 32.4
-3 5 -7 204.18 11.9
-3 5 -7 180.88 13.5
-3 5 -7 181.18 12.7
3 -5 7 201.68 12.8
3 -5 7 196.78 11.7
-4 5 -7 23.6 6.1
-4 5 -7 24 5.6
-4 5 -7 26.8 6.9
4 -5 7 28.6 5.7
-5 5 -7 107.59 15.9
-5 5 -7 124.79 11.7
-6 5 -7 -13.8 11.9
-6 5 -7 2.4 5.3
-6 5 -7 4.7 8.1
-6 5 -7 11.6 7.3
6 -5 7 -5.6 7.5
-7 5 -7 -3 5.9
-7 5 -7 -2.2 13.2
-8 5 -7 -6.4 8.1
-8 5 -7 13.1 17.2
-9 5 -7 60.89 22.2
9 4 -7 77.29 18.4
8 4 -7 36 12.8
7 4 -7 29 22.9
7 4 -7 1.5 9.3
7 4 -7 -1.1 7.3
6 4 -7 17.1 14.6
6 4 -7 3.8 6.9
5 4 -7 1.3 5.8
5 4 -7 4.9 11
4 4 -7 150.08 16.4
4 4 -7 148.09 16.1
4 4 -7 136.99 11.3
4 4 -7 164.68 13.7
4 4 -7 142.79 6.4
3 4 -7 163.38 15
3 4 -7 183.08 12.6
3 4 -7 170.68 10.8
3 4 -7 155.28 15.5
2 4 -7 118.79 10.2
2 4 -7 118.59 9.1
2 4 -7 123.39 21.6
-2 -4 7 109.29 12.1
-2 -4 7 112.59 9.9
1 4 -7 23.3 4.2
1 4 -7 29.2 4.7
-1 -4 7 23 4
-1 -4 7 30.6 9.3
0 4 -7 790.92 18.7
0 4 -7 809.02 18.8
0 -4 7 803.32 25.3
0 -4 7 823.62 18.3
0 -4 7 813.12 18.8
-1 4 -7 142.79 9.4
-1 4 -7 145.69 9.7
1 -4 7 164.08 15.8
1 -4 7 150.08 9
1 -4 7 144.19 9.2
-2 4 -7 1764.12 33.6
-2 4 -7 1770.32 34
2 -4 7 1827.82 33.3
2 -4 7 1796.92 33.4
-3 4 -7 19.3 6
-3 4 -7 20.1 4.3
-3 4 -7 12.9 4.9
3 -4 7 16.6 4.7
3 -4 7 9 4.6
-4 4 -7 187.88 10.6
-4 4 -7 176.58 12.9
-4 4 -7 183.18 13.7
4 -4 7 163.98 12.4
-5 4 -7 14.8 6.5
-5 4 -7 14.1 4.6
-5 4 -7 13.2 6.1
5 -4 7 7.1 6.5
-6 4 -7 15.5 4.9
-6 4 -7 27.9 14.2
6 -4 7 12.1 7.8
-7 4 -7 10.8 5.1
-7 4 -7 13.2 13.1
-8 4 -7 29.8 7.1
-8 4 -7 53.09 18
-9 4 -7 78.89 23.4
9 3 -7 -4.3 13.2
8 3 -7 23 11
8 3 -7 14.7 9.1
7 3 -7 47.9 16.8
7 3 -7 36.2 6.8
7 3 -7 19.9 8.8
6 3 -7 122.49 16.9
6 3 -7 118.59 30.2
6 3 -7 112.09 10.9
5 3 -7 28.4 6.7
4 3 -7 528.05 21.5
4 3 -7 538.55 20.5
4 3 -7 522.75 19.2
3 3 -7 1559.34 33.3
3 3 -7 1558.34 36.3
3 3 -7 1579.14 25.3
3 3 -7 1577.54 33
-3 -3 7 1610.44 33.3
2 3 -7 197.58 11.3
2 3 -7 195.88 7.3
2 3 -7 195.98 9.4
2 3 -7 188.98 10.8
-2 -3 7 186.88 10.5
1 3 -7 62.99 8.3
1 3 -7 49.9 5.9
1 3 -7 60.29 6.9
-1 -3 7 61.69 7.5
-1 -3 7 49.6 8.1
0 3 -7 1052.89 22.7
0 3 -7 1093.29 21.1
0 3 -7 1094.59 21.9
0 -3 7 1060.79 26.2
0 -3 7 1114.09 22.6
0 -3 7 1110.59 21.8
-1 3 -7 1598.74 28.9
-1 3 -7 1577.44 29.5
1 -3 7 1585.54 29.7
1 -3 7 1588.54 28.9
-2 3 -7 1194.68 24.3
-2 3 -7 1241.08 24.7
2 -3 7 1214.08 24.2
2 -3 7 1178.48 25.2
-3 3 -7 1171.08 24.9
-3 3 -7 1178.58 24.8
3 -3 7 1092.19 27
-4 3 -7 136.59 11.9
-4 3 -7 145.19 11
-4 3 -7 131.49 8.4
4 -3 7 136.19 11
-5 3 -7 347.87 11.7
-5 3 -7 345.77 15.4
-5 3 -7 325.77 15.3
5 -3 7 329.97 15.5
-6 3 -7 2 3.7
-6 3 -7 4.2 12.2
-6 3 -7 1 6.4
6 -3 7 -2.9 6.4
-7 3 -7 126.09 21.9
-7 3 -7 119.69 15.6
-7 3 -7 118.59 8.9
7 -3 7 130.49 17.6
-8 3 -7 22.2 17.3
-9 3 -7 59.39 21
9 2 -7 18.3 12.7
8 2 -7 -7 20.2
8 2 -7 -5.9 8.7
8 2 -7 -9.6 11.1
7 2 -7 119.19 15.4
7 2 -7 122.59 11.6
6 2 -7 -2.8 4.7
6 2 -7 -3.3 6
5 2 -7 423.96 17.1
5 2 -7 460.05 19.9
5 2 -7 437.16 21.5
5 2 -7 435.76 18.7
4 2 -7 14.7 5
4 2 -7 25 7.6
4 2 -7 25.9 8.5
3 2 -7 1308.97 28.9
3 2 -7 1274.47 31.4
-3 -2 7 1341.37 28.9
2 2 -7 1977.8 34.7
2 2 -7 1984.1 37.1
2 2 -7 1996.5 32
-2 -2 7 2040.8 37.1
1 2 -7 520.55 15.2
1 2 -7 516.15 11.6
-1 -2 7 534.45 14.9
-1 -2 7 514.95 12.4
0 2 -7 5303.57 82.49
0 2 -7 5304.27 79.59
0 2 -7 5291.27 80.29
0 -2 7 5308.57 82.09
0 -2 7 5446.75 80.39
-1 2 -7 1588.84 28.4
-1 2 -7 1587.84 28.4
1 -2 7 1604.74 28.1
1 -2 7 1630.04 30.7
1 -2 7 1570.54 28.5
-2 2 -7 7.2 3.1
-2 2 -7 9.2 3.9
2 -2 7 4.9 3.6
2 -2 7 10.1 3.8
2 -2 7 9.8 3.4
-3 2 -7 5.1 4.1
3 -2 7 -0.6 3.6
3 -2 7 0.5 3.6
-4 2 -7 27.2 5.5
-4 2 -7 18 3.4
-4 2 -7 17.7 5.4
4 -2 7 23.6 5.8
4 -2 7 26.5 5.4
-5 2 -7 1145.39 34.6
-5 2 -7 1160.58 26.6
-5 2 -7 1147.09 21.2
5 -2 7 1144.59 26.4
-6 2 -7 100.29 6.6
-6 2 -7 119.99 13.5
-6 2 -7 111.49 19.3
6 -2 7 103.79 13.5
-7 2 -7 143.79 22.3
-7 2 -7 103.09 12.4
7 -2 7 92.09 10.7
-8 2 -7 3.7 15.5
-9 2 -7 22.2 20.7
10 1 -7 7.1 16.8
9 1 -7 -2.7 10.7
8 1 -7 243.58 15.9
8 1 -7 284.07 25.2
7 1 -7 16.1 6
7 1 -7 22.7 8.3
7 1 -7 56.89 16.1
6 1 -7 3.4 11.1
6 1 -7 -0.2 5.6
6 1 -7 -4.9 4.3
5 1 -7 899.71 24.1
5 1 -7 907.91 28.2
5 1 -7 904.21 26.3
4 1 -7 168.88 12.3
4 1 -7 158.78 15.5
4 1 -7 166.88 9.8
-4 -1 7 162.38 12.8
3 1 -7 35.9 7.2
3 1 -7 30.5 4.4
3 1 -7 22.7 4.3
-3 -1 7 26.9 4.5
2 1 -7 471.75 9.7
2 1 -7 484.35 15.3
-2 -1 7 467.35 14.6
1 1 -7 2180.58 36.5
1 1 -7 2268.67 35.4
1 1 -7 2255.67 39.7
-1 -1 7 2244.18 35.5
-1 -1 7 2259.77 39.3
0 1 -7 2.6 2.5
0 1 -7 2.8 3.6
0 1 -7 2.4 2.4
0 -1 7 2.3 2.8
0 -1 7 -1.1 2.3
0 -1 7 4.1 3.5
-1 1 -7 158.38 7.3
-1 1 -7 151.38 7.8
1 -1 7 153.58 8.3
1 -1 7 157.38 7
1 -1 7 160.38 10.2
-2 1 -7 198.58 9.2
-2 1 -7 185.98 8.4
2 -1 7 196.78 9.7
2 -1 7 200.98 11.7
2 -1 7 202.28 8.2
-3 1 -7 336.77 14.5
-3 1 -7 337.67 11.8
3 -1 7 348.97 12.8
3 -1 7 363.26 11.5
-4 1 -7 865.01 21.2
-4 1 -7 837.12 27.3
-4 1 -7 882.01 20.3
4 -1 7 879.11 20.3
4 -1 7 861.41 21.9
-5 1 -7 782.62 21.1
-5 1 -7 734.53 28.1
5 -1 7 732.33 21.2
5 -1 7 759.42 27.9
-6 1 -7 198.78 14.5
-6 1 -7 217.88 21.3
6 -1 7 222.78 14.6
6 -1 7 185.48 15.9
-7 1 -7 15.4 15.3
-7 1 -7 7.6 8.9
7 -1 7 7 7.8
-8 1 -7 20.6 16.7
-9 1 -7 34.4 22.6
10 0 -7 1.1 14.1
9 0 -7 -9.3 10.6
8 0 -7 68.09 11.7
8 0 -7 75.09 8.6
7 0 -7 55.39 9.3
7 0 -7 53.19 6.7
6 0 -7 31.9 5.5
6 0 -7 23.1 9.3
6 0 -7 61.09 13.2
5 0 -7 41.1 6.5
5 0 -7 71.39 13.1
4 0 -7 21.1 5.2
4 0 -7 14.4 4.3
4 0 -7 31.8 8.4
-4 0 7 12.5 4.9
3 0 -7 627.64 18
3 0 -7 595.34 18.1
3 0 -7 609.94 15.2
3 0 -7 630.14 15.6
-3 0 7 511.85 14.1
-3 0 7 643.44 18.1
2 0 -7 1207.78 23.3
2 0 -7 1138.79 25.3
2 0 -7 1199.08 20.3
-2 0 7 1201.48 25.2
-2 0 7 1199.98 20.5
1 0 -7 75.19 9.1
1 0 -7 60.09 5.2
1 0 -7 73.09 6.6
-1 0 7 73.59 8.3
-1 0 7 62.19 6.5
-1 0 7 76.49 5.5
0 0 -7 691.13 13.7
0 0 -7 702.83 15.1
0 0 -7 690.63 15
0 0 -7 696.93 18
0 0 7 682.43 15.1
0 0 7 689.63 17.6
-1 0 -7 16.3 2.8
-1 0 -7 9.4 3.3
-1 0 -7 10.5 3.1
1 0 7 15.9 2.6
1 0 7 9.2 4.2
1 0 7 8.7 3.2
-2 0 -7 216.28 7.5
-2 0 -7 207.28 8
-2 0 -7 208.08 9.4
2 0 7 212.08 9.1
2 0 7 210.58 9.9
-3 0 -7 134.99 11.9
-3 0 -7 95.69 5.6
-3 0 -7 79.49 7.5
3 0 7 111.79 9.6
3 0 7 101.39 7.4
-4 0 -7 105.79 4.8
-4 0 -7 91.99 9.7
-4 0 -7 99.59 15.5
4 0 7 111.19 11.4
4 0 7 117.49 12.2
-5 0 -7 1689.33 34.2
-5 0 -7 1663.93 42.7
5 0 7 1652.03 32
5 0 7 1668.23 34.4
-6 0 -7 1.4 6.3
-6 0 -7 12 12.8
6 0 7 5.7 6
6 0 7 0.3 5.9
-7 0 -7 6 14.8
-7 0 -7 1.1 8.1
7 0 7 5.3 7.5
7 0 7 2.4 6.6
-8 0 -7 22 19.2
-9 0 -7 59.99 26.9
10 -1 -7 -19.7 13.2
9 -1 -7 -4.8 9.8
9 -1 -7 -11.5 10.4
8 -1 -7 508.85 27.6
8 -1 -7 480.25 19.2
8 -1 -7 360.16 28.1
7 -1 -7 3.9 11.2
7 -1 -7 -0.2 5.4
7 -1 -7 -3.1 6.4
6 -1 -7 304.67 19.2
6 -1 -7 283.97 13.4
6 -1 -7 299.77 18.2
5 -1 -7 426.16 15
5 -1 -7 400.56 30.6
5 -1 -7 430.06 18.6
-5 1 7 448.86 9.7
-5 1 7 481.35 19.3
4 -1 -7 337.47 14.8
4 -1 -7 357.86 14.5
4 -1 -7 351.46 15.1
4 -1 -7 359.86 16.8
-4 1 7 346.27 9
-4 1 7 340.07 17.9
3 -1 -7 110.39 8.9
3 -1 -7 115.29 10.4
3 -1 -7 131.99 8.7
3 -1 -7 108.79 10.5
-3 1 7 105.89 9.6
-3 1 7 117.19 5.9
-3 1 7 103.79 8.7
2 -1 -7 1467.35 25.1
2 -1 -7 1443.46 27
2 -1 -7 1447.16 29.7
2 -1 -7 1438.96 29.2
-2 1 7 1462.35 28.8
-2 1 7 1424.76 29.4
-2 1 7 1392.76 24.8
-2 1 7 1416.46 27.1
1 -1 -7 322.67 13
1 -1 -7 298.77 9.4
-1 1 7 302.37 9.6
-1 1 7 309.77 10.6
-1 1 7 312.27 12.1
-1 1 7 305.27 13.7
0 -1 -7 744.83 16.4
0 -1 -7 736.63 16.1
0 -1 -7 729.53 13.6
0 1 7 748.43 22.2
0 1 7 745.13 16.6
0 1 7 735.53 18.9
-1 -1 -7 365.36 11.7
-1 -1 -7 391.26 10.6
-1 -1 -7 396.76 11.9
1 1 7 389.16 12.4
1 1 7 391.86 14.8
1 1 7 395.46 8.5
-2 -1 -7 1127.49 19.4
-2 -1 -7 1084.49 23.5
-2 -1 -7 1108.49 20.1
2 1 7 1117.19 19.2
2 1 7 1111.99 23.6
-3 -1 -7 525.35 15.5
-3 -1 -7 540.05 11.2
-3 -1 -7 502.45 20.2
3 1 7 519.65 16.3
3 1 7 512.35 12.3
-4 -1 -7 1134.29 25.6
-4 -1 -7 1092.49 32.2
4 1 7 1111.19 26.1
4 1 7 1132.29 22.2
-5 -1 -7 0.7 7.7
-5 -1 -7 1.6 10.2
5 1 7 1.9 5.2
-6 -1 -7 172.38 22.6
6 1 7 151.18 14.4
6 1 7 169.28 12.8
-7 -1 -7 10.9 10
-7 -1 -7 3.3 15.3
7 1 7 5.3 8.4
7 1 7 9.5 7.5
-8 -1 -7 19.9 20.6
8 1 7 5.7 9.6
8 1 7 -6.1 10.9
-9 -1 -7 136.29 37
10 -2 -7 -9.6 13.7
9 -2 -7 21.5 11.1
9 -2 -7 14.9 11.1
8 -2 -7 60.49 10.7
8 -2 -7 72.29 9.1
8 -2 -7 93.79 19
7 -2 -7 51.99 13.6
7 -2 -7 26.2 8
7 -2 -7 33.1 7.2
-7 2 7 26.2 3.9
6 -2 -7 88.59 14.2
6 -2 -7 90.39 14.1
-6 2 7 79.99 7.2
-6 2 7 68.09 7.7
5 -2 -7 103.49 12.9
5 -2 -7 94.99 17.9
5 -2 -7 83.19 10.4
5 -2 -7 76.09 11.9
-5 2 7 86.69 12.3
-5 2 7 88.59 7.1
-5 2 7 76.69 11
4 -2 -7 643.84 17.7
4 -2 -7 642.74 18.1
4 -2 -7 630.54 24
4 -2 -7 644.74 20.1
-4 2 7 640.44 14.6
-4 2 7 616.14 18.1
3 -2 -7 525.95 17.2
3 -2 -7 531.15 14.2
3 -2 -7 503.15 19.8
-3 2 7 514.35 12.9
-3 2 7 522.75 16.2
-3 2 7 545.25 16.5
2 -2 -7 7.6 4.1
2 -2 -7 9.7 3.9
2 -2 -7 9.3 7.6
-2 2 7 6.2 9.1
-2 2 7 9.3 3.7
-2 2 7 5.7 3.5
-2 2 7 6.8 3
1 -2 -7 2650.33 46.7
1 -2 -7 2704.23 53.59
1 -2 -7 2678.13 44.7
1 -2 -7 2750.62 44.6
-1 2 7 2733.53 46.6
-1 2 7 2673.23 44.4
-1 2 7 2704.93 53.79
-1 2 7 2593.84 44.7
0 -2 -7 238.18 5.6
0 -2 -7 237.28 9.5
0 -2 -7 226.18 9.7
0 2 7 226.88 15.9
0 2 7 236.98 10.1
0 2 7 214.18 9.4
0 2 7 243.68 12.2
-1 -2 -7 524.75 16.3
-1 -2 -7 522.95 13.3
1 2 7 520.45 13.4
1 2 7 543.05 17.8
1 2 7 508.25 15
1 2 7 542.65 23.2
-2 -2 -7 216.98 8.6
-2 -2 -7 199.78 13.4
-2 -2 -7 201.78 10.9
2 2 7 214.88 18.7
2 2 7 216.38 5.7
2 2 7 221.08 11.5
-3 -2 -7 564.64 21.9
-3 -2 -7 599.14 12.7
-3 -2 -7 610.44 18
3 2 7 603.34 29.2
3 2 7 608.04 18.7
3 2 7 599.04 12.4
-4 -2 -7 267.17 18.6
-4 -2 -7 267.77 14.7
4 2 7 263.27 10
4 2 7 272.17 14.5
-5 -2 -7 28.4 12.4
-5 -2 -7 16.7 7.2
5 2 7 18.8 6.5
5 2 7 21.1 5.3
-6 -2 -7 186.58 22.9
-6 -2 -7 155.78 17.2
6 2 7 162.18 15.2
6 2 7 131.89 12.6
-7 -2 -7 13.6 17.7
7 2 7 10.3 8.4
7 2 7 -23.7 9.2
-8 -2 -7 47.5 23.6
8 2 7 5.4 9.8
10 -3 -7 18.4 14.2
9 -3 -7 0.1 13
9 -3 -7 41.2 11.9
-9 3 7 6.1 4.7
8 -3 -7 -9.9 20
8 -3 -7 -14.4 8.1
8 -3 -7 1 8.4
-8 3 7 17.7 6.5
-8 3 7 8.8 5.6
7 -3 -7 319.37 16.6
7 -3 -7 298.47 28.9
7 -3 -7 314.07 19.9
7 -3 -7 278.47 21.2
7 -3 -7 331.97 21.1
-7 3 7 321.77 12.6
-7 3 7 332.87 17.9
6 -3 -7 66.89 18.3
6 -3 -7 38.3 7.4
6 -3 -7 29.4 6.7
-6 3 7 43 7.5
-6 3 7 40.4 5.4
5 -3 -7 371.86 24.8
5 -3 -7 355.46 15.4
5 -3 -7 368.56 17.7
5 -3 -7 368.76 16.1
-5 3 7 376.36 12.8
-5 3 7 367.66 16.4
-5 3 7 377.66 16.6
4 -3 -7 46 7.3
4 -3 -7 47.6 14.2
4 -3 -7 27.9 5.7
4 -3 -7 42.3 6.3
-4 3 7 29 5.9
-4 3 7 39.2 4.9
3 -3 -7 69.39 14.4
3 -3 -7 81.69 11.1
3 -3 -7 69.99 6.1
3 -3 -7 80.49 9.2
-3 3 7 79.19 8.2
-3 3 7 85.49 10.6
-3 3 7 92.39 9.7
2 -3 -7 2623.94 45.9
2 -3 -7 2607.94 46.9
2 -3 -7 2608.74 56.19
-2 3 7 2644.34 46.2
-2 3 7 2729.33 46.7
-2 3 7 2699.63 57.09
-2 3 7 2623.14 45
1 -3 -7 386.86 8.5
1 -3 -7 390.16 20.6
1 -3 -7 380.16 13.6
1 -3 -7 397.16 10.4
-1 3 7 385.66 12.9
-1 3 7 383.76 13.5
-1 3 7 379.96 21.7
-1 3 7 382.46 14.4
0 -3 -7 9.2 4.2
0 -3 -7 10.3 5.4
0 3 7 10.1 4.2
0 3 7 5.9 13
0 3 7 8.3 3.8
0 3 7 6.2 4.6
-1 -3 -7 327.07 13.5
-1 -3 -7 338.17 13.7
-1 -3 -7 344.17 11.6
1 3 7 336.37 15.8
1 3 7 357.26 22.7
1 3 7 345.67 13.8
1 3 7 355.56 12
-2 -3 -7 702.93 19.6
-2 -3 -7 655.53 15.6
-2 -3 -7 672.23 21.1
2 3 7 680.63 22.2
2 3 7 677.23 19.6
2 3 7 666.13 16
2 3 7 679.63 31.3
-3 -3 -7 305.87 15.1
-3 -3 -7 268.07 9.5
-3 -3 -7 279.67 17.4
3 3 7 298.97 25.7
3 3 7 282.37 14.6
-4 -3 -7 157.88 14.9
-4 -3 -7 164.78 17.7
4 3 7 168.48 7.5
4 3 7 172.68 14
-5 -3 -7 31.2 13.2
-5 -3 -7 14.8 8.3
5 3 7 22.7 4.9
5 3 7 25.4 7.4
-6 -3 -7 28.6 17.6
6 3 7 11.5 9.7
-7 -3 -7 73.89 22.5
-8 -3 -7 40.3 28
8 3 7 13 12.2
10 -4 -7 73.79 37.2
10 -4 -7 15.3 14.6
9 -4 -7 21.1 27.3
9 -4 -7 0.3 11.4
-9 4 7 20.1 8.9
8 -4 -7 16.4 9.4
8 -4 -7 42 24.3
-8 4 7 26.4 7.5
-8 4 7 38.8 10
7 -4 -7 40 21
7 -4 -7 28.7 8.3
7 -4 -7 57.89 9.4
-7 4 7 34 6.5
-7 4 7 34.6 8.5
6 -4 -7 246.38 17.9
6 -4 -7 244.18 26.9
6 -4 -7 225.18 15.2
6 -4 -7 215.78 16.3
-6 4 7 229.48 13.1
-6 4 7 229.48 16.3
5 -4 -7 419.36 16.2
5 -4 -7 400.76 18.3
5 -4 -7 418.16 27.7
5 -4 -7 419.56 18.1
-5 4 7 407.56 17.3
-5 4 7 426.46 18.3
-5 4 7 413.86 15.2
4 -4 -7 110.09 12.7
4 -4 -7 116.79 12.3
4 -4 -7 97.79 12.7
4 -4 -7 86.89 18.6
-4 4 7 91.99 13.6
-4 4 7 110.79 12.7
-4 4 7 98.59 10.5
3 -4 -7 324.47 15.6
3 -4 -7 337.77 14.5
3 -4 -7 307.67 11.4
3 -4 -7 313.77 23.2
-3 4 7 335.17 13.8
-3 4 7 331.57 13.6
-3 4 7 320.57 15.6
2 -4 -7 -1.5 4.3
2 -4 -7 -3.2 11
2 -4 -7 1.1 4.7
2 -4 -7 3.7 3.9
-2 4 7 0.3 4.3
-2 4 7 4 14.5
-2 4 7 0.7 3.9
-2 4 7 5.7 5.2
1 -4 -7 0.4 4.4
1 -4 -7 -3.9 11.3
-1 4 7 -8.7 13.3
-1 4 7 0.7 4.9
-1 4 7 4.8 4.4
-1 4 7 9.3 4.5
0 -4 -7 15.1 5.4
0 -4 -7 10.2 4.6
0 4 7 22.1 15
0 4 7 12 5
0 4 7 12.1 5.3
0 4 7 14.7 5.1
-1 -4 -7 282.67 13
1 4 7 281.67 16.1
1 4 7 290.37 14.4
1 4 7 274.37 12.3
1 4 7 313.57 26.1
-2 -4 -7 264.37 11.7
-2 -4 -7 255.87 14.8
2 4 7 261.47 25.4
2 4 7 269.17 11.5
2 4 7 278.97 16.7
2 4 7 267.07 14.6
-3 -4 -7 48.5 5.5
-3 -4 -7 60.69 11.6
3 4 7 56.29 7.7
3 4 7 53.29 8
-4 -4 -7 17.2 11.7
4 4 7 2.9 6.8
-5 -4 -7 1.1 16.2
5 4 7 -15.4 6.9
-6 -4 -7 52.09 19.6
6 4 7 17.5 9.8
-7 -4 -7 3.3 22.5
7 4 7 -12.4 10.4
9 -5 -7 18.7 28.3
9 -5 -7 -14.2 11.9
-9 5 7 3.7 12.7
-9 5 7 1.7 12.5
8 -5 -7 15.5 23.8
8 -5 -7 -16.7 11.3
-8 5 7 10.1 8.6
-8 5 7 -5.2 9.9
7 -5 -7 4.7 7.7
7 -5 -7 8.6 21
-7 5 7 7.8 8.7
-7 5 7 7.3 6.9
6 -5 -7 114.59 16.9
6 -5 -7 110.99 16
6 -5 -7 132.59 27.3
-6 5 7 147.49 14.2
-6 5 7 98.39 12.8
5 -5 -7 171.18 13.7
5 -5 -7 195.78 16.4
5 -5 -7 180.88 15.2
5 -5 -7 183.48 25.5
-5 5 7 191.98 16.5
-5 5 7 214.78 14.3
4 -5 -7 181.28 23.2
4 -5 -7 167.08 11.8
4 -5 -7 178.88 14.1
-4 5 7 179.58 13.4
-4 5 7 175.98 12.8
-4 5 7 175.18 17.7
3 -5 -7 291.27 25.8
3 -5 -7 289.97 14.7
3 -5 -7 275.77 11.4
-3 5 7 272.07 15.9
-3 5 7 276.27 13.2
-3 5 7 293.47 14.6
2 -5 -7 419.96 12.9
2 -5 -7 407.26 17.2
2 -5 -7 434.06 27.9
-2 5 7 425.56 16.9
-2 5 7 419.66 15.1
-2 5 7 419.26 31
-2 5 7 420.66 17.6
1 -5 -7 167.28 21.6
1 -5 -7 165.78 12.9
-1 5 7 170.58 24.7
-1 5 7 161.28 15.3
-1 5 7 186.48 12.5
-1 5 7 163.28 13.1
0 -5 -7 47 6.7
0 5 7 37.9 6.3
0 5 7 35.4 6.5
0 5 7 35.6 6.3
0 5 7 67.79 20.4
-1 -5 -7 233.98 12.2
-1 -5 -7 242.98 13.2
1 5 7 249.38 15.3
1 5 7 234.48 15.5
1 5 7 249.28 13.3
-2 -5 -7 457.45 16.4
-2 -5 -7 499.75 19.5
2 5 7 507.25 21.5
2 5 7 478.25 15.9
2 5 7 513.35 36.6
2 5 7 483.85 20.2
-3 -5 -7 -0.7 9.5
3 5 7 9.8 7.4
3 5 7 -0.5 4.4
3 5 7 7 8.9
-4 -5 -7 31.4 13
4 5 7 16.1 8.6
-5 -5 -7 18.4 16.3
5 5 7 14 9.8
-6 -5 -7 21.4 21.2
6 5 7 -4.8 10.2
9 -6 -7 41.4 31.6
9 -6 -7 -1.2 15.5
-9 6 7 34 15.3
-9 6 7 10.6 14.4
8 -6 -7 65.59 28.8
-8 6 7 18.9 11.9
-8 6 7 26.5 11.5
7 -6 -7 7.5 23.7
7 -6 -7 9.8 8.4
-7 6 7 -5.3 9.4
-7 6 7 4.1 10.6
6 -6 -7 17.2 7.2
6 -6 -7 52.59 27.1
6 -6 -7 27.3 11.4
-6 6 7 30.4 9.9
-6 6 7 45.4 9
5 -6 -7 10.7 7.5
5 -6 -7 18 19
5 -6 -7 2.5 5.9
-5 6 7 4.3 7.3
-5 6 7 -2.6 7.7
4 -6 -7 3.4 17.3
4 -6 -7 -1.5 6
4 -6 -7 -0.4 5.2
-4 6 7 1.5 8.2
-4 6 7 1.6 6.8
-4 6 7 -3.4 4.8
3 -6 -7 452.25 32.9
3 -6 -7 429.76 13.8
3 -6 -7 441.16 20.8
-3 6 7 444.66 19.5
-3 6 7 453.35 16.1
-3 6 7 450.45 20.8
2 -6 -7 7 3.3
2 -6 -7 5.4 15.7
-2 6 7 -0.8 4.4
-2 6 7 9.4 6.7
-2 6 7 10.9 6.5
1 -6 -7 19.7 17.6
-1 6 7 37.9 38.7
-1 6 7 9.1 6.6
-1 6 7 27.4 7
0 -6 -7 279.57 16.4
0 6 7 274.47 16
0 6 7 299.07 17.6
0 6 7 292.27 32.4
-1 -6 -7 86.69 9.3
1 6 7 95.89 12.5
1 6 7 94.39 12.6
1 6 7 104.89 15.3
1 6 7 137.69 41.5
-2 -6 -7 24.4 8.2
-2 -6 -7 44.9 10.6
2 6 7 17.3 7.9
2 6 7 23.4 6.2
2 6 7 11.4 8.3
-3 -6 -7 22.4 12.4
3 6 7 17 8.6
3 6 7 14.1 5.9
3 6 7 19.3 10.1
-4 -6 -7 232.68 25.5
4 6 7 245.18 12.7
4 6 7 239.58 21
-5 -6 -7 15.2 22.5
5 6 7 16.9 11.5
8 -7 -7 16 13.1
8 -7 -7 83.39 34.5
-8 7 7 57.69 15.1
-8 7 7 43.7 14.6
7 -7 -7 0.3 25.1
7 -7 -7 -16.1 9.8
-7 7 7 1.1 12
-7 7 7 -13.4 10.6
6 -7 -7 77.09 26.9
6 -7 -7 38.8 8.7
6 -7 -7 19.6 10.9
-6 7 7 48.3 12.2
-6 7 7 76.99 12.5
5 -7 -7 -4.6 9.1
5 -7 -7 23 23.1
5 -7 -7 10.7 6.6
-5 7 7 10.5 10.3
-5 7 7 -2.1 9.1
4 -7 -7 131.49 28
4 -7 -7 88.19 9.2
-4 7 7 94.99 11.4
-4 7 7 67.19 11.4
3 -7 -7 6.9 20.2
3 -7 -7 -7.2 5.1
-3 7 7 -14.3 7.7
-3 7 7 -13.7 7.3
-3 7 7 -0.8 5
2 -7 -7 228.58 31.3
-2 7 7 232.48 19.5
-2 7 7 201.18 18.5
-2 7 7 210.28 13.2
1 -7 -7 17.6 21.2
-1 7 7 15.7 9.4
-1 7 7 7.4 6
0 -7 -7 -5.1 9
0 7 7 4 7.5
0 7 7 3.1 8.3
0 7 7 2.7 7.5
-1 -7 -7 4 10
1 7 7 17.3 7.7
1 7 7 8.6 8.9
1 7 7 7.4 8.9
2 7 7 106.79 13
2 7 7 59.09 12.8
2 7 7 71.39 9.6
3 7 7 6.2 7.6
3 7 7 -11.7 9.8
7 -8 -7 35.5 34.6
-7 8 7 -6.6 13.6
-7 8 7 18.6 15
6 -8 -7 38.8 32
-6 8 7 26.3 13.2
5 -8 -7 -0.8 26.9
-5 8 7 15.8 11.3
-5 8 7 -17.8 10.7
4 -8 -7 21.1 26.2
-4 8 7 12.8 11
-4 8 7 13.7 10.5
3 -8 -7 -7.5 23.9
-3 8 7 3.8 10
-3 8 7 13 10.4
2 -8 -7 92.39 30.7
-2 8 7 68.29 12.4
-2 8 7 59.59 11.5
1 -8 -7 -32.3 26.4
-1 8 7 6.5 9.5
-1 8 7 9.5 10.2
0 8 7 0.3 10.3
0 8 7 13.1 9.3
1 8 7 -1.8 10.7
1 8 7 15.1 11
2 8 7 41.3 14.1
2 8 7 23.8 10.8
3 8 7 -8.9 12.3
6 -9 -7 45.3 41.9
-6 9 7 16.8 16
5 -9 -7 31 33.5
-5 9 7 32.6 15.8
-5 9 7 39.9 15.9
-4 9 7 35.2 15.5
-4 9 7 53.89 15.2
3 -9 -7 1 30
-3 9 7 9.2 13.4
-3 9 7 5.9 12.7
2 -9 -7 3 31.7
-2 9 7 -7.7 13.2
-2 9 7 -14.5 11.5
-1 9 7 4.9 13
-1 9 7 2.6 11.3
0 9 7 12.4 14.3
0 9 7 -5.4 11.5
1 9 7 36 17.8
1 9 7 27.3 14.1
-1 11 -8 -11.8 12.7
-1 11 -8 -17.5 17.5
1 -11 8 -2.2 37
-2 11 -8 4.8 13.2
-2 11 -8 17.3 21.4
2 -11 8 75.59 41.8
-3 11 -8 1.5 12.3
3 -11 8 16 43.6
2 10 -8 7.6 11.6
2 10 -8 4.1 10.8
2 10 -8 8.8 11.1
1 10 -8 -7.3 11.1
1 10 -8 -5.3 9.5
-1 -10 8 -13.5 29.8
0 10 -8 0.5 9.6
0 10 -8 5.4 16.6
0 -10 8 -6 27.9
-1 10 -8 51.99 11.4
-1 10 -8 37.7 12.9
-2 10 -8 7.1 10
-2 10 -8 -8 10.5
2 -10 8 32.6 33.2
-3 10 -8 31.9 12.5
-3 10 -8 30.4 10.7
3 -10 8 68.89 34.1
-4 10 -8 53.59 13.9
-4 10 -8 37.7 12.4
4 -10 8 102.29 37.5
-5 10 -8 13.9 13.1
-5 10 -8 15.5 14
5 -10 8 44.1 41.3
-6 10 -8 25.7 16
6 -10 8 17.5 69.09
4 9 -8 163.38 21.8
4 9 -8 232.98 19.6
4 9 -8 255.77 25.9
3 9 -8 -9.3 9.5
3 9 -8 -9.4 9.1
3 9 -8 -4.9 8.7
2 9 -8 -14.8 8.7
2 9 -8 -10.9 8.8
2 9 -8 -2 4.5
1 9 -8 -8.2 7.7
1 9 -8 -7.5 8.6
-1 -9 8 14.6 23.7
0 9 -8 45.1 16.9
0 9 -8 13.9 10.4
0 9 -8 7.4 8.1
0 -9 8 13 22.3
-1 9 -8 5.2 8.7
-1 9 -8 11.9 8.6
1 -9 8 0 23.3
-2 9 -8 360.96 21.9
-2 9 -8 335.97 23.4
2 -9 8 378.56 40.1
-3 9 -8 -14.9 8.7
-3 9 -8 5.7 10.1
3 -9 8 -0.2 24.5
-4 9 -8 4.4 9.9
-4 9 -8 -6.4 9.2
4 -9 8 26.4 26.6
-5 9 -8 -3.7 11
-5 9 -8 -12.4 10.8
5 -9 8 14.2 30.6
-6 9 -8 -1.6 12
-6 9 -8 -1.6 11.4
6 -9 8 23.9 36.5
-7 9 -8 30 22.9
-7 9 -8 24.6 14.4
7 -9 8 46.6 42.8
5 8 -8 -3.5 9.1
5 8 -8 -7.5 10.6
5 8 -8 -9.8 10
4 8 -8 54.69 9.3
4 8 -8 65.19 8.7
4 8 -8 43.6 11.1
4 8 -8 75.19 13.5
3 8 -8 20.4 6.5
3 8 -8 19 8.1
3 8 -8 22.6 6.7
3 8 -8 36.6 9.4
2 8 -8 6.6 7
2 8 -8 5.1 7.9
2 8 -8 16.7 15.4
1 8 -8 111.79 11.8
1 8 -8 102.89 14.5
1 8 -8 122.69 9.8
1 8 -8 130.19 20.3
-1 -8 8 101.59 24.3
0 8 -8 100.19 11.3
0 8 -8 114.59 14.8
0 -8 8 120.79 25.5
-1 8 -8 49.4 9.3
-1 8 -8 40.7 8.1
1 -8 8 46.1 11.4
1 -8 8 77.29 23.3
-2 8 -8 292.77 18.3
-2 8 -8 265.57 18.9
2 -8 8 255.97 32.3
-3 8 -8 67.39 11.9
-3 8 -8 71.39 10.3
3 -8 8 65.19 15.7
3 -8 8 112.29 49
-4 8 -8 50.99 10.4
-4 8 -8 40.7 9.8
4 -8 8 51.59 26.2
-5 8 -8 -4.5 12.5
-5 8 -8 0.3 9.1
5 -8 8 -16.5 7.8
5 -8 8 14 28.2
-6 8 -8 3.2 10.6
-6 8 -8 -9.2 10.2
6 -8 8 -14 29.8
6 -8 8 -6.3 7.1
-7 8 -8 18.4 18
-7 8 -8 11.2 17.3
7 -8 8 -24.7 31.8
7 -8 8 24.7 11.2
-8 8 -8 53.99 22.9
-8 8 -8 5.9 15.1
8 -8 8 -58.09 51.59
6 7 -8 2.1 11.4
6 7 -8 10.1 9.5
6 7 -8 6.7 10.1
5 7 -8 23.9 10.2
5 7 -8 35.8 10
5 7 -8 33.9 6.2
5 7 -8 46.2 9.7
5 7 -8 76.69 30.2
4 7 -8 10.2 22.9
4 7 -8 21.6 7.7
4 7 -8 13.1 5.5
4 7 -8 2.3 6.7
3 7 -8 32.9 7.5
3 7 -8 32.4 7.4
3 7 -8 21 20
3 7 -8 25.4 15
3 7 -8 20.1 7.4
2 7 -8 234.18 21.7
2 7 -8 222.38 14.6
2 7 -8 218.28 13.4
2 7 -8 225.48 16.2
-2 -7 8 237.88 24.3
1 7 -8 10.1 6
1 7 -8 2.3 6
1 7 -8 7.7 4.4
1 7 -8 7.7 11.4
-1 -7 8 7.2 14.6
0 7 -8 53.89 7.8
0 7 -8 55.19 8.3
0 -7 8 85.29 19.4
-1 7 -8 258.87 15.2
-1 7 -8 277.17 16.4
1 -7 8 269.07 9.3
1 -7 8 262.47 16.4
1 -7 8 242.88 26
-2 7 -8 28.8 7.4
-2 7 -8 33.1 7.5
2 -7 8 28 3.6
2 -7 8 43.8 18.3
-3 7 -8 169.28 16.2
-3 7 -8 213.58 16.1
3 -7 8 223.48 19.6
3 -7 8 219.88 29.6
-4 7 -8 37.3 9.9
-4 7 -8 35.6 8.1
-4 7 -8 36.8 8.7
4 -7 8 31.5 5.8
4 -7 8 26.9 8.6
4 -7 8 44.3 21.3
-5 7 -8 -2.2 7.5
-5 7 -8 -4 7.9
5 -7 8 -14.6 22.7
5 -7 8 -2.3 7.1
-6 7 -8 44.1 10.5
-6 7 -8 65.19 12.2
6 -7 8 50.79 10.4
-7 7 -8 27 10
-7 7 -8 31.8 18.3
-8 7 -8 54.29 14.5
-8 7 -8 85.89 23.3
7 6 -8 30.4 12.9
7 6 -8 59.39 11.3
7 6 -8 62.69 10
6 6 -8 47.1 9.7
6 6 -8 59.09 8.6
6 6 -8 38.5 11.1
5 6 -8 69.49 7.7
5 6 -8 95.09 24.7
5 6 -8 52.99 13.6
5 6 -8 49.99 8.9
4 6 -8 -4.9 13.8
4 6 -8 -5.7 5.3
4 6 -8 4.1 15.1
4 6 -8 2.1 4.2
4 6 -8 -1.6 5.5
3 6 -8 4.9 5
3 6 -8 -4.7 14.4
3 6 -8 -8.4 10.2
3 6 -8 2.4 5.2
2 6 -8 341.27 20.8
2 6 -8 369.76 15.3
2 6 -8 374.76 15.4
-2 -6 8 383.46 23
1 6 -8 241.88 12.4
1 6 -8 235.98 13.4
-1 -6 8 212.78 19.1
0 6 -8 671.73 20.1
0 6 -8 682.13 17.8
0 -6 8 672.33 29.5
0 -6 8 699.43 20
0 -6 8 671.43 17
-1 6 -8 171.08 13.3
-1 6 -8 171.68 12.8
1 -6 8 170.58 12.7
1 -6 8 168.08 10.3
1 -6 8 181.18 21.6
-2 6 -8 24.5 6.1
-2 6 -8 28.9 6.3
2 -6 8 26.5 6.4
2 -6 8 36.9 17.3
2 -6 8 27.6 4.5
-3 6 -8 49.3 7.4
-3 6 -8 55.99 7.5
3 -6 8 63.29 10.2
3 -6 8 39.4 7.6
3 -6 8 90.89 21.4
-4 6 -8 195.28 14.1
-4 6 -8 203.48 15.7
4 -6 8 193.08 14
-5 6 -8 78.19 11.2
-5 6 -8 112.99 16.4
-5 6 -8 74.29 8.6
5 -6 8 97.99 15.1
-6 6 -8 141.09 18.8
-6 6 -8 103.69 14.8
6 -6 8 121.59 17.6
-7 6 -8 24.9 18
-7 6 -8 17.8 8
-8 6 -8 17.9 18.1
-8 6 -8 -9.8 10.3
-9 6 -8 60.69 25.5
8 5 -8 219.08 32.4
8 5 -8 262.97 23.2
7 5 -8 57.39 10.7
7 5 -8 45.9 11.7
6 5 -8 178.78 16.3
6 5 -8 221.68 27.8
6 5 -8 166.58 20.7
5 5 -8 3.9 16.2
5 5 -8 -6.7 5.8
5 5 -8 -4.7 2.9
5 5 -8 -5 6
5 5 -8 23.3 15
4 5 -8 255.77 14.3
4 5 -8 301.17 21.6
4 5 -8 290.27 22.2
4 5 -8 268.67 16.7
4 5 -8 261.07 9.3
3 5 -8 111.29 11.1
3 5 -8 119.29 17.3
3 5 -8 116.89 16.7
3 5 -8 120.89 12.3
2 5 -8 2.4 8.5
2 5 -8 10.7 5
2 5 -8 13.1 5.2
-2 -5 8 13.7 10.4
-2 -5 8 3.4 4.8
1 5 -8 30.9 5.9
1 5 -8 26.5 5
-1 -5 8 28.6 4.7
-1 -5 8 44.5 12.3
0 5 -8 2.7 4.3
0 5 -8 -1.9 3.9
0 -5 8 1.7 3.4
0 -5 8 -8.5 4.1
0 -5 8 -7.4 10.2
-1 5 -8 311.37 13.6
-1 5 -8 291.87 13.5
1 -5 8 291.87 21.8
1 -5 8 303.27 11.9
1 -5 8 304.27 13
-2 5 -8 1.4 4.8
-2 5 -8 3.7 4.9
2 -5 8 6.2 4.3
2 -5 8 9.5 5.1
-3 5 -8 70.59 10.4
-3 5 -8 99.49 12.5
-3 5 -8 85.79 11.8
3 -5 8 92.69 11.4
3 -5 8 83.49 11.3
-4 5 -8 57.59 6.9
-4 5 -8 43.3 7.8
-5 5 -8 78.59 11.3
-5 5 -8 78.59 9.4
-6 5 -8 72.59 8.1
-6 5 -8 88.99 16.9
-6 5 -8 65.99 11.7
-6 5 -8 48.1 9.9
-7 5 -8 17.8 15.9
-7 5 -8 16.4 6.6
-8 5 -8 37.2 19.2
-8 5 -8 30 9.4
-9 5 -8 73.29 26.1
9 4 -8 -5.1 15.7
8 4 -8 10.8 11.8
7 4 -8 28.3 10.3
7 4 -8 99.99 24.8
7 4 -8 56.49 9.4
6 4 -8 25.5 15.5
6 4 -8 13.5 8.1
5 4 -8 10.2 6.2
5 4 -8 19.3 12.7
4 4 -8 7.1 5.4
4 4 -8 1.6 4.6
4 4 -8 4.9 10.1
4 4 -8 19.1 10.6
4 4 -8 13.2 2.8
4 4 -8 9.7 2.5
3 4 -8 1.6 10
3 4 -8 8.5 4.9
3 4 -8 12.1 8.6
3 4 -8 3.3 5.6
3 4 -8 6.3 4.8
-3 -4 8 -1.2 5
2 4 -8 162.48 11.9
2 4 -8 148.29 8.5
2 4 -8 166.38 10.3
-2 -4 8 163.08 11.6
-2 -4 8 147.19 12.1
1 4 -8 729.53 19.2
1 4 -8 695.63 18
1 4 -8 734.53 16.8
-1 -4 8 725.13 22.4
-1 -4 8 712.73 18.7
0 4 -8 725.33 18.8
0 4 -8 720.53 18.2
0 4 -8 739.33 17.6
0 -4 8 702.63 18.5
0 -4 8 709.23 24
0 -4 8 748.23 18.5
-1 4 -8 1403.56 28.1
-1 4 -8 1363.16 31.2
1 -4 8 1403.46 27.8
1 -4 8 1383.56 32.6
-2 4 -8 132.99 10.7
-2 4 -8 145.69 10.5
2 -4 8 152.38 11.4
2 -4 8 136.69 10
-3 4 -8 89.89 10.7
-3 4 -8 89.69 11.1
3 -4 8 99.19 10.9
3 -4 8 94.99 11.8
-4 4 -8 25.1 6.5
-4 4 -8 17.2 4.6
-4 4 -8 13.7 6
4 -4 8 25.7 6.4
-5 4 -8 30.6 5.4
-5 4 -8 27 7
-5 4 -8 31.1 7.4
5 -4 8 28.8 7.1
-6 4 -8 188.28 22.8
-6 4 -8 188.98 11.9
-6 4 -8 216.58 16.1
-6 4 -8 209.58 16.7
6 -4 8 183.68 16.4
-7 4 -8 23.8 6
-7 4 -8 22.5 15
-8 4 -8 10.6 6.9
-8 4 -8 -2.8 16.7
-9 4 -8 4.7 21.1
9 3 -8 28.6 14.5
8 3 -8 15 26.5
8 3 -8 -5.1 11.4
8 3 -8 0.1 9.9
7 3 -8 4.4 6.4
7 3 -8 32.7 18.1
7 3 -8 13.6 9.1
6 3 -8 43 8.5
6 3 -8 77.89 16.3
6 3 -8 50.99 7
5 3 -8 38.6 7.3
4 3 -8 -4.7 7.9
4 3 -8 0 9.9
4 3 -8 5.6 5.2
3 3 -8 18.9 8.4
3 3 -8 18.7 5.2
3 3 -8 18.4 2.8
3 3 -8 19.5 8.1
3 3 -8 12.2 4.5
-3 -3 8 11 5.3
2 3 -8 75.39 10
2 3 -8 59.69 7.9
2 3 -8 65.49 7.2
-2 -3 8 80.69 9.8
1 3 -8 177.28 8.1
1 3 -8 185.58 9.5
1 3 -8 186.98 11.2
-1 -3 8 179.88 10.2
-1 -3 8 157.38 11.7
0 3 -8 437.76 12.5
0 3 -8 422.46 13
0 3 -8 442.26 14.8
0 -3 8 430.06 14
0 -3 8 443.76 16.5
0 -3 8 450.65 13.1
-1 3 -8 169.28 9.5
-1 3 -8 172.38 9.5
1 -3 8 164.18 9.2
1 -3 8 165.98 10.7
-2 3 -8 313.27 12.3
2 -3 8 307.87 13.4
2 -3 8 321.27 14
-3 3 -8 431.56 15.5
-3 3 -8 437.56 14.8
3 -3 8 447.76 17.3
3 -3 8 429.36 14.7
-4 3 -8 218.58 12.7
-4 3 -8 225.68 13.7
-4 3 -8 213.78 10.7
4 -3 8 227.28 13
-5 3 -8 113.19 12.3
-5 3 -8 122.79 13.1
-5 3 -8 138.99 9
5 -3 8 131.79 12.6
-6 3 -8 29.7 4.8
-6 3 -8 29 13.2
6 -3 8 20.2 7.8
-7 3 -8 181.38 9.9
-7 3 -8 212.28 25.9
-8 3 -8 21.7 17.4
-9 3 -8 8.7 21.2
9 2 -8 -24.8 11.5
8 2 -8 71.29 23.2
8 2 -8 29.2 10.7
8 2 -8 27.5 8.8
7 2 -8 14.2 8.6
7 2 -8 12.4 14.6
7 2 -8 18.6 6.7
6 2 -8 15 5.7
6 2 -8 6.7 6.5
6 2 -8 20.5 10.5
5 2 -8 21.4 10.6
5 2 -8 23 5.4
5 2 -8 18.9 6.3
5 2 -8 29 10.2
4 2 -8 261.77 15.4
4 2 -8 246.38 15.8
4 2 -8 248.98 11.6
-4 -2 8 260.37 15.3
3 2 -8 424.96 18.2
3 2 -8 419.46 8.3
3 2 -8 417.66 16.3
2 2 -8 1593.74 29.9
2 2 -8 1580.24 32.6
2 2 -8 1638.94 26.5
-2 -2 8 1677.83 32.6
1 2 -8 157.48 10.9
1 2 -8 164.38 7.2
-1 -2 8 153.48 9.9
0 2 -8 15.6 3.1
0 2 -8 13.7 4
0 2 -8 15.1 3.3
0 -2 8 12.2 3.3
0 -2 8 18.3 3.5
0 -2 8 17.6 4.2
-1 2 -8 3546.65 56.49
-1 2 -8 3585.54 56.79
1 -2 8 3585.64 59.39
1 -2 8 3642.24 56.39
1 -2 8 3477.85 56.79
-2 2 -8 258.97 10.8
-2 2 -8 240.48 10.4
2 -2 8 246.48 11.1
2 -2 8 260.27 10.1
2 -2 8 271.97 13.4
-3 2 -8 9.3 4.5
-3 2 -8 5.2 4.7
3 -2 8 5 4.3
3 -2 8 5.7 4.9
-4 2 -8 6.6 5
-4 2 -8 2.1 5
4 -2 8 -5.8 4.9
4 -2 8 5 4.7
-5 2 -8 148.59 13.3
-5 2 -8 168.68 12.6
-5 2 -8 191.08 19.5
-5 2 -8 156.88 7.9
5 -2 8 163.58 12.6
-6 2 -8 12.9 3.3
-6 2 -8 16.8 13.3
6 -2 8 3.5 7
-7 2 -8 12.2 14.6
7 -2 8 9.5 8.9
-8 2 -8 197.88 30.7
-9 2 -8 109.59 26.9
10 1 -8 -12.9 15.8
9 1 -8 3.4 11
8 1 -8 63.89 11.9
8 1 -8 75.79 9.6
7 1 -8 119.19 12.4
6 1 -8 81.79 10.9
6 1 -8 64.49 9
5 1 -8 504.75 16.2
5 1 -8 509.05 20.9
5 1 -8 500.75 22
4 1 -8 31.8 9.1
4 1 -8 14.5 5.3
-4 -1 8 12.4 5.1
3 1 -8 46.1 8.6
3 1 -8 25.7 4.7
3 1 -8 31.4 4.6
-3 -1 8 34.1 4.4
-3 -1 8 24.6 5
2 1 -8 427.16 15.4
2 1 -8 442.36 10
-2 -1 8 453.95 10.4
-2 -1 8 462.05 15.3
1 1 -8 46.1 5.8
1 1 -8 26.3 4.8
1 1 -8 34 3.9
-1 -1 8 41.2 5.7
-1 -1 8 53.39 8.5
0 1 -8 744.93 16.2
0 1 -8 755.72 15.9
0 1 -8 748.73 19.6
0 -1 8 743.63 19.2
0 -1 8 763.92 15.9
0 -1 8 738.83 16.3
-1 1 -8 2.4 3.1
-1 1 -8 4.2 3
1 -1 8 1.3 3.7
1 -1 8 5.7 3
1 -1 8 6.1 3.7
-2 1 -8 24.2 3.9
-2 1 -8 31.6 4.7
2 -1 8 23.8 5
2 -1 8 37.5 4.2
2 -1 8 23.6 4.5
-3 1 -8 12.6 4.6
-3 1 -8 15.1 4.6
3 -1 8 23 4.4
3 -1 8 19.2 5.1
-4 1 -8 1083.99 25
-4 1 -8 1077.39 23.5
4 -1 8 1069.09 25.5
-5 1 -8 1664.23 34.7
-5 1 -8 1661.03 44.3
5 -1 8 1672.23 35
5 -1 8 1642.74 32.9
-6 1 -8 49.9 13.9
6 -1 8 48.9 8
6 -1 8 43.1 7.5
-7 1 -8 309.77 20.8
-7 1 -8 385.96 30.7
7 -1 8 329.17 19.6
-8 1 -8 111.69 22.6
-9 1 -8 24.7 24.8
10 0 -8 7.6 15.6
9 0 -8 -7.4 11.7
9 0 -8 -6.8 10.4
8 0 -8 -0.3 7.3
8 0 -8 8.3 9.3
7 0 -8 237.78 14.1
7 0 -8 259.77 24.7
6 0 -8 17 5.4
6 0 -8 22 11.3
6 0 -8 8.4 6.4
5 0 -8 319.87 17.8
5 0 -8 331.07 18.1
5 0 -8 312.67 13.6
-5 0 8 324.37 17.3
4 0 -8 342.67 16.1
4 0 -8 336.57 16
4 0 -8 296.37 18.8
4 0 -8 319.57 22
-4 0 8 343.87 15.9
-4 0 8 366.26 7.9
3 0 -8 81.69 9.4
3 0 -8 74.99 8.6
3 0 -8 85.99 10.5
-3 0 8 74.09 10.1
-3 0 8 73.99 5.3
2 0 -8 300.77 14.2
2 0 -8 305.97 11.2
2 0 -8 282.17 9.5
-2 0 8 286.47 8.6
-2 0 8 298.97 13.1
1 0 -8 22.9 3.2
1 0 -8 22.6 3.2
1 0 -8 20.8 3.8
1 0 -8 22.3 5
-1 0 8 23.7 4.4
-1 0 8 22.6 3.4
0 0 -8 2693.63 44.1
0 0 -8 2736.83 44.1
0 0 -8 2712.83 47.8
0 0 -8 2679.23 42.3
0 0 8 2735.13 44.3
0 0 8 2687.53 47.3
-1 0 -8 1099.59 22
-1 0 -8 1073.89 19.6
-1 0 -8 1061.69 20.6
1 0 8 1035.9 21.9
1 0 8 1069.59 25.1
-2 0 -8 233.28 12.3
-2 0 -8 254.77 9
-2 0 -8 253.37 9.1
2 0 8 255.67 8.7
2 0 8 237.78 17.4
2 0 8 263.57 11.3
-3 0 -8 44.5 5.7
-3 0 -8 46.4 5.8
-3 0 -8 51.69 7.2
3 0 8 39.5 5.5
3 0 8 45 5.7
-4 0 -8 499.85 10.6
-4 0 -8 490.35 22.8
-4 0 -8 479.95 16.5
4 0 8 510.25 17.9
4 0 8 489.85 14.5
-5 0 -8 105.69 17.7
-5 0 -8 94.79 12.4
5 0 8 111.39 12.7
5 0 8 110.29 10.4
-6 0 -8 167.18 26
6 0 8 174.08 14.1
6 0 8 185.88 15
-7 0 -8 126.79 24.1
-7 0 -8 107.29 11.9
7 0 8 116.79 16.5
-8 0 -8 132.79 25.8
8 0 8 86.39 12.4
-9 0 -8 95.89 27.9
10 -1 -8 -3.2 14.6
9 -1 -8 0.6 10.5
9 -1 -8 -11.9 10.3
8 -1 -8 122.89 15.3
8 -1 -8 105.59 13.2
8 -1 -8 136.29 22.2
7 -1 -8 8.9 6.4
7 -1 -8 2.1 7.2
7 -1 -8 15.3 11.7
6 -1 -8 367.56 20
6 -1 -8 354.56 15.5
6 -1 -8 354.16 19.8
5 -1 -8 82.09 13.5
5 -1 -8 98.69 15.8
5 -1 -8 59.59 6.7
5 -1 -8 86.99 11.9
-5 1 8 74.69 5.8
-5 1 8 79.49 13.8
4 -1 -8 186.08 11.2
4 -1 -8 156.58 13.6
4 -1 -8 185.38 14.3
4 -1 -8 180.08 12.3
-4 1 8 171.98 7
-4 1 8 184.08 13
3 -1 -8 19.6 6
3 -1 -8 14.1 7.4
3 -1 -8 11.3 4.6
3 -1 -8 18.5 6.1
-3 1 8 14.4 3.1
-3 1 8 11.7 4.2
2 -1 -8 87.69 8.2
2 -1 -8 76.29 6.2
2 -1 -8 76.49 8.8
2 -1 -8 97.09 10.8
-2 1 8 84.49 10.4
-2 1 8 90.39 9.5
-2 1 8 87.79 6.5
1 -1 -8 3739.53 62.89
1 -1 -8 3792.92 57.09
1 -1 -8 3738.33 58.89
1 -1 -8 3812.52 59.89
-1 1 8 3705.43 58.89
-1 1 8 3790.32 62.39
-1 1 8 3758.92 66.39
0 -1 -8 225.48 9.4
0 -1 -8 219.08 9.4
0 -1 -8 235.98 7.1
0 1 8 230.28 14.1
0 1 8 224.48 12.4
0 1 8 224.38 9.9
-1 -1 -8 556.74 11.5
-1 -1 -8 551.34 13.6
-1 -1 -8 545.15 14.9
1 1 8 536.95 15.4
1 1 8 560.24 11.2
1 1 8 567.54 18.4
1 1 8 539.65 22
-2 -1 -8 17 3.6
-2 -1 -8 19.1 4.2
-2 -1 -8 15.4 3.2
2 1 8 13.6 5.7
2 1 8 21.3 5
2 1 8 17.4 2.9
-3 -1 -8 51.29 11.1
-3 -1 -8 46.6 5.9
-3 -1 -8 38.1 5.6
3 1 8 36 4.2
3 1 8 31 5.5
-4 -1 -8 374.86 15.5
-4 -1 -8 356.06 20.9
4 1 8 362.06 11.9
4 1 8 359.36 16
-5 -1 -8 193.28 20.2
-5 -1 -8 192.78 14.7
5 1 8 215.18 14.5
-6 -1 -8 113.29 20.9
-6 -1 -8 107.79 14.3
6 1 8 141.39 15.3
6 1 8 113.09 12.8
-7 -1 -8 2 16.1
7 1 8 -20.3 8.6
7 1 8 -10.1 7.3
-8 -1 -8 11.3 20.9
8 1 8 2.1 9.1
10 -2 -8 43.9 15.6
9 -2 -8 3.9 11.2
9 -2 -8 9.4 11.2
8 -2 -8 230.98 26.7
8 -2 -8 234.98 18.3
8 -2 -8 296.07 25.5
7 -2 -8 190.58 20.6
7 -2 -8 181.08 24.1
7 -2 -8 169.38 15.1
7 -2 -8 191.58 19.6
-7 2 8 174.48 7.5
6 -2 -8 5.3 9.5
6 -2 -8 1.8 5.4
6 -2 -8 1.7 13
6 -2 -8 -0.7 5.7
-6 2 8 4.6 3.3
5 -2 -8 36.9 7.1
5 -2 -8 55.09 9.8
5 -2 -8 44.2 14.3
5 -2 -8 28 6.2
-5 2 8 46 6.6
-5 2 8 37.8 6.8
-5 2 8 34 6.3
4 -2 -8 59.69 14.1
4 -2 -8 84.79 12.5
4 -2 -8 90.99 9.9
4 -2 -8 70.19 9.7
-4 2 8 84.29 10.8
-4 2 8 82.99 11.1
-4 2 8 84.79 7.1
3 -2 -8 27.6 4.9
3 -2 -8 43.3 11
3 -2 -8 25.1 5.3
-3 2 8 46.6 6.6
-3 2 8 21.9 5.1
-3 2 8 25 4.9
2 -2 -8 2416.76 49.2
2 -2 -8 2443.96 44.8
-2 2 8 2332.47 42.1
-2 2 8 2358.46 40.5
-2 2 8 2455.85 44.1
-2 2 8 2378.26 49.2
1 -2 -8 68.59 5.2
1 -2 -8 72.09 7.8
1 -2 -8 74.19 8.2
1 -2 -8 48.4 6.2
-1 2 8 66.99 10.2
-1 2 8 61.79 13.1
-1 2 8 72.59 7.7
-1 2 8 63.39 8.2
0 -2 -8 25.7 4.4
0 -2 -8 37.7 4.2
0 2 8 22.8 4.4
0 2 8 26.4 4.7
0 2 8 20.3 5.3
0 2 8 36.7 11.8
-1 -2 -8 282.17 11.7
-1 -2 -8 287.27 13.4
-1 -2 -8 286.87 10.7
1 2 8 262.47 21.8
1 2 8 293.47 12.5
-2 -2 -8 20.5 5
-2 -2 -8 32.9 9.3
-2 -2 -8 29.6 4.1
2 2 8 32 6.1
2 2 8 24.6 6.2
2 2 8 33.6 12.6
2 2 8 30.8 3.7
-3 -2 -8 1322.27 29.2
-3 -2 -8 1312.47 33.9
3 2 8 1312.27 29.5
3 2 8 1317.27 22.1
3 2 8 1274.67 43.4
-4 -2 -8 410.26 17.7
-4 -2 -8 413.86 22.2
4 2 8 412.96 17.5
4 2 8 407.96 11.7
-5 -2 -8 33.8 13.3
5 2 8 21.3 5.2
5 2 8 20.3 7.4
-6 -2 -8 47 17.1
-6 -2 -8 34.5 9.8
6 2 8 33.1 7.8
-7 -2 -8 22.7 19.4
7 2 8 -1 9.9
-8 -2 -8 30.1 25.1
8 2 8 2.5 20.7
10 -3 -8 -14.6 14
9 -3 -8 -6.7 32.9
9 -3 -8 -11.7 10.6
8 -3 -8 -5.6 19.2
8 -3 -8 -4.4 9.3
8 -3 -8 -0.4 8.9
-8 3 8 13.7 6.5
-8 3 8 3.6 5.1
7 -3 -8 42.7 13.5
7 -3 -8 29.5 8.9
7 -3 -8 37.8 8.4
7 -3 -8 64.09 20
-7 3 8 37.8 5.3
-7 3 8 49.6 8.7
6 -3 -8 25.2 7.2
6 -3 -8 40.1 19.7
6 -3 -8 30.4 7.5
-6 3 8 44.6 7.8
-6 3 8 33.1 5.4
5 -3 -8 94.29 12
5 -3 -8 84.29 14
5 -3 -8 79.99 11.1
5 -3 -8 95.69 17.7
-5 3 8 75.49 9
-5 3 8 76.69 8.5
4 -3 -8 90.49 11
4 -3 -8 95.69 13.1
4 -3 -8 86.79 15.4
-4 3 8 77.59 11
-4 3 8 80.69 11.6
-4 3 8 93.09 8.9
3 -3 -8 183.68 9.1
3 -3 -8 170.48 11.4
3 -3 -8 184.68 17.6
3 -3 -8 207.08 14.3
-3 3 8 178.68 12.6
-3 3 8 185.58 10.2
-3 3 8 200.58 12.7
2 -3 -8 66.09 13.5
2 -3 -8 65.59 9.2
2 -3 -8 48.3 5.3
2 -3 -8 43.2 6.2
-2 3 8 37.8 6.7
-2 3 8 43.1 5.2
-2 3 8 41.4 5.8
1 -3 -8 141.49 16.2
1 -3 -8 137.99 10.2
-1 3 8 124.49 10.4
-1 3 8 134.29 12.1
-1 3 8 146.79 12.9
-1 3 8 116.79 18
0 -3 -8 1.3 5.7
0 -3 -8 8.2 5.3
0 3 8 2.8 4.8
0 3 8 3.7 4.3
0 3 8 -0.9 11.4
0 3 8 5.6 4.5
-1 -3 -8 584.44 15.7
-1 -3 -8 560.34 19.4
-1 -3 -8 552.54 17.9
1 3 8 569.24 28.6
1 3 8 545.25 20.1
1 3 8 566.34 17.8
1 3 8 556.94 15.8
-2 -3 -8 666.93 22
-2 -3 -8 661.23 16.3
-2 -3 -8 664.93 20.2
2 3 8 672.73 32.6
2 3 8 666.13 16.6
2 3 8 654.93 20.3
2 3 8 689.43 23.4
-3 -3 -8 767.02 22.9
-3 -3 -8 737.73 25.1
-3 -3 -8 736.63 16.5
3 3 8 743.03 22.4
-4 -3 -8 3.3 10.6
4 3 8 4.6 6.5
4 3 8 4.9 2.8
4 3 8 3.4 20
-5 -3 -8 13.6 13.2
5 3 8 12.6 9.5
5 3 8 7.6 5.3
-6 -3 -8 71.19 19.4
6 3 8 52.19 10.6
6 3 8 53.09 8.1
-7 -3 -8 13.8 20.9
7 3 8 -17.5 9.3
10 -4 -8 -21 15.1
10 -4 -8 49.1 36.4
9 -4 -8 -3.4 11.7
9 -4 -8 8.7 27.9
-9 4 8 18.6 12.1
8 -4 -8 0.5 9.7
8 -4 -8 30.5 23.5
-8 4 8 -4.5 9.7
-8 4 8 14.1 7.6
7 -4 -8 20.6 18.5
7 -4 -8 -3.4 8.9
7 -4 -8 -16.9 7.4
7 -4 -8 1.7 7.9
-7 4 8 1.4 5.7
6 -4 -8 3.7 6.6
6 -4 -8 9.2 16.3
6 -4 -8 -3.3 7
-6 4 8 -5.3 6.5
-6 4 8 0.9 5.2
5 -4 -8 51.29 8
5 -4 -8 93.99 19.2
5 -4 -8 70.49 7.7
5 -4 -8 63.59 8.4
-5 4 8 51.09 7.3
-5 4 8 56.19 8.2
-5 4 8 62.39 7
4 -4 -8 1.8 12.4
4 -4 -8 -1.7 5.2
4 -4 -8 -5.8 4.6
-4 4 8 6.8 5.8
-4 4 8 7 4.9
-4 4 8 -1.9 4.5
3 -4 -8 5.2 13.3
3 -4 -8 -1.1 5.1
3 -4 -8 4.3 5.3
3 -4 -8 3.7 4.2
-3 4 8 9.5 6.2
-3 4 8 5.3 5.6
-3 4 8 6.2 4.9
2 -4 -8 840.32 33.1
2 -4 -8 803.42 22.8
2 -4 -8 834.02 19.2
2 -4 -8 830.42 22.2
-2 4 8 838.12 34.9
-2 4 8 811.82 22.6
-2 4 8 831.12 21.7
-2 4 8 847.52 22.5
1 -4 -8 12.8 5.1
1 -4 -8 10.8 12
-1 4 8 13.4 16.7
-1 4 8 12 5.3
-1 4 8 11.8 5.4
-1 4 8 6.2 5.5
0 -4 -8 19.3 5.3
0 -4 -8 31.4 6.1
0 4 8 37 16.9
0 4 8 17.4 6.7
0 4 8 16.3 5.4
0 4 8 19.9 5.6
-1 -4 -8 -1.9 4.3
-1 -4 -8 10.9 6.6
1 4 8 7.2 5.6
1 4 8 0.2 5.3
1 4 8 6.2 4.9
1 4 8 7.4 15.6
-2 -4 -8 243.48 14
-2 -4 -8 245.98 14.9
2 4 8 280.37 15.5
2 4 8 250.57 11.8
2 4 8 231.78 17.6
-3 -4 -8 0.7 4.9
-3 -4 -8 2.5 9.8
3 4 8 12.5 7.3
3 4 8 6.8 6.3
3 4 8 4.8 17.6
-4 -4 -8 12.8 11.8
-5 -4 -8 14.6 14.8
5 4 8 0.3 9.1
6 4 8 76.39 12
-7 -4 -8 60.29 26.5
7 4 8 24.9 12.9
9 -5 -8 -11.1 13.6
9 -5 -8 21 28.2
-9 5 8 1.9 12.4
-9 5 8 -1.4 11.5
8 -5 -8 19.9 10.6
8 -5 -8 34.2 24.9
-8 5 8 17.9 9.4
-8 5 8 7 10
7 -5 -8 18.6 20.5
7 -5 -8 6.8 8.2
-7 5 8 -1.3 6.9
-7 5 8 -2.1 9.4
6 -5 -8 19.1 7.7
6 -5 -8 42.3 20.4
-6 5 8 27.5 8.5
-6 5 8 14.2 6.9
5 -5 -8 131.09 15.7
5 -5 -8 125.49 16.8
5 -5 -8 160.08 24.7
5 -5 -8 133.59 13.6
-5 5 8 119.29 16.6
-5 5 8 132.49 14.3
-5 5 8 129.79 13.8
4 -5 -8 38.4 17.4
4 -5 -8 20.9 6.5
4 -5 -8 21 6
-4 5 8 21.6 6.6
-4 5 8 24.9 7.8
-4 5 8 21.9 5.6
3 -5 -8 396.96 12.8
3 -5 -8 425.96 17.5
3 -5 -8 421.56 28
-3 5 8 409.96 17.4
-3 5 8 417.76 18.8
-3 5 8 392.96 19.1
2 -5 -8 52.89 16.8
2 -5 -8 36.7 7.7
2 -5 -8 40.3 4
-2 5 8 37.2 6
-2 5 8 62.79 21.4
-2 5 8 27.4 6.5
-2 5 8 32.7 7.2
1 -5 -8 11.8 15.7
1 -5 -8 -3.6 5.3
-1 5 8 5.3 5.7
-1 5 8 6.9 5.8
-1 5 8 7.1 17.4
0 -5 -8 56.09 7.5
0 -5 -8 68.69 9
0 5 8 53.79 7.3
0 5 8 60.99 8.2
0 5 8 43 7
-1 -5 -8 15.2 6.2
-1 -5 -8 20.1 7.1
1 5 8 18.7 6.8
1 5 8 11.3 6.7
1 5 8 11.1 24.4
1 5 8 15.6 5.7
-2 -5 -8 140.09 13.8
-2 -5 -8 121.39 12.9
2 5 8 152.08 30.5
2 5 8 105.59 12.2
2 5 8 88.39 10.3
2 5 8 135.29 13.1
-3 -5 -8 -13.3 9.5
3 5 8 4 4.9
3 5 8 7 8.6
3 5 8 -4.6 6.9
-4 -5 -8 31.4 14.6
4 5 8 7 8.9
-5 -5 -8 10.8 19.3
5 5 8 -5 9.4
-6 -5 -8 75.19 25.8
9 -6 -8 112.99 38
-9 6 8 74.19 16.5
-9 6 8 95.29 24.6
8 -6 -8 -8.4 12
8 -6 -8 39 27.4
-8 6 8 15.3 11.9
-8 6 8 12.5 12.7
7 -6 -8 4.8 9.2
7 -6 -8 22.5 24.7
-7 6 8 15.8 10.8
-7 6 8 -4 14
6 -6 -8 -14.6 9.8
6 -6 -8 0.4 7.2
-6 6 8 -1.8 8.8
-6 6 8 2.5 9.6
5 -6 -8 251.97 23
5 -6 -8 276.77 17.8
5 -6 -8 313.77 32.9
-5 6 8 319.87 19.2
-5 6 8 299.97 21.6
4 -6 -8 58.39 8.1
4 -6 -8 52.59 7.2
-4 6 8 78.89 13.2
-4 6 8 61.29 9.9
-4 6 8 58.49 9
3 -6 -8 -0.1 7.9
3 -6 -8 -0.2 4.9
3 -6 -8 -0.2 17.1
-3 6 8 2.7 6.1
-3 6 8 1.2 6.9
-3 6 8 -2.6 7.8
2 -6 -8 73.19 9.9
2 -6 -8 102.09 22.6
-2 6 8 79.19 9.4
-2 6 8 58.59 8.7
-2 6 8 128.09 30.6
-2 6 8 69.39 12
-1 6 8 98.49 25.9
-1 6 8 73.09 9.2
-1 6 8 64.29 12.9
-1 6 8 60.89 8.6
0 6 8 29.1 7.3
0 6 8 42.2 8.8
0 6 8 78.49 24.8
0 6 8 46.9 8.4
-1 -6 -8 2.6 7.8
1 6 8 2.8 6
1 6 8 -3.3 6.7
1 6 8 9.3 7.7
-2 -6 -8 2.7 8.6
-2 -6 -8 18.2 10.2
2 6 8 4.8 6.2
2 6 8 9.1 8.5
2 6 8 12.6 8.8
-3 -6 -8 22.3 14.1
3 6 8 25.8 6.7
3 6 8 11.3 12.2
3 6 8 16.7 9.2
-4 -6 -8 23.5 19.6
4 6 8 0.6 10.5
-5 -6 -8 12.9 25.2
5 6 8 18.2 12.3
8 -7 -8 35 30.3
-8 7 8 9.6 15.8
-8 7 8 -16 13.9
7 -7 -8 32.6 12.4
-7 7 8 44.4 14.2
-7 7 8 58.99 12.8
6 -7 -8 26.6 9.5
6 -7 -8 84.09 28.7
-6 7 8 57.49 12
-6 7 8 33.2 11.8
5 -7 -8 9.4 7.5
5 -7 -8 0.6 11.2
5 -7 -8 32.9 29.4
-5 7 8 26.1 10.8
-5 7 8 17.6 10.4
4 -7 -8 -4.4 7.5
4 -7 -8 18 22.2
-4 7 8 3.2 9.9
-4 7 8 8.5 9.7
-4 7 8 3.8 7.8
3 -7 -8 -5.3 5.3
3 -7 -8 12.6 22
-3 7 8 -9.4 9.3
-3 7 8 9.7 9.4
-3 7 8 5.8 6.2
2 -7 -8 162.48 32
-2 7 8 122.99 15.4
-2 7 8 169.48 19.5
-2 7 8 169.18 20.1
1 -7 -8 98.99 29.2
-1 7 8 53.49 10.1
-1 7 8 59.19 10.1
-1 7 8 71.29 10.8
0 -7 -8 -1.7 17.2
0 7 8 -2.4 9.2
0 7 8 -4.7 8.3
0 7 8 -5.7 7.9
-1 -7 -8 57.69 11.4
1 7 8 52.99 11.4
1 7 8 33.8 11.1
1 7 8 52.79 9.9
2 7 8 149.59 21.8
2 7 8 85.09 15.5
2 7 8 131.99 17
3 7 8 17.5 10.7
3 7 8 16.1 9
4 7 8 -4.1 12.7
7 -8 -8 65.59 34.9
-7 8 8 -34.4 14.1
-7 8 8 -10.1 14.3
6 -8 -8 121.09 40.2
-6 8 8 72.59 15.5
-6 8 8 86.69 15.3
5 -8 -8 28.6 31.1
-5 8 8 -5.8 12.3
-5 8 8 12.7 12.7
4 -8 -8 23.2 27.4
-4 8 8 18.5 11.3
-4 8 8 2.3 11.3
3 -8 -8 45.2 28.1
-3 8 8 30.6 12
-3 8 8 25.5 11.1
2 -8 -8 6.7 25.6
-2 8 8 11.8 10.6
-2 8 8 -7.2 9.5
-1 8 8 11.1 11.1
-1 8 8 7.2 13.9
0 8 8 119.59 15.4
0 8 8 181.18 21.9
1 8 8 5.6 10.1
1 8 8 -10.2 11.9
2 8 8 27.1 18.3
2 8 8 53.49 13.5
5 -9 -8 27 36.8
-5 9 8 5.5 26.9
-5 9 8 20.5 15.5
4 -9 -8 4.9 34.8
-4 9 8 -9.1 14.7
-4 9 8 -20.5 16.4
3 -9 -8 1.6 34
-3 9 8 11 15.2
-3 9 8 -16.9 13.3
2 -9 -8 24.2 36.7
-2 9 8 -21 12.2
-2 9 8 -12.4 13
-1 9 8 19.4 13.4
-1 9 8 -24.9 13.5
0 9 8 -15.6 12
0 9 8 -3.3 24.7
-1 11 -9 -21.8 13
1 -11 9 28.2 34.3
2 -11 9 49.6 42.4
2 10 -9 -12.1 13.7
2 10 -9 22.8 13
1 10 -9 -6.3 9.8
1 10 -9 0.2 11.4
-1 -10 9 6.1 32.1
0 10 -9 43.9 11.2
0 10 -9 61.59 13.2
-1 10 -9 5 10.2
-1 10 -9 -13.7 10.6
1 -10 9 25.1 31.3
-2 10 -9 -6.4 10.2
-2 10 -9 6.4 11.8
2 -10 9 12.9 30.9
-3 10 -9 14.2 11.5
-3 10 -9 15.3 12.7
3 -10 9 33.2 32
-4 10 -9 1 11.2
-4 10 -9 -17.4 12.3
4 -10 9 22.9 32.9
-5 10 -9 26.4 14
-5 10 -9 19.3 15.4
5 -10 9 73.19 41.9
4 9 -9 -8.9 11.5
4 9 -9 -6.9 12.5
3 9 -9 29 10.5
3 9 -9 60.39 11.5
3 9 -9 57.39 10.2
2 9 -9 11.3 5.9
2 9 -9 -13.5 9
2 9 -9 3.7 9.6
1 9 -9 4.9 9.2
1 9 -9 -2.8 9.1
-1 -9 9 -3.8 21.4
0 9 -9 148.29 20.3
0 9 -9 201.38 30.7
0 9 -9 149.09 18.3
0 -9 9 209.08 32.1
-1 9 -9 1.3 8.9
-1 9 -9 -2.6 9.1
1 -9 9 19.1 24.2
-2 9 -9 286.37 22.1
-2 9 -9 274.27 23
2 -9 9 276.17 37.8
-3 9 -9 59.89 11.1
-3 9 -9 75.19 12.5
3 -9 9 98.69 31
-4 9 -9 26.3 10.6
-4 9 -9 52.59 12.6
4 -9 9 76.39 28.6
-5 9 -9 6.8 11.7
-5 9 -9 22.2 14.1
5 -9 9 6.4 30.6
-6 9 -9 23 13.4
-6 9 -9 37.1 14
6 -9 9 27.7 38.9
-7 9 -9 68.49 26.3
7 -9 9 83.19 61.19
5 8 -9 138.69 19.8
5 8 -9 245.98 23.8
5 8 -9 196.58 25.4
4 8 -9 3.9 7
4 8 -9 22.5 9.9
4 8 -9 6.8 8.5
4 8 -9 -9.4 7.6
3 8 -9 -2.3 6.4
3 8 -9 17.1 8.5
3 8 -9 -2.2 9.1
2 8 -9 73.99 10.5
2 8 -9 92.09 12.2
2 8 -9 93.39 11.4
1 8 -9 11.2 4.7
1 8 -9 5.7 8
1 8 -9 10.3 7.6
1 8 -9 24.6 14.6
-1 -8 9 25.6 18.2
0 8 -9 20.7 8.4
0 8 -9 16.2 7.6
0 -8 9 24.7 19
-1 8 -9 11.2 7.8
-1 8 -9 9.8 7.6
1 -8 9 8.8 17.7
-2 8 -9 256.37 27.1
-2 8 -9 268.37 19.7
2 -8 9 247.28 32
2 -8 9 262.57 22.3
-3 8 -9 15.5 8.5
-3 8 -9 15.9 8.7
-4 8 -9 70.09 11.1
-4 8 -9 68.79 11.4
-5 8 -9 58.79 11.3
-5 8 -9 58.49 11.7
5 -8 9 52.49 29.1
-6 8 -9 27.3 11.6
-6 8 -9 36 12.1
6 -8 9 44.3 33
-7 8 -9 164.78 26.4
-7 8 -9 128.69 14.8
7 -8 9 162.48 51.49
-8 8 -9 33.3 23.6
-8 8 -9 19 17.7
6 7 -9 51.29 11.1
6 7 -9 52.49 10.9
5 7 -9 13.3 8.4
5 7 -9 6.8 8.3
5 7 -9 -4.6 9.9
5 7 -9 -3.3 27
5 7 -9 -11 4.7
4 7 -9 111.49 14.8
4 7 -9 102.99 10.6
4 7 -9 104.69 28.2
4 7 -9 72.19 9.2
3 7 -9 1.8 5.7
3 7 -9 4.2 6.7
3 7 -9 -5.6 6.1
2 7 -9 5.5 5.1
2 7 -9 -5.2 12.3
2 7 -9 10.3 6.1
2 7 -9 4.5 6.6
-2 -7 9 10.6 15
1 7 -9 2.3 7.4
1 7 -9 5.2 6
1 7 -9 -3.1 5.6
-1 -7 9 -3.1 13.4
0 7 -9 -0.7 5.8
0 7 -9 3 5.9
0 -7 9 9.3 14.2
-1 7 -9 0 6.1
-1 7 -9 10.8 7
1 -7 9 2.9 3.7
1 -7 9 -10 15.3
-2 7 -9 348.57 23
-2 7 -9 333.37 17.9
-2 7 -9 368.36 18.5
2 -7 9 352.56 30.2
2 -7 9 341.57 12.8
-3 7 -9 24.5 8
-3 7 -9 21.9 7.3
-3 7 -9 24.4 7.8
3 -7 9 12.8 7.9
3 -7 9 16.9 5.4
3 -7 9 50.99 21.2
-4 7 -9 11.1 9.1
-4 7 -9 2.7 7.2
4 -7 9 19.5 21.9
4 -7 9 -2.9 5.7
-5 7 -9 10.5 9.6
5 -7 9 -0.9 7.9
-6 7 -9 145.99 20.5
6 -7 9 93.59 12.6
-7 7 -9 -0.7 10
-7 7 -9 -5.1 17.6
-8 7 -9 -8.8 13.9
-8 7 -9 48.7 21.1
7 6 -9 -3.1 10.5
7 6 -9 16.1 12.5
7 6 -9 12.6 10.3
6 6 -9 100.49 11.6
6 6 -9 69.39 12.3
5 6 -9 23.7 5.5
5 6 -9 13.7 4
5 6 -9 36.7 22
5 6 -9 16.4 7.3
5 6 -9 8.3 7.5
4 6 -9 7.8 6.5
4 6 -9 11.1 4.1
4 6 -9 12.1 6.5
4 6 -9 28.2 17
3 6 -9 96.49 13.4
3 6 -9 98.69 15.9
3 6 -9 102.79 12.1
3 6 -9 112.89 21
2 6 -9 248.78 13.9
2 6 -9 248.48 14.3
2 6 -9 240.28 19.7
-2 -6 9 250.17 20
1 6 -9 84.99 11.2
1 6 -9 84.39 11.4
-1 -6 9 85.39 16
-1 -6 9 75.49 10.7
0 6 -9 65.89 10.4
0 6 -9 82.09 11.6
0 -6 9 83.49 9.4
0 -6 9 90.99 17.4
0 -6 9 89.09 12
-1 6 -9 176.78 13.6
-1 6 -9 197.28 13.8
1 -6 9 209.28 11.1
1 -6 9 187.38 13.5
1 -6 9 198.08 21.9
-2 6 -9 1.4 5.6
-2 6 -9 0.7 5.2
-2 6 -9 -0.9 5.9
2 -6 9 0 6.2
2 -6 9 2 5.7
2 -6 9 2.8 15.3
-3 6 -9 22.6 7.3
-3 6 -9 23.1 6.4
-3 6 -9 18 6.5
3 -6 9 22.1 5.5
3 -6 9 37.3 18.4
-4 6 -9 10.8 7.4
-4 6 -9 7.1 6.3
-5 6 -9 29.9 7.3
-5 6 -9 31.3 8.9
5 -6 9 21 7.7
-6 6 -9 46.8 8.7
-6 6 -9 59.69 11
6 -6 9 52.39 10.5
-7 6 -9 -8.6 7.8
-7 6 -9 10.8 18
7 -6 9 24.2 10.8
-8 6 -9 36.4 12
-8 6 -9 76.89 24.4
-9 6 -9 58.79 26.8
8 5 -9 4.7 13.7
8 5 -9 -0.8 11.3
7 5 -9 36.4 10
7 5 -9 1.9 10.5
6 5 -9 169.98 21.4
6 5 -9 203.58 27.9
6 5 -9 177.78 18.9
5 5 -9 20.4 7.4
5 5 -9 28.4 7.2
4 5 -9 9.7 12.7
4 5 -9 7.1 5.9
4 5 -9 0 3.7
4 5 -9 -1.7 11.2
4 5 -9 0.1 5.4
4 5 -9 5.1 3
3 5 -9 57.69 6.9
3 5 -9 72.89 7.9
3 5 -9 55.79 7.3
3 5 -9 68.69 16
3 5 -9 91.19 15.1
2 5 -9 138.99 9.9
2 5 -9 148.49 11.7
2 5 -9 155.08 12.8
-2 -5 9 101.99 14
-2 -5 9 141.49 14.6
1 5 -9 100.19 11.9
1 5 -9 96.89 10.6
-1 -5 9 107.99 10.3
-1 -5 9 88.19 14.1
0 5 -9 1227.28 27.6
0 5 -9 1282.57 26.8
0 5 -9 1257.17 27.3
0 -5 9 1218.78 35.3
0 -5 9 1276.67 27.7
0 -5 9 1264.97 26.5
-1 5 -9 371.16 14.7
-1 5 -9 335.47 14.9
1 -5 9 341.17 13.6
1 -5 9 329.57 22.7
1 -5 9 350.06 14.3
-2 5 -9 16.3 5.5
-2 5 -9 22.3 6.4
2 -5 9 22.4 5.4
2 -5 9 21 5.9
-3 5 -9 167.18 13.6
-3 5 -9 173.18 12.4
-3 5 -9 174.98 13.7
3 -5 9 177.48 13.9
-4 5 -9 8.6 6.2
-4 5 -9 15.8 5.6
4 -5 9 9.4 5.9
-5 5 -9 245.28 14.4
-5 5 -9 277.07 17.4
-5 5 -9 248.88 17.5
5 -5 9 245.48 17.3
5 -5 9 280.87 18.4
-6 5 -9 7.4 5.9
-6 5 -9 3.5 7.8
-7 5 -9 -4.2 6.6
-7 5 -9 1.2 17
-8 5 -9 18.5 18.7
-8 5 -9 -8.9 9.2
-9 5 -9 35.5 25.7
8 4 -9 44.1 12.9
7 4 -9 80.69 12.7
7 4 -9 124.19 18.3
6 4 -9 14.5 16.7
6 4 -9 0.5 6.5
5 4 -9 158.78 14.1
5 4 -9 183.08 16.8
5 4 -9 193.68 17.6
4 4 -9 56.99 7.8
4 4 -9 89.29 13.6
4 4 -9 90.19 11.4
4 4 -9 82.99 6.1
4 4 -9 72.39 5.4
3 4 -9 137.99 15.7
3 4 -9 134.69 13.4
3 4 -9 135.59 8
3 4 -9 125.09 11
3 4 -9 158.88 23.7
-3 -4 9 124.39 13.4
2 4 -9 9.1 3.8
2 4 -9 5.8 4.3
2 4 -9 9.6 5
-2 -4 9 7.9 5.5
1 4 -9 461.65 15.2
1 4 -9 463.65 18.7
1 4 -9 461.95 13.5
-1 -4 9 479.65 16
-1 -4 9 441.26 17.5
0 4 -9 1.2 4.4
0 4 -9 0.2 3.9
0 4 -9 0.5 3.8
0 -4 9 1.7 3.9
0 -4 9 -1.1 9.6
0 -4 9 0.3 3.9
-1 4 -9 172.18 11
-1 4 -9 151.88 10.9
1 -4 9 139.69 9.8
1 -4 9 161.08 11.8
-2 4 -9 506.05 16.8
-2 4 -9 526.75 16.7
2 -4 9 534.35 16.6
2 -4 9 520.35 17.6
-3 4 -9 243.88 13.9
-3 4 -9 247.68 13.2
3 -4 9 243.88 13.2
-4 4 -9 286.67 12.9
-4 4 -9 302.27 15.4
4 -4 9 289.87 16.6
4 -4 9 272.37 14.9
-5 4 -9 -2.9 4.4
-5 4 -9 6.7 6.2
5 -4 9 -5 6.1
-6 4 -9 23.8 5.7
-6 4 -9 16.1 29
-6 4 -9 30.6 9.2
-6 4 -9 11.9 8.6
6 -4 9 7.7 8.1
-7 4 -9 366.26 15.2
-7 4 -9 416.96 31
-8 4 -9 36.9 20.2
-9 4 -9 35.2 26.1
9 3 -9 -18.2 13.4
8 3 -9 -0.9 11.2
8 3 -9 0.8 11.7
7 3 -9 17.3 7.6
7 3 -9 57.69 21.2
7 3 -9 30.3 10.6
6 3 -9 22.5 7.9
6 3 -9 31.9 6.8
6 3 -9 55.39 15.2
5 3 -9 27.5 7.5
4 3 -9 25.3 10.3
4 3 -9 35.6 9
4 3 -9 17.8 5.7
-4 -3 9 19.1 6.2
3 3 -9 1705.33 36.8
3 3 -9 1712.53 27.8
3 3 -9 1758.22 40.2
3 3 -9 1707.03 33.8
-3 -3 9 1731.33 37.9
2 3 -9 1661.13 34.6
2 3 -9 1603.84 31.6
-2 -3 9 1722.53 34.7
1 3 -9 10.5 4.1
1 3 -9 12.5 4.7
1 3 -9 10.9 3.4
-1 -3 9 15.4 4.4
0 3 -9 141.79 11.4
0 3 -9 158.08 8.8
0 3 -9 151.78 9.4
0 -3 9 142.29 10.8
0 -3 9 121.49 10.4
-1 3 -9 232.58 11
-1 3 -9 249.48 11
1 -3 9 246.18 13.1
-2 3 -9 356.36 13.5
-2 3 -9 345.97 13.3
2 -3 9 357.26 13.4
2 -3 9 366.06 15.9
-3 3 -9 18.9 4.7
-3 3 -9 34.3 6.4
3 -3 9 30.2 5.7
3 -3 9 21.8 5.9
-4 3 -9 22.4 4.6
-4 3 -9 33 6.7
-4 3 -9 27 6.7
4 -3 9 20.5 5.9
-5 3 -9 4.5 4.2
-5 3 -9 17 6.3
-5 3 -9 -2.1 6.1
5 -3 9 8.3 6.6
-6 3 -9 -12.2 7.5
-6 3 -9 0.5 15.4
-6 3 -9 -3.1 6.8
6 -3 9 -6 10.4
-7 3 -9 15.5 15.8
-7 3 -9 4.4 4.5
-8 3 -9 232.98 31.2
-9 3 -9 24.8 23.7
9 2 -9 17.2 13.4
8 2 -9 -5.4 9.4
8 2 -9 19.1 20.9
8 2 -9 7.1 10.1
7 2 -9 309.97 21.8
7 2 -9 296.37 16.7
7 2 -9 328.87 23.9
6 2 -9 55.79 13.5
6 2 -9 44.3 6.9
6 2 -9 78.39 18.9
6 2 -9 45.7 8.7
5 2 -9 328.37 13.8
5 2 -9 318.87 18.7
5 2 -9 305.27 20
5 2 -9 316.97 14.6
4 2 -9 102.69 13.6
4 2 -9 99.79 13.8
-4 -2 9 86.09 13.4
3 2 -9 487.45 18.5
3 2 -9 489.55 19.6
3 2 -9 490.05 10
-3 -2 9 495.65 18
2 2 -9 31.8 5.3
2 2 -9 46.8 5.4
-2 -2 9 33.6 5.2
1 2 -9 4141.59 66.19
1 2 -9 4162.38 69.49
1 2 -9 4249.77 64.39
-1 -2 9 4155.88 64.39
-1 -2 9 4305.67 69.19
0 2 -9 199.08 8.9
0 2 -9 191.98 12.2
0 -2 9 186.38 9.1
0 -2 9 202.18 9.1
0 -2 9 202.88 12.2
-1 2 -9 102.19 8.1
-1 2 -9 101.99 8.4
1 -2 9 105.69 8.8
1 -2 9 97.99 7.7
1 -2 9 108.59 11
-2 2 -9 773.32 18.6
-2 2 -9 800.12 19.5
2 -2 9 791.12 18.4
2 -2 9 808.02 23
2 -2 9 776.02 19.6
-3 2 -9 403.16 14.7
-3 2 -9 406.16 14.5
3 -2 9 412.56 14.4
3 -2 9 407.76 18.1
3 -2 9 401.36 15.5
-4 2 -9 1137.79 26
-4 2 -9 1164.08 26.9
4 -2 9 1170.08 25.9
4 -2 9 1136.09 27.3
-5 2 -9 532.05 26.6
-5 2 -9 547.75 13.6
-5 2 -9 537.45 18.3
-5 2 -9 542.75 19.6
5 -2 9 557.34 20.4
-6 2 -9 114.39 7
-6 2 -9 127.69 18.5
-6 2 -9 130.89 27.7
6 -2 9 114.79 13.9
-7 2 -9 72.29 17.3
7 -2 9 49.1 10.1
-8 2 -9 29.7 22
-9 2 -9 15.9 25.1
9 1 -9 -7.9 11.9
8 1 -9 -1.4 9.2
8 1 -9 -1.9 8.5
7 1 -9 61.49 16.6
7 1 -9 27.3 8.9
7 1 -9 17.9 7.2
6 1 -9 245.08 27.9
6 1 -9 236.38 14
6 1 -9 262.17 19.2
5 1 -9 132.79 15.9
5 1 -9 140.29 11.6
5 1 -9 137.59 15.5
4 1 -9 100.59 10.2
4 1 -9 103.79 13.4
4 1 -9 123.19 13.4
-4 -1 9 95.99 12.6
3 1 -9 319.67 15.7
3 1 -9 301.17 14.6
3 1 -9 336.47 8.1
-3 -1 9 335.97 8.5
-3 -1 9 338.77 15.3
2 1 -9 722.83 17.2
2 1 -9 724.33 20.9
-2 -1 9 721.13 14.9
-2 -1 9 726.93 20.3
1 1 -9 395.06 10.9
1 1 -9 391.86 15.8
1 1 -9 386.46 11.6
-1 -1 9 405.06 15.1
-1 -1 9 385.46 11.2
0 1 -9 206.38 12.8
0 1 -9 205.38 8.5
0 1 -9 206.68 9
0 -1 9 223.98 12.3
0 -1 9 201.88 9.4
-1 1 -9 288.87 10.1
-1 1 -9 285.87 11.2
1 -1 9 282.27 9.7
1 -1 9 281.47 11.5
1 -1 9 292.37 14.5
-2 1 -9 335.37 12.8
-2 1 -9 356.56 11.8
2 -1 9 351.16 11.3
2 -1 9 363.66 13.5
2 -1 9 327.17 16.4
-3 1 -9 479.85 15.7
-3 1 -9 441.46 14.2
3 -1 9 470.45 19.3
3 -1 9 455.15 14
3 -1 9 450.15 16.2
-4 1 -9 230.88 13.4
-4 1 -9 215.78 12.1
4 -1 9 243.98 12.4
4 -1 9 233.48 14.3
-5 1 -9 62.59 6
-5 1 -9 62.19 14.6
-5 1 -9 64.19 5.9
-5 1 -9 48.8 8
5 -1 9 46.7 6.9
5 -1 9 56.39 8.3
-6 1 -9 134.79 30.2
-6 1 -9 143.09 15.1
6 -1 9 146.39 15
6 -1 9 137.19 14.5
-7 1 -9 31 17.3
7 -1 9 5.7 8.9
7 -1 9 20.5 8.2
-8 1 -9 238.28 31.6
-9 1 -9 125.19 30.5
10 0 -9 -10.9 15.8
9 0 -9 -3.6 11.5
9 0 -9 -17 11.5
8 0 -9 78.49 12.4
8 0 -9 57.19 9.4
7 0 -9 105.49 13.4
7 0 -9 144.79 24.4
6 0 -9 211.88 21.7
6 0 -9 201.18 18.1
6 0 -9 182.48 13.3
5 0 -9 85.19 14.3
5 0 -9 93.59 13.4
5 0 -9 73.09 10.6
5 0 -9 86.89 13.8
4 0 -9 26.4 5.7
4 0 -9 17.4 5.5
-4 0 9 18.3 5.3
3 0 -9 258.77 13.7
3 0 -9 242.48 14.3
3 0 -9 231.18 11.8
-3 0 9 255.97 13.6
-3 0 9 248.18 8.1
2 0 -9 2278.77 43.8
2 0 -9 2335.47 37.8
2 0 -9 2417.36 41.1
-2 0 9 2266.27 37.8
-2 0 9 2350.16 43.6
1 0 -9 99.39 11.2
1 0 -9 101.79 8.4
1 0 -9 105.69 6.8
1 0 -9 102.09 6.7
-1 0 9 99.79 8.6
-1 0 9 109.59 10.9
-1 0 9 104.19 7.4
0 0 -9 726.93 20.9
0 0 -9 723.13 16.8
0 0 -9 720.63 15.2
0 0 -9 729.53 17
0 0 9 752.52 20.7
0 0 9 703.93 17.1
-1 0 -9 23.7 4.1
-1 0 -9 17.5 3.9
-1 0 -9 28 3.8
1 0 9 20.9 4.2
1 0 9 21.9 5.8
1 0 9 24.9 3.5
-2 0 -9 714.13 15.9
-2 0 -9 709.13 18.3
-2 0 -9 724.43 16.1
2 0 9 697.53 18.9
2 0 9 725.93 22.3
2 0 9 694.43 15.4
-3 0 -9 37.5 5.4
-3 0 -9 49.2 6.7
-3 0 -9 39.1 5
3 0 9 37.1 4.7
3 0 9 41.4 6.3
-4 0 -9 7.9 10.5
-4 0 -9 -0.4 5.4
-4 0 -9 4.9 3
4 0 9 6 5.8
4 0 9 6.7 4.6
-5 0 -9 62.49 15.1
5 0 9 35.2 6.1
5 0 9 37.2 7.3
-6 0 -9 31.7 15.1
-6 0 -9 18.8 6.1
6 0 9 19.1 7.1
6 0 9 10.7 7.4
-7 0 -9 149.49 26.7
7 0 9 149.19 18.2
7 0 9 124.59 13.9
-8 0 -9 29.1 21.2
8 0 9 -4.9 9.4
10 -1 -9 -0.8 16
9 -1 -9 25.6 12.8
9 -1 -9 -12.2 10.8
8 -1 -9 34.5 9
8 -1 -9 46.8 11.5
7 -1 -9 552.24 27.1
7 -1 -9 524.45 20.7
6 -1 -9 0.8 5.9
6 -1 -9 4 11.8
6 -1 -9 13 10.1
5 -1 -9 44.5 12
5 -1 -9 28.3 6.7
5 -1 -9 40.1 10.3
5 -1 -9 35.6 6.4
-5 1 9 28 7.2
-5 1 9 39.3 5.7
4 -1 -9 13.4 5.9
4 -1 -9 9 5.1
4 -1 -9 15.6 8.4
4 -1 -9 12.3 7.2
-4 1 9 8.4 5
-4 1 9 17.3 3.4
3 -1 -9 114.49 10.3
3 -1 -9 120.59 9.9
3 -1 -9 127.69 12.7
3 -1 -9 122.79 10.2
-3 1 9 122.59 7.4
-3 1 9 118.79 11.8
2 -1 -9 258.97 9.6
2 -1 -9 271.07 14.9
-2 1 9 264.87 14
-2 1 9 271.07 9.9
-2 1 9 271.57 14
1 -1 -9 508.75 18
1 -1 -9 534.35 15.3
1 -1 -9 526.25 12.3
1 -1 -9 512.85 13.9
-1 1 9 514.35 19.9
-1 1 9 516.25 14.1
-1 1 9 528.25 17.6
0 -1 -9 134.99 6.2
0 -1 -9 123.59 8.8
0 -1 -9 137.29 8.9
0 1 9 138.59 9.4
0 1 9 136.99 12
0 1 9 125.79 13
-1 -1 -9 252.57 10.2
-1 -1 -9 245.88 8
-1 -1 -9 237.78 10.9
1 1 9 240.58 11.9
1 1 9 242.68 14.9
1 1 9 239.88 17.3
-2 -1 -9 127.59 8.2
-2 -1 -9 115.49 7
-2 -1 -9 109.39 9.7
2 1 9 131.09 11.1
2 1 9 121.99 7.6
2 1 9 109.39 13.7
-3 -1 -9 345.07 19.5
-3 -1 -9 362.66 14.8
-3 -1 -9 358.96 10.7
3 1 9 351.86 15.6
3 1 9 356.96 10.6
-4 -1 -9 478.55 10.6
-4 -1 -9 507.45 23.8
-4 -1 -9 479.25 18.4
4 1 9 478.95 13.6
4 1 9 466.05 19.3
-5 -1 -9 94.89 16.9
5 1 9 61.19 8.8
5 1 9 59.89 8.3
-6 -1 -9 23.7 15.8
-6 -1 -9 -16.2 8.7
6 1 9 16.2 6.8
-7 -1 -9 40.7 19
7 1 9 10.5 9.8
7 1 9 -20.1 9.3
-8 -1 -9 180.48 30.2
8 1 9 104.89 13.5
10 -2 -9 -7.4 14.2
9 -2 -9 -22.4 24.6
9 -2 -9 -17.8 10.4
8 -2 -9 26.9 18.6
8 -2 -9 12.1 9.7
8 -2 -9 3.4 19.6
8 -2 -9 8.9 10.6
7 -2 -9 273.27 25.8
7 -2 -9 266.27 17
7 -2 -9 254.97 21.8
7 -2 -9 264.37 22.3
-7 2 9 241.18 8.8
6 -2 -9 132.29 19.7
6 -2 -9 133.09 13.9
6 -2 -9 144.89 16.3
6 -2 -9 139.29 17
-6 2 9 138.49 7.8
5 -2 -9 -2.6 5.7
5 -2 -9 2.8 5.2
5 -2 -9 2.1 10.9
5 -2 -9 -1.7 8.3
-5 2 9 8.4 5.9
-5 2 9 -3.7 3.1
4 -2 -9 111.29 14.5
4 -2 -9 105.99 10.6
4 -2 -9 106.19 10.9
4 -2 -9 114.39 14.7
-4 2 9 125.09 8.4
-4 2 9 94.19 11.7
-4 2 9 116.39 12.8
3 -2 -9 790.22 25.1
3 -2 -9 802.32 20.7
3 -2 -9 828.22 23.9
3 -2 -9 826.52 20
-3 2 9 780.12 21.2
-3 2 9 813.52 18.4
-3 2 9 804.92 22.6
2 -2 -9 105.69 14.2
2 -2 -9 127.29 13.5
-2 2 9 124.39 9.1
-2 2 9 108.69 15.6
-2 2 9 99.69 10.3
-2 2 9 117.29 14.6
1 -2 -9 610.84 13.4
1 -2 -9 546.25 18.9
1 -2 -9 592.64 19.8
-1 2 9 577.64 16.2
-1 2 9 609.44 24.3
-1 2 9 585.04 16.9
-1 2 9 599.14 19.8
0 -2 -9 100.39 9.2
0 -2 -9 110.49 8.8
0 2 9 93.39 16.2
0 2 9 84.29 15.3
0 2 9 88.59 9.3
0 2 9 106.79 9.7
-1 -2 -9 6.2 4
-1 -2 -9 4.4 4.3
1 2 9 14.8 5.3
1 2 9 3.7 5.4
1 2 9 7.8 11.8
-2 -2 -9 70.89 7.8
-2 -2 -9 45.8 6.3
2 2 9 55.89 7.3
2 2 9 40.1 7.1
-3 -2 -9 3.7 3.5
-3 -2 -9 0.4 5.5
-3 -2 -9 12.6 9.6
3 2 9 2.5 6.3
3 2 9 -5.4 13.8
3 2 9 6 2.7
3 2 9 7 5.3
-4 -2 -9 4.7 2.9
-4 -2 -9 8.5 10.5
4 2 9 5.3 18.6
4 2 9 -2.5 3.5
4 2 9 -2.6 5.8
-5 -2 -9 304.77 17.5
-5 -2 -9 384.76 24.9
5 2 9 410.06 19.6
5 2 9 369.36 13.4
-6 -2 -9 131.99 22.3
6 2 9 89.19 11.4
6 2 9 77.59 9.2
-7 -2 -9 20.8 20.6
7 2 9 -3.8 9.6
-8 -2 -9 20.1 25.9
8 2 9 7.3 11.7
10 -3 -9 1.1 16.1
10 -3 -9 43.3 40.4
9 -3 -9 17 14.2
9 -3 -9 49.5 27.9
8 -3 -9 15.1 11
8 -3 -9 36.4 40
-8 3 9 3.3 5.6
-8 3 9 16.1 5.7
7 -3 -9 26.1 9
7 -3 -9 52.59 18.8
7 -3 -9 17.5 9.1
7 -3 -9 43.8 14.5
-7 3 9 18.8 5
6 -3 -9 -2.5 6.7
6 -3 -9 4.7 6.9
6 -3 -9 6.8 13.9
-6 3 9 3.6 6.5
-6 3 9 3.8 4.5
5 -3 -9 144.99 12
5 -3 -9 144.09 18.6
5 -3 -9 124.29 13.3
5 -3 -9 151.48 16
-5 3 9 148.49 10
-5 3 9 160.28 23.6
-5 3 9 138.49 14
4 -3 -9 6.3 11.9
4 -3 -9 14.5 5.3
4 -3 -9 11.9 7
4 -3 -9 8.2 6
-4 3 9 5.9 4.2
-4 3 9 2.3 5.6
-4 3 9 9.1 5
3 -3 -9 54.69 7.4
3 -3 -9 65.89 14.8
3 -3 -9 83.59 10.9
3 -3 -9 59.59 7.1
-3 3 9 67.59 11
-3 3 9 44.9 6.8
-3 3 9 83.99 9.3
2 -3 -9 37.4 6.7
2 -3 -9 41.5 6.1
2 -3 -9 51.99 13.1
-2 3 9 32.2 5.9
-2 3 9 37.8 5.6
-2 3 9 34.9 7.4
-2 3 9 64.49 17
1 -3 -9 256.37 12.6
1 -3 -9 266.57 7.5
-1 3 9 234.48 17.6
-1 3 9 255.77 13.2
-1 3 9 252.67 12.6
0 -3 -9 411.96 15.8
0 -3 -9 379.46 14.3
0 -3 -9 365.36 14
0 3 9 380.16 14.5
0 3 9 394.56 15.3
0 3 9 377.16 24.9
0 3 9 374.16 17.4
-1 -3 -9 194.18 13.3
-1 -3 -9 207.08 15.3
1 3 9 188.48 11.3
1 3 9 205.88 22
1 3 9 183.28 12.7
1 3 9 220.78 15.8
-2 -3 -9 -4.8 7.5
-2 -3 -9 4 5.6
-2 -3 -9 -7.4 3.9
2 3 9 -3.5 5.1
2 3 9 -0.9 6.2
2 3 9 0.3 14.6
-3 -3 -9 588.44 23.7
-3 -3 -9 603.24 15.3
3 3 9 590.44 21.4
3 3 9 604.64 24.9
-4 -3 -9 27.6 12.1
-4 -3 -9 9.2 7.9
-4 -3 -9 11.6 3.9
4 3 9 4.5 6.6
4 3 9 21.2 34.6
5 3 9 2.3 8.1
-6 -3 -9 73.29 20.7
6 3 9 51.09 10.8
-7 -3 -9 45.8 26
7 3 9 2.6 11.1
9 -4 -9 21.5 29.1
9 -4 -9 -7.9 12.8
8 -4 -9 38.4 12.9
8 -4 -9 89.39 25.7
-8 4 9 39.4 11.1
-8 4 9 38.6 8.3
7 -4 -9 18.4 17.8
7 -4 -9 5.3 8.4
-7 4 9 4 8.6
-7 4 9 11.8 6.2
6 -4 -9 310.47 20.6
6 -4 -9 335.97 28.8
6 -4 -9 284.97 19.2
-6 4 9 316.07 14.9
-6 4 9 331.57 21
5 -4 -9 267.87 14.8
5 -4 -9 253.67 24.1
5 -4 -9 242.08 16.9
5 -4 -9 254.87 17.7
-5 4 9 255.57 13.9
-5 4 9 252.17 17.2
-5 4 9 225.28 17.1
4 -4 -9 -1.3 12.6
4 -4 -9 4.7 6
4 -4 -9 -1.2 4.9
-4 4 9 2.2 6.3
-4 4 9 4.9 5.2
-4 4 9 0.5 4.9
3 -4 -9 941.91 35.3
3 -4 -9 942.81 20.2
3 -4 -9 938.81 26.3
-3 4 9 955.7 25.9
-3 4 9 936.71 24.8
-3 4 9 977.6 24
2 -4 -9 7.3 5.9
2 -4 -9 11.1 5.9
2 -4 -9 14.1 12.6
-2 4 9 15.6 5.4
-2 4 9 9.1 6
-2 4 9 5.3 5.5
-2 4 9 27.8 17
1 -4 -9 139.79 12.3
-1 4 9 158.48 22.7
-1 4 9 135.49 12.2
-1 4 9 138.09 13.8
-1 4 9 144.89 12.8
0 -4 -9 195.78 10.3
0 -4 -9 181.88 12.2
0 4 9 201.78 14
0 4 9 208.18 12.9
0 4 9 215.08 25.4
0 4 9 175.88 15.1
-1 -4 -9 1070.09 25.8
-1 -4 -9 1059.19 24.7
1 4 9 1095.29 43.8
1 4 9 1089.39 25.1
1 4 9 1058.99 27.5
1 4 9 1098.89 30.1
-2 -4 -9 33.2 6.1
-2 -4 -9 54.89 10.4
2 4 9 100.89 38.6
2 4 9 40.8 7.4
2 4 9 35.7 8.2
2 4 9 46.5 5.9
-3 -4 -9 153.28 12.2
-3 -4 -9 149.19 16.8
3 4 9 183.88 36.9
3 4 9 160.28 20
-4 -4 -9 82.89 15.9
4 4 9 69.29 10.6
-5 -4 -9 20.2 16.5
5 4 9 2.4 9.2
6 4 9 132.99 14.6
9 -5 -9 211.98 44.3
8 -5 -9 73.89 26.7
8 -5 -9 19.8 12.1
-8 5 9 44.1 12.6
-8 5 9 38 10.6
7 -5 -9 -4 8.5
7 -5 -9 20.6 21.7
-7 5 9 -7.7 7.1
-7 5 9 -3.7 9.5
6 -5 -9 35 19.5
6 -5 -9 24.8 8.3
-6 5 9 32.1 8
-6 5 9 29.2 9.7
5 -5 -9 60.29 19.9
5 -5 -9 48.4 7.8
5 -5 -9 40.1 8
-5 5 9 43.5 7.8
-5 5 9 36.4 7.8
-5 5 9 48.5 9.4
4 -5 -9 248.38 18.6
4 -5 -9 320.57 18.4
4 -5 -9 322.87 29
-4 5 9 330.67 19.3
-4 5 9 321.37 17.2
-4 5 9 322.47 16.9
3 -5 -9 7.7 14.8
3 -5 -9 9.6 8.5
3 -5 -9 4.3 5.8
3 -5 -9 8.5 5.2
-3 5 9 -3.2 5
-3 5 9 0.7 6.3
-3 5 9 5.2 6.8
2 -5 -9 194.48 24.7
2 -5 -9 190.58 7.5
-2 5 9 182.48 13.7
-2 5 9 207.28 15.4
-2 5 9 172.18 28.2
-2 5 9 208.48 14.5
1 -5 -9 54.79 8.1
-1 5 9 90.59 22.7
-1 5 9 55.79 7.7
-1 5 9 60.59 8.6
-1 5 9 49.4 7.2
0 -5 -9 7.5 5.4
0 -5 -9 -2 5.8
0 5 9 1.1 6.2
0 5 9 -1.8 5.5
0 5 9 -6.2 5.8
-1 -5 -9 49.6 7.8
-1 -5 -9 54.59 8.7
1 5 9 61.59 23
1 5 9 38 11.4
1 5 9 37.4 6.8
1 5 9 37.4 8
-2 -5 -9 11.4 9.1
-2 -5 -9 1.6 7.1
2 5 9 5.3 7.8
2 5 9 7.9 5.5
2 5 9 15 7.5
-3 -5 -9 25.3 7.9
-3 -5 -9 36.2 12.6
3 5 9 20.1 10.4
3 5 9 16.9 8.9
-4 -5 -9 121.29 22.8
4 5 9 146.29 20.1
-5 -5 -9 90.19 23.1
5 5 9 40.8 11.9
-6 -5 -9 61.99 43
6 5 9 44 14.4
9 -6 -9 53.49 36.2
-9 6 9 22.1 15.1
8 -6 -9 44 28.8
8 -6 -9 -15.5 13.2
-8 6 9 10.1 12.6
-8 6 9 2.2 13.1
7 -6 -9 -7.6 9.9
7 -6 -9 23.2 26.8
-7 6 9 5 11.1
-7 6 9 10.1 10.1
6 -6 -9 343.47 38.4
6 -6 -9 303.07 22.5
6 -6 -9 310.97 22.7
-6 6 9 322.47 24.9
-6 6 9 338.97 24.9
5 -6 -9 41.5 8.4
5 -6 -9 37.6 9.4
5 -6 -9 77.29 24.9
-5 6 9 46 8.7
-5 6 9 44.8 10.7
4 -6 -9 72.39 8.7
4 -6 -9 93.09 23.4
4 -6 -9 63.99 8.2
-4 6 9 89.69 15
-4 6 9 76.89 10.7
3 -6 -9 223.48 29.2
3 -6 -9 193.88 10.9
-3 6 9 222.18 16.1
-3 6 9 248.28 19
2 -6 -9 13.5 8.6
2 -6 -9 35.6 20.2
-2 6 9 24 8.2
-2 6 9 29.7 10.6
-2 6 9 10.5 19
-2 6 9 24.1 6.5
1 -6 -9 2.2 6.3
-1 6 9 -5.6 6.3
-1 6 9 4.9 7.4
-1 6 9 2.8 7
-1 6 9 -1 20.8
0 -6 -9 46.3 9.2
0 6 9 24.6 8
0 6 9 26.7 7.6
0 6 9 24.4 8.8
1 6 9 69.79 8.7
1 6 9 72.39 11.1
-2 -6 -9 68.59 13.3
-2 -6 -9 60.59 11.4
2 6 9 36.3 12.6
2 6 9 51.09 8.3
2 6 9 45.6 10
-3 -6 -9 15.1 15.5
3 6 9 11.1 6.9
3 6 9 -6.7 9.5
4 6 9 -9.7 10.9
-5 -6 -9 13.3 28.2
5 6 9 -15.5 13.3
8 -7 -9 72.79 53.29
-8 7 9 15.4 17.1
-8 7 9 24.2 15.9
7 -7 -9 50.69 30.1
7 -7 -9 9.7 12.6
-7 7 9 4 12.9
-7 7 9 13.6 13.6
6 -7 -9 -12.4 25.6
6 -7 -9 4.2 10.3
-6 7 9 6.2 11.1
-6 7 9 -3.6 11.2
5 -7 -9 6.1 9.9
5 -7 -9 51.29 28.5
-5 7 9 24.4 11.1
-5 7 9 23 10.6
4 -7 -9 4.6 8.8
4 -7 -9 34.1 26.8
-4 7 9 5.7 9.2
-4 7 9 7.6 8.2
-4 7 9 7.5 9.6
3 -7 -9 18 25.4
-3 7 9 36.9 10.3
-3 7 9 16.8 8
-3 7 9 35.2 10.4
2 -7 -9 19.5 24.7
-2 7 9 2.7 9.1
-2 7 9 2.2 7.3
-2 7 9 -0.7 8.2
-1 7 9 0.5 8.8
-1 7 9 20.3 9.7
-1 7 9 18.1 9.6
0 7 9 74.79 11.7
0 7 9 32.9 10.9
0 7 9 46.8 9.5
1 7 9 33.5 11.4
1 7 9 44.9 12.2
1 7 9 54.19 10
2 7 9 104.89 13.5
2 7 9 102.69 16.7
3 7 9 3.1 13.3
3 7 9 -3.7 18.7
-6 8 9 18.8 14.3
-6 8 9 -1.8 14.6
5 -8 -9 20.9 29.8
-5 8 9 16.7 13.3
-5 8 9 2 12.8
4 -8 -9 15.7 29.2
-4 8 9 23.8 12.2
-4 8 9 -10 12.8
3 -8 -9 153.98 36.9
-3 8 9 120.59 15.4
-3 8 9 146.49 19.3
2 -8 -9 -23.7 30
-2 8 9 8.2 11.2
-2 8 9 2.7 15.2
-1 8 9 1.8 10
-1 8 9 -22.2 10.7
0 8 9 -20.8 12
0 8 9 0.4 10.1
1 8 9 41 19.4
1 8 9 7.8 14
2 8 9 6.7 11
2 8 9 2.1 15.7
4 -9 -9 53.49 38
-4 9 9 -22 17.6
-4 9 9 -5.9 16.3
3 -9 -9 115.09 42.3
-3 9 9 7.3 14.8
-3 9 9 2.8 14.7
-2 9 9 40.7 15.1
-2 9 9 -39.1 21.4
-1 9 9 -25.1 13
2 10 -10 6.3 11.8
2 10 -10 2.4 13.6
1 10 -10 21.4 13.3
1 10 -10 -6.9 10.8
-1 -10 10 28.6 34.9
0 10 -10 24.1 12.2
0 10 -10 49.9 13.8
0 -10 10 78.59 32.2
-1 10 -10 0.4 10.7
-1 10 -10 3.7 11.2
1 -10 10 53.69 39.5
-2 10 -10 4.3 12.2
-2 10 -10 -18.7 10.8
2 -10 10 43 31.4
-3 10 -10 14 11.6
-3 10 -10 26.2 14
3 -10 10 36.9 32.5
-4 10 -10 18.8 12.5
-4 10 -10 31.3 14.5
4 -10 10 48.9 38.2
-5 10 -10 29.7 14.6
5 -10 10 75.19 47.2
4 9 -10 50.29 13.5
4 9 -10 70.39 13.1
3 9 -10 96.59 13.5
3 9 -10 64.29 11.8
3 9 -10 96.19 11.4
2 9 -10 17.7 9.9
2 9 -10 28.2 11.4
2 9 -10 10 6.2
1 9 -10 5.9 9.9
1 9 -10 3.3 8.9
-1 -9 10 1.1 26
0 9 -10 87.19 13.1
0 9 -10 78.39 10.9
0 -9 10 137.39 31
-1 9 -10 21.3 9.8
-1 9 -10 25.9 10.3
1 -9 10 34.2 26.2
-2 9 -10 68.89 12.9
-2 9 -10 81.89 11.8
2 -9 10 104.09 30.2
-3 9 -10 -2.2 9.7
-3 9 -10 16.3 10.3
3 -9 10 9.6 25.7
-4 9 -10 51.59 13.2
-4 9 -10 76.59 13.4
4 -9 10 107.89 32.5
-5 9 -10 -1.8 11.5
-5 9 -10 -3.5 16.8
5 -9 10 3.9 32.8
-6 9 -10 34.5 14.1
-6 9 -10 47.8 15
5 8 -10 118.09 13.8
5 8 -10 187.68 23.6
5 8 -10 98.89 14.7
4 8 -10 41.9 7.8
4 8 -10 36.3 9.5
4 8 -10 28.9 9.5
4 8 -10 47.8 10.7
3 8 -10 33.1 10.2
3 8 -10 47.4 10.4
3 8 -10 28.6 7.8
2 8 -10 55.09 9.5
2 8 -10 52.69 9.2
2 8 -10 72.39 11.8
1 8 -10 -4.9 15.8
1 8 -10 1.7 9.3
1 8 -10 -4.3 8.4
1 8 -10 -4.9 7.2
-1 -8 10 7.6 17.2
0 8 -10 50.19 10.1
0 8 -10 56.69 11.2
0 -8 10 82.69 22
-1 8 -10 36.3 9.6
-1 8 -10 30 8.3
1 -8 10 74.49 22.5
-2 8 -10 440.86 23.9
-2 8 -10 447.96 22
2 -8 10 431.56 13.3
2 -8 10 464.55 35.7
-3 8 -10 18.5 9.8
-3 8 -10 6.5 9.2
3 -8 10 20.9 40.2
-4 8 -10 22.7 9.7
-4 8 -10 28.3 9.8
4 -8 10 31.9 27.2
-5 8 -10 34.8 11.2
-5 8 -10 22.1 10.5
5 -8 10 7.5 28.6
-6 8 -10 77.79 13.5
-6 8 -10 66.99 13.5
6 -8 10 53.49 33.5
-7 8 -10 -8.4 22.3
-7 8 -10 12.9 13.8
-7 8 -10 -35.7 19.2
6 7 -10 -2.9 9.6
6 7 -10 13.3 11.3
6 7 -10 -16.8 10.2
5 7 -10 53.99 10.1
5 7 -10 55.59 10.3
5 7 -10 53.39 6.4
5 7 -10 49.8 10.1
4 7 -10 25.4 8
4 7 -10 37.3 9.5
4 7 -10 34.2 8.2
4 7 -10 25.3 7.6
3 7 -10 -7 6.8
3 7 -10 2.7 6.1
2 7 -10 15 17
2 7 -10 6.7 6.2
-2 -7 10 10.5 14.1
1 7 -10 35.2 7.4
1 7 -10 37.4 6.2
-1 -7 10 58.79 17
0 7 -10 22.1 7
0 7 -10 14.1 6.8
0 -7 10 24.6 15.5
0 -7 10 21 5.4
-1 7 -10 2.7 6.5
-1 7 -10 10.8 6.7
-1 7 -10 8.5 7.1
1 -7 10 6.3 4.7
1 -7 10 9.8 7.5
1 -7 10 8.1 15.6
-2 7 -10 95.59 10.7
-2 7 -10 106.79 14.9
-2 7 -10 124.89 15.4
2 -7 10 84.29 9.9
2 -7 10 106.49 24.9
2 -7 10 82.59 11
-3 7 -10 144.09 16.2
-3 7 -10 104.69 11.9
3 -7 10 135.19 28.3
3 -7 10 115.79 13.3
3 -7 10 121.39 16.6
-4 7 -10 25.9 9.1
4 -7 10 29.3 27
-5 7 -10 -6.6 8.6
-5 7 -10 3.9 8.4
5 -7 10 4 8.5
-6 7 -10 13.8 10.8
-6 7 -10 13.1 9.7
6 -7 10 10.7 10.7
-7 7 -10 33.6 13.1
-7 7 -10 7.4 23.5
-8 7 -10 89.69 17.1
-8 7 -10 134.99 27.5
7 6 -10 16.7 11.9
7 6 -10 23.2 12
6 6 -10 69.79 11.8
6 6 -10 84.29 10.9
5 6 -10 146.49 28.5
5 6 -10 105.69 13.7
5 6 -10 117.89 12.5
4 6 -10 91.09 15.3
4 6 -10 91.49 8.3
4 6 -10 87.89 21.1
4 6 -10 94.39 10.7
3 6 -10 124.09 14.5
3 6 -10 130.89 21.3
3 6 -10 113.29 13.5
2 6 -10 25.5 6.7
2 6 -10 22.8 5.5
2 6 -10 19.1 5.8
-2 -6 10 21.4 6.3
-2 -6 10 19.8 12.5
1 6 -10 459.95 17.8
1 6 -10 456.65 16.3
1 6 -10 463.15 17.8
-1 -6 10 470.95 17.7
-1 -6 10 436.96 23.5
0 6 -10 0.3 5.7
0 6 -10 -3.8 4.5
0 -6 10 -0.6 11.7
0 -6 10 0.4 5.5
0 -6 10 -5.1 4.3
-1 6 -10 1287.47 29.5
-1 6 -10 1216.58 29.3
1 -6 10 1213.28 26.8
1 -6 10 1240.08 29.3
1 -6 10 1224.78 40.6
-2 6 -10 8.3 5.8
-2 6 -10 16.5 6.7
-2 6 -10 17.6 6.5
2 -6 10 15.7 5.2
2 -6 10 26.2 15.6
-3 6 -10 72.79 8.6
-3 6 -10 55.39 8.2
-3 6 -10 49 7.9
3 -6 10 78.09 12.9
-4 6 -10 233.88 15.7
-4 6 -10 231.48 17.1
4 -6 10 183.38 16.9
-5 6 -10 1.6 6.8
-5 6 -10 18 8.4
5 -6 10 -0.8 8
-6 6 -10 15.6 9.4
-6 6 -10 13.6 8
-7 6 -10 -6.7 9
-7 6 -10 -5.6 19.6
-8 6 -10 15.4 19.7
-8 6 -10 2.5 12.1
8 5 -10 144.49 18.6
8 5 -10 213.58 26.7
7 5 -10 25.2 10.6
7 5 -10 3.9 9.9
6 5 -10 178.68 28.5
6 5 -10 169.98 19
6 5 -10 148.39 22.1
5 5 -10 134.99 18.5
5 5 -10 153.88 20.6
5 5 -10 114.59 15.8
4 5 -10 3.2 12.5
4 5 -10 4.3 3.7
4 5 -10 1.5 5.7
4 5 -10 2.4 5.9
4 5 -10 -3 12.4
3 5 -10 19.8 6.1
3 5 -10 21.2 4.5
3 5 -10 18.8 5.8
3 5 -10 29.3 12.1
-3 -5 10 22.2 6.8
2 5 -10 335.07 16.6
2 5 -10 343.87 15.2
2 5 -10 341.77 12.9
-2 -5 10 338.67 17.9
-2 -5 10 335.87 16.2
1 5 -10 285.27 14.1
1 5 -10 274.97 14.5
1 5 -10 292.67 15.7
-1 -5 10 297.07 14.6
-1 -5 10 284.57 17.6
0 5 -10 16.4 5.5
0 5 -10 20.4 5.4
0 5 -10 19.7 6
0 -5 10 16.3 5.1
0 -5 10 28.9 12.5
0 -5 10 17.5 5.6
-1 5 -10 12.6 5.7
-1 5 -10 13.3 6
1 -5 10 10.7 13
1 -5 10 7.9 5.5
1 -5 10 10.9 5
-2 5 -10 -1.2 5.8
-2 5 -10 0.8 5.1
2 -5 10 0.7 5.4
-3 5 -10 20.7 6.9
-3 5 -10 15.2 6
3 -5 10 16.3 6.1
-4 5 -10 100.49 14.1
-4 5 -10 96.29 12
4 -5 10 95.39 13.5
4 -5 10 102.29 14.9
-5 5 -10 18.6 6.4
-5 5 -10 11.6 7.1
-5 5 -10 20.7 8
5 -5 10 7.5 8.6
5 -5 10 16.4 7.6
-6 5 -10 -1.6 6.2
-6 5 -10 0.4 8.4
6 -5 10 8.9 11
-7 5 -10 153.68 16.5
-7 5 -10 186.28 26.6
-8 5 -10 -1.6 9.2
-8 5 -10 19.8 20.5
-9 5 -10 56.89 27.6
8 4 -10 103.59 15.3
7 4 -10 94.59 13.3
7 4 -10 138.19 19.6
6 4 -10 116.19 19.2
6 4 -10 138.39 14.7
6 4 -10 160.38 21.4
5 4 -10 2.3 5.8
5 4 -10 -4.2 6.4
5 4 -10 8.6 11
4 4 -10 109.19 12.1
4 4 -10 96.29 13.1
4 4 -10 83.49 13.9
4 4 -10 89.99 5.7
3 4 -10 4.8 5.4
3 4 -10 5.4 5
3 4 -10 3.6 3.4
-3 -4 10 0.1 5.6
2 4 -10 1641.94 29.7
2 4 -10 1650.53 33.6
2 4 -10 1614.24 35.8
-2 -4 10 1729.13 36
1 4 -10 7.9 5.4
1 4 -10 13.9 4.7
1 4 -10 8.9 4.4
-1 -4 10 10.6 4.8
-1 -4 10 3.4 7.9
0 4 -10 0.9 4.7
0 4 -10 4.2 4.9
0 -4 10 5.7 10.1
0 -4 10 4.9 4.6
0 -4 10 2.4 4.2
-1 4 -10 14.1 5
-1 4 -10 10.4 4.8
1 -4 10 19 5.6
1 -4 10 22.9 5.2
-2 4 -10 54.19 6.6
-2 4 -10 53.79 6.9
2 -4 10 62.79 7.1
-3 4 -10 1 5.6
-3 4 -10 -1.6 5.3
3 -4 10 -1.5 5.5
3 -4 10 0.2 5.3
-4 4 -10 122.29 11
-4 4 -10 132.09 13.4
4 -4 10 127.29 15.4
4 -4 10 105.19 13.9
-5 4 -10 15 5.5
-5 4 -10 19.8 7.4
-5 4 -10 19.9 7.3
5 -4 10 16.3 7.9
5 -4 10 15.5 7.7
-6 4 -10 36.8 6.4
-6 4 -10 37.7 17.2
-6 4 -10 32 9.6
-7 4 -10 5 15.9
-7 4 -10 0.2 6.2
-8 4 -10 5 18.8
-9 4 -10 128.89 31.1
9 3 -10 -26.5 13.9
8 3 -10 18.4 11.7
7 3 -10 272.27 25.7
7 3 -10 292.57 26
7 3 -10 238.28 17.7
6 3 -10 18 10.9
6 3 -10 23.6 7.1
6 3 -10 45.3 12.2
5 3 -10 90.49 11.4
5 3 -10 99.99 15.5
4 3 -10 6.5 5.6
-4 -3 10 0.1 6.2
3 3 -10 221.68 7.7
3 3 -10 238.48 15.9
3 3 -10 202.88 12.4
-3 -3 10 226.58 14.8
2 3 -10 1560.84 27.2
2 3 -10 1512.55 30.9
2 3 -10 1522.05 34.1
-2 -3 10 1559.74 33.5
1 3 -10 1215.08 28.4
1 3 -10 1212.88 23.2
1 3 -10 1199.38 25.2
-1 -3 10 1018.8 26.7
-1 -3 10 1210.68 27.7
0 3 -10 43.5 6.2
0 3 -10 64.89 8.5
0 3 -10 63.99 8.4
0 -3 10 64.19 8.5
-1 3 -10 -0.3 4.1
-1 3 -10 0 3.7
1 -3 10 3.2 5
1 -3 10 -7.7 3.9
-2 3 -10 24 4.8
-2 3 -10 36.7 6.1
2 -3 10 31.7 5.5
2 -3 10 22.9 6.1
-3 3 -10 195.88 13.1
-3 3 -10 177.48 12.3
3 -3 10 193.78 15.7
3 -3 10 209.38 12.1
-4 3 -10 330.27 15.6
4 -3 10 325.67 15.4
4 -3 10 351.46 19.5
-5 3 -10 18.2 4.8
-5 3 -10 19.1 6.5
5 -3 10 15.2 6.6
-6 3 -10 2.9 4.3
-6 3 -10 -7.7 7.9
-6 3 -10 2.4 14.4
6 -3 10 11.2 8.2
-7 3 -10 50.19 18.8
-7 3 -10 26.4 5.3
-8 3 -10 91.59 22.7
-9 3 -10 109.89 31.8
9 2 -10 -18.9 12.8
8 2 -10 25.8 10.3
8 2 -10 6.8 10.8
8 2 -10 58.79 30.2
7 2 -10 -2.9 8.9
7 2 -10 11.7 13.5
7 2 -10 -10 7.3
6 2 -10 16.8 7.5
6 2 -10 50.49 13.8
6 2 -10 23.4 6.8
5 2 -10 48.1 12
5 2 -10 34.2 7.5
-5 -2 10 24.2 7.6
4 2 -10 885.51 28.6
4 2 -10 883.31 22.8
4 2 -10 883.11 26.7
-4 -2 10 888.81 26.5
3 2 -10 7.1 2.5
3 2 -10 3.3 4.4
3 2 -10 13.6 5.8
-3 -2 10 5.4 4.8
2 2 -10 388.56 13.5
2 2 -10 391.76 16.9
-2 -2 10 394.46 16.4
1 2 -10 88.89 8.4
1 2 -10 97.49 7.4
1 2 -10 109.09 12.6
-1 -2 10 98.89 7.9
-1 -2 10 103.09 11.6
0 2 -10 26.3 5.5
0 2 -10 32.9 4.5
0 2 -10 30.8 4.7
0 -2 10 29.5 4.7
0 -2 10 31.3 5.9
0 -2 10 31.4 4.7
-1 2 -10 2.4 3.9
1 -2 10 4.6 3.8
1 -2 10 -0.3 4
-2 2 -10 81.29 9.3
-2 2 -10 73.29 9.3
2 -2 10 76.69 10.1
2 -2 10 51.59 7.3
2 -2 10 61.69 10.2
-3 2 -10 694.83 20.7
-3 2 -10 673.73 18.9
3 -2 10 693.03 23.4
3 -2 10 671.43 20.2
3 -2 10 685.03 18.2
-4 2 -10 718.63 20.4
-4 2 -10 743.53 21.8
4 -2 10 701.13 19.8
4 -2 10 726.13 21.9
4 -2 10 739.43 25.9
-5 2 -10 59.49 14.1
-5 2 -10 68.69 7.8
-5 2 -10 81.99 7.5
5 -2 10 75.59 10.6
5 -2 10 68.29 8.2
-6 2 -10 373.16 26.8
-6 2 -10 335.87 10.5
-6 2 -10 348.87 20
6 -2 10 326.37 18.4
-7 2 -10 57.09 17.8
-8 2 -10 118.69 24.6
9 1 -10 -7.3 12.7
8 1 -10 0.8 10.8
8 1 -10 -2.7 9.4
7 1 -10 -5 7
7 1 -10 20.8 15.9
7 1 -10 2.4 8.1
6 1 -10 16.2 7.3
6 1 -10 22 7
5 1 -10 547.45 23.9
5 1 -10 540.55 22.7
5 1 -10 548.55 18.4
4 1 -10 500.15 20.9
4 1 -10 500.95 17.3
4 1 -10 488.75 20.9
-4 -1 10 489.85 19.9
3 1 -10 594.64 17.6
3 1 -10 585.14 12.4
3 1 -10 573.44 20.9
-3 -1 10 577.44 12.8
-3 -1 10 609.24 20
2 1 -10 384.96 10.6
2 1 -10 386.36 12.9
2 1 -10 400.06 14
-2 -1 10 405.06 11.4
-2 -1 10 401.46 16.5
1 1 -10 37.2 5.9
1 1 -10 58.59 7.1
1 1 -10 59.09 6.6
-1 -1 10 71.09 7.6
-1 -1 10 54.19 8.7
-1 -1 10 49.8 6.6
0 1 -10 206.88 9.1
0 1 -10 199.08 10.9
0 1 -10 196.28 13.6
0 -1 10 200.68 10.3
0 -1 10 231.58 16.4
-1 1 -10 335.17 11.4
1 -1 10 331.17 13.2
1 -1 10 321.77 10.9
1 -1 10 322.67 16.3
-2 1 -10 1531.65 29
-2 1 -10 1552.74 31
2 -1 10 1583.44 35.3
2 -1 10 1555.74 28.8
2 -1 10 1542.15 31.5
-3 1 -10 276.97 13.6
-3 1 -10 298.97 12.7
3 -1 10 294.87 14.8
3 -1 10 293.07 17.7
-4 1 -10 232.58 12.4
-4 1 -10 238.68 14.5
-4 1 -10 223.98 9.6
4 -1 10 222.68 14.7
4 -1 10 210.78 11.8
-5 1 -10 302.47 9.2
-5 1 -10 319.87 10.3
-5 1 -10 297.07 23.5
5 -1 10 330.37 17.4
5 -1 10 308.47 15
-6 1 -10 43.2 15.6
6 -1 10 24.9 7.9
-7 1 -10 18.3 17.1
7 -1 10 2.8 9.9
7 -1 10 30.9 10.1
-8 1 -10 23.9 19.4
9 0 -10 30.9 13.4
8 0 -10 -1.8 9.2
8 0 -10 -0.8 9.7
7 0 -10 -6.1 6.1
7 0 -10 -2.7 7.5
7 0 -10 42.5 13
6 0 -10 53.89 8.7
6 0 -10 64.29 7.9
5 0 -10 235.28 17.4
5 0 -10 232.78 13.9
5 0 -10 211.98 17.7
-5 0 10 246.28 18.2
4 0 -10 99.19 13.3
4 0 -10 98.89 14.7
4 0 -10 85.89 11.2
-4 0 10 88.29 13.2
-4 0 10 96.19 6.5
3 0 -10 98.29 12.9
3 0 -10 92.59 10.4
3 0 -10 81.79 6.3
-3 0 10 96.89 7
-3 0 10 86.99 12
2 0 -10 1167.28 22.5
2 0 -10 1191.98 25.6
2 0 -10 1191.98 23.9
2 0 -10 1185.28 29.1
-2 0 10 1208.08 28.3
-2 0 10 1190.38 22.9
1 0 -10 4.4 4.7
1 0 -10 0.7 3
1 0 -10 11.2 3.4
1 0 -10 5.1 5
-1 0 10 13.4 3.9
-1 0 10 2.4 6.5
0 0 -10 63.29 7.7
0 0 -10 61.09 8.7
0 0 -10 59.59 6.4
0 0 10 75.79 8.5
0 0 10 54.59 10.7
-1 0 -10 1359.36 25
-1 0 -10 1403.96 28
-1 0 -10 1419.46 26.9
1 0 10 1346.37 28.1
1 0 10 1352.46 24.8
1 0 10 1385.16 32.3
-2 0 -10 218.28 9.9
-2 0 -10 214.18 11.3
-2 0 -10 199.08 9.6
2 0 10 177.08 15
2 0 10 199.28 9
2 0 10 193.88 12.3
-3 0 -10 1587.24 29.3
-3 0 -10 1618.34 33.2
-3 0 -10 1579.04 28.4
3 0 10 1610.94 29.3
3 0 10 1593.44 33.8
3 0 10 1600.94 37.8
-4 0 -10 441.26 14.5
-4 0 -10 448.26 24
-4 0 -10 406.66 17.1
4 0 10 442.56 18.5
-5 0 -10 57.29 15.4
-5 0 -10 35.9 8.1
5 0 10 38.8 6.7
5 0 10 48.2 8.6
-6 0 -10 9 14.8
6 0 10 -4.3 7.3
6 0 10 1 7.2
-7 0 -10 151.98 28.6
7 0 10 97.49 12.2
7 0 10 89.79 12.4
-8 0 -10 191.78 36
8 0 10 106.59 13.9
10 -1 -10 -31.6 14.9
9 -1 -10 101.49 27.9
9 -1 -10 81.29 15.1
8 -1 -10 -6 9.3
8 -1 -10 14.1 18.8
8 -1 -10 -1.8 9.1
7 -1 -10 34.4 27.6
7 -1 -10 13.6 7.3
7 -1 -10 17 9.7
6 -1 -10 238.48 19.5
6 -1 -10 249.38 19.8
6 -1 -10 232.78 18.7
-6 1 10 231.68 20.8
5 -1 -10 103.79 12
5 -1 -10 111.19 15.8
5 -1 -10 114.39 14.4
5 -1 -10 102.29 13.4
-5 1 10 96.99 15.2
-5 1 10 98.79 6.6
4 -1 -10 165.48 15.9
4 -1 -10 152.88 12.1
4 -1 -10 141.49 12.5
4 -1 -10 155.08 13.3
-4 1 10 153.78 14.2
-4 1 10 151.38 8
3 -1 -10 66.29 9.7
3 -1 -10 50.89 9.4
3 -1 -10 41.4 7.2
3 -1 -10 62.19 10
-3 1 10 70.49 7.4
-3 1 10 68.39 11.3
2 -1 -10 10.2 4.2
2 -1 -10 7.5 3.7
2 -1 -10 14 6
-2 1 10 8.4 3.8
-2 1 10 6.8 5.2
-2 1 10 9.6 9.3
1 -1 -10 13.4 5.4
1 -1 -10 12 3.9
1 -1 -10 12.1 5.1
1 -1 -10 15.3 3.4
-1 1 10 16 4.5
-1 1 10 12.9 5.3
-1 1 10 17.7 9.6
0 -1 -10 83.09 6.2
0 -1 -10 84.89 9.1
0 -1 -10 75.59 9.2
0 1 10 69.29 12.7
0 1 10 90.69 12.9
0 1 10 80.39 9.5
-1 -1 -10 880.61 17.3
-1 -1 -10 892.41 21.7
-1 -1 -10 917.21 20.3
1 1 10 910.91 31.3
1 1 10 916.31 22.4
1 1 10 912.31 26.1
-2 -1 -10 42.4 6
-2 -1 -10 44.4 4.5
-2 -1 -10 38.6 4.9
2 1 10 53.79 6
2 1 10 32.8 7.7
2 1 10 30.2 5.9
-3 -1 -10 60.29 7.4
-3 -1 -10 49.9 7.4
-3 -1 -10 66.89 12.5
3 1 10 41.4 8.5
3 1 10 38.9 6.8
3 1 10 45 4.6
-4 -1 -10 -1.4 3.4
-4 -1 -10 -10.1 10.2
4 1 10 2 4
4 1 10 8.3 10.1
-5 -1 -10 15.2 12.9
-5 -1 -10 2.2 7.4
5 1 10 -0.8 5.6
5 1 10 10.8 7.4
-6 -1 -10 11.1 17.2
6 1 10 15.8 8.8
6 1 10 4.3 8
-7 -1 -10 26.5 20.3
7 1 10 2.7 9.1
-8 -1 -10 72.09 39.2
8 1 10 -2.2 11.3
10 -2 -10 -1.1 15.9
9 -2 -10 -1.2 23.8
9 -2 -10 -17.7 12.1
8 -2 -10 319.87 31.6
8 -2 -10 266.17 27
8 -2 -10 272.27 30
7 -2 -10 0.9 14.3
7 -2 -10 28.5 14.5
7 -2 -10 -2.6 7.6
-7 2 10 6.2 3.6
6 -2 -10 8.5 6.3
6 -2 -10 5.3 7.4
6 -2 -10 21.2 12.6
6 -2 -10 28.7 11.3
-6 2 10 16 7.8
-6 2 10 15.7 3.9
5 -2 -10 172.08 16.4
5 -2 -10 174.38 14.1
5 -2 -10 189.58 14.9
5 -2 -10 167.28 16.8
-5 2 10 201.78 17.1
-5 2 10 207.28 9.8
4 -2 -10 60.19 9.2
4 -2 -10 61.39 12.7
4 -2 -10 41.1 6.6
4 -2 -10 40.1 7.8
-4 2 10 56.89 8
-4 2 10 42.8 6.9
3 -2 -10 395.66 14.4
3 -2 -10 411.86 15.6
3 -2 -10 398.26 19.2
3 -2 -10 392.96 18.6
-3 2 10 411.26 17.7
-3 2 10 396.76 13.3
-3 2 10 385.66 16.3
2 -2 -10 220.78 16.3
2 -2 -10 223.68 12.4
-2 2 10 216.78 18.3
-2 2 10 221.58 13.2
-2 2 10 236.58 11.3
-2 2 10 235.38 14.8
1 -2 -10 461.85 15.7
1 -2 -10 458.85 19.3
1 -2 -10 467.95 15.3
1 -2 -10 454.75 11.2
-1 2 10 479.45 23.3
-1 2 10 461.85 15.3
-1 2 10 476.05 18.8
0 -2 -10 418.56 9.8
0 -2 -10 401.86 14.2
0 -2 -10 409.76 14.5
0 2 10 395.26 23.5
0 2 10 415.26 18.6
0 2 10 394.36 15.2
-1 -2 -10 18.1 5.4
-1 -2 -10 17.6 5
-1 -2 -10 11.1 3.6
1 2 10 15.6 6
1 2 10 15.4 13.7
1 2 10 9.4 6.1
-2 -2 -10 8.5 4.2
-2 -2 -10 19.4 9.1
2 2 10 13.5 14
2 2 10 6.5 6.8
2 2 10 12.9 6.2
-3 -2 -10 32.1 11.2
-3 -2 -10 11.1 4.2
3 2 10 12.6 6.4
3 2 10 29.1 17.6
3 2 10 14.1 3
3 2 10 19.1 7.2
-4 -2 -10 248.58 9.5
-4 -2 -10 239.78 17.5
-4 -2 -10 237.88 21.2
4 2 10 225.48 16.8
4 2 10 220.88 29.7
4 2 10 228.78 9.6
5 2 10 5.3 5.3
5 2 10 -8.6 6.9
-6 -2 -10 22.8 17.6
6 2 10 19.7 9.7
6 2 10 -16.3 7.8
-7 -2 -10 -20.8 19.6
7 2 10 10.4 11.1
10 -3 -10 -3.2 16.7
9 -3 -10 -5.6 13
9 -3 -10 11.5 26.7
8 -3 -10 20.2 20.3
8 -3 -10 -2.3 10.5
-8 3 10 6.7 6
7 -3 -10 171.18 24.8
7 -3 -10 173.98 21.4
-7 3 10 161.18 11
6 -3 -10 455.95 20.9
6 -3 -10 432.86 23.3
6 -3 -10 470.85 24.1
6 -3 -10 465.45 27.2
-6 3 10 466.25 21.1
-6 3 10 438.26 14.7
-6 3 10 483.35 23.3
5 -3 -10 100.19 17.9
5 -3 -10 86.79 10.2
5 -3 -10 107.69 12.3
5 -3 -10 98.79 16.2
-5 3 10 95.29 15.6
-5 3 10 112.69 14.4
-5 3 10 86.99 9.8
4 -3 -10 14.3 6.5
4 -3 -10 40.3 13.9
4 -3 -10 46.5 9.2
-4 3 10 26.9 5.4
-4 3 10 29.3 6.8
3 -3 -10 45.1 7.9
3 -3 -10 67.29 15.2
3 -3 -10 69.09 7.9
-3 3 10 50.49 7.1
-3 3 10 69.39 9.9
-3 3 10 63.59 8.1
2 -3 -10 174.98 17.9
2 -3 -10 168.18 12.7
2 -3 -10 182.58 16.1
-2 3 10 162.38 13.1
-2 3 10 174.68 14.5
-2 3 10 170.38 12
1 -3 -10 -1.7 4.7
1 -3 -10 2.4 2.8
-1 3 10 1.3 5
-1 3 10 -0.7 5.2
-1 3 10 3 5.5
-1 3 10 1.8 13.3
0 -3 -10 1.9 7
0 -3 -10 -0.9 5.7
0 -3 -10 -2.2 4.5
0 3 10 -1 4.7
0 3 10 1.9 13.4
0 3 10 -1.5 4.9
0 3 10 0.7 5.8
-1 -3 -10 225.18 12.3
-1 -3 -10 230.88 14.4
1 3 10 236.78 24.6
1 3 10 234.38 17.6
1 3 10 239.28 14.6
-2 -3 -10 -0.5 9.2
2 3 10 8.2 7.2
2 3 10 0.3 6.1
2 3 10 10.4 15.5
-3 -3 -10 523.25 15.5
-3 -3 -10 548.15 24.1
-3 -3 -10 516.15 21.8
3 3 10 530.55 35.4
3 3 10 522.15 27.9
3 3 10 525.45 21.2
-4 -3 -10 26 12.7
4 3 10 4.7 7.6
-5 -3 -10 -0.7 14.8
5 3 10 2 8.8
-6 -3 -10 5 19.7
6 3 10 20 15.1
-7 -3 -10 49.99 26.5
7 3 10 8.1 12.1
9 -4 -10 65.99 30.4
9 -4 -10 10.7 14.1
8 -4 -10 24.6 12
-8 4 10 12.9 8.3
7 -4 -10 7.5 17.8
-7 4 10 -1.7 9.6
-7 4 10 -11.3 6
6 -4 -10 7.6 7.9
6 -4 -10 10.1 15.4
-6 4 10 4.5 7.8
-6 4 10 5 6
-6 4 10 2.4 7.4
5 -4 -10 108.59 23.2
5 -4 -10 62.29 10.4
5 -4 -10 79.19 8.6
5 -4 -10 54.99 8.6
5 -4 -10 71.69 12.8
-5 4 10 94.09 15.9
-5 4 10 72.09 7.8
-5 4 10 80.39 10.3
4 -4 -10 140.69 16.7
4 -4 -10 137.09 11.4
4 -4 -10 139.49 21.5
-4 4 10 130.19 14.7
-4 4 10 128.69 12.3
3 -4 -10 272.97 22.8
3 -4 -10 279.07 17.7
3 -4 -10 271.17 11.5
-3 4 10 261.07 15.6
-3 4 10 274.37 14.5
-3 4 10 277.17 16.6
2 -4 -10 39.4 7.2
2 -4 -10 54.79 16.9
-2 4 10 48.6 7.8
-2 4 10 34.3 6.8
-2 4 10 37 6.7
-2 4 10 71.89 19.4
1 -4 -10 100.49 12.5
-1 4 10 90.79 12.2
-1 4 10 99.09 22.4
-1 4 10 92.89 12.5
-1 4 10 97.59 13.6
0 -4 -10 276.47 14.1
0 -4 -10 259.97 12.2
0 4 10 241.58 17.1
0 4 10 269.07 15.7
0 4 10 266.47 14.4
0 4 10 289.47 27.7
-1 -4 -10 81.59 11.6
-1 -4 -10 76.09 11.2
1 4 10 86.49 11.4
1 4 10 71.49 9.1
1 4 10 60.59 9.3
-2 -4 -10 43.2 7.2
2 4 10 46.2 9.7
2 4 10 34.6 8.8
-3 -4 -10 35.1 11.5
3 4 10 10.5 9.1
3 4 10 16.2 8.5
-4 -4 -10 34.5 14.9
4 4 10 11 8.6
-5 -4 -10 19.3 19.8
5 4 10 5.2 9.9
-6 -4 -10 18.5 23.4
6 4 10 -3 10.9
9 -5 -10 4.4 15.8
9 -5 -10 65.09 32.5
8 -5 -10 5.8 26
8 -5 -10 -5.9 11.6
-8 5 10 -21.6 11
-8 5 10 11.9 11
7 -5 -10 12.6 20.8
-7 5 10 -1.1 8.3
-7 5 10 18.4 10.5
6 -5 -10 46.5 21.1
6 -5 -10 21.1 8.7
6 -5 -10 34.5 10.4
-6 5 10 30.3 8.1
-6 5 10 32 10.5
5 -5 -10 28 8.4
5 -5 -10 67.49 21.5
5 -5 -10 39.1 8.3
-5 5 10 33.9 9.4
-5 5 10 52.69 8.4
-5 5 10 24.4 8.2
4 -5 -10 150.48 12.9
4 -5 -10 177.98 25.7
4 -5 -10 112.89 18.5
4 -5 -10 145.59 17.1
-4 5 10 119.79 15
-4 5 10 152.98 19.6
-4 5 10 144.39 16.3
3 -5 -10 111.79 10
3 -5 -10 96.49 22.1
3 -5 -10 139.29 15.9
3 -5 -10 91.39 10.4
-3 5 10 117.79 16.1
-3 5 10 99.39 14.6
-3 5 10 146.19 14.9
2 -5 -10 157.08 23.6
2 -5 -10 159.28 16.8
-2 5 10 156.68 15
-2 5 10 132.89 29.6
-2 5 10 161.88 15
-2 5 10 161.18 15.8
-1 5 10 71.79 8.8
-1 5 10 103.89 13.9
-1 5 10 103.79 14.3
0 -5 -10 1.1 5.8
0 -5 -10 16.5 10.1
0 5 10 -2.9 6.9
0 5 10 4.7 6.1
0 5 10 25.8 29.2
-1 -5 -10 13.6 7.4
-1 -5 -10 19.4 8.4
1 5 10 13.6 6
1 5 10 15.7 7.8
1 5 10 46.5 26.1
1 5 10 -0.9 7.6
-2 -5 -10 62.79 12.2
-2 -5 -10 34.8 9
2 5 10 22.6 9.6
2 5 10 41.2 9.9
2 5 10 48.1 7
-3 -5 -10 -8.1 12.8
-3 -5 -10 11.5 8
3 5 10 -6 10.3
4 5 10 295.37 24.3
5 5 10 50.29 13.5
8 -6 -10 65.99 31.9
8 -6 -10 -0.2 14.6
-8 6 10 -0.8 14
-8 6 10 -5.7 16.7
7 -6 -10 78.39 32.2
-7 6 10 36.7 12.1
-7 6 10 37.1 12.9
6 -6 -10 -6.6 9.1
6 -6 -10 -18.2 9.3
6 -6 -10 -4.3 23.4
-6 6 10 11.3 10.6
-6 6 10 -6.4 9.3
5 -6 -10 -3.1 7.3
5 -6 -10 2.4 9.7
-5 6 10 -5.8 9
-5 6 10 1.7 9.6
-5 6 10 0.4 8.4
4 -6 -10 60.89 8.9
4 -6 -10 103.49 27.3
4 -6 -10 70.79 8.8
-4 6 10 81.29 10.8
-4 6 10 72.89 9.8
-4 6 10 59.89 11.4
3 -6 -10 -6.5 6
3 -6 -10 21 20.5
-3 6 10 -12 8.1
-3 6 10 3.9 7.8
-3 6 10 3.7 6.7
2 -6 -10 39.3 35.4
-2 6 10 21.7 7.6
-2 6 10 12.1 8.5
-2 6 10 28.4 9
-1 6 10 -10.3 7.1
-1 6 10 -3 8.4
0 -6 -10 -10.3 9.1
0 6 10 1.3 7.2
0 6 10 2.6 8.5
0 6 10 -6.7 8.1
-1 -6 -10 -8.8 9.8
1 6 10 -11.7 8
1 6 10 1.8 7.2
1 6 10 3.1 10.1
-2 -6 -10 16 13.1
2 6 10 6.8 11.6
2 6 10 17.1 11
2 6 10 3.6 7.5
-3 -6 -10 49.6 39.3
3 6 10 41.1 12
-4 -6 -10 53.29 23.9
4 6 10 29.2 13.9
7 -7 -10 165.58 49.7
7 -7 -10 43.4 19
-7 7 10 76.99 16.6
-7 7 10 89.69 16.3
6 -7 -10 31.2 27.8
6 -7 -10 20.8 11.9
-6 7 10 24.5 12.9
-6 7 10 18.4 12.5
5 -7 -10 88.49 30.5
-5 7 10 54.19 12.3
-5 7 10 48.2 13.1
4 -7 -10 25.7 25
-4 7 10 -3.9 9.9
-4 7 10 -5.2 10.2
-4 7 10 -4.1 10.9
3 -7 -10 167.08 35.9
-3 7 10 177.98 21.4
-3 7 10 162.68 22
-3 7 10 132.59 20.4
2 -7 -10 61.69 27.5
-2 7 10 30.2 10.2
-2 7 10 39.2 11.2
-2 7 10 27.6 9.6
-1 7 10 -5.5 13.4
-1 7 10 -0.1 9.8
-1 7 10 14.4 9.2
0 7 10 14.3 10.8
0 7 10 -0.6 13.6
0 7 10 7.2 10.2
1 7 10 48.1 10.6
1 7 10 53.79 11.9
2 7 10 -7.6 11.1
2 7 10 39.2 10.7
3 7 10 15.4 13.7
6 -8 -10 79.29 37.3
-6 8 10 26.2 26.1
-6 8 10 25.4 16
5 -8 -10 53.49 32.3
-5 8 10 -1.6 14.6
-5 8 10 -1.5 13.9
4 -8 -10 61.89 32.2
-4 8 10 -7.1 12.8
-4 8 10 -4.3 12.9
3 -8 -10 50.89 31.4
-3 8 10 12.5 12.8
-3 8 10 0.9 11.8
-2 8 10 28.3 11.6
-2 8 10 26.9 12.4
-1 8 10 84.79 13.7
-1 8 10 133.39 16.6
0 8 10 4.6 11.3
0 8 10 17.1 14.5
1 8 10 102.69 14.1
1 8 10 46.3 16.3
2 10 -11 -5.1 11.6
2 10 -11 22.2 14.9
1 10 -11 -10 13.3
1 10 -11 16.2 12
-1 -10 11 -2 38.5
0 10 -11 -11.5 10.7
0 10 -11 -4.7 13.3
0 -10 11 15.7 33.6
-1 10 -11 -4.4 13
-1 10 -11 -11.9 11.2
1 -10 11 -15.6 29.4
-2 10 -11 -28.1 10.7
-2 10 -11 2.2 12.6
2 -10 11 20.9 30.9
-3 10 -11 8.9 13.4
-3 10 -11 -2 11.6
3 -10 11 33.5 34.1
-4 10 -11 10.4 13.6
-4 10 -11 16 14.5
4 -10 11 2.4 34.5
-5 10 -11 62.19 19.2
5 -10 11 40.1 42.3
4 9 -11 14.3 12.2
4 9 -11 -7.2 11.2
3 9 -11 -11.2 11.2
3 9 -11 24.8 13
2 9 -11 35.5 10.9
2 9 -11 50.89 8
2 9 -11 54.29 12.7
1 9 -11 47.9 12.7
1 9 -11 38.1 14.7
0 9 -11 112.89 13.2
0 9 -11 96.69 14.2
0 -9 11 156.18 47.2
-1 9 -11 51.89 12
-1 9 -11 76.49 12.2
1 -9 11 90.59 28
-2 9 -11 59.19 11.6
-2 9 -11 70.19 12.5
2 -9 11 115.79 30.9
-3 9 -11 -7.3 10.1
-3 9 -11 11 11.4
3 -9 11 23.9 28.1
-4 9 -11 20.7 11.8
-4 9 -11 35.9 12.1
4 -9 11 53.09 33.5
-5 9 -11 20.5 12.8
-5 9 -11 19.2 12.2
5 -9 11 19.8 32.5
-6 9 -11 1.4 14.3
-6 9 -11 43.7 16
6 -9 11 98.19 44.4
5 8 -11 9.3 10.8
5 8 -11 -12.8 10.9
5 8 -11 4.8 11.9
4 8 -11 283.57 22.8
4 8 -11 221.58 15.6
4 8 -11 208.48 20.7
4 8 -11 190.38 25.8
3 8 -11 21.9 9.4
3 8 -11 18.1 10
3 8 -11 -0.5 8.7
3 8 -11 17.3 9.4
2 8 -11 1.8 6.4
2 8 -11 6 8.4
2 8 -11 0.1 9.2
2 8 -11 4.6 13.4
1 8 -11 22.1 8.6
1 8 -11 10.6 8.5
1 8 -11 34.1 9.3
1 8 -11 21.1 6.5
-1 -8 11 26.9 18.7
0 8 -11 25.6 8.9
0 8 -11 33.4 9.5
0 8 -11 30.7 10
0 -8 11 64.79 21.3
-1 8 -11 46.2 10.8
-1 8 -11 37.8 9.7
1 -8 11 68.79 21.6
1 -8 11 36.3 7.5
-2 8 -11 45.6 10.5
-2 8 -11 23.2 10
2 -8 11 61.09 22.7
2 -8 11 25.9 6.3
-3 8 -11 8.6 9
-3 8 -11 8 9.3
3 -8 11 7.7 6.2
3 -8 11 29.4 24.4
-4 8 -11 4.9 9.6
-4 8 -11 20.4 9.6
4 -8 11 6.1 27.9
4 -8 11 -13.9 6.8
-5 8 -11 24.7 10.7
-5 8 -11 -6.8 10.4
5 -8 11 3.6 28.4
-6 8 -11 186.88 26
-6 8 -11 103.49 14.7
6 -8 11 107.29 39.3
-7 8 -11 57.89 15.3
-7 8 -11 19.7 15.2
-7 8 -11 6.4 24.6
6 7 -11 55.59 13.1
6 7 -11 57.09 12.1
6 7 -11 63.39 11.8
5 7 -11 132.69 18.3
5 7 -11 69.19 11.6
4 7 -11 6.4 7.9
4 7 -11 16.7 5.5
4 7 -11 0.1 7.3
4 7 -11 3.3 8.1
3 7 -11 121.29 15.1
3 7 -11 137.09 16.1
3 7 -11 79.89 14.9
2 7 -11 38.3 8
2 7 -11 41 11.1
2 7 -11 48.2 7.9
-2 -7 11 55.99 16.6
1 7 -11 110.09 14.4
1 7 -11 122.49 13.4
1 7 -11 114.69 14.4
-1 -7 11 105.69 14.8
-1 -7 11 113.69 19.8
0 7 -11 183.68 15.2
0 7 -11 203.38 16.2
0 -7 11 180.98 14.6
0 -7 11 190.78 23
-1 7 -11 78.99 13.4
-1 7 -11 52.89 9
1 -7 11 49.9 6.8
1 -7 11 89.09 20.6
1 -7 11 42.7 9.4
-2 7 -11 59.39 10.5
2 -7 11 42.7 7
2 -7 11 59.79 20.3
2 -7 11 47 8.8
-3 7 -11 9.3 7.8
3 -7 11 3.8 19.6
-4 7 -11 5.8 8
-4 7 -11 11.1 9.2
4 -7 11 -1.1 8.2
-5 7 -11 14 9.7
-5 7 -11 16.5 9.3
5 -7 11 8.5 10.3
-6 7 -11 29.2 11.2
-6 7 -11 29.7 11.2
-7 7 -11 34.3 12.3
-7 7 -11 -21.3 20.9
-7 7 -11 4.1 12.5
-8 7 -11 -6.5 15.2
-8 7 -11 1.3 25.4
7 6 -11 10.1 12.6
7 6 -11 16 12.1
6 6 -11 9.6 10
6 6 -11 -0.1 9.7
5 6 -11 -22.4 26.3
5 6 -11 37.8 9.4
5 6 -11 30.6 9.2
4 6 -11 1.2 7
4 6 -11 4.8 5.4
4 6 -11 10.2 6.9
3 6 -11 18.6 13.4
3 6 -11 6.7 6.2
3 6 -11 10.4 6.3
2 6 -11 1.9 6.2
2 6 -11 0.1 5.5
2 6 -11 3.1 5.7
-2 -6 11 3.6 6.3
-2 -6 11 12.5 11.3
1 6 -11 55.09 7.8
1 6 -11 62.89 7.3
1 6 -11 42 6.8
-1 -6 11 85.39 15.8
-1 -6 11 71.59 12.2
0 6 -11 238.08 14.5
0 6 -11 220.48 14.5
0 6 -11 232.88 15
0 -6 11 242.38 21.5
0 -6 11 225.68 20.3
-1 6 -11 10.1 6.2
-1 6 -11 -0.5 5.5
1 -6 11 0.4 5.1
1 -6 11 7.2 14.4
-2 6 -11 11.2 6.9
-2 6 -11 23.9 7.1
2 -6 11 26.3 16.9
-3 6 -11 1.8 7.2
-3 6 -11 4.3 7.2
-3 6 -11 7.6 6
3 -6 11 -0.8 5.9
-4 6 -11 62.29 9
-4 6 -11 56.99 9.6
4 -6 11 59.69 16.4
4 -6 11 51.79 8.7
-5 6 -11 5.2 8.7
-5 6 -11 8.2 7.2
5 -6 11 0.8 9
-6 6 -11 44.9 10.5
-6 6 -11 39.9 9
6 -6 11 44.3 12.1
-7 6 -11 -20.3 19.8
-7 6 -11 -15.6 9.8
-8 6 -11 72.69 25.9
8 5 -11 -16.7 13.8
7 5 -11 29.1 11
7 5 -11 4.7 11.6
6 5 -11 -2.7 9.7
6 5 -11 10.3 8.1
6 5 -11 18.7 19.7
5 5 -11 177.78 16.5
5 5 -11 104.69 22.6
5 5 -11 146.59 19.1
4 5 -11 5.6 14.2
4 5 -11 14.6 6.9
4 5 -11 15.6 4.1
4 5 -11 16.4 6.6
3 5 -11 -3.7 5.5
3 5 -11 1.2 6.1
3 5 -11 5.6 4.2
3 5 -11 3.1 11.7
-3 -5 11 1.8 8.1
2 5 -11 12.5 5.9
2 5 -11 10.9 5.5
2 5 -11 8.8 4.9
-2 -5 11 10.8 5.6
1 5 -11 283.17 16.5
1 5 -11 290.67 13.1
1 5 -11 298.27 14.7
-1 -5 11 289.57 17.3
-1 -5 11 281.47 15.4
0 5 -11 866.11 22.1
0 5 -11 876.91 24.7
0 5 -11 884.31 23.6
0 -5 11 868.11 29.1
-1 5 -11 175.48 13.2
-1 5 -11 189.78 13.4
1 -5 11 163.78 19.2
-2 5 -11 135.59 13.4
-2 5 -11 125.59 12.9
2 -5 11 119.09 14.5
-3 5 -11 167.18 14.5
-3 5 -11 141.09 14.2
3 -5 11 150.18 13.9
3 -5 11 152.18 15
-4 5 -11 33.6 7.9
-4 5 -11 34.9 6.8
4 -5 11 23.9 7.3
4 -5 11 26.5 7.7
-5 5 -11 6.7 7.9
-5 5 -11 3 6.1
5 -5 11 -4 6.7
-6 5 -11 17.1 9.3
-6 5 -11 15.8 6.8
6 -5 11 19.3 10.9
-7 5 -11 9 8.6
-7 5 -11 13.1 18.3
-8 5 -11 44.7 22.2
7 4 -11 4.5 10
7 4 -11 16 11
6 4 -11 179.78 16.8
6 4 -11 157.58 17.5
6 4 -11 162.58 19.2
6 4 -11 127.29 21.7
5 4 -11 84.29 13.5
5 4 -11 113.89 17.4
5 4 -11 161.58 28.3
4 4 -11 283.67 15.7
4 4 -11 278.37 18.5
-4 -4 11 270.57 19.9
3 4 -11 2.5 3.5
3 4 -11 2.4 5.7
3 4 -11 12.8 6.1
-3 -4 11 1.5 5.9
2 4 -11 172.78 9.8
2 4 -11 155.68 12.3
2 4 -11 167.48 15
-2 -4 11 169.58 13.9
1 4 -11 6.1 5.7
1 4 -11 14.5 4.8
1 4 -11 16.6 4.9
-1 -4 11 8 5.2
-1 -4 11 16.4 9.7
0 4 -11 364.06 13.9
0 4 -11 363.46 17.6
0 4 -11 351.26 14.9
0 -4 11 383.96 14.8
0 -4 11 358.56 16.6
0 -4 11 348.87 18.7
-1 4 -11 -4.2 4.3
-1 4 -11 1.3 5.2
1 -4 11 5.9 4.9
1 -4 11 6.7 5.6
-2 4 -11 20 6
-2 4 -11 34.2 6.9
2 -4 11 15.7 6.1
2 -4 11 26.7 6
-3 4 -11 99.49 12.5
3 -4 11 94.99 12.2
3 -4 11 86.79 14.6
-4 4 -11 165.18 14.5
4 -4 11 156.18 17.2
4 -4 11 162.88 13.7
-5 4 -11 5.7 5.5
-5 4 -11 0 7.5
-5 4 -11 8.3 7
5 -4 11 -17.6 7.7
-6 4 -11 161.58 13.1
-6 4 -11 167.38 32
-6 4 -11 151.88 17.7
-7 4 -11 49.7 20.9
-7 4 -11 31.2 8
-8 4 -11 23.6 20.1
9 3 -11 59.69 17.3
8 3 -11 -5.1 10.7
7 3 -11 20 15.2
7 3 -11 -2.7 8.8
7 3 -11 -10.2 13.8
6 3 -11 24.2 8.3
6 3 -11 21.6 7
5 3 -11 10.4 12.7
5 3 -11 -2.2 5.9
5 3 -11 3.8 6.5
4 3 -11 18 11.6
4 3 -11 14.3 5.9
4 3 -11 12 6.3
-4 -3 11 6.5 6.6
3 3 -11 1325.77 33.2
3 3 -11 1279.97 29.2
-3 -3 11 1370.96 33.2
2 3 -11 4.4 5.4
2 3 -11 8 4.5
2 3 -11 6.1 3.5
-2 -3 11 0.9 5.1
1 3 -11 7.5 4
1 3 -11 12.9 4.9
1 3 -11 11.1 5.6
-1 -3 11 12.1 5.6
-1 -3 11 9.4 7.5
0 3 -11 112.99 13.9
0 3 -11 112.59 10.1
0 -3 11 125.59 9.9
0 -3 11 139.59 13.4
-1 3 -11 671.93 19
-1 3 -11 688.23 18.7
1 -3 11 699.03 18.6
1 -3 11 678.83 21.9
-2 3 -11 76.69 10.9
-2 3 -11 88.99 10.8
2 -3 11 88.99 14.3
2 -3 11 84.29 10.2
-3 3 -11 52.39 11.4
-3 3 -11 87.79 11.8
3 -3 11 52.29 8
3 -3 11 66.29 7.2
-4 3 -11 63.99 7.9
4 -3 11 61.19 7.7
4 -3 11 59.69 9.1
-5 3 -11 -6.3 7.1
-5 3 -11 -1.7 6.3
-5 3 -11 5.5 5.3
5 -3 11 -1.9 6.7
-6 3 -11 7.8 5.1
-6 3 -11 15.2 17.7
6 -3 11 12 8.9
-7 3 -11 -11 17.3
-7 3 -11 -5.8 4.5
-8 3 -11 89.89 25.3
9 2 -11 -19.9 13
8 2 -11 35.2 11.8
8 2 -11 47.2 12.7
7 2 -11 -14.4 7.7
7 2 -11 1.1 8.9
6 2 -11 21.2 13.5
6 2 -11 51.89 15.4
6 2 -11 19.7 7.3
5 2 -11 14.7 7
4 2 -11 303.07 18.8
4 2 -11 313.67 15.3
4 2 -11 340.07 20.4
-4 -2 11 341.87 18.5
3 2 -11 17.2 6.3
3 2 -11 16 5.1
3 2 -11 22.1 4.4
-3 -2 11 9.9 5.4
2 2 -11 2.8 3.1
2 2 -11 -1 4.3
2 2 -11 1 5.2
-2 -2 11 0.5 4.7
1 2 -11 631.34 15.8
1 2 -11 612.24 21.7
1 2 -11 606.14 16.9
-1 -2 11 639.34 20.6
-1 -2 11 620.64 16.1
0 2 -11 3.5 3.7
0 2 -11 3.2 4.1
0 2 -11 -0.2 5.3
0 -2 11 0.3 4
0 -2 11 3.8 5.3
-1 2 -11 -3.4 3.9
-1 2 -11 3.7 4.4
1 -2 11 2.9 4.8
1 -2 11 1.4 5.4
1 -2 11 1.1 4.8
-2 2 -11 7.1 4.7
-2 2 -11 10.3 4.8
2 -2 11 3.4 5.2
2 -2 11 10.7 4.5
2 -2 11 6.6 6.3
-3 2 -11 421.46 15.9
3 -2 11 401.76 17.1
3 -2 11 430.56 20.5
3 -2 11 406.66 14.6
-4 2 -11 1281.77 28.6
4 -2 11 1331.07 34.9
4 -2 11 1264.27 28.2
4 -2 11 1314.17 31.1
-5 2 -11 83.29 16.7
-5 2 -11 72.59 9.6
-5 2 -11 79.09 8.3
-5 2 -11 75.79 8.5
5 -2 11 54.19 8.3
5 -2 11 78.39 9.6
-6 2 -11 -1.8 5.6
-6 2 -11 17.5 15.7
6 -2 11 11 8.3
-7 2 -11 44.5 21.4
-8 2 -11 39.2 24.3
9 1 -11 -1.2 13.1
8 1 -11 18 17.9
8 1 -11 -5.6 10.4
8 1 -11 -6.6 9.7
7 1 -11 13.5 8.1
7 1 -11 5.5 9.5
6 1 -11 336.77 17.5
6 1 -11 361.26 22.5
5 1 -11 41.7 7.8
5 1 -11 50.29 7.5
5 1 -11 69.99 13.8
4 1 -11 610.24 19.8
4 1 -11 591.74 23.4
4 1 -11 632.04 23.9
-4 -1 11 635.84 27
3 1 -11 594.64 18.5
3 1 -11 595.64 13.3
3 1 -11 591.04 22.2
-3 -1 11 589.44 20.8
-3 -1 11 610.34 13.9
2 1 -11 97.79 13.9
2 1 -11 91.09 10
2 1 -11 91.69 9
-2 -1 11 86.49 8
-2 -1 11 98.29 12.4
1 1 -11 1500.85 30
1 1 -11 1476.55 27.6
1 1 -11 1434.96 28.1
1 1 -11 1473.55 33.8
-1 -1 11 1490.15 33.2
-1 -1 11 1412.26 27.8
-1 -1 11 1459.65 28.1
0 1 -11 209.48 9.9
0 1 -11 186.18 15
0 -1 11 211.98 14.8
0 -1 11 213.28 11.4
-1 1 -11 972.4 22.5
-1 1 -11 952.2 20.7
1 -1 11 954.5 26.5
1 -1 11 979.8 20.7
1 -1 11 925.61 27
-2 1 -11 -0.8 4.7
-2 1 -11 0.8 4.4
2 -1 11 1.2 5.7
2 -1 11 5.5 5.3
2 -1 11 2.4 4.4
-3 1 -11 367.76 14.2
-3 1 -11 371.56 12.8
3 -1 11 377.56 19.6
3 -1 11 358.26 13.7
3 -1 11 341.07 16.3
-4 1 -11 10.1 5.1
-4 1 -11 9.8 4.2
4 -1 11 2.2 6
4 -1 11 9 4.8
-5 1 -11 68.69 9.6
-5 1 -11 70.29 8.3
-5 1 -11 75.89 17.3
-5 1 -11 69.89 7.1
5 -1 11 70.49 9.7
5 -1 11 59.09 7.8
-6 1 -11 32.7 17.9
6 -1 11 17.3 8.3
6 -1 11 1.1 7.7
-7 1 -11 98.39 22.8
7 -1 11 83.89 12.3
7 -1 11 95.09 20
-8 1 -11 145.59 28.8
9 0 -11 64.09 34.9
9 0 -11 63.39 14.1
8 0 -11 37.9 18.5
8 0 -11 24.2 10.4
8 0 -11 25.7 11.2
7 0 -11 90.79 12.4
7 0 -11 88.29 10.3
6 0 -11 59.59 8.4
6 0 -11 40.5 8.6
6 0 -11 95.79 17.5
-6 0 11 65.69 10.2
5 0 -11 19.4 10
5 0 -11 18.3 6.1
5 0 -11 9.5 6.4
-5 0 11 11.9 6.9
4 0 -11 9 8.9
4 0 -11 10.8 6.1
4 0 -11 7.5 6.7
-4 0 11 9.3 3.3
-4 0 11 8.5 5.8
3 0 -11 35.1 4.2
3 0 -11 34 6.8
3 0 -11 25.7 5.9
-3 0 11 39.3 4.6
-3 0 11 24.8 5.8
2 0 -11 412.16 13.4
2 0 -11 416.06 15.2
2 0 -11 415.36 12.2
2 0 -11 414.26 19.3
-2 0 11 405.76 14.2
-2 0 11 417.06 18.1
1 0 -11 77.79 7.8
1 0 -11 70.09 9.6
1 0 -11 80.99 8
1 0 -11 79.39 13.6
-1 0 11 89.29 13.2
-1 0 11 67.69 8.8
-1 0 11 69.29 10.4
0 0 -11 844.62 19.8
0 0 -11 793.02 17.6
0 0 -11 785.12 22.3
0 0 11 816.42 24.4
0 0 11 801.22 20.1
0 0 11 826.12 25.5
-1 0 -11 387.96 13.7
-1 0 -11 383.76 12
-1 0 -11 378.96 14.2
1 0 11 382.36 15.2
1 0 11 387.26 18.8
1 0 11 383.76 11.7
-2 0 -11 913.61 23.1
-2 0 -11 889.81 19.6
-2 0 -11 929.81 20.6
2 0 11 896.71 23.5
2 0 11 930.21 19.5
2 0 11 895.91 27.3
-3 0 -11 506.15 14.8
-3 0 -11 520.05 14.3
3 0 11 525.95 14.7
3 0 11 529.55 19.1
-4 0 -11 4.2 4.1
-4 0 -11 -2.6 11.6
4 0 11 -0.3 6.5
4 0 11 2.4 4.8
-5 0 -11 61.69 19.6
-5 0 -11 50.69 9
5 0 11 44.4 13.2
5 0 11 59.79 7.6
6 0 11 46.8 9.9
6 0 11 46.8 10
-7 0 -11 77.69 23
7 0 11 31.4 11.2
7 0 11 39 10.9
-8 0 -11 45.3 25.6
8 0 11 21.7 11.7
9 -1 -11 8.6 12.8
9 -1 -11 35.2 23.3
8 -1 -11 81.69 19.8
7 -1 -11 24.4 9.3
7 -1 -11 30.1 8.8
6 -1 -11 9.7 7.6
6 -1 -11 7.9 6.8
6 -1 -11 24.8 11.3
6 -1 -11 30.8 12.5
-6 1 11 19.9 3.4
-6 1 11 10 7.5
5 -1 -11 7.9 6.5
5 -1 -11 5.6 6.4
5 -1 -11 5.5 8.7
5 -1 -11 13.4 8.9
-5 1 11 14.5 7
-5 1 11 6.2 3.6
4 -1 -11 6.3 6.4
4 -1 -11 2.8 5.4
4 -1 -11 5.4 7.5
-4 1 11 0.6 3.5
-4 1 11 -2.7 5.5
3 -1 -11 1333.47 29.3
3 -1 -11 1318.37 33.7
-3 1 11 1335.37 26
-3 1 11 1306.07 32.3
2 -1 -11 457.75 13.5
2 -1 -11 457.85 16.1
2 -1 -11 455.95 14.2
2 -1 -11 478.25 21
-2 1 11 462.35 14.5
-2 1 11 468.15 19.4
1 -1 -11 1.4 3.3
1 -1 -11 1.6 3.8
1 -1 -11 -4.8 5.6
1 -1 -11 -1.2 4.5
-1 1 11 7.8 4.5
-1 1 11 -8.1 9.2
-1 1 11 -4 5
0 -1 -11 118.49 7.5
0 -1 -11 118.59 10.3
0 -1 -11 119.69 10.7
0 1 11 117.09 10.9
0 1 11 118.59 14.9
0 1 11 102.39 14.4
-1 -1 -11 27 5.6
-1 -1 -11 24.8 4.2
1 1 11 17.8 7.2
1 1 11 34.7 14.1
1 1 11 26.2 5.8
-2 -1 -11 7.9 3.7
-2 -1 -11 7 4.5
2 1 11 3 7.2
2 1 11 6.5 3.3
2 1 11 10 5.5
2 1 11 5.9 13.3
-3 -1 -11 41.6 5.1
-3 -1 -11 47 12.9
3 1 11 38.4 4.5
3 1 11 29.8 7.5
3 1 11 39.1 7.4
-4 -1 -11 176.88 9.5
-4 -1 -11 164.18 15.3
-4 -1 -11 181.28 20.4
4 1 11 178.48 10.4
4 1 11 161.28 15.9
4 1 11 182.08 21
-5 -1 -11 43.4 17.6
5 1 11 39.8 6.6
5 1 11 29.4 8.7
-6 -1 -11 16.4 16.8
6 1 11 10.4 9.7
6 1 11 -3.1 8.8
-7 -1 -11 78.49 24
7 1 11 9.7 10.6
9 -2 -11 -0.6 12.6
9 -2 -11 33.4 24.2
8 -2 -11 114.29 22.5
8 -2 -11 107.39 26.2
7 -2 -11 224.08 25.2
7 -2 -11 228.98 22.5
7 -2 -11 201.18 23.8
7 -2 -11 246.78 24.5
-7 2 11 189.38 9.6
6 -2 -11 144.79 17.4
6 -2 -11 119.19 19.3
6 -2 -11 92.69 11.1
6 -2 -11 140.49 17.3
-6 2 11 130.19 20.2
-6 2 11 121.09 8.7
5 -2 -11 21.8 7.5
5 -2 -11 25.4 7.5
5 -2 -11 34.9 12.7
-5 2 11 20 7.5
-5 2 11 25 4.8
4 -2 -11 55.69 8.4
4 -2 -11 80.99 12
4 -2 -11 82.59 13.7
4 -2 -11 84.29 11.3
-4 2 11 92.89 8.9
-4 2 11 56.29 8.1
3 -2 -11 183.18 15.2
3 -2 -11 198.28 17.7
3 -2 -11 192.28 17.4
3 -2 -11 191.78 12.1
-3 2 11 204.18 15.6
-3 2 11 195.58 11.1
2 -2 -11 52.49 7.8
2 -2 -11 74.39 7.7
2 -2 -11 63.59 7.4
-2 2 11 80.39 10
-2 2 11 65.49 8.2
1 -2 -11 484.35 21.1
1 -2 -11 483.45 13.1
1 -2 -11 498.85 17.2
1 -2 -11 492.75 16.6
-1 2 11 511.85 20.5
-1 2 11 522.65 25.5
-1 2 11 519.35 17.1
0 -2 -11 19.8 3.4
0 -2 -11 22.2 5.6
0 -2 -11 17 5.3
0 2 11 17.2 5.9
0 2 11 28.5 14.8
0 2 11 22.3 7.1
-1 -2 -11 2.2 3
-1 -2 -11 2.3 5.3
-1 -2 -11 -7.1 4.3
1 2 11 -1.4 6.1
1 2 11 -1.1 5.5
1 2 11 3.2 12
-2 -2 -11 75.49 12.5
-2 -2 -11 53.09 7.1
2 2 11 64.39 8.4
2 2 11 63.49 9.5
2 2 11 74.79 18.3
-3 -2 -11 16.3 5.1
-3 -2 -11 16.6 7.1
-3 -2 -11 28.1 11.6
3 2 11 22.6 8.5
3 2 11 18.1 7.3
-4 -2 -11 48.9 5.6
-4 -2 -11 81.29 15.7
4 2 11 48.1 5.1
4 2 11 52.09 9.3
-5 -2 -11 115.79 20.2
5 2 11 56.49 12.2
5 2 11 67.19 7
-6 -2 -11 45.3 19.7
6 2 11 -1.2 9.9
-7 -2 -11 4.3 22.3
7 2 11 17.3 11.8
9 -3 -11 53.89 27.4
9 -3 -11 -6.1 13.5
8 -3 -11 -0.6 11
8 -3 -11 32.1 20.5
-8 3 11 -1.4 5.6
7 -3 -11 87.69 12.7
7 -3 -11 135.69 22.1
7 -3 -11 149.19 23.9
-7 3 11 109.39 11.5
6 -3 -11 10.3 9.6
6 -3 -11 8 13.9
6 -3 -11 3.1 8.3
6 -3 -11 29.5 12.1
-6 3 11 -7.4 8.8
-6 3 11 2 4.8
5 -3 -11 76.09 12.7
5 -3 -11 60.89 9.1
5 -3 -11 54.09 8.8
-5 3 11 61.39 9.2
-5 3 11 53.99 6.6
-5 3 11 58.39 9.1
4 -3 -11 138.59 17.9
4 -3 -11 136.39 16.8
4 -3 -11 131.39 11.4
-4 3 11 129.79 16.1
-4 3 11 138.49 18.4
-4 3 11 126.09 11.4
3 -3 -11 5.5 11.2
3 -3 -11 8.7 6.7
3 -3 -11 13.1 10.7
-3 3 11 9.9 5.3
-3 3 11 1.1 6
2 -3 -11 160.68 16.4
2 -3 -11 146.79 13.1
2 -3 -11 159.08 8.4
-2 3 11 167.68 22
-2 3 11 157.98 12.6
-2 3 11 154.68 13.7
-2 3 11 165.18 15.3
1 -3 -11 1483.95 32.3
1 -3 -11 1479.55 24.7
-1 3 11 1514.15 45.8
-1 3 11 1499.05 35.4
-1 3 11 1507.65 32.5
-1 3 11 1514.45 32.7
0 -3 -11 63.29 11.5
0 -3 -11 62.79 7.4
0 -3 -11 50.49 7.8
0 3 11 36.9 7.5
0 3 11 36.9 6.7
0 3 11 78.09 18.9
-1 -3 -11 329.17 16.9
-1 -3 -11 327.17 14.6
1 3 11 344.17 28.4
1 3 11 338.17 20.2
1 3 11 322.57 18.7
-2 -3 -11 96.79 15.4
-2 -3 -11 102.99 10.9
2 3 11 67.59 13.3
2 3 11 75.69 9
-3 -3 -11 7.2 5.5
-3 -3 -11 3.6 11.2
3 3 11 19.6 22
3 3 11 9.3 12.7
3 3 11 6.6 7.6
-4 -3 -11 5 13.1
-4 -3 -11 2.4 5.3
4 3 11 3.7 9.4
-5 -3 -11 32.3 18.8
5 3 11 4.1 9.1
-6 -3 -11 15.9 21.3
6 3 11 -1.1 11
9 -4 -11 35.9 30.8
9 -4 -11 -15.5 13.6
8 -4 -11 -11.9 11.3
8 -4 -11 35.7 25.2
-8 4 11 2.1 8.7
7 -4 -11 -1.2 9.7
7 -4 -11 8 18.5
-7 4 11 -0.4 6.9
6 -4 -11 182.78 18
6 -4 -11 178.18 21
6 -4 -11 211.98 27.4
-6 4 11 161.08 14
-6 4 11 169.38 20.3
-6 4 11 198.48 22.2
5 -4 -11 23.8 8.3
-5 4 11 34.9 7.9
-5 4 11 20.3 8.3
-5 4 11 22.9 7
4 -4 -11 447.26 28.5
4 -4 -11 432.86 22
-4 4 11 436.46 21.1
-4 4 11 401.26 17.2
-4 4 11 431.06 20.7
3 -4 -11 194.98 17.9
3 -4 -11 197.28 10.8
3 -4 -11 186.38 18.6
3 -4 -11 193.38 21.8
-3 4 11 222.78 16.3
-3 4 11 180.08 16.2
-3 4 11 192.38 14.3
2 -4 -11 0.7 3.2
-2 4 11 5.3 6.3
-2 4 11 -4.8 17.3
-2 4 11 -5 6
-2 4 11 6.2 6.1
1 -4 -11 -2.1 6.6
1 -4 -11 1.1 5.6
-1 4 11 -1.4 5.8
-1 4 11 -3.4 6
-1 4 11 2.9 16.2
-1 4 11 3.9 6.7
0 -4 -11 57.19 10
0 -4 -11 27.6 6.7
0 4 11 37.2 6.9
0 4 11 41.8 7.8
0 4 11 30.4 7.9
-1 -4 -11 -0.3 7.4
-1 -4 -11 -12.3 6.2
1 4 11 4.6 8.5
1 4 11 8.1 5.9
1 4 11 8.9 25.6
1 4 11 -2.7 6.8
-2 -4 -11 29.5 10.6
-2 -4 -11 18.7 7.2
2 4 11 48.9 29.9
2 4 11 12.7 7.7
2 4 11 20.3 9
-3 -4 -11 8.7 7.4
-3 -4 -11 10.8 11.6
3 4 11 -6.7 8.4
-4 -4 -11 27.9 18.4
4 4 11 -3.8 9.2
-5 -4 -11 323.27 32.3
5 4 11 303.37 26
-6 -4 -11 148.69 31.6
6 4 11 91.69 15.6
9 -5 -11 -7.8 16.7
9 -5 -11 42.6 31.1
8 -5 -11 10.1 13.1
-8 5 11 51.19 14.8
-8 5 11 28.4 12.2
7 -5 -11 41 28.4
7 -5 -11 17.9 10.6
-7 5 11 10.1 9.2
-7 5 11 10.1 10.9
6 -5 -11 1.8 9.6
6 -5 -11 9.1 9.2
6 -5 -11 21.4 22.8
-6 5 11 -5.8 9.1
-6 5 11 17.8 9.7
-6 5 11 7.7 7.8
5 -5 -11 60.19 20.7
5 -5 -11 38.3 8.8
5 -5 -11 34 9.2
-5 5 11 52.29 9
-5 5 11 45.8 10.8
-5 5 11 27.6 8.3
4 -5 -11 56.99 19.7
4 -5 -11 35 8.4
4 -5 -11 42.8 7.4
-4 5 11 47.7 9.8
-4 5 11 46.7 8.7
-4 5 11 44.9 8.5
3 -5 -11 21.7 5.5
3 -5 -11 32.8 18
-3 5 11 24.5 9.6
-3 5 11 19.5 7.7
-3 5 11 25.8 7.4
2 -5 -11 -5.9 8.1
-2 5 11 12.7 7.1
-2 5 11 7.9 8.8
-2 5 11 17.7 8
1 -5 -11 -7.3 9.3
-1 5 11 5.5 8.3
-1 5 11 5.8 7.3
-1 5 11 3.7 7.1
-1 5 11 -7.5 20.6
0 -5 -11 243.68 12
0 5 11 227.48 21.6
0 5 11 236.88 18.2
0 5 11 257.57 16.2
-1 -5 -11 56.39 10
1 5 11 33.7 9.5
1 5 11 37 7.4
1 5 11 14.9 9.3
-2 -5 -11 20.9 11.9
-2 -5 -11 18.3 10.6
2 5 11 -12.2 8
2 5 11 -6.7 10.6
-3 -5 -11 163.08 24.4
3 5 11 139.09 15.1
-4 -5 -11 57.59 22.8
4 5 11 32.9 12.9
-5 -5 -11 130.89 31.2
8 -6 -11 -13.4 15.6
-8 6 11 -7.5 14.7
-8 6 11 -21.7 14.1
7 -6 -11 77.69 15.1
-7 6 11 99.79 15.6
-7 6 11 109.69 14.8
6 -6 -11 45.8 11.6
6 -6 -11 38.2 8.1
-6 6 11 52.99 12.2
-6 6 11 55.19 13.2
5 -6 -11 88.79 11.8
5 -6 -11 133.39 32.9
5 -6 -11 138.49 19.1
-5 6 11 96.49 12.7
-5 6 11 107.69 13.7
-5 6 11 107.39 12.8
4 -6 -11 21.3 8.5
-4 6 11 20.2 10.4
-4 6 11 10 9.7
-4 6 11 11.8 9.9
3 -6 -11 113.09 34.7
-3 6 11 62.89 10.3
-3 6 11 59.39 11.4
-3 6 11 74.69 11.8
-2 6 11 -7 8.1
-2 6 11 8.5 8.9
-2 6 11 19.3 9.4
-1 6 11 22.6 9.7
-1 6 11 30.9 9.1
-1 6 11 6.1 9.7
0 6 11 10.7 10.3
0 6 11 33.9 10.7
0 6 11 21.7 9.4
-1 -6 -11 54.29 10.5
1 6 11 26.9 10.7
1 6 11 33.5 10.6
1 6 11 5.9 11.8
-2 -6 -11 17.3 14.9
2 6 11 18.2 11.3
-3 -6 -11 56.69 24.1
3 6 11 2.2 11.5
4 6 11 8 14.9
7 -7 -11 74.39 36.4
-7 7 11 12.2 16
-7 7 11 4.7 16.5
6 -7 -11 12.5 12.5
6 -7 -11 68.59 30.7
-6 7 11 -13.2 12
-6 7 11 -22.1 13.4
5 -7 -11 58.29 29.3
-5 7 11 21.9 12.2
-5 7 11 45.7 13.8
4 -7 -11 -16.1 22.9
-4 7 11 4.3 11.3
-4 7 11 -6.9 11.1
3 -7 -11 11.7 25.2
-3 7 11 9.7 11.3
-3 7 11 7.8 11.1
-2 7 11 12.6 10.3
-2 7 11 11.1 10.7
-1 7 11 219.08 24.7
-1 7 11 186.18 22.2
0 7 11 74.29 13.6
0 7 11 103.19 12.8
1 7 11 47.1 13.4
1 7 11 56.89 11.7
2 7 11 58.79 12.3
2 7 11 35.1 14.6
5 -8 -11 24.8 32.2
-5 8 11 20.7 15.5
-5 8 11 1.7 19.6
4 -8 -11 28.8 31.3
-4 8 11 -3.8 14.6
-4 8 11 -5.6 13.6
-3 8 11 6.2 13.5
-3 8 11 19.9 14.4
-2 8 11 14.7 13.5
-2 8 11 29.1 12.9
-1 8 11 27.6 15.4
-1 8 11 -5.6 11.7
0 8 11 8.7 28.1
0 8 11 29.2 12.4
1 10 -12 1.6 14.8
1 10 -12 -8.6 12
-1 -10 12 7.6 40.2
0 10 -12 -12.3 11.1
0 10 -12 -3.9 13.4
0 -10 12 21.2 37.1
-1 10 -12 23.9 12
-1 10 -12 25.2 14.2
1 -10 12 59.49 36.9
-2 10 -12 2.6 12.6
-2 10 -12 4.1 14.1
2 -10 12 44 40.3
-3 10 -12 -1.4 14.1
-3 10 -12 -7.1 14.2
3 -10 12 24.7 32.2
-4 10 -12 13.9 17.1
-4 10 -12 20.9 15.1
4 -10 12 8.2 36.1
3 9 -12 5 10.5
3 9 -12 21.6 11.5
2 9 -12 56.99 12
2 9 -12 62.79 12.3
1 9 -12 78.99 13.2
-1 -9 12 90.09 35.8
0 9 -12 49.9 11.3
0 9 -12 82.89 13.5
-1 9 -12 93.59 13.2
-1 9 -12 78.69 13.3
1 -9 12 141.69 34
-2 9 -12 5 10.1
-2 9 -12 7.5 11
2 -9 12 10.3 27.8
-3 9 -12 -9.1 10.8
-3 9 -12 11.1 11.5
3 -9 12 28 28.3
-4 9 -12 206.38 24.6
4 -9 12 181.88 46
-5 9 -12 1.8 13.5
-5 9 -12 22.8 14.1
5 -9 12 40.8 36.3
-6 9 -12 135.49 19.1
5 8 -12 102.79 15.6
5 8 -12 56.59 13.4
5 8 -12 86.99 13.5
4 8 -12 104.69 12.9
4 8 -12 123.19 13.7
3 8 -12 293.47 21.7
3 8 -12 269.97 22.5
3 8 -12 270.37 21.5
2 8 -12 176.38 21.1
2 8 -12 183.98 19.3
2 8 -12 177.58 17.5
2 8 -12 194.78 20.4
1 8 -12 -8.5 9.2
1 8 -12 -3.1 8.6
1 8 -12 7.4 8.4
1 8 -12 4.3 6.3
-1 -8 12 -9.1 16.8
0 8 -12 43.8 13.3
0 8 -12 40.5 9.9
0 8 -12 61.99 10.9
0 -8 12 47.4 9.1
0 -8 12 71.79 22.4
-1 8 -12 31.3 10.2
-1 8 -12 47.8 10.5
1 -8 12 36.3 7.5
1 -8 12 74.39 21.8
-2 8 -12 517.95 24.8
-2 8 -12 541.45 25.3
2 -8 12 539.25 39.1
2 -8 12 514.95 21.1
-3 8 -12 18.1 9.4
-3 8 -12 0.6 9
3 -8 12 2.3 22
3 -8 12 -3.3 7.9
-4 8 -12 104.09 13.2
-4 8 -12 110.69 17.4
4 -8 12 145.79 32.9
-5 8 -12 72.89 13.5
-5 8 -12 48.2 12.9
5 -8 12 64.49 34.5
-6 8 -12 11.3 13
-6 8 -12 19.9 13.3
6 -8 12 -48.7 36.3
-7 8 -12 -49.99 28.5
-7 8 -12 20.8 18.7
6 7 -12 8 12
6 7 -12 44.2 12.3
5 7 -12 299.97 22.6
5 7 -12 244.58 26.4
4 7 -12 25.1 9.4
4 7 -12 32.1 9.4
3 7 -12 36.1 10.2
3 7 -12 22.1 7.8
3 7 -12 31 11.7
2 7 -12 26.3 7.7
2 7 -12 20.4 6.9
2 7 -12 18.3 7.6
1 7 -12 1 7.4
1 7 -12 6.9 6.2
1 7 -12 7.9 6.9
-1 -7 12 6.4 13.5
-1 -7 12 4.3 7.4
0 7 -12 255.57 20.8
0 7 -12 259.47 17.4
0 -7 12 262.07 24.5
0 -7 12 257.97 17.1
-1 7 -12 27.8 8.3
-1 7 -12 33.1 8.5
1 -7 12 43.2 18.2
1 -7 12 22.8 8
-2 7 -12 6 8
-2 7 -12 5.5 7.4
-2 7 -12 4.4 8.7
2 -7 12 -3.6 6.7
2 -7 12 8.3 18.5
-3 7 -12 177.88 19.2
-3 7 -12 163.78 18.1
3 -7 12 157.98 18
3 -7 12 182.18 30.1
-4 7 -12 8.5 8.7
-4 7 -12 -6.4 8.4
4 -7 12 -5.8 9.2
4 -7 12 -14 23.6
-5 7 -12 -11.5 9.9
-5 7 -12 6.5 10
5 -7 12 -14.9 10.7
-6 7 -12 12.6 11.3
-6 7 -12 34.1 11.7
-7 7 -12 9.1 14.6
-7 7 -12 21.3 25.9
-7 7 -12 63.59 15.2
7 6 -12 -11.2 13
7 6 -12 25.4 13.1
6 6 -12 -10.7 9.8
6 6 -12 -5.9 9.8
5 6 -12 -7.8 8.2
5 6 -12 6.7 8.2
4 6 -12 -1 7.9
4 6 -12 -6.8 7
4 6 -12 -10.9 5.3
3 6 -12 4.3 5.7
3 6 -12 2.1 6.8
3 6 -12 5 6.5
2 6 -12 42.8 6.8
2 6 -12 40.5 7.6
2 6 -12 38.9 7.3
-2 -6 12 41.8 8.1
1 6 -12 5.6 5.9
1 6 -12 7.1 6.2
1 6 -12 9.8 6
-1 -6 12 12.8 6.2
-1 -6 12 23.4 12.1
0 6 -12 471.65 18.5
0 6 -12 479.15 19.7
0 6 -12 492.85 19.4
0 -6 12 453.55 19.1
0 -6 12 466.55 25.5
-1 6 -12 359.96 17.4
-1 6 -12 398.36 18.6
1 -6 12 358.86 17.5
1 -6 12 379.66 25.9
-2 6 -12 20.6 8.3
-2 6 -12 33.6 7.8
2 -6 12 34.4 17.7
2 -6 12 15.2 6.7
-3 6 -12 18.3 7.3
-3 6 -12 2.9 7.7
3 -6 12 10.3 7.6
3 -6 12 7.8 7.8
-4 6 -12 28.9 8.7
-4 6 -12 30.4 7.8
4 -6 12 15.3 8.6
-5 6 -12 94.99 11.7
-5 6 -12 102.29 11.4
-6 6 -12 10.9 10
-6 6 -12 7.4 10.1
6 -6 12 -6.7 10.4
-7 6 -12 24.6 11.7
-7 6 -12 -12.8 22
-7 6 -12 -22.4 21.7
-8 6 -12 17.1 24.8
8 5 -12 21.2 14.2
8 5 -12 -3 15.7
7 5 -12 1 11.6
7 5 -12 3.6 10.8
6 5 -12 50.69 10.4
6 5 -12 46 11.6
5 5 -12 47.5 9.9
5 5 -12 26.1 10.8
4 5 -12 161.08 18.3
4 5 -12 175.78 9.1
4 5 -12 168.28 18.8
3 5 -12 107.59 19.1
3 5 -12 119.39 9.8
3 5 -12 124.19 13.9
3 5 -12 122.39 15.9
-3 -5 12 117.49 16.9
2 5 -12 13.4 5.8
2 5 -12 9 8.5
2 5 -12 18 6.6
-2 -5 12 7.9 5.9
1 5 -12 1447.76 29.7
1 5 -12 1451.95 34.2
1 5 -12 1391.76 32
-1 -5 12 1416.76 34.8
-1 -5 12 1429.86 33
0 5 -12 619.94 25.2
0 5 -12 600.54 21.6
0 5 -12 623.04 20.4
0 -5 12 585.14 20.4
0 -5 12 603.34 24.4
-1 5 -12 123.99 13
-1 5 -12 125.19 12.9
1 -5 12 115.49 13.8
1 -5 12 115.19 18.4
-2 5 -12 34.5 6.8
-2 5 -12 34.1 6.8
2 -5 12 38.7 7.6
2 -5 12 47.1 7.6
-3 5 -12 50.39 8
-3 5 -12 52.59 8.8
3 -5 12 53.09 8.7
3 -5 12 44.2 7.7
-4 5 -12 53.79 9.2
-4 5 -12 27.2 7.9
-4 5 -12 54.39 7.8
4 -5 12 37.5 8.9
4 -5 12 52.79 10
-5 5 -12 7.3 6.5
-5 5 -12 10.4 8.2
5 -5 12 5.7 12
-6 5 -12 52.19 10.6
-6 5 -12 49.4 8.6
-7 5 -12 23.6 10.2
-7 5 -12 59.49 23
-8 5 -12 15.3 23.5
8 4 -12 20.3 12.7
8 4 -12 10.6 14.4
7 4 -12 25.8 10.6
7 4 -12 29.8 11.7
6 4 -12 125.59 17.1
6 4 -12 88.59 13
6 4 -12 95.59 11.4
5 4 -12 5.6 7.7
5 4 -12 9.5 7.2
4 4 -12 223.98 7.5
4 4 -12 231.28 18.6
4 4 -12 232.08 15.6
3 4 -12 34.2 4.4
3 4 -12 31.7 6.6
3 4 -12 28.2 7.2
-3 -4 12 22.7 7.2
2 4 -12 365.76 19.1
2 4 -12 340.97 15.8
2 4 -12 340.57 12.4
-2 -4 12 344.57 17.9
1 4 -12 12.5 5
1 4 -12 9.6 6.5
1 4 -12 8 5.1
-1 -4 12 6.9 5.4
-1 -4 12 6.1 8.5
0 4 -12 168.78 15.7
0 4 -12 180.28 12.6
0 4 -12 168.28 11.5
0 -4 12 169.48 15.7
0 -4 12 173.48 14.5
0 -4 12 178.28 13
-1 4 -12 7.8 5.1
-1 4 -12 10.8 5.5
1 -4 12 8.5 5.9
1 -4 12 11.2 5.7
-2 4 -12 5.8 5.8
-2 4 -12 15.6 6.1
2 -4 12 20 6.3
2 -4 12 10 6.4
-3 4 -12 8.7 5.8
-3 4 -12 7 6.3
3 -4 12 -0.3 6.2
3 -4 12 5.1 6.8
-4 4 -12 7.3 7.3
4 -4 12 -0.9 6.7
4 -4 12 2.9 7.3
-5 4 -12 109.99 12.1
-5 4 -12 93.59 14.3
5 -4 12 65.99 10.2
5 -4 12 73.99 11.2
-6 4 -12 38.6 10.4
-6 4 -12 31.5 7.3
-7 4 -12 5.5 8.1
-7 4 -12 9.8 19
-8 4 -12 27.4 24.2
8 3 -12 3 12.2
7 3 -12 -14.2 9.3
7 3 -12 -1 9.4
6 3 -12 -8.5 7.7
6 3 -12 9.7 7.4
5 3 -12 37.7 7.8
5 3 -12 42.1 8.1
5 3 -12 34.3 8.3
5 3 -12 56.89 15.1
-5 -3 12 47.7 9.8
4 3 -12 21.3 7.2
4 3 -12 23.2 6.4
4 3 -12 18.1 2.6
-4 -3 12 15.2 8.3
3 3 -12 248.28 9.2
3 3 -12 253.97 18
3 3 -12 250.37 14
-3 -3 12 262.97 17.7
2 3 -12 15 6.5
2 3 -12 22.2 4.3
2 3 -12 19.3 5.6
-2 -3 12 21.9 6.2
1 3 -12 131.99 15.8
1 3 -12 121.19 11
-1 -3 12 148.29 14
0 3 -12 455.55 20.2
0 3 -12 473.85 15.6
0 3 -12 467.35 16.2
0 -3 12 458.75 21.6
-1 3 -12 165.98 12
-1 3 -12 160.38 12
1 -3 12 155.38 11.5
1 -3 12 169.38 15.3
-2 3 -12 64.29 7.8
-2 3 -12 70.49 7.8
2 -3 12 51.29 7.7
2 -3 12 60.39 7
-3 3 -12 274.77 14.9
3 -3 12 313.67 19.4
3 -3 12 261.17 14.4
-4 3 -12 819.32 23.6
-5 3 -12 46.6 8.6
-5 3 -12 51.69 6.5
5 -3 12 57.69 9.4
5 -3 12 47 10.6
-6 3 -12 39.5 6.5
-6 3 -12 33.4 19.1
-7 3 -12 25.6 19.5
-8 3 -12 46 24.3
9 2 -12 14.5 15.7
8 2 -12 0.4 11.6
7 2 -12 -7 8.9
7 2 -12 -15.1 9.3
6 2 -12 34.9 9.5
6 2 -12 49.3 15.4
6 2 -12 31.3 9.1
5 2 -12 47.4 9.3
5 2 -12 58.59 8.5
-5 -2 12 51.09 9.8
4 2 -12 20.6 6.4
4 2 -12 13.6 10.9
4 2 -12 15.2 6.9
4 2 -12 18.1 2.7
-4 -2 12 12.4 6.8
3 2 -12 507.15 17.3
3 2 -12 501.05 12.4
3 2 -12 508.35 22
-3 -2 12 505.65 21.1
2 2 -12 135.69 16
2 2 -12 127.29 8.2
2 2 -12 119.99 10.8
-2 -2 12 114.19 13.7
-2 -2 12 125.59 9.2
1 2 -12 2102.29 44
1 2 -12 2052.89 38.3
1 2 -12 2087.69 37
-1 -2 12 2038.7 37.2
-1 -2 12 2114.59 42.9
0 2 -12 57.69 8.1
0 2 -12 83.09 9.6
0 2 -12 84.49 9.6
0 -2 12 75.59 10.2
0 -2 12 91.49 13.9
-1 2 -12 43.1 6.2
-1 2 -12 43.7 6
1 -2 12 46 5.9
1 -2 12 45.7 6.9
1 -2 12 35.3 7.1
-2 2 -12 32.9 6.5
-2 2 -12 27.4 6
2 -2 12 29.9 5.4
2 -2 12 36.3 8
2 -2 12 35.6 7.3
-3 2 -12 -1.7 5.2
3 -2 12 -2.2 6.9
3 -2 12 4.6 7.1
3 -2 12 -3.2 6
-4 2 -12 627.14 19.9
4 -2 12 640.94 22.5
4 -2 12 621.24 19.8
-5 2 -12 152.58 10.2
-5 2 -12 163.88 14.7
-5 2 -12 160.78 11.9
-5 2 -12 172.58 24
5 -2 12 130.59 14.6
5 -2 12 120.69 15.6
5 -2 12 186.28 23.1
-6 2 -12 2.8 5
-6 2 -12 -0.9 15
-6 2 -12 1.1 4.6
6 -2 12 -11.2 8.9
-7 2 -12 147.89 26
-8 2 -12 23.1 25.5
9 1 -12 8.7 15.7
8 1 -12 -8.8 10.4
7 1 -12 -7.9 8.3
7 1 -12 -1.9 8.4
6 1 -12 21 11.7
6 1 -12 38.8 14.6
6 1 -12 23.8 8.3
-6 -1 12 6.8 10.7
5 1 -12 149.99 14.7
5 1 -12 154.28 18.4
5 1 -12 157.18 18.1
4 1 -12 266.37 18.5
4 1 -12 252.17 18.7
4 1 -12 247.08 15.2
-4 -1 12 243.38 8.6
3 1 -12 45.3 7.4
3 1 -12 61.79 6.4
3 1 -12 54.59 6.7
3 1 -12 52.09 7.1
-3 -1 12 70.09 7.8
-3 -1 12 46.3 7.8
2 1 -12 486.25 21.7
2 1 -12 472.25 15.5
2 1 -12 482.65 21.9
2 1 -12 510.05 13.7
-2 -1 12 478.45 14.3
-2 -1 12 523.35 20.5
1 1 -12 110.09 9.5
1 1 -12 115.19 11.1
1 1 -12 108.49 15.5
1 1 -12 113.79 9.2
-1 -1 12 111.39 9.7
-1 -1 12 120.09 14.2
-1 -1 12 119.29 10.2
0 1 -12 -0.6 5.9
0 1 -12 6.5 5
0 1 -12 9 4.2
0 1 -12 -2.1 3.9
0 -1 12 1.3 6.2
0 -1 12 8.5 5.1
-1 1 -12 340.07 13
-1 1 -12 359.86 14.3
-1 1 -12 357.96 14.1
1 -1 12 346.97 18.7
1 -1 12 335.87 15.1
1 -1 12 354.26 14
-2 1 -12 773.62 20.5
-2 1 -12 766.02 21.3
-2 1 -12 716.53 21.4
2 -1 12 706.73 21.2
2 -1 12 733.83 25.2
2 -1 12 732.73 21.9
-3 1 -12 403.46 14.3
-3 1 -12 405.16 14.9
3 -1 12 403.06 14.3
3 -1 12 397.26 17.5
-4 1 -12 19.1 5.8
-4 1 -12 22.4 6.7
-4 1 -12 18.1 5.1
4 -1 12 14.4 5.8
4 -1 12 14.7 6.9
-5 1 -12 209.78 11.1
-5 1 -12 198.58 24.4
5 -1 12 236.88 17.9
5 -1 12 223.58 15
-6 1 -12 3.9 16.1
6 -1 12 -2.3 8.5
-7 1 -12 34.1 21.7
7 -1 12 13.8 10.2
-8 1 -12 70.79 27.1
9 0 -12 6.4 14.3
8 0 -12 24.9 11.5
7 0 -12 93.69 19.4
7 0 -12 56.29 11.8
7 0 -12 43.8 9.7
6 0 -12 253.27 17.6
-6 0 12 248.58 23.7
5 0 -12 265.57 20.4
5 0 -12 250.77 18.6
5 0 -12 241.38 15.5
-5 0 12 251.67 8.4
-5 0 12 247.28 19.8
4 0 -12 46.4 8.6
4 0 -12 45.3 10.8
4 0 -12 31 10.2
-4 0 12 49.6 7.1
-4 0 12 29.2 7.3
3 0 -12 343.47 20
3 0 -12 342.87 15.9
3 0 -12 326.07 11.3
-3 0 12 346.77 12.1
-3 0 12 331.47 18
2 0 -12 135.29 16.7
2 0 -12 145.99 12.3
2 0 -12 157.88 10.2
-2 0 12 144.19 10.2
-2 0 12 153.58 10.9
-2 0 12 146.99 15.5
1 0 -12 722.53 18.4
1 0 -12 719.83 24.6
1 0 -12 737.03 20.1
1 0 -12 718.13 17.7
-1 0 12 718.93 19
-1 0 12 722.63 24.3
0 0 -12 11.2 5.2
0 0 -12 14.6 4.1
0 0 -12 14.8 4.6
0 0 12 14.3 9.6
0 0 12 5.4 5.8
0 0 12 10.2 5.2
-1 0 -12 -2.8 4.5
-1 0 -12 4.6 4.2
-1 0 -12 7.2 4.9
1 0 12 7.8 5.9
1 0 12 6.8 5.9
-2 0 -12 496.75 14.6
-2 0 -12 495.35 19.5
2 0 12 537.85 19
2 0 12 521.35 14.4
-3 0 -12 96.89 10
-3 0 -12 80.49 9.5
3 0 12 102.59 9.5
3 0 12 105.09 13.7
-4 0 -12 4.9 4.9
-4 0 -12 -10.4 6.7
-4 0 -12 4.2 12.6
4 0 12 -3.6 6.5
4 0 12 8.5 5.3
-5 0 -12 30.9 16.4
5 0 12 26.4 9
5 0 12 40.1 7.1
-6 0 -12 20.6 17.6
6 0 12 11 9.1
6 0 12 0 10
-7 0 -12 217.08 35.3
7 0 12 162.88 23.4
8 0 12 75.49 15.7
9 -1 -12 3.3 13.8
8 -1 -12 100.99 29.8
7 -1 -12 37.9 12.5
7 -1 -12 21.5 10.7
7 -1 -12 31.2 16.8
6 -1 -12 18.4 12.9
6 -1 -12 6.7 9.9
6 -1 -12 16.2 9.3
-6 1 12 10.3 8.3
-6 1 12 3.3 3.4
5 -1 -12 7.5 6.3
5 -1 -12 13.5 7.4
5 -1 -12 11.1 8.7
5 -1 -12 16.4 10.2
-5 1 12 10.2 7.5
-5 1 12 8.9 3.8
4 -1 -12 9.1 6.4
4 -1 -12 8.7 6.5
4 -1 -12 18.6 9.3
-4 1 12 7.2 6.5
-4 1 12 13.9 4.4
3 -1 -12 35.4 7.7
-3 1 12 39.1 5.5
-3 1 12 32.1 7
2 -1 -12 394.86 13.2
2 -1 -12 385.56 16.1
2 -1 -12 396.56 20.9
2 -1 -12 399.36 14.2
-2 1 12 378.56 19.6
-2 1 12 383.56 14.4
-2 1 12 376.06 19.4
1 -1 -12 254.37 10.2
1 -1 -12 236.88 12.1
1 -1 -12 256.97 18.5
1 -1 -12 272.27 14
-1 1 12 258.47 17.8
-1 1 12 262.47 18.4
-1 1 12 263.37 13.3
0 -1 -12 1252.57 27.6
0 -1 -12 1261.97 28.1
0 -1 -12 1254.37 23.6
0 1 12 1261.77 28.3
0 1 12 1223.28 32.6
0 1 12 1261.47 36.7
-1 -1 -12 1161.38 25.6
-1 -1 -12 1166.08 22.1
-1 -1 -12 1145.59 27.6
1 1 12 1175.38 28.1
1 1 12 1195.38 38.4
1 1 12 1150.08 32.2
-2 -1 -12 5.2 3.7
-2 -1 -12 6.3 5.8
2 1 12 9.4 6.1
2 1 12 14.7 14.4
2 1 12 -3.3 6.4
-3 -1 -12 18.6 12.1
-3 -1 -12 19.9 5.3
3 1 12 3 6.2
3 1 12 4.6 8.1
3 1 12 21.9 4.4
-4 -1 -12 47.2 14.8
-4 -1 -12 28.1 5.2
4 1 12 30.5 8.7
4 1 12 32.4 5.8
-5 -1 -12 167.48 26
5 1 12 153.08 20.4
5 1 12 109.09 13.5
-6 -1 -12 28.9 20
6 1 12 10.7 10
-7 -1 -12 6.5 22.4
7 1 12 -12.9 10.6
9 -2 -12 -29.5 14.1
8 -2 -12 108.89 32.8
7 -2 -12 74.69 17.9
7 -2 -12 67.19 12.5
-7 2 12 74.19 9.1
6 -2 -12 36.7 13.7
6 -2 -12 -3.8 7.4
6 -2 -12 21.3 12.7
6 -2 -12 11.5 10.3
-6 2 12 15.8 9.8
-6 2 12 12 4.5
5 -2 -12 139.19 15.7
5 -2 -12 108.89 14.9
5 -2 -12 144.59 19.1
5 -2 -12 146.99 16.6
-5 2 12 145.99 18.4
-5 2 12 120.89 10.2
4 -2 -12 51.99 12
4 -2 -12 56.09 10.2
4 -2 -12 39 8.3
-4 2 12 40.1 5.7
-4 2 12 30.7 7.7
3 -2 -12 727.13 21.4
3 -2 -12 740.03 26.7
-3 2 12 729.53 25
-3 2 12 727.53 19.6
2 -2 -12 4 6.5
2 -2 -12 5 5.6
2 -2 -12 5.9 3.9
-2 2 12 -0.9 6.5
-2 2 12 9 13.1
-2 2 12 11.4 5.3
1 -2 -12 36 4.3
1 -2 -12 29.1 6.2
1 -2 -12 26.7 6.3
-1 2 12 27.4 7.2
-1 2 12 29.9 6.1
-1 2 12 53.39 16.1
0 -2 -12 106.99 11.2
0 -2 -12 117.59 12
0 -2 -12 100.09 6.8
0 2 12 133.69 24.9
0 2 12 121.29 12.8
0 2 12 105.39 16.4
-1 -2 -12 238.18 13
-1 -2 -12 251.87 8
-1 -2 -12 239.28 14.9
1 2 12 252.57 19.2
1 2 12 276.67 16
1 2 12 237.88 22.3
-2 -2 -12 0.7 9.9
-2 -2 -12 -10.4 4.9
2 2 12 2.8 16.1
2 2 12 5.7 6.6
2 2 12 -0.2 7.2
-3 -2 -12 13.4 6.2
-3 -2 -12 25.9 12.7
-3 -2 -12 12.9 7.9
3 2 12 8.9 8.6
3 2 12 29.5 19.2
-4 -2 -12 33.9 6.8
-4 -2 -12 65.79 15.4
4 2 12 41.6 5.8
4 2 12 34.8 9.4
-5 -2 -12 55.79 19.5
5 2 12 31.9 6.5
5 2 12 32 10.4
-6 -2 -12 41.4 21.4
6 2 12 2.1 11.1
-7 -2 -12 124.99 29.6
7 2 12 34.2 14.4
9 -3 -12 -18.2 14.6
8 -3 -12 76.89 14.7
7 -3 -12 66.69 19.1
7 -3 -12 78.99 20.4
7 -3 -12 36.7 13.2
-7 3 12 49.3 7.4
6 -3 -12 0.4 9.8
6 -3 -12 11.5 12.5
6 -3 -12 -0.6 14.9
-6 3 12 7.9 9.6
-6 3 12 -5.2 5.3
5 -3 -12 129.09 20.2
5 -3 -12 137.39 15.2
5 -3 -12 129.29 17.3
-5 3 12 108.19 18.2
-5 3 12 130.49 12.2
4 -3 -12 214.98 20.1
4 -3 -12 218.08 19.6
4 -3 -12 205.68 13.1
-4 3 12 216.08 13.5
-4 3 12 212.08 18.5
3 -3 -12 41.5 8.3
-3 3 12 30.9 6.4
-3 3 12 28.1 7.6
-3 3 12 33.7 7.9
2 -3 -12 197.98 18.2
2 -3 -12 172.38 16.6
2 -3 -12 204.28 9.4
-2 3 12 217.28 13.9
-2 3 12 223.58 24
1 -3 -12 59.59 6
1 -3 -12 50.59 8.1
-1 3 12 61.09 7.5
-1 3 12 78.99 19
0 -3 -12 128.39 15.4
0 -3 -12 95.79 12.8
0 -3 -12 80.39 8.7
0 3 12 102.99 23
0 3 12 78.99 8.9
-1 -3 -12 9.8 9.3
-1 -3 -12 1.2 6.1
1 3 12 26.8 17.5
1 3 12 12.2 6.8
-2 -3 -12 26.9 11.9
-2 -3 -12 29.2 6.9
2 3 12 65.39 19.7
2 3 12 26.6 10
2 3 12 23.2 9.4
-3 -3 -12 10.8 6.8
-3 -3 -12 0.9 12
3 3 12 -4.6 8.7
-4 -3 -12 -3.9 5.3
4 3 12 10.3 11.4
-5 -3 -12 9.3 18.4
5 3 12 1.5 10.6
-6 -3 -12 200.58 36.6
6 3 12 109.69 15.2
9 -4 -12 -17 15
8 -4 -12 -19.1 11.9
-8 4 12 -6.1 9.5
7 -4 -12 -9.2 10.8
7 -4 -12 36 35.2
-7 4 12 -4.9 8.1
6 -4 -12 21.3 9.7
6 -4 -12 4.6 11
-6 4 12 7.5 6.9
-6 4 12 -0.6 9.8
-6 4 12 13.5 9.8
5 -4 -12 -1.2 8.3
5 -4 -12 6.9 15.9
-5 4 12 4.9 8.1
-5 4 12 8.3 6.7
-5 4 12 -3.1 8.8
4 -4 -12 29.8 16
4 -4 -12 24.3 8.5
-4 4 12 14.4 6.9
-4 4 12 12.8 7.4
-4 4 12 13.7 7.8
3 -4 -12 412.16 14.5
3 -4 -12 447.36 28.7
3 -4 -12 414.76 21.4
3 -4 -12 446.96 22.8
-3 4 12 426.16 19.2
-3 4 12 460.45 21.4
-3 4 12 410.16 21.4
2 -4 -12 0.1 7.1
2 -4 -12 4.2 6.6
2 -4 -12 0.4 3.2
-2 4 12 4.7 6.7
-2 4 12 6.3 6.7
-2 4 12 -7.6 7.1
-2 4 12 9.3 19.2
1 -4 -12 56.99 9
-1 4 12 40.4 8.1
-1 4 12 41 7.8
-1 4 12 35.9 8.8
-1 4 12 84.49 22.5
0 -4 -12 23.2 8.9
0 4 12 68.49 8.7
0 4 12 44.2 9
-1 -4 -12 39.8 8.4
1 4 12 27.6 8.4
1 4 12 37.9 10
-2 -4 -12 24.5 11.2
-2 -4 -12 11.3 7.8
2 4 12 9.9 9.2
2 4 12 -10 9.5
-3 -4 -12 51.09 15.7
-3 -4 -12 22 8.5
3 4 12 28.1 10.4
-4 -4 -12 58.69 18.9
4 4 12 19.8 12.4
-5 -4 -12 111.09 25.9
5 4 12 47.1 14.2
8 -5 -12 78.79 33
8 -5 -12 -4 14.5
-8 5 12 2.9 14
7 -5 -12 39.9 13
-7 5 12 61.29 13.4
-7 5 12 56.99 12.3
6 -5 -12 76.59 24.5
6 -5 -12 28.4 12.5
6 -5 -12 19.5 9.5
-6 5 12 32.2 11
-6 5 12 40.8 11.7
-6 5 12 8.4 14.9
5 -5 -12 6.7 9.6
5 -5 -12 19 20.6
5 -5 -12 3.8 9
-5 5 12 -0.8 9.9
-5 5 12 6.3 10
-5 5 12 1.7 10.8
4 -5 -12 13.2 17
4 -5 -12 2.8 8.3
4 -5 -12 9.4 7.2
-4 5 12 9.1 7.5
-4 5 12 -0.3 8.7
3 -5 -12 88.09 10.4
3 -5 -12 142.89 26.2
-3 5 12 112.39 17.6
-3 5 12 136.59 18.4
-3 5 12 102.49 12
-2 5 12 3.5 8.1
-2 5 12 9.7 7.8
-2 5 12 8.5 7.9
-2 5 12 -4 24.4
-1 5 12 -1.9 12.1
-1 5 12 15.4 24.8
-1 5 12 -7.2 7.7
-1 5 12 2.6 8.3
0 -5 -12 5.7 8.5
0 -5 -12 12.4 7.6
0 5 12 4.3 7.1
0 5 12 3.2 8.9
0 5 12 8.8 8.4
-1 -5 -12 17.8 11.9
-1 -5 -12 39.6 11.3
1 5 12 30.5 9.5
-2 -5 -12 24 14
2 5 12 15.6 11.2
-3 -5 -12 322.67 28.6
3 5 12 347.67 26.6
-4 -5 -12 12 25.9
4 5 12 13.1 13.6
7 -6 -12 8.6 15.1
-7 6 12 14.1 14.5
-7 6 12 23.7 14.2
6 -6 -12 -4.3 11.6
6 -6 -12 9.4 28.6
-6 6 12 11.9 11
-6 6 12 0 12.1
5 -6 -12 25 24.1
5 -6 -12 4.9 9.9
-5 6 12 -0.5 10
-5 6 12 6.4 11.1
-5 6 12 19.4 11.4
4 -6 -12 -16.4 20.4
-4 6 12 -5.5 10.8
-4 6 12 -10 9.3
-4 6 12 4.9 10.6
3 -6 -12 55.39 25.4
-3 6 12 19.7 10.1
-3 6 12 33.1 10.9
-3 6 12 24.9 10
-2 6 12 5.6 9.5
-2 6 12 -17.2 9.2
-2 6 12 6.7 9.5
-1 6 12 4.9 9.7
-1 6 12 24.6 10.1
-1 6 12 12.7 11.1
0 6 12 -5.4 8.6
0 6 12 -22.7 11.3
0 6 12 -4.3 9.5
1 6 12 8.2 10.6
1 6 12 9.9 8.6
2 6 12 14.6 12.2
3 6 12 27.6 15.2
6 -7 -12 14.1 36.2
-6 7 12 21.5 14
-6 7 12 5.2 14.8
5 -7 -12 41.4 29.8
-5 7 12 1 12.6
-5 7 12 -5.2 13.6
4 -7 -12 11.4 26.7
-4 7 12 6.8 12.5
-4 7 12 6.4 12.1
-3 7 12 -12.2 11.5
-3 7 12 15.9 11.4
-2 7 12 -17 11.2
-2 7 12 -1.6 11.1
-1 7 12 10.9 10.8
-1 7 12 -7.3 11.8
0 7 12 -5.6 10.2
0 7 12 21.6 13.6
1 7 12 44.1 14
1 7 12 60.69 12.2
4 -8 -12 28.9 36.2
-4 8 12 0.6 15.2
-3 8 12 8.3 14.9
-3 8 12 11.3 14.9
-2 8 12 16.1 14.7
-2 8 12 17 21
1 10 -13 2.1 15.5
1 10 -13 -12.7 13
-1 -10 13 7 39.2
0 10 -13 17.3 13.2
0 10 -13 19.9 15.5
0 -10 13 98.49 42.3
-1 10 -13 21.1 13.2
-1 10 -13 25.8 15.2
1 -10 13 68.59 41.8
-2 10 -13 3.1 15.1
-2 10 -13 6.3 14.1
2 -10 13 39.9 37.4
-3 10 -13 4.7 14.6
-3 10 -13 19.9 15.4
3 -10 13 111.89 64.29
3 9 -13 -11.8 11.4
3 9 -13 10.5 13.4
2 9 -13 11.1 11.1
2 9 -13 0.1 11.9
1 9 -13 -9.7 10.2
1 9 -13 22.2 11.8
-1 -9 13 38.5 31
0 9 -13 -1.5 10.1
0 9 -13 -2.2 10.5
-1 9 -13 118.09 14
-1 9 -13 128.39 15.8
1 -9 13 185.48 36.4
-2 9 -13 -9.6 10.7
-2 9 -13 -11.8 10.6
2 -9 13 24.1 29.4
-3 9 -13 14.1 11.7
-3 9 -13 35.8 12.9
3 -9 13 65.59 31.4
-4 9 -13 16.4 13.1
-4 9 -13 11.2 13.5
4 -9 13 66.99 36.1
-5 9 -13 40.5 16.1
-5 9 -13 39.7 15.8
5 -9 13 91.59 40.1
5 8 -13 4.6 11.8
4 8 -13 23.6 11.1
4 8 -13 13.6 10.3
3 8 -13 61.39 12.4
3 8 -13 33.9 10
2 8 -13 41.5 9.9
2 8 -13 39.2 10.2
2 8 -13 33.4 11.4
1 8 -13 38.2 7.8
1 8 -13 44.1 10.2
1 8 -13 36.7 10.5
-1 -8 13 81.89 22.7
0 8 -13 12.1 13.3
0 8 -13 -4.6 8.4
0 -8 13 4 8.8
0 -8 13 10 19.6
-1 8 -13 -13.1 8.4
-1 8 -13 -6.9 8.8
1 -8 13 11.6 8.1
1 -8 13 -7.9 18.7
-2 8 -13 -10.5 8.6
-2 8 -13 6.3 10
2 -8 13 13.1 21.3
2 -8 13 -5.5 7.7
-3 8 -13 17.4 10
-3 8 -13 5.9 10.5
3 -8 13 -1.4 8.8
3 -8 13 2.4 23.7
-4 8 -13 50.59 12.5
-4 8 -13 81.49 13.3
4 -8 13 92.49 32
-5 8 -13 9 12
-5 8 -13 5.3 12
5 -8 13 -1.5 31.1
-6 8 -13 18.4 14.3
-6 8 -13 23 14.1
6 7 -13 4.1 13
6 7 -13 -15.4 11.9
5 7 -13 8.8 10.3
5 7 -13 29.1 10.3
4 7 -13 97.39 11.8
4 7 -13 94.19 11.9
3 7 -13 80.19 11.3
3 7 -13 62.19 10.2
3 7 -13 84.29 10
2 7 -13 -5 10.2
2 7 -13 4.3 8.5
2 7 -13 -4.5 7.5
-2 -7 13 10.6 9.4
1 7 -13 -9.3 7.2
1 7 -13 3.6 7.6
1 7 -13 5.2 6.5
-1 -7 13 5.5 13.5
-1 -7 13 0 7.7
0 7 -13 11.8 7.9
0 7 -13 26.5 8.3
0 -7 13 20.6 15.6
0 -7 13 19.7 7.9
-1 7 -13 45.1 9.5
-1 7 -13 63.49 9.8
1 -7 13 57.39 8.8
-2 7 -13 161.38 19
-2 7 -13 168.38 18.8
2 -7 13 184.28 28
2 -7 13 159.58 17.8
-3 7 -13 16.8 9.1
-3 7 -13 1.3 8.7
3 -7 13 6.5 20.8
3 -7 13 -7.9 8.6
-4 7 -13 -6.2 9.3
-4 7 -13 3.8 10.5
4 -7 13 -17.1 11.5
4 -7 13 -15.1 25.4
-5 7 -13 -8.9 9.9
-5 7 -13 20.1 11.3
-6 7 -13 0.3 11.2
-6 7 -13 31.6 11.7
-7 7 -13 32.7 14.9
-7 7 -13 -41.6 27.3
-7 7 -13 -21 14.8
7 6 -13 9.6 13.6
7 6 -13 10.9 14
6 6 -13 16.2 10.4
6 6 -13 15.3 11.2
5 6 -13 58.79 12.1
5 6 -13 93.59 12.5
4 6 -13 -8.5 5.8
4 6 -13 1.9 8.2
4 6 -13 0.7 8.1
3 6 -13 85.99 12.4
3 6 -13 99.69 17.3
3 6 -13 95.69 10.9
2 6 -13 51.99 8.5
2 6 -13 60.39 7.7
2 6 -13 56.09 9.4
-2 -6 13 48.7 9.1
1 6 -13 -2.5 7.3
1 6 -13 1.4 6.4
1 6 -13 3.1 6.1
-1 -6 13 4.8 6.8
-1 -6 13 9.9 16.1
0 6 -13 15 7.3
0 6 -13 9.3 6.7
0 6 -13 15.2 6.3
0 -6 13 6.8 6.3
0 -6 13 17.6 13.4
-1 6 -13 5.8 7.1
-1 6 -13 21.3 8.8
1 -6 13 14.5 15
1 -6 13 3.7 6.5
-2 6 -13 13.8 8
2 -6 13 9.8 16.9
2 -6 13 10 7.8
-3 6 -13 10.8 8.3
3 -6 13 2.5 8.4
-4 6 -13 3.6 8.4
-4 6 -13 -4.2 8.7
4 -6 13 -9 9.3
-5 6 -13 96.69 12.1
5 -6 13 72.89 13.7
-6 6 -13 2.2 10.5
-6 6 -13 -0.5 9.6
-7 6 -13 38.9 13
-7 6 -13 -32.9 25.2
-7 6 -13 8.3 13.6
7 5 -13 8.7 11.8
7 5 -13 5.2 11
6 5 -13 -1.3 9.6
6 5 -13 -0.7 9.6
5 5 -13 35.9 9.8
5 5 -13 34.1 10
4 5 -13 159.88 19.5
4 5 -13 182.48 9.9
4 5 -13 171.38 16.4
-4 -5 13 205.98 21.7
3 5 -13 594.04 29
3 5 -13 619.64 16.7
3 5 -13 617.24 24.8
3 5 -13 548.35 29.5
2 5 -13 6.6 6.4
2 5 -13 6.4 5.2
2 5 -13 2.9 6.2
-2 -5 13 7.8 6.6
1 5 -13 467.95 21.3
1 5 -13 429.46 18.2
1 5 -13 459.05 16.4
-1 -5 13 465.75 19.2
-1 -5 13 463.45 20.4
0 5 -13 -2.3 5.8
0 5 -13 -4.7 5.6
0 5 -13 -0.4 6.2
0 -5 13 3.8 11
0 -5 13 -3.4 5.6
-1 5 -13 11 6.4
-1 5 -13 7.1 6.5
1 -5 13 -3.9 6
1 -5 13 10.9 13.8
1 -5 13 5.5 7.1
-2 5 -13 12.1 6.5
-2 5 -13 12.8 6.6
2 -5 13 22.8 7.5
2 -5 13 22.1 7.5
-3 5 -13 147.19 15.8
-3 5 -13 139.09 16.5
3 -5 13 143.19 16.5
3 -5 13 153.88 18.6
-4 5 -13 136.19 16.1
-4 5 -13 152.28 15.4
-5 5 -13 4.4 6.9
-5 5 -13 17.5 9.3
5 -5 13 10.9 10.4
-6 5 -13 -4.5 8.4
-6 5 -13 37.9 10.8
-7 5 -13 24.3 23.4
-7 5 -13 -0.5 12.7
-8 5 -13 32.2 42.7
8 4 -13 -15.6 12.4
8 4 -13 -15.5 13.9
7 4 -13 41.2 14.7
7 4 -13 45.8 11.3
6 4 -13 43.6 11.4
6 4 -13 64.89 10.9
5 4 -13 27.3 9.1
5 4 -13 41.8 8.7
4 4 -13 8.8 7.1
4 4 -13 -4.3 12.5
4 4 -13 5.5 3.3
-4 -4 13 9.1 9.8
3 4 -13 151.58 16.8
3 4 -13 116.29 8.7
3 4 -13 135.49 13.4
-3 -4 13 115.59 16.8
2 4 -13 13.8 5.9
2 4 -13 17.1 7
2 4 -13 14.1 5.1
-2 -4 13 -2.2 9.2
1 4 -13 186.18 16.8
1 4 -13 198.78 11.5
1 4 -13 188.28 13
-1 -4 13 179.68 15.6
-1 -4 13 188.58 12.6
0 4 -13 45.5 7.9
0 4 -13 48.1 6.8
0 -4 13 53.99 13.2
0 -4 13 34.3 6.9
-1 4 -13 274.17 15
-1 4 -13 273.57 14.7
1 -4 13 281.57 17.4
1 -4 13 257.97 15.3
-2 4 -13 1028.7 27
-2 4 -13 1054.39 27
2 -4 13 1025.2 26.7
2 -4 13 1078.39 30.5
-3 4 -13 737.33 23.5
-3 4 -13 763.12 24.2
3 -4 13 763.82 23.3
3 -4 13 759.12 27.3
-4 4 -13 45.3 8.7
-4 4 -13 40.4 10.1
4 -4 13 60.29 9.1
-5 4 -13 113.39 13.6
-5 4 -13 98.49 10.9
-6 4 -13 112.59 15.6
-6 4 -13 104.09 12.3
-7 4 -13 -6.5 8.6
-7 4 -13 12.8 21.6
-8 4 -13 18.6 26.9
8 3 -13 -2.6 12.7
7 3 -13 30.3 11.8
6 3 -13 0.2 9.6
6 3 -13 6.2 8.8
5 3 -13 15.4 7.8
5 3 -13 14.3 16.2
5 3 -13 1.8 11.6
5 3 -13 12.8 7.2
-5 -3 13 -13.4 8.3
4 3 -13 10.1 2.9
4 3 -13 9 5.9
4 3 -13 15.7 7.5
4 3 -13 0 12.6
3 3 -13 257.57 9.8
3 3 -13 281.17 14.9
3 3 -13 291.57 19.7
-3 -3 13 282.07 19.1
2 3 -13 0.6 6.5
2 3 -13 0.9 5.3
2 3 -13 -0.6 4
-2 -3 13 -4.6 5.6
1 3 -13 -1.6 4.4
1 3 -13 -0.8 4.8
1 3 -13 7.7 6.7
-1 -3 13 -1.6 5.8
0 3 -13 536.65 17.2
0 3 -13 544.15 18
0 3 -13 551.64 22.7
0 -3 13 574.14 22.2
-1 3 -13 15.6 5.9
-1 3 -13 15.3 5.8
1 -3 13 14.6 7.1
1 -3 13 8.4 5.4
-2 3 -13 12.2 5.6
-2 3 -13 3.7 6.4
2 -3 13 10.1 5.8
2 -3 13 6.5 6.7
-3 3 -13 12.8 6.5
-3 3 -13 2.6 9.6
3 -3 13 -2.3 6
3 -3 13 2.7 7.4
-4 3 -13 28.9 7.5
4 -3 13 26.5 9.4
4 -3 13 32.7 7.7
-5 3 -13 22.3 7.8
-5 3 -13 20.8 6
5 -3 13 23.7 8.5
-6 3 -13 -13.2 16.8
-6 3 -13 -5 6.3
-6 3 -13 8.3 8.7
-7 3 -13 252.47 33.9
-8 3 -13 82.79 32.1
9 2 -13 15.9 20.1
8 2 -13 34.8 13.7
7 2 -13 -1.3 10
6 2 -13 69.19 11.5
6 2 -13 59.49 10.4
5 2 -13 94.99 16.5
5 2 -13 52.69 9.6
5 2 -13 89.09 10.1
-5 -2 13 69.19 11.1
4 2 -13 30.2 12.9
4 2 -13 30.3 7.5
4 2 -13 33.2 7.8
4 2 -13 34.2 3.7
4 2 -13 30.6 6.7
3 2 -13 183.98 8.6
3 2 -13 176.28 12.7
3 2 -13 181.98 17.6
3 2 -13 202.78 14.5
-3 -2 13 180.58 16.3
2 2 -13 17.4 5.3
2 2 -13 18.8 4.4
2 2 -13 19.4 7.6
-2 -2 13 16.8 4.7
-2 -2 13 13.3 6
1 2 -13 248.08 12.9
1 2 -13 229.88 18.4
-1 -2 13 242.78 12.5
-1 -2 13 276.27 17.7
0 2 -13 60.59 8.7
0 2 -13 92.59 10.1
0 2 -13 98.89 10.7
0 -2 13 90.59 15
0 -2 13 86.49 11.4
-1 2 -13 2 4.9
-1 2 -13 3.1 5
1 -2 13 -4.1 5.4
1 -2 13 3.3 4.6
1 -2 13 8.8 6.8
-2 2 -13 152.98 11.8
-2 2 -13 113.99 14
2 -2 13 138.79 16.8
2 -2 13 116.39 13.1
-3 2 -13 603.84 19.3
3 -2 13 637.44 21.9
3 -2 13 606.04 18.9
-4 2 -13 15.3 6.6
4 -2 13 9.8 8.2
4 -2 13 6.5 6.6
4 -2 13 17 7.7
-5 2 -13 -4.8 6.6
5 -2 13 -7 7.6
5 -2 13 -5.4 7.8
-6 2 -13 102.29 22.7
-6 2 -13 73.79 6.9
6 -2 13 70.69 13.2
-7 2 -13 27.1 20.6
9 1 -13 -21.6 14.7
8 1 -13 4.9 12.8
7 1 -13 3.4 9.8
6 1 -13 52.59 10.6
6 1 -13 49.2 10.4
5 1 -13 161.78 19.4
5 1 -13 133.49 17.6
4 1 -13 53.49 8.7
4 1 -13 83.49 14.8
4 1 -13 64.49 8.4
-4 -1 13 77.59 7.4
3 1 -13 26 10.1
3 1 -13 12.7 6.8
3 1 -13 18.4 5.7
3 1 -13 17.2 4
-3 -1 13 18.8 4.5
2 1 -13 1320.97 28.4
2 1 -13 1308.27 26.3
2 1 -13 1337.77 30.4
2 1 -13 1300.27 35.1
-2 -1 13 1312.87 26.6
-2 -1 13 1330.57 36.2
1 1 -13 994.6 23.1
1 1 -13 1015.3 30.3
1 1 -13 1018 25.4
1 1 -13 1009.5 22.8
-1 -1 13 1030 29.7
-1 -1 13 1046.4 24.3
-1 -1 13 986.6 23.5
0 1 -13 303.87 14.5
0 1 -13 265.57 12.5
0 1 -13 296.47 13.3
0 1 -13 281.07 19.2
0 -1 13 273.87 14.4
0 -1 13 281.87 16.7
0 -1 13 277.27 19.2
-1 1 -13 836.62 22.4
-1 1 -13 833.02 20.3
-1 1 -13 818.82 21.6
1 -1 13 841.82 30.8
1 -1 13 817.52 22.9
-2 1 -13 145.79 12.8
-2 1 -13 134.09 11.2
-2 1 -13 136.49 11.6
2 -1 13 137.99 13.8
2 -1 13 144.09 10.5
-3 1 -13 148.49 11.7
-3 1 -13 152.68 11.9
3 -1 13 124.59 14.6
3 -1 13 148.19 11.5
-4 1 -13 46.8 8.4
-4 1 -13 59.09 7.4
-4 1 -13 66.19 8.2
4 -1 13 57.49 7.5
4 -1 13 65.69 11.6
-5 1 -13 -8.7 15.4
-5 1 -13 5.9 5.7
5 -1 13 3.4 7.4
5 -1 13 -1.4 8.5
-6 1 -13 42.8 18.1
6 -1 13 18.7 9.8
6 -1 13 15.2 10
-7 1 -13 36.8 21.1
7 -1 13 26.9 11.2
9 0 -13 -16.9 14.6
8 0 -13 15.9 12.5
7 0 -13 14.5 10.3
6 0 -13 40.1 14
6 0 -13 36.6 9.8
5 0 -13 4.3 7.8
5 0 -13 -10.3 6.5
5 0 -13 7.9 10.7
-5 0 13 5.2 3.4
-5 0 13 -0.7 7.8
4 0 -13 522.45 19.9
4 0 -13 501.75 23.6
4 0 -13 504.45 21.9
-4 0 13 513.75 13.9
-4 0 13 449.76 23
3 0 -13 185.28 10.3
3 0 -13 199.88 12.3
3 0 -13 215.28 24.3
-3 0 13 182.98 17
-3 0 13 191.18 10.8
2 0 -13 194.88 13.9
2 0 -13 199.98 11.4
2 0 -13 197.58 10.8
2 0 -13 223.98 18.7
-2 0 13 194.78 11.6
-2 0 13 195.08 17.7
1 0 -13 86.39 9.4
1 0 -13 91.89 12.1
1 0 -13 59.39 8.9
1 0 -13 92.59 9.6
-1 0 13 109.89 11.4
-1 0 13 86.89 13.4
-1 0 13 58.49 8.5
0 0 -13 82.09 10.2
0 0 -13 55.79 7.4
0 0 -13 74.29 8.7
0 0 13 65.09 7.6
0 0 13 69.79 13.9
0 0 13 50.29 8.7
-1 0 -13 908.81 24.1
-1 0 -13 925.51 23
-1 0 -13 941.21 20.7
1 0 13 949.6 34.3
1 0 13 937.31 24.6
-2 0 -13 120.59 10.8
-2 0 -13 129.09 10.1
2 0 13 139.69 14.1
2 0 13 137.09 9.7
-3 0 -13 461.35 17.7
-3 0 -13 469.85 15.1
3 0 13 446.56 17.8
3 0 13 492.85 20.6
-4 0 -13 47.8 6.7
-4 0 -13 88.69 18.7
4 0 13 65.29 7.4
4 0 13 65.09 9.8
-5 0 -13 237.38 28.1
5 0 13 256.37 20.5
5 0 13 234.38 17
-6 0 -13 8.6 18.2
6 0 13 16 10.2
6 0 13 -11.9 9.7
-7 0 -13 42.2 28.8
7 0 13 14.5 11.6
9 -1 -13 -10.3 15.2
8 -1 -13 5.5 12.8
7 -1 -13 17.3 18.4
7 -1 -13 4.1 10
6 -1 -13 49.9 15.5
6 -1 -13 23.5 9.3
-6 1 13 37.5 4.4
5 -1 -13 20.8 7.7
5 -1 -13 28.2 8.6
5 -1 -13 57.79 12.6
-5 1 13 46.1 9.1
-5 1 13 47.8 5.4
4 -1 -13 5.7 7
4 -1 -13 3.7 9.6
-4 1 13 6.8 4.5
-4 1 13 9.1 7
3 -1 -13 348.17 14.1
3 -1 -13 370.96 21.8
-3 1 13 354.26 13.9
-3 1 13 359.16 20.5
2 -1 -13 2.4 5.7
2 -1 -13 2.1 4.1
2 -1 -13 2.1 6.6
2 -1 -13 2.2 4.4
-2 1 13 13.7 11.7
-2 1 13 12.1 6.9
-2 1 13 5.8 4.9
1 -1 -13 47.4 5.3
1 -1 -13 36.9 8
1 -1 -13 41.3 6.8
1 -1 -13 47.8 6.3
-1 1 13 49.5 6.7
-1 1 13 39.5 8
0 -1 -13 187.68 9.6
0 -1 -13 189.98 12.9
0 -1 -13 183.38 13.2
0 1 13 179.48 13.6
0 1 13 185.68 18.1
-1 -1 -13 145.29 8.9
-1 -1 -13 160.58 12.1
-1 -1 -13 152.98 14
1 1 13 173.88 14
1 1 13 153.48 19.4
1 1 13 146.49 17.7
-2 -1 -13 486.15 13.3
-2 -1 -13 473.75 16.5
2 1 13 490.05 20.2
2 1 13 520.45 31
2 1 13 479.85 25.3
-3 -1 -13 2 6.3
-3 -1 -13 4.3 12.8
-3 -1 -13 5.8 7
3 1 13 4 7.7
3 1 13 5 4.4
-4 -1 -13 8.9 5.6
-4 -1 -13 27.3 22.2
4 1 13 18.5 9.7
4 1 13 3.9 6.1
-5 -1 -13 91.59 21.5
5 1 13 59.89 12.2
5 1 13 39.1 8.6
-6 -1 -13 63.89 23.4
6 1 13 12.7 11.7
-7 -1 -13 3.5 26.9
7 1 13 -12.5 12.7
9 -2 -13 1.5 15.4
7 -2 -13 79.89 13.2
-7 2 13 88.39 8.4
6 -2 -13 36 15.2
6 -2 -13 38.4 12.7
6 -2 -13 15.8 9.6
-6 2 13 2.6 5.2
5 -2 -13 193.98 21.4
5 -2 -13 191.48 18.1
5 -2 -13 176.08 16.7
-5 2 13 189.78 20.6
-5 2 13 191.38 11.9
4 -2 -13 -3.6 7.2
-4 2 13 11.6 6.9
-4 2 13 4.3 5.4
3 -2 -13 256.37 20.2
-3 2 13 248.28 18.9
-3 2 13 240.58 13.5
2 -2 -13 118.19 17.5
2 -2 -13 122.79 14.9
2 -2 -13 102.79 9.3
-2 2 13 126.99 12.5
-2 2 13 122.59 19.9
1 -2 -13 437.96 12.3
1 -2 -13 458.25 18.1
1 -2 -13 451.45 18.6
-1 2 13 465.35 27
-1 2 13 435.96 22.6
-1 2 13 443.16 17.8
0 -2 -13 303.37 15.7
0 -2 -13 280.17 9.6
0 -2 -13 312.97 15.2
0 2 13 321.47 16.7
0 2 13 293.97 20.3
0 2 13 309.87 25.2
-1 -2 -13 73.19 6.3
-1 -2 -13 70.39 9.3
-1 -2 -13 56.09 7.4
1 2 13 40.7 9.2
1 2 13 54.99 8.6
1 2 13 93.99 20.9
-2 -2 -13 86.39 14.1
-2 -2 -13 75.19 7.9
2 2 13 60.39 11.1
-3 -2 -13 157.38 20.1
-3 -2 -13 136.69 13.6
3 2 13 142.29 17.8
-4 -2 -13 163.38 23.9
4 2 13 139.79 19.1
-5 -2 -13 92.79 21.2
5 2 13 57.09 12.1
-6 -2 -13 23 22.4
6 2 13 12.6 12.3
9 -3 -13 -31.7 15.2
8 -3 -13 17.3 15.9
7 -3 -13 15.8 11.6
7 -3 -13 30.2 17.9
7 -3 -13 48.9 19.9
-7 3 13 22.6 7.7
6 -3 -13 79.29 16.7
6 -3 -13 38.4 10.6
-6 3 13 58.29 7.8
5 -3 -13 27.1 9.6
5 -3 -13 61.29 13
-5 3 13 34 10
-5 3 13 31.9 7
4 -3 -13 21.9 9.1
4 -3 -13 30 10.2
-4 3 13 38.8 7.1
-4 3 13 23.9 8.3
3 -3 -13 9 7.5
3 -3 -13 14.8 8.3
3 -3 -13 -5.2 7.1
-3 3 13 -3.6 6.9
-3 3 13 5.1 6
2 -3 -13 104.79 17.8
2 -3 -13 113.59 8.5
-2 3 13 133.09 24.3
-2 3 13 106.99 18
-2 3 13 110.49 13.6
1 -3 -13 14.4 3.5
-1 3 13 14 6.7
-1 3 13 22.7 17.7
-1 3 13 7.1 7.5
0 -3 -13 -7 8.4
0 -3 -13 1.6 7.6
0 -3 -13 -1.8 6.2
0 3 13 -1.7 6.2
0 3 13 5.3 18.7
0 3 13 -1.8 7.6
-1 -3 -13 69.49 12.1
-1 -3 -13 37.1 7.9
1 3 13 41 9.5
1 3 13 33.9 9.8
-2 -3 -13 37.1 12.3
-2 -3 -13 21.9 7.6
2 3 13 3.3 13.6
2 3 13 26.5 9.3
-3 -3 -13 127.79 21.6
-3 -3 -13 90.69 13.1
3 3 13 81.49 11.6
-4 -3 -13 23.3 16
4 3 13 -9.5 9.8
-5 -3 -13 107.09 23.6
6 3 13 39.7 15.3
8 -4 -13 74.29 28.1
7 -4 -13 30.5 12.4
-7 4 13 18.8 9.7
6 -4 -13 -4.8 10.2
6 -4 -13 -8.8 9.6
6 -4 -13 12.7 17.5
-6 4 13 -8 11.6
5 -4 -13 3.2 15.2
5 -4 -13 -5.8 9.3
-5 4 13 14.1 9.8
-5 4 13 0.4 7
4 -4 -13 65.19 18.9
4 -4 -13 18.5 9
-4 4 13 33.7 10.1
-4 4 13 37.5 9.5
-4 4 13 31.5 8.1
3 -4 -13 4.6 7.8
3 -4 -13 8.2 4.6
-3 4 13 3.1 7.7
-3 4 13 -5.6 7.3
-3 4 13 -2 6.7
2 -4 -13 4.6 8.4
2 -4 -13 -2.2 3.4
2 -4 -13 10.2 7.5
-2 4 13 -12.6 7.7
-2 4 13 10.6 7
-2 4 13 -2.7 21.9
-2 4 13 -4.4 9.9
1 -4 -13 197.18 12.9
1 -4 -13 152.38 14.6
-1 4 13 180.38 19.1
-1 4 13 156.08 20.8
0 -4 -13 -0.4 8.8
0 -4 -13 10.4 8.4
0 4 13 -3.1 8.9
0 4 13 11.1 22.1
0 4 13 -3.2 7.4
-1 -4 -13 60.99 11.6
1 4 13 35.2 9.5
1 4 13 18.9 10.2
-2 -4 -13 113.49 18.9
-2 -4 -13 74.19 11
2 4 13 74.29 11.3
-3 -4 -13 130.99 19.9
3 4 13 110.89 14.2
-4 -4 -13 195.68 34.4
4 4 13 110.59 15.2
-5 -4 -13 83.99 29.8
5 4 13 -2.3 14.1
8 -5 -13 61.19 37.6
8 -5 -13 -2.8 16.2
7 -5 -13 0.9 13.1
-7 5 13 7.7 12.4
6 -5 -13 22.1 25.3
6 -5 -13 -8.6 10.9
6 -5 -13 -5.9 7
-6 5 13 2.6 11.1
-6 5 13 11.4 9.8
5 -5 -13 33.2 21.6
5 -5 -13 -4.8 9.4
-5 5 13 6.6 12
-5 5 13 16 9.5
-5 5 13 4.8 10.4
4 -5 -13 56.29 10.7
4 -5 -13 87.09 24.6
4 -5 -13 53.89 8.8
-4 5 13 39.1 10
-4 5 13 52.49 11.3
-4 5 13 31.3 11.2
3 -5 -13 34.7 5.8
3 -5 -13 29.5 6.1
-3 5 13 41.9 10.1
-3 5 13 27.2 10.9
-3 5 13 42.3 10.2
-2 5 13 -12.5 8.9
-2 5 13 -17.6 29.6
-2 5 13 12.4 9.1
-1 5 13 -5.5 7.8
-1 5 13 2.4 8.7
-1 5 13 -4.4 9.5
0 5 13 55.49 10.7
0 5 13 47.1 12.5
-1 -5 -13 116.49 12.7
1 5 13 152.28 21.6
-2 -5 -13 120.39 22.9
2 5 13 77.19 13.4
-3 -5 -13 298.67 31.6
3 5 13 264.47 28
-4 -5 -13 -20.6 31.4
4 5 13 -16.8 14.1
7 -6 -13 -7.7 16
7 -6 -13 29.4 32.4
-7 6 13 11.6 15.9
-7 6 13 6.6 15.7
6 -6 -13 28.7 33.2
6 -6 -13 -0.1 14.7
-6 6 13 -5.4 12.1
-6 6 13 29.7 14
5 -6 -13 17.2 28.1
5 -6 -13 23.9 12.1
-5 6 13 22.3 12.5
-5 6 13 -1.6 10.5
4 -6 -13 163.98 36.7
-4 6 13 108.59 13.4
-4 6 13 109.69 15.1
-4 6 13 116.79 13.7
-3 6 13 13.3 11.2
-3 6 13 -10.3 11.8
-3 6 13 16.8 11.6
-2 6 13 63.19 12.3
-2 6 13 87.29 12.8
-2 6 13 37.4 12.7
-1 6 13 19.3 10.8
-1 6 13 4.6 12
-1 6 13 27.9 10.4
0 6 13 9.5 9.7
0 6 13 22.3 11.6
1 6 13 -20.1 10.8
2 6 13 -7.3 13.5
5 -7 -13 -3 30.7
-5 7 13 -16.5 14.2
-5 7 13 -6.1 13.4
4 -7 -13 -11.7 28.4
-4 7 13 -18.1 12.6
-4 7 13 -6.5 13.5
-3 7 13 39.4 13.2
-3 7 13 39.8 14.6
-2 7 13 49 13
-2 7 13 42 14.4
-1 7 13 32.7 12.4
-1 7 13 45.7 14.9
0 7 13 36.8 12.6
0 7 13 -0.2 13.8
0 10 -14 56.29 15
0 -10 14 136.69 43.5
-1 10 -14 91.79 17.3
-2 10 -14 -3.7 14.6
2 -10 14 34.7 41.4
3 9 -14 -2.5 13.7
3 9 -14 -7.8 12.9
2 9 -14 8.3 11.6
2 9 -14 15.5 13.6
1 9 -14 -12.2 10.2
1 9 -14 -22.3 11.1
-1 -9 14 23.6 30.6
0 9 -14 13.1 11.1
0 9 -14 -16.1 10.8
0 -9 14 8.4 33.1
-1 9 -14 4.3 11.4
-1 9 -14 -3.9 11
1 -9 14 23.5 29.5
-2 9 -14 69.39 14.2
-2 9 -14 39 13.2
2 -9 14 68.49 35
-3 9 -14 -23.2 17.7
-3 9 -14 21.2 13.8
3 -9 14 17.3 29.3
-4 9 -14 39.5 14.1
-4 9 -14 24.4 15
4 -9 14 68.69 35.8
-5 9 -14 44.2 16.6
5 -9 14 79.69 44.5
4 8 -14 1.2 11.7
4 8 -14 -0.6 12.4
3 8 -14 15.5 12.1
3 8 -14 28.4 11.4
2 8 -14 1.5 10.2
2 8 -14 0.7 9.8
2 8 -14 9.3 8.8
1 8 -14 114.09 13.3
1 8 -14 145.09 18
-1 -8 14 108.49 13.8
-1 -8 14 165.78 29.5
0 8 -14 16.4 9.1
0 -8 14 63.19 24
0 -8 14 21.1 9.9
-1 8 -14 43.6 11.3
-1 8 -14 27.5 11.3
1 -8 14 67.19 23.5
1 -8 14 37.3 13.7
-2 8 -14 75.59 12.2
-2 8 -14 56.79 12.5
2 -8 14 118.99 28.8
2 -8 14 57.59 13
-3 8 -14 180.98 23.3
3 -8 14 162.48 37.7
-4 8 -14 -4.1 10.8
-4 8 -14 10.9 11.8
4 -8 14 14.5 31
-5 8 -14 7.2 13.1
-5 8 -14 13.4 13.4
5 -8 14 -8.3 34.9
-6 8 -14 88.19 19.2
-6 8 -14 86.29 19.7
6 -8 14 39.4 46.6
5 7 -14 17.9 11
5 7 -14 -7.8 10.6
4 7 -14 12.5 10.4
4 7 -14 17.2 10
3 7 -14 202.58 19.2
3 7 -14 157.68 21.5
3 7 -14 153.38 19.1
2 7 -14 -1.9 11.1
2 7 -14 11.9 8.4
2 7 -14 8.8 7.8
1 7 -14 1 8.1
1 7 -14 4.5 7.7
1 7 -14 5.2 8.8
-1 -7 14 6.8 8.9
-1 -7 14 21.7 16.2
0 7 -14 100.39 12.7
0 7 -14 96.29 11.2
0 -7 14 85.49 10.7
0 -7 14 121.59 22
-1 7 -14 222.28 20.3
1 -7 14 192.58 19.8
1 -7 14 212.18 25.4
-2 7 -14 33.2 10.2
2 -7 14 22.6 9.6
2 -7 14 62.09 22.7
-3 7 -14 57.39 11.2
-3 7 -14 54.39 11.1
3 -7 14 51.89 25.6
3 -7 14 36.4 12.3
-4 7 -14 8.3 10
-4 7 -14 25.6 10.6
-5 7 -14 18.4 11.3
-5 7 -14 16.3 10.9
-6 7 -14 17.9 13.6
-6 7 -14 25.3 13
6 6 -14 4.5 10.5
6 6 -14 -16.6 11.5
5 6 -14 81.39 12.7
5 6 -14 70.49 11.6
4 6 -14 11.8 6.4
4 6 -14 7.6 8.5
4 6 -14 26.2 8.8
3 6 -14 46.3 9.3
3 6 -14 49.4 10.2
3 6 -14 48.4 8
-3 -6 14 42.9 10.8
2 6 -14 0.1 7.2
2 6 -14 -1.3 6.4
2 6 -14 14.7 7.7
1 6 -14 5 6.8
1 6 -14 -9.7 6.1
1 6 -14 -3.5 6.5
-1 -6 14 -5.6 10.4
-1 -6 14 1.5 7.4
0 6 -14 15.8 7.1
0 6 -14 22.6 8
0 -6 14 40.7 14.3
0 -6 14 10.8 7.7
-1 6 -14 78.69 10.3
-1 6 -14 81.99 10.3
1 -6 14 86.49 20.8
1 -6 14 66.19 9.4
-2 6 -14 9.9 8.3
-2 6 -14 14.2 9.1
2 -6 14 14 8.5
2 -6 14 35.3 18.8
-3 6 -14 2.2 9.1
3 -6 14 -7.1 8.8
-4 6 -14 4.9 8
-4 6 -14 -3 8.6
4 -6 14 -7.9 10.7
-5 6 -14 42.3 10.3
-5 6 -14 31.6 11.2
-6 6 -14 -2 11.2
-6 6 -14 -5.9 11.8
-7 6 -14 -45.6 26
-7 6 -14 -8.4 14.8
-7 6 -14 27.5 18
7 5 -14 13 12.1
7 5 -14 -16.7 12.2
6 5 -14 59.49 12.4
6 5 -14 22.6 11.6
5 5 -14 91.29 13.4
5 5 -14 138.79 19
4 5 -14 102.39 9.7
4 5 -14 103.99 12.1
-4 -5 14 72.29 13
3 5 -14 2.1 7.5
3 5 -14 6.2 6
3 5 -14 1.2 6.3
-3 -5 14 8.1 9.5
2 5 -14 4.5 7.5
2 5 -14 2 5.7
2 5 -14 6.7 6.9
-2 -5 14 2 6.8
1 5 -14 30.8 7.8
1 5 -14 31.2 6.6
1 5 -14 34.1 7.6
-1 -5 14 45.4 11.4
-1 -5 14 26.1 7.3
0 5 -14 27.7 7.5
0 5 -14 27.9 7
0 5 -14 32.3 7.3
0 -5 14 46.1 13.2
0 -5 14 25.4 7.6
-1 5 -14 147.49 14.7
1 -5 14 103.89 16.9
1 -5 14 138.69 20.1
1 -5 14 106.29 15.1
-2 5 -14 75.39 9.8
-2 5 -14 61.39 8.8
2 -5 14 56.19 9.7
2 -5 14 70.69 9.8
-3 5 -14 37.8 14.1
3 -5 14 19.3 10
-4 5 -14 21.1 8.7
4 -5 14 6.7 9.5
-5 5 -14 61.99 11.4
-5 5 -14 62.89 9.3
-6 5 -14 149.49 20.9
-6 5 -14 177.08 24.4
-7 5 -14 171.48 34.5
8 4 -14 10.7 15.7
7 4 -14 19.8 12.8
7 4 -14 41.6 12.4
6 4 -14 195.38 22.1
6 4 -14 165.98 25.5
5 4 -14 42.5 9.2
5 4 -14 34.8 10.1
4 4 -14 114.29 15.4
4 4 -14 117.19 19.6
3 4 -14 105.79 9.1
3 4 -14 112.09 14.3
3 4 -14 120.29 18
2 4 -14 96.59 12.8
2 4 -14 71.29 9.9
2 4 -14 87.59 10.2
-2 -4 14 95.69 16.3
1 4 -14 51.89 8.7
1 4 -14 72.69 10.3
1 4 -14 71.49 8.5
-1 -4 14 60.89 8.5
0 4 -14 94.99 12.5
0 4 -14 52.99 9.2
0 4 -14 58.29 8
0 -4 14 68.59 13.7
0 -4 14 58.19 8.5
-1 4 -14 237.68 15.5
-1 4 -14 271.37 15.5
1 -4 14 263.97 15.7
1 -4 14 237.68 18.9
-2 4 -14 417.76 20.4
-2 4 -14 424.36 18.7
2 -4 14 443.96 18.6
2 -4 14 385.86 22.1
-3 4 -14 76.19 10
-3 4 -14 64.49 9.9
3 -4 14 72.39 9.6
4 -4 14 6.2 8.7
-5 4 -14 150.18 15
-5 4 -14 142.89 19.5
-6 4 -14 48.8 9.6
-6 4 -14 57.29 11.8
-7 4 -14 115.49 26.2
8 3 -14 -4.1 14.4
7 3 -14 -2.3 11.4
7 3 -14 6.7 10.7
6 3 -14 3.8 9.5
6 3 -14 4.6 8
5 3 -14 17.4 8.2
5 3 -14 6.9 9.5
5 3 -14 15.1 8.8
4 3 -14 10.3 13.3
4 3 -14 8 7.8
4 3 -14 3.2 7.9
4 3 -14 2.2 7.6
-4 -3 14 2.5 7.9
3 3 -14 235.38 10.3
3 3 -14 237.58 19.9
3 3 -14 237.68 15.3
2 3 -14 0 5.5
2 3 -14 4.3 7.3
-2 -3 14 -5 6.7
1 3 -14 1.5 6.6
1 3 -14 7.7 4.8
1 3 -14 4 5
-1 -3 14 -2 6.3
0 3 -14 692.73 26.2
0 3 -14 704.83 25.7
0 3 -14 666.63 20.5
0 -3 14 706.43 25.8
-1 3 -14 477.05 18.2
-1 3 -14 470.95 17.6
1 -3 14 449.06 23.4
1 -3 14 467.15 17.6
-2 3 -14 307.37 15.8
-2 3 -14 310.17 16.9
2 -3 14 323.47 15.7
2 -3 14 279.47 16.2
2 -3 14 267.97 23.1
-3 3 -14 110.19 11.1
-3 3 -14 119.89 14
3 -3 14 135.99 14.1
4 -3 14 42 9.5
4 -3 14 66.59 9.6
-5 3 -14 27.4 10
5 -3 14 29.5 11.2
-6 3 -14 68.69 11.7
-6 3 -14 63.19 8.9
-6 3 -14 68.69 22.9
-7 3 -14 15.8 21.6
8 2 -14 23 14.1
7 2 -14 -2.6 15.8
6 2 -14 2.6 9.8
5 2 -14 32.5 9.5
5 2 -14 77.19 18.6
5 2 -14 58.39 10.2
5 2 -14 48.1 8.6
4 2 -14 64.49 6.8
4 2 -14 62.99 8.6
4 2 -14 49.5 8.9
4 2 -14 75.19 9.9
-4 -2 14 51.39 9.2
3 2 -14 69.39 10.4
3 2 -14 70.69 7.8
3 2 -14 68.29 10
3 2 -14 74.19 8.3
2 2 -14 199.78 13
2 2 -14 204.08 18.9
-2 -2 14 194.68 17.7
-2 -2 14 215.18 11.5
1 2 -14 5.5 4.5
1 2 -14 3.2 4.7
1 2 -14 3.4 6.9
-1 -2 14 -0.3 4.8
-1 -2 14 2.5 6.4
0 2 -14 23.8 7.4
0 2 -14 26.1 5.7
0 2 -14 26.4 6
0 -2 14 26.1 6.4
0 -2 14 25.1 7.5
-1 2 -14 249.08 14.3
-1 2 -14 233.98 13.4
1 -2 14 240.08 14.8
1 -2 14 248.78 19.3
1 -2 14 261.17 18.7
-2 2 -14 178.78 14.4
-2 2 -14 190.58 13.3
2 -2 14 174.08 14.9
2 -2 14 168.18 12.7
-3 2 -14 672.23 21
-3 2 -14 627.64 24.4
3 -2 14 670.93 28.8
3 -2 14 688.13 23.7
3 -2 14 714.43 21.2
-4 2 -14 46.7 7.9
-4 2 -14 51.99 8.1
4 -2 14 59.69 10.3
4 -2 14 47 7.9
-5 2 -14 333.57 17.6
-5 2 -14 337.17 18.7
5 -2 14 344.57 21.8
5 -2 14 289.17 19.1
-6 2 -14 40.7 19.9
-7 2 -14 45.9 25.4
9 1 -14 -22.1 28.3
8 1 -14 52.19 14.8
7 1 -14 -3.2 10.7
6 1 -14 -31.2 18.5
6 1 -14 -10 10.4
5 1 -14 9.7 8.4
5 1 -14 18 12.1
-5 -1 14 22.4 11.2
4 1 -14 68.79 14
4 1 -14 34.3 8.6
4 1 -14 46.1 7.7
4 1 -14 30.5 8
-4 -1 14 42.1 4.9
3 1 -14 6.2 4.3
3 1 -14 11.5 5.7
3 1 -14 13.5 7.8
-3 -1 14 14.5 4.8
2 1 -14 217.78 12.8
2 1 -14 224.58 19.7
2 1 -14 219.88 11.2
-2 -1 14 207.98 12.1
1 1 -14 67.19 9.3
1 1 -14 103.19 12.9
1 1 -14 95.49 10.4
1 1 -14 97.89 12
-1 -1 14 100.89 11.4
-1 -1 14 92.19 11.2
0 1 -14 -5.1 4.3
0 1 -14 -7.1 5
0 1 -14 -2.2 5.8
0 -1 14 3.1 5.5
0 -1 14 -5.4 15.5
-1 1 -14 8.2 6.3
-1 1 -14 9.6 5.9
-1 1 -14 10.6 5.3
1 -1 14 2.3 5.8
-2 1 -14 30.2 6.3
-2 1 -14 20.2 6.5
-2 1 -14 19.9 5.8
2 -1 14 21.3 7.2
2 -1 14 22.1 5.8
-3 1 -14 36.1 6.7
-3 1 -14 25.3 6.5
3 -1 14 12.6 8.4
3 -1 14 31.4 8.3
3 -1 14 33.1 6.7
-4 1 -14 -4.2 6
-4 1 -14 2.6 5.8
4 -1 14 -6.4 6.4
4 -1 14 -6.9 7.4
-5 1 -14 14.4 14.1
-5 1 -14 -6.8 16.6
5 -1 14 7 9
5 -1 14 2.2 8.4
-6 1 -14 -2.1 18.2
6 -1 14 15.3 10.5
6 -1 14 -5.8 9.9
-7 1 -14 47.9 26.2
7 -1 14 -6.9 11.9
9 0 -14 -22.3 15.3
8 0 -14 39.2 19.6
7 0 -14 -3.6 10.7
6 0 -14 46.6 16
6 0 -14 4.2 9.9
5 0 -14 34.1 13.2
5 0 -14 8.8 7.8
-5 0 14 12 9
-5 0 14 13.6 4.2
4 0 -14 80.59 10.2
4 0 -14 65.79 10.2
4 0 -14 98.69 16.4
-4 0 14 71.59 10.3
-4 0 14 65.49 9.1
3 0 -14 186.58 11
3 0 -14 158.28 19.2
3 0 -14 178.18 12.7
-3 0 14 181.38 11.2
-3 0 14 134.69 20.1
2 0 -14 163.28 13.8
2 0 -14 159.48 10.9
2 0 -14 159.58 18.8
2 0 -14 154.48 11.3
-2 0 14 156.68 11.9
-2 0 14 125.99 17.9
1 0 -14 748.63 27.3
1 0 -14 729.63 18.9
1 0 -14 743.83 22.5
1 0 -14 704.03 22.7
-1 0 14 716.73 25.3
-1 0 14 711.83 20.9
0 0 -14 22 6.4
0 0 -14 11.2 5.7
0 0 -14 11.3 4.8
0 0 14 18.9 6.3
0 0 14 17.5 12.1
-1 0 -14 376.26 13.5
-1 0 -14 375.76 17
-1 0 -14 380.16 15.8
1 0 14 387.36 24.8
1 0 14 363.06 17.4
-2 0 -14 208.78 13.5
-2 0 -14 217.18 15.9
-2 0 -14 220.78 11.8
2 0 14 221.88 16.1
-3 0 -14 70.39 7.1
-3 0 -14 67.09 13.8
-3 0 -14 74.39 8.1
3 0 14 64.89 14.1
3 0 14 98.29 10.9
3 0 14 54.89 10.7
-4 0 -14 -0.2 15.2
4 0 14 -1.3 6.4
4 0 14 9.3 9.3
-5 0 -14 26.3 17.6
-5 0 -14 -12.4 7.9
5 0 14 1.8 9.2
5 0 14 -10.2 8.8
-6 0 -14 75.69 24.1
6 0 14 7 11.3
-7 0 -14 21.5 28.1
7 0 14 1.5 13.6
9 -1 -14 -9.4 16.5
8 -1 -14 47.2 14.5
7 -1 -14 23.4 19.5
7 -1 -14 -0.5 10.6
6 -1 -14 74.59 12.7
-6 1 14 86.69 9.3
5 -1 -14 46.7 14
-5 1 14 34.6 10.8
-5 1 14 35.5 5.7
4 -1 -14 26.1 11.3
4 -1 -14 16.2 8.5
-4 1 14 21.7 7.8
-4 1 14 14 5.4
3 -1 -14 271.67 21.8
3 -1 -14 296.57 14.1
-3 1 14 273.67 13.8
-3 1 14 287.47 20.8
2 -1 -14 475.15 17.2
2 -1 -14 491.25 16.1
2 -1 -14 493.35 24.1
-2 1 14 471.05 17.3
-2 1 14 481.45 30.8
-2 1 14 502.15 23.9
1 -1 -14 197.28 14.7
1 -1 -14 190.38 18.9
1 -1 -14 184.18 10.2
1 -1 -14 181.28 13
-1 1 14 163.18 18.9
-1 1 14 172.58 13.8
-1 1 14 193.18 19.1
0 -1 -14 283.17 15.8
0 -1 -14 277.57 15.4
0 -1 -14 281.57 11.5
0 1 14 292.07 16
0 1 14 280.37 21.5
0 1 14 289.97 22.9
-1 -1 -14 59.99 7.8
-1 -1 -14 56.59 9.1
-1 -1 -14 72.99 8.6
1 1 14 70.79 8.7
1 1 14 50.29 9.8
1 1 14 96.99 19.7
-2 -1 -14 103.89 12.7
-2 -1 -14 111.49 9.1
-2 -1 -14 134.69 16.9
2 1 14 73.89 11.5
2 1 14 161.98 35.7
2 1 14 104.39 12.6
-3 -1 -14 -8.3 13.3
-3 -1 -14 -9.9 6.4
3 1 14 5.1 21.2
3 1 14 -0.2 8.3
-4 -1 -14 12.4 7.9
-4 -1 -14 24.6 16
4 1 14 4.7 9
4 1 14 4.7 8.5
-5 -1 -14 40.7 20.1
5 1 14 8.1 10.7
-6 -1 -14 48.5 23.8
6 1 14 -3 11.9
9 -2 -14 -16.1 16.8
8 -2 -14 -9.6 12.4
7 -2 -14 13.4 11.7
-7 2 14 -7.1 5.2
6 -2 -14 42.2 16.9
6 -2 -14 36.6 12.3
6 -2 -14 5.1 10.8
-6 2 14 22.2 6.4
5 -2 -14 23.5 13.2
5 -2 -14 12.3 10.3
-5 2 14 6.6 5.8
4 -2 -14 52.99 12.7
4 -2 -14 36.1 9.4
4 -2 -14 19.2 9.5
-4 2 14 31.7 8.9
-4 2 14 32 6.4
3 -2 -14 31.3 6.1
3 -2 -14 12 8.2
3 -2 -14 14.7 6.9
-3 2 14 8.8 8.4
-3 2 14 19.6 6.3
2 -2 -14 32.9 5.4
2 -2 -14 24.2 8.3
-2 2 14 18.9 8.7
-2 2 14 41.4 17.2
-2 2 14 35.4 7.5
1 -2 -14 302.07 11.1
1 -2 -14 306.07 16.7
-1 2 14 298.57 16.8
-1 2 14 302.17 22.1
-1 2 14 325.17 25.9
0 -2 -14 111.59 7.9
0 -2 -14 117.69 14.6
0 -2 -14 123.69 13.5
0 2 14 145.29 15.1
0 2 14 90.09 11.9
0 2 14 108.49 22.8
-1 -2 -14 4.2 6.6
-1 -2 -14 15 3.6
-1 -2 -14 22.5 7.8
1 2 14 11.7 19.4
1 2 14 17.8 10
1 2 14 7.2 9.1
-2 -2 -14 14.5 12.5
-2 -2 -14 -0.5 7.3
2 2 14 15.1 29.7
2 2 14 9.3 7.8
-3 -2 -14 11.8 22.3
-3 -2 -14 -3 7.8
3 2 14 22.4 9.6
-4 -2 -14 11.3 17.3
4 2 14 -8.2 9.7
-5 -2 -14 20.8 19.9
5 2 14 1 10.7
-6 -2 -14 73.79 25.9
6 2 14 6.6 14.2
8 -3 -14 -18.7 13
7 -3 -14 -3.5 11.4
7 -3 -14 30.6 19.2
-7 3 14 -5.6 7.9
6 -3 -14 7.9 15.4
6 -3 -14 13.5 14.9
6 -3 -14 -1.1 16.8
-6 3 14 13.1 7.5
5 -3 -14 6.7 9.3
5 -3 -14 5.6 13.8
-5 3 14 -6.4 6.4
4 -3 -14 18.6 11.2
4 -3 -14 13.5 8.9
-4 3 14 21.2 9.4
-4 3 14 11.6 6.8
3 -3 -14 75.69 10.2
3 -3 -14 54.59 10.2
3 -3 -14 78.99 13.2
-3 3 14 58.99 8.6
-3 3 14 38.2 9.4
2 -3 -14 180.98 18.2
2 -3 -14 218.88 10.3
-2 3 14 229.98 29
-2 3 14 219.08 16.7
-2 3 14 197.48 22
1 -3 -14 23.4 4
1 -3 -14 18.3 7.5
-1 3 14 21.2 7.8
-1 3 14 48.3 21.1
-1 3 14 17 9.7
0 -3 -14 -4.7 9.3
0 3 14 -4.6 7.3
0 3 14 -9.1 9.3
0 3 14 32.9 22.3
-1 -3 -14 56.59 12.8
1 3 14 66.79 25.7
1 3 14 49.6 10
1 3 14 18.1 18.8
-2 -3 -14 27.9 12.7
-2 -3 -14 13.9 8.9
2 3 14 2.7 8.4
-3 -3 -14 372.46 27.8
-3 -3 -14 281.37 18.8
3 3 14 331.77 24.9
4 3 14 53.09 11.8
5 3 14 81.29 20.8
8 -4 -14 -15.8 13.9
7 -4 -14 9.4 23.7
7 -4 -14 -13.8 11.9
-7 4 14 -7.8 12.5
6 -4 -14 16.2 19.3
6 -4 -14 -5 10.8
-6 4 14 -2.5 8.8
5 -4 -14 63.79 20.2
5 -4 -14 32.3 11.1
-5 4 14 32.5 8.7
-4 4 14 18.2 9.9
-4 4 14 23.2 8.6
3 -4 -14 98.59 10.9
3 -4 -14 78.79 11.1
-3 4 14 71.29 11.4
2 -4 -14 5.6 4.1
2 -4 -14 17.4 9.5
2 -4 -14 9 7.5
-2 4 14 1.4 7.8
-2 4 14 6.4 27.7
-2 4 14 -10.7 9.7
1 -4 -14 9.5 8.3
-1 4 14 -10.8 9.7
-1 4 14 28.7 29.2
-1 4 14 5.7 8.4
0 -4 -14 2 9.2
0 -4 -14 18.4 10.2
0 4 14 -13.9 12.3
0 4 14 22.7 26.7
0 4 14 3.3 8.5
-1 -4 -14 -0.4 9.9
-1 -4 -14 15.2 11.8
1 4 14 -4.7 9
-2 -4 -14 116.59 22.1
2 4 14 90.39 13.5
-3 -4 -14 217.28 34.2
3 4 14 171.98 24
-4 -4 -14 404.76 39.8
4 4 14 311.77 30.5
7 -5 -14 48 16
-7 5 14 5.2 14.4
6 -5 -14 -4.2 27.5
6 -5 -14 -1.2 12
-6 5 14 -9 11.8
5 -5 -14 33.3 23
-5 5 14 19.9 11.8
-5 5 14 -0.7 10.7
4 -5 -14 228.68 16.3
4 -5 -14 249.97 25.1
-4 5 14 276.37 24.8
-4 5 14 203.98 22.6
3 -5 -14 34.4 5.1
-3 5 14 43.1 12
-3 5 14 51.19 10.8
-3 5 14 26.9 10.3
-2 5 14 18.4 10.1
-2 5 14 6.2 11.1
-2 5 14 3.1 9
-1 5 14 34.7 10.1
0 -5 -14 19.7 7.7
0 5 14 -14.2 9.5
-1 -5 -14 26.2 14.5
1 5 14 -7.9 10.3
-2 -5 -14 9.8 18.1
2 5 14 7.1 12.4
3 5 14 18.6 14.2
6 -6 -14 -9.4 15.3
6 -6 -14 4 30.7
-6 6 14 -22 13.9
-6 6 14 -15.9 14.4
5 -6 -14 35.8 31.3
-5 6 14 9.6 12.5
-5 6 14 -8.9 13.3
-4 6 14 24.7 12.3
-4 6 14 10.8 12.2
-3 6 14 60.99 13.1
-3 6 14 32.5 12.9
-2 6 14 0.7 11.5
-2 6 14 25.6 11.5
-1 6 14 25.9 11
-1 6 14 -1.5 10.6
0 6 14 -1.3 12.1
1 6 14 -2.3 13.5
-4 7 14 13.2 16.1
-4 7 14 2.9 15.3
-3 7 14 22.7 14.3
-3 7 14 11.4 15.2
-2 7 14 34.4 13.8
-2 7 14 -9.9 15.8
-1 7 14 7.1 23
-1 7 14 28.9 13.1
2 9 -15 -26.6 12.6
2 9 -15 14.2 14.3
1 9 -15 -1 12.7
1 9 -15 -15.1 15.4
0 9 -15 -3 11.5
0 9 -15 13.1 13.2
0 -9 15 47.8 33.2
-1 9 -15 45.1 14.1
-1 9 -15 66.59 14.4
1 -9 15 121.39 36.1
-2 9 -15 11.1 13.1
-2 9 -15 4.7 12.7
2 -9 15 12.2 34.7
-3 9 -15 -15.7 13
-3 9 -15 -19.4 13.7
3 -9 15 25.9 35.1
-4 9 -15 68.79 18.2
-4 9 -15 21.8 15.4
4 -9 15 81.09 39.4
4 8 -15 -18.3 11.4
4 8 -15 -10.9 11.5
3 8 -15 -18.2 10.9
3 8 -15 -3.8 10.6
2 8 -15 24.4 11.3
2 8 -15 31.4 14.6
1 8 -15 -4.1 10.1
-1 -8 15 29.4 24
0 8 -15 7.8 11
0 -8 15 38.7 24.4
-1 8 -15 -18.7 10.1
-1 8 -15 10.5 10.7
1 -8 15 41.3 24.2
-2 8 -15 -13.5 9.7
-2 8 -15 9.8 11.6
-3 8 -15 15.9 11.3
-3 8 -15 5.5 11.6
3 -8 15 40.1 30.6
-4 8 -15 -15.1 12.1
-4 8 -15 9.1 12.2
4 -8 15 37.6 32.4
-5 8 -15 -17.1 14.7
-5 8 -15 30.7 14.7
5 7 -15 -3 12.5
5 7 -15 -22.1 11.1
4 7 -15 2.6 10.8
4 7 -15 -4.1 9.7
3 7 -15 23.1 10.1
3 7 -15 10 9.3
2 7 -15 19.9 9
2 7 -15 21.4 10.2
2 7 -15 1.5 9.6
-2 -7 15 17.9 11.3
1 7 -15 80.19 11.6
1 7 -15 122.49 18.6
1 7 -15 70.79 10.8
0 7 -15 -4 8.5
0 7 -15 8.1 10.5
0 -7 15 -0.2 10.1
0 -7 15 24.4 17.6
-1 7 -15 86.89 12.1
1 -7 15 115.79 23
1 -7 15 68.29 11.5
-2 7 -15 -9.5 9.6
2 -7 15 -2 19.8
2 -7 15 -11.4 17.2
-3 7 -15 91.19 12.8
-3 7 -15 93.49 12.9
-4 7 -15 84.99 13.2
-4 7 -15 81.19 12.5
-5 7 -15 96.89 14.7
-5 7 -15 87.19 20.2
-6 7 -15 35 14.7
-6 7 -15 3.2 15.5
6 6 -15 16.7 14.1
6 6 -15 17.1 13
5 6 -15 8.8 10.3
5 6 -15 -16.1 9.6
4 6 -15 -1.9 8.8
4 6 -15 -9.1 9.6
3 6 -15 9.5 8.5
3 6 -15 11.8 8
-3 -6 15 26.7 12
2 6 -15 50.59 10.5
2 6 -15 49.4 8.5
2 6 -15 42.3 9.4
-2 -6 15 41 11
1 6 -15 2.9 7.2
1 6 -15 -2.6 7.3
1 6 -15 -0.6 8.2
-1 -6 15 11.4 11.8
0 6 -15 46 8.6
0 6 -15 31.9 8.6
0 -6 15 34.8 9.3
-1 6 -15 8.5 8.6
-1 6 -15 10 8.2
1 -6 15 6.8 15
1 -6 15 -2.9 8.1
-2 6 -15 43.5 10
2 -6 15 45.5 20.2
-3 6 -15 48.7 11.1
3 -6 15 3.2 13
-4 6 -15 7.2 9.7
-4 6 -15 -1.3 9
4 -6 15 -15.8 11.7
-5 6 -15 20.8 19.3
-5 6 -15 -9 10.7
-6 6 -15 131.29 16.2
-6 6 -15 105.79 17
-7 6 -15 43.8 18.4
7 5 -15 -13.9 13.2
7 5 -15 -27.8 13.7
6 5 -15 -10.2 11.3
6 5 -15 -5.9 11.2
5 5 -15 167.38 25
5 5 -15 129.59 19.4
4 5 -15 35.8 9.7
4 5 -15 15 5.4
4 5 -15 17.8 9.5
3 5 -15 5.9 7.6
3 5 -15 -0.4 8.2
3 5 -15 0.1 6.2
-3 -5 15 2.3 9
2 5 -15 10.8 7.4
2 5 -15 6.4 7.8
2 5 -15 7.1 5.9
1 5 -15 -7.6 6.2
1 5 -15 5.1 7.4
1 5 -15 2.5 11.1
0 5 -15 5.6 8.8
0 5 -15 2.1 6.7
0 -5 15 0.5 10.7
0 -5 15 -4.4 8
-1 5 -15 192.08 16.8
1 -5 15 192.58 21.2
1 -5 15 233.88 17.9
-2 5 -15 20.9 8.8
-2 5 -15 21.7 9
2 -5 15 15.1 13.7
-3 5 -15 34.7 9.6
3 -5 15 9.4 9.4
-4 5 -15 -2.6 9.2
-5 5 -15 21.7 10.2
-5 5 -15 37 11.2
-6 5 -15 19.2 12.6
-6 5 -15 -2.3 12.8
-7 5 -15 9.1 31.3
7 4 -15 9.2 12.7
7 4 -15 -9.8 12.7
6 4 -15 51.39 12.7
6 4 -15 43.5 10.6
5 4 -15 11.2 9
5 4 -15 5.9 9.8
4 4 -15 37.6 9.5
4 4 -15 37.2 5.3
4 4 -15 32.3 9.5
3 4 -15 134.49 11
3 4 -15 161.58 15.8
3 4 -15 143.29 19.8
-3 -4 15 166.78 20
2 4 -15 26.5 8.5
2 4 -15 42.8 8.3
2 4 -15 28.5 6.6
1 4 -15 15.6 6.5
1 4 -15 25.5 8.2
1 4 -15 17.7 5.9
0 4 -15 102.09 13.1
0 4 -15 106.49 13.8
0 4 -15 113.49 17.4
0 -4 15 109.59 14.8
0 -4 15 72.39 11.8
-1 4 -15 510.15 20.2
-1 4 -15 491.85 20.4
1 -4 15 535.25 20.6
-2 4 -15 181.58 16.6
-2 4 -15 169.28 15.9
2 -4 15 195.48 16.3
-3 4 -15 13.9 8.6
3 -4 15 12.7 8.7
3 -4 15 -5.1 7.4
-4 4 -15 130.49 17.6
-5 4 -15 54.59 11.8
-5 4 -15 57.69 13.6
-6 4 -15 14.5 11.3
-6 4 -15 24.1 11
-7 4 -15 -16.1 23.4
8 3 -15 15.2 14.1
7 3 -15 116.59 16
7 3 -15 169.88 22.2
6 3 -15 9.8 9.6
6 3 -15 5.3 10.5
5 3 -15 8.3 8.2
5 3 -15 3.6 9.5
4 3 -15 65.09 25.4
4 3 -15 38.2 8.4
4 3 -15 57.39 17.5
4 3 -15 39.2 4.7
-4 -3 15 25 11.6
3 3 -15 9.7 7.9
3 3 -15 -0.4 4.7
3 3 -15 6.9 6.1
-3 -3 15 0.9 7.7
2 3 -15 341.17 16.8
2 3 -15 356.56 22.6
2 3 -15 316.87 13.3
1 3 -15 91.09 10.9
1 3 -15 123.99 18
1 3 -15 94.19 11.9
0 3 -15 13.9 7.2
0 3 -15 13.7 6.3
0 3 -15 2.6 5.9
-1 3 -15 40.3 7.2
-1 3 -15 32.1 7
1 -3 15 28.9 7.2
1 -3 15 36.5 7.2
-2 3 -15 231.08 16.9
-2 3 -15 222.48 15.5
2 -3 15 190.98 15
2 -3 15 209.78 16
2 -3 15 203.18 23.3
-3 3 -15 238.98 16.9
3 -3 15 233.88 23.1
3 -3 15 261.97 17
-4 3 -15 13.3 8.1
4 -3 15 29.7 9
-5 3 -15 161.78 18.7
-6 3 -15 176.28 18.4
-6 3 -15 228.28 21.9
-6 3 -15 209.18 29.1
-7 3 -15 64.69 25.9
8 2 -15 1.2 15.1
7 2 -15 0.9 11.8
6 2 -15 -1 10.1
6 2 -15 12.1 8.8
5 2 -15 6 9.2
5 2 -15 7.5 7.7
4 2 -15 17.6 13.3
4 2 -15 4.6 6.8
4 2 -15 14.4 4.2
4 2 -15 24.2 8.7
-4 -2 15 10 8.3
3 2 -15 27 5.1
3 2 -15 10.7 7.9
3 2 -15 32.2 7.6
-3 -2 15 15.9 8
2 2 -15 4.2 7.3
2 2 -15 6.7 5.9
2 2 -15 -0.6 4.6
-2 -2 15 -0.7 5.3
1 2 -15 196.18 12.2
1 2 -15 186.58 12.9
1 2 -15 174.48 19.6
-1 -2 15 182.18 13
0 2 -15 158.28 12.7
0 -2 15 128.99 13.1
-1 2 -15 124.29 13.1
-1 2 -15 119.19 12.7
1 -2 15 100.49 13.7
-2 2 -15 6.5 6
-2 2 -15 1.2 6.7
2 -2 15 8.4 7.3
2 -2 15 20.9 6.7
2 -2 15 -2.7 7.2
-3 2 -15 27 7.2
-3 2 -15 28 7.6
3 -2 15 49.4 8.1
3 -2 15 9.3 12.9
3 -2 15 29.9 8.1
-4 2 -15 123.39 16.1
-4 2 -15 124.69 15.3
4 -2 15 113.79 15.2
4 -2 15 152.58 16.6
-5 2 -15 30 10.7
-5 2 -15 29 8.4
5 -2 15 19.6 9.8
-6 2 -15 2.7 19.5
-7 2 -15 109.99 30.5
8 1 -15 1.1 14.2
7 1 -15 23.4 13
6 1 -15 64.59 12.3
5 1 -15 -0.2 6.7
5 1 -15 6.4 14.5
5 1 -15 11.7 8.7
4 1 -15 29.9 7.5
4 1 -15 26.2 9.4
4 1 -15 14.3 11.3
-4 -1 15 29.3 5.9
3 1 -15 10.3 6.1
3 1 -15 21.6 5.3
3 1 -15 21.6 8.4
-3 -1 15 26.3 5.5
2 1 -15 249.78 21.1
2 1 -15 260.47 14.3
2 1 -15 232.98 12.2
-2 -1 15 248.98 13.4
1 1 -15 452.15 23.8
1 1 -15 459.95 16.4
1 1 -15 440.06 16.5
-1 -1 15 449.06 17.3
-1 -1 15 447.36 17.7
0 1 -15 161.48 13.4
0 1 -15 203.98 12.9
0 1 -15 181.08 14.9
0 -1 15 188.78 16.9
0 -1 15 164.28 14.3
-1 1 -15 -0.4 5.4
-1 1 -15 -9.6 5.9
-1 1 -15 -4.6 5.9
1 -1 15 -2.1 6.1
-2 1 -15 18.9 6.7
-2 1 -15 7.8 6
-2 1 -15 7.9 7.8
2 -1 15 22 6.1
2 -1 15 6 7.2
-3 1 -15 23.7 7.2
-3 1 -15 20.2 6.6
3 -1 15 13.3 7.9
3 -1 15 16.1 6.7
-4 1 -15 14.6 6.8
-4 1 -15 4.4 7.7
4 -1 15 -2.6 8.5
4 -1 15 5.7 7.6
-5 1 -15 -6.7 18.6
5 -1 15 -2.4 10.5
5 -1 15 14.7 10.4
-6 1 -15 9.7 20.7
6 -1 15 23.8 13.5
-7 1 -15 54.39 34.9
7 -1 15 13.4 13.6
8 0 -15 16 15.2
7 0 -15 6.8 11.6
6 0 -15 5.4 17.5
6 0 -15 -6.3 9.8
5 0 -15 -0.3 8.8
-5 0 15 7.2 4.6
4 0 -15 27.7 13.4
4 0 -15 18.7 6.8
4 0 -15 22.7 11.7
4 0 -15 3.1 8.7
-4 0 15 18.2 5.4
-4 0 15 6 8.8
3 0 -15 44.9 10.1
3 0 -15 57.49 6.8
3 0 -15 51.79 7.3
-3 0 15 48.5 6.7
-3 0 15 49.8 9.6
2 0 -15 204.88 20.9
2 0 -15 207.48 13.1
2 0 -15 218.78 12.9
-2 0 15 168.08 24
-2 0 15 211.38 13.6
1 0 -15 306.97 15.5
1 0 -15 290.07 22
1 0 -15 319.17 13.6
-1 0 15 329.57 19.8
-1 0 15 320.27 15.8
0 0 -15 247.98 15.2
0 0 -15 268.67 12.9
0 0 -15 273.87 16
0 0 15 279.07 16.1
0 0 15 291.27 21.1
-1 0 -15 4.4 4.9
-1 0 -15 -1.1 6
-1 0 -15 -5.7 6.3
1 0 15 0.5 6.2
1 0 15 2.3 14.9
-2 0 -15 11 7.4
-2 0 -15 -3.6 5.1
-2 0 -15 -10.8 6.6
2 0 15 -6.6 9.1
2 0 15 -0.3 18.2
-3 0 -15 33.1 7.5
-3 0 -15 32.9 6.3
3 0 15 37.8 6.4
3 0 15 29.2 9.4
-4 0 -15 260.27 31
-4 0 -15 247.18 17.3
4 0 15 281.27 19.6
4 0 15 285.57 21.9
-5 0 -15 6.6 18.7
5 0 15 6.6 10.9
-6 0 -15 38.9 24.4
6 0 15 -13.8 11.8
8 -1 -15 10 14.8
7 -1 -15 3.7 12.5
6 -1 -15 -10.2 9.9
6 -1 -15 14.9 27.6
-6 1 15 -0.2 5.2
5 -1 -15 139.79 22.1
5 -1 -15 104.99 13.6
-5 1 15 128.99 11.2
4 -1 -15 54.49 8.1
-4 1 15 42.2 10
-4 1 15 57.79 7.1
3 -1 -15 262.07 18.3
3 -1 -15 298.17 15.1
3 -1 -15 306.77 23.4
-3 1 15 286.07 15
-3 1 15 290.47 22.9
2 -1 -15 28.1 6.8
2 -1 -15 23.2 9.1
2 -1 -15 23.4 7.4
2 -1 -15 24.1 5.9
-2 1 15 39 14.7
-2 1 15 31.8 6.9
-2 1 15 21 9
1 -1 -15 25.9 5.2
1 -1 -15 29.1 9.5
-1 1 15 11.3 8.6
-1 1 15 56.69 17.4
-1 1 15 15.5 6.7
0 -1 -15 -10.8 7.6
0 -1 -15 13.4 4.9
0 1 15 -2.6 8.6
0 1 15 5.9 16.3
0 1 15 -0.4 6.5
-1 -1 -15 -1.5 4.3
-1 -1 -15 11.2 7.8
-1 -1 -15 -1.5 6.6
1 1 15 -0.2 8.6
1 1 15 -3.6 9.5
1 1 15 8.6 17.9
-2 -1 -15 6.8 4.6
-2 -1 -15 -1.6 7
2 1 15 -2.2 7.3
-3 -1 -15 4.1 7.9
-3 -1 -15 -4.2 28.2
3 1 15 18.3 9.1
-4 -1 -15 4.5 17.8
4 1 15 4.2 10.2
-5 -1 -15 58.09 22.4
5 1 15 8.6 11.6
-6 -1 -15 111.39 30.1
6 1 15 48.1 15.4
8 -2 -15 2.3 14.7
7 -2 -15 27.8 13.1
6 -2 -15 37.7 18.6
6 -2 -15 -2.9 10.5
-6 2 15 9.7 7.2
5 -2 -15 47.6 16.3
5 -2 -15 28.6 11.1
-5 2 15 39.7 7.3
4 -2 -15 11.1 13.1
4 -2 -15 9.1 9.6
4 -2 -15 7.4 6.4
-4 2 15 7.9 6.6
3 -2 -15 39.9 10.1
3 -2 -15 40.6 6.7
-3 2 15 42.8 10.4
-3 2 15 47.3 7.9
2 -2 -15 39.4 5.8
2 -2 -15 33.3 9.3
2 -2 -15 46 9.7
-2 2 15 49.4 8.2
-2 2 15 20.6 10.2
-2 2 15 62.49 26
1 -2 -15 -4.8 4
1 -2 -15 -4.6 6.9
-1 2 15 1.4 6.8
-1 2 15 9.9 17.7
-1 2 15 -10.9 9.1
0 -2 -15 11.3 7.8
0 -2 -15 -0.2 3.8
0 2 15 -2.4 9.4
0 2 15 24.8 18.7
-1 -2 -15 70.39 7.3
1 2 15 55.59 9.8
-2 -2 -15 0.7 13.1
-2 -2 -15 -8.7 8.3
2 2 15 -2.3 8.1
2 2 15 10.7 23.2
-3 -2 -15 414.66 21.4
3 2 15 498.65 25.9
-4 -2 -15 -5.3 18.1
4 2 15 -15.8 10.2
-5 -2 -15 16.7 22.4
5 2 15 -1.7 13.5
8 -3 -15 -31.9 14.8
7 -3 -15 -12.6 13.1
-7 3 15 -11.8 9
6 -3 -15 30.1 12.2
-6 3 15 40.5 9.2
5 -3 -15 12.9 11.9
5 -3 -15 43.8 14.6
-5 3 15 21.3 7.9
4 -3 -15 25.3 9.9
4 -3 -15 44.1 14
4 -3 -15 24 7.7
-4 3 15 26 8.1
3 -3 -15 15.4 5.7
3 -3 -15 14.6 11.1
-3 3 15 -0.5 9.7
-3 3 15 16.4 7.7
2 -3 -15 11.5 4.9
-2 3 15 6 10.6
-2 3 15 10.4 22.6
-2 3 15 -2 9.8
1 -3 -15 129.29 8.6
-1 3 15 95.79 13.3
-1 3 15 142.89 18
0 -3 -15 122.79 15.5
0 -3 -15 82.49 11.5
0 3 15 94.29 12.2
-1 -3 -15 65.09 12
-1 -3 -15 103.09 15.4
1 3 15 66.29 10.7
1 3 15 111.19 36.8
-2 -3 -15 111.29 20.4
2 3 15 72.69 12.2
-3 -3 -15 63.59 20.6
3 3 15 3.5 11
-4 -3 -15 42.3 22.3
4 3 15 14.7 13.3
7 -4 -15 -15.4 13.8
-7 4 15 -15.1 11.4
6 -4 -15 43.7 21.8
6 -4 -15 7.4 12.5
-6 4 15 6.9 13.2
5 -4 -15 -8.3 10.6
-5 4 15 1.6 10.2
4 -4 -15 51.29 12.2
4 -4 -15 54.19 8.5
-4 4 15 34.5 10.1
3 -4 -15 5.9 6.2
-3 4 15 2.8 9
2 -4 -15 -8.9 3.4
2 -4 -15 12.4 6.3
2 -4 -15 1.4 10.3
-2 4 15 -2.3 9.5
1 -4 -15 9.6 10.2
-1 4 15 3.4 8.9
-1 4 15 48.9 30.1
0 -4 -15 27.9 12.4
0 4 15 6.6 9.4
-1 -4 -15 79.69 16.2
1 4 15 54.59 12.2
-2 -4 -15 275.07 30.9
2 4 15 246.48 24.9
-3 -4 -15 80.99 24.6
3 4 15 53.79 15
7 -5 -15 -1.1 16.1
6 -5 -15 27.9 32
6 -5 -15 -9.2 13.2
-6 5 15 11.1 13.4
5 -5 -15 -0.9 11.7
-5 5 15 8.7 10.8
4 -5 -15 34.1 8.8
-4 5 15 17.5 11
-2 5 15 65.99 12.7
0 5 15 16.3 11.6
1 5 15 135.89 16.1
2 5 15 146.49 17.4
-5 6 15 -15.2 12.4
-4 6 15 12.2 13.4
-3 6 15 -13.3 11.4
-2 6 15 7.7 13.2
-1 6 15 -2.8 13.3
0 6 15 4.9 14.2
2 9 -16 9.2 14.6
1 9 -16 19 14.2
1 9 -16 7.8 13.6
0 9 -16 15.5 14.2
0 9 -16 -13.6 13.5
-1 9 -16 13.2 13.7
-1 9 -16 27.8 15.5
1 -9 16 85.49 39.3
-2 9 -16 13.6 13.6
-2 9 -16 9 14.8
2 -9 16 99.59 40.3
-3 9 -16 -7.8 15.1
-3 9 -16 -18.1 14.7
3 -9 16 53.09 41.7
4 8 -16 -27.2 14.7
3 8 -16 12.7 12.2
3 8 -16 10.9 13.1
2 8 -16 6.9 11.1
2 8 -16 12.1 11.4
1 8 -16 108.59 14
0 8 -16 -2.7 10.3
0 -8 16 20 26.1
1 -8 16 11.6 25.5
-2 8 -16 9.2 12.3
-2 8 -16 27.8 11.6
-3 8 -16 8.5 13
-3 8 -16 9.5 12.3
3 -8 16 24.6 32.1
-4 8 -16 -3.8 13.5
-4 8 -16 -7.3 13.1
4 -8 16 2.4 37
-5 8 -16 0.9 14.2
5 -8 16 -52.29 39.1
5 7 -16 -16.6 12.1
5 7 -16 -13.4 13.1
4 7 -16 3.4 10.8
4 7 -16 -6.8 11.2
3 7 -16 22.3 10.9
3 7 -16 31.3 11.7
2 7 -16 -5.8 10.3
2 7 -16 -8.5 9.6
-2 -7 16 31.8 10.8
1 7 -16 54.69 10.2
1 7 -16 30.2 11.6
1 7 -16 55.49 11.7
-1 -7 16 50.29 11.6
-1 -7 16 84.69 19.7
0 7 -16 10 10.1
0 -7 16 4.3 12.6
0 -7 16 35.6 19.6
-1 7 -16 24.2 11.2
1 -7 16 22 20.1
-2 7 -16 -7.2 10.2
2 -7 16 -8 10.9
2 -7 16 13.9 23.5
-3 7 -16 8.1 10.5
-3 7 -16 20.4 11.6
3 -7 16 -5.8 24.2
-4 7 -16 -8.8 11.8
-4 7 -16 8.5 11.3
-5 7 -16 39.4 14.4
-5 7 -16 24.1 13.8
6 6 -16 -10.4 13.4
5 6 -16 -25.8 16.1
5 6 -16 -4.5 13.8
4 6 -16 98.49 12.4
4 6 -16 75.39 12.8
3 6 -16 27.4 9
3 6 -16 28.1 9.3
3 6 -16 24.9 10.7
2 6 -16 64.99 11
2 6 -16 29 9.9
2 6 -16 40 11.6
-2 -6 16 33 11.6
1 6 -16 16.2 8.4
1 6 -16 19.9 9.5
1 6 -16 30.2 9.3
-1 -6 16 44.7 13.7
-1 -6 16 20.3 10
0 6 -16 -4.2 8.5
0 6 -16 -12 8.4
0 -6 16 -3.7 14
0 -6 16 -8.7 8.9
-1 6 -16 5.7 8.8
1 -6 16 9.9 17.2
1 -6 16 -0.6 10.1
-2 6 -16 51.59 10.3
2 -6 16 55.79 22.1
-3 6 -16 108.79 12.8
3 -6 16 94.89 19.5
-4 6 -16 -5.4 10.3
-4 6 -16 15.3 10.7
-5 6 -16 -7.3 11.4
-5 6 -16 14.4 11.5
-6 6 -16 19.5 15.5
-6 6 -16 -7.1 12.9
6 5 -16 41.1 13.6
6 5 -16 20.4 13
5 5 -16 -4.8 10.1
5 5 -16 0.7 10.4
4 5 -16 -17.9 9.9
4 5 -16 -1.6 5.8
4 5 -16 7.1 9.4
3 5 -16 -6 6.5
3 5 -16 3.1 8.7
3 5 -16 1.4 7.3
2 5 -16 -0.4 8.1
2 5 -16 -1.3 6.8
2 5 -16 -4.7 8.2
-2 -5 16 -16.6 9.1
1 5 -16 105.59 11.6
1 5 -16 95.49 11.8
1 5 -16 141.89 15
-1 -5 16 100.89 12.9
0 5 -16 2.9 7.5
0 5 -16 -6.8 7
0 -5 16 -10.5 8.2
0 -5 16 8.5 11.6
-1 5 -16 -10.1 8.5
-1 5 -16 -0.3 7.7
1 -5 16 0.5 15
1 -5 16 -8.6 8.5
-2 5 -16 48.6 10.1
2 -5 16 50.39 11.1
-3 5 -16 1.8 9.9
-4 5 -16 8.9 9.5
-5 5 -16 77.89 13.1
-5 5 -16 83.69 12.4
-6 5 -16 103.09 15.6
-6 5 -16 92.19 15
7 4 -16 33.8 15.9
7 4 -16 72.99 14.4
6 4 -16 -1.7 9.9
6 4 -16 1.2 11.8
5 4 -16 58.79 14.3
5 4 -16 50.09 11.8
4 4 -16 2.5 5.1
4 4 -16 11.8 8.5
4 4 -16 -1.1 9.6
3 4 -16 2.1 7.5
3 4 -16 0.9 10.1
3 4 -16 4.1 5.9
2 4 -16 140.59 12.7
2 4 -16 158.88 15.6
2 4 -16 152.38 21
1 4 -16 9.5 8.3
1 4 -16 -6 5.9
1 4 -16 13.7 7.8
-1 -4 16 -3.4 7.7
0 4 -16 116.19 15
0 4 -16 84.89 9.2
0 -4 16 94.89 14.9
0 -4 16 85.19 11.4
-1 4 -16 65.79 9.3
-1 4 -16 59.19 9.7
1 -4 16 59.59 10.1
2 -4 16 107.19 18.1
-3 4 -16 63.79 10.2
-4 4 -16 155.48 21
-5 4 -16 20.4 11
-5 4 -16 28.6 10.3
-6 4 -16 3 11.8
-6 4 -16 6.7 11.7
7 3 -16 91.29 15.5
6 3 -16 3.9 10.4
6 3 -16 0.4 10.9
5 3 -16 2.2 9.4
5 3 -16 1.8 8.5
4 3 -16 -5.1 7.5
4 3 -16 -0.7 8.9
4 3 -16 3.2 4.9
3 3 -16 28.1 6
3 3 -16 34 13.6
-3 -3 16 14.1 9
2 3 -16 8.8 8.6
2 3 -16 8.9 5.8
2 3 -16 12.1 6.8
-2 -3 16 11.6 8.8
1 3 -16 342.57 24
1 3 -16 358.46 17.5
1 3 -16 338.27 15.9
-1 -3 16 355.36 23.6
0 3 -16 128.69 13.7
0 3 -16 150.58 14.6
0 -3 16 104.39 12.4
-1 3 -16 3.6 7
-1 3 -16 1.2 6.7
1 -3 16 15 8.9
1 -3 16 6.6 6.8
-2 3 -16 -1 6.7
-2 3 -16 0.6 8.7
2 -3 16 -5.5 8.8
2 -3 16 -3.4 7.7
-3 3 -16 142.99 16.4
3 -3 16 162.78 17.2
-4 3 -16 37 9.5
-5 3 -16 67.49 11.8
-6 3 -16 -27.2 25.4
8 2 -16 -14 15.9
7 2 -16 -8.1 12
7 2 -16 -5 10.2
6 2 -16 31.3 13.6
6 2 -16 27.1 10
5 2 -16 142.69 18.3
5 2 -16 91.69 13.3
4 2 -16 22.5 5.3
4 2 -16 24.7 8.4
4 2 -16 -8.1 12.7
4 2 -16 23.9 9.6
3 2 -16 0.9 5
3 2 -16 8.5 10.2
3 2 -16 3.4 6.5
-3 -2 16 0.4 8.6
2 2 -16 123.59 20
2 2 -16 73.39 8.4
2 2 -16 95.39 11.1
-2 -2 16 63.59 10.5
-2 -2 16 94.59 12.1
1 2 -16 43.3 8.7
1 2 -16 42.4 9.5
1 2 -16 44.5 7.5
1 2 -16 40 7.1
-1 -2 16 31 8.9
-1 -2 16 43.1 7.4
0 2 -16 3.7 6
0 2 -16 6.3 6.1
0 -2 16 3.4 6.4
0 -2 16 14.5 12.1
0 -2 16 2.6 8.3
-1 2 -16 17.1 6.8
-1 2 -16 7.6 7.1
1 -2 16 1.3 9.5
1 -2 16 5.6 6.9
-2 2 -16 10.5 8.9
-2 2 -16 13.9 7
2 -2 16 24.1 6.9
2 -2 16 20.5 11
-3 2 -16 26.2 9
-3 2 -16 22.9 7.8
3 -2 16 29.7 9.6
3 -2 16 19.3 8
-4 2 -16 153.68 22.7
-4 2 -16 235.58 17.8
4 -2 16 243.98 20.9
4 -2 16 194.88 19.7
-5 2 -16 -31.1 20.5
-5 2 -16 -1.8 8.9
5 -2 16 -19.3 10.1
-6 2 -16 116.89 26
8 1 -16 4.3 16.6
7 1 -16 39.4 15.9
6 1 -16 -7.4 10.6
5 1 -16 2.2 9.9
5 1 -16 2.5 17.9
5 1 -16 9.8 8.3
4 1 -16 2.2 20.9
4 1 -16 20.3 9.7
4 1 -16 10.7 7.6
-4 -1 16 4.6 4.9
3 1 -16 259.37 22.9
3 1 -16 333.57 17.1
3 1 -16 346.67 14.4
-3 -1 16 305.87 34
-3 -1 16 325.87 14.5
2 1 -16 6.8 6.1
2 1 -16 -4.2 8.2
2 1 -16 -6.6 5.3
2 1 -16 -13.4 7
-2 -1 16 2.7 5.8
1 1 -16 20.9 8.4
1 1 -16 6.7 8.2
1 1 -16 6.9 5.8
1 1 -16 10.7 6.3
-1 -1 16 12.7 6.4
-1 -1 16 29.5 13.9
0 1 -16 176.78 13.4
0 -1 16 165.18 15.1
0 -1 16 178.28 19.3
-1 1 -16 -0.7 6
-1 1 -16 -4.5 6.9
1 -1 16 -5 6.6
1 -1 16 10.3 16.6
1 -1 16 -1.2 9.6
-2 1 -16 45.9 8.4
-2 1 -16 54.29 7.8
2 -1 16 59.79 9.6
-3 1 -16 119.49 16.4
-3 1 -16 116.29 13.6
3 -1 16 102.59 12.5
3 -1 16 101.29 10
-4 1 -16 113.49 11.8
-4 1 -16 128.49 17.2
4 -1 16 176.48 18.6
4 -1 16 106.79 13.3
-5 1 -16 -2.9 19.4
5 -1 16 0.8 10.2
-6 1 -16 -1.3 25.6
6 -1 16 -1.7 13.4
8 0 -16 -16.1 15.2
7 0 -16 7.3 14.7
6 0 -16 -1.1 10.7
5 0 -16 7.7 15.6
5 0 -16 14.4 10.5
5 0 -16 0.4 7.8
-5 0 16 3.8 5.5
4 0 -16 61.89 8.9
4 0 -16 47.8 10.9
-4 0 16 62.09 7.2
3 0 -16 267.27 32.1
3 0 -16 389.96 34.6
3 0 -16 253.47 14.7
3 0 -16 297.77 15.9
-3 0 16 307.47 28.1
-3 0 16 262.77 14.5
2 0 -16 417.96 17.4
2 0 -16 420.26 21.7
2 0 -16 454.75 37.9
2 0 -16 411.76 16.7
-2 0 16 435.06 20.4
-2 0 16 387.46 26.2
1 0 -16 62.29 10.5
1 0 -16 74.79 7.7
1 0 -16 70.59 9.9
1 0 -16 65.99 8.2
-1 0 16 48.2 11
-1 0 16 72.99 9
0 0 -16 40.8 6.6
0 0 -16 38.6 7.9
0 0 16 60.39 21.1
0 0 16 39.3 10.5
0 0 16 51.19 8.6
-1 0 -16 18.3 5.9
-1 0 -16 32.8 8.2
1 0 16 29.6 17.5
-2 0 -16 -5.3 5.4
-2 0 -16 4.1 8.1
2 0 16 -5.4 8.3
-3 0 -16 3.4 9.1
-3 0 -16 3.2 6.3
3 0 16 4 8.8
3 0 16 1.4 28.4
-4 0 -16 -25 17.8
4 0 16 -9.1 9.9
4 0 16 14.1 12.7
-5 0 -16 40.6 22.3
5 0 16 16.4 12.3
-6 0 -16 70.69 27.4
6 0 16 48.6 15.6
8 -1 -16 30.8 17.4
7 -1 -16 -9.1 12.1
6 -1 -16 23.3 18
6 -1 -16 -0.4 10.9
-6 1 16 -4.5 6.3
5 -1 -16 -9.6 9.5
-5 1 16 5.2 6.3
4 -1 -16 66.09 16.2
4 -1 -16 50.09 8.4
4 -1 -16 29 11
-4 1 16 40.3 7.3
3 -1 -16 223.28 23.4
3 -1 -16 201.48 14.1
-3 1 16 217.08 15.1
2 -1 -16 48.5 8.3
2 -1 -16 51.09 6.8
2 -1 -16 39.8 8.8
-2 1 16 35.2 11.8
-2 1 16 72.99 17.2
-2 1 16 40 8
1 -1 -16 -14.3 6.9
1 -1 -16 -1.7 7.3
1 -1 -16 3.6 5
-1 1 16 -5.3 9.7
-1 1 16 -2 6.9
0 -1 -16 0.7 5
0 -1 -16 9.9 7.6
0 -1 -16 -0.3 7.6
0 1 16 13.9 20
0 1 16 13.6 9.7
-1 -1 -16 28.3 5.8
1 1 16 20.9 8.7
1 1 16 57.59 22.1
-2 -1 -16 -0.7 5.3
-2 -1 -16 -8.3 8.7
2 1 16 -5.8 8.2
2 1 16 23.5 23.1
-3 -1 -16 95.29 11.8
3 1 16 82.09 11.8
-4 -1 -16 9.7 19
4 1 16 -16.8 11.3
-5 -1 -16 29.8 24.1
5 1 16 3.2 13.6
8 -2 -16 -15.6 15.6
7 -2 -16 3.8 14
6 -2 -16 8.8 11.9
-6 2 16 13.8 8.3
5 -2 -16 28.3 18.8
5 -2 -16 36.7 12.2
4 -2 -16 -3.8 14.5
4 -2 -16 0.8 6.8
4 -2 -16 -2.5 10.5
-4 2 16 -2.1 6.7
3 -2 -16 0.5 5.8
3 -2 -16 -5.2 9
-3 2 16 -5.4 7.1
2 -2 -16 235.18 24.2
2 -2 -16 223.58 12.7
-2 2 16 217.88 29.2
-2 2 16 208.78 17.3
1 -2 -16 40.3 6
1 -2 -16 31.5 11.4
-1 2 16 45.9 21.8
-1 2 16 32 12.3
0 -2 -16 -11 8.4
0 -2 -16 4.4 4.8
0 2 16 5.6 23.3
0 2 16 12.3 8.3
-1 -2 -16 -3.5 9.5
1 2 16 12.9 8.6
1 2 16 13.4 27
-2 -2 -16 136.89 19.9
2 2 16 100.49 12.7
-3 -2 -16 4.5 16.8
3 2 16 -10.5 10.2
-4 -2 -16 14.3 20.1
4 2 16 -6.6 11.8
-5 -2 -16 48.8 26.3
5 2 16 -9 18.5
7 -3 -16 -19.6 13.4
6 -3 -16 30.4 14
-6 3 16 4.6 11.5
5 -3 -16 12.2 11.6
-5 3 16 11 9
4 -3 -16 12.7 7.6
4 -3 -16 18.1 12.5
-4 3 16 -3.9 8.1
3 -3 -16 23.1 7
3 -3 -16 22.1 11.1
-3 3 16 14.6 9.5
2 -3 -16 54.19 6.7
-2 3 16 63.49 28.6
-2 3 16 44.6 10.3
1 -3 -16 -4.5 4.4
-1 3 16 4.3 9.8
0 -3 -16 -8.8 13
0 3 16 47.1 30.2
0 3 16 4 9.2
-1 -3 -16 5.2 10.4
-1 -3 -16 50.59 16.1
1 3 16 21.6 10.5
-2 -3 -16 249.18 27.7
2 3 16 227.18 23.9
-3 -3 -16 72.79 25.4
3 3 16 34.2 12.6
-4 -3 -16 5.7 26
4 3 16 -1.3 14.4
7 -4 -16 -15.6 14.8
6 -4 -16 -15.5 12.9
-6 4 16 1.5 12.4
5 -4 -16 -4 11.6
-5 4 16 2.1 10.6
4 -4 -16 37.8 12.3
4 -4 -16 44.5 9.8
-4 4 16 50.49 12.1
3 -4 -16 -12 6.7
-3 4 16 5.5 10
2 -4 -16 5 7.6
-2 4 16 11.8 28.8
-2 4 16 -2.9 9.6
1 -4 -16 21.2 11.4
-1 4 16 -2.7 10.1
0 -4 -16 79.69 15.7
0 4 16 18.7 11.7
-1 -4 -16 44.9 19.4
1 4 16 10.8 11.7
2 4 16 86.89 15.3
3 4 16 -32.4 16.8
6 -5 -16 22.4 16.2
-6 5 16 -1.4 16.2
5 -5 -16 69.39 15.1
-5 5 16 85.29 15.2
-4 5 16 20.7 12.7
-3 5 16 -20.7 11.4
-2 5 16 -20.1 10.9
-1 5 16 77.99 14.6
0 5 16 6.7 13.5
1 5 16 59.69 16
-4 6 16 77.49 16.6
-3 6 16 -5.2 14.3
-2 6 16 -5 14.4
-1 6 16 -2.8 17.2
0 9 -17 30.2 18
-1 9 -17 -13.5 17.8
-1 9 -17 23.9 24.5
-2 9 -17 -12.1 24.2
2 -9 17 43.4 42.3
3 8 -17 6.5 13.4
3 8 -17 -24.6 13.4
2 8 -17 -6.9 13.1
2 8 -17 -0.3 12.9
1 8 -17 223.68 26.5
0 8 -17 -9.5 11.3
1 -8 17 34.1 47.5
-2 8 -17 2.7 12.9
-2 8 -17 -1.3 13.2
2 -8 17 46.7 33.8
-3 8 -17 17.6 14.4
-3 8 -17 11.9 13.3
3 -8 17 19.8 36.5
-4 8 -17 -9 17.5
-4 8 -17 38.5 16.5
4 -8 17 19.5 41.8
4 7 -17 62.79 14
4 7 -17 62.89 15.1
3 7 -17 84.89 13.5
3 7 -17 106.09 14
2 7 -17 76.19 13.2
2 7 -17 69.39 12.9
1 7 -17 22.6 9.6
1 7 -17 -2.8 10.3
-1 -7 17 11.2 17.4
0 7 -17 9.1 10.3
0 -7 17 -1.7 8.1
0 -7 17 44.9 22
-1 7 -17 0.5 11.2
1 -7 17 -17.5 8.1
1 -7 17 42.2 24
-2 7 -17 29.4 11.6
2 -7 17 30.8 27.4
-3 7 -17 12 11.9
-3 7 -17 -0.7 11.6
3 -7 17 0 29.2
-4 7 -17 -8.8 11.8
-4 7 -17 -16.5 12.3
-5 7 -17 24.1 15.1
-5 7 -17 9 14.8
5 6 -17 -20.9 11.8
5 6 -17 20.6 13.4
4 6 -17 -1.3 10.8
4 6 -17 -1 9.1
3 6 -17 5.6 10.4
3 6 -17 -9.3 9.8
2 6 -17 -2 8.7
2 6 -17 -1.9 9.6
2 6 -17 -1.4 9.6
1 6 -17 49.2 12.8
1 6 -17 43.8 10.8
1 6 -17 37.9 11.5
0 6 -17 25 10.6
0 -6 17 6.5 11.3
0 -6 17 52.19 17.5
-1 6 -17 85.19 12.3
1 -6 17 51.09 12.6
-2 6 -17 17.2 10.2
2 -6 17 -10.3 21.7
-3 6 -17 30.6 11.8
-4 6 -17 50.49 12.6
-4 6 -17 8.4 11.4
-5 6 -17 262.97 29.4
-5 6 -17 236.88 27.6
6 5 -17 21.7 13.3
6 5 -17 -23.4 12.5
5 5 -17 7.2 10.8
5 5 -17 -2.5 12
4 5 -17 7.9 10.8
4 5 -17 20.6 10.3
3 5 -17 65.19 9.8
3 5 -17 50.19 9.2
3 5 -17 54.49 13
2 5 -17 -2.9 8
2 5 -17 2.8 9
2 5 -17 13.9 8.1
1 5 -17 234.68 19.4
1 5 -17 180.08 16.9
-1 -5 17 250.07 28.2
0 5 -17 26.1 9.3
0 5 -17 36.6 9.6
0 -5 17 28.4 10.6
-1 5 -17 -3.7 9.1
1 -5 17 -10.7 11.5
-2 5 -17 -2.9 8.6
-3 5 -17 40.9 11.1
-4 5 -17 110.09 13.9
-5 5 -17 20.6 12.1
-5 5 -17 12.9 13.6
-6 5 -17 23.8 20.6
-6 5 -17 48.5 15.5
7 4 -17 1.1 16.1
6 4 -17 -10.1 11.8
5 4 -17 8.3 11.3
5 4 -17 5.1 9.8
4 4 -17 10 10.4
4 4 -17 -11.1 8.8
4 4 -17 3.1 5.9
3 4 -17 30 7.6
3 4 -17 25.4 9.1
3 4 -17 36.9 10.7
2 4 -17 0.3 6.6
2 4 -17 4.2 8.8
2 4 -17 10.9 8.2
1 4 -17 -7.6 6.5
1 4 -17 -3.3 7.2
0 4 -17 -12.3 7.1
0 4 -17 13.8 8
0 -4 17 -4.8 11.5
-1 4 -17 34.3 11.2
-1 4 -17 50.89 9.7
-2 4 -17 2.6 8.2
-3 4 -17 20.5 10.6
-4 4 -17 -13.4 9.1
-5 4 -17 4 11
-6 4 -17 -3.4 12.5
7 3 -17 52.49 15
7 3 -17 13.8 15.6
6 3 -17 61.69 14.3
6 3 -17 56.69 15.8
5 3 -17 8.2 11.4
5 3 -17 20.7 9.8
4 3 -17 17.1 8.8
4 3 -17 13 10.3
4 3 -17 11.9 5.8
3 3 -17 323.97 15.1
3 3 -17 340.97 20.1
3 3 -17 359.96 27.2
2 3 -17 321.67 16.1
2 3 -17 318.47 23.9
2 3 -17 372.36 25.7
1 3 -17 8.3 7.2
1 3 -17 0.4 7.2
-1 -3 17 -5.1 10.2
0 3 -17 42.6 8.4
0 3 -17 37.3 8.3
0 -3 17 11.7 11.3
-1 3 -17 29.6 8.4
-1 3 -17 38.8 9.4
-2 3 -17 27.7 8.8
2 -3 17 48.6 9.2
2 -3 17 32.8 9.1
-3 3 -17 -2.7 8.7
-4 3 -17 90.79 12.5
-4 3 -17 87.39 11.5
-5 3 -17 7 10.5
-6 3 -17 -33.9 26.3
7 2 -17 34.8 15.9
7 2 -17 29.8 13.3
6 2 -17 32.5 11.2
6 2 -17 8.7 11.9
5 2 -17 123.89 13.2
5 2 -17 94.49 14.4
4 2 -17 224.78 26.7
4 2 -17 239.88 14.2
4 2 -17 261.87 20.1
3 2 -17 60.59 11.5
3 2 -17 57.09 7.3
2 2 -17 5.9 6.6
2 2 -17 2.2 6.1
2 2 -17 3.9 13.4
-2 -2 17 2.8 6.1
1 2 -17 -8.6 6.1
1 2 -17 -3.3 8.2
1 2 -17 -0.6 9.3
1 2 -17 -1.5 6.2
-1 -2 17 -0.3 15.4
-1 -2 17 -10.6 6
0 2 -17 15.7 8.9
0 2 -17 14.5 8
0 2 -17 21.2 7.4
0 -2 17 42.3 14.3
0 -2 17 23.6 7.7
-1 2 -17 73.79 9.2
-1 2 -17 92.59 10.6
-2 2 -17 5.1 8.7
-2 2 -17 -3.8 7.2
2 -2 17 -5.8 8.3
-3 2 -17 81.09 9.9
3 -2 17 81.19 12.4
3 -2 17 84.09 11.3
-4 2 -17 39.4 18
4 -2 17 95.69 12.9
4 -2 17 77.69 12.4
-5 2 -17 12.4 11.4
5 -2 17 10.1 11.6
-6 2 -17 112.49 30.5
7 1 -17 26.8 15.1
7 1 -17 68.09 13.5
6 1 -17 52.69 14.1
6 1 -17 68.99 11.6
5 1 -17 8.6 9.2
5 1 -17 -6.2 10.2
4 1 -17 20 12.2
4 1 -17 41.3 8.8
4 1 -17 42.3 16.9
-4 -1 17 23.2 6.2
3 1 -17 -13 8.2
3 1 -17 2.7 5.8
3 1 -17 14.5 7.4
-3 -1 17 -4.1 5.6
2 1 -17 71.19 8.8
2 1 -17 61.79 8.3
2 1 -17 62.79 11.4
-2 -1 17 68.59 8.6
1 1 -17 -1.8 8.5
1 1 -17 -0.6 7.9
1 1 -17 -2.8 6.3
1 1 -17 -3 5.8
-1 -1 17 3.2 6.8
0 1 -17 1.7 6.2
0 1 -17 -9.6 6.2
0 1 -17 10.4 7.6
0 -1 17 -0.9 14.6
0 -1 17 -6 6.8
-1 1 -17 105.89 15.6
-1 1 -17 62.09 8.3
1 -1 17 67.39 9.7
-2 1 -17 7.6 7.1
2 -1 17 32.2 24.9
2 -1 17 7.7 9.1
-3 1 -17 -1.9 6.9
3 -1 17 -6.7 9
-4 1 -17 24.8 9.7
4 -1 17 6.8 10.6
4 -1 17 4.9 10.5
-5 1 -17 56.79 23.7
5 -1 17 34.3 13.6
-6 1 -17 50.19 26.9
8 0 -17 -11.4 24.2
7 0 -17 4.6 14.1
6 0 -17 -2.3 11.8
6 0 -17 11.5 9.9
5 0 -17 18.1 10.3
5 0 -17 16.6 11.6
5 0 -17 5.4 19.3
-5 0 17 10.7 6.5
4 0 -17 111.59 19.7
4 0 -17 90.99 14
-4 0 17 103.59 13
3 0 -17 252.07 26.1
3 0 -17 275.97 17
3 0 -17 255.37 18.5
-3 0 17 244.68 15.7
2 0 -17 113.89 14
2 0 -17 150.98 14
2 0 -17 135.59 22.6
-2 0 17 158.48 14.8
1 0 -17 6.6 9.7
1 0 -17 21.2 7.9
1 0 -17 17.3 6.4
-1 0 17 14 7.3
0 0 -17 51.49 7.4
0 0 -17 55.19 10
0 0 17 92.09 21.2
-1 0 -17 -5.2 8.4
-1 0 -17 -5.5 5.8
1 0 17 -7 8.2
1 0 17 15.3 21.5
-2 0 -17 -7 6.1
2 0 17 15.4 45.9
2 0 17 -1.8 8.6
-3 0 -17 34.8 8.2
3 0 17 31.6 11
-4 0 -17 -10.2 20.2
4 0 17 17.9 11.6
-5 0 -17 64.59 25.6
5 0 17 17.7 13.7
8 -1 -17 -2.9 28.5
7 -1 -17 11.3 14.9
6 -1 -17 29.5 13.1
-6 1 17 40.5 7.8
5 -1 -17 89.49 14.1
5 -1 -17 122.99 23.3
5 -1 -17 105.19 12
-5 1 17 82.09 9.5
4 -1 -17 38.5 11.6
4 -1 -17 21.1 18.6
4 -1 -17 55.69 9.3
-4 1 17 51.69 8.8
3 -1 -17 0.8 6.6
3 -1 -17 -5.2 9.9
-3 1 17 3.4 7.1
2 -1 -17 36.4 11.5
2 -1 -17 52.39 7.5
2 -1 -17 53.49 9.4
-2 1 17 65.69 18.2
-2 1 17 37.3 8.7
1 -1 -17 47.2 9.3
1 -1 -17 48.8 7.1
0 -1 -17 25.9 6.4
0 -1 -17 14.7 8.8
0 1 17 25.8 9.3
0 1 17 52.99 23.1
-1 -1 -17 -0.7 5.9
-1 -1 -17 -10.9 9.2
1 1 17 -2 8.1
-2 -1 -17 19.8 6.5
-2 -1 -17 -12.5 9.6
2 1 17 6.7 10.3
2 1 17 48 40.3
-3 -1 -17 50.19 21
3 1 17 33.2 11.4
-4 -1 -17 189.28 33
4 1 17 150.88 16.8
-5 -1 -17 35.8 24.6
5 1 17 22.7 19.8
7 -2 -17 -12.1 14
6 -2 -17 9.2 13.7
-6 2 17 -10.2 9.2
5 -2 -17 74.29 14.2
5 -2 -17 135.39 27.1
5 -2 -17 99.59 11.4
-5 2 17 73.69 10.5
4 -2 -17 -14.9 17.2
4 -2 -17 2.2 10.9
4 -2 -17 -4.1 7.5
-4 2 17 13.4 8.2
3 -2 -17 55.49 8.3
3 -2 -17 46.3 12.1
-3 2 17 63.59 10.4
2 -2 -17 65.29 7.7
-2 2 17 51.09 9.8
-2 2 17 86.89 30.6
1 -2 -17 10.2 6.2
-1 2 17 16.5 9.6
-1 2 17 60.99 25.8
0 -2 -17 18.6 6.1
0 2 17 19.1 9.8
-1 -2 -17 -10.3 11.9
-1 -2 -17 -4.4 3.3
1 2 17 4.6 9.1
1 2 17 37.7 29.3
-2 -2 -17 87.59 19.9
2 2 17 77.49 13.9
-3 -2 -17 14.8 20.3
3 2 17 -6.2 11.7
-4 -2 -17 26.9 25
4 2 17 17.2 15
7 -3 -17 -14.4 16.1
6 -3 -17 2.2 13.7
-6 3 17 -7.2 11.5
5 -3 -17 22.3 12.6
5 -3 -17 3.3 12.4
4 -3 -17 21.7 9.1
4 -3 -17 7.2 12.2
-4 3 17 15.5 9.8
3 -3 -17 -10 7.5
3 -3 -17 11.5 10.6
-3 3 17 0 10.1
2 -3 -17 -3.1 9.2
-2 3 17 4.3 9.8
-2 3 17 1.5 29.7
-1 3 17 88.59 12.5
-1 -3 -17 77.09 19.5
1 3 17 50.29 12.2
-2 -3 -17 7.2 20.7
2 3 17 13 11.8
-3 -3 -17 58.89 28
3 3 17 25.1 14.9
6 -4 -17 13 14.4
-6 4 17 -13.7 15.4
5 -4 -17 99.69 16.5
5 -4 -17 86.79 16.6
-5 4 17 69.59 13.9
4 -4 -17 42.7 12.4
4 -4 -17 64.99 14.2
-4 4 17 42.6 12
-3 4 17 41.4 12.2
-2 4 17 3.8 11.5
-1 4 17 -12.1 11.2
0 4 17 109.79 15.6
1 4 17 -16.7 11.6
2 4 17 4 17.9
5 -5 -17 25.5 19.7
-5 5 17 -9.4 17.8
-4 5 17 58.29 14.6
-3 5 17 -14.7 12.8
-2 5 17 -17.8 13
-1 5 17 -13.7 14.1
0 5 17 21.6 15.7
2 8 -18 -0.6 14.3
2 8 -18 -2.3 11.7
1 8 -18 -5.8 13.9
0 8 -18 -16.6 13.5
-1 8 -18 -30.1 13.9
-2 8 -18 1 13.9
-2 8 -18 -9.2 15.7
2 -8 18 19.1 32.6
-3 8 -18 10.6 15.1
3 -8 18 62.49 41.6
4 7 -18 17.1 14.5
3 7 -18 68.89 13.9
3 7 -18 52.99 14.1
2 7 -18 44.1 13.6
2 7 -18 60.09 12.7
1 7 -18 -10.5 10.6
0 7 -18 65.19 13.3
-1 7 -18 -19.9 10.3
1 -7 18 26.8 27.8
2 -7 18 -6.6 29.5
-3 7 -18 10 13.4
3 -7 18 11.6 35.8
-4 7 -18 4 13.9
-4 7 -18 -19.2 13.4
5 6 -18 132.09 22.5
5 6 -18 74.49 16.7
4 6 -18 111.79 18.3
4 6 -18 155.58 17.1
3 6 -18 7.2 10.9
3 6 -18 12.4 11
2 6 -18 -0.1 10.1
2 6 -18 -1.5 10.4
2 6 -18 5.1 10.5
1 6 -18 39.6 14.1
1 6 -18 47.8 11.2
1 6 -18 53.99 12
0 6 -18 6 10.4
0 -6 18 28 16.7
-1 6 -18 18.4 10.7
1 -6 18 25.4 21.7
-2 6 -18 37 12.6
2 -6 18 60.19 28.1
-3 6 -18 38.4 13.3
-4 6 -18 -12.4 11.8
-4 6 -18 11.7 12.8
-5 6 -18 3.7 14
-5 6 -18 17.4 16
6 5 -18 9 15.8
5 5 -18 -15.7 11.5
5 5 -18 3.3 12.7
4 5 -18 3.6 11.6
4 5 -18 -3.3 9.3
3 5 -18 10.3 9.8
3 5 -18 1.9 10.7
2 5 -18 153.18 19
2 5 -18 176.48 26.7
2 5 -18 116.39 11.8
1 5 -18 61.29 11.1
1 5 -18 50.89 11.8
1 5 -18 40.1 9.4
0 5 -18 96.49 12.9
0 -5 18 138.09 15.8
-1 5 -18 221.98 21.4
1 -5 18 169.48 26.5
-2 5 -18 257.57 22.6
-3 5 -18 34.3 11.8
-4 5 -18 2 11.7
-5 5 -18 -2 14.5
-5 5 -18 -9.7 13.1
6 4 -18 38.9 16
6 4 -18 35.9 15.1
5 4 -18 9 10.5
5 4 -18 8.1 12.7
4 4 -18 57.19 11
4 4 -18 70.09 13.6
3 4 -18 55.59 9.2
3 4 -18 45.7 9.5
3 4 -18 48.3 12.3
2 4 -18 -9.6 8.6
2 4 -18 -7.8 7.2
2 4 -18 13.6 10.7
1 4 -18 74.09 10.3
1 4 -18 97.99 12.3
1 4 -18 78.79 12.5
0 4 -18 17.2 9.4
0 4 -18 29.9 10.1
0 -4 18 48.9 14.3
-1 4 -18 53.69 11.3
-2 4 -18 52.19 12
-3 4 -18 15.2 10.7
-4 4 -18 176.28 22.7
-5 4 -18 -12.7 14.3
-5 4 -18 12.5 12.2
7 3 -18 25.4 23.8
7 3 -18 -23.1 17.6
6 3 -18 8.8 14.5
6 3 -18 21.4 12.6
5 3 -18 22.1 10.7
5 3 -18 10 12.3
4 3 -18 0.2 10.6
4 3 -18 -1.6 8.6
3 3 -18 -3.1 9.8
3 3 -18 1.4 7.9
3 3 -18 8.7 8.3
2 3 -18 75.99 10.7
2 3 -18 93.79 14
2 3 -18 80.59 9.5
1 3 -18 -3.4 7.7
1 3 -18 -0.7 9.7
1 3 -18 -9.5 7.6
0 3 -18 -10.7 8.1
0 3 -18 10 8.9
0 -3 18 27.7 15.8
-1 3 -18 2.3 9.3
-2 3 -18 11.3 9.2
-3 3 -18 9.8 10.2
-4 3 -18 3.2 16
-5 3 -18 -0.1 12.2
7 2 -18 98.19 16.2
7 2 -18 18.2 17.1
6 2 -18 -10.3 11.4
6 2 -18 -1.5 13.1
5 2 -18 -7.4 12.3
5 2 -18 -10 9.5
4 2 -18 13.4 11.3
4 2 -18 7.5 7.7
4 2 -18 3.9 9
3 2 -18 161.18 18.1
3 2 -18 154.38 15.6
3 2 -18 114.69 14.5
2 2 -18 1.6 10.2
2 2 -18 -5.9 7
-2 -2 18 -0.3 6.7
1 2 -18 46.2 8.9
1 2 -18 41.6 8.6
1 2 -18 21 11.5
-1 -2 18 45.5 8.6
0 2 -18 19.1 8.4
0 2 -18 24.2 8
0 -2 18 14.7 15.4
-1 2 -18 39.1 9.2
1 -2 18 58.19 22.9
1 -2 18 41.7 9.7
-2 2 -18 8.5 8.6
-2 2 -18 29.3 11.8
2 -2 18 2.6 8.9
-3 2 -18 -0.7 8.8
3 -2 18 -3.4 10.1
3 -2 18 12.9 11.3
-4 2 -18 5.8 10.6
4 -2 18 -1.5 10.4
-5 2 -18 9.7 13.2
5 -2 18 35.8 14
7 1 -18 -24.4 15.2
7 1 -18 12.9 15.9
6 1 -18 59.59 12.9
6 1 -18 19.7 14.4
5 1 -18 83.09 14.5
4 1 -18 161.28 19.7
4 1 -18 89.69 14.9
-4 -1 18 142.69 14.6
3 1 -18 27.5 7.8
3 1 -18 38.6 11.7
3 1 -18 29.2 10.4
-3 -1 18 49.1 9
2 1 -18 51.59 12.5
2 1 -18 56.19 8.6
2 1 -18 51.99 8.5
-2 -1 18 77.19 9.2
1 1 -18 20.9 7.5
1 1 -18 14.1 7.8
-1 -1 18 17.6 7.9
0 1 -18 -0.8 6.7
0 -1 18 -15.6 7.2
0 -1 18 16.2 20.9
-1 1 -18 34.9 12.2
-1 1 -18 27.3 7.8
1 -1 18 56.09 22.4
1 -1 18 37.7 10.8
-2 1 -18 0.4 7.5
-2 1 -18 14.2 10.3
2 -1 18 9 9.1
-3 1 -18 37.1 9.8
3 -1 18 47.2 11.9
-4 1 -18 44.8 11.7
4 -1 18 60.69 13.4
-5 1 -18 26.5 27.2
5 -1 18 21.5 14.3
7 0 -18 -17 15.1
7 0 -18 -1.6 13.2
6 0 -18 -6.3 14.1
6 0 -18 -4.4 12
5 0 -18 60.19 11.6
5 0 -18 58.59 14.4
-5 0 18 59.29 8.9
4 0 -18 206.18 29.1
4 0 -18 210.98 28.2
4 0 -18 204.48 19.1
-4 0 18 218.18 16.7
3 0 -18 11.9 8
3 0 -18 31.4 8.3
3 0 -18 26 11.3
-3 0 18 13.5 7.5
2 0 -18 22.5 8.4
2 0 -18 15.2 7.1
2 0 -18 11.2 10
-2 0 18 15.9 8.3
1 0 -18 3.5 6.6
1 0 -18 -8 8.8
-1 0 18 21.6 17.7
0 0 -18 -0.9 6.7
0 0 18 3.3 8.9
0 0 18 8.9 21.7
-1 0 -18 14.1 7.5
1 0 18 10.5 25.1
1 0 18 10.6 9.8
-2 0 -18 19.8 8.2
-2 0 -18 16.7 9.3
2 0 18 18.2 10.1
2 0 18 35.2 25.8
-3 0 -18 38.5 9.5
3 0 18 41.9 12.7
-4 0 -18 42.5 24.1
4 0 18 22.5 13.5
-5 0 -18 23.9 25.5
7 -1 -18 1.5 16.1
6 -1 -18 40.3 12
6 -1 -18 26.1 14.4
5 -1 -18 115.09 13.4
5 -1 -18 76.69 15.7
-5 1 18 96.49 10.9
4 -1 -18 -3.9 10.7
4 -1 -18 -1.7 28.1
4 -1 -18 3.1 10.6
-4 1 18 11.1 8.4
3 -1 -18 13.5 11.6
3 -1 -18 27.3 8.2
-3 1 18 16 8.5
2 -1 -18 -9.7 6.2
2 -1 -18 -1.3 10
2 -1 -18 8 13
-2 1 18 1 9.1
1 -1 -18 8.2 7
-1 1 18 -6.5 8.7
-1 1 18 34.3 24.6
0 -1 -18 12.7 7.1
0 1 18 25.8 9.7
0 1 18 36.1 31.6
-1 -1 -18 19.1 7.4
1 1 18 34.2 11.5
1 1 18 74.29 33.8
-2 -1 -18 318.57 15.4
-2 -1 -18 254.97 19.2
2 1 18 320.07 24.6
-3 -1 -18 67.09 22.5
3 1 18 26.3 13.2
-4 -1 -18 89.09 24.8
4 1 18 51.49 15.5
7 -2 -18 17.7 17.5
6 -2 -18 21.3 15.1
6 -2 -18 22.7 12.4
5 -2 -18 13.6 13.8
5 -2 -18 -12.4 11.2
-5 2 18 -3.1 10.4
4 -2 -18 9.3 12.4
4 -2 -18 24.9 9.6
3 -2 -18 47.8 9.3
3 -2 -18 51.69 13.5
-3 2 18 55.29 10.6
2 -2 -18 74.29 9.2
-2 2 18 88.79 29.6
-2 2 18 43.1 11.2
1 -2 -18 56.79 8.4
-1 2 18 48.4 11.1
0 2 18 17.3 10.7
1 2 18 407.26 26.7
-2 -2 -18 116.19 24.9
2 2 18 81.89 14
-3 -2 -18 0 24.7
3 2 18 -26.9 12.7
6 -3 -18 2.6 15.7
6 -3 -18 35.2 15
5 -3 -18 25.7 14.5
5 -3 -18 -6.8 12.7
-5 3 18 3.4 12.7
4 -3 -18 -6.6 13.1
4 -3 -18 10.9 10.7
-4 3 18 -2.5 10.5
3 -3 -18 -0.6 8.8
-3 3 18 -16 9.8
2 -3 -18 -3.5 7.1
-2 3 18 -14.9 10.1
-1 3 18 16.9 11
0 -3 -18 -18.7 20.7
0 3 18 -17.6 10.9
-1 -3 -18 30.6 21.2
1 3 18 -8.1 12.5
-2 -3 -18 41.6 27.4
2 3 18 -6.5 15.1
5 -4 -18 -7.5 14.8
-5 4 18 -25.5 15.3
-4 4 18 -4.4 21.4
-3 4 18 -27.4 12.5
-2 4 18 -4.1 12
-1 4 18 18.3 13.7
0 4 18 -9.5 13.8
1 4 18 21.8 17.6
-3 5 18 28.3 15.7
-2 5 18 77.49 20.3
0 8 -19 55.29 27.6
3 7 -19 -11.2 17.1
3 7 -19 3.3 12.9
2 7 -19 28.1 14
2 7 -19 11.9 14.7
1 7 -19 0.7 12.6
0 7 -19 107.59 16.2
-1 7 -19 -30.6 12.3
-2 7 -19 -23.6 13.9
2 -7 19 37.2 33.4
-3 7 -19 -8.4 14.4
3 -7 19 14.5 39.6
4 6 -19 5.1 13.6
4 6 -19 63.69 15.4
3 6 -19 8.1 17.4
3 6 -19 -5 11.5
2 6 -19 -11.8 10.7
2 6 -19 -4.3 10
1 6 -19 25.1 11.6
0 6 -19 37 12.1
-1 6 -19 56.69 13.1
1 -6 19 59.49 24.2
-2 6 -19 0.9 11.7
2 -6 19 -4.2 30.1
-3 6 -19 16.4 13.5
-4 6 -19 36.6 15.2
5 5 -19 10.6 12.5
5 5 -19 -1.8 14.1
4 5 -19 -6.1 11.9
4 5 -19 5.3 12.1
3 5 -19 28.9 10.9
3 5 -19 18.2 12.2
2 5 -19 96.29 13.4
2 5 -19 74.79 14
2 5 -19 68.29 15.3
1 5 -19 5.8 10.5
1 5 -19 14.6 10.4
0 5 -19 121.89 13.5
-1 5 -19 196.48 23.7
1 -5 19 171.48 28.8
-2 5 -19 37.2 12
-3 5 -19 50.99 13.6
-4 5 -19 72.79 14.5
6 4 -19 9 16.4
5 4 -19 -1.7 13.1
5 4 -19 0.2 11.8
4 4 -19 57.59 15
4 4 -19 53.79 11.1
3 4 -19 29.4 13
3 4 -19 5.3 11.7
3 4 -19 1.6 9
2 4 -19 49 12.7
2 4 -19 65.89 11.4
2 4 -19 59.19 11.2
1 4 -19 174.98 20.1
1 4 -19 144.99 20
1 4 -19 186.88 26
0 4 -19 51.19 11.7
-1 4 -19 28.1 10.9
-2 4 -19 3.3 10.6
-3 4 -19 -7.1 11.1
-4 4 -19 -1.6 11.6
-5 4 -19 34.8 13.9
6 3 -19 -11.3 15.1
6 3 -19 4.3 13.5
5 3 -19 18.1 13.3
5 3 -19 39.5 12.6
4 3 -19 21.6 10.7
4 3 -19 -16.6 11.8
3 3 -19 -6.1 8.8
3 3 -19 -3.9 9
3 3 -19 -0.9 11
2 3 -19 -0.2 8.5
2 3 -19 19.1 9.7
2 3 -19 14.1 12.9
1 3 -19 12.2 11.9
1 3 -19 -3.8 9.5
1 3 -19 7.6 9.7
0 3 -19 -2.6 9.3
0 -3 19 18 15.5
-1 3 -19 42.5 11.1
-2 3 -19 2.9 10.5
-3 3 -19 -0.4 11.3
-4 3 -19 -10.3 10.9
-5 3 -19 14.4 15.2
6 2 -19 -4.7 14.2
6 2 -19 18.2 15
5 2 -19 74.09 13.4
5 2 -19 51.19 14.9
4 2 -19 35.2 10.3
4 2 -19 1.8 12.2
3 2 -19 150.98 18.8
3 2 -19 198.78 28.3
3 2 -19 203.98 22.7
2 2 -19 41 9.8
2 2 -19 51.19 12.6
2 2 -19 22.6 9.1
-2 -2 19 49.1 9.1
1 2 -19 15.2 8.8
1 2 -19 7.3 8.4
0 -2 19 -0.4 8.7
0 -2 19 11.5 16.3
1 -2 19 86.19 36
1 -2 19 53.09 11.1
-2 2 -19 153.38 20
2 -2 19 152.98 21.8
-3 2 -19 53.59 11.2
3 -2 19 37.6 11.9
-4 2 -19 118.09 14.9
4 -2 19 96.69 15.9
-5 2 -19 37.5 15.8
-5 2 -19 -12.7 36.7
7 1 -19 18.5 15.4
6 1 -19 8.1 12.1
6 1 -19 -16.6 13.9
5 1 -19 6.8 13.9
5 1 -19 1.4 11.7
4 1 -19 -0.5 12.6
4 1 -19 27.4 10.5
-4 -1 19 3.6 8.1
3 1 -19 28.2 9.6
3 1 -19 41.3 9.4
3 1 -19 33.4 12.5
-3 -1 19 36.2 10.6
2 1 -19 11.2 11.1
2 1 -19 15.1 9.2
-2 -1 19 21.8 8.4
1 1 -19 -2.4 7.7
-1 -1 19 -1.7 8.3
0 1 -19 28.1 8.7
0 -1 19 48.3 13.9
-1 1 -19 0.8 8
1 -1 19 11 25.7
1 -1 19 13.1 10
-2 1 -19 8.7 9.2
2 -1 19 -7.4 10.2
2 -1 19 25.5 21.1
-3 1 -19 12.5 10.9
3 -1 19 3.5 11.2
-4 1 -19 3.5 12.1
4 -1 19 -2.6 13.6
7 0 -19 115.79 18.2
6 0 -19 8.1 15
6 0 -19 12.4 12.8
5 0 -19 67.89 12.5
5 0 -19 33 15.1
-5 0 19 69.79 10.1
4 0 -19 13.5 12.8
4 0 -19 28.5 11.1
-4 0 19 20.2 9.3
3 0 -19 30.5 10.3
3 0 -19 12.6 12
3 0 -19 5.1 8.5
-3 0 19 7.6 8.1
2 0 -19 41.5 8.7
2 0 -19 39 12.2
-2 0 19 37.8 9.8
1 0 -19 26.1 8.1
-1 0 19 32.5 16.3
-1 0 19 1.4 10
0 0 -19 7.4 8.3
0 0 19 51.49 35.5
0 0 19 15.1 10.1
-1 0 -19 0.7 8.5
1 0 19 4.4 10.7
-2 0 -19 242.68 18.9
2 0 19 235.08 25.6
3 0 19 23.7 13.1
-4 0 -19 -1.2 25
4 0 19 4.9 19.3
6 -1 -19 60.19 13.9
6 -1 -19 39.1 17.2
5 -1 -19 9.9 13.6
5 -1 -19 12.1 10.9
-5 1 19 -3.8 10.7
4 -1 -19 -5.5 12.2
4 -1 -19 3.1 9.6
-4 1 19 6.9 9.6
3 -1 -19 180.68 18.6
3 -1 -19 187.48 29.8
-3 1 19 196.08 20.3
2 -1 -19 52.49 9.7
-2 1 19 53.39 11.5
1 -1 -19 51.79 9.4
-1 1 19 45.5 11.1
0 -1 -19 34.7 9
0 1 19 30.8 11.8
-1 -1 -19 77.89 9.5
1 1 19 60.29 12.7
2 1 19 -6.4 11.6
-3 -1 -19 -21.8 23.3
3 1 19 -0.7 13.8
6 -2 -19 -1.6 14.9
6 -2 -19 -16.5 15.7
5 -2 -19 -9.8 14.3
5 -2 -19 10.3 12.4
-5 2 19 2.8 13.8
4 -2 -19 32.3 15.3
4 -2 -19 50.69 12.5
-4 2 19 26.1 12.2
3 -2 -19 -9.3 9.6
3 -2 -19 -2.4 12.2
-3 2 19 -10.9 10.3
2 -2 -19 53.89 10.3
-2 2 19 65.59 12.4
1 -2 -19 7.7 8.6
-1 2 19 1.5 10.8
0 2 19 48.1 13
-1 -2 -19 -11 24
1 2 19 8 12.3
-2 -2 -19 182.18 30.3
2 2 19 119.59 16.9
5 -3 -19 7.2 14.9
5 -3 -19 15.6 17.1
-5 3 19 -20.1 14.6
4 -3 -19 -8.7 11.5
4 -3 -19 1.2 14.3
-4 3 19 2.8 13.2
-3 3 19 7.9 12.7
-2 3 19 -2.1 12.4
-1 3 19 -25.7 11.5
0 3 19 29.5 15.1
1 3 19 64.59 15.5
-4 4 19 -13.9 20.2
-3 4 19 -2.9 14.8
-2 4 19 -5.5 14.6
-1 4 19 1.2 14
2 7 -20 41.8 14.7
1 7 -20 40 18.5
0 7 -20 24.4 14.4
-1 7 -20 -13.4 14.4
-2 7 -20 -5.4 17.2
3 6 -20 -1.2 16.9
3 6 -20 17.8 13.9
2 6 -20 1.9 12.1
2 6 -20 13.5 13
1 6 -20 43.5 13.2
0 6 -20 97.19 14.9
-1 6 -20 139.69 17
-2 6 -20 -10.1 13.4
-3 6 -20 -3 14.7
4 5 -20 -26.2 13.3
4 5 -20 -1.5 11.7
3 5 -20 -13.7 11.8
3 5 -20 -21 10.3
2 5 -20 22 12.1
2 5 -20 25.1 12.5
1 5 -20 94.99 14.5
0 5 -20 57.39 12.6
-1 5 -20 101.99 14.3
-2 5 -20 -3 12.1
-3 5 -20 2.8 13.6
-4 5 -20 19.7 14.4
5 4 -20 12.5 16.5
5 4 -20 15.3 12.9
4 4 -20 2.9 10.6
4 4 -20 -12 12.9
3 4 -20 -6.1 9.8
3 4 -20 3.6 12.7
2 4 -20 2.8 9.8
2 4 -20 43.2 11.7
2 4 -20 25.4 12.7
1 4 -20 37.1 11.8
0 4 -20 13 10.7
-1 4 -20 -10.9 10.9
-2 4 -20 -7.2 11.4
-3 4 -20 29.5 13.1
-4 4 -20 10 12.9
5 3 -20 2.8 14.9
5 3 -20 6.1 15.3
4 3 -20 1.4 12.8
4 3 -20 -5.2 10.6
3 3 -20 22.9 10.7
3 3 -20 14.8 13
2 3 -20 33.6 12.5
2 3 -20 21.9 9.9
2 3 -20 33.3 11.2
1 3 -20 1.6 9.8
0 3 -20 9.5 10.1
-1 3 -20 18.5 10.6
-2 3 -20 2.8 10.5
-3 3 -20 40.1 12
-4 3 -20 13.5 14.7
6 2 -20 -32.9 18.4
6 2 -20 -12.2 14
5 2 -20 -1 11.7
5 2 -20 10.3 14.8
4 2 -20 23.1 11.2
4 2 -20 -3.5 13.2
3 2 -20 -4.7 12.5
3 2 -20 31.2 10.3
3 2 -20 -1.9 9.5
2 2 -20 -11 8.9
2 2 -20 -13 9.8
2 2 -20 0.1 11.3
1 2 -20 32.3 11
-1 -2 20 45.2 10.8
0 2 -20 29 10.3
0 -2 20 18.4 10.3
-1 2 -20 -0.1 9.9
1 -2 20 18.9 11
-2 2 -20 8.8 11.8
2 -2 20 -12.6 10.9
-3 2 -20 17.3 12.9
3 -2 20 14.3 12.4
-4 2 -20 54.79 15.5
4 -2 20 46.8 19.6
6 1 -20 -5.5 17.8
6 1 -20 17.5 14.7
5 1 -20 18.1 12.5
5 1 -20 2.1 14.6
4 1 -20 29.3 14.3
4 1 -20 50.59 12.4
-4 -1 20 63.99 11.4
3 1 -20 69.49 10.9
3 1 -20 57.39 14.6
3 1 -20 63.59 12
-3 -1 20 75.19 11
2 1 -20 9.2 9.2
2 1 -20 12.9 12.3
-2 -1 20 8 9
1 1 -20 55.49 10.7
-1 -1 20 65.39 12.2
0 -1 20 40.9 11.4
-1 1 -20 -1.7 12.3
1 -1 20 -7.2 10.6
2 -1 20 8.1 12
-3 1 -20 139.39 15
3 -1 20 90.09 16
6 0 -20 -6.9 16.2
6 0 -20 19.5 14.4
5 0 -20 4.3 12.1
5 0 -20 2.6 14.9
4 0 -20 42 14.6
4 0 -20 8.5 10.5
-4 0 20 43.4 11.8
3 0 -20 90.49 15.4
3 0 -20 102.59 13
-3 0 20 104.49 12.7
-2 0 20 3.2 10.6
1 0 -20 8.8 9.6
-1 0 20 15.3 10.5
0 0 -20 -7 9.8
0 0 20 -1.4 10.6
-1 0 -20 -6.5 10.6
1 0 20 7.1 12.7
2 0 20 61.09 15
3 0 20 -16.2 13.9
6 -1 -20 55.39 16.3
5 -1 -20 5.5 15.4
5 -1 -20 -1.5 13.2
4 -1 -20 30 15.2
4 -1 -20 -14.6 11.5
-4 1 20 -13.4 11.7
3 -1 -20 36 14.4
3 -1 -20 -2.3 10.7
-3 1 20 18.9 11.5
2 -1 -20 27.4 10.8
-2 1 20 10.6 10.9
1 -1 -20 3.7 15.2
-1 1 20 -13.7 10.5
0 -1 -20 104.59 11.7
0 1 20 90.69 13.9
1 1 20 94.89 17
-2 -1 -20 -13.7 28.6
2 1 20 60.19 15.7
5 -2 -20 0.6 16.1
5 -2 -20 1.3 16
-5 2 20 15.7 18.1
4 -2 -20 -15.6 13.9
4 -2 -20 -18 14.4
-4 2 20 26.5 14.1
3 -2 -20 65.19 12.4
-3 2 20 49.2 13.8
-2 2 20 2.6 12.5
-1 2 20 5.3 12.3
0 2 20 125.99 17.1
-1 -2 -20 -17.1 27.1
1 2 20 2 15.5
-4 3 20 18.4 16.3
-3 3 20 20.3 13.7
-2 3 20 -28.3 13.1
-1 3 20 -7 14.4
0 3 20 -6.1 18
2 6 -21 8.8 14.3
2 6 -21 22.7 14
1 6 -21 -20.7 13.5
0 6 -21 -6.1 14.9
-1 6 -21 9.9 17.7
-2 6 -21 9.7 15.2
3 5 -21 50.39 16
3 5 -21 17.8 13.6
2 5 -21 15.2 13
2 5 -21 -17 11.7
1 5 -21 70.09 14.4
0 5 -21 40.6 13.5
-1 5 -21 38 13.9
-2 5 -21 -8.6 14.3
-3 5 -21 15.7 14.8
4 4 -21 4.9 15.7
4 4 -21 -19.5 12.4
3 4 -21 0.4 11.6
3 4 -21 7.8 13.9
2 4 -21 104.89 15
2 4 -21 121.59 16.6
1 4 -21 33.4 12.6
0 4 -21 -7 11.8
-1 4 -21 7.8 12.8
-2 4 -21 -8.8 12.9
-3 4 -21 67.69 15.2
5 3 -21 -22.1 13.3
5 3 -21 -5.9 18.7
4 3 -21 27.7 15.8
4 3 -21 15.6 12.5
3 3 -21 22.5 11.6
3 3 -21 -15.8 12.6
2 3 -21 69.29 13.3
2 3 -21 51.59 15.6
1 3 -21 16.5 12.1
0 3 -21 103.69 14.2
-1 3 -21 6.2 11.8
-2 3 -21 19.7 13.1
-3 3 -21 -10.5 13.9
5 2 -21 15 14.3
5 2 -21 -33.9 16.1
4 2 -21 9.8 14.9
4 2 -21 -3.1 16.2
3 2 -21 13.4 14.6
3 2 -21 17.7 11.5
2 2 -21 11.8 12.9
2 2 -21 13.3 10.8
-2 -2 21 38 11.9
1 2 -21 51.99 12.1
-1 -2 21 66.59 12.1
0 2 -21 9.7 11.2
0 -2 21 20.9 11.4
-1 2 -21 -14.9 11.6
1 -2 21 11.3 11.9
-2 2 -21 -3.1 13.2
2 -2 21 5.6 12.6
-3 2 -21 115.79 16.7
3 -2 21 106.19 16.9
5 1 -21 -14.5 13.1
5 1 -21 6.5 17.6
4 1 -21 12.6 17.8
3 1 -21 205.18 23
3 1 -21 280.57 35.2
-3 -1 21 185.28 24.8
2 1 -21 -11.6 10.3
-2 -1 21 -6.7 10.5
1 1 -21 -2.5 11.7
-1 -1 21 19.6 11
0 1 -21 2.1 12
0 -1 21 -9.2 10.9
-1 1 -21 50.69 13.9
1 -1 21 24.9 12.8
-2 1 -21 -0.5 12.5
2 -1 21 -4 14.1
5 0 -21 40.9 14.7
5 0 -21 28.8 17.2
4 0 -21 -29.4 11.6
4 0 -21 -17.8 15.4
-4 0 21 -6.9 12.4
3 0 -21 10.6 12
3 0 -21 17.9 15.2
-3 0 21 21 13.2
-2 0 21 -8.2 10.8
1 0 -21 21.1 14
-1 0 21 14.8 12.3
0 0 -21 15 12.2
0 0 21 25.1 12.8
1 0 21 13.7 13.8
2 0 21 -8.9 15
4 -1 -21 9.2 14.5
4 -1 -21 -11 15.1
-4 1 21 11.3 14.7
3 -1 -21 -11.3 15.2
-3 1 21 -10.2 13
2 -1 -21 19.2 25.4
-2 1 21 24.2 12.8
-1 1 21 -4.4 12.4
0 1 21 46.1 15.2
1 1 21 -26.6 13.9
-3 2 21 -1.7 15.2
-2 2 21 -8.3 13.6
-1 2 21 -3.3 14.4
0 2 21 30.2 15.6
2 5 -22 46.5 16.3
2 5 -22 47.3 15.7
1 5 -22 -21.4 13.8
0 5 -22 17.1 15.4
-1 5 -22 42 16
3 4 -22 -7.7 15.3
3 4 -22 2.1 13
2 4 -22 25.2 15.4
2 4 -22 -7.6 13.6
1 4 -22 -9.4 12.8
0 4 -22 -14.7 13
-1 4 -22 12.6 13.6
-2 4 -22 4.4 14.4
4 3 -22 -27.2 15.1
4 3 -22 -7.1 26.7
3 3 -22 1.3 12.9
3 3 -22 11.8 15.8
2 3 -22 -12.1 12.3
2 3 -22 18.1 14.6
1 3 -22 34.5 13.4
0 3 -22 -25.1 12.7
-1 3 -22 2.1 14.3
-2 3 -22 15.9 24.4
4 2 -22 -0.2 18.8
4 2 -22 -16.7 13
3 2 -22 -8.5 11.7
3 2 -22 26.2 16.9
2 2 -22 31.2 13
1 2 -22 0.8 12.6
-1 -2 22 39.3 13.1
0 2 -22 15 14.2
0 -2 22 9.9 16
-1 2 -22 -24.5 14.9
1 -2 22 14.1 13.8
-2 2 -22 1.2 17.6
2 -2 22 6.9 14.2
4 1 -22 53.49 15.3
3 1 -22 -32 12.6
3 1 -22 1.7 16.1
-3 -1 22 15.1 14.5
2 1 -22 0.8 13
-2 -1 22 15.2 13.4
1 1 -22 -0.7 13.2
-1 -1 22 -23.1 11.8
0 1 -22 -15.8 13.9
0 -1 22 7 13
-1 1 -22 9.3 14.9
1 -1 22 -3 14.1
4 0 -22 56.19 16.8
3 0 -22 10.7 16.2
-3 0 22 -7 14.9
2 0 -22 -16.7 14.5
-2 0 22 -21.1 13.5
-1 0 22 -8 12.5
0 0 22 -3.8 14.3
-2 1 22 17.9 14.7
-1 1 22 -2.8 13.6
2 3 -23 7.8 14.5
1 3 -23 4.9 13.7
0 3 -23 -9.4 16.1
2 2 -23 12.5 15.5
1 2 -23 -28.4 26.4
-1 -2 23 22.6 15.4
0 2 -23 6.4 17.2
0 -2 23 36.3 13.8
